# generated using pymatgen
data_V3Fe2Cu(PO4)6
_symmetry_space_group_name_H-M   'P 1'
_cell_length_a   8.46833434
_cell_length_b   8.46833434
_cell_length_c   8.46833470
_cell_angle_alpha   61.34857915
_cell_angle_beta   61.34857915
_cell_angle_gamma   61.34857532
_symmetry_Int_Tables_number   1
_chemical_formula_structural   V3Fe2Cu(PO4)6
_chemical_formula_sum   'V3 Fe2 Cu1 P6 O24'
_cell_volume   442.42986178
_cell_formula_units_Z   1
loop_
 _symmetry_equiv_pos_site_id
 _symmetry_equiv_pos_as_xyz
  1  'x, y, z'
loop_
 _atom_site_type_symbol
 _atom_site_label
 _atom_site_symmetry_multiplicity
 _atom_site_fract_x
 _atom_site_fract_y
 _atom_site_fract_z
 _atom_site_occupancy
  V  V0  1  0.35655500  0.35655500  0.35655500  1
  V  V1  1  0.14134500  0.14134500  0.14134500  1
  V  V2  1  0.64323000  0.64323000  0.64323000  1
  Fe  Fe0  1  0.99677200  0.99677200  0.99677200  1
  Fe  Fe1  1  0.49898000  0.49898000  0.49898000  1
  Cu  Cu0  1  0.85560700  0.85560700  0.85560700  1
  P  P0  1  0.04397000  0.75198000  0.45778700  1
  P  P1  1  0.45778700  0.04397000  0.75198000  1
  P  P2  1  0.75198000  0.45778700  0.04397000  1
  P  P3  1  0.25026700  0.54270900  0.95778400  1
  P  P4  1  0.54270900  0.95778400  0.25026700  1
  P  P5  1  0.95778400  0.25026700  0.54270900  1
  O  O0  1  0.49679500  0.87935200  0.68924800  1
  O  O1  1  0.68924800  0.49679500  0.87935200  1
  O  O2  1  0.87935200  0.68924800  0.49679500  1
  O  O3  1  0.05811300  0.91140600  0.25799100  1
  O  O4  1  0.01974500  0.81080700  0.61105600  1
  O  O5  1  0.24094200  0.58792100  0.43209500  1
  O  O6  1  0.25799100  0.05811300  0.91140600  1
  O  O7  1  0.43209500  0.24094200  0.58792100  1
  O  O8  1  0.18700100  0.37939100  0.99663500  1
  O  O9  1  0.58792100  0.43209500  0.24094200  1
  O  O10  1  0.09541100  0.73528000  0.94993500  1
  O  O11  1  0.37939100  0.99663500  0.18700100  1
  O  O12  1  0.61105600  0.01974500  0.81080700  1
  O  O13  1  0.91140600  0.25799100  0.05811300  1
  O  O14  1  0.41510500  0.55327300  0.76159200  1
  O  O15  1  0.81080700  0.61105600  0.01974500  1
  O  O16  1  0.55327300  0.76159200  0.41510500  1
  O  O17  1  0.73528000  0.94993500  0.09541100  1
  O  O18  1  0.76159200  0.41510500  0.55327300  1
  O  O19  1  0.99663500  0.18700100  0.37939100  1
  O  O20  1  0.94993500  0.09541100  0.73528000  1
  O  O21  1  0.11523200  0.32640400  0.49228500  1
  O  O22  1  0.32640400  0.49228500  0.11523200  1
  O  O23  1  0.49228500  0.11523200  0.32640400  1
loop_
_geom_bond_atom_site_label_1
_geom_bond_atom_site_label_2
_geom_bond_distance
_geom_bond_site_symmetry_2
Fe0 O10 2.123530 1_655
Fe0 O17 2.123530 1_556
Fe0 O20 2.123530 1_565
Fe0 O13 2.212257 1_566
Fe0 O6 2.212257 1_665
Fe0 O3 2.212257 1_656
Fe1 O18 2.194118 1_555
Fe1 O16 2.194118 1_555
Fe1 O14 2.194118 1_555
Fe1 O5 2.205108 1_555
Fe1 O7 2.205108 1_555
Fe1 O9 2.205108 1_555
Cu0 O12 1.962671 1_565
Cu0 O15 1.962671 1_556
Cu0 O4 1.962671 1_655
Cu0 O10 2.142658 1_655
Cu0 O20 2.142658 1_565
Cu0 O17 2.142658 1_556
O0 P1 1.560439 1_565
O0 V2 1.895750 1_555
O1 P2 1.560439 1_556
O1 V2 1.895750 1_555
O2 P0 1.560439 1_655
O2 V2 1.895750 1_555
O3 P0 1.571605 1_555
O3 V1 2.016952 1_565
O4 P0 1.497196 1_555
O5 P0 1.574603 1_555
O5 V0 1.992073 1_555
O6 P1 1.571605 1_555
O6 V1 2.016952 1_556
O7 P1 1.574603 1_555
O7 V0 1.992073 1_555
O8 P3 1.553459 1_555
O8 V1 1.907612 1_556
O9 P2 1.574603 1_555
O9 V0 1.992073 1_555
O10 P3 1.520645 1_555
O11 P4 1.553459 1_555
O11 V1 1.907612 1_565
O12 P1 1.497196 1_555
O13 P2 1.571604 1_555
O13 V1 2.016952 1_655
O14 P3 1.571651 1_555
O14 V2 2.034488 1_555
O15 P2 1.497196 1_555
O16 P4 1.571651 1_555
O16 V2 2.034488 1_555
O17 P4 1.520645 1_555
O18 P5 1.571650 1_555
O18 V2 2.034488 1_555
O19 P5 1.553459 1_555
O19 V1 1.907612 1_655
O20 P5 1.520645 1_555
O21 P5 1.546023 1_455
O21 V0 1.878579 1_555
O22 P3 1.546023 1_554
O22 V0 1.878579 1_555
O23 P4 1.546023 1_545
O23 V0 1.878579 1_555
