# generated using pymatgen
data_Na2PH11O8
_symmetry_space_group_name_H-M   'P 1'
_cell_length_a   6.43871600
_cell_length_b   7.17338600
_cell_length_c   9.31049800
_cell_angle_alpha   90.00000000
_cell_angle_beta   90.00000000
_cell_angle_gamma   90.00000000
_symmetry_Int_Tables_number   1
_chemical_formula_structural   Na2PH11O8
_chemical_formula_sum   'Na4 P2 H22 O16'
_cell_volume   430.02765075
_cell_formula_units_Z   2
loop_
 _symmetry_equiv_pos_site_id
 _symmetry_equiv_pos_as_xyz
  1  'x, y, z'
loop_
 _atom_site_type_symbol
 _atom_site_label
 _atom_site_symmetry_multiplicity
 _atom_site_fract_x
 _atom_site_fract_y
 _atom_site_fract_z
 _atom_site_occupancy
  Na  Na0  1  0.50239600  0.50000000  0.84735400  1
  Na  Na1  1  0.49760400  0.00000000  0.34735400  1
  Na  Na2  1  0.46079400  0.50000000  0.27154900  1
  Na  Na3  1  0.53920600  0.00000000  0.77154900  1
  P  P0  1  0.85313400  0.50000000  0.50199500  1
  P  P1  1  0.14686600  0.00000000  0.00199500  1
  H  H0  1  0.89828500  0.50000000  0.35250800  1
  H  H1  1  0.10171500  0.00000000  0.85250800  1
  H  H2  1  0.21789800  0.71365500  0.64051700  1
  H  H3  1  0.21789800  0.28634500  0.64051700  1
  H  H4  1  0.78210200  0.78634500  0.14051700  1
  H  H5  1  0.78210200  0.21365500  0.14051700  1
  H  H6  1  0.45147000  0.66586400  0.60549000  1
  H  H7  1  0.45147000  0.33413600  0.60549000  1
  H  H8  1  0.54853000  0.83413600  0.10549000  1
  H  H9  1  0.54853000  0.16586400  0.10549000  1
  H  H10  1  0.81368000  0.88850400  0.54353200  1
  H  H11  1  0.81368000  0.11149600  0.54353200  1
  H  H12  1  0.18632000  0.61149600  0.04353200  1
  H  H13  1  0.18632000  0.38850400  0.04353200  1
  H  H14  1  0.85178900  0.70860600  0.74820300  1
  H  H15  1  0.85178900  0.29139400  0.74820300  1
  H  H16  1  0.14821100  0.79139400  0.24820300  1
  H  H17  1  0.14821100  0.20860600  0.24820300  1
  H  H18  1  0.86612500  0.74715100  0.91529400  1
  H  H19  1  0.86612500  0.25284900  0.91529400  1
  H  H20  1  0.13387500  0.75284900  0.41529400  1
  H  H21  1  0.13387500  0.24715100  0.41529400  1
  O  O0  1  0.61554000  0.50000000  0.51556500  1
  O  O1  1  0.38446000  0.00000000  0.01556500  1
  O  O2  1  0.95524400  0.67949600  0.56298000  1
  O  O3  1  0.95524400  0.32050400  0.56298000  1
  O  O4  1  0.04475600  0.82050400  0.06298000  1
  O  O5  1  0.04475600  0.17949600  0.06298000  1
  O  O6  1  0.36138900  0.73197000  0.67523100  1
  O  O7  1  0.36138900  0.26803000  0.67523100  1
  O  O8  1  0.63861100  0.76803000  0.17523100  1
  O  O9  1  0.63861100  0.23197000  0.17523100  1
  O  O10  1  0.72240300  0.00000000  0.54025900  1
  O  O11  1  0.27759700  0.50000000  0.04025900  1
  O  O12  1  0.76726100  0.73034100  0.83533800  1
  O  O13  1  0.76726100  0.26965900  0.83533800  1
  O  O14  1  0.23273900  0.76965900  0.33533800  1
  O  O15  1  0.23273900  0.23034100  0.33533800  1
loop_
_geom_bond_atom_site_label_1
_geom_bond_atom_site_label_2
_geom_bond_distance
_geom_bond_site_symmetry_2
Na0 O11 2.306682 1_556
Na0 O12 2.377194 1_555
Na0 O13 2.377194 1_555
Na0 O7 2.482215 1_555
Na0 O6 2.482215 1_555
Na1 O10 2.306682 1_555
Na1 O15 2.377194 1_555
Na1 O14 2.377194 1_545
Na1 O8 2.482215 1_545
Na1 O9 2.482215 1_555
Na2 O9 2.410753 1_555
Na2 O8 2.410753 1_555
Na2 O11 2.455318 1_555
Na2 O0 2.480791 1_555
Na2 O15 2.500130 1_555
Na2 O14 2.500130 1_555
Na3 O6 2.410753 1_545
Na3 O7 2.410753 1_555
Na3 O10 2.455318 1_555
Na3 O1 2.480791 1_556
Na3 O12 2.500130 1_545
Na3 O13 2.500130 1_555
H0 P0 1.421836 1_555
H1 P1 1.421836 1_556
H2 O6 0.987577 1_555
H3 O7 0.987577 1_555
H4 O8 0.987577 1_555
H5 O9 0.987577 1_555
H6 O6 0.991412 1_555
H7 O7 0.991412 1_555
H8 O8 0.991412 1_555
H9 O9 0.991412 1_555
H10 O10 0.992982 1_565
H11 O10 0.992982 1_555
H12 O11 0.992982 1_555
H13 O11 0.992982 1_555
H14 O12 0.989282 1_555
H15 O13 0.989282 1_555
H16 O14 0.989282 1_555
H17 O15 0.989282 1_555
H18 O12 0.986875 1_555
H19 O13 0.986875 1_555
H20 O14 0.986875 1_555
H21 O15 0.986875 1_555
O0 P0 1.535009 1_555
O1 P1 1.535009 1_555
O2 P0 1.553237 1_555
O3 P0 1.553237 1_555
O4 P1 1.553237 1_565
O5 P1 1.553237 1_555
