# generated using pymatgen
data_Cs2SO4
_symmetry_space_group_name_H-M   'P 1'
_cell_length_a   6.22904500
_cell_length_b   8.31394400
_cell_length_c   12.97972100
_cell_angle_alpha   90.00000000
_cell_angle_beta   90.00000000
_cell_angle_gamma   90.00000000
_symmetry_Int_Tables_number   1
_chemical_formula_structural   Cs2SO4
_chemical_formula_sum   'Cs8 S4 O16'
_cell_volume   672.19289949
_cell_formula_units_Z   4
loop_
 _symmetry_equiv_pos_site_id
 _symmetry_equiv_pos_as_xyz
  1  'x, y, z'
loop_
 _atom_site_type_symbol
 _atom_site_label
 _atom_site_symmetry_multiplicity
 _atom_site_fract_x
 _atom_site_fract_y
 _atom_site_fract_z
 _atom_site_occupancy
  Cs  Cs0  1  0.75000000  0.99151000  0.33238800  1
  Cs  Cs1  1  0.75000000  0.17386700  0.05395200  1
  Cs  Cs2  1  0.75000000  0.32613300  0.55395200  1
  Cs  Cs3  1  0.75000000  0.50849000  0.83238800  1
  Cs  Cs4  1  0.25000000  0.49151000  0.16761200  1
  Cs  Cs5  1  0.25000000  0.67386700  0.44604800  1
  Cs  Cs6  1  0.25000000  0.82613300  0.94604800  1
  Cs  Cs7  1  0.25000000  0.00849000  0.66761200  1
  S  S0  1  0.25000000  0.23491000  0.41407200  1
  S  S1  1  0.25000000  0.26509000  0.91407200  1
  S  S2  1  0.75000000  0.73491000  0.08592800  1
  S  S3  1  0.75000000  0.76509000  0.58592800  1
  O  O0  1  0.25000000  0.05507800  0.41436900  1
  O  O1  1  0.05381700  0.20290900  0.86038900  1
  O  O2  1  0.44618300  0.20290900  0.86038900  1
  O  O3  1  0.25000000  0.20485000  0.02382000  1
  O  O4  1  0.25000000  0.29515000  0.52382000  1
  O  O5  1  0.05381700  0.29709100  0.36038900  1
  O  O6  1  0.44618300  0.29709100  0.36038900  1
  O  O7  1  0.25000000  0.44492200  0.91436900  1
  O  O8  1  0.75000000  0.55507800  0.08563100  1
  O  O9  1  0.55381700  0.70290900  0.63961100  1
  O  O10  1  0.94618300  0.70290900  0.63961100  1
  O  O11  1  0.75000000  0.70485000  0.47618000  1
  O  O12  1  0.75000000  0.79515000  0.97618000  1
  O  O13  1  0.55381700  0.79709100  0.13961100  1
  O  O14  1  0.94618300  0.79709100  0.13961100  1
  O  O15  1  0.75000000  0.94492200  0.58563100  1
loop_
_geom_bond_atom_site_label_1
_geom_bond_atom_site_label_2
_geom_bond_distance
_geom_bond_site_symmetry_2
Cs0 O11 3.027107 1_555
Cs0 O5 3.188757 1_665
Cs0 O6 3.188757 1_565
Cs0 O13 3.219789 1_555
Cs0 O14 3.219789 1_555
Cs0 O15 3.309766 1_555
Cs0 O0 3.333444 1_665
Cs0 O0 3.333444 1_565
Cs1 O3 3.149534 1_555
Cs1 O3 3.149534 1_655
Cs1 O2 3.154669 1_554
Cs1 O1 3.154669 1_654
Cs1 O8 3.195929 1_555
Cs1 O12 3.306492 1_544
Cs1 O14 3.541476 1_545
Cs1 O13 3.541476 1_545
Cs2 O4 3.149534 1_555
Cs2 O4 3.149534 1_655
Cs2 O6 3.154669 1_555
Cs2 O5 3.154669 1_655
Cs2 O15 3.195929 1_545
Cs2 O11 3.306492 1_555
Cs2 O10 3.541476 1_555
Cs2 O9 3.541476 1_555
Cs3 O12 3.027107 1_555
Cs3 O1 3.188757 1_655
Cs3 O2 3.188757 1_555
Cs3 O10 3.219789 1_555
Cs3 O9 3.219789 1_555
Cs3 O8 3.309766 1_556
Cs3 O7 3.333444 1_555
Cs3 O7 3.333444 1_655
Cs4 O3 3.027107 1_555
Cs4 O14 3.188757 1_455
Cs4 O13 3.188757 1_555
Cs4 O6 3.219789 1_555
Cs4 O5 3.219789 1_555
Cs4 O7 3.309766 1_554
Cs4 O8 3.333444 1_455
Cs4 O8 3.333444 1_555
Cs5 O11 3.149534 1_555
Cs5 O11 3.149534 1_455
Cs5 O10 3.154669 1_455
Cs5 O9 3.154669 1_555
Cs5 O0 3.195929 1_565
Cs5 O4 3.306492 1_555
Cs5 O6 3.541476 1_555
Cs5 O5 3.541476 1_555
Cs6 O12 3.149534 1_555
Cs6 O12 3.149534 1_455
Cs6 O14 3.154669 1_456
Cs6 O13 3.154669 1_556
Cs6 O7 3.195929 1_555
Cs6 O3 3.306492 1_566
Cs6 O2 3.541476 1_565
Cs6 O1 3.541476 1_565
Cs7 O4 3.027107 1_555
Cs7 O9 3.188757 1_545
Cs7 O10 3.188757 1_445
Cs7 O1 3.219789 1_555
Cs7 O2 3.219789 1_555
Cs7 O0 3.309766 1_555
Cs7 O15 3.333444 1_445
Cs7 O15 3.333444 1_545
O0 S0 1.495118 1_555
O1 S1 1.498712 1_555
O2 S1 1.498712 1_555
O3 S1 1.509976 1_554
O4 S0 1.509976 1_555
O5 S0 1.498712 1_555
O6 S0 1.498712 1_555
O7 S1 1.495118 1_555
O8 S2 1.495118 1_555
O9 S3 1.498712 1_555
O10 S3 1.498712 1_555
O11 S3 1.509976 1_555
O12 S2 1.509976 1_556
O13 S2 1.498712 1_555
O14 S2 1.498712 1_555
O15 S3 1.495118 1_555
