# generated using pymatgen
data_Li3Nb(CoO2)4
_symmetry_space_group_name_H-M   'P 1'
_cell_length_a   6.02015313
_cell_length_b   6.02015313
_cell_length_c   6.12405908
_cell_angle_alpha   59.54315212
_cell_angle_beta   59.54315212
_cell_angle_gamma   60.95379757
_symmetry_Int_Tables_number   1
_chemical_formula_structural   Li3Nb(CoO2)4
_chemical_formula_sum   'Li3 Nb1 Co4 O8'
_cell_volume   156.92563202
_cell_formula_units_Z   1
loop_
 _symmetry_equiv_pos_site_id
 _symmetry_equiv_pos_as_xyz
  1  'x, y, z'
loop_
 _atom_site_type_symbol
 _atom_site_label
 _atom_site_symmetry_multiplicity
 _atom_site_fract_x
 _atom_site_fract_y
 _atom_site_fract_z
 _atom_site_occupancy
  Li  Li0  1  0.00000000  0.50000000  0.00000000  1
  Li  Li1  1  0.50000000  0.00000000  0.00000000  1
  Li  Li2  1  0.00000000  0.00000000  0.50000000  1
  Nb  Nb0  1  0.50000000  0.50000000  0.00000000  1
  Co  Co0  1  0.00000000  0.00000000  0.00000000  1
  Co  Co1  1  0.50000000  0.00000000  0.50000000  1
  Co  Co2  1  0.00000000  0.50000000  0.50000000  1
  Co  Co3  1  0.50000000  0.50000000  0.50000000  1
  O  O0  1  0.74021300  0.74021300  0.75965100  1
  O  O1  1  0.26639400  0.74140000  0.23323600  1
  O  O2  1  0.74140000  0.26639400  0.23323600  1
  O  O3  1  0.25978700  0.25978700  0.24034900  1
  O  O4  1  0.25001500  0.25001500  0.73145500  1
  O  O5  1  0.73360600  0.25860000  0.76676400  1
  O  O6  1  0.25860000  0.73360600  0.76676400  1
  O  O7  1  0.74998500  0.74998500  0.26854500  1
loop_
_geom_bond_atom_site_label_1
_geom_bond_atom_site_label_2
_geom_bond_distance
_geom_bond_site_symmetry_2
Li0 O2 2.068065 1_455
Li0 O6 2.068065 1_554
Li0 O0 2.164125 1_454
Li0 O3 2.164125 1_555
Li0 O4 2.243908 1_554
Li0 O7 2.243908 1_455
Li1 O5 2.068065 1_554
Li1 O1 2.068065 1_545
Li1 O0 2.164125 1_544
Li1 O3 2.164125 1_555
Li1 O7 2.243908 1_545
Li1 O4 2.243908 1_554
Li2 O3 2.180188 1_555
Li2 O0 2.180188 1_445
Li2 O5 2.272100 1_455
Li2 O2 2.272100 1_455
Li2 O6 2.272100 1_545
Li2 O1 2.272100 1_545
Nb0 O3 2.015923 1_555
Nb0 O0 2.015923 1_554
Nb0 O2 2.052640 1_555
Nb0 O1 2.052640 1_555
Nb0 O5 2.052640 1_554
Nb0 O6 2.052640 1_554
Co0 O4 2.101530 1_554
Co0 O7 2.101530 1_445
Co0 O1 2.163186 1_545
Co0 O5 2.163186 1_454
Co0 O6 2.163186 1_544
Co0 O2 2.163186 1_455
Co1 O4 2.083307 1_555
Co1 O7 2.083307 1_545
Co1 O2 2.133778 1_555
Co1 O6 2.133778 1_545
Co1 O3 2.163237 1_555
Co1 O0 2.163237 1_545
Co2 O4 2.083307 1_555
Co2 O7 2.083307 1_455
Co2 O1 2.133778 1_555
Co2 O5 2.133778 1_455
Co2 O0 2.163237 1_455
Co2 O3 2.163237 1_555
Co3 O7 2.100713 1_555
Co3 O4 2.100713 1_555
Co3 O2 2.167117 1_555
Co3 O6 2.167117 1_555
Co3 O1 2.167117 1_555
Co3 O5 2.167117 1_555
