# generated using pymatgen
data_LiCuF4
_symmetry_space_group_name_H-M   'P 1'
_cell_length_a   6.80210200
_cell_length_b   7.95225402
_cell_length_c   9.89197819
_cell_angle_alpha   98.98120022
_cell_angle_beta   105.80889554
_cell_angle_gamma   101.32981355
_symmetry_Int_Tables_number   1
_chemical_formula_structural   LiCuF4
_chemical_formula_sum   'Li6 Cu6 F24'
_cell_volume   492.18571237
_cell_formula_units_Z   6
loop_
 _symmetry_equiv_pos_site_id
 _symmetry_equiv_pos_as_xyz
  1  'x, y, z'
loop_
 _atom_site_type_symbol
 _atom_site_label
 _atom_site_symmetry_multiplicity
 _atom_site_fract_x
 _atom_site_fract_y
 _atom_site_fract_z
 _atom_site_occupancy
  Li  Li0  1  0.49953500  0.81256700  0.10604700  1
  Li  Li1  1  0.99521700  0.52570100  0.26162900  1
  Li  Li2  1  0.15478600  0.07585300  0.34315100  1
  Li  Li3  1  0.84521400  0.92414700  0.65684900  1
  Li  Li4  1  0.00478300  0.47429900  0.73837100  1
  Li  Li5  1  0.50046500  0.18743300  0.89395300  1
  Cu  Cu0  1  0.05152500  0.19610500  0.00245600  1
  Cu  Cu1  1  0.46565000  0.40190000  0.24250100  1
  Cu  Cu2  1  0.74266100  0.19775900  0.41632800  1
  Cu  Cu3  1  0.25733900  0.80224100  0.58367200  1
  Cu  Cu4  1  0.53435000  0.59810000  0.75749900  1
  Cu  Cu5  1  0.94847500  0.80389500  0.99754400  1
  F  F0  1  0.78521200  0.21648900  0.00711100  1
  F  F1  1  0.94425100  0.66361000  0.12932200  1
  F  F2  1  0.34204200  0.20006200  0.02911600  1
  F  F3  1  0.52865000  0.59376800  0.17966300  1
  F  F4  1  0.73434600  0.37761200  0.28078300  1
  F  F5  1  0.18071900  0.39067100  0.18458600  1
  F  F6  1  0.04897300  0.02513100  0.13666200  1
  F  F7  1  0.65121600  0.00445500  0.26080200  1
  F  F8  1  0.42902500  0.23312600  0.34785900  1
  F  F9  1  0.27685900  0.93447000  0.44877900  1
  F  F10  1  0.97488400  0.78175800  0.56596500  1
  F  F11  1  0.19739500  0.59853700  0.44043800  1
  F  F12  1  0.80260500  0.40146300  0.55956200  1
  F  F13  1  0.02511600  0.21824200  0.43403500  1
  F  F14  1  0.72314100  0.06553000  0.55122100  1
  F  F15  1  0.57097500  0.76687400  0.65214100  1
  F  F16  1  0.34878400  0.99554500  0.73919800  1
  F  F17  1  0.95102700  0.97486900  0.86333800  1
  F  F18  1  0.81928100  0.60932900  0.81541400  1
  F  F19  1  0.26565400  0.62238800  0.71921700  1
  F  F20  1  0.47135000  0.40623200  0.82033700  1
  F  F21  1  0.65795800  0.79993800  0.97088400  1
  F  F22  1  0.05574900  0.33639000  0.87067800  1
  F  F23  1  0.21478800  0.78351100  0.99288900  1
loop_
_geom_bond_atom_site_label_1
_geom_bond_atom_site_label_2
_geom_bond_distance
_geom_bond_site_symmetry_2
Cu0 F22 1.845651 1_554
Cu0 F0 1.862358 1_455
Cu0 F2 1.914325 1_555
Cu0 F17 1.927510 1_444
Cu0 F5 2.035891 1_555
Cu0 F6 2.044053 1_555
Cu1 F3 1.755670 1_555
Cu1 F4 1.818135 1_555
Cu1 F8 1.842928 1_555
Cu1 F5 1.844878 1_555
Cu1 F2 2.276756 1_555
Cu2 F14 1.839453 1_555
Cu2 F13 1.852924 1_655
Cu2 F7 1.865820 1_555
Cu2 F12 1.872688 1_555
Cu2 F4 2.106121 1_555
Cu2 F8 2.144084 1_555
Cu3 F9 1.839453 1_555
Cu3 F10 1.852924 1_455
Cu3 F16 1.865820 1_555
Cu3 F11 1.872688 1_555
Cu3 F19 2.106121 1_555
Cu3 F15 2.144084 1_555
Cu4 F20 1.755670 1_555
Cu4 F19 1.818135 1_555
Cu4 F15 1.842928 1_555
Cu4 F18 1.844878 1_555
Cu4 F21 2.276756 1_555
Cu5 F1 1.845651 1_556
Cu5 F23 1.862358 1_655
Cu5 F21 1.914325 1_555
Cu5 F6 1.927510 1_666
Cu5 F18 2.035891 1_555
Cu5 F17 2.044053 1_555
F0 Li5 1.902620 1_554
F1 Li1 1.840139 1_555
F2 Li5 1.935098 1_554
F3 Li0 2.012294 1_555
F4 Li1 2.000818 1_555
F5 Li1 2.031453 1_455
F6 Li2 1.918479 1_555
F7 Li0 1.878284 1_545
F8 Li2 2.015909 1_555
F9 Li2 1.818294 1_565
F10 Li3 1.837113 1_555
F11 Li1 1.843127 1_455
F12 Li4 1.843127 1_655
F13 Li2 1.837113 1_555
F14 Li3 1.818294 1_545
F15 Li3 2.015909 1_555
F16 Li5 1.878284 1_565
F17 Li3 1.918479 1_555
F18 Li4 2.031453 1_655
F19 Li4 2.000818 1_555
F20 Li5 2.012294 1_555
F21 Li0 1.935098 1_556
F22 Li4 1.840139 1_555
F23 Li0 1.902620 1_556
