# generated using pymatgen
data_CsKNaLi13(SiO4)4
_symmetry_space_group_name_H-M   'P 1'
_cell_length_a   8.62869310
_cell_length_b   8.62869310
_cell_length_c   15.98123422
_cell_angle_alpha   89.58392737
_cell_angle_beta   89.58392737
_cell_angle_gamma   44.01761345
_symmetry_Int_Tables_number   1
_chemical_formula_structural   CsKNaLi13(SiO4)4
_chemical_formula_sum   'Cs2 K2 Na2 Li26 Si8 O32'
_cell_volume   826.79248706
_cell_formula_units_Z   2
loop_
 _symmetry_equiv_pos_site_id
 _symmetry_equiv_pos_as_xyz
  1  'x, y, z'
loop_
 _atom_site_type_symbol
 _atom_site_label
 _atom_site_symmetry_multiplicity
 _atom_site_fract_x
 _atom_site_fract_y
 _atom_site_fract_z
 _atom_site_occupancy
  Cs  Cs0  1  0.25116000  0.25116000  0.74941200  1
  Cs  Cs1  1  0.74884000  0.74884000  0.25058800  1
  K  K0  1  0.75100200  0.75100200  0.74949400  1
  K  K1  1  0.24899800  0.24899800  0.25050600  1
  Na  Na0  1  0.24836800  0.75163200  0.50000000  1
  Na  Na1  1  0.75163200  0.24836800  0.50000000  1
  Li  Li0  1  0.32924400  0.83062100  0.81903000  1
  Li  Li1  1  0.42489700  0.42489700  0.84637600  1
  Li  Li2  1  0.83371200  0.32883900  0.31345800  1
  Li  Li3  1  0.57181800  0.06499000  0.92160600  1
  Li  Li4  1  0.93501000  0.42818200  0.07839400  1
  Li  Li5  1  0.83062100  0.32924400  0.81903000  1
  Li  Li6  1  0.92536100  0.92536100  0.34514700  1
  Li  Li7  1  0.84400200  0.84400200  0.07572000  1
  Li  Li8  1  0.00000000  0.00000000  0.00000000  1
  Li  Li9  1  0.15599800  0.15599800  0.92428000  1
  Li  Li10  1  0.07203700  0.56122900  0.41787400  1
  Li  Li11  1  0.43877100  0.92796300  0.58212600  1
  Li  Li12  1  0.32883900  0.83371200  0.31345800  1
  Li  Li13  1  0.16937900  0.67075600  0.18097000  1
  Li  Li14  1  0.06499000  0.57181800  0.92160600  1
  Li  Li15  1  0.42818200  0.93501000  0.07839400  1
  Li  Li16  1  0.34816900  0.34816900  0.57405000  1
  Li  Li17  1  0.65183100  0.65183100  0.42595000  1
  Li  Li18  1  0.57510300  0.57510300  0.15362400  1
  Li  Li19  1  0.50000000  0.50000000  0.00000000  1
  Li  Li20  1  0.67116100  0.16628800  0.68654200  1
  Li  Li21  1  0.56122900  0.07203700  0.41787400  1
  Li  Li22  1  0.92796300  0.43877100  0.58212600  1
  Li  Li23  1  0.67075600  0.16937900  0.18097000  1
  Li  Li24  1  0.07463900  0.07463900  0.65485300  1
  Li  Li25  1  0.16628800  0.67116100  0.68654200  1
  Si  Si0  1  0.68716700  0.68716700  0.93962400  1
  Si  Si1  1  0.18649200  0.18649200  0.44198400  1
  Si  Si2  1  0.06077700  0.06077700  0.18558800  1
  Si  Si3  1  0.93922300  0.93922300  0.81441200  1
  Si  Si4  1  0.56009000  0.56009000  0.68937700  1
  Si  Si5  1  0.43991000  0.43991000  0.31062300  1
  Si  Si6  1  0.31283300  0.31283300  0.06037600  1
  Si  Si7  1  0.81350800  0.81350800  0.55801600  1
  O  O0  1  0.46464200  0.89539200  0.88304000  1
  O  O1  1  0.61892200  0.61892200  0.02042200  1
  O  O2  1  0.52573300  0.52573300  0.78766400  1
  O  O3  1  0.96295300  0.39162200  0.38480200  1
  O  O4  1  0.90562000  0.33107200  0.17637900  1
  O  O5  1  0.89539200  0.46464200  0.88304000  1
  O  O6  1  0.66892800  0.09438000  0.82362100  1
  O  O7  1  0.12110100  0.12110100  0.52467700  1
  O  O8  1  0.02399100  0.02399100  0.28221400  1
  O  O9  1  0.98018200  0.98018200  0.11818200  1
  O  O10  1  0.78320800  0.78320800  0.97737800  1
  O  O11  1  0.21679200  0.21679200  0.02262200  1
  O  O12  1  0.01981800  0.01981800  0.88181800  1
  O  O13  1  0.40381500  0.83190100  0.67799800  1
  O  O14  1  0.39162200  0.96295300  0.38480200  1
  O  O15  1  0.16809900  0.59618500  0.32200200  1
  O  O16  1  0.33107200  0.90562000  0.17637900  1
  O  O17  1  0.10460800  0.53535800  0.11696000  1
  O  O18  1  0.09438000  0.66892800  0.82362100  1
  O  O19  1  0.47831700  0.47831700  0.62409900  1
  O  O20  1  0.28402400  0.28402400  0.47562000  1
  O  O21  1  0.71597600  0.71597600  0.52438000  1
  O  O22  1  0.52168300  0.52168300  0.37590100  1
  O  O23  1  0.47426700  0.47426700  0.21233600  1
  O  O24  1  0.38107800  0.38107800  0.97957800  1
  O  O25  1  0.83190100  0.40381500  0.67799800  1
  O  O26  1  0.60837800  0.03704700  0.61519800  1
  O  O27  1  0.59618500  0.16809900  0.32200200  1
  O  O28  1  0.53535800  0.10460800  0.11696000  1
  O  O29  1  0.97600900  0.97600900  0.71778600  1
  O  O30  1  0.87889900  0.87889900  0.47532300  1
  O  O31  1  0.03704700  0.60837800  0.61519800  1
loop_
_geom_bond_atom_site_label_1
_geom_bond_atom_site_label_2
_geom_bond_distance
_geom_bond_site_symmetry_2
Cs0 O5 3.034202 1_455
Cs0 O0 3.034202 1_545
Cs0 O6 3.042387 1_555
Cs0 O18 3.042387 1_555
Cs0 O31 3.047270 1_555
Cs0 O26 3.047270 1_555
Cs0 O25 3.051157 1_455
Cs0 O13 3.051157 1_545
Cs1 O17 3.034202 1_655
Cs1 O28 3.034202 1_565
Cs1 O16 3.042387 1_555
Cs1 O4 3.042387 1_555
Cs1 O3 3.047270 1_555
Cs1 O14 3.047270 1_555
Cs1 O27 3.051157 1_565
Cs1 O15 3.051157 1_655
K0 O18 2.775718 1_655
K0 O6 2.775718 1_565
K0 O5 2.783338 1_555
K0 O0 2.783338 1_555
K0 O13 2.792470 1_555
K0 O25 2.792470 1_555
K0 O26 2.793828 1_565
K0 O31 2.793828 1_655
K1 O16 2.775718 1_545
K1 O4 2.775718 1_455
K1 O28 2.783338 1_555
K1 O17 2.783338 1_555
K1 O15 2.792470 1_555
K1 O27 2.792470 1_555
K1 O3 2.793828 1_455
K1 O14 2.793828 1_545
Na0 O30 2.549856 1_455
Na0 O7 2.549856 1_565
Na0 O19 2.586726 1_555
Na0 O22 2.586726 1_555
Na1 O30 2.549856 1_545
Na1 O7 2.549856 1_655
Na1 O19 2.586726 1_555
Na1 O22 2.586726 1_555
Li0 O2 1.907493 1_555
Li0 O0 1.920552 1_555
Li0 O12 2.125207 1_565
Li0 O13 2.341550 1_555
Li1 O2 1.859996 1_555
Li1 O6 2.016558 1_555
Li1 O18 2.016558 1_555
Li1 O24 2.235991 1_555
Li2 O8 1.913076 1_655
Li2 O3 1.932205 1_555
Li2 O22 2.134307 1_555
Li2 O4 2.276253 1_555
Li3 O6 1.870656 1_555
Li3 O10 1.909660 1_545
Li3 O24 2.136435 1_555
Li3 O0 2.311816 1_545
Li4 O4 1.870656 1_555
Li4 O11 1.909660 1_655
Li4 O1 2.136435 1_555
Li4 O17 2.311816 1_655
Li5 O2 1.907493 1_555
Li5 O5 1.920552 1_555
Li5 O12 2.125207 1_655
Li5 O25 2.341550 1_555
Li6 O8 1.864653 1_665
Li6 O27 2.009736 1_565
Li6 O15 2.009736 1_655
Li6 O30 2.203711 1_555
Li7 O10 1.854746 1_554
Li7 O28 1.991570 1_565
Li7 O17 1.991570 1_655
Li7 O9 2.287146 1_555
Li8 O9 1.912675 1_445
Li8 O12 1.912675 1_554
Li9 O11 1.854746 1_556
Li9 O0 1.991570 1_545
Li9 O5 1.991570 1_455
Li9 O12 2.287146 1_555
Li10 O15 1.860095 1_555
Li10 O20 1.902254 1_555
Li10 O30 2.139629 1_455
Li10 O3 2.303641 1_455
Li11 O13 1.860095 1_555
Li11 O21 1.902254 1_555
Li11 O7 2.139629 1_565
Li11 O26 2.303641 1_565
Li12 O8 1.913076 1_565
Li12 O14 1.932205 1_555
Li12 O22 2.134307 1_555
Li12 O16 2.276253 1_555
Li13 O23 1.907493 1_555
Li13 O17 1.920552 1_555
Li13 O9 2.125207 1_455
Li13 O15 2.341550 1_555
Li14 O18 1.870656 1_555
Li14 O10 1.909660 1_455
Li14 O24 2.136435 1_555
Li14 O5 2.311816 1_455
Li15 O16 1.870656 1_555
Li15 O11 1.909660 1_565
Li15 O1 2.136435 1_555
Li15 O28 2.311816 1_565
Li16 O20 1.884947 1_555
Li16 O31 2.001802 1_555
Li16 O26 2.001802 1_555
Li16 O19 2.236510 1_555
Li17 O21 1.884947 1_555
Li17 O14 2.001802 1_555
Li17 O3 2.001802 1_555
Li17 O22 2.236510 1_555
Li18 O23 1.859996 1_555
Li18 O16 2.016558 1_555
Li18 O4 2.016558 1_555
Li18 O1 2.235991 1_555
Li19 O1 1.933031 1_555
Li19 O24 1.933031 1_554
Li20 O29 1.913076 1_545
Li20 O26 1.932205 1_555
Li20 O19 2.134307 1_555
Li20 O6 2.276253 1_555
Li21 O27 1.860095 1_555
Li21 O20 1.902254 1_555
Li21 O30 2.139629 1_545
Li21 O14 2.303641 1_545
Li22 O25 1.860095 1_555
Li22 O21 1.902254 1_555
Li22 O7 2.139629 1_655
Li22 O31 2.303641 1_655
Li23 O23 1.907493 1_555
Li23 O28 1.920552 1_555
Li23 O9 2.125207 1_545
Li23 O27 2.341550 1_555
Li24 O29 1.864653 1_445
Li24 O25 2.009736 1_455
Li24 O13 2.009736 1_545
Li24 O7 2.203711 1_555
Li25 O29 1.913076 1_455
Li25 O31 1.932205 1_555
Li25 O19 2.134307 1_555
Li25 O18 2.276253 1_555
O0 Si0 1.665090 1_555
O1 Si0 1.684488 1_554
O2 Si4 1.660089 1_555
O3 Si1 1.667419 1_655
O4 Si2 1.661506 1_655
O5 Si0 1.665090 1_555
O6 Si3 1.661506 1_545
O7 Si1 1.679113 1_555
O8 Si2 1.648253 1_555
O9 Si2 1.686713 1_665
O10 Si0 1.655236 1_555
O11 Si6 1.655236 1_555
O12 Si3 1.686713 1_445
O13 Si4 1.673585 1_555
O14 Si1 1.667419 1_565
O15 Si5 1.673585 1_555
O16 Si2 1.661506 1_565
O17 Si6 1.665090 1_555
O18 Si3 1.661506 1_455
O19 Si4 1.679725 1_555
O20 Si1 1.654456 1_555
O21 Si7 1.654456 1_555
O22 Si5 1.679725 1_555
O23 Si5 1.660089 1_555
O24 Si6 1.684488 1_556
O25 Si4 1.673585 1_555
O26 Si7 1.667419 1_545
O27 Si5 1.673585 1_555
O28 Si6 1.665090 1_555
O29 Si3 1.648253 1_555
O30 Si7 1.679113 1_555
O31 Si7 1.667419 1_455
