# generated using pymatgen
data_Li4Mn5Fe3O16
_symmetry_space_group_name_H-M   'P 1'
_cell_length_a   5.90344144
_cell_length_b   5.90344144
_cell_length_c   9.49848932
_cell_angle_alpha   88.89159690
_cell_angle_beta   88.89159690
_cell_angle_gamma   59.81141586
_symmetry_Int_Tables_number   1
_chemical_formula_structural   Li4Mn5Fe3O16
_chemical_formula_sum   'Li4 Mn5 Fe3 O16'
_cell_volume   286.06129349
_cell_formula_units_Z   1
loop_
 _symmetry_equiv_pos_site_id
 _symmetry_equiv_pos_as_xyz
  1  'x, y, z'
loop_
 _atom_site_type_symbol
 _atom_site_label
 _atom_site_symmetry_multiplicity
 _atom_site_fract_x
 _atom_site_fract_y
 _atom_site_fract_z
 _atom_site_occupancy
  Li  Li0  1  0.66982400  0.66982400  0.89736600  1
  Li  Li1  1  0.99787800  0.99787800  0.99604200  1
  Li  Li2  1  0.99976500  0.99976500  0.49219800  1
  Li  Li3  1  0.33720500  0.33720500  0.39590600  1
  Mn  Mn0  1  0.66570400  0.66570400  0.48454100  1
  Mn  Mn1  1  0.82722800  0.82722800  0.21339300  1
  Mn  Mn2  1  0.33058800  0.33058800  0.98534900  1
  Mn  Mn3  1  0.66224900  0.17122100  0.71337300  1
  Mn  Mn4  1  0.17122100  0.66224900  0.71337300  1
  Fe  Fe0  1  0.82581700  0.33800600  0.21243400  1
  Fe  Fe1  1  0.33800600  0.82581700  0.21243400  1
  Fe  Fe2  1  0.16969700  0.16969700  0.71237200  1
  O  O0  1  0.83428900  0.32974400  0.59979200  1
  O  O1  1  0.51868000  0.51868000  0.34427400  1
  O  O2  1  0.67326200  0.67326200  0.10393900  1
  O  O3  1  0.99073600  0.99073600  0.30583800  1
  O  O4  1  0.99477900  0.99477900  0.80760900  1
  O  O5  1  0.32974400  0.83428900  0.59979200  1
  O  O6  1  0.95912700  0.52745400  0.34296900  1
  O  O7  1  0.52745400  0.95912700  0.34296900  1
  O  O8  1  0.16566300  0.16566300  0.09446200  1
  O  O9  1  0.83675600  0.83675600  0.60463800  1
  O  O10  1  0.48576300  0.04400200  0.84237400  1
  O  O11  1  0.04400200  0.48576300  0.84237400  1
  O  O12  1  0.34089200  0.34089200  0.60768400  1
  O  O13  1  0.66388900  0.16059200  0.09957300  1
  O  O14  1  0.48091400  0.48091400  0.84127100  1
  O  O15  1  0.16059200  0.66388900  0.09957300  1
loop_
_geom_bond_atom_site_label_1
_geom_bond_atom_site_label_2
_geom_bond_distance
_geom_bond_site_symmetry_2
Li0 O2 1.963232 1_556
Li0 O10 1.973921 1_565
Li0 O11 1.973921 1_655
Li0 O14 2.016952 1_555
Li1 O4 1.790817 1_555
Li1 O15 1.958083 1_656
Li1 O13 1.958083 1_566
Li1 O8 1.973446 1_666
Li2 O3 1.774607 1_555
Li2 O9 1.960750 1_555
Li2 O0 1.979412 1_565
Li2 O5 1.979412 1_655
Li3 O1 1.910399 1_555
Li3 O6 1.999103 1_455
Li3 O7 1.999103 1_545
Li3 O12 2.012767 1_555
Mn0 O6 2.001365 1_555
Mn0 O7 2.001365 1_555
Mn0 O0 2.023730 1_555
Mn0 O5 2.023730 1_555
Mn0 O1 2.031959 1_555
Mn0 O9 2.110755 1_555
Mn1 O3 1.907120 1_555
Mn1 O2 1.907131 1_555
Mn1 O7 1.954462 1_555
Mn1 O6 1.954462 1_555
Mn1 O15 2.005285 1_655
Mn1 O13 2.005285 1_565
Mn2 O8 1.960944 1_556
Mn2 O10 2.006961 1_555
Mn2 O11 2.006961 1_555
Mn2 O13 2.027411 1_556
Mn2 O15 2.027411 1_556
Mn2 O14 2.036178 1_555
Mn3 O4 1.927515 1_545
Mn3 O12 1.932314 1_555
Mn3 O10 1.962877 1_555
Mn3 O0 1.986356 1_555
Mn3 O9 2.004664 1_545
Mn3 O14 2.007894 1_555
Mn4 O4 1.927515 1_455
Mn4 O12 1.932314 1_555
Mn4 O11 1.962877 1_555
Mn4 O5 1.986356 1_555
Mn4 O9 2.004664 1_455
Mn4 O14 2.007894 1_555
Fe0 O3 1.973219 1_545
Fe0 O2 1.988616 1_555
Fe0 O1 2.003074 1_555
Fe0 O8 2.054305 1_655
Fe0 O13 2.061539 1_555
Fe0 O6 2.093812 1_555
Fe1 O3 1.973219 1_455
Fe1 O2 1.988616 1_555
Fe1 O1 2.003074 1_555
Fe1 O8 2.054305 1_565
Fe1 O15 2.061539 1_555
Fe1 O7 2.093812 1_555
Fe2 O4 1.987715 1_445
Fe2 O12 1.995250 1_555
Fe2 O0 2.029332 1_455
Fe2 O5 2.029332 1_545
Fe2 O11 2.053816 1_555
Fe2 O10 2.053816 1_555
