# generated using pymatgen
data_Fe4O7F
_symmetry_space_group_name_H-M   'P 1'
_cell_length_a   5.51444164
_cell_length_b   5.51444164
_cell_length_c   10.19154305
_cell_angle_alpha   69.28128046
_cell_angle_beta   69.28128046
_cell_angle_gamma   66.01392127
_symmetry_Int_Tables_number   1
_chemical_formula_structural   Fe4O7F
_chemical_formula_sum   'Fe8 O14 F2'
_cell_volume   256.72211479
_cell_formula_units_Z   2
loop_
 _symmetry_equiv_pos_site_id
 _symmetry_equiv_pos_as_xyz
  1  'x, y, z'
loop_
 _atom_site_type_symbol
 _atom_site_label
 _atom_site_symmetry_multiplicity
 _atom_site_fract_x
 _atom_site_fract_y
 _atom_site_fract_z
 _atom_site_occupancy
  Fe  Fe0  1  0.36368400  0.36368400  0.25739000  1
  Fe  Fe1  1  0.10806600  0.10806600  0.76089800  1
  Fe  Fe2  1  0.76000800  0.25178500  0.49595900  1
  Fe  Fe3  1  0.25178500  0.76000800  0.49595900  1
  Fe  Fe4  1  0.49696900  0.01542200  0.99581200  1
  Fe  Fe5  1  0.63061400  0.63061400  0.74669200  1
  Fe  Fe6  1  0.87655300  0.87655300  0.24914100  1
  Fe  Fe7  1  0.01542200  0.49696900  0.99581200  1
  O  O0  1  0.14684200  0.14684200  0.40228200  1
  O  O1  1  0.07861600  0.57697300  0.15269900  1
  O  O2  1  0.42511200  0.92186200  0.84604100  1
  O  O3  1  0.67079000  0.17484900  0.34665100  1
  O  O4  1  0.17484900  0.67079000  0.34665100  1
  O  O5  1  0.11107400  0.11107400  0.09191400  1
  O  O6  1  0.88572600  0.88572600  0.91138000  1
  O  O7  1  0.63922400  0.63922400  0.40509500  1
  O  O8  1  0.40294300  0.40294300  0.89808000  1
  O  O9  1  0.32975600  0.82339900  0.65402600  1
  O  O10  1  0.82339900  0.32975600  0.65402600  1
  O  O11  1  0.57697300  0.07861600  0.15269900  1
  O  O12  1  0.92186200  0.42511200  0.84604100  1
  O  O13  1  0.86140100  0.86140100  0.59390600  1
  F  F0  1  0.34822100  0.34822100  0.59892600  1
  F  F1  1  0.60011500  0.60011500  0.10191600  1
loop_
_geom_bond_atom_site_label_1
_geom_bond_atom_site_label_2
_geom_bond_distance
_geom_bond_site_symmetry_2
Fe0 O0 1.924582 1_555
Fe0 O3 1.940605 1_555
Fe0 O4 1.940605 1_555
Fe0 O1 1.946414 1_555
Fe0 O11 1.946414 1_555
Fe1 O2 1.961483 1_545
Fe1 O12 1.961483 1_455
Fe1 O10 1.962763 1_455
Fe1 O9 1.962763 1_545
Fe1 O6 1.979865 1_445
Fe2 O0 1.934701 1_655
Fe2 O7 1.935305 1_555
Fe2 O13 1.959392 1_545
Fe2 O3 1.973262 1_555
Fe2 O10 1.978121 1_555
Fe3 O0 1.934701 1_565
Fe3 O7 1.935305 1_555
Fe3 O13 1.959392 1_455
Fe3 O4 1.973262 1_555
Fe3 O9 1.978121 1_555
Fe4 O6 1.931681 1_545
Fe4 O5 1.934970 1_556
Fe4 O8 1.945783 1_555
Fe4 O11 1.972558 1_556
Fe4 O2 1.975975 1_545
Fe5 O9 1.933609 1_555
Fe5 O10 1.933609 1_555
Fe5 O2 1.935941 1_555
Fe5 O12 1.935941 1_555
Fe5 O8 2.018237 1_555
Fe5 O13 2.043642 1_555
Fe6 O1 1.952996 1_655
Fe6 O11 1.952996 1_565
Fe6 O4 1.955043 1_655
Fe6 O3 1.955043 1_565
Fe6 O5 2.083241 1_665
Fe6 O7 2.097794 1_555
Fe7 O6 1.931681 1_455
Fe7 O5 1.934970 1_556
Fe7 O8 1.945783 1_555
Fe7 O1 1.972558 1_556
Fe7 O12 1.975975 1_455
F0 Fe2 2.065778 1_555
F0 Fe3 2.065778 1_555
F0 Fe1 2.136563 1_555
F1 Fe7 2.088456 1_654
F1 Fe4 2.088456 1_564
F1 Fe0 2.090211 1_555
