# generated using pymatgen
data_Li4Cr3CoO8
_symmetry_space_group_name_H-M   'P 1'
_cell_length_a   5.10918500
_cell_length_b   5.86102219
_cell_length_c   10.56417723
_cell_angle_alpha   73.91037264
_cell_angle_beta   76.20451092
_cell_angle_gamma   73.34834458
_symmetry_Int_Tables_number   1
_chemical_formula_structural   Li4Cr3CoO8
_chemical_formula_sum   'Li8 Cr6 Co2 O16'
_cell_volume   286.82780161
_cell_formula_units_Z   2
loop_
 _symmetry_equiv_pos_site_id
 _symmetry_equiv_pos_as_xyz
  1  'x, y, z'
loop_
 _atom_site_type_symbol
 _atom_site_label
 _atom_site_symmetry_multiplicity
 _atom_site_fract_x
 _atom_site_fract_y
 _atom_site_fract_z
 _atom_site_occupancy
  Li  Li0  1  0.00618100  0.93342600  0.37504200  1
  Li  Li1  1  0.99778400  0.55872000  0.62876200  1
  Li  Li2  1  0.99186700  0.31609800  0.12645700  1
  Li  Li3  1  0.00813300  0.68390200  0.87354300  1
  Li  Li4  1  0.00221600  0.44128000  0.37123800  1
  Li  Li5  1  0.99381900  0.06657400  0.62495800  1
  Li  Li6  1  0.00000700  0.80930900  0.12718300  1
  Li  Li7  1  0.99999300  0.19069100  0.87281700  1
  Cr  Cr0  1  0.49969600  0.74792000  0.50017300  1
  Cr  Cr1  1  0.50019600  0.12471800  0.25021200  1
  Cr  Cr2  1  0.50000000  0.50000000  0.00000000  1
  Cr  Cr3  1  0.50030400  0.25208000  0.49982700  1
  Cr  Cr4  1  0.49980400  0.87528200  0.74978800  1
  Cr  Cr5  1  0.50000000  0.00000000  0.00000000  1
  Co  Co0  1  0.49989800  0.62514800  0.24982300  1
  Co  Co1  1  0.50010200  0.37485200  0.75017700  1
  O  O0  1  0.27653300  0.33974300  0.93244800  1
  O  O1  1  0.72695700  0.16116100  0.06471600  1
  O  O2  1  0.27306100  0.08874600  0.43626200  1
  O  O3  1  0.72693900  0.91125400  0.56373800  1
  O  O4  1  0.72237100  0.53362300  0.81334000  1
  O  O5  1  0.27650000  0.70709600  0.68697000  1
  O  O6  1  0.27762900  0.46637700  0.18666000  1
  O  O7  1  0.72350000  0.29290400  0.31303000  1
  O  O8  1  0.27304300  0.83883900  0.93528400  1
  O  O9  1  0.72346700  0.66025700  0.06755200  1
  O  O10  1  0.27655100  0.58983200  0.43157300  1
  O  O11  1  0.72344900  0.41016800  0.56842700  1
  O  O12  1  0.27792100  0.21756300  0.68644300  1
  O  O13  1  0.27674400  0.95808400  0.18695500  1
  O  O14  1  0.72325600  0.04191600  0.81304500  1
  O  O15  1  0.72207900  0.78243700  0.31355700  1
loop_
_geom_bond_atom_site_label_1
_geom_bond_atom_site_label_2
_geom_bond_distance
_geom_bond_site_symmetry_2
Li0 O10 2.110172 1_555
Li0 O13 2.127270 1_555
Li0 O2 2.136469 1_565
Li0 O3 2.152300 1_455
Li0 O15 2.194629 1_455
Li0 O7 2.212782 1_465
Li1 O4 2.110669 1_555
Li1 O12 2.125655 1_655
Li1 O11 2.135871 1_555
Li1 O5 2.141479 1_655
Li1 O3 2.164251 1_555
Li1 O10 2.219140 1_655
Li2 O7 2.110154 1_555
Li2 O9 2.112455 1_555
Li2 O1 2.129705 1_555
Li2 O6 2.191401 1_655
Li2 O0 2.207172 1_654
Li2 O13 2.209046 1_645
Li3 O5 2.110154 1_555
Li3 O0 2.112455 1_555
Li3 O8 2.129705 1_555
Li3 O4 2.191401 1_455
Li3 O9 2.207172 1_456
Li3 O14 2.209046 1_465
Li4 O6 2.110669 1_555
Li4 O15 2.125655 1_455
Li4 O10 2.135871 1_555
Li4 O7 2.141479 1_455
Li4 O2 2.164251 1_555
Li4 O11 2.219140 1_455
Li5 O11 2.110172 1_555
Li5 O14 2.127270 1_555
Li5 O3 2.136469 1_545
Li5 O2 2.152300 1_655
Li5 O12 2.194629 1_655
Li5 O5 2.212782 1_645
Li6 O6 2.130188 1_555
Li6 O15 2.130874 1_455
Li6 O9 2.143170 1_455
Li6 O13 2.143762 1_555
Li6 O1 2.161106 1_465
Li6 O8 2.163538 1_554
Li7 O4 2.130188 1_555
Li7 O12 2.130874 1_655
Li7 O0 2.143170 1_655
Li7 O14 2.143762 1_555
Li7 O8 2.161106 1_645
Li7 O1 2.163538 1_556
Cr0 O11 2.012588 1_555
Cr0 O10 2.013737 1_555
Cr0 O15 2.015159 1_555
Cr0 O5 2.018226 1_555
Cr0 O3 2.020015 1_555
Cr0 O2 2.021548 1_565
Cr1 O1 2.013713 1_555
Cr1 O6 2.016835 1_555
Cr1 O13 2.017027 1_545
Cr1 O15 2.017867 1_545
Cr1 O2 2.019148 1_555
Cr1 O7 2.020381 1_555
Cr2 O8 2.015370 1_554
Cr2 O1 2.015370 1_555
Cr2 O4 2.015572 1_554
Cr2 O6 2.015572 1_555
Cr2 O9 2.017364 1_555
Cr2 O0 2.017364 1_554
Cr3 O10 2.012588 1_555
Cr3 O11 2.013737 1_555
Cr3 O12 2.015159 1_555
Cr3 O7 2.018226 1_555
Cr3 O2 2.020015 1_555
Cr3 O3 2.021548 1_545
Cr4 O8 2.013713 1_555
Cr4 O4 2.016835 1_555
Cr4 O14 2.017027 1_565
Cr4 O12 2.017867 1_565
Cr4 O3 2.019148 1_555
Cr4 O5 2.020381 1_555
Cr5 O1 2.016914 1_555
Cr5 O8 2.016914 1_544
Cr5 O0 2.018879 1_554
Cr5 O9 2.018879 1_545
Cr5 O13 2.019760 1_545
Cr5 O14 2.019760 1_554
Co0 O15 1.974859 1_555
Co0 O10 1.975276 1_555
Co0 O7 1.977645 1_555
Co0 O6 1.977875 1_555
Co0 O13 1.979014 1_555
Co0 O9 1.980136 1_555
Co1 O12 1.974859 1_555
Co1 O11 1.975276 1_555
Co1 O5 1.977645 1_555
Co1 O4 1.977875 1_555
Co1 O14 1.979014 1_555
Co1 O0 1.980136 1_555
