# generated using pymatgen
data_Sr3CaI8
_symmetry_space_group_name_H-M   'P 1'
_cell_length_a   7.99726664
_cell_length_b   7.99726664
_cell_length_c   9.77098475
_cell_angle_alpha   113.92883811
_cell_angle_beta   113.92883811
_cell_angle_gamma   90.18632794
_symmetry_Int_Tables_number   1
_chemical_formula_structural   Sr3CaI8
_chemical_formula_sum   'Sr3 Ca1 I8'
_cell_volume   511.47512354
_cell_formula_units_Z   1
loop_
 _symmetry_equiv_pos_site_id
 _symmetry_equiv_pos_as_xyz
  1  'x, y, z'
loop_
 _atom_site_type_symbol
 _atom_site_label
 _atom_site_symmetry_multiplicity
 _atom_site_fract_x
 _atom_site_fract_y
 _atom_site_fract_z
 _atom_site_occupancy
  Sr  Sr0  1  0.25046800  0.75338600  0.49803600  1
  Sr  Sr1  1  0.50177000  0.50177000  0.00034300  1
  Sr  Sr2  1  0.75338600  0.25046800  0.49803600  1
  Ca  Ca0  1  0.00052800  0.00052800  0.00047900  1
  I  I0  1  0.12372800  0.12372800  0.74981400  1
  I  I1  1  0.12727400  0.63544800  0.75514800  1
  I  I2  1  0.37043500  0.37043500  0.24606200  1
  I  I3  1  0.37514500  0.88102500  0.24742600  1
  I  I4  1  0.62937600  0.62937600  0.75060300  1
  I  I5  1  0.63544800  0.12727400  0.75514800  1
  I  I6  1  0.87976400  0.87976400  0.24264400  1
  I  I7  1  0.88102500  0.37514500  0.24742600  1
loop_
_geom_bond_atom_site_label_1
_geom_bond_atom_site_label_2
_geom_bond_distance
_geom_bond_site_symmetry_2
Ca0 I6 3.341530 1_445
Ca0 I1 3.407467 1_544
Ca0 I5 3.407467 1_454
Ca0 I2 3.418591 1_555
Ca0 I3 3.425811 1_545
Ca0 I7 3.425811 1_455
Ca0 I4 3.430263 1_444
Ca0 I0 3.442249 1_554
I0 Sr0 3.461648 1_545
I0 Sr2 3.461648 1_455
I0 Sr1 3.493776 1_556
I1 Sr0 3.477856 1_555
I1 Sr1 3.482862 1_556
I1 Sr2 3.507566 1_455
I2 Sr1 3.472010 1_555
I2 Sr0 3.489990 1_555
I2 Sr2 3.489990 1_555
I3 Sr2 3.455396 1_565
I3 Sr0 3.468990 1_555
I3 Sr1 3.480860 1_555
I4 Sr1 3.474310 1_556
I4 Sr2 3.492089 1_555
I4 Sr0 3.492089 1_555
I5 Sr2 3.477856 1_555
I5 Sr1 3.482862 1_556
I5 Sr0 3.507566 1_545
I6 Sr2 3.478755 1_565
I6 Sr0 3.478755 1_655
I6 Sr1 3.494355 1_555
I7 Sr0 3.455396 1_655
I7 Sr2 3.468990 1_555
I7 Sr1 3.480860 1_555
