# generated using pymatgen
data_Mn2Co3Te3O16
_symmetry_space_group_name_H-M   'P 1'
_cell_length_a   5.97801847
_cell_length_b   6.02288533
_cell_length_c   9.30052089
_cell_angle_alpha   90.25992335
_cell_angle_beta   90.07035429
_cell_angle_gamma   120.42842112
_symmetry_Int_Tables_number   1
_chemical_formula_structural   Mn2Co3Te3O16
_chemical_formula_sum   'Mn2 Co3 Te3 O16'
_cell_volume   288.73573995
_cell_formula_units_Z   1
loop_
 _symmetry_equiv_pos_site_id
 _symmetry_equiv_pos_as_xyz
  1  'x, y, z'
loop_
 _atom_site_type_symbol
 _atom_site_label
 _atom_site_symmetry_multiplicity
 _atom_site_fract_x
 _atom_site_fract_y
 _atom_site_fract_z
 _atom_site_occupancy
  Mn  Mn0  1  0.35146400  0.67583400  0.51108900  1
  Mn  Mn1  1  0.69679700  0.34739600  0.97483600  1
  Co  Co0  1  0.67040100  0.83483800  0.20848800  1
  Co  Co1  1  0.81636000  0.65725000  0.71316200  1
  Co  Co2  1  0.81627200  0.15853000  0.71289800  1
  Te  Te0  1  0.17414800  0.83490800  0.21371700  1
  Te  Te1  1  0.17402100  0.33809200  0.21371900  1
  Te  Te2  1  0.31853000  0.16151600  0.71346700  1
  O  O0  1  0.15124200  0.83550400  0.60720100  1
  O  O1  1  0.03875500  0.51941600  0.34065300  1
  O  O2  1  0.31255900  0.65547000  0.09116400  1
  O  O3  1  0.02242300  0.01034800  0.32496100  1
  O  O4  1  0.98302900  0.99211900  0.81718400  1
  O  O5  1  0.14893300  0.31442400  0.60625400  1
  O  O6  1  0.47602800  0.96767200  0.32900300  1
  O  O7  1  0.47592100  0.50889200  0.32910300  1
  O  O8  1  0.33638800  0.16723300  0.09689000  1
  O  O9  1  0.68534400  0.84260900  0.60429000  1
  O  O10  1  0.51130700  0.48175100  0.83096900  1
  O  O11  1  0.51518800  0.03685500  0.83371200  1
  O  O12  1  0.65661800  0.32767500  0.60727200  1
  O  O13  1  0.86058500  0.68141600  0.10433700  1
  O  O14  1  0.94580700  0.47434800  0.82602200  1
  O  O15  1  0.86188000  0.17610500  0.10532600  1
loop_
_geom_bond_atom_site_label_1
_geom_bond_atom_site_label_2
_geom_bond_distance
_geom_bond_site_symmetry_2
Mn0 O9 1.923848 1_555
Mn0 O0 2.077803 1_555
Mn0 O5 2.082791 1_555
Mn0 O1 2.256122 1_555
Mn0 O7 2.274795 1_555
Mn0 O6 2.283917 1_555
Mn1 O14 1.891526 1_555
Mn1 O11 2.077745 1_555
Mn1 O13 2.106281 1_556
Mn1 O15 2.133267 1_556
Mn1 O10 2.142384 1_555
Mn1 O8 2.181086 1_556
Co0 O15 2.023108 1_565
Co0 O13 2.035553 1_555
Co0 O7 2.043351 1_555
Co0 O6 2.045298 1_555
Co0 O3 2.109525 1_665
Co0 O2 2.139292 1_555
Co1 O10 1.925161 1_555
Co1 O9 1.943977 1_555
Co1 O14 1.945788 1_555
Co1 O12 1.970256 1_555
Co1 O4 1.985177 1_555
Co1 O0 1.992219 1_655
Co2 O11 1.927579 1_555
Co2 O9 1.930159 1_545
Co2 O14 1.952578 1_555
Co2 O12 1.976221 1_555
Co2 O5 1.985458 1_655
Co2 O4 1.989359 1_545
O0 Te2 1.955330 1_565
O1 Te0 2.030852 1_555
O1 Te1 2.031107 1_555
O2 Te0 2.012137 1_555
O2 Te1 2.014341 1_555
O3 Te0 1.993194 1_545
O3 Te1 1.999262 1_555
O4 Te2 1.983672 1_665
O5 Te2 1.954980 1_555
O6 Te0 1.889862 1_555
O7 Te1 1.889890 1_555
O8 Te0 2.045349 1_545
O8 Te1 2.045955 1_555
O10 Te2 1.992166 1_555
O11 Te2 2.023608 1_555
O12 Te2 2.006724 1_555
O13 Te0 1.906490 1_655
O15 Te1 1.895379 1_655
