# generated using pymatgen
data_Li6Co5(P2O7)4
_symmetry_space_group_name_H-M   'P 1'
_cell_length_a   9.06973000
_cell_length_b   10.49413482
_cell_length_c   12.88677656
_cell_angle_alpha   87.79314557
_cell_angle_beta   106.32766982
_cell_angle_gamma   114.15420121
_symmetry_Int_Tables_number   1
_chemical_formula_structural   Li6Co5(P2O7)4
_chemical_formula_sum   'Li12 Co10 P16 O56'
_cell_volume   1069.91660743
_cell_formula_units_Z   2
loop_
 _symmetry_equiv_pos_site_id
 _symmetry_equiv_pos_as_xyz
  1  'x, y, z'
loop_
 _atom_site_type_symbol
 _atom_site_label
 _atom_site_symmetry_multiplicity
 _atom_site_fract_x
 _atom_site_fract_y
 _atom_site_fract_z
 _atom_site_occupancy
  Li  Li0  1  0.11366800  0.59655400  0.81924600  1
  Li  Li1  1  0.08360200  0.12869400  0.55927000  1
  Li  Li2  1  0.18216000  0.00953800  0.77556400  1
  Li  Li3  1  0.50000000  0.50000000  0.00000000  1
  Li  Li4  1  0.10467700  0.13769200  0.05427400  1
  Li  Li5  1  0.86882800  0.40234100  0.66961800  1
  Li  Li6  1  0.88633200  0.40344600  0.18075400  1
  Li  Li7  1  0.91639800  0.87130600  0.44073000  1
  Li  Li8  1  0.13117200  0.59765900  0.33038200  1
  Li  Li9  1  0.89532300  0.86230800  0.94572600  1
  Li  Li10  1  0.50000000  0.50000000  0.50000000  1
  Li  Li11  1  0.81784000  0.99046200  0.22443600  1
  Co  Co0  1  0.51288000  0.24498900  0.43359700  1
  Co  Co1  1  0.80551300  0.00896900  0.73805000  1
  Co  Co2  1  0.19448700  0.99103100  0.26195000  1
  Co  Co3  1  0.48712000  0.75501100  0.56640300  1
  Co  Co4  1  0.09824300  0.71041700  0.10511900  1
  Co  Co5  1  0.49850300  0.75866400  0.06824200  1
  Co  Co6  1  0.90221300  0.28630800  0.38980700  1
  Co  Co7  1  0.90175700  0.28958300  0.89488100  1
  Co  Co8  1  0.50149700  0.24133600  0.93175800  1
  Co  Co9  1  0.09778700  0.71369200  0.61019300  1
  P  P0  1  0.44570000  0.81014200  0.31016800  1
  P  P1  1  0.71597600  0.04070400  0.47077700  1
  P  P2  1  0.29009400  0.96043800  0.03275500  1
  P  P3  1  0.54376700  0.19355900  0.18653600  1
  P  P4  1  0.45623300  0.80644100  0.81346400  1
  P  P5  1  0.28402400  0.95929600  0.52922300  1
  P  P6  1  0.55430000  0.18985800  0.68983200  1
  P  P7  1  0.79719800  0.55092900  0.89883300  1
  P  P8  1  0.20280200  0.44907100  0.10116700  1
  P  P9  1  0.82084000  0.70034300  0.20899200  1
  P  P10  1  0.80745900  0.70329500  0.70926500  1
  P  P11  1  0.70990600  0.03956200  0.96724500  1
  P  P12  1  0.80793200  0.55493600  0.40133600  1
  P  P13  1  0.19254100  0.29670500  0.29073500  1
  P  P14  1  0.19206800  0.44506400  0.59866400  1
  P  P15  1  0.17916000  0.29965700  0.79100800  1
  O  O0  1  0.65920100  0.45270400  0.94380300  1
  O  O1  1  0.93607100  0.64708500  0.69993500  1
  O  O2  1  0.72023500  0.60581700  0.28989100  1
  O  O3  1  0.91152500  0.68887600  0.97005300  1
  O  O4  1  0.27012200  0.81308700  0.25639200  1
  O  O5  1  0.68661900  0.68865200  0.10450500  1
  O  O6  1  0.26946700  0.77491200  0.75988800  1
  O  O7  1  0.48083100  0.71189900  0.90254100  1
  O  O8  1  0.06391400  0.36838900  0.80359700  1
  O  O9  1  0.06392900  0.35291500  0.30006500  1
  O  O10  1  0.30412600  0.03560700  0.42691900  1
  O  O11  1  0.54646800  0.96259300  0.37724700  1
  O  O12  1  0.54234600  0.80864300  0.23216200  1
  O  O13  1  0.13715100  0.96210500  0.56457000  1
  O  O14  1  0.85448500  0.03961400  0.92296900  1
  O  O15  1  0.91551900  0.69238800  0.47465200  1
  O  O16  1  0.29503000  0.03786200  0.93128900  1
  O  O17  1  0.45353200  0.03740700  0.62275300  1
  O  O18  1  0.08125400  0.51045500  0.62285100  1
  O  O19  1  0.27623100  0.80969100  0.02255500  1
  O  O20  1  0.72835900  0.19181200  0.47707000  1
  O  O21  1  0.92686400  0.85264700  0.26435000  1
  O  O22  1  0.90331500  0.48282500  0.87099600  1
  O  O23  1  0.32520400  0.31429800  0.39795900  1
  O  O24  1  0.70497000  0.96213800  0.06871100  1
  O  O25  1  0.44241000  0.17359600  0.26825800  1
  O  O26  1  0.91874600  0.48954500  0.37714900  1
  O  O27  1  0.72987800  0.18691300  0.74360800  1
  O  O28  1  0.07313600  0.14735300  0.73565000  1
  O  O29  1  0.34079900  0.54729600  0.05619700  1
  O  O30  1  0.09668500  0.51717500  0.12900400  1
  O  O31  1  0.42996000  0.70149600  0.39334900  1
  O  O32  1  0.45765400  0.19135700  0.76783800  1
  O  O33  1  0.27976500  0.39418300  0.71010900  1
  O  O34  1  0.73053300  0.22508800  0.24011200  1
  O  O35  1  0.10258900  0.14534600  0.23343800  1
  O  O36  1  0.31338100  0.31134800  0.89549500  1
  O  O37  1  0.72376900  0.19030900  0.97744500  1
  O  O38  1  0.08448100  0.30761200  0.52534800  1
  O  O39  1  0.57004000  0.29850400  0.60665100  1
  O  O40  1  0.29240200  0.39912800  0.21261300  1
  O  O41  1  0.69587400  0.96439300  0.57308100  1
  O  O42  1  0.53505900  0.96280200  0.87552400  1
  O  O43  1  0.27164100  0.80818800  0.52293000  1
  O  O44  1  0.14551500  0.96038600  0.07703100  1
  O  O45  1  0.86284900  0.03789500  0.43543000  1
  O  O46  1  0.89741100  0.85465400  0.76656200  1
  O  O47  1  0.46494100  0.03719800  0.12447600  1
  O  O48  1  0.66398700  0.45530100  0.44146000  1
  O  O49  1  0.33601300  0.54469900  0.55854000  1
  O  O50  1  0.55759000  0.82640400  0.73174200  1
  O  O51  1  0.51916900  0.28810100  0.09745900  1
  O  O52  1  0.70759800  0.60087200  0.78738700  1
  O  O53  1  0.67479600  0.68570200  0.60204100  1
  O  O54  1  0.08847500  0.31112400  0.02994700  1
  O  O55  1  0.93608600  0.63161100  0.19640300  1
loop_
_geom_bond_atom_site_label_1
_geom_bond_atom_site_label_2
_geom_bond_distance
_geom_bond_site_symmetry_2
Li0 O22 2.073559 1_455
Li0 O6 2.101936 1_555
Li0 O1 2.117425 1_455
Li0 O8 2.253706 1_555
Li1 O38 1.908664 1_555
Li1 O13 1.990926 1_545
Li1 O45 2.054934 1_455
Li1 O28 2.320462 1_555
Li2 O16 1.950735 1_555
Li2 O28 2.039868 1_555
Li2 O46 2.394961 1_445
Li2 O32 2.473328 1_555
Li3 O0 2.014401 1_554
Li3 O29 2.014401 1_555
Li3 O5 2.186154 1_555
Li3 O36 2.186154 1_554
Li3 O51 2.555573 1_555
Li3 O7 2.555573 1_554
Li4 O54 1.892452 1_555
Li4 O44 2.036224 1_545
Li4 O14 2.266176 1_454
Li4 O35 2.318986 1_555
Li5 O18 2.042965 1_655
Li5 O8 2.233726 1_655
Li5 O39 2.367403 1_555
Li5 O1 2.404691 1_555
Li5 O27 2.405459 1_555
Li6 O30 2.073559 1_655
Li6 O34 2.101936 1_555
Li6 O9 2.117425 1_655
Li6 O55 2.253706 1_555
Li7 O15 1.908664 1_555
Li7 O45 1.990926 1_565
Li7 O13 2.054934 1_655
Li7 O21 2.320462 1_555
Li8 O26 2.042965 1_455
Li8 O55 2.233726 1_455
Li8 O31 2.367403 1_555
Li8 O9 2.404691 1_555
Li8 O4 2.405459 1_555
Li9 O3 1.892452 1_555
Li9 O14 2.036224 1_565
Li9 O44 2.266176 1_656
Li9 O46 2.318986 1_555
Li10 O49 2.056778 1_555
Li10 O48 2.056778 1_555
Li10 O53 2.130038 1_555
Li10 O23 2.130038 1_555
Li11 O24 1.950735 1_555
Li11 O21 2.039868 1_555
Li11 O35 2.394961 1_665
Li11 O12 2.473328 1_555
Co0 O23 2.045792 1_555
Co0 O48 2.055066 1_555
Co0 O25 2.115420 1_555
Co0 O20 2.167386 1_555
Co0 O39 2.183040 1_555
Co0 O10 2.222271 1_555
Co1 O41 2.057780 1_545
Co1 O46 2.082974 1_545
Co1 O27 2.247010 1_555
Co1 O50 2.262061 1_545
Co1 O28 2.270578 1_655
Co1 O14 2.307908 1_555
Co2 O10 2.057780 1_565
Co2 O35 2.082974 1_565
Co2 O4 2.247010 1_555
Co2 O25 2.262061 1_565
Co2 O21 2.270578 1_455
Co2 O44 2.307908 1_555
Co3 O53 2.045792 1_555
Co3 O49 2.055066 1_555
Co3 O50 2.115420 1_555
Co3 O43 2.167386 1_555
Co3 O31 2.183040 1_555
Co3 O41 2.222271 1_555
Co4 O3 2.002056 1_454
Co4 O55 2.033029 1_455
Co4 O30 2.034274 1_555
Co4 O19 2.080240 1_555
Co4 O4 2.114184 1_555
Co4 O44 2.507940 1_555
Co5 O5 2.054342 1_555
Co5 O29 2.072497 1_555
Co5 O12 2.082738 1_555
Co5 O7 2.156422 1_554
Co5 O24 2.188238 1_555
Co5 O19 2.211164 1_555
Co6 O38 1.984389 1_655
Co6 O9 2.007425 1_655
Co6 O34 2.036301 1_555
Co6 O26 2.079217 1_555
Co6 O20 2.089432 1_555
Co6 O45 2.550931 1_555
Co7 O54 2.002056 1_656
Co7 O8 2.033029 1_655
Co7 O22 2.034274 1_555
Co7 O37 2.080240 1_555
Co7 O27 2.114184 1_555
Co7 O14 2.507940 1_555
Co8 O36 2.054342 1_555
Co8 O0 2.072497 1_555
Co8 O32 2.082738 1_555
Co8 O51 2.156422 1_556
Co8 O16 2.188238 1_555
Co8 O37 2.211164 1_555
Co9 O15 1.984389 1_455
Co9 O1 2.007425 1_455
Co9 O6 2.036301 1_555
Co9 O18 2.079217 1_555
Co9 O43 2.089432 1_555
Co9 O13 2.550931 1_555
O0 P7 1.506932 1_555
O1 P10 1.539645 1_555
O2 P9 1.617997 1_555
O2 P12 1.620666 1_555
O3 P7 1.533611 1_555
O4 P0 1.560520 1_555
O5 P9 1.509607 1_555
O6 P4 1.535205 1_555
O7 P4 1.516989 1_555
O8 P15 1.536383 1_555
O9 P13 1.539645 1_555
O10 P5 1.531991 1_545
O11 P1 1.578326 1_565
O11 P0 1.614840 1_555
O12 P0 1.512300 1_555
O13 P5 1.535312 1_555
O14 P11 1.570068 1_555
O15 P12 1.536279 1_555
O16 P2 1.514338 1_546
O17 P5 1.578326 1_545
O17 P6 1.614840 1_555
O18 P14 1.528145 1_555
O19 P2 1.542602 1_555
O20 P1 1.546873 1_555
O21 P9 1.559635 1_555
O22 P7 1.530553 1_555
O23 P13 1.514649 1_555
O24 P11 1.514338 1_564
O25 P3 1.538763 1_555
O26 P12 1.528145 1_555
O27 P6 1.560520 1_555
O28 P15 1.559635 1_555
O29 P8 1.506932 1_555
O30 P8 1.530553 1_555
O31 P0 1.525801 1_555
O32 P6 1.512300 1_555
O33 P15 1.617997 1_555
O33 P14 1.620666 1_555
O34 P3 1.535205 1_555
O35 P13 1.557193 1_555
O36 P15 1.509607 1_555
O37 P11 1.542602 1_555
O38 P14 1.536279 1_555
O39 P6 1.525801 1_555
O40 P13 1.619188 1_555
O40 P8 1.622367 1_555
O41 P1 1.531991 1_565
O42 P11 1.592098 1_565
O42 P4 1.631785 1_555
O43 P5 1.546873 1_555
O44 P2 1.570068 1_555
O45 P1 1.535312 1_555
O46 P10 1.557193 1_555
O47 P2 1.592098 1_545
O47 P3 1.631785 1_555
O48 P12 1.511894 1_555
O49 P14 1.511894 1_555
O50 P4 1.538763 1_555
O51 P3 1.516989 1_555
O52 P10 1.619188 1_555
O52 P7 1.622367 1_555
O53 P10 1.514649 1_555
O54 P8 1.533611 1_555
O55 P9 1.536383 1_555
