# generated using pymatgen
data_Sn(PO3)4
_symmetry_space_group_name_H-M   'P 1'
_cell_length_a   7.29079606
_cell_length_b   7.29079606
_cell_length_c   10.26895445
_cell_angle_alpha   65.90475035
_cell_angle_beta   65.90475035
_cell_angle_gamma   70.20305408
_symmetry_Int_Tables_number   1
_chemical_formula_structural   Sn(PO3)4
_chemical_formula_sum   'Sn2 P8 O24'
_cell_volume   445.07860322
_cell_formula_units_Z   2
loop_
 _symmetry_equiv_pos_site_id
 _symmetry_equiv_pos_as_xyz
  1  'x, y, z'
loop_
 _atom_site_type_symbol
 _atom_site_label
 _atom_site_symmetry_multiplicity
 _atom_site_fract_x
 _atom_site_fract_y
 _atom_site_fract_z
 _atom_site_occupancy
  Sn  Sn0  1  0.05715800  0.94284200  0.75000000  1
  Sn  Sn1  1  0.94284200  0.05715800  0.25000000  1
  P  P0  1  0.28727400  0.30840200  0.69853400  1
  P  P1  1  0.25217800  0.72574000  0.47940600  1
  P  P2  1  0.27426000  0.74782200  0.02059400  1
  P  P3  1  0.30840200  0.28727400  0.19853400  1
  P  P4  1  0.69159800  0.71272600  0.80146600  1
  P  P5  1  0.72574000  0.25217800  0.97940600  1
  P  P6  1  0.74782200  0.27426000  0.52059400  1
  P  P7  1  0.71272600  0.69159800  0.30146600  1
  O  O0  1  0.80944000  0.64852100  0.15762800  1
  O  O1  1  0.80350300  0.26232400  0.09194400  1
  O  O2  1  0.46637300  0.71081000  0.35183600  1
  O  O3  1  0.26232400  0.80350300  0.59194400  1
  O  O4  1  0.22264300  0.49426000  0.55746700  1
  O  O5  1  0.26123900  0.12062400  0.68271300  1
  O  O6  1  0.49426000  0.22264300  0.05746700  1
  O  O7  1  0.35147900  0.19056000  0.34237200  1
  O  O8  1  0.08635700  0.83972400  0.40626100  1
  O  O9  1  0.28919000  0.53362700  0.14816400  1
  O  O10  1  0.87937600  0.73876100  0.81728700  1
  O  O11  1  0.16027600  0.91364300  0.09373900  1
  O  O12  1  0.83972400  0.08635700  0.90626100  1
  O  O13  1  0.12062400  0.26123900  0.18271300  1
  O  O14  1  0.71081000  0.46637300  0.85183600  1
  O  O15  1  0.91364300  0.16027600  0.59373900  1
  O  O16  1  0.64852100  0.80944000  0.65762800  1
  O  O17  1  0.50574000  0.77735700  0.94253300  1
  O  O18  1  0.73876100  0.87937600  0.31728700  1
  O  O19  1  0.77735700  0.50574000  0.44253300  1
  O  O20  1  0.73767600  0.19649700  0.40805600  1
  O  O21  1  0.53362700  0.28919000  0.64816400  1
  O  O22  1  0.19649700  0.73767600  0.90805600  1
  O  O23  1  0.19056000  0.35147900  0.84237200  1
loop_
_geom_bond_atom_site_label_1
_geom_bond_atom_site_label_2
_geom_bond_distance
_geom_bond_site_symmetry_2
O0 P7 1.468305 1_555
O1 P5 1.515129 1_554
O1 Sn1 2.058765 1_555
O2 P1 1.580386 1_555
O2 P7 1.625839 1_555
O3 P1 1.515129 1_555
O3 Sn0 2.058765 1_555
O4 P1 1.593046 1_555
O4 P0 1.636690 1_555
O5 P0 1.523005 1_555
O5 Sn0 2.026582 1_545
O6 P5 1.593046 1_554
O6 P3 1.636690 1_555
O7 P3 1.468305 1_555
O8 P1 1.505867 1_555
O8 Sn1 2.086401 1_465
O9 P2 1.580386 1_555
O9 P3 1.625839 1_555
O10 P4 1.523005 1_555
O10 Sn0 2.026582 1_655
O11 P2 1.505867 1_555
O11 Sn1 2.086401 1_465
O12 P5 1.505867 1_555
O12 Sn0 2.086401 1_645
O13 P3 1.523005 1_555
O13 Sn1 2.026582 1_455
O14 P5 1.580386 1_555
O14 P4 1.625839 1_555
O15 P6 1.505867 1_555
O15 Sn0 2.086401 1_645
O16 P4 1.468305 1_555
O17 P2 1.593046 1_556
O17 P4 1.636690 1_555
O18 P7 1.523005 1_555
O18 Sn1 2.026582 1_565
O19 P6 1.593046 1_555
O19 P7 1.636690 1_555
O20 P6 1.515129 1_555
O20 Sn1 2.058765 1_555
O21 P6 1.580386 1_555
O21 P0 1.625839 1_555
O22 P2 1.515129 1_556
O22 Sn0 2.058765 1_555
O23 P0 1.468305 1_555
