# generated using pymatgen
data_LiFe2(BO3)2
_symmetry_space_group_name_H-M   'P 1'
_cell_length_a   9.06588900
_cell_length_b   5.26375000
_cell_length_c   11.36978232
_cell_angle_alpha   64.15724536
_cell_angle_beta   90.00000000
_cell_angle_gamma   90.00000000
_symmetry_Int_Tables_number   1
_chemical_formula_structural   LiFe2(BO3)2
_chemical_formula_sum   'Li4 Fe8 B8 O24'
_cell_volume   488.31188441
_cell_formula_units_Z   4
loop_
 _symmetry_equiv_pos_site_id
 _symmetry_equiv_pos_as_xyz
  1  'x, y, z'
loop_
 _atom_site_type_symbol
 _atom_site_label
 _atom_site_symmetry_multiplicity
 _atom_site_fract_x
 _atom_site_fract_y
 _atom_site_fract_z
 _atom_site_occupancy
  Li  Li0  1  0.25877700  0.50607400  0.15090300  1
  Li  Li1  1  0.24875800  0.44900500  0.89110700  1
  Li  Li2  1  0.75124200  0.44900500  0.39110700  1
  Li  Li3  1  0.74122300  0.50607400  0.65090300  1
  Fe  Fe0  1  0.41580200  0.96303200  0.87875000  1
  Fe  Fe1  1  0.41148400  0.53280300  0.63049400  1
  Fe  Fe2  1  0.58851600  0.53280300  0.13049400  1
  Fe  Fe3  1  0.58419800  0.96303200  0.37875000  1
  Fe  Fe4  1  0.91787700  0.02731100  0.62928800  1
  Fe  Fe5  1  0.08591100  0.46538300  0.37833700  1
  Fe  Fe6  1  0.91408900  0.46538300  0.87833700  1
  Fe  Fe7  1  0.08212300  0.02731100  0.12928800  1
  B  B0  1  0.41881800  0.47275900  0.37531800  1
  B  B1  1  0.58344700  0.04937100  0.62575800  1
  B  B2  1  0.41655300  0.04937100  0.12575800  1
  B  B3  1  0.58118200  0.47275900  0.87531800  1
  B  B4  1  0.91878300  0.52238500  0.13341900  1
  B  B5  1  0.91716200  0.94747700  0.38100800  1
  B  B6  1  0.08283800  0.94747700  0.88100800  1
  B  B7  1  0.08121700  0.52238500  0.63341900  1
  O  O0  1  0.28472500  0.39368100  0.34615600  1
  O  O1  1  0.42943500  0.81596200  0.09811500  1
  O  O2  1  0.28464900  0.19193600  0.10426100  1
  O  O3  1  0.46195000  0.13919200  0.67163400  1
  O  O4  1  0.54925000  0.38874200  0.33567500  1
  O  O5  1  0.45075000  0.38874200  0.83567500  1
  O  O6  1  0.42958600  0.64335600  0.43922900  1
  O  O7  1  0.57041400  0.64335600  0.93922900  1
  O  O8  1  0.71535100  0.19193600  0.60426100  1
  O  O9  1  0.57056500  0.81596200  0.59811500  1
  O  O10  1  0.53805000  0.13919200  0.17163400  1
  O  O11  1  0.78579800  0.60789000  0.15913100  1
  O  O12  1  0.71527500  0.39368100  0.84615600  1
  O  O13  1  0.95868000  0.86063800  0.83629300  1
  O  O14  1  0.92950200  0.17679500  0.41208700  1
  O  O15  1  0.78601000  0.80816200  0.39768000  1
  O  O16  1  0.93020400  0.35174600  0.06920500  1
  O  O17  1  0.06979600  0.35174600  0.56920500  1
  O  O18  1  0.04986000  0.60063200  0.17539600  1
  O  O19  1  0.95014000  0.60063200  0.67539600  1
  O  O20  1  0.04132000  0.86063800  0.33629300  1
  O  O21  1  0.21399000  0.80816200  0.89768000  1
  O  O22  1  0.07049800  0.17679500  0.91208700  1
  O  O23  1  0.21420200  0.60789000  0.65913100  1
loop_
_geom_bond_atom_site_label_1
_geom_bond_atom_site_label_2
_geom_bond_distance
_geom_bond_site_symmetry_2
Li0 O2 1.958297 1_555
Li0 O18 2.008340 1_555
Li0 O0 2.046625 1_555
Li0 O1 2.135689 1_555
Li1 O21 1.949910 1_555
Li1 O5 2.006379 1_555
Li1 O22 2.103261 1_555
Li1 O2 2.225158 1_556
Li1 O23 2.414752 1_555
Li2 O15 1.949910 1_555
Li2 O4 2.006379 1_555
Li2 O14 2.103261 1_555
Li2 O8 2.225158 1_555
Li2 O11 2.414752 1_555
Li3 O8 1.958297 1_555
Li3 O19 2.008340 1_555
Li3 O12 2.046625 1_555
Li3 O9 2.135689 1_555
Fe0 O21 1.976199 1_555
Fe0 O7 2.064050 1_555
Fe0 O5 2.098761 1_565
Fe0 O3 2.162540 1_565
Fe0 O1 2.269796 1_556
Fe1 O23 1.890313 1_555
Fe1 O3 1.968724 1_555
Fe1 O9 1.989638 1_555
Fe1 O6 1.997845 1_555
Fe1 O5 2.145171 1_555
Fe2 O11 1.890313 1_555
Fe2 O10 1.968724 1_555
Fe2 O1 1.989638 1_555
Fe2 O7 1.997845 1_554
Fe2 O4 2.145171 1_555
Fe3 O15 1.976199 1_555
Fe3 O6 2.064050 1_555
Fe3 O4 2.098761 1_565
Fe3 O10 2.162540 1_565
Fe3 O9 2.269796 1_555
Fe4 O8 1.997019 1_555
Fe4 O17 2.064680 1_655
Fe4 O19 2.092396 1_545
Fe4 O13 2.155414 1_545
Fe4 O14 2.243828 1_555
Fe5 O0 1.909307 1_555
Fe5 O20 1.963022 1_555
Fe5 O17 1.989201 1_555
Fe5 O14 1.989292 1_455
Fe5 O18 2.122646 1_555
Fe6 O12 1.909307 1_555
Fe6 O13 1.963022 1_555
Fe6 O16 1.989201 1_556
Fe6 O22 1.989292 1_655
Fe6 O19 2.122646 1_555
Fe7 O2 1.997019 1_555
Fe7 O16 2.064680 1_455
Fe7 O18 2.092396 1_545
Fe7 O20 2.155414 1_545
Fe7 O22 2.243828 1_554
B0 O0 1.371633 1_555
B0 O6 1.383039 1_555
B0 O4 1.403846 1_555
B1 O8 1.375855 1_555
B1 O3 1.387030 1_555
B1 O9 1.399478 1_545
B2 O2 1.375855 1_555
B2 O10 1.387030 1_555
B2 O1 1.399478 1_545
B3 O12 1.371633 1_555
B3 O7 1.383039 1_555
B3 O5 1.403846 1_555
B4 O11 1.362453 1_555
B4 O16 1.386449 1_555
B4 O18 1.407454 1_655
B5 O15 1.366106 1_555
B5 O20 1.391758 1_655
B5 O14 1.402233 1_565
B6 O21 1.366106 1_555
B6 O13 1.391758 1_455
B6 O22 1.402233 1_565
B7 O23 1.362453 1_555
B7 O17 1.386449 1_555
B7 O19 1.407454 1_455
