# generated using pymatgen
data_Eu2Y2O5
_symmetry_space_group_name_H-M   'P 1'
_cell_length_a   3.53660100
_cell_length_b   12.05384200
_cell_length_c   15.43603828
_cell_angle_alpha   67.04011074
_cell_angle_beta   90.00000000
_cell_angle_gamma   90.00000000
_symmetry_Int_Tables_number   1
_chemical_formula_structural   Eu2Y2O5
_chemical_formula_sum   'Eu8 Y8 O20'
_cell_volume   605.90204566
_cell_formula_units_Z   4
loop_
 _symmetry_equiv_pos_site_id
 _symmetry_equiv_pos_as_xyz
  1  'x, y, z'
loop_
 _atom_site_type_symbol
 _atom_site_label
 _atom_site_symmetry_multiplicity
 _atom_site_fract_x
 _atom_site_fract_y
 _atom_site_fract_z
 _atom_site_occupancy
  Eu  Eu0  1  0.52715500  0.34209800  0.55847400  1
  Eu  Eu1  1  0.47284500  0.84209800  0.55847400  1
  Eu  Eu2  1  0.01785400  0.90116100  0.94159800  1
  Eu  Eu3  1  0.98214600  0.40116100  0.94159800  1
  Eu  Eu4  1  0.98214600  0.09883900  0.05840200  1
  Eu  Eu5  1  0.01785400  0.59883900  0.05840200  1
  Eu  Eu6  1  0.47284500  0.65790200  0.44152600  1
  Eu  Eu7  1  0.52715500  0.15790200  0.44152600  1
  Y  Y0  1  0.97666000  0.55375100  0.67518200  1
  Y  Y1  1  0.48057100  0.22958600  0.82379100  1
  Y  Y2  1  0.02334000  0.05375100  0.67518200  1
  Y  Y3  1  0.51942900  0.72958600  0.82379100  1
  Y  Y4  1  0.51942900  0.77041400  0.17620900  1
  Y  Y5  1  0.02334000  0.44624900  0.32481800  1
  Y  Y6  1  0.48057100  0.27041400  0.17620900  1
  Y  Y7  1  0.97666000  0.94624900  0.32481800  1
  O  O0  1  0.47589500  0.50550500  0.60448100  1
  O  O1  1  0.51098500  0.16529100  0.70659900  1
  O  O2  1  0.48901500  0.66529100  0.70659900  1
  O  O3  1  0.52150300  0.75000000  0.00000000  1
  O  O4  1  0.52410500  0.00550500  0.60448100  1
  O  O5  1  0.97371200  0.37271300  0.79323800  1
  O  O6  1  0.97958200  0.11163100  0.89513500  1
  O  O7  1  0.02041800  0.88836900  0.10486500  1
  O  O8  1  0.02628800  0.62728700  0.20676200  1
  O  O9  1  0.47849700  0.25000000  0.00000000  1
  O  O10  1  0.02628800  0.87271300  0.79323800  1
  O  O11  1  0.02041800  0.61163100  0.89513500  1
  O  O12  1  0.97958200  0.38836900  0.10486500  1
  O  O13  1  0.97371200  0.12728700  0.20676200  1
  O  O14  1  0.52410500  0.49449500  0.39551900  1
  O  O15  1  0.48901500  0.83470900  0.29340100  1
  O  O16  1  0.03001600  0.25000000  0.50000000  1
  O  O17  1  0.51098500  0.33470900  0.29340100  1
  O  O18  1  0.47589500  0.99449500  0.39551900  1
  O  O19  1  0.96998400  0.75000000  0.50000000  1
loop_
_geom_bond_atom_site_label_1
_geom_bond_atom_site_label_2
_geom_bond_distance
_geom_bond_site_symmetry_2
Eu0 O0 2.346946 1_555
Eu0 O16 2.433115 1_555
Eu0 O1 2.443664 1_555
Eu0 O16 2.447778 1_655
Eu0 O14 2.469166 1_555
Eu1 O4 2.346946 1_565
Eu1 O19 2.433115 1_555
Eu1 O2 2.443664 1_555
Eu1 O19 2.447778 1_455
Eu1 O18 2.469166 1_555
Eu2 O6 2.355713 1_465
Eu2 O3 2.435682 1_456
Eu2 O10 2.444515 1_555
Eu2 O3 2.454348 1_556
Eu2 O7 2.464157 1_556
Eu3 O11 2.355713 1_655
Eu3 O9 2.435682 1_656
Eu3 O5 2.444515 1_555
Eu3 O9 2.454348 1_556
Eu3 O12 2.464157 1_556
Eu4 O7 2.355713 1_645
Eu4 O9 2.435682 1_655
Eu4 O13 2.444515 1_555
Eu4 O9 2.454348 1_555
Eu4 O6 2.464157 1_554
Eu5 O12 2.355713 1_455
Eu5 O3 2.435682 1_455
Eu5 O8 2.444515 1_555
Eu5 O3 2.454348 1_555
Eu5 O11 2.464157 1_554
Eu6 O14 2.346946 1_555
Eu6 O19 2.433115 1_555
Eu6 O15 2.443664 1_555
Eu6 O19 2.447778 1_455
Eu6 O0 2.469166 1_555
Eu7 O18 2.346946 1_545
Eu7 O16 2.433115 1_555
Eu7 O17 2.443664 1_555
Eu7 O16 2.447778 1_655
Eu7 O4 2.469166 1_555
O0 Y0 2.267534 1_455
O0 Y0 2.271749 1_555
O1 Y1 2.231229 1_555
O1 Y2 2.350696 1_555
O1 Y2 2.415540 1_655
O2 Y3 2.231229 1_555
O2 Y0 2.350696 1_555
O2 Y0 2.415540 1_455
O3 Y4 2.825066 1_555
O3 Y3 2.825066 1_554
O4 Y2 2.267534 1_655
O4 Y2 2.271749 1_555
O5 Y0 2.231697 1_555
O5 Y1 2.367645 1_555
O5 Y1 2.403606 1_655
O6 Y1 2.264349 1_555
O6 Y1 2.269805 1_655
O7 Y4 2.264349 1_555
O7 Y4 2.269805 1_455
O8 Y5 2.231697 1_555
O8 Y4 2.367645 1_555
O8 Y4 2.403606 1_455
O9 Y6 2.825066 1_555
O9 Y1 2.825066 1_554
O10 Y2 2.231697 1_565
O10 Y3 2.367645 1_555
O10 Y3 2.403606 1_455
O11 Y3 2.264349 1_555
O11 Y3 2.269805 1_455
O12 Y6 2.264349 1_555
O12 Y6 2.269805 1_655
O13 Y7 2.231697 1_545
O13 Y6 2.367645 1_555
O13 Y6 2.403606 1_655
O14 Y5 2.267534 1_655
O14 Y5 2.271749 1_555
O15 Y4 2.231229 1_555
O15 Y7 2.350696 1_555
O15 Y7 2.415540 1_455
O16 Y2 2.813910 1_555
O16 Y5 2.813910 1_555
O17 Y6 2.231229 1_555
O17 Y5 2.350696 1_555
O17 Y5 2.415540 1_655
O18 Y7 2.267534 1_455
O18 Y7 2.271749 1_555
O19 Y0 2.813910 1_555
O19 Y7 2.813910 1_555
