# generated using pymatgen
data_LiSb(SO4)2
_symmetry_space_group_name_H-M   'P 1'
_cell_length_a   9.70459200
_cell_length_b   9.81985000
_cell_length_c   14.56763187
_cell_angle_alpha   89.79213584
_cell_angle_beta   90.00000000
_cell_angle_gamma   90.00000000
_symmetry_Int_Tables_number   1
_chemical_formula_structural   LiSb(SO4)2
_chemical_formula_sum   'Li8 Sb8 S16 O64'
_cell_volume   1388.25176866
_cell_formula_units_Z   8
loop_
 _symmetry_equiv_pos_site_id
 _symmetry_equiv_pos_as_xyz
  1  'x, y, z'
loop_
 _atom_site_type_symbol
 _atom_site_label
 _atom_site_symmetry_multiplicity
 _atom_site_fract_x
 _atom_site_fract_y
 _atom_site_fract_z
 _atom_site_occupancy
  Li  Li0  1  0.79461600  0.21468400  0.63124500  1
  Li  Li1  1  0.20538400  0.21468400  0.13124500  1
  Li  Li2  1  0.70222900  0.29084400  0.12830800  1
  Li  Li3  1  0.29777100  0.29084400  0.62830800  1
  Li  Li4  1  0.30914600  0.77559800  0.87134100  1
  Li  Li5  1  0.69085400  0.77559800  0.37134100  1
  Li  Li6  1  0.98230300  0.95216100  0.37067800  1
  Li  Li7  1  0.01769700  0.95216100  0.87067800  1
  Sb  Sb0  1  0.63757500  0.13930400  0.87575800  1
  Sb  Sb1  1  0.36242500  0.13930400  0.37575800  1
  Sb  Sb2  1  0.13870400  0.36913000  0.87339700  1
  Sb  Sb3  1  0.86129600  0.36913000  0.37339700  1
  Sb  Sb4  1  0.64949400  0.63911400  0.62828300  1
  Sb  Sb5  1  0.35050600  0.63911400  0.12828300  1
  Sb  Sb6  1  0.15389300  0.85282100  0.61955900  1
  Sb  Sb7  1  0.84610700  0.85282100  0.11955900  1
  S  S0  1  0.68111100  0.06895400  0.26770100  1
  S  S1  1  0.31888900  0.06895400  0.76770100  1
  S  S2  1  0.06173600  0.15495100  0.51330000  1
  S  S3  1  0.93826400  0.15495100  0.01330000  1
  S  S4  1  0.56324200  0.34216800  0.51723800  1
  S  S5  1  0.43675800  0.34216800  0.01723800  1
  S  S6  1  0.82529200  0.42346800  0.76931000  1
  S  S7  1  0.17470800  0.42346800  0.26931000  1
  S  S8  1  0.32553400  0.56981600  0.73163500  1
  S  S9  1  0.67446600  0.56981600  0.23163500  1
  S  S10  1  0.06764400  0.66833300  0.98185400  1
  S  S11  1  0.93235600  0.66833300  0.48185400  1
  S  S12  1  0.56173900  0.84434400  0.98838300  1
  S  S13  1  0.43826100  0.84434400  0.48838300  1
  S  S14  1  0.17239700  0.93048800  0.23171900  1
  S  S15  1  0.82760300  0.93048800  0.73171900  1
  O  O0  1  0.05704100  0.99949600  0.51972700  1
  O  O1  1  0.94295900  0.99949600  0.01972700  1
  O  O2  1  0.77095400  0.02366400  0.66351300  1
  O  O3  1  0.22904600  0.02366400  0.16351300  1
  O  O4  1  0.29307300  0.02249600  0.67066400  1
  O  O5  1  0.70692700  0.02249600  0.17066400  1
  O  O6  1  0.52803500  0.05832100  0.28333900  1
  O  O7  1  0.47196500  0.05832100  0.78333900  1
  O  O8  1  0.00107500  0.18078000  0.92045400  1
  O  O9  1  0.99892500  0.18078000  0.42045400  1
  O  O10  1  0.79128900  0.20126500  0.01223200  1
  O  O11  1  0.20871100  0.20126500  0.51223200  1
  O  O12  1  0.72377500  0.21483500  0.26927300  1
  O  O13  1  0.27622500  0.21483500  0.76927300  1
  O  O14  1  0.98769800  0.21920000  0.58795200  1
  O  O15  1  0.01230200  0.21920000  0.08795200  1
  O  O16  1  0.48876800  0.27758500  0.59290600  1
  O  O17  1  0.51123200  0.27758500  0.09290600  1
  O  O18  1  0.78614600  0.27534200  0.76668400  1
  O  O19  1  0.21385400  0.27534200  0.26668400  1
  O  O20  1  0.70963400  0.29473100  0.51545100  1
  O  O21  1  0.29036600  0.29473100  0.01545100  1
  O  O22  1  0.50070800  0.31037400  0.92553700  1
  O  O23  1  0.49929200  0.31037400  0.42553700  1
  O  O24  1  0.98387200  0.42923300  0.77663700  1
  O  O25  1  0.01612800  0.42923300  0.27663700  1
  O  O26  1  0.20373700  0.47409000  0.17212300  1
  O  O27  1  0.79626300  0.47409000  0.67212300  1
  O  O28  1  0.25811600  0.48315600  0.66440300  1
  O  O29  1  0.74188400  0.48315600  0.16440300  1
  O  O30  1  0.56044800  0.49571100  0.52512500  1
  O  O31  1  0.43955200  0.49571100  0.02512500  1
  O  O32  1  0.05181100  0.51699300  0.96529300  1
  O  O33  1  0.94818900  0.51699300  0.46529300  1
  O  O34  1  0.24191800  0.50044000  0.33943900  1
  O  O35  1  0.75808200  0.50044000  0.83943900  1
  O  O36  1  0.28543400  0.53047700  0.82951700  1
  O  O37  1  0.71456600  0.53047700  0.32951700  1
  O  O38  1  0.47860000  0.56385700  0.72648300  1
  O  O39  1  0.52140000  0.56385700  0.22648300  1
  O  O40  1  0.00468100  0.69206100  0.57068200  1
  O  O41  1  0.99531900  0.69206100  0.07068200  1
  O  O42  1  0.21892700  0.70069300  0.99474200  1
  O  O43  1  0.78107300  0.70069300  0.49474200  1
  O  O44  1  0.28091000  0.71668800  0.72564600  1
  O  O45  1  0.71909000  0.71668800  0.22564600  1
  O  O46  1  0.01566900  0.75027100  0.90593300  1
  O  O47  1  0.98433100  0.75027100  0.40593300  1
  O  O48  1  0.49889600  0.77723500  0.91025900  1
  O  O49  1  0.50110400  0.77723500  0.41025900  1
  O  O50  1  0.22141900  0.78917300  0.21889500  1
  O  O51  1  0.77858100  0.78917300  0.71889500  1
  O  O52  1  0.28989500  0.80113700  0.49897800  1
  O  O53  1  0.71010500  0.80113700  0.99897800  1
  O  O54  1  0.51131000  0.81733800  0.57657200  1
  O  O55  1  0.48869000  0.81733800  0.07657200  1
  O  O56  1  0.01599500  0.93123900  0.23204800  1
  O  O57  1  0.98400500  0.93123900  0.73204800  1
  O  O58  1  0.20798600  0.97407300  0.32934800  1
  O  O59  1  0.79201400  0.97407300  0.82934800  1
  O  O60  1  0.75610400  0.98374300  0.33505300  1
  O  O61  1  0.24389600  0.98374300  0.83505300  1
  O  O62  1  0.55855100  0.99902800  0.97646200  1
  O  O63  1  0.44144900  0.99902800  0.47646200  1
loop_
_geom_bond_atom_site_label_1
_geom_bond_atom_site_label_2
_geom_bond_distance
_geom_bond_site_symmetry_2
Li0 O2 1.945733 1_555
Li0 O14 1.977518 1_555
Li0 O20 2.033188 1_555
Li0 O18 2.064683 1_555
Li1 O3 1.945733 1_555
Li1 O15 1.977518 1_555
Li1 O21 2.033188 1_555
Li1 O19 2.064683 1_555
Li2 O17 1.928484 1_555
Li2 O29 1.999532 1_555
Li2 O10 2.095447 1_555
Li2 O12 2.192414 1_555
Li3 O16 1.928484 1_555
Li3 O28 1.999532 1_555
Li3 O11 2.095447 1_555
Li3 O13 2.192414 1_555
Li4 O48 1.926830 1_555
Li4 O42 2.128285 1_555
Li4 O61 2.202346 1_555
Li4 O44 2.218864 1_555
Li4 O36 2.495738 1_555
Li5 O49 1.926830 1_555
Li5 O43 2.128285 1_555
Li5 O60 2.202346 1_555
Li5 O45 2.218864 1_555
Li5 O37 2.495738 1_555
Li6 O47 2.046262 1_555
Li6 O56 2.056831 1_655
Li6 O60 2.276645 1_555
Li6 O58 2.281374 1_655
Li6 O0 2.337509 1_655
Li6 O9 2.367208 1_565
Li7 O46 2.046262 1_555
Li7 O57 2.056831 1_455
Li7 O61 2.276645 1_555
Li7 O59 2.281374 1_455
Li7 O1 2.337509 1_456
Li7 O8 2.367208 1_565
O0 S2 1.529753 1_565
O0 Sb6 2.248957 1_555
O1 S3 1.529753 1_565
O1 Sb7 2.248957 1_555
O2 S15 1.456040 1_545
O3 S14 1.456040 1_545
O4 S1 1.507925 1_555
O4 Sb6 2.272392 1_545
O5 S0 1.507925 1_555
O5 Sb7 2.272392 1_545
O6 S0 1.506471 1_555
O6 Sb1 2.244057 1_555
O7 S1 1.506471 1_555
O7 Sb0 2.244057 1_555
O8 S3 1.504255 1_456
O8 Sb2 2.380240 1_555
O9 S2 1.504255 1_655
O9 Sb3 2.380240 1_555
O10 S3 1.497149 1_555
O10 Sb0 2.560625 1_554
O11 S2 1.497149 1_555
O11 Sb1 2.560625 1_555
O12 S0 1.491419 1_555
O12 Sb3 2.528693 1_555
O13 S1 1.491419 1_555
O13 Sb2 2.528693 1_555
O14 S2 1.449810 1_655
O15 S3 1.449810 1_455
O16 S4 1.461012 1_555
O17 S5 1.461012 1_555
O18 S6 1.503987 1_555
O18 Sb0 2.524433 1_555
O19 S7 1.503987 1_555
O19 Sb1 2.524433 1_555
O20 S4 1.495351 1_555
O20 Sb3 2.640343 1_555
O21 S5 1.495351 1_555
O21 Sb2 2.640343 1_554
O22 S5 1.506717 1_556
O22 Sb0 2.262945 1_555
O23 S4 1.506717 1_555
O23 Sb1 2.262945 1_555
O24 S6 1.543704 1_555
O24 Sb2 2.141711 1_655
O25 S7 1.543704 1_555
O25 Sb3 2.141711 1_455
O26 S7 1.525061 1_555
O26 Sb5 2.248364 1_555
O27 S6 1.525061 1_555
O27 Sb4 2.248364 1_555
O28 S8 1.455176 1_555
O29 S9 1.455176 1_555
O30 S4 1.512799 1_555
O30 Sb4 2.236838 1_555
O31 S5 1.512799 1_555
O31 Sb5 2.236838 1_555
O32 S10 1.514270 1_555
O32 Sb2 2.150724 1_555
O33 S11 1.514270 1_555
O33 Sb3 2.150724 1_555
O34 S7 1.430397 1_555
O35 S6 1.430397 1_555
O36 S8 1.526398 1_555
O36 Sb2 2.222441 1_555
O37 S9 1.526398 1_555
O37 Sb3 2.222441 1_555
O38 S8 1.488499 1_555
O38 Sb4 2.309848 1_555
O39 S9 1.488499 1_555
O39 Sb5 2.309848 1_555
O40 S11 1.491172 1_455
O40 Sb6 2.259216 1_555
O41 S10 1.491172 1_654
O41 Sb7 2.259216 1_555
O42 S10 1.513966 1_555
O42 Sb5 2.402527 1_556
O43 S11 1.513966 1_555
O43 Sb4 2.402527 1_555
O44 S8 1.508096 1_555
O44 Sb6 2.383244 1_555
O45 S9 1.508096 1_555
O45 Sb7 2.383244 1_555
O46 S10 1.455535 1_555
O47 S11 1.455535 1_555
O48 S12 1.451513 1_555
O49 S13 1.451513 1_555
O50 S14 1.479459 1_555
O50 Sb5 2.344619 1_555
O51 S15 1.479459 1_555
O51 Sb4 2.344619 1_555
O52 S13 1.508801 1_555
O52 Sb6 2.256461 1_555
O53 S12 1.508801 1_555
O53 Sb7 2.256461 1_556
O54 S13 1.490261 1_555
O54 Sb4 2.327918 1_555
O55 S12 1.490261 1_554
O55 Sb5 2.327918 1_555
O56 S14 1.517843 1_555
O56 Sb7 2.450645 1_455
O57 S15 1.517843 1_555
O57 Sb6 2.450645 1_655
O58 S14 1.526304 1_555
O58 Sb1 2.311709 1_565
O59 S15 1.526304 1_555
O59 Sb0 2.311709 1_565
O60 S0 1.478696 1_565
O61 S1 1.478696 1_565
O62 S12 1.528556 1_555
O62 Sb0 2.150137 1_565
O63 S13 1.528556 1_555
O63 Sb1 2.150137 1_565
