# generated using pymatgen
data_LiMn2(BO3)2
_symmetry_space_group_name_H-M   'P 1'
_cell_length_a   14.03375649
_cell_length_b   14.03375649
_cell_length_c   10.36552861
_cell_angle_alpha   89.72674056
_cell_angle_beta   89.72674056
_cell_angle_gamma   158.25073369
_symmetry_Int_Tables_number   1
_chemical_formula_structural   LiMn2(BO3)2
_chemical_formula_sum   'Li6 Mn12 B12 O36'
_cell_volume   756.20946449
_cell_formula_units_Z   6
loop_
 _symmetry_equiv_pos_site_id
 _symmetry_equiv_pos_as_xyz
  1  'x, y, z'
loop_
 _atom_site_type_symbol
 _atom_site_label
 _atom_site_symmetry_multiplicity
 _atom_site_fract_x
 _atom_site_fract_y
 _atom_site_fract_z
 _atom_site_occupancy
  Li  Li0  1  0.45361600  0.77872800  0.34524600  1
  Li  Li1  1  0.47894700  0.81884200  0.81542300  1
  Li  Li2  1  0.87114100  0.88217700  0.07790800  1
  Li  Li3  1  0.81884200  0.47894700  0.31542300  1
  Li  Li4  1  0.77872800  0.45361600  0.84524600  1
  Li  Li5  1  0.88217700  0.87114100  0.57790800  1
  Mn  Mn0  1  0.05784800  0.28412200  0.86290800  1
  Mn  Mn1  1  0.28796100  0.42122300  0.12868600  1
  Mn  Mn2  1  0.04658800  0.61766600  0.61740000  1
  Mn  Mn3  1  0.60419000  0.69859300  0.37582400  1
  Mn  Mn4  1  0.28412200  0.05784800  0.36290800  1
  Mn  Mn5  1  0.35715300  0.89709700  0.87196300  1
  Mn  Mn6  1  0.61766600  0.04658800  0.11740000  1
  Mn  Mn7  1  0.42122300  0.28796100  0.62868600  1
  Mn  Mn8  1  0.74764000  0.96160800  0.61736200  1
  Mn  Mn9  1  0.89709700  0.35715300  0.37196300  1
  Mn  Mn10  1  0.69859300  0.60419000  0.87582400  1
  Mn  Mn11  1  0.96160800  0.74764000  0.11736200  1
  B  B0  1  0.03879400  0.27018900  0.37498000  1
  B  B1  1  0.05535200  0.60712900  0.12315800  1
  B  B2  1  0.29882100  0.39546800  0.62226300  1
  B  B3  1  0.37883100  0.93117600  0.36508100  1
  B  B4  1  0.27018900  0.03879400  0.87498000  1
  B  B5  1  0.62132700  0.74924900  0.88044000  1
  B  B6  1  0.72589000  0.93393700  0.13700500  1
  B  B7  1  0.39546800  0.29882100  0.12226300  1
  B  B8  1  0.60712900  0.05535200  0.62315800  1
  B  B9  1  0.74924900  0.62132700  0.38044000  1
  B  B10  1  0.93117600  0.37883100  0.86508100  1
  B  B11  1  0.93393700  0.72589000  0.63700500  1
  O  O0  1  0.22505600  0.23479900  0.61416600  1
  O  O1  1  0.13343500  0.31418000  0.66369000  1
  O  O2  1  0.21034600  0.36361600  0.31792300  1
  O  O3  1  0.09523700  0.41621700  0.37888000  1
  O  O4  1  0.98124700  0.52141700  0.83425000  1
  O  O5  1  0.11834300  0.48625500  0.85768200  1
  O  O6  1  0.11971900  0.67912700  0.40661800  1
  O  O7  1  0.01480600  0.80313900  0.92825000  1
  O  O8  1  0.38766400  0.54101100  0.94749300  1
  O  O9  1  0.28530500  0.80626000  0.05387000  1
  O  O10  1  0.15760200  0.95587900  0.56817000  1
  O  O11  1  0.55386700  0.65867300  0.58239600  1
  O  O12  1  0.23479900  0.22505600  0.11416600  1
  O  O13  1  0.65564900  0.77433800  0.17408700  1
  O  O14  1  0.56931600  0.86189200  0.16630000  1
  O  O15  1  0.31418000  0.13343500  0.16369000  1
  O  O16  1  0.42584200  0.94812200  0.68450000  1
  O  O17  1  0.52141700  0.98124700  0.33425000  1
  O  O18  1  0.58447800  0.93913200  0.63522800  1
  O  O19  1  0.48625500  0.11834300  0.35768200  1
  O  O20  1  0.36361600  0.21034600  0.81792300  1
  O  O21  1  0.41621700  0.09523700  0.87888000  1
  O  O22  1  0.68371900  0.89062900  0.80709400  1
  O  O23  1  0.77707300  0.81848400  0.88932100  1
  O  O24  1  0.80313900  0.01480600  0.42825000  1
  O  O25  1  0.67912700  0.11971900  0.90661800  1
  O  O26  1  0.54101100  0.38766400  0.44749300  1
  O  O27  1  0.95587900  0.15760200  0.06817000  1
  O  O28  1  0.65867300  0.55386700  0.08239600  1
  O  O29  1  0.80626000  0.28530500  0.55387000  1
  O  O30  1  0.94812200  0.42584200  0.18450000  1
  O  O31  1  0.93913200  0.58447800  0.13522800  1
  O  O32  1  0.77433800  0.65564900  0.67408700  1
  O  O33  1  0.86189200  0.56931600  0.66630000  1
  O  O34  1  0.89062900  0.68371900  0.30709400  1
  O  O35  1  0.81848400  0.77707300  0.38932100  1
loop_
_geom_bond_atom_site_label_1
_geom_bond_atom_site_label_2
_geom_bond_distance
_geom_bond_site_symmetry_2
Li0 O3 1.932371 1_555
Li0 O14 1.967092 1_555
Li0 O17 1.992045 1_555
Li0 O24 2.378240 1_565
Li1 O5 1.915376 1_555
Li1 O18 1.957325 1_555
Li1 O22 1.974699 1_555
Li1 O25 2.154713 1_565
Li2 O12 1.938582 1_665
Li2 O13 1.970987 1_555
Li2 O23 2.052376 1_554
Li2 O28 2.144201 1_555
Li3 O19 1.915376 1_555
Li3 O31 1.957325 1_555
Li3 O34 1.974699 1_555
Li3 O6 2.154713 1_655
Li4 O21 1.932371 1_555
Li4 O33 1.967092 1_555
Li4 O4 1.992045 1_555
Li4 O7 2.378240 1_655
Li5 O0 1.938582 1_665
Li5 O32 1.970987 1_555
Li5 O35 2.052376 1_555
Li5 O11 2.144201 1_555
Mn0 O8 2.064144 1_555
Mn0 O5 2.072415 1_555
Mn0 O22 2.143806 1_445
Mn0 O1 2.169556 1_555
Mn0 O27 2.223121 1_456
Mn1 O27 1.954803 1_455
Mn1 O8 1.971456 1_554
Mn1 O13 1.987271 1_555
Mn1 O2 2.004083 1_555
Mn1 O12 2.085120 1_555
Mn2 O33 2.037837 1_455
Mn2 O29 2.095700 1_455
Mn2 O16 2.129064 1_555
Mn2 O6 2.210686 1_555
Mn2 O4 2.316962 1_455
Mn3 O35 2.032088 1_555
Mn3 O13 2.136022 1_555
Mn3 O11 2.153284 1_555
Mn3 O2 2.190996 1_555
Mn3 O24 2.192016 1_565
Mn4 O26 2.064144 1_555
Mn4 O19 2.072415 1_555
Mn4 O34 2.143806 1_445
Mn4 O15 2.169556 1_555
Mn4 O10 2.223121 1_545
Mn5 O9 1.941210 1_556
Mn5 O16 1.975963 1_555
Mn5 O25 2.027086 1_565
Mn5 O21 2.035956 1_565
Mn5 O4 2.037623 1_455
Mn6 O14 2.037837 1_545
Mn6 O9 2.095700 1_545
Mn6 O30 2.129064 1_555
Mn6 O25 2.210686 1_554
Mn6 O17 2.316962 1_545
Mn7 O10 1.954803 1_545
Mn7 O26 1.971456 1_555
Mn7 O32 1.987271 1_555
Mn7 O20 2.004083 1_555
Mn7 O0 2.085120 1_555
Mn8 O24 1.974302 1_565
Mn8 O22 1.992314 1_555
Mn8 O18 2.007633 1_555
Mn8 O11 2.036733 1_555
Mn8 O1 2.075910 1_665
Mn9 O29 1.941210 1_555
Mn9 O30 1.975963 1_555
Mn9 O6 2.027086 1_655
Mn9 O3 2.035956 1_655
Mn9 O17 2.037623 1_545
Mn10 O23 2.032088 1_555
Mn10 O32 2.136022 1_555
Mn10 O28 2.153284 1_556
Mn10 O20 2.190996 1_555
Mn10 O7 2.192016 1_655
Mn11 O7 1.974302 1_654
Mn11 O34 1.992314 1_555
Mn11 O31 2.007633 1_555
Mn11 O28 2.036733 1_555
Mn11 O15 2.075910 1_665
B0 O3 1.347006 1_555
B0 O2 1.407223 1_555
B0 O24 1.425739 1_455
B1 O31 1.345896 1_455
B1 O9 1.394854 1_555
B1 O30 1.415963 1_455
B2 O0 1.352551 1_555
B2 O1 1.392865 1_555
B2 O11 1.427406 1_555
B3 O19 1.348702 1_565
B3 O17 1.407034 1_555
B3 O6 1.413142 1_555
B4 O21 1.347006 1_555
B4 O20 1.407223 1_555
B4 O7 1.425739 1_545
B5 O23 1.337002 1_555
B5 O8 1.390544 1_555
B5 O22 1.425965 1_555
B6 O14 1.344032 1_555
B6 O27 1.384201 1_565
B6 O13 1.422266 1_555
B7 O12 1.352551 1_555
B7 O15 1.392865 1_555
B7 O28 1.427406 1_555
B8 O18 1.345896 1_545
B8 O29 1.394854 1_555
B8 O16 1.415963 1_545
B9 O35 1.337002 1_555
B9 O26 1.390544 1_555
B9 O34 1.425965 1_555
B10 O5 1.348702 1_655
B10 O4 1.407034 1_555
B10 O25 1.413142 1_555
B11 O33 1.344032 1_555
B11 O10 1.384201 1_655
B11 O32 1.422266 1_555
