# generated using pymatgen
data_La4Ti3O12
_symmetry_space_group_name_H-M   'P 1'
_cell_length_a   5.57554900
_cell_length_b   5.71209895
_cell_length_c   7.97116595
_cell_angle_alpha   91.22957090
_cell_angle_beta   90.69269844
_cell_angle_gamma   90.51634215
_symmetry_Int_Tables_number   1
_chemical_formula_structural   La4Ti3O12
_chemical_formula_sum   'La4 Ti3 O12'
_cell_volume   253.77847361
_cell_formula_units_Z   1
loop_
 _symmetry_equiv_pos_site_id
 _symmetry_equiv_pos_as_xyz
  1  'x, y, z'
loop_
 _atom_site_type_symbol
 _atom_site_label
 _atom_site_symmetry_multiplicity
 _atom_site_fract_x
 _atom_site_fract_y
 _atom_site_fract_z
 _atom_site_occupancy
  La  La0  1  0.01064100  0.04203600  0.26861900  1
  La  La1  1  0.48695300  0.57168200  0.27386700  1
  La  La2  1  0.51304700  0.42831800  0.72613300  1
  La  La3  1  0.98935900  0.95796400  0.73138100  1
  Ti  Ti0  1  0.00000000  0.50000000  0.00000000  1
  Ti  Ti1  1  0.00000000  0.50000000  0.50000000  1
  Ti  Ti2  1  0.50000000  0.00000000  0.00000000  1
  O  O0  1  0.08324300  0.51502800  0.75704200  1
  O  O1  1  0.21563900  0.78051600  0.04827800  1
  O  O2  1  0.17711400  0.78554200  0.46112600  1
  O  O3  1  0.27670700  0.28868500  0.04995600  1
  O  O4  1  0.28321300  0.32304300  0.45613000  1
  O  O5  1  0.40713300  0.02094700  0.77381700  1
  O  O6  1  0.59286700  0.97905300  0.22618300  1
  O  O7  1  0.71678700  0.67695700  0.54387000  1
  O  O8  1  0.72329300  0.71131500  0.95004400  1
  O  O9  1  0.82288600  0.21445800  0.53887400  1
  O  O10  1  0.78436100  0.21948400  0.95172200  1
  O  O11  1  0.91675700  0.48497200  0.24295800  1
loop_
_geom_bond_atom_site_label_1
_geom_bond_atom_site_label_2
_geom_bond_distance
_geom_bond_site_symmetry_2
La0 O2 2.334385 1_545
La0 O6 2.372805 1_445
La0 O1 2.566998 1_545
La0 O9 2.586255 1_455
La0 O11 2.600137 1_455
La0 O4 2.630265 1_555
La0 O3 2.711808 1_555
La0 O10 3.009295 1_454
La1 O4 2.348973 1_555
La1 O6 2.434437 1_555
La1 O11 2.465594 1_555
La1 O7 2.549459 1_555
La1 O2 2.593610 1_555
La1 O3 2.638995 1_555
La1 O1 2.646443 1_555
La2 O7 2.348973 1_555
La2 O5 2.434437 1_555
La2 O0 2.465594 1_555
La2 O4 2.549459 1_555
La2 O9 2.593610 1_555
La2 O8 2.638995 1_555
La2 O10 2.646443 1_555
La3 O9 2.334385 1_565
La3 O5 2.372805 1_665
La3 O10 2.566998 1_565
La3 O2 2.586255 1_655
La3 O0 2.600137 1_655
La3 O7 2.630265 1_555
La3 O8 2.711808 1_555
La3 O1 3.009295 1_656
O0 Ti0 2.000394 1_556
O0 Ti1 2.095140 1_555
O1 Ti0 2.022063 1_555
O1 Ti2 2.057484 1_565
O2 Ti1 1.931724 1_555
O3 Ti0 2.008754 1_555
O3 Ti2 2.109158 1_555
O4 Ti1 1.914262 1_555
O5 Ti2 1.876385 1_556
O6 Ti2 1.876385 1_565
O7 Ti1 1.914262 1_655
O8 Ti0 2.008754 1_656
O8 Ti2 2.109158 1_566
O9 Ti1 1.931724 1_655
O10 Ti0 2.022063 1_656
O10 Ti2 2.057484 1_556
O11 Ti0 2.000394 1_655
O11 Ti1 2.095140 1_655
