# generated using pymatgen
data_La2Th11O26
_symmetry_space_group_name_H-M   'P 1'
_cell_length_a   6.88088910
_cell_length_b   6.88112512
_cell_length_c   12.56296751
_cell_angle_alpha   89.99145477
_cell_angle_beta   100.51247814
_cell_angle_gamma   99.59431902
_symmetry_Int_Tables_number   1
_chemical_formula_structural   La2Th11O26
_chemical_formula_sum   'La2 Th11 O26'
_cell_volume   576.38891763
_cell_formula_units_Z   1
loop_
 _symmetry_equiv_pos_site_id
 _symmetry_equiv_pos_as_xyz
  1  'x, y, z'
loop_
 _atom_site_type_symbol
 _atom_site_label
 _atom_site_symmetry_multiplicity
 _atom_site_fract_x
 _atom_site_fract_y
 _atom_site_fract_z
 _atom_site_occupancy
  La  La0  1  0.80768920  0.38460884  0.73068071  1
  La  La1  1  0.19231080  0.61539116  0.26931929  1
  Th  Th0  1  0.03764893  0.92283816  0.65418616  1
  Th  Th1  1  0.26909427  0.46155988  0.57694744  1
  Th  Th2  1  0.57785898  0.84644200  0.80771937  1
  Th  Th3  1  0.73090573  0.53844012  0.42305256  1
  Th  Th4  1  0.65378121  0.69232095  0.11601547  1
  Th  Th5  1  0.96235107  0.07716184  0.34581384  1
  Th  Th6  1  0.50000000  0.00000000  0.50000000  1
  Th  Th7  1  0.42214102  0.15355800  0.19228063  1
  Th  Th8  1  0.11536324  0.76826426  0.96183587  1
  Th  Th9  1  0.88463676  0.23173574  0.03816413  1
  Th  Th10  1  0.34621879  0.30767905  0.88398453  1
  O  O0  1  0.88736880  0.73933525  0.79108153  1
  O  O1  1  0.12249316  0.26482060  0.71084644  1
  O  O2  1  0.49286108  0.50444020  0.75036241  1
  O  O3  1  0.34535900  0.80957937  0.63520229  1
  O  O4  1  0.72793587  0.02954879  0.67121575  1
  O  O5  1  0.96511467  0.58303687  0.59313553  1
  O  O6  1  0.57063672  0.34367080  0.55298626  1
  O  O7  1  0.42936328  0.65632920  0.44701374  1
  O  O8  1  0.19139813  0.11334697  0.51948478  1
  O  O9  1  0.80860187  0.88665303  0.48051522  1
  O  O10  1  0.03488533  0.41696313  0.40686447  1
  O  O11  1  0.87750684  0.73517940  0.28915356  1
  O  O12  1  0.65464100  0.19042063  0.36479771  1
  O  O13  1  0.11263120  0.26066475  0.20891847  1
  O  O14  1  0.50713892  0.49555980  0.24963759  1
  O  O15  1  0.27206413  0.97045121  0.32878425  1
  O  O16  1  0.34989213  0.81234369  0.13129490  1
  O  O17  1  0.95426338  0.57625042  0.09213208  1
  O  O18  1  0.73021058  0.04010816  0.17270484  1
  O  O19  1  0.19171148  0.11466143  0.01811559  1
  O  O20  1  0.80828852  0.88533857  0.98188441  1
  O  O21  1  0.42510515  0.65398007  0.94257752  1
  O  O22  1  0.04573662  0.42374958  0.90786792  1
  O  O23  1  0.57489485  0.34601993  0.05742248  1
  O  O24  1  0.65010787  0.18765631  0.86870510  1
  O  O25  1  0.26978942  0.95989184  0.82729516  1
loop_
_geom_bond_atom_site_label_1
_geom_bond_atom_site_label_2
_geom_bond_distance
_geom_bond_site_symmetry_2
La0 O5 2.492570 1_555
La0 O24 2.492928 1_555
La0 O2 2.494967 1_555
La0 O1 2.495164 1_655
La0 O4 2.496507 1_555
La0 O22 2.496643 1_655
La0 O0 2.497421 1_555
La0 O6 2.498347 1_555
La1 O10 2.492570 1_555
La1 O16 2.492928 1_555
La1 O14 2.494967 1_555
La1 O11 2.495164 1_455
La1 O15 2.496507 1_555
La1 O17 2.496643 1_455
La1 O13 2.497421 1_555
La1 O7 2.498347 1_555
O0 Th8 2.402204 1_655
O0 Th2 2.410024 1_555
O0 Th0 2.415471 1_655
O1 Th0 2.403349 1_545
O1 Th10 2.411433 1_555
O1 Th1 2.417290 1_555
O2 Th2 2.405721 1_555
O2 Th1 2.414297 1_555
O2 Th10 2.414808 1_555
O3 Th0 2.425217 1_555
O3 Th2 2.433250 1_555
O3 Th6 2.434804 1_565
O3 Th1 2.446910 1_555
O4 Th6 2.406395 1_555
O4 Th2 2.409694 1_545
O4 Th0 2.411346 1_645
O5 Th0 2.403424 1_655
O5 Th3 2.415742 1_555
O5 Th1 2.419333 1_655
O6 Th6 2.402308 1_555
O6 Th3 2.416711 1_555
O6 Th1 2.417200 1_555
O7 Th6 2.402308 1_565
O7 Th1 2.416711 1_555
O7 Th3 2.417200 1_555
O8 Th0 2.427290 1_545
O8 Th6 2.432925 1_555
O8 Th5 2.433282 1_455
O8 Th1 2.445591 1_555
O9 Th5 2.427290 1_565
O9 Th6 2.432925 1_565
O9 Th0 2.433282 1_655
O9 Th3 2.445591 1_555
O10 Th5 2.403424 1_455
O10 Th1 2.415742 1_555
O10 Th3 2.419333 1_455
O11 Th5 2.403349 1_565
O11 Th4 2.411433 1_555
O11 Th3 2.417290 1_555
O12 Th5 2.425217 1_555
O12 Th7 2.433250 1_555
O12 Th6 2.434804 1_555
O12 Th3 2.446910 1_555
O13 Th9 2.402204 1_455
O13 Th7 2.410024 1_555
O13 Th5 2.415471 1_455
O14 Th7 2.405721 1_555
O14 Th3 2.414297 1_555
O14 Th4 2.414808 1_555
O15 Th6 2.406395 1_565
O15 Th7 2.409694 1_565
O15 Th5 2.411346 1_465
O16 Th8 2.410786 1_554
O16 Th4 2.411124 1_555
O16 Th7 2.412348 1_565
O17 Th4 2.404114 1_555
O17 Th9 2.410921 1_555
O17 Th8 2.413973 1_654
O18 Th7 2.430093 1_555
O18 Th9 2.431534 1_555
O18 Th5 2.437803 1_555
O18 Th4 2.440356 1_545
O19 Th8 2.430021 1_544
O19 Th10 2.432324 1_554
O19 Th9 2.436934 1_455
O19 Th7 2.442518 1_555
O20 Th9 2.430021 1_566
O20 Th4 2.432324 1_556
O20 Th8 2.436934 1_655
O20 Th2 2.442518 1_555
O21 Th4 2.429777 1_556
O21 Th2 2.431909 1_555
O21 Th10 2.436892 1_555
O21 Th8 2.442606 1_555
O22 Th10 2.404114 1_555
O22 Th8 2.410921 1_555
O22 Th9 2.413973 1_456
O23 Th10 2.429777 1_554
O23 Th7 2.431909 1_555
O23 Th4 2.436892 1_555
O23 Th9 2.442606 1_555
O24 Th9 2.410786 1_556
O24 Th10 2.411124 1_555
O24 Th2 2.412348 1_545
O25 Th2 2.430093 1_555
O25 Th8 2.431534 1_555
O25 Th0 2.437803 1_555
O25 Th10 2.440356 1_565
