# generated using pymatgen
data_SmTh4O10
_symmetry_space_group_name_H-M   'P 1'
_cell_length_a   6.87108111
_cell_length_b   6.87108111
_cell_length_c   6.87108111
_cell_angle_alpha   99.59899832
_cell_angle_beta   99.59899832
_cell_angle_gamma   131.79727252
_symmetry_Int_Tables_number   1
_chemical_formula_structural   SmTh4O10
_chemical_formula_sum   'Sm1 Th4 O10'
_cell_volume   220.75708117
_cell_formula_units_Z   1
loop_
 _symmetry_equiv_pos_site_id
 _symmetry_equiv_pos_as_xyz
  1  'x, y, z'
loop_
 _atom_site_type_symbol
 _atom_site_label
 _atom_site_symmetry_multiplicity
 _atom_site_fract_x
 _atom_site_fract_y
 _atom_site_fract_z
 _atom_site_occupancy
  Sm  Sm0  1  0.50000000  0.50000000  0.00000000  1
  Th  Th0  1  0.10079800  0.29863700  0.39943500  1
  Th  Th1  1  0.89920200  0.70136300  0.60056500  1
  Th  Th2  1  0.29863700  0.89920200  0.19783800  1
  Th  Th3  1  0.70136300  0.10079800  0.80216200  1
  O  O0  1  0.55059800  0.65196500  0.69778800  1
  O  O1  1  0.04582300  0.14719000  0.69778800  1
  O  O2  1  0.85281000  0.55059800  0.89863400  1
  O  O3  1  0.34803500  0.04582300  0.89863400  1
  O  O4  1  0.75000000  0.25000000  0.50000000  1
  O  O5  1  0.25000000  0.75000000  0.50000000  1
  O  O6  1  0.44940200  0.34803500  0.30221200  1
  O  O7  1  0.95417700  0.85281000  0.30221200  1
  O  O8  1  0.65196500  0.95417700  0.10136600  1
  O  O9  1  0.14719000  0.44940200  0.10136600  1
loop_
_geom_bond_atom_site_label_1
_geom_bond_atom_site_label_2
_geom_bond_distance
_geom_bond_site_symmetry_2
O0 Th1 2.413379 1_555
O0 Th3 2.419579 1_565
O0 Th0 2.423593 1_555
O0 Sm0 2.450117 1_556
O1 Th1 2.413379 1_445
O1 Th3 2.419582 1_455
O1 Th0 2.423593 1_555
O1 Sm0 2.450117 1_556
O2 Th2 2.413372 1_656
O2 Th1 2.419585 1_555
O2 Th3 2.423593 1_555
O2 Sm0 2.450114 1_556
O3 Th2 2.413366 1_546
O3 Th1 2.419582 1_445
O3 Th3 2.423593 1_555
O3 Sm0 2.450117 1_556
O4 Th1 2.440844 1_555
O4 Th0 2.440844 1_655
O4 Th2 2.440847 1_545
O4 Th3 2.440850 1_555
O5 Th0 2.440844 1_555
O5 Th1 2.440844 1_455
O5 Th3 2.440847 1_565
O5 Th2 2.440850 1_555
O6 Th0 2.413379 1_555
O6 Th2 2.419579 1_545
O6 Th1 2.423593 1_555
O6 Sm0 2.450117 1_555
O7 Th0 2.413379 1_665
O7 Th2 2.419582 1_655
O7 Th1 2.423593 1_555
O7 Sm0 2.450117 1_555
O8 Th3 2.413366 1_564
O8 Th0 2.419582 1_665
O8 Th2 2.423593 1_555
O8 Sm0 2.450117 1_555
O9 Th3 2.413372 1_454
O9 Th0 2.419585 1_555
O9 Th2 2.423593 1_555
O9 Sm0 2.450114 1_555
