# generated using pymatgen
data_Li4V3Cu3(SbO8)2
_symmetry_space_group_name_H-M   'P 1'
_cell_length_a   6.05817978
_cell_length_b   5.92769524
_cell_length_c   9.81626354
_cell_angle_alpha   90.38818833
_cell_angle_beta   87.00460610
_cell_angle_gamma   120.29242096
_symmetry_Int_Tables_number   1
_chemical_formula_structural   Li4V3Cu3(SbO8)2
_chemical_formula_sum   'Li4 V3 Cu3 Sb2 O16'
_cell_volume   303.88678004
_cell_formula_units_Z   1
loop_
 _symmetry_equiv_pos_site_id
 _symmetry_equiv_pos_as_xyz
  1  'x, y, z'
loop_
 _atom_site_type_symbol
 _atom_site_label
 _atom_site_symmetry_multiplicity
 _atom_site_fract_x
 _atom_site_fract_y
 _atom_site_fract_z
 _atom_site_occupancy
  Li  Li0  1  0.33046300  0.65935100  0.91065900  1
  Li  Li1  1  0.98868500  0.99547900  0.99242200  1
  Li  Li2  1  0.00180900  0.99845900  0.47976700  1
  Li  Li3  1  0.69355600  0.35256800  0.40072000  1
  V  V0  1  0.65147200  0.82776700  0.22199500  1
  V  V1  1  0.82442100  0.65089800  0.72006600  1
  V  V2  1  0.81644300  0.15516600  0.71072900  1
  Cu  Cu0  1  0.17066900  0.82916400  0.20819500  1
  Cu  Cu1  1  0.17162700  0.34025700  0.20878600  1
  Cu  Cu2  1  0.33702400  0.16615100  0.70887800  1
  Sb  Sb0  1  0.33172700  0.67313400  0.48488800  1
  Sb  Sb1  1  0.65440100  0.32458800  0.99275600  1
  O  O0  1  0.15845500  0.83787500  0.59127500  1
  O  O1  1  0.05874300  0.53521100  0.34665400  1
  O  O2  1  0.35924400  0.68008400  0.11543200  1
  O  O3  1  0.98875400  0.99311400  0.29065400  1
  O  O4  1  0.98693800  0.98440500  0.79891000  1
  O  O5  1  0.13095800  0.33194000  0.59469800  1
  O  O6  1  0.53159900  0.98631900  0.35972200  1
  O  O7  1  0.52040200  0.54485900  0.36114000  1
  O  O8  1  0.30828000  0.14699700  0.08457100  1
  O  O9  1  0.65825500  0.82936200  0.60767800  1
  O  O10  1  0.52194900  0.47823000  0.84522100  1
  O  O11  1  0.54948600  0.03133800  0.84422000  1
  O  O12  1  0.68496000  0.35303300  0.61006000  1
  O  O13  1  0.80243100  0.65570100  0.08891100  1
  O  O14  1  0.95787000  0.48511200  0.83940600  1
  O  O15  1  0.80938000  0.15373800  0.08942500  1
loop_
_geom_bond_atom_site_label_1
_geom_bond_atom_site_label_2
_geom_bond_distance
_geom_bond_site_symmetry_2
Li0 O11 2.006366 1_565
Li0 O10 2.019969 1_555
Li0 O2 2.024276 1_556
Li0 O14 2.110535 1_455
Li1 O4 1.900652 1_555
Li1 O8 1.947138 1_666
Li1 O13 1.961728 1_556
Li1 O15 1.968385 1_566
Li2 O3 1.861568 1_455
Li2 O0 2.009677 1_555
Li2 O5 2.072282 1_565
Li2 O9 2.133643 1_455
Li3 O6 1.928328 1_545
Li3 O7 1.950752 1_555
Li3 O1 1.953736 1_655
Li3 O12 2.052893 1_555
Cu0 O3 1.947011 1_455
Cu0 O2 1.952963 1_555
Cu0 O8 2.014424 1_565
Cu0 O1 2.021653 1_555
Cu0 O13 2.312494 1_455
Cu0 O6 2.475399 1_555
Cu1 O3 1.933154 1_445
Cu1 O2 1.948279 1_555
Cu1 O1 2.077033 1_555
Cu1 O8 2.077699 1_555
Cu1 O15 2.283577 1_455
Cu1 O7 2.427459 1_555
Cu2 O4 1.987913 1_445
Cu2 O12 2.014052 1_555
Cu2 O0 2.065427 1_545
Cu2 O10 2.121534 1_555
Cu2 O5 2.275814 1_555
Cu2 O11 2.300248 1_555
O0 Sb0 2.012925 1_555
O0 V1 2.100185 1_455
O1 Sb0 2.024895 1_555
O2 V0 1.900639 1_555
O3 V0 1.924738 1_555
O4 V1 1.889954 1_555
O4 V2 2.000194 1_565
O5 V2 1.949608 1_455
O5 Sb0 2.035346 1_555
O6 V0 1.951213 1_555
O6 Sb0 2.007465 1_555
O7 V0 1.970476 1_555
O7 Sb0 2.019766 1_555
O8 Sb1 1.976312 1_554
O9 V2 1.969566 1_565
O9 V1 2.134435 1_555
O9 Sb0 2.146989 1_555
O10 V1 1.950491 1_555
O10 Sb1 2.108864 1_555
O11 V2 1.861564 1_555
O11 Sb1 2.121209 1_555
O12 V1 1.887328 1_555
O12 V2 2.006784 1_555
O13 Sb1 1.958353 1_554
O13 V0 2.093188 1_555
O14 V1 1.976815 1_555
O14 Sb1 2.125266 1_555
O14 V2 2.131648 1_555
O15 Sb1 1.968000 1_554
O15 V0 2.093190 1_545
