# generated using pymatgen
data_Li6Fe(OF)3
_symmetry_space_group_name_H-M   'P 1'
_cell_length_a   5.39543748
_cell_length_b   6.92313033
_cell_length_c   16.54938443
_cell_angle_alpha   90.00199267
_cell_angle_beta   89.99511985
_cell_angle_gamma   105.98741537
_symmetry_Int_Tables_number   1
_chemical_formula_structural   Li6Fe(OF)3
_chemical_formula_sum   'Li24 Fe4 O12 F12'
_cell_volume   594.26478074
_cell_formula_units_Z   4
loop_
 _symmetry_equiv_pos_site_id
 _symmetry_equiv_pos_as_xyz
  1  'x, y, z'
loop_
 _atom_site_type_symbol
 _atom_site_label
 _atom_site_symmetry_multiplicity
 _atom_site_fract_x
 _atom_site_fract_y
 _atom_site_fract_z
 _atom_site_occupancy
  Li  Li0  1  0.99546700  0.51132300  0.42450700  1
  Li  Li1  1  0.99557300  0.01134000  0.67449500  1
  Li  Li2  1  0.99558700  0.51117700  0.92453300  1
  Li  Li3  1  0.99557200  0.01120300  0.17448800  1
  Li  Li4  1  0.99558500  0.51133700  0.57546500  1
  Li  Li5  1  0.99552200  0.01128200  0.82553700  1
  Li  Li6  1  0.99549900  0.51117700  0.07548600  1
  Li  Li7  1  0.99564300  0.01117900  0.32549500  1
  Li  Li8  1  0.36021400  0.32881100  0.33329300  1
  Li  Li9  1  0.36037400  0.82893800  0.58331500  1
  Li  Li10  1  0.36024000  0.32883100  0.83335900  1
  Li  Li11  1  0.36029300  0.82881300  0.08333200  1
  Li  Li12  1  0.66213100  0.17780700  0.40879200  1
  Li  Li13  1  0.66225700  0.67800100  0.65884600  1
  Li  Li14  1  0.66211000  0.17777400  0.90882400  1
  Li  Li15  1  0.66218100  0.67785000  0.15883600  1
  Li  Li16  1  0.36024800  0.32886200  0.66669800  1
  Li  Li17  1  0.36030800  0.82882800  0.91669800  1
  Li  Li18  1  0.36022300  0.32877800  0.16666800  1
  Li  Li19  1  0.36036100  0.82892200  0.41664200  1
  Li  Li20  1  0.66213300  0.17788700  0.59118000  1
  Li  Li21  1  0.66223400  0.67792500  0.84115500  1
  Li  Li22  1  0.66210000  0.17781400  0.09119200  1
  Li  Li23  1  0.66218100  0.67783300  0.34115100  1
  Fe  Fe0  1  0.93712000  0.93723900  0.50001200  1
  Fe  Fe1  1  0.93700300  0.43705100  0.74996200  1
  Fe  Fe2  1  0.93699100  0.93683400  0.99996700  1
  Fe  Fe3  1  0.93688700  0.43709800  0.25005500  1
  O  O0  1  0.10391100  0.73116000  0.50000500  1
  O  O1  1  0.10301700  0.23088700  0.75008900  1
  O  O2  1  0.10360700  0.73067700  0.99999700  1
  O  O3  1  0.10304600  0.23092500  0.25000200  1
  O  O4  1  0.73059000  0.41718000  0.34322600  1
  O  O5  1  0.73075900  0.91711300  0.59328500  1
  O  O6  1  0.73088200  0.41722200  0.84317700  1
  O  O7  1  0.73100600  0.91709100  0.09331600  1
  O  O8  1  0.73074000  0.41732200  0.65677900  1
  O  O9  1  0.73088300  0.91689600  0.90670500  1
  O  O10  1  0.73073700  0.41726100  0.15682200  1
  O  O11  1  0.73103600  0.91679900  0.40668600  1
  F  F0  1  0.28310600  0.58921600  0.34705300  1
  F  F1  1  0.28347300  0.08910200  0.59673600  1
  F  F2  1  0.28354200  0.58900400  0.84729000  1
  F  F3  1  0.28354000  0.08902400  0.09668100  1
  F  F4  1  0.28343600  0.58896700  0.65281200  1
  F  F5  1  0.28350500  0.08909600  0.90334600  1
  F  F6  1  0.28346300  0.58897000  0.15280700  1
  F  F7  1  0.28353200  0.08911600  0.40321800  1
  F  F8  1  0.89391600  0.28324300  0.49999900  1
  F  F9  1  0.89618600  0.78494500  0.74999600  1
  F  F10  1  0.89416400  0.28308100  0.99999500  1
  F  F11  1  0.89589400  0.78378900  0.24999600  1
loop_
_geom_bond_atom_site_label_1
_geom_bond_atom_site_label_2
_geom_bond_distance
_geom_bond_site_symmetry_2
Li0 O0 1.931134 1_655
Li0 O4 1.940053 1_555
Li1 O1 1.930291 1_655
Li1 O5 1.939097 1_545
Li2 O2 1.928930 1_655
Li2 O6 1.940143 1_555
Li3 O3 1.930301 1_655
Li3 O7 1.937692 1_545
Li4 O0 1.930608 1_655
Li4 O8 1.940065 1_555
Li5 O1 1.929036 1_655
Li5 O9 1.938017 1_545
Li6 O2 1.929243 1_654
Li6 O10 1.939938 1_555
Li7 O3 1.930166 1_655
Li7 O11 1.938164 1_545
Li8 O4 1.929060 1_555
Li8 O3 1.940829 1_555
Li9 O5 1.929116 1_555
Li9 O0 1.938587 1_555
Li10 O6 1.930264 1_555
Li10 O1 1.940827 1_555
Li11 O7 1.930837 1_555
Li11 O2 1.940004 1_554
Li12 O4 1.929518 1_555
Li12 O11 1.942859 1_545
Li13 O5 1.928005 1_555
Li13 O8 1.939591 1_555
Li14 O6 1.930615 1_555
Li14 O9 1.941660 1_545
Li15 O7 1.928265 1_555
Li15 O10 1.939139 1_555
Li16 O8 1.929628 1_555
Li16 O1 1.942175 1_555
Li17 O9 1.930073 1_555
Li17 O2 1.939512 1_555
Li18 O10 1.929644 1_555
Li18 O3 1.941196 1_555
Li19 O11 1.930492 1_555
Li19 O0 1.939017 1_555
Li20 O8 1.930106 1_555
Li20 O5 1.940597 1_545
Li21 O9 1.927051 1_555
Li21 O6 1.940143 1_555
Li22 O10 1.930454 1_555
Li22 O7 1.940931 1_545
Li23 O11 1.926835 1_555
Li23 O4 1.939241 1_555
Fe0 O0 1.884832 1_655
Fe0 O11 1.885583 1_555
Fe0 O5 1.885760 1_555
Fe1 O1 1.882483 1_655
Fe1 O6 1.884419 1_555
Fe1 O8 1.884633 1_555
Fe2 O2 1.884664 1_655
Fe2 O9 1.885096 1_555
Fe2 O7 1.885871 1_556
Fe3 O3 1.883073 1_655
Fe3 O4 1.884310 1_555
Fe3 O10 1.884895 1_555
F0 Li19 1.967982 1_555
F0 Li23 1.969225 1_555
F0 Li0 1.970043 1_455
F0 Li8 1.971852 1_555
F0 Fe3 2.468218 1_455
F1 Li20 1.966847 1_555
F1 Li9 1.969072 1_545
F1 Li16 1.971948 1_555
F1 Li1 1.974281 1_455
F1 Fe0 2.465349 1_445
F2 Li17 1.966929 1_555
F2 Li21 1.967507 1_555
F2 Li2 1.968963 1_455
F2 Li10 1.969596 1_555
F2 Fe1 2.472628 1_455
F3 Li22 1.966282 1_555
F3 Li11 1.968886 1_545
F3 Li18 1.972170 1_555
F3 Li3 1.975083 1_455
F3 Fe2 2.466413 1_444
F4 Li13 1.968121 1_555
F4 Li9 1.968595 1_555
F4 Li16 1.969359 1_555
F4 Li4 1.969752 1_455
F4 Fe1 2.470129 1_455
F5 Li14 1.966499 1_555
F5 Li17 1.969422 1_545
F5 Li10 1.972087 1_555
F5 Li5 1.975307 1_455
F5 Fe2 2.465243 1_445
F6 Li15 1.967559 1_555
F6 Li11 1.967699 1_555
F6 Li18 1.969766 1_555
F6 Li6 1.969970 1_455
F6 Fe3 2.471612 1_455
F7 Li12 1.966544 1_555
F7 Li19 1.969123 1_545
F7 Li8 1.971274 1_555
F7 Li7 1.974067 1_455
F7 Fe0 2.466167 1_445
F8 Li20 1.967303 1_555
F8 Li12 1.967872 1_555
F8 Li4 1.969047 1_555
F8 Li0 1.969224 1_555
F8 Fe0 2.469821 1_545
F9 Li1 1.960218 1_565
F9 Li5 1.960323 1_565
F9 Li13 1.975394 1_555
F9 Li21 1.975554 1_555
F9 Fe1 2.478231 1_555
F10 Li14 1.968015 1_555
F10 Li22 1.968195 1_556
F10 Li2 1.968950 1_555
F10 Li6 1.969216 1_556
F10 Fe2 2.470762 1_545
F11 Li7 1.965283 1_565
F11 Li3 1.965490 1_565
F11 Li23 1.973358 1_555
F11 Li15 1.973523 1_555
F11 Fe3 2.470272 1_555
