# generated using pymatgen
data_Li2Si4Ni5O14
_symmetry_space_group_name_H-M   'P 1'
_cell_length_a   5.38526465
_cell_length_b   7.39686069
_cell_length_c   7.94719319
_cell_angle_alpha   114.20870964
_cell_angle_beta   91.19009518
_cell_angle_gamma   104.31171603
_symmetry_Int_Tables_number   1
_chemical_formula_structural   Li2Si4Ni5O14
_chemical_formula_sum   'Li2 Si4 Ni5 O14'
_cell_volume   277.08387973
_cell_formula_units_Z   1
loop_
 _symmetry_equiv_pos_site_id
 _symmetry_equiv_pos_as_xyz
  1  'x, y, z'
loop_
 _atom_site_type_symbol
 _atom_site_label
 _atom_site_symmetry_multiplicity
 _atom_site_fract_x
 _atom_site_fract_y
 _atom_site_fract_z
 _atom_site_occupancy
  Li  Li0  1  0.23021600  0.10084400  0.45466900  1
  Li  Li1  1  0.76974700  0.89908900  0.54520700  1
  Si  Si0  1  0.51004200  0.22040900  0.86379200  1
  Si  Si1  1  0.49000900  0.77957600  0.13623700  1
  Si  Si2  1  0.79565500  0.21508700  0.39401200  1
  Si  Si3  1  0.20427000  0.78489800  0.60604700  1
  Ni  Ni0  1  0.63206300  0.58651400  0.70429900  1
  Ni  Ni1  1  0.36801700  0.41372400  0.29588300  1
  Ni  Ni2  1  0.99982200  0.00022600  0.99994800  1
  Ni  Ni3  1  0.08454500  0.40874700  0.80954800  1
  Ni  Ni4  1  0.91562500  0.59093600  0.19052800  1
  O  O0  1  0.89245000  0.18912600  0.57612000  1
  O  O1  1  0.10766400  0.81077800  0.42382100  1
  O  O2  1  0.81361300  0.32553100  0.95972700  1
  O  O3  1  0.18645300  0.67428800  0.04022200  1
  O  O4  1  0.52553000  0.02367500  0.28517400  1
  O  O5  1  0.47441000  0.97628800  0.71479000  1
  O  O6  1  0.41658000  0.33517900  0.74372500  1
  O  O7  1  0.58363800  0.66486900  0.25630200  1
  O  O8  1  0.03359800  0.18673300  0.26750800  1
  O  O9  1  0.96616000  0.81340500  0.73236800  1
  O  O10  1  0.70005100  0.42048100  0.43337300  1
  O  O11  1  0.29984200  0.57949700  0.56672000  1
  O  O12  1  0.32207800  0.21972000  0.02216100  1
  O  O13  1  0.67792300  0.78038000  0.97782000  1
loop_
_geom_bond_atom_site_label_1
_geom_bond_atom_site_label_2
_geom_bond_distance
_geom_bond_site_symmetry_2
Li0 O1 1.990224 1_545
Li0 O4 2.139313 1_555
Li0 O8 2.186154 1_555
Li0 O0 2.193147 1_455
Li0 O6 2.251085 1_555
Li1 O0 1.989904 1_565
Li1 O5 2.139832 1_555
Li1 O9 2.184511 1_555
Li1 O1 2.193785 1_655
Li1 O7 2.249724 1_555
Ni0 O13 2.022032 1_555
Ni0 O11 2.055556 1_555
Ni0 O9 2.070495 1_555
Ni0 O6 2.080202 1_555
Ni0 O10 2.089165 1_555
Ni1 O12 2.023491 1_555
Ni1 O10 2.055126 1_555
Ni1 O8 2.071470 1_555
Ni1 O7 2.079957 1_555
Ni1 O11 2.088547 1_555
Ni2 O8 1.977814 1_656
Ni2 O9 1.978547 1_545
Ni2 O12 2.009497 1_656
Ni2 O13 2.009859 1_545
Ni3 O0 1.941253 1_455
Ni3 O3 1.998009 1_556
Ni3 O6 2.013334 1_555
Ni3 O2 2.040332 1_455
Ni4 O1 1.941029 1_655
Ni4 O2 1.997988 1_554
Ni4 O7 2.014057 1_555
Ni4 O3 2.041064 1_655
O0 Si2 1.627635 1_555
O1 Si3 1.627835 1_555
O2 Si0 1.640751 1_555
O3 Si1 1.640885 1_555
O4 Si1 1.662762 1_545
O4 Si2 1.671531 1_555
O5 Si0 1.662922 1_565
O5 Si3 1.671401 1_555
O6 Si0 1.655341 1_555
O7 Si1 1.655321 1_555
O8 Si2 1.646245 1_455
O9 Si3 1.646229 1_655
O10 Si2 1.635468 1_555
O11 Si3 1.635471 1_555
O12 Si0 1.632276 1_554
O13 Si1 1.632546 1_556
