# generated using pymatgen
data_Li5Cu5(SbO6)2
_symmetry_space_group_name_H-M   'P 1'
_cell_length_a   5.21098931
_cell_length_b   5.21098931
_cell_length_c   9.89194196
_cell_angle_alpha   88.76643755
_cell_angle_beta   88.76643755
_cell_angle_gamma   113.47581078
_symmetry_Int_Tables_number   1
_chemical_formula_structural   Li5Cu5(SbO6)2
_chemical_formula_sum   'Li5 Cu5 Sb2 O12'
_cell_volume   246.18669636
_cell_formula_units_Z   1
loop_
 _symmetry_equiv_pos_site_id
 _symmetry_equiv_pos_as_xyz
  1  'x, y, z'
loop_
 _atom_site_type_symbol
 _atom_site_label
 _atom_site_symmetry_multiplicity
 _atom_site_fract_x
 _atom_site_fract_y
 _atom_site_fract_z
 _atom_site_occupancy
  Li  Li0  1  0.67815100  0.84702500  0.74293500  1
  Li  Li1  1  0.83740200  0.67845400  0.25438100  1
  Li  Li2  1  0.08987300  0.91012700  0.50000000  1
  Li  Li3  1  0.15297500  0.32184900  0.25706500  1
  Li  Li4  1  0.32154600  0.16259800  0.74561900  1
  Cu  Cu0  1  0.00211800  0.50695900  0.74801400  1
  Cu  Cu1  1  0.40999700  0.59000300  0.50000000  1
  Cu  Cu2  1  0.91749100  0.08250900  0.00000000  1
  Cu  Cu3  1  0.59029500  0.40970500  0.00000000  1
  Cu  Cu4  1  0.49304100  0.99788200  0.25198600  1
  Sb  Sb0  1  0.75045200  0.24954800  0.50000000  1
  Sb  Sb1  1  0.25520300  0.74479700  0.00000000  1
  O  O0  1  0.43303400  0.92880500  0.59880700  1
  O  O1  1  0.69448900  0.53423900  0.61987500  1
  O  O2  1  0.93207300  0.42574400  0.09812800  1
  O  O3  1  0.00777200  0.20445000  0.63591000  1
  O  O4  1  0.52191900  0.68488000  0.12624900  1
  O  O5  1  0.19396700  0.00368100  0.13223500  1
  O  O6  1  0.79555000  0.99222800  0.36409000  1
  O  O7  1  0.46576100  0.30551100  0.38012500  1
  O  O8  1  0.99631900  0.80603300  0.86776500  1
  O  O9  1  0.07119500  0.56696600  0.40119300  1
  O  O10  1  0.31512000  0.47808100  0.87375100  1
  O  O11  1  0.57425600  0.06792700  0.90187200  1
loop_
_geom_bond_atom_site_label_1
_geom_bond_atom_site_label_2
_geom_bond_distance
_geom_bond_site_symmetry_2
Li0 O0 2.081267 1_555
Li0 O1 2.082607 1_555
Li0 O11 2.151228 1_565
Li0 O8 2.162917 1_555
Li0 O3 2.197299 1_665
Li0 O10 2.416456 1_555
Li1 O6 2.061329 1_555
Li1 O4 2.107611 1_555
Li1 O9 2.129451 1_655
Li1 O2 2.222372 1_555
Li1 O5 2.256278 1_665
Li1 O7 2.422416 1_555
Li2 O9 2.025621 1_555
Li2 O0 2.025621 1_555
Li2 O6 2.220261 1_455
Li2 O3 2.220261 1_565
Li2 O1 2.463187 1_455
Li2 O7 2.463187 1_565
Li3 O9 2.081267 1_555
Li3 O7 2.082607 1_555
Li3 O2 2.151228 1_455
Li3 O5 2.162917 1_555
Li3 O6 2.197299 1_445
Li3 O4 2.416456 1_555
Li4 O3 2.061329 1_555
Li4 O10 2.107611 1_555
Li4 O0 2.129451 1_545
Li4 O11 2.222372 1_555
Li4 O8 2.256278 1_445
Li4 O1 2.422416 1_555
Cu0 O3 1.956117 1_555
Cu0 O8 1.987063 1_455
Cu0 O1 2.111383 1_455
Cu0 O10 2.122453 1_555
Cu1 O0 1.999292 1_555
Cu1 O9 1.999292 1_555
Cu1 O1 2.022965 1_555
Cu1 O7 2.022965 1_555
Cu1 O3 2.577686 1_555
Cu1 O6 2.577686 1_555
Cu2 O2 2.028965 1_555
Cu2 O11 2.028965 1_554
Cu2 O8 2.117764 1_544
Cu2 O5 2.117764 1_655
Cu2 O4 2.544965 1_545
Cu2 O10 2.544965 1_654
Cu3 O11 2.020024 1_554
Cu3 O2 2.020024 1_555
Cu3 O10 2.051280 1_554
Cu3 O4 2.051280 1_555
Cu3 O5 2.595380 1_555
Cu3 O8 2.595380 1_554
Cu4 O6 1.956117 1_555
Cu4 O5 1.987063 1_565
Cu4 O7 2.111383 1_565
Cu4 O4 2.122453 1_555
O0 Sb0 2.035241 1_565
O1 Sb0 2.024236 1_555
O2 Sb1 2.042395 1_655
O3 Sb0 1.993926 1_455
O4 Sb1 1.998120 1_555
O5 Sb1 2.008418 1_545
O6 Sb0 1.993926 1_565
O7 Sb0 2.024236 1_555
O8 Sb1 2.008418 1_656
O9 Sb0 2.035241 1_455
O10 Sb1 1.998120 1_556
O11 Sb1 2.042395 1_546
