# generated using pymatgen
data_Li2Fe(SiO3)2
_symmetry_space_group_name_H-M   'P 1'
_cell_length_a   7.16775400
_cell_length_b   9.98869200
_cell_length_c   10.23340500
_cell_angle_alpha   90.00000000
_cell_angle_beta   90.00000000
_cell_angle_gamma   90.00000000
_symmetry_Int_Tables_number   1
_chemical_formula_structural   Li2Fe(SiO3)2
_chemical_formula_sum   'Li12 Fe6 Si12 O36'
_cell_volume   732.67584843
_cell_formula_units_Z   6
loop_
 _symmetry_equiv_pos_site_id
 _symmetry_equiv_pos_as_xyz
  1  'x, y, z'
loop_
 _atom_site_type_symbol
 _atom_site_label
 _atom_site_symmetry_multiplicity
 _atom_site_fract_x
 _atom_site_fract_y
 _atom_site_fract_z
 _atom_site_occupancy
  Li  Li0  1  0.49646900  0.48891000  0.00000000  1
  Li  Li1  1  0.74365600  0.74653800  0.00000000  1
  Li  Li2  1  0.29946500  0.45333700  0.21405000  1
  Li  Li3  1  0.75548600  0.50744800  0.23137400  1
  Li  Li4  1  0.24451400  0.00744800  0.26862600  1
  Li  Li5  1  0.70053500  0.95333700  0.28595000  1
  Li  Li6  1  0.25634400  0.24653800  0.50000000  1
  Li  Li7  1  0.50353100  0.98891000  0.50000000  1
  Li  Li8  1  0.70053500  0.95333700  0.71405000  1
  Li  Li9  1  0.24451400  0.00744800  0.73137400  1
  Li  Li10  1  0.75548600  0.50744800  0.76862600  1
  Li  Li11  1  0.29946500  0.45333700  0.78595000  1
  Fe  Fe0  1  0.98322500  0.01757600  0.00000000  1
  Fe  Fe1  1  0.24972700  0.24236100  0.00000000  1
  Fe  Fe2  1  0.72863200  0.25302200  0.00000000  1
  Fe  Fe3  1  0.01677500  0.51757600  0.50000000  1
  Fe  Fe4  1  0.27136800  0.75302200  0.50000000  1
  Fe  Fe5  1  0.75027300  0.74236100  0.50000000  1
  Si  Si0  1  0.98846500  0.53245900  0.00000000  1
  Si  Si1  1  0.51056300  0.95902000  0.00000000  1
  Si  Si2  1  0.01958900  0.75749300  0.22451100  1
  Si  Si3  1  0.46618200  0.74101700  0.22279100  1
  Si  Si4  1  0.53381800  0.24101700  0.27720900  1
  Si  Si5  1  0.98041100  0.25749300  0.27548900  1
  Si  Si6  1  0.48943700  0.45902000  0.50000000  1
  Si  Si7  1  0.01153500  0.03245900  0.50000000  1
  Si  Si8  1  0.98041100  0.25749300  0.72451100  1
  Si  Si9  1  0.53381800  0.24101700  0.72279100  1
  Si  Si10  1  0.46618200  0.74101700  0.77720900  1
  Si  Si11  1  0.01958900  0.75749300  0.77548900  1
  O  O0  1  0.30349600  0.02357200  0.00000000  1
  O  O1  1  0.19194000  0.46368900  0.00000000  1
  O  O2  1  0.68714600  0.06166500  0.00000000  1
  O  O3  1  0.80002200  0.44145100  0.00000000  1
  O  O4  1  0.55992700  0.85381700  0.12195800  1
  O  O5  1  0.94592700  0.63581200  0.12507100  1
  O  O6  1  0.02594900  0.20302300  0.13001200  1
  O  O7  1  0.46818300  0.29069300  0.13305700  1
  O  O8  1  0.51637900  0.59098200  0.17728300  1
  O  O9  1  0.93354700  0.89953000  0.17672500  1
  O  O10  1  0.24450300  0.77772100  0.20858800  1
  O  O11  1  0.75549700  0.27772100  0.29141200  1
  O  O12  1  0.06645300  0.39953000  0.32327500  1
  O  O13  1  0.48362100  0.09098200  0.32271700  1
  O  O14  1  0.53181700  0.79069300  0.36694300  1
  O  O15  1  0.97405100  0.70302300  0.36998800  1
  O  O16  1  0.05407300  0.13581200  0.37492900  1
  O  O17  1  0.44007300  0.35381700  0.37804200  1
  O  O18  1  0.69650400  0.52357200  0.50000000  1
  O  O19  1  0.31285400  0.56166500  0.50000000  1
  O  O20  1  0.80806000  0.96368900  0.50000000  1
  O  O21  1  0.19997800  0.94145100  0.50000000  1
  O  O22  1  0.44007300  0.35381700  0.62195800  1
  O  O23  1  0.05407300  0.13581200  0.62507100  1
  O  O24  1  0.97405100  0.70302300  0.63001200  1
  O  O25  1  0.53181700  0.79069300  0.63305700  1
  O  O26  1  0.48362100  0.09098200  0.67728300  1
  O  O27  1  0.06645300  0.39953000  0.67672500  1
  O  O28  1  0.75549700  0.27772100  0.70858800  1
  O  O29  1  0.24450300  0.77772100  0.79141200  1
  O  O30  1  0.93354700  0.89953000  0.82327500  1
  O  O31  1  0.51637900  0.59098200  0.82271700  1
  O  O32  1  0.46818300  0.29069300  0.86694300  1
  O  O33  1  0.02594900  0.20302300  0.86998800  1
  O  O34  1  0.94592700  0.63581200  0.87492900  1
  O  O35  1  0.55992700  0.85381700  0.87804200  1
loop_
_geom_bond_atom_site_label_1
_geom_bond_atom_site_label_2
_geom_bond_distance
_geom_bond_site_symmetry_2
Li0 O8 2.085961 1_555
Li0 O31 2.085961 1_554
Li0 O1 2.197279 1_555
Li0 O3 2.226837 1_555
Li0 O7 2.411483 1_555
Li0 O32 2.411483 1_554
Li1 O4 2.107175 1_555
Li1 O35 2.107175 1_554
Li1 O5 2.227870 1_555
Li1 O34 2.227870 1_554
Li2 O12 2.080311 1_555
Li2 O8 2.109326 1_555
Li2 O7 2.188326 1_555
Li2 O17 2.195513 1_555
Li2 O1 2.324394 1_555
Li3 O8 1.984927 1_555
Li3 O5 2.165808 1_555
Li3 O11 2.375500 1_555
Li3 O3 2.478445 1_555
Li4 O13 1.984927 1_555
Li4 O16 2.165808 1_555
Li4 O10 2.375500 1_545
Li4 O21 2.478445 1_545
Li5 O9 2.080311 1_555
Li5 O13 2.109326 1_565
Li5 O14 2.188326 1_555
Li5 O4 2.195513 1_555
Li5 O20 2.324394 1_555
Li6 O22 2.107175 1_555
Li6 O17 2.107175 1_555
Li6 O23 2.227870 1_555
Li6 O16 2.227870 1_555
Li7 O13 2.085961 1_565
Li7 O26 2.085961 1_565
Li7 O20 2.197279 1_555
Li7 O21 2.226837 1_555
Li7 O25 2.411483 1_555
Li7 O14 2.411483 1_555
Li8 O30 2.080311 1_555
Li8 O26 2.109326 1_565
Li8 O25 2.188326 1_555
Li8 O35 2.195513 1_555
Li8 O20 2.324394 1_555
Li9 O26 1.984927 1_555
Li9 O23 2.165808 1_555
Li9 O29 2.375500 1_545
Li9 O21 2.478445 1_545
Li10 O31 1.984927 1_555
Li10 O34 2.165808 1_555
Li10 O28 2.375500 1_555
Li10 O3 2.478445 1_556
Li11 O27 2.080311 1_555
Li11 O31 2.109326 1_555
Li11 O32 2.188326 1_555
Li11 O22 2.195513 1_555
Li11 O1 2.324394 1_556
Fe0 O2 2.167434 1_555
Fe0 O30 2.188103 1_544
Fe0 O9 2.188103 1_545
Fe0 O0 2.296405 1_655
Fe0 O6 2.301131 1_655
Fe0 O33 2.301131 1_654
Fe1 O6 2.120685 1_555
Fe1 O33 2.120685 1_554
Fe1 O7 2.130481 1_555
Fe1 O32 2.130481 1_554
Fe1 O0 2.219139 1_555
Fe1 O1 2.249244 1_555
Fe2 O2 1.934398 1_555
Fe2 O3 1.950479 1_555
Fe2 O7 2.341087 1_555
Fe2 O32 2.341087 1_554
Fe2 O33 2.561470 1_654
Fe2 O6 2.561470 1_655
Fe3 O19 2.167434 1_555
Fe3 O12 2.188103 1_555
Fe3 O27 2.188103 1_555
Fe3 O18 2.296405 1_455
Fe3 O24 2.301131 1_455
Fe3 O15 2.301131 1_455
Fe4 O19 1.934398 1_555
Fe4 O21 1.950479 1_555
Fe4 O25 2.341087 1_555
Fe4 O14 2.341087 1_555
Fe4 O15 2.561470 1_455
Fe4 O24 2.561470 1_455
Fe5 O24 2.120685 1_555
Fe5 O15 2.120685 1_555
Fe5 O25 2.130481 1_555
Fe5 O14 2.130481 1_555
Fe5 O18 2.219139 1_555
Fe5 O20 2.249244 1_555
O0 Si1 1.618215 1_545
O1 Si0 1.612130 1_455
O2 Si1 1.628872 1_545
O3 Si0 1.628128 1_555
O4 Si3 1.669059 1_555
O4 Si1 1.669454 1_555
O5 Si2 1.670803 1_655
O5 Si0 1.672389 1_555
O6 Si5 1.618292 1_455
O7 Si4 1.625932 1_555
O8 Si3 1.610061 1_555
O9 Si2 1.622461 1_655
O10 Si2 1.632891 1_555
O10 Si3 1.637153 1_555
O11 Si5 1.632891 1_555
O11 Si4 1.637153 1_555
O12 Si5 1.622461 1_455
O13 Si4 1.610061 1_555
O14 Si3 1.625932 1_555
O15 Si2 1.618292 1_655
O16 Si5 1.670803 1_455
O16 Si7 1.672389 1_555
O17 Si4 1.669059 1_555
O17 Si6 1.669454 1_555
O18 Si6 1.618215 1_555
O19 Si6 1.628872 1_555
O20 Si7 1.612130 1_665
O21 Si7 1.628128 1_565
O22 Si9 1.669059 1_555
O22 Si6 1.669454 1_555
O23 Si8 1.670803 1_455
O23 Si7 1.672389 1_555
O24 Si11 1.618292 1_655
O25 Si10 1.625932 1_555
O26 Si9 1.610061 1_555
O27 Si8 1.622461 1_455
O28 Si8 1.632891 1_555
O28 Si9 1.637153 1_555
O29 Si11 1.632891 1_555
O29 Si10 1.637153 1_555
O30 Si11 1.622461 1_655
O31 Si10 1.610061 1_555
O32 Si9 1.625932 1_555
O33 Si8 1.618292 1_455
O34 Si11 1.670803 1_655
O34 Si0 1.672389 1_556
O35 Si10 1.669059 1_555
O35 Si1 1.669454 1_556
