# generated using pymatgen
data_LiVF4
_symmetry_space_group_name_H-M   'P 1'
_cell_length_a   7.85421700
_cell_length_b   8.61115300
_cell_length_c   10.25190500
_cell_angle_alpha   90.00000000
_cell_angle_beta   90.00000000
_cell_angle_gamma   90.00000000
_symmetry_Int_Tables_number   1
_chemical_formula_structural   LiVF4
_chemical_formula_sum   'Li8 V8 F32'
_cell_volume   693.37595140
_cell_formula_units_Z   8
loop_
 _symmetry_equiv_pos_site_id
 _symmetry_equiv_pos_as_xyz
  1  'x, y, z'
loop_
 _atom_site_type_symbol
 _atom_site_label
 _atom_site_symmetry_multiplicity
 _atom_site_fract_x
 _atom_site_fract_y
 _atom_site_fract_z
 _atom_site_occupancy
  Li  Li0  1  0.70878900  0.25000000  0.55196700  1
  Li  Li1  1  0.74386200  0.25000000  0.95260100  1
  Li  Li2  1  0.75613800  0.75000000  0.45260100  1
  Li  Li3  1  0.79121100  0.75000000  0.05196700  1
  Li  Li4  1  0.20878900  0.25000000  0.94803300  1
  Li  Li5  1  0.24386200  0.25000000  0.54739900  1
  Li  Li6  1  0.25613800  0.75000000  0.04739900  1
  Li  Li7  1  0.29121100  0.75000000  0.44803300  1
  V  V0  1  0.63917700  0.06059100  0.24887300  1
  V  V1  1  0.63917700  0.43940900  0.24887300  1
  V  V2  1  0.86082300  0.56059100  0.74887300  1
  V  V3  1  0.86082300  0.93940900  0.74887300  1
  V  V4  1  0.13917700  0.06059100  0.25112700  1
  V  V5  1  0.13917700  0.43940900  0.25112700  1
  V  V6  1  0.36082300  0.56059100  0.75112700  1
  V  V7  1  0.36082300  0.93940900  0.75112700  1
  F  F0  1  0.60962800  0.56716300  0.76349800  1
  F  F1  1  0.60962800  0.93283700  0.76349800  1
  F  F2  1  0.63355600  0.25000000  0.37357800  1
  F  F3  1  0.62714200  0.58710100  0.38779200  1
  F  F4  1  0.62714200  0.91289900  0.38779200  1
  F  F5  1  0.64808800  0.25000000  0.12280100  1
  F  F6  1  0.66000100  0.58367400  0.11065700  1
  F  F7  1  0.66000100  0.91632600  0.11065700  1
  F  F8  1  0.83999900  0.08367400  0.61065700  1
  F  F9  1  0.83999900  0.41632600  0.61065700  1
  F  F10  1  0.85191200  0.75000000  0.62280100  1
  F  F11  1  0.87285800  0.08710100  0.88779200  1
  F  F12  1  0.87285800  0.41289900  0.88779200  1
  F  F13  1  0.86644400  0.75000000  0.87357800  1
  F  F14  1  0.89037200  0.06716300  0.26349800  1
  F  F15  1  0.89037200  0.43283700  0.26349800  1
  F  F16  1  0.10962800  0.56716300  0.73650200  1
  F  F17  1  0.10962800  0.93283700  0.73650200  1
  F  F18  1  0.13355600  0.25000000  0.12642200  1
  F  F19  1  0.12714200  0.58710100  0.11220800  1
  F  F20  1  0.12714200  0.91289900  0.11220800  1
  F  F21  1  0.14808800  0.25000000  0.37719900  1
  F  F22  1  0.16000100  0.58367400  0.38934300  1
  F  F23  1  0.16000100  0.91632600  0.38934300  1
  F  F24  1  0.33999900  0.08367400  0.88934300  1
  F  F25  1  0.33999900  0.41632600  0.88934300  1
  F  F26  1  0.35191200  0.75000000  0.87719900  1
  F  F27  1  0.37285800  0.08710100  0.61220800  1
  F  F28  1  0.37285800  0.41289900  0.61220800  1
  F  F29  1  0.36644400  0.75000000  0.62642200  1
  F  F30  1  0.39037200  0.06716300  0.23650200  1
  F  F31  1  0.39037200  0.43283700  0.23650200  1
loop_
_geom_bond_atom_site_label_1
_geom_bond_atom_site_label_2
_geom_bond_distance
_geom_bond_site_symmetry_2
F0 V6 1.959097 1_555
F0 V2 1.979438 1_555
F1 V7 1.959097 1_555
F1 V3 1.979438 1_555
F2 Li0 1.921918 1_555
F2 V1 2.072843 1_555
F2 V0 2.072843 1_555
F3 Li2 1.853550 1_555
F3 V1 1.911729 1_555
F4 Li2 1.853550 1_555
F4 V0 1.911729 1_565
F5 Li1 1.900115 1_554
F5 V1 2.082224 1_555
F5 V0 2.082224 1_555
F6 Li3 1.864249 1_555
F6 V1 1.891522 1_555
F7 Li3 1.864249 1_555
F7 V0 1.891522 1_565
F8 Li0 1.864249 1_555
F8 V3 1.891522 1_545
F9 Li0 1.864249 1_555
F9 V2 1.891522 1_555
F10 Li2 1.900115 1_555
F10 V3 2.082224 1_555
F10 V2 2.082224 1_555
F11 Li1 1.853550 1_555
F11 V3 1.911729 1_545
F12 Li1 1.853550 1_555
F12 V2 1.911729 1_555
F13 Li3 1.921918 1_556
F13 V2 2.072843 1_555
F13 V3 2.072843 1_555
F14 V4 1.959097 1_655
F14 V0 1.979438 1_555
F15 V5 1.959097 1_655
F15 V1 1.979438 1_555
F16 V2 1.959097 1_455
F16 V6 1.979438 1_555
F17 V3 1.959097 1_455
F17 V7 1.979438 1_555
F18 Li4 1.921918 1_554
F18 V4 2.072843 1_555
F18 V5 2.072843 1_555
F19 Li6 1.853550 1_555
F19 V5 1.911729 1_555
F20 Li6 1.853550 1_555
F20 V4 1.911729 1_565
F21 Li5 1.900115 1_555
F21 V4 2.082224 1_555
F21 V5 2.082224 1_555
F22 Li7 1.864249 1_555
F22 V5 1.891522 1_555
F23 Li7 1.864249 1_555
F23 V4 1.891522 1_565
F24 Li4 1.864249 1_555
F24 V7 1.891522 1_545
F25 Li4 1.864249 1_555
F25 V6 1.891522 1_555
F26 Li6 1.900115 1_556
F26 V6 2.082224 1_555
F26 V7 2.082224 1_555
F27 Li5 1.853550 1_555
F27 V7 1.911729 1_545
F28 Li5 1.853550 1_555
F28 V6 1.911729 1_555
F29 Li7 1.921918 1_555
F29 V6 2.072843 1_555
F29 V7 2.072843 1_555
F30 V0 1.959097 1_555
F30 V4 1.979438 1_555
F31 V1 1.959097 1_555
F31 V5 1.979438 1_555
