# generated using pymatgen
data_KTi16O32
_symmetry_space_group_name_H-M   'P 1'
_cell_length_a   8.53661700
_cell_length_b   8.53623361
_cell_length_c   10.41363399
_cell_angle_alpha   102.64098898
_cell_angle_beta   112.04457826
_cell_angle_gamma   105.95426344
_symmetry_Int_Tables_number   1
_chemical_formula_structural   KTi16O32
_chemical_formula_sum   'K1 Ti16 O32'
_cell_volume   630.58789155
_cell_formula_units_Z   1
loop_
 _symmetry_equiv_pos_site_id
 _symmetry_equiv_pos_as_xyz
  1  'x, y, z'
loop_
 _atom_site_type_symbol
 _atom_site_label
 _atom_site_symmetry_multiplicity
 _atom_site_fract_x
 _atom_site_fract_y
 _atom_site_fract_z
 _atom_site_occupancy
  K  K0  1  0.00000000  0.50000000  0.50000000  1
  Ti  Ti0  1  0.47610900  0.81501400  0.99689100  1
  Ti  Ti1  1  0.47557100  0.06483300  0.24618000  1
  Ti  Ti2  1  0.18157100  0.36565800  0.88974800  1
  Ti  Ti3  1  0.81766600  0.88443300  0.35952300  1
  Ti  Ti4  1  0.81842900  0.63434200  0.11025200  1
  Ti  Ti5  1  0.81653700  0.13050000  0.61174500  1
  Ti  Ti6  1  0.52389100  0.18498600  0.00310900  1
  Ti  Ti7  1  0.51850900  0.43449800  0.25046900  1
  Ti  Ti8  1  0.47609000  0.31452700  0.49663500  1
  Ti  Ti9  1  0.48149100  0.56550200  0.74953100  1
  Ti  Ti10  1  0.18233400  0.11556700  0.64047700  1
  Ti  Ti11  1  0.18155700  0.61598200  0.13889100  1
  Ti  Ti12  1  0.18346300  0.86950000  0.38825500  1
  Ti  Ti13  1  0.81844300  0.38401800  0.86110900  1
  Ti  Ti14  1  0.52391000  0.68547300  0.50336500  1
  Ti  Ti15  1  0.52442900  0.93516700  0.75382000  1
  O  O0  1  0.36564400  0.98000000  0.03175300  1
  O  O1  1  0.29549300  0.62587100  0.00195900  1
  O  O2  1  0.62396600  0.67469000  0.97005400  1
  O  O3  1  0.62585300  0.17585900  0.47034900  1
  O  O4  1  0.62380900  0.92407400  0.21982400  1
  O  O5  1  0.37603400  0.32531000  0.02994600  1
  O  O6  1  0.94835400  0.87767700  0.24266200  1
  O  O7  1  0.94836000  0.62742400  0.99292900  1
  O  O8  1  0.94859700  0.12937500  0.49226700  1
  O  O9  1  0.94848200  0.37819500  0.74081600  1
  O  O10  1  0.70575100  0.62358300  0.24959800  1
  O  O11  1  0.70476100  0.87400300  0.49828800  1
  O  O12  1  0.70450700  0.37412900  0.99804100  1
  O  O13  1  0.36517500  0.22983500  0.28150500  1
  O  O14  1  0.36305600  0.47955600  0.53091200  1
  O  O15  1  0.36269600  0.72794200  0.77950500  1
  O  O16  1  0.63730400  0.27205800  0.22049500  1
  O  O17  1  0.63694400  0.52044400  0.46908800  1
  O  O18  1  0.63435600  0.02000000  0.96824700  1
  O  O19  1  0.29523900  0.12599700  0.50171200  1
  O  O20  1  0.29424900  0.37641700  0.75040200  1
  O  O21  1  0.29526000  0.87556300  0.25163100  1
  O  O22  1  0.05140300  0.87062500  0.50773300  1
  O  O23  1  0.05164000  0.37257600  0.00707100  1
  O  O24  1  0.05151800  0.62180500  0.25918400  1
  O  O25  1  0.05164600  0.12232300  0.75733800  1
  O  O26  1  0.62440700  0.42457600  0.71974000  1
  O  O27  1  0.37559300  0.57542400  0.28026000  1
  O  O28  1  0.37619100  0.07592600  0.78017600  1
  O  O29  1  0.37414700  0.82414100  0.52965100  1
  O  O30  1  0.70474000  0.12443700  0.74836900  1
  O  O31  1  0.63482500  0.77016500  0.71849500  1
loop_
_geom_bond_atom_site_label_1
_geom_bond_atom_site_label_2
_geom_bond_distance
_geom_bond_site_symmetry_2
K0 O9 3.046501 1_455
K0 O24 3.046501 1_555
K0 O15 3.047754 1_555
K0 O16 3.047754 1_455
K0 O22 3.050750 1_555
K0 O8 3.050750 1_455
K0 O14 3.051650 1_555
K0 O17 3.051650 1_455
O0 Ti1 1.933100 1_565
O0 Ti0 1.941086 1_554
O0 Ti6 2.051139 1_565
O1 Ti0 1.927891 1_554
O1 Ti11 2.008767 1_555
O1 Ti2 2.017054 1_554
O2 Ti4 1.928993 1_556
O2 Ti9 1.991236 1_555
O2 Ti0 2.013826 1_555
O3 Ti5 1.940246 1_555
O3 Ti8 2.015783 1_555
O3 Ti1 2.026996 1_555
O4 Ti3 1.919799 1_555
O4 Ti0 2.014324 1_554
O4 Ti1 2.018089 1_565
O5 Ti2 1.928993 1_554
O5 Ti7 1.991236 1_555
O5 Ti6 2.013826 1_555
O6 Ti3 1.937194 1_555
O6 Ti4 1.943695 1_555
O6 Ti12 2.042276 1_655
O7 Ti4 1.936005 1_556
O7 Ti13 1.942557 1_555
O7 Ti11 2.045322 1_656
O8 Ti3 1.955083 1_545
O8 Ti5 1.967907 1_555
O8 Ti10 2.067488 1_655
O9 Ti13 1.962383 1_555
O9 Ti5 1.963759 1_555
O9 Ti2 2.061374 1_655
O10 Ti7 1.938873 1_555
O10 Ti3 2.018708 1_555
O10 Ti4 2.024075 1_555
O11 Ti14 1.925847 1_555
O11 Ti5 1.993330 1_565
O11 Ti3 2.019823 1_555
O12 Ti6 1.927891 1_556
O12 Ti13 2.008767 1_555
O12 Ti4 2.017054 1_556
O13 Ti8 1.939219 1_555
O13 Ti1 1.941774 1_555
O13 Ti7 2.043906 1_555
O14 Ti8 1.956717 1_555
O14 Ti9 1.968961 1_555
O14 Ti14 2.060833 1_555
O15 Ti0 1.958883 1_555
O15 Ti9 1.967178 1_555
O15 Ti15 2.061191 1_555
O16 Ti6 1.958883 1_555
O16 Ti7 1.967178 1_555
O16 Ti1 2.061191 1_555
O17 Ti14 1.956717 1_555
O17 Ti7 1.968961 1_555
O17 Ti8 2.060833 1_555
O18 Ti15 1.933100 1_545
O18 Ti6 1.941086 1_556
O18 Ti0 2.051139 1_545
O19 Ti8 1.925847 1_555
O19 Ti12 1.993330 1_545
O19 Ti10 2.019823 1_555
O20 Ti9 1.938873 1_555
O20 Ti10 2.018708 1_555
O20 Ti2 2.024075 1_555
O21 Ti1 1.929099 1_565
O21 Ti12 1.990492 1_555
O21 Ti11 2.013466 1_555
O22 Ti10 1.955083 1_565
O22 Ti12 1.967907 1_555
O22 Ti3 2.067488 1_455
O23 Ti2 1.936005 1_554
O23 Ti11 1.942557 1_555
O23 Ti13 2.045322 1_454
O24 Ti11 1.962383 1_555
O24 Ti12 1.963759 1_555
O24 Ti4 2.061374 1_455
O25 Ti10 1.937194 1_555
O25 Ti2 1.943695 1_555
O25 Ti5 2.042276 1_455
O26 Ti13 1.933569 1_555
O26 Ti9 1.989835 1_555
O26 Ti8 2.016471 1_555
O27 Ti11 1.933569 1_555
O27 Ti7 1.989835 1_555
O27 Ti14 2.016471 1_555
O28 Ti10 1.919799 1_555
O28 Ti6 2.014324 1_556
O28 Ti15 2.018089 1_545
O29 Ti12 1.940246 1_555
O29 Ti14 2.015783 1_555
O29 Ti15 2.026996 1_555
O30 Ti15 1.929099 1_545
O30 Ti5 1.990492 1_555
O30 Ti13 2.013466 1_555
O31 Ti14 1.939219 1_555
O31 Ti15 1.941774 1_555
O31 Ti9 2.043906 1_555
