# generated using pymatgen
data_Li4Mn2Si4O13
_symmetry_space_group_name_H-M   'P 1'
_cell_length_a   4.94372900
_cell_length_b   14.17074500
_cell_length_c   14.25281600
_cell_angle_alpha   90.00000000
_cell_angle_beta   90.00000000
_cell_angle_gamma   90.00000000
_symmetry_Int_Tables_number   1
_chemical_formula_structural   Li4Mn2Si4O13
_chemical_formula_sum   'Li16 Mn8 Si16 O52'
_cell_volume   998.49988147
_cell_formula_units_Z   4
loop_
 _symmetry_equiv_pos_site_id
 _symmetry_equiv_pos_as_xyz
  1  'x, y, z'
loop_
 _atom_site_type_symbol
 _atom_site_label
 _atom_site_symmetry_multiplicity
 _atom_site_fract_x
 _atom_site_fract_y
 _atom_site_fract_z
 _atom_site_occupancy
  Li  Li0  1  0.18200900  0.03934600  0.22490000  1
  Li  Li1  1  0.68295700  0.11354800  0.92015000  1
  Li  Li2  1  0.66308000  0.12775800  0.11178200  1
  Li  Li3  1  0.24994400  0.20999800  0.83594600  1
  Li  Li4  1  0.74994400  0.29000200  0.33594600  1
  Li  Li5  1  0.16308000  0.37224200  0.61178200  1
  Li  Li6  1  0.18295700  0.38645200  0.42015000  1
  Li  Li7  1  0.68200900  0.46065400  0.72490000  1
  Li  Li8  1  0.31799100  0.53934600  0.22490000  1
  Li  Li9  1  0.81704300  0.61354800  0.92015000  1
  Li  Li10  1  0.83692000  0.62775800  0.11178200  1
  Li  Li11  1  0.25005600  0.70999800  0.83594600  1
  Li  Li12  1  0.75005600  0.79000200  0.33594600  1
  Li  Li13  1  0.33692000  0.87224200  0.61178200  1
  Li  Li14  1  0.31704300  0.88645200  0.42015000  1
  Li  Li15  1  0.81799100  0.96065400  0.72490000  1
  Mn  Mn0  1  0.35487100  0.07698900  0.62712700  1
  Mn  Mn1  1  0.18559300  0.17688500  0.42098500  1
  Mn  Mn2  1  0.68559300  0.32311500  0.92098500  1
  Mn  Mn3  1  0.85487100  0.42301100  0.12712700  1
  Mn  Mn4  1  0.14512900  0.57698900  0.62712700  1
  Mn  Mn5  1  0.31440700  0.67688500  0.42098500  1
  Mn  Mn6  1  0.81440700  0.82311500  0.92098500  1
  Mn  Mn7  1  0.64512900  0.92301100  0.12712700  1
  Si  Si0  1  0.15547600  0.01761500  0.00630100  1
  Si  Si1  1  0.69480600  0.06818400  0.32146600  1
  Si  Si2  1  0.85263000  0.18388200  0.72333500  1
  Si  Si3  1  0.17825000  0.22411500  0.04090900  1
  Si  Si4  1  0.67825000  0.27588500  0.54090900  1
  Si  Si5  1  0.35263000  0.31611800  0.22333500  1
  Si  Si6  1  0.19480600  0.43181600  0.82146600  1
  Si  Si7  1  0.65547600  0.48238500  0.50630100  1
  Si  Si8  1  0.34452400  0.51761500  0.00630100  1
  Si  Si9  1  0.80519400  0.56818400  0.32146600  1
  Si  Si10  1  0.64737000  0.68388200  0.72333500  1
  Si  Si11  1  0.32175000  0.72411500  0.04090900  1
  Si  Si12  1  0.82175000  0.77588500  0.54090900  1
  Si  Si13  1  0.14737000  0.81611800  0.22333500  1
  Si  Si14  1  0.30519400  0.93181600  0.82146600  1
  Si  Si15  1  0.84452400  0.98238500  0.50630100  1
  O  O0  1  0.44259400  0.02342700  0.06105600  1
  O  O1  1  0.77949300  0.04330300  0.21397600  1
  O  O2  1  0.21199800  0.02149900  0.89187500  1
  O  O3  1  0.05480100  0.06578800  0.53224700  1
  O  O4  1  0.37024800  0.08307200  0.33767400  1
  O  O5  1  0.67605600  0.08943900  0.70254700  1
  O  O6  1  0.00139900  0.12240700  0.02683700  1
  O  O7  1  0.86545100  0.16219300  0.35045900  1
  O  O8  1  0.17724800  0.16976200  0.70334300  1
  O  O9  1  0.47672200  0.19019100  0.51441900  1
  O  O10  1  0.25522300  0.22620300  0.15412000  1
  O  O11  1  0.83324400  0.20839700  0.83479900  1
  O  O12  1  0.45726500  0.21301600  0.98060600  1
  O  O13  1  0.95726500  0.28698400  0.48060600  1
  O  O14  1  0.33324400  0.29160300  0.33479900  1
  O  O15  1  0.75522300  0.27379700  0.65412000  1
  O  O16  1  0.97672200  0.30980900  0.01441900  1
  O  O17  1  0.67724800  0.33023800  0.20334300  1
  O  O18  1  0.36545100  0.33780700  0.85045900  1
  O  O19  1  0.50139900  0.37759300  0.52683700  1
  O  O20  1  0.17605600  0.41056100  0.20254700  1
  O  O21  1  0.87024800  0.41692800  0.83767400  1
  O  O22  1  0.55480100  0.43421200  0.03224700  1
  O  O23  1  0.71199800  0.47850100  0.39187500  1
  O  O24  1  0.27949300  0.45669700  0.71397600  1
  O  O25  1  0.94259400  0.47657300  0.56105600  1
  O  O26  1  0.05740600  0.52342700  0.06105600  1
  O  O27  1  0.72050700  0.54330300  0.21397600  1
  O  O28  1  0.28800200  0.52149900  0.89187500  1
  O  O29  1  0.44519900  0.56578800  0.53224700  1
  O  O30  1  0.12975200  0.58307200  0.33767400  1
  O  O31  1  0.82394400  0.58943900  0.70254700  1
  O  O32  1  0.49860100  0.62240700  0.02683700  1
  O  O33  1  0.63454900  0.66219300  0.35045900  1
  O  O34  1  0.32275200  0.66976200  0.70334300  1
  O  O35  1  0.02327800  0.69019100  0.51441900  1
  O  O36  1  0.24477700  0.72620300  0.15412000  1
  O  O37  1  0.66675600  0.70839700  0.83479900  1
  O  O38  1  0.04273500  0.71301600  0.98060600  1
  O  O39  1  0.54273500  0.78698400  0.48060600  1
  O  O40  1  0.16675600  0.79160300  0.33479900  1
  O  O41  1  0.74477700  0.77379700  0.65412000  1
  O  O42  1  0.52327800  0.80980900  0.01441900  1
  O  O43  1  0.82275200  0.83023800  0.20334300  1
  O  O44  1  0.13454900  0.83780700  0.85045900  1
  O  O45  1  0.99860100  0.87759300  0.52683700  1
  O  O46  1  0.32394400  0.91056100  0.20254700  1
  O  O47  1  0.62975200  0.91692800  0.83767400  1
  O  O48  1  0.94519900  0.93421200  0.03224700  1
  O  O49  1  0.78800200  0.97850100  0.39187500  1
  O  O50  1  0.22050700  0.95669700  0.71397600  1
  O  O51  1  0.55740600  0.97657300  0.56105600  1
loop_
_geom_bond_atom_site_label_1
_geom_bond_atom_site_label_2
_geom_bond_distance
_geom_bond_site_symmetry_2
Li0 O4 1.957940 1_555
Li0 O46 1.981014 1_545
Li0 O1 1.996799 1_455
Li1 O11 1.959189 1_555
Li1 O12 1.993535 1_555
Li1 O6 2.192338 1_656
Li2 O1 1.971058 1_555
Li2 O0 1.973999 1_555
Li2 O6 2.066157 1_655
Li2 O12 2.447544 1_554
Li2 O10 2.525049 1_555
Li3 O18 1.910269 1_555
Li3 O8 2.006547 1_555
Li3 O11 2.060242 1_455
Li3 O12 2.302911 1_555
Li4 O7 1.910269 1_555
Li4 O17 2.006547 1_555
Li4 O14 2.060242 1_555
Li4 O13 2.302911 1_555
Li5 O24 1.971058 1_555
Li5 O25 1.973999 1_455
Li5 O19 2.066157 1_555
Li5 O13 2.447544 1_455
Li5 O15 2.525049 1_455
Li6 O14 1.959189 1_555
Li6 O13 1.993535 1_455
Li6 O19 2.192338 1_555
Li7 O21 1.957940 1_555
Li7 O31 1.981014 1_555
Li7 O24 1.996799 1_555
Li8 O30 1.957940 1_555
Li8 O20 1.981014 1_555
Li8 O27 1.996799 1_555
Li9 O37 1.959189 1_555
Li9 O38 1.993535 1_655
Li9 O32 2.192338 1_556
Li10 O27 1.971058 1_555
Li10 O26 1.973999 1_655
Li10 O32 2.066157 1_555
Li10 O38 2.447544 1_654
Li10 O36 2.525049 1_655
Li11 O44 1.910269 1_555
Li11 O34 2.006547 1_555
Li11 O37 2.060242 1_555
Li11 O38 2.302911 1_555
Li12 O33 1.910269 1_555
Li12 O43 2.006547 1_555
Li12 O40 2.060242 1_655
Li12 O39 2.302911 1_555
Li13 O50 1.971058 1_555
Li13 O51 1.973999 1_555
Li13 O45 2.066157 1_455
Li13 O39 2.447544 1_555
Li13 O41 2.525049 1_555
Li14 O40 1.959189 1_555
Li14 O39 1.993535 1_555
Li14 O45 2.192338 1_455
Li15 O47 1.957940 1_555
Li15 O5 1.981014 1_565
Li15 O50 1.996799 1_655
Mn0 O8 1.918193 1_555
Mn0 O5 1.925594 1_555
Mn0 O51 1.978432 1_545
Mn0 O3 2.013603 1_555
Mn0 O50 2.208902 1_545
Mn0 O9 2.348775 1_555
Mn1 O7 1.886448 1_455
Mn1 O9 1.969886 1_555
Mn1 O4 2.002653 1_555
Mn1 O13 2.104864 1_455
Mn1 O14 2.164365 1_555
Mn1 O3 2.326231 1_555
Mn2 O18 1.886448 1_555
Mn2 O16 1.969886 1_556
Mn2 O21 2.002653 1_555
Mn2 O12 2.104864 1_555
Mn2 O11 2.164365 1_555
Mn2 O22 2.326231 1_556
Mn3 O17 1.918193 1_555
Mn3 O20 1.925594 1_655
Mn3 O26 1.978432 1_655
Mn3 O22 2.013603 1_555
Mn3 O27 2.208902 1_555
Mn3 O16 2.348775 1_555
Mn4 O34 1.918193 1_555
Mn4 O31 1.925594 1_455
Mn4 O25 1.978432 1_455
Mn4 O29 2.013603 1_555
Mn4 O24 2.208902 1_555
Mn4 O35 2.348775 1_555
Mn5 O33 1.886448 1_555
Mn5 O35 1.969886 1_555
Mn5 O30 2.002653 1_555
Mn5 O39 2.104864 1_555
Mn5 O40 2.164365 1_555
Mn5 O29 2.326231 1_555
Mn6 O44 1.886448 1_655
Mn6 O42 1.969886 1_556
Mn6 O47 2.002653 1_555
Mn6 O38 2.104864 1_655
Mn6 O37 2.164365 1_555
Mn6 O48 2.326231 1_556
Mn7 O43 1.918193 1_555
Mn7 O46 1.925594 1_555
Mn7 O0 1.978432 1_565
Mn7 O48 2.013603 1_555
Mn7 O1 2.208902 1_565
Mn7 O42 2.348775 1_555
O0 Si0 1.621918 1_555
O1 Si1 1.626877 1_555
O2 Si0 1.655573 1_556
O2 Si14 1.683587 1_545
O3 Si15 1.616871 1_445
O4 Si1 1.634742 1_555
O5 Si2 1.625091 1_555
O6 Si0 1.694417 1_555
O6 Si3 1.697621 1_555
O7 Si1 1.630079 1_555
O8 Si2 1.642159 1_455
O9 Si4 1.615489 1_555
O10 Si3 1.658104 1_555
O10 Si5 1.681839 1_555
O11 Si2 1.629037 1_555
O12 Si3 1.632829 1_556
O13 Si4 1.632829 1_555
O14 Si5 1.629037 1_555
O15 Si4 1.658104 1_555
O15 Si2 1.681839 1_555
O16 Si3 1.615489 1_655
O17 Si5 1.642159 1_555
O18 Si6 1.630079 1_555
O19 Si7 1.694417 1_555
O19 Si4 1.697621 1_555
O20 Si5 1.625091 1_555
O21 Si6 1.634742 1_655
O22 Si8 1.616871 1_555
O23 Si7 1.655573 1_555
O23 Si9 1.683587 1_555
O24 Si6 1.626877 1_555
O25 Si7 1.621918 1_555
O26 Si8 1.621918 1_555
O27 Si9 1.626877 1_555
O28 Si8 1.655573 1_556
O28 Si6 1.683587 1_555
O29 Si7 1.616871 1_555
O30 Si9 1.634742 1_455
O31 Si10 1.625091 1_555
O32 Si8 1.694417 1_555
O32 Si11 1.697621 1_555
O33 Si9 1.630079 1_555
O34 Si10 1.642159 1_555
O35 Si12 1.615489 1_455
O36 Si11 1.658104 1_555
O36 Si13 1.681839 1_555
O37 Si10 1.629037 1_555
O38 Si11 1.632829 1_556
O39 Si12 1.632829 1_555
O40 Si13 1.629037 1_555
O41 Si12 1.658104 1_555
O41 Si10 1.681839 1_555
O42 Si11 1.615489 1_555
O43 Si13 1.642159 1_655
O44 Si14 1.630079 1_555
O45 Si15 1.694417 1_555
O45 Si12 1.697621 1_555
O46 Si13 1.625091 1_555
O47 Si14 1.634742 1_555
O48 Si0 1.616871 1_665
O49 Si15 1.655573 1_555
O49 Si1 1.683587 1_565
O50 Si14 1.626877 1_555
O51 Si15 1.621918 1_555
