# generated using pymatgen
data_Li3VF6
_symmetry_space_group_name_H-M   'P 1'
_cell_length_a   9.14842877
_cell_length_b   9.14842877
_cell_length_c   9.43202723
_cell_angle_alpha   88.17808604
_cell_angle_beta   88.17808604
_cell_angle_gamma   33.90239594
_symmetry_Int_Tables_number   1
_chemical_formula_structural   Li3VF6
_chemical_formula_sum   'Li12 V4 F24'
_cell_volume   440.06907273
_cell_formula_units_Z   4
loop_
 _symmetry_equiv_pos_site_id
 _symmetry_equiv_pos_as_xyz
  1  'x, y, z'
loop_
 _atom_site_type_symbol
 _atom_site_label
 _atom_site_symmetry_multiplicity
 _atom_site_fract_x
 _atom_site_fract_y
 _atom_site_fract_z
 _atom_site_occupancy
  Li  Li0  1  0.13853500  0.70133800  0.95011500  1
  Li  Li1  1  0.70133800  0.13853500  0.45011500  1
  Li  Li2  1  0.60781200  0.03913600  0.81986700  1
  Li  Li3  1  0.17876300  0.60377300  0.60070800  1
  Li  Li4  1  0.03913600  0.60781200  0.31986700  1
  Li  Li5  1  0.60377300  0.17876300  0.10070800  1
  Li  Li6  1  0.39622700  0.82123700  0.89929200  1
  Li  Li7  1  0.96086400  0.39218800  0.68013300  1
  Li  Li8  1  0.82123700  0.39622700  0.39929200  1
  Li  Li9  1  0.39218800  0.96086400  0.18013300  1
  Li  Li10  1  0.29866200  0.86146500  0.54988500  1
  Li  Li11  1  0.86146500  0.29866200  0.04988500  1
  V  V0  1  0.50000000  0.00000000  0.50000000  1
  V  V1  1  0.00000000  0.50000000  0.00000000  1
  V  V2  1  0.79633800  0.20366200  0.75000000  1
  V  V3  1  0.20366200  0.79633800  0.25000000  1
  F  F0  1  0.74854500  0.21570300  0.96187000  1
  F  F1  1  0.99849400  0.84928200  0.76046200  1
  F  F2  1  0.50124900  0.32319000  0.71423000  1
  F  F3  1  0.21570300  0.74854500  0.46187000  1
  F  F4  1  0.84928200  0.99849400  0.26046200  1
  F  F5  1  0.32319000  0.50124900  0.21423000  1
  F  F6  1  0.32250800  0.34865400  0.96014800  1
  F  F7  1  0.34865400  0.32250800  0.46014800  1
  F  F8  1  0.84583500  0.82437900  0.51513200  1
  F  F9  1  0.82437900  0.84583500  0.01513200  1
  F  F10  1  0.89234200  0.60992500  0.80464300  1
  F  F11  1  0.39007500  0.10765800  0.69535800  1
  F  F12  1  0.60992500  0.89234200  0.30464200  1
  F  F13  1  0.10765800  0.39007500  0.19535700  1
  F  F14  1  0.17562100  0.15416500  0.98486800  1
  F  F15  1  0.15416500  0.17562100  0.48486800  1
  F  F16  1  0.65134600  0.67749200  0.53985200  1
  F  F17  1  0.67749200  0.65134600  0.03985200  1
  F  F18  1  0.67681000  0.49875100  0.78577000  1
  F  F19  1  0.15071800  0.00150600  0.73953800  1
  F  F20  1  0.78429700  0.25145500  0.53813000  1
  F  F21  1  0.49875100  0.67681000  0.28577000  1
  F  F22  1  0.00150600  0.15071800  0.23953800  1
  F  F23  1  0.25145500  0.78429700  0.03813000  1
loop_
_geom_bond_atom_site_label_1
_geom_bond_atom_site_label_2
_geom_bond_distance
_geom_bond_site_symmetry_2
F0 Li11 1.930903 1_556
F0 V2 2.018725 1_555
F0 Li5 2.046399 1_556
F1 Li0 1.945879 1_655
F1 Li3 1.985784 1_655
F1 V2 1.994762 1_565
F1 Li2 2.394744 1_565
F2 V2 1.931737 1_555
F2 Li3 1.973453 1_555
F2 Li2 2.094730 1_555
F3 Li10 1.930903 1_555
F3 V3 2.018725 1_555
F3 Li3 2.046399 1_555
F4 Li1 1.945879 1_565
F4 Li5 1.985784 1_565
F4 V3 1.994762 1_655
F4 Li4 2.394744 1_655
F5 V3 1.931737 1_555
F5 Li5 1.973453 1_555
F5 Li4 2.094730 1_555
F6 V1 1.986158 1_556
F6 Li0 2.056292 1_555
F6 Li5 2.059499 1_556
F6 Li2 2.081202 1_555
F7 V0 1.986158 1_555
F7 Li1 2.056292 1_555
F7 Li3 2.059499 1_555
F7 Li4 2.081202 1_555
F8 Li3 1.962203 1_655
F8 Li1 2.004102 1_565
F8 V0 2.046399 1_565
F8 Li4 2.157213 1_655
F9 Li5 1.962203 1_565
F9 Li0 2.004102 1_654
F9 V1 2.046399 1_655
F9 Li2 2.157213 1_564
F10 V1 1.931320 1_656
F10 Li7 1.941428 1_555
F10 Li2 2.293466 1_565
F11 V0 1.931329 1_555
F11 Li2 1.941422 1_555
F11 Li7 2.293467 1_455
F12 V0 1.931329 1_565
F12 Li9 1.941422 1_555
F12 Li4 2.293467 1_655
F13 V1 1.931320 1_555
F13 Li4 1.941428 1_555
F13 Li9 2.293466 1_545
F14 Li6 1.962203 1_545
F14 Li11 2.004102 1_456
F14 V1 2.046399 1_556
F14 Li9 2.157213 1_546
F15 Li8 1.962203 1_455
F15 Li10 2.004102 1_545
F15 V0 2.046399 1_555
F15 Li7 2.157213 1_455
F16 V0 1.986158 1_565
F16 Li10 2.056292 1_555
F16 Li8 2.059499 1_555
F16 Li7 2.081202 1_555
F17 V1 1.986158 1_655
F17 Li11 2.056292 1_555
F17 Li6 2.059499 1_554
F17 Li9 2.081202 1_555
F18 V2 1.931737 1_555
F18 Li6 1.973453 1_555
F18 Li7 2.094730 1_555
F19 Li10 1.945879 1_545
F19 Li6 1.985784 1_545
F19 V2 1.994762 1_455
F19 Li7 2.394744 1_455
F20 Li1 1.930903 1_555
F20 V2 2.018725 1_555
F20 Li8 2.046399 1_555
F21 V3 1.931737 1_555
F21 Li8 1.973453 1_555
F21 Li9 2.094730 1_555
F22 Li11 1.945879 1_455
F22 Li8 1.985784 1_455
F22 V3 1.994762 1_545
F22 Li9 2.394744 1_545
F23 Li0 1.930903 1_554
F23 V3 2.018725 1_555
F23 Li6 2.046399 1_554
