# generated using pymatgen
data_Li2Mn3(BO3)3
_symmetry_space_group_name_H-M   'P 1'
_cell_length_a   9.04742277
_cell_length_b   7.88814232
_cell_length_c   6.14158427
_cell_angle_alpha   80.53393049
_cell_angle_beta   77.29847527
_cell_angle_gamma   114.05749606
_symmetry_Int_Tables_number   1
_chemical_formula_structural   Li2Mn3(BO3)3
_chemical_formula_sum   'Li4 Mn6 B6 O18'
_cell_volume   374.22026935
_cell_formula_units_Z   2
loop_
 _symmetry_equiv_pos_site_id
 _symmetry_equiv_pos_as_xyz
  1  'x, y, z'
loop_
 _atom_site_type_symbol
 _atom_site_label
 _atom_site_symmetry_multiplicity
 _atom_site_fract_x
 _atom_site_fract_y
 _atom_site_fract_z
 _atom_site_occupancy
  Li  Li0  1  0.05361100  0.16832100  0.49535400  1
  Li  Li1  1  0.71235500  0.49085100  0.16900900  1
  Li  Li2  1  0.27589600  0.48385000  0.82451100  1
  Li  Li3  1  0.39630900  0.84475300  0.83786700  1
  Mn  Mn0  1  0.26747500  0.12250100  0.11801900  1
  Mn  Mn1  1  0.40219300  0.19269000  0.55505900  1
  Mn  Mn2  1  0.06355900  0.53342200  0.21626400  1
  Mn  Mn3  1  0.92545000  0.47765600  0.76410700  1
  Mn  Mn4  1  0.61509600  0.82127600  0.42823300  1
  Mn  Mn5  1  0.73647800  0.85942500  0.88645500  1
  B  B0  1  0.94255900  0.14192600  0.09597600  1
  B  B1  1  0.73275100  0.20430000  0.55578200  1
  B  B2  1  0.39961300  0.53010400  0.20687500  1
  B  B3  1  0.59333900  0.47296200  0.79803300  1
  B  B4  1  0.26875100  0.79733900  0.47260400  1
  B  B5  1  0.06270100  0.86152700  0.87047800  1
  O  O0  1  0.01489300  0.06794400  0.23045300  1
  O  O1  1  0.77513100  0.02048900  0.09718500  1
  O  O2  1  0.64587600  0.00754100  0.67398200  1
  O  O3  1  0.31143700  0.33850400  0.34191300  1
  O  O4  1  0.66385500  0.29852100  0.44111500  1
  O  O5  1  0.32513400  0.61452800  0.08482300  1
  O  O6  1  0.90575000  0.30728100  0.54499300  1
  O  O7  1  0.57399200  0.63682600  0.18512800  1
  O  O8  1  0.96870200  0.65961800  0.98097900  1
  O  O9  1  0.02056200  0.33871900  0.97791000  1
  O  O10  1  0.42650000  0.36010300  0.80142300  1
  O  O11  1  0.10291100  0.68164300  0.47743200  1
  O  O12  1  0.67539500  0.38878300  0.90210300  1
  O  O13  1  0.35180400  0.71870300  0.58431100  1
  O  O14  1  0.66806600  0.67448100  0.69996200  1
  O  O15  1  0.34266600  0.99249500  0.36006700  1
  O  O16  1  0.23190900  0.95531400  0.86700900  1
  O  O17  1  0.99064600  0.95980100  0.76741000  1
loop_
_geom_bond_atom_site_label_1
_geom_bond_atom_site_label_2
_geom_bond_distance
_geom_bond_site_symmetry_2
Li0 O17 1.932682 1_445
Li0 O0 1.960783 1_555
Li0 O3 2.048325 1_555
Li0 O6 2.051871 1_455
Li1 O4 1.894155 1_555
Li1 O12 1.975541 1_554
Li1 O7 2.015187 1_555
Li1 O8 2.069812 1_554
Li2 O13 1.923046 1_555
Li2 O10 1.968383 1_555
Li2 O9 2.016628 1_555
Li2 O5 2.073115 1_556
Li3 O5 1.929803 1_556
Li3 O2 1.992948 1_565
Li3 O16 1.999215 1_555
Li3 O13 2.008572 1_555
Mn0 O15 2.058241 1_545
Mn0 O0 2.071416 1_555
Mn0 O10 2.176250 1_554
Mn0 O16 2.181781 1_544
Mn0 O3 2.326106 1_555
Mn1 O4 2.063755 1_555
Mn1 O15 2.104812 1_545
Mn1 O3 2.111451 1_555
Mn1 O10 2.156023 1_555
Mn1 O16 2.172616 1_545
Mn2 O5 2.101726 1_555
Mn2 O8 2.141089 1_454
Mn2 O11 2.143624 1_555
Mn2 O6 2.183556 1_455
Mn2 O9 2.270659 1_554
Mn3 O11 1.996387 1_655
Mn3 O12 1.999079 1_555
Mn3 O6 2.038120 1_555
Mn3 O8 2.094635 1_555
Mn3 O9 2.111456 1_655
Mn4 O13 2.101745 1_555
Mn4 O1 2.121097 1_565
Mn4 O14 2.126984 1_555
Mn4 O7 2.236512 1_555
Mn4 O2 2.257200 1_565
Mn5 O1 1.946558 1_566
Mn5 O14 1.987060 1_555
Mn5 O17 2.008793 1_555
Mn5 O7 2.063793 1_556
Mn5 O2 2.118854 1_565
B0 O0 1.357016 1_655
B0 O9 1.394672 1_654
B0 O1 1.421942 1_555
B1 O4 1.354794 1_555
B1 O2 1.391961 1_555
B1 O6 1.419214 1_555
B2 O5 1.372307 1_555
B2 O3 1.386439 1_555
B2 O7 1.415313 1_555
B3 O12 1.368051 1_555
B3 O10 1.398546 1_555
B3 O14 1.405885 1_555
B4 O13 1.373606 1_555
B4 O15 1.379189 1_555
B4 O11 1.392894 1_555
B5 O17 1.363341 1_455
B5 O16 1.395885 1_555
B5 O8 1.416622 1_455
