# generated using pymatgen
data_Fe2Cu(PO4)3
_symmetry_space_group_name_H-M   'P 1'
_cell_length_a   8.50668289
_cell_length_b   8.50668370
_cell_length_c   8.50668298
_cell_angle_alpha   60.86941978
_cell_angle_beta   60.86941619
_cell_angle_gamma   60.86941674
_symmetry_Int_Tables_number   1
_chemical_formula_structural   Fe2Cu(PO4)3
_chemical_formula_sum   'Fe4 Cu2 P6 O24'
_cell_volume   443.80881949
_cell_formula_units_Z   2
loop_
 _symmetry_equiv_pos_site_id
 _symmetry_equiv_pos_as_xyz
  1  'x, y, z'
loop_
 _atom_site_type_symbol
 _atom_site_label
 _atom_site_symmetry_multiplicity
 _atom_site_fract_x
 _atom_site_fract_y
 _atom_site_fract_z
 _atom_site_occupancy
  Fe  Fe0  1  0.14433900  0.14433900  0.14433900  1
  Fe  Fe1  1  0.35566100  0.35566100  0.35566100  1
  Fe  Fe2  1  0.64433900  0.64433900  0.64433900  1
  Fe  Fe3  1  0.85566100  0.85566100  0.85566100  1
  Cu  Cu0  1  0.00000000  0.00000000  0.00000000  1
  Cu  Cu1  1  0.50000000  0.50000000  0.50000000  1
  P  P0  1  0.04594400  0.75000000  0.45405600  1
  P  P1  1  0.45405600  0.04594400  0.75000000  1
  P  P2  1  0.75000000  0.45405600  0.04594400  1
  P  P3  1  0.25000000  0.54594400  0.95405600  1
  P  P4  1  0.54594400  0.95405600  0.25000000  1
  P  P5  1  0.95405600  0.25000000  0.54594400  1
  O  O0  1  0.10918400  0.31964100  0.50438600  1
  O  O1  1  0.31964100  0.50438600  0.10918400  1
  O  O2  1  0.05986600  0.91039800  0.25492900  1
  O  O3  1  0.50438600  0.10918400  0.31964100  1
  O  O4  1  0.00438600  0.81964100  0.60918300  1
  O  O5  1  0.24507100  0.58960200  0.44013400  1
  O  O6  1  0.25492900  0.05986600  0.91039800  1
  O  O7  1  0.44013400  0.24507100  0.58960200  1
  O  O8  1  0.18035900  0.39081700  0.99561400  1
  O  O9  1  0.58960200  0.44013400  0.24507100  1
  O  O10  1  0.08960200  0.74507100  0.94013400  1
  O  O11  1  0.39081700  0.99561400  0.18035900  1
  O  O12  1  0.60918300  0.00438600  0.81964100  1
  O  O13  1  0.91039800  0.25492900  0.05986600  1
  O  O14  1  0.41039800  0.55986600  0.75492900  1
  O  O15  1  0.81964100  0.60918300  0.00438600  1
  O  O16  1  0.55986600  0.75492900  0.41039800  1
  O  O17  1  0.74507100  0.94013400  0.08960200  1
  O  O18  1  0.75492900  0.41039800  0.55986600  1
  O  O19  1  0.99561400  0.18035900  0.39081700  1
  O  O20  1  0.49561400  0.89081700  0.68035900  1
  O  O21  1  0.94013400  0.08960200  0.74507100  1
  O  O22  1  0.68035900  0.49561400  0.89081700  1
  O  O23  1  0.89081700  0.68035900  0.49561400  1
loop_
_geom_bond_atom_site_label_1
_geom_bond_atom_site_label_2
_geom_bond_distance
_geom_bond_site_symmetry_2
Fe0 O19 1.938073 1_455
Fe0 O11 1.938073 1_545
Fe0 O8 1.938074 1_554
Fe0 O13 2.067148 1_455
Fe0 O6 2.067148 1_554
Fe0 O2 2.067149 1_545
Fe1 O0 1.938066 1_555
Fe1 O1 1.938066 1_555
Fe1 O3 1.938066 1_555
Fe1 O9 2.067148 1_555
Fe1 O7 2.067148 1_555
Fe1 O5 2.067148 1_555
Fe2 O23 1.938073 1_555
Fe2 O22 1.938073 1_555
Fe2 O20 1.938073 1_555
Fe2 O14 2.067148 1_555
Fe2 O16 2.067148 1_555
Fe2 O18 2.067148 1_555
Fe3 O4 1.938073 1_655
Fe3 O12 1.938073 1_565
Fe3 O15 1.938074 1_556
Fe3 O10 2.067148 1_655
Fe3 O17 2.067148 1_556
Fe3 O21 2.067149 1_565
Cu0 O17 2.152010 1_445
Cu0 O6 2.152010 1_554
Cu0 O21 2.152010 1_454
Cu0 O2 2.152010 1_545
Cu0 O10 2.152010 1_544
Cu0 O13 2.152010 1_455
Cu1 O5 2.152010 1_555
Cu1 O18 2.152010 1_555
Cu1 O9 2.152010 1_555
Cu1 O14 2.152010 1_555
Cu1 O16 2.152011 1_555
Cu1 O7 2.152011 1_555
O0 P5 1.523275 1_455
O1 P3 1.523275 1_554
O2 P0 1.567435 1_555
O3 P4 1.523275 1_545
O4 P0 1.523267 1_555
O5 P0 1.567435 1_555
O6 P1 1.567435 1_555
O7 P1 1.567435 1_555
O8 P3 1.523267 1_555
O9 P2 1.567435 1_555
O10 P3 1.567435 1_555
O11 P4 1.523267 1_555
O12 P1 1.523267 1_555
O13 P2 1.567435 1_555
O14 P3 1.567435 1_555
O15 P2 1.523267 1_555
O16 P4 1.567435 1_555
O17 P4 1.567435 1_555
O18 P5 1.567435 1_555
O19 P5 1.523267 1_555
O20 P1 1.523267 1_565
O21 P5 1.567435 1_555
O22 P2 1.523267 1_556
O23 P0 1.523267 1_655
