# generated using pymatgen
data_Co2HgO4
_symmetry_space_group_name_H-M   'P 1'
_cell_length_a   4.84842176
_cell_length_b   5.60716756
_cell_length_c   11.47027973
_cell_angle_alpha   90.00000000
_cell_angle_beta   90.00000000
_cell_angle_gamma   90.00000000
_symmetry_Int_Tables_number   1
_chemical_formula_structural   Co2HgO4
_chemical_formula_sum   'Co8 Hg4 O16'
_cell_volume   311.83002923
_cell_formula_units_Z   4
loop_
 _symmetry_equiv_pos_site_id
 _symmetry_equiv_pos_as_xyz
  1  'x, y, z'
loop_
 _atom_site_type_symbol
 _atom_site_label
 _atom_site_symmetry_multiplicity
 _atom_site_fract_x
 _atom_site_fract_y
 _atom_site_fract_z
 _atom_site_occupancy
  Co  Co0  1  0.50336027  0.00000000  0.75543120  1
  Co  Co1  1  0.49663973  0.50000000  0.74456880  1
  Co  Co2  1  0.50336027  0.00000000  0.24456880  1
  Co  Co3  1  0.49663973  0.50000000  0.25543120  1
  Co  Co4  1  -0.00000000  0.75000000  0.75000000  1
  Co  Co5  1  -0.00000000  0.75000000  0.25000000  1
  Co  Co6  1  -0.00000000  0.25000000  0.75000000  1
  Co  Co7  1  -0.00000000  0.25000000  0.25000000  1
  Hg  Hg0  1  0.57438416  0.50000000  0.00000000  1
  Hg  Hg1  1  0.87881999  0.50000000  0.50000000  1
  Hg  Hg2  1  0.12118001  0.00000000  0.00000000  1
  Hg  Hg3  1  0.42561584  0.00000000  0.50000000  1
  O  O0  1  0.66716660  0.74883114  0.66091687  1
  O  O1  1  0.66716660  0.74883114  0.33908313  1
  O  O2  1  0.66716660  0.25116886  0.33908313  1
  O  O3  1  0.66716660  0.25116886  0.66091687  1
  O  O4  1  0.84399835  0.00000000  0.83677551  1
  O  O5  1  0.84399835  0.00000000  0.16322449  1
  O  O6  1  0.82471225  0.50000000  0.83288118  1
  O  O7  1  0.82471225  0.50000000  0.16711882  1
  O  O8  1  0.17528775  0.00000000  0.33288118  1
  O  O9  1  0.17528775  0.00000000  0.66711882  1
  O  O10  1  0.15600165  0.50000000  0.33677551  1
  O  O11  1  0.15600165  0.50000000  0.66322449  1
  O  O12  1  0.33283340  0.75116886  0.83908313  1
  O  O13  1  0.33283340  0.75116886  0.16091687  1
  O  O14  1  0.33283340  0.24883114  0.83908313  1
  O  O15  1  0.33283340  0.24883114  0.16091687  1
loop_
_geom_bond_atom_site_label_1
_geom_bond_atom_site_label_2
_geom_bond_distance
_geom_bond_site_symmetry_2
Co0 O12 1.884390 1_545
Co0 O14 1.884390 1_555
Co0 O9 1.885794 1_555
Co0 O4 1.896894 1_555
Co0 O0 1.946659 1_545
Co0 O3 1.946659 1_555
Co1 O3 1.884390 1_555
Co1 O0 1.884390 1_555
Co1 O6 1.885794 1_555
Co1 O11 1.896894 1_555
Co1 O12 1.946659 1_555
Co1 O14 1.946659 1_555
Co2 O13 1.884390 1_545
Co2 O15 1.884390 1_555
Co2 O8 1.885794 1_555
Co2 O5 1.896894 1_555
Co2 O1 1.946659 1_545
Co2 O2 1.946659 1_555
Co3 O2 1.884390 1_555
Co3 O1 1.884390 1_555
Co3 O7 1.885794 1_555
Co3 O10 1.896894 1_555
Co3 O13 1.946659 1_555
Co3 O15 1.946659 1_555
Co4 O11 1.878245 1_555
Co4 O4 1.878245 1_465
Co4 O6 1.895012 1_455
Co4 O9 1.895012 1_565
Co4 O12 1.910031 1_555
Co4 O0 1.910031 1_455
Co5 O10 1.878245 1_555
Co5 O5 1.878245 1_465
Co5 O7 1.895012 1_455
Co5 O8 1.895012 1_565
Co5 O13 1.910031 1_555
Co5 O1 1.910031 1_455
Co6 O11 1.878245 1_555
Co6 O4 1.878245 1_455
Co6 O6 1.895012 1_455
Co6 O9 1.895012 1_555
Co6 O14 1.910031 1_555
Co6 O3 1.910031 1_455
Co7 O10 1.878245 1_555
Co7 O5 1.878245 1_455
Co7 O7 1.895012 1_455
Co7 O8 1.895012 1_555
Co7 O15 1.910031 1_555
Co7 O2 1.910031 1_455
Hg0 O7 2.268824 1_555
Hg0 O6 2.268824 1_554
Hg0 O15 2.600354 1_555
Hg0 O14 2.600354 1_554
Hg0 O12 2.600354 1_554
Hg0 O13 2.600354 1_555
Hg1 O10 2.304625 1_655
Hg1 O11 2.304625 1_655
Hg1 O3 2.531122 1_555
Hg1 O2 2.531122 1_555
Hg1 O0 2.531122 1_555
Hg1 O1 2.531122 1_555
Hg2 O4 2.304625 1_454
Hg2 O5 2.304625 1_455
Hg2 O15 2.531122 1_555
Hg2 O12 2.531122 1_544
Hg2 O14 2.531122 1_554
Hg2 O13 2.531122 1_545
Hg3 O8 2.268824 1_555
Hg3 O9 2.268824 1_555
Hg3 O1 2.600354 1_545
Hg3 O0 2.600354 1_545
Hg3 O2 2.600354 1_555
Hg3 O3 2.600354 1_555
