# generated using pymatgen
data_Li8TiS6
_symmetry_space_group_name_H-M   'P 1'
_cell_length_a   6.85220410
_cell_length_b   6.85220430
_cell_length_c   13.33450914
_cell_angle_alpha   89.99999439
_cell_angle_beta   89.99998281
_cell_angle_gamma   120.00217462
_symmetry_Int_Tables_number   1
_chemical_formula_structural   Li8TiS6
_chemical_formula_sum   'Li16 Ti2 S12'
_cell_volume   542.19903634
_cell_formula_units_Z   2
loop_
 _symmetry_equiv_pos_site_id
 _symmetry_equiv_pos_as_xyz
  1  'x, y, z'
loop_
 _atom_site_type_symbol
 _atom_site_label
 _atom_site_symmetry_multiplicity
 _atom_site_fract_x
 _atom_site_fract_y
 _atom_site_fract_z
 _atom_site_occupancy
  Li  Li0  1  0.00009766  0.68190869  0.76600771  1
  Li  Li1  1  -0.00001579  0.61983132  0.13047770  1
  Li  Li2  1  0.00001458  0.38016960  0.63047553  1
  Li  Li3  1  -0.00009818  0.31808949  0.26600732  1
  Li  Li4  1  0.33335223  0.66668471  0.40173386  1
  Li  Li5  1  0.33331584  0.66664890  0.90173554  1
  Li  Li6  1  0.31819707  0.31819718  0.76601135  1
  Li  Li7  1  0.38016682  0.38016692  0.13047153  1
  Li  Li8  1  0.61983351  0.61983365  0.63046851  1
  Li  Li9  1  0.31808937  -0.00009791  0.26600745  1
  Li  Li10  1  0.68180358  0.68180354  0.26601057  1
  Li  Li11  1  0.38016958  0.00001484  0.63047560  1
  Li  Li12  1  0.66664883  0.33331578  0.90173555  1
  Li  Li13  1  0.66668581  0.33335348  0.40173490  1
  Li  Li14  1  0.61983124  -0.00001563  0.13047752  1
  Li  Li15  1  0.68190880  0.00009753  0.76600775  1
  Ti  Ti0  1  -0.00000758  -0.00000887  0.99838446  1
  Ti  Ti1  1  0.00000848  0.00000790  0.49837930  1
  S  S0  1  -0.00000793  0.68545428  0.95022843  1
  S  S1  1  0.00000800  0.31454307  0.45022534  1
  S  S2  1  0.33331868  0.66665039  0.21642270  1
  S  S3  1  -0.00001187  -0.00001190  0.17083086  1
  S  S4  1  0.00001202  0.00001194  0.67082695  1
  S  S5  1  0.33334885  0.66668082  0.71642248  1
  S  S6  1  0.31454317  0.31454300  0.95022909  1
  S  S7  1  0.31454332  0.00000819  0.45022546  1
  S  S8  1  0.68545940  0.68545947  0.45022605  1
  S  S9  1  0.66668070  0.33334889  0.71642245  1
  S  S10  1  0.66665068  0.33331899  0.21642269  1
  S  S11  1  0.68545414  -0.00000823  0.95022837  1
loop_
_geom_bond_atom_site_label_1
_geom_bond_atom_site_label_2
_geom_bond_distance
_geom_bond_site_symmetry_2
Li0 S5 2.429146 1_555
Li0 S9 2.429862 1_455
Li0 S0 2.456617 1_555
Li0 S4 2.522548 1_565
Li1 S10 2.429034 1_455
Li1 S2 2.429096 1_555
Li1 S0 2.445231 1_554
Li1 S3 2.659894 1_565
Li2 S5 2.429048 1_555
Li2 S9 2.429100 1_455
Li2 S1 2.445248 1_555
Li2 S4 2.659900 1_555
Li3 S10 2.429149 1_455
Li3 S2 2.429863 1_555
Li3 S1 2.456581 1_555
Li3 S3 2.522510 1_555
Li4 S8 2.438325 1_555
Li4 S7 2.438394 1_565
Li4 S1 2.438410 1_555
Li4 S2 2.471033 1_555
Li5 S6 2.438327 1_555
Li5 S0 2.438387 1_555
Li5 S11 2.438400 1_565
Li5 S5 2.471059 1_555
Li6 S5 2.429416 1_555
Li6 S9 2.429416 1_555
Li6 S6 2.456581 1_555
Li6 S4 2.522742 1_555
Li7 S2 2.429069 1_555
Li7 S10 2.429071 1_555
Li7 S6 2.445145 1_554
Li7 S3 2.659987 1_555
Li8 S5 2.429090 1_555
Li8 S9 2.429090 1_555
Li8 S8 2.445147 1_555
Li8 S4 2.659983 1_665
Li9 S2 2.429153 1_545
Li9 S10 2.429865 1_555
Li9 S7 2.456581 1_555
Li9 S3 2.522510 1_555
Li10 S10 2.429416 1_555
Li10 S2 2.429417 1_555
Li10 S8 2.456551 1_555
Li10 S3 2.522706 1_665
Li11 S9 2.429046 1_555
Li11 S5 2.429101 1_545
Li11 S7 2.445247 1_555
Li11 S4 2.659898 1_555
Li12 S6 2.438325 1_555
Li12 S11 2.438388 1_555
Li12 S0 2.438402 1_655
Li12 S9 2.471059 1_555
Li13 S8 2.438317 1_555
Li13 S1 2.438386 1_655
Li13 S7 2.438413 1_555
Li13 S10 2.471047 1_555
Li14 S2 2.429038 1_545
Li14 S10 2.429097 1_555
Li14 S11 2.445230 1_554
Li14 S3 2.659896 1_655
Li15 S9 2.429148 1_555
Li15 S5 2.429862 1_545
Li15 S11 2.456615 1_555
Li15 S4 2.522548 1_655
S0 Ti0 2.248895 1_565
S1 Ti1 2.248878 1_555
S3 Ti0 2.299488 1_554
S4 Ti1 2.299505 1_555
S6 Ti0 2.248920 1_555
S7 Ti1 2.248873 1_555
S8 Ti1 2.248896 1_665
S11 Ti0 2.248908 1_655
