# generated using pymatgen
data_Li2V4P4O15
_symmetry_space_group_name_H-M   'P 1'
_cell_length_a   8.88048210
_cell_length_b   8.88048210
_cell_length_c   18.31732366
_cell_angle_alpha   83.37944380
_cell_angle_beta   83.37944380
_cell_angle_gamma   105.35397492
_symmetry_Int_Tables_number   1
_chemical_formula_structural   Li2V4P4O15
_chemical_formula_sum   'Li8 V16 P16 O60'
_cell_volume   1367.58278387
_cell_formula_units_Z   4
loop_
 _symmetry_equiv_pos_site_id
 _symmetry_equiv_pos_as_xyz
  1  'x, y, z'
loop_
 _atom_site_type_symbol
 _atom_site_label
 _atom_site_symmetry_multiplicity
 _atom_site_fract_x
 _atom_site_fract_y
 _atom_site_fract_z
 _atom_site_occupancy
  Li  Li0  1  0.53722300  0.98051000  0.25788900  1
  Li  Li1  1  0.65738700  0.55617900  0.07182900  1
  Li  Li2  1  0.44382100  0.34261300  0.42817100  1
  Li  Li3  1  0.98051000  0.53722300  0.75788900  1
  Li  Li4  1  0.01949000  0.46277700  0.24211100  1
  Li  Li5  1  0.55617900  0.65738700  0.57182900  1
  Li  Li6  1  0.34261300  0.44382100  0.92817100  1
  Li  Li7  1  0.46277700  0.01949000  0.74211100  1
  V  V0  1  0.04507500  0.14241100  0.42970000  1
  V  V1  1  0.09337000  0.72532400  0.06416100  1
  V  V2  1  0.00000000  0.50000000  0.50000000  1
  V  V3  1  0.14241100  0.04507500  0.92970000  1
  V  V4  1  0.18734000  0.81266000  0.25000000  1
  V  V5  1  0.45620400  0.54379600  0.25000000  1
  V  V6  1  0.95519000  0.04481000  0.25000000  1
  V  V7  1  0.72532400  0.09337000  0.56416100  1
  V  V8  1  0.27467600  0.90663000  0.43583900  1
  V  V9  1  0.04481000  0.95519000  0.75000000  1
  V  V10  1  0.54379600  0.45620400  0.75000000  1
  V  V11  1  0.81266000  0.18734000  0.75000000  1
  V  V12  1  0.85758900  0.95492500  0.07030000  1
  V  V13  1  0.90663000  0.27467600  0.93583900  1
  V  V14  1  0.95492500  0.85758900  0.57030000  1
  V  V15  1  0.50000000  0.00000000  0.00000000  1
  P  P0  1  0.22441400  0.09505000  0.10085500  1
  P  P1  1  0.02116800  0.31302700  0.10216100  1
  P  P2  1  0.29789500  0.15686700  0.31883500  1
  P  P3  1  0.09505000  0.22441400  0.60085500  1
  P  P4  1  0.31302700  0.02116800  0.60216100  1
  P  P5  1  0.23280000  0.53644000  0.37950500  1
  P  P6  1  0.15686700  0.29789500  0.81883500  1
  P  P7  1  0.46356000  0.76720000  0.12049500  1
  P  P8  1  0.53644000  0.23280000  0.87950500  1
  P  P9  1  0.84313300  0.70210500  0.18116500  1
  P  P10  1  0.76720000  0.46356000  0.62049500  1
  P  P11  1  0.68697300  0.97883200  0.39783900  1
  P  P12  1  0.90495000  0.77558600  0.39914500  1
  P  P13  1  0.70210500  0.84313300  0.68116500  1
  P  P14  1  0.97883200  0.68697300  0.89783900  1
  P  P15  1  0.77558600  0.90495000  0.89914500  1
  O  O0  1  0.16733600  0.02557900  0.18324800  1
  O  O1  1  0.12620700  0.16512400  0.31275900  1
  O  O2  1  0.18810900  0.26345400  0.08574100  1
  O  O3  1  0.39878400  0.12517500  0.07623300  1
  O  O4  1  0.06813500  0.48461400  0.07059600  1
  O  O5  1  0.02557900  0.16733600  0.68324800  1
  O  O6  1  0.30192800  0.15966100  0.40603600  1
  O  O7  1  0.10196600  0.38663200  0.41866700  1
  O  O8  1  0.01009900  0.67623000  0.18999200  1
  O  O9  1  0.16512400  0.12620700  0.81275900  1
  O  O10  1  0.42460300  0.29036100  0.26954200  1
  O  O11  1  0.26345400  0.18810900  0.58574100  1
  O  O12  1  0.12517500  0.39878400  0.57623300  1
  O  O13  1  0.48461400  0.06813500  0.57059600  1
  O  O14  1  0.20136300  0.57593500  0.29771700  1
  O  O15  1  0.72433100  0.03087500  0.31304200  1
  O  O16  1  0.11661600  0.98710500  0.05245200  1
  O  O17  1  0.90287600  0.21022700  0.05886500  1
  O  O18  1  0.33933600  0.78562700  0.06997900  1
  O  O19  1  0.15966100  0.30192800  0.90603600  1
  O  O20  1  0.48293800  0.59801500  0.12804300  1
  O  O21  1  0.38663200  0.10196600  0.91866700  1
  O  O22  1  0.40198500  0.51706200  0.37195700  1
  O  O23  1  0.21437300  0.66066400  0.43002100  1
  O  O24  1  0.78977300  0.09712400  0.44113500  1
  O  O25  1  0.01289500  0.88338400  0.44754800  1
  O  O26  1  0.67623000  0.01009900  0.68999200  1
  O  O27  1  0.29036100  0.42460300  0.76954200  1
  O  O28  1  0.96912500  0.27566900  0.18695800  1
  O  O29  1  0.42406500  0.79863700  0.20228300  1
  O  O30  1  0.57593500  0.20136300  0.79771700  1
  O  O31  1  0.03087500  0.72433100  0.81304200  1
  O  O32  1  0.70963900  0.57539700  0.23045800  1
  O  O33  1  0.32377000  0.98990100  0.31000800  1
  O  O34  1  0.98710500  0.11661600  0.55245200  1
  O  O35  1  0.21022700  0.90287600  0.55886500  1
  O  O36  1  0.78562700  0.33933600  0.56997900  1
  O  O37  1  0.59801500  0.48293800  0.62804300  1
  O  O38  1  0.61336800  0.89803400  0.08133300  1
  O  O39  1  0.51706200  0.40198500  0.87195700  1
  O  O40  1  0.84033900  0.69807200  0.09396400  1
  O  O41  1  0.66066400  0.21437300  0.93002100  1
  O  O42  1  0.09712400  0.78977300  0.94113500  1
  O  O43  1  0.88338400  0.01289500  0.94754800  1
  O  O44  1  0.27566900  0.96912500  0.68695800  1
  O  O45  1  0.79863700  0.42406500  0.70228300  1
  O  O46  1  0.51538600  0.93186500  0.42940400  1
  O  O47  1  0.87482500  0.60121600  0.42376700  1
  O  O48  1  0.73654600  0.81189100  0.41425900  1
  O  O49  1  0.57539700  0.70963900  0.73045800  1
  O  O50  1  0.83487600  0.87379300  0.18724100  1
  O  O51  1  0.98990100  0.32377000  0.81000800  1
  O  O52  1  0.89803400  0.61336800  0.58133300  1
  O  O53  1  0.69807200  0.84033900  0.59396400  1
  O  O54  1  0.97442100  0.83266400  0.31675200  1
  O  O55  1  0.93186500  0.51538600  0.92940400  1
  O  O56  1  0.60121600  0.87482500  0.92376700  1
  O  O57  1  0.81189100  0.73654600  0.91425900  1
  O  O58  1  0.87379300  0.83487600  0.68724100  1
  O  O59  1  0.83266400  0.97442100  0.81675200  1
loop_
_geom_bond_atom_site_label_1
_geom_bond_atom_site_label_2
_geom_bond_distance
_geom_bond_site_symmetry_2
Li0 O15 2.019731 1_565
Li0 O33 2.048494 1_555
Li0 O29 2.100413 1_555
Li1 O40 1.891402 1_555
Li1 O20 1.903540 1_555
Li2 O6 1.891402 1_555
Li2 O22 1.903540 1_555
Li3 O31 2.019731 1_655
Li3 O51 2.048494 1_555
Li3 O45 2.100413 1_555
Li4 O28 2.019731 1_455
Li4 O8 2.048494 1_555
Li4 O14 2.100413 1_555
Li5 O53 1.891402 1_555
Li5 O37 1.903540 1_555
Li6 O19 1.891402 1_555
Li6 O39 1.903540 1_555
Li7 O44 2.019731 1_545
Li7 O26 2.048494 1_555
Li7 O30 2.100413 1_555
O0 P0 1.535768 1_555
O0 V6 2.181942 1_455
O0 V4 2.190130 1_545
O1 P2 1.561678 1_555
O1 V6 2.143849 1_455
O1 V0 2.148417 1_555
O2 P0 1.611702 1_555
O2 P1 1.659957 1_555
O3 P0 1.504846 1_555
O3 V15 2.142693 1_555
O4 P1 1.494935 1_555
O4 V1 2.077418 1_555
O5 P3 1.535768 1_555
O5 V9 2.181942 1_545
O5 V11 2.190130 1_455
O6 P2 1.604709 1_555
O6 V8 2.191908 1_545
O6 V0 2.232909 1_555
O7 P5 1.550356 1_555
O7 V0 2.072419 1_555
O7 V2 2.137891 1_555
O8 P9 1.582592 1_455
O8 V4 2.202199 1_555
O8 V1 2.292151 1_555
O9 P6 1.561678 1_555
O9 V9 2.143849 1_545
O9 V3 2.148417 1_555
O10 P2 1.516338 1_555
O10 V5 2.174580 1_555
O11 P3 1.611702 1_555
O11 P4 1.659957 1_555
O12 P3 1.504846 1_555
O12 V2 2.142693 1_555
O13 P4 1.494935 1_555
O13 V7 2.077418 1_555
O14 P5 1.572419 1_555
O14 V4 2.222361 1_555
O14 V5 2.431162 1_555
O15 P11 1.539711 1_545
O15 V6 2.199695 1_555
O16 P0 1.589701 1_565
O16 V3 2.219249 1_564
O16 V12 2.221889 1_455
O16 V1 2.261353 1_555
O17 P1 1.554699 1_655
O17 V12 2.175787 1_545
O17 V13 2.254361 1_554
O18 P7 1.547913 1_555
O18 V1 2.125248 1_555
O18 V15 2.209110 1_565
O19 P6 1.604709 1_555
O19 V13 2.191908 1_455
O19 V3 2.232909 1_555
O20 P7 1.549379 1_555
O20 V5 2.201765 1_555
O21 P8 1.550356 1_555
O21 V3 2.072419 1_555
O21 V15 2.137891 1_556
O22 P5 1.549379 1_555
O22 V5 2.201765 1_555
O23 P5 1.547913 1_555
O23 V8 2.125248 1_555
O23 V2 2.209110 1_555
O24 P11 1.554699 1_545
O24 V0 2.175787 1_655
O24 V7 2.254361 1_555
O25 P12 1.589701 1_455
O25 V14 2.219249 1_455
O25 V0 2.221889 1_565
O25 V8 2.261353 1_555
O26 P13 1.582592 1_545
O26 V11 2.202199 1_555
O26 V7 2.292151 1_555
O27 P6 1.516338 1_555
O27 V10 2.174580 1_555
O28 P1 1.539711 1_655
O28 V6 2.199695 1_555
O29 P7 1.572419 1_555
O29 V4 2.222361 1_555
O29 V5 2.431162 1_555
O30 P8 1.572419 1_555
O30 V11 2.222361 1_555
O30 V10 2.431162 1_555
O31 P14 1.539711 1_455
O31 V9 2.199695 1_555
O32 P9 1.516338 1_555
O32 V5 2.174580 1_555
O33 P2 1.582592 1_565
O33 V4 2.202199 1_555
O33 V8 2.292151 1_555
O34 P3 1.589701 1_655
O34 V0 2.219249 1_655
O34 V14 2.221889 1_545
O34 V7 2.261353 1_555
O35 P4 1.554699 1_565
O35 V14 2.175787 1_455
O35 V8 2.254361 1_555
O36 P10 1.547913 1_555
O36 V7 2.125248 1_555
O36 V2 2.209110 1_655
O37 P10 1.549379 1_555
O37 V10 2.201765 1_555
O38 P7 1.550356 1_555
O38 V12 2.072419 1_555
O38 V15 2.137891 1_565
O39 P8 1.549379 1_555
O39 V10 2.201765 1_555
O40 P9 1.604709 1_555
O40 V1 2.191908 1_655
O40 V12 2.232909 1_555
O41 P8 1.547913 1_555
O41 V13 2.125248 1_555
O41 V15 2.209110 1_556
O42 P14 1.554699 1_455
O42 V3 2.175787 1_565
O42 V1 2.254361 1_556
O43 P15 1.589701 1_545
O43 V12 2.219249 1_546
O43 V3 2.221889 1_655
O43 V13 2.261353 1_555
O44 P4 1.539711 1_565
O44 V9 2.199695 1_555
O45 P10 1.572419 1_555
O45 V11 2.222361 1_555
O45 V10 2.431162 1_555
O46 P11 1.494935 1_555
O46 V8 2.077418 1_555
O47 P12 1.504846 1_555
O47 V2 2.142693 1_655
O48 P12 1.611702 1_555
O48 P11 1.659957 1_555
O49 P13 1.516338 1_555
O49 V10 2.174580 1_555
O50 P9 1.561678 1_555
O50 V6 2.143849 1_565
O50 V12 2.148417 1_555
O51 P6 1.582592 1_655
O51 V11 2.202199 1_555
O51 V13 2.292151 1_555
O52 P10 1.550356 1_555
O52 V14 2.072419 1_555
O52 V2 2.137891 1_655
O53 P13 1.604709 1_555
O53 V7 2.191908 1_565
O53 V14 2.232909 1_555
O54 P12 1.535768 1_555
O54 V6 2.181942 1_565
O54 V4 2.190130 1_655
O55 P14 1.494935 1_555
O55 V13 2.077418 1_555
O56 P15 1.504846 1_555
O56 V15 2.142693 1_566
O57 P15 1.611702 1_555
O57 P14 1.659957 1_555
O58 P13 1.561678 1_555
O58 V9 2.143849 1_655
O58 V14 2.148417 1_555
O59 P15 1.535768 1_555
O59 V9 2.181942 1_655
O59 V11 2.190130 1_565
