# generated using pymatgen
data_Sr21Co14O43
_symmetry_space_group_name_H-M   'P 1'
_cell_length_a   11.88443670
_cell_length_b   11.88443670
_cell_length_c   8.68209225
_cell_angle_alpha   85.49082430
_cell_angle_beta   85.49082430
_cell_angle_gamma   117.07228317
_symmetry_Int_Tables_number   1
_chemical_formula_structural   Sr21Co14O43
_chemical_formula_sum   'Sr21 Co14 O43'
_cell_volume   1079.44302069
_cell_formula_units_Z   1
loop_
 _symmetry_equiv_pos_site_id
 _symmetry_equiv_pos_as_xyz
  1  'x, y, z'
loop_
 _atom_site_type_symbol
 _atom_site_label
 _atom_site_symmetry_multiplicity
 _atom_site_fract_x
 _atom_site_fract_y
 _atom_site_fract_z
 _atom_site_occupancy
  Sr  Sr0  1  0.70755800  0.70755800  0.86015900  1
  Sr  Sr1  1  0.53155900  0.89381500  0.85621300  1
  Sr  Sr2  1  0.89381500  0.53155900  0.85621300  1
  Sr  Sr3  1  0.00000000  0.00000000  0.00000000  1
  Sr  Sr4  1  0.18464500  0.81535500  0.00000000  1
  Sr  Sr5  1  0.81535500  0.18464500  0.00000000  1
  Sr  Sr6  1  0.75065200  0.38837600  0.28480400  1
  Sr  Sr7  1  0.10618500  0.46844100  0.14378700  1
  Sr  Sr8  1  0.38837600  0.75065200  0.28480400  1
  Sr  Sr9  1  0.56683100  0.56683100  0.27684100  1
  Sr  Sr10  1  0.29244200  0.29244200  0.13984100  1
  Sr  Sr11  1  0.46844100  0.10618500  0.14378700  1
  Sr  Sr12  1  0.32652300  0.96184200  0.57124300  1
  Sr  Sr13  1  0.96184200  0.32652300  0.57124300  1
  Sr  Sr14  1  0.03815800  0.67347700  0.42875700  1
  Sr  Sr15  1  0.85501800  0.85501800  0.43107200  1
  Sr  Sr16  1  0.67347700  0.03815800  0.42875700  1
  Sr  Sr17  1  0.14498200  0.14498200  0.56892800  1
  Sr  Sr18  1  0.24934800  0.61162400  0.71519600  1
  Sr  Sr19  1  0.61162400  0.24934800  0.71519600  1
  Sr  Sr20  1  0.43316900  0.43316900  0.72315900  1
  Co  Co0  1  0.31507700  0.11064200  0.85557100  1
  Co  Co1  1  0.11064200  0.31507700  0.85557100  1
  Co  Co2  1  0.59506500  0.40493500  0.00000000  1
  Co  Co3  1  0.88935800  0.68492300  0.14442900  1
  Co  Co4  1  0.68492300  0.88935800  0.14442900  1
  Co  Co5  1  0.40493500  0.59506500  0.00000000  1
  Co  Co6  1  0.45986300  0.25588600  0.43128900  1
  Co  Co7  1  0.17628400  0.97296400  0.28712400  1
  Co  Co8  1  0.25588600  0.45986300  0.43128900  1
  Co  Co9  1  0.97296400  0.17628400  0.28712400  1
  Co  Co10  1  0.74411400  0.54013700  0.56871100  1
  Co  Co11  1  0.54013700  0.74411400  0.56871100  1
  Co  Co12  1  0.82371600  0.02703600  0.71287600  1
  Co  Co13  1  0.02703600  0.82371600  0.71287600  1
  O  O0  1  0.78145300  0.94802100  0.91599300  1
  O  O1  1  0.94802100  0.78145300  0.91599300  1
  O  O2  1  0.40723200  0.01187100  0.85775300  1
  O  O3  1  0.01187100  0.40723200  0.85775300  1
  O  O4  1  0.74406700  0.56673800  0.07656200  1
  O  O5  1  0.25593300  0.43326200  0.92343800  1
  O  O6  1  0.43326200  0.25593300  0.92343800  1
  O  O7  1  0.30875900  0.69124100  0.00000000  1
  O  O8  1  0.69124100  0.30875900  0.00000000  1
  O  O9  1  0.56673800  0.74406700  0.07656200  1
  O  O10  1  0.50000000  0.50000000  0.00000000  1
  O  O11  1  0.00249100  0.83421000  0.21280200  1
  O  O12  1  0.51222400  0.33415200  0.22823800  1
  O  O13  1  0.33415200  0.51222400  0.22823800  1
  O  O14  1  0.21854700  0.05197900  0.08400700  1
  O  O15  1  0.98812900  0.59276800  0.14224700  1
  O  O16  1  0.05197900  0.21854700  0.08400700  1
  O  O17  1  0.83421000  0.00249100  0.21280200  1
  O  O18  1  0.59276800  0.98812900  0.14224700  1
  O  O19  1  0.12751200  0.29841300  0.35954000  1
  O  O20  1  0.29841300  0.12751200  0.35954000  1
  O  O21  1  0.62540800  0.79436800  0.36763500  1
  O  O22  1  0.15804700  0.55283800  0.43346600  1
  O  O23  1  0.26281700  0.87018000  0.28598200  1
  O  O24  1  0.79436800  0.62540800  0.36763500  1
  O  O25  1  0.55283800  0.15804700  0.43346600  1
  O  O26  1  0.87018000  0.26281700  0.28598200  1
  O  O27  1  0.41444300  0.58555700  0.50000000  1
  O  O28  1  0.44716200  0.84195300  0.56653400  1
  O  O29  1  0.58555700  0.41444300  0.50000000  1
  O  O30  1  0.91600900  0.08399100  0.50000000  1
  O  O31  1  0.20563200  0.37459200  0.63236500  1
  O  O32  1  0.37459200  0.20563200  0.63236500  1
  O  O33  1  0.08399100  0.91600900  0.50000000  1
  O  O34  1  0.84195300  0.44716200  0.56653400  1
  O  O35  1  0.87248800  0.70158700  0.64046000  1
  O  O36  1  0.70158700  0.87248800  0.64046000  1
  O  O37  1  0.73718300  0.12982000  0.71401800  1
  O  O38  1  0.16579000  0.99750900  0.78719800  1
  O  O39  1  0.12982000  0.73718300  0.71401800  1
  O  O40  1  0.99750900  0.16579000  0.78719800  1
  O  O41  1  0.66584800  0.48777600  0.77176200  1
  O  O42  1  0.48777600  0.66584800  0.77176200  1
loop_
_geom_bond_atom_site_label_1
_geom_bond_atom_site_label_2
_geom_bond_distance
_geom_bond_site_symmetry_2
Co0 O6 1.839579 1_555
Co0 O38 1.851401 1_545
Co0 O2 1.935896 1_555
Co0 O32 2.060056 1_555
Co0 O14 2.105338 1_556
Co1 O5 1.839579 1_555
Co1 O40 1.851401 1_455
Co1 O3 1.935896 1_555
Co1 O31 2.060056 1_555
Co1 O16 2.105338 1_556
Co2 O10 1.927360 1_555
Co2 O8 1.949884 1_555
Co2 O12 2.069031 1_555
Co2 O41 2.069031 1_554
Co2 O4 2.135859 1_555
Co2 O6 2.135859 1_554
Co3 O4 1.839579 1_555
Co3 O11 1.851401 1_655
Co3 O15 1.935896 1_555
Co3 O24 2.060056 1_555
Co3 O1 2.105338 1_554
Co4 O9 1.839579 1_555
Co4 O17 1.851401 1_565
Co4 O18 1.935896 1_555
Co4 O21 2.060056 1_555
Co4 O0 2.105338 1_554
Co5 O10 1.927360 1_555
Co5 O7 1.949884 1_555
Co5 O13 2.069031 1_555
Co5 O42 2.069031 1_554
Co5 O9 2.135859 1_555
Co5 O5 2.135859 1_554
Co6 O12 1.844742 1_555
Co6 O32 1.854272 1_555
Co6 O25 1.934577 1_555
Co6 O29 1.973030 1_555
Co6 O20 2.017439 1_555
Co7 O14 1.847966 1_565
Co7 O23 1.921868 1_555
Co7 O20 1.942676 1_565
Co7 O33 1.971263 1_555
Co7 O11 2.162944 1_555
Co8 O13 1.844742 1_555
Co8 O31 1.854272 1_555
Co8 O22 1.934577 1_555
Co8 O27 1.973030 1_555
Co8 O19 2.017439 1_555
Co9 O16 1.847966 1_655
Co9 O26 1.921868 1_555
Co9 O19 1.942676 1_655
Co9 O30 1.971263 1_555
Co9 O17 2.162944 1_555
Co10 O41 1.844742 1_555
Co10 O24 1.854272 1_555
Co10 O34 1.934577 1_555
Co10 O29 1.973030 1_555
Co10 O35 2.017439 1_555
Co11 O42 1.844742 1_555
Co11 O21 1.854272 1_555
Co11 O28 1.934577 1_555
Co11 O27 1.973030 1_555
Co11 O36 2.017439 1_555
Co12 O0 1.847966 1_545
Co12 O37 1.921868 1_555
Co12 O36 1.942676 1_545
Co12 O30 1.971263 1_555
Co12 O40 2.162944 1_555
Co13 O1 1.847966 1_455
Co13 O39 1.921868 1_555
Co13 O35 1.942676 1_455
Co13 O33 1.971263 1_555
Co13 O38 2.162944 1_555
O0 Sr3 2.562782 1_666
O0 Sr0 2.678325 1_555
O0 Sr5 2.817771 1_566
O0 Sr1 2.838640 1_555
O1 Sr3 2.562782 1_666
O1 Sr0 2.678325 1_555
O1 Sr4 2.817771 1_656
O1 Sr2 2.838640 1_555
O2 Sr1 2.457364 1_545
O2 Sr4 2.717854 1_546
O2 Sr12 2.747697 1_545
O2 Sr11 2.816419 1_556
O2 Sr19 2.852280 1_555
O3 Sr2 2.457364 1_455
O3 Sr5 2.717854 1_456
O3 Sr13 2.747697 1_455
O3 Sr7 2.816419 1_556
O3 Sr18 2.852280 1_555
O4 Sr0 2.610329 1_554
O4 Sr9 2.624271 1_555
O4 Sr2 2.696222 1_554
O4 Sr6 2.709024 1_555
O5 Sr10 2.610329 1_556
O5 Sr20 2.624271 1_555
O5 Sr7 2.696222 1_556
O5 Sr18 2.709024 1_555
O6 Sr10 2.610329 1_556
O6 Sr20 2.624271 1_555
O6 Sr11 2.696222 1_556
O6 Sr19 2.709024 1_555
O7 Sr4 2.516303 1_555
O7 Sr8 2.746333 1_555
O7 Sr18 2.746333 1_554
O7 Sr1 2.751510 1_554
O7 Sr7 2.751510 1_555
O8 Sr5 2.516303 1_555
O8 Sr6 2.746333 1_555
O8 Sr19 2.746333 1_554
O8 Sr2 2.751510 1_554
O8 Sr11 2.751510 1_555
O9 Sr0 2.610329 1_554
O9 Sr9 2.624271 1_555
O9 Sr1 2.696222 1_554
O9 Sr8 2.709024 1_555
O10 Sr9 2.657988 1_555
O10 Sr20 2.657988 1_554
O10 Sr0 2.676406 1_554
O10 Sr10 2.676406 1_555
O11 Sr15 2.582636 1_455
O11 Sr3 2.604965 1_565
O11 Sr14 2.764572 1_555
O11 Sr4 2.833340 1_555
O12 Sr9 2.615138 1_555
O12 Sr10 2.617955 1_555
O12 Sr11 2.690278 1_555
O12 Sr6 2.700396 1_555
O13 Sr9 2.615138 1_555
O13 Sr10 2.617955 1_555
O13 Sr7 2.690278 1_555
O13 Sr8 2.700396 1_555
O14 Sr3 2.562782 1_555
O14 Sr10 2.678325 1_555
O14 Sr4 2.817771 1_545
O14 Sr11 2.838640 1_555
O15 Sr7 2.457364 1_655
O15 Sr4 2.717854 1_655
O15 Sr14 2.747697 1_655
O15 Sr2 2.816419 1_554
O15 Sr6 2.852280 1_555
O16 Sr3 2.562782 1_555
O16 Sr10 2.678325 1_555
O16 Sr5 2.817771 1_455
O16 Sr7 2.838640 1_555
O17 Sr15 2.582636 1_545
O17 Sr3 2.604965 1_655
O17 Sr16 2.764572 1_555
O17 Sr5 2.833340 1_555
O18 Sr11 2.457364 1_565
O18 Sr5 2.717854 1_565
O18 Sr16 2.747697 1_565
O18 Sr1 2.816419 1_554
O18 Sr8 2.852280 1_555
O19 Sr17 2.560395 1_555
O19 Sr10 2.654316 1_555
O19 Sr13 2.737282 1_455
O19 Sr7 2.757158 1_555
O20 Sr17 2.560395 1_555
O20 Sr10 2.654316 1_555
O20 Sr12 2.737282 1_545
O20 Sr11 2.757158 1_555
O21 Sr15 2.603378 1_555
O21 Sr9 2.669530 1_555
O21 Sr8 2.787053 1_555
O21 Sr16 2.790197 1_565
O22 Sr14 2.438583 1_555
O22 Sr13 2.729307 1_455
O22 Sr18 2.764851 1_555
O22 Sr7 2.790864 1_555
O22 Sr8 2.792041 1_555
O23 Sr8 2.484742 1_555
O23 Sr14 2.733638 1_555
O23 Sr4 2.742012 1_555
O23 Sr12 2.803943 1_555
O23 Sr11 2.846943 1_565
O24 Sr15 2.603378 1_555
O24 Sr9 2.669530 1_555
O24 Sr6 2.787053 1_555
O24 Sr14 2.790197 1_655
O25 Sr16 2.438583 1_555
O25 Sr12 2.729307 1_545
O25 Sr19 2.764851 1_555
O25 Sr11 2.790864 1_555
O25 Sr6 2.792041 1_555
O26 Sr6 2.484742 1_555
O26 Sr16 2.733638 1_555
O26 Sr5 2.742012 1_555
O26 Sr13 2.803943 1_555
O26 Sr7 2.846943 1_655
O27 Sr9 2.639357 1_555
O27 Sr20 2.639357 1_555
O27 Sr18 2.739391 1_555
O27 Sr8 2.739391 1_555
O28 Sr12 2.438583 1_555
O28 Sr16 2.729307 1_565
O28 Sr8 2.764851 1_555
O28 Sr1 2.790864 1_555
O28 Sr18 2.792041 1_555
O29 Sr9 2.639357 1_555
O29 Sr20 2.639357 1_555
O29 Sr19 2.739391 1_555
O29 Sr6 2.739391 1_555
O30 Sr17 2.611019 1_655
O30 Sr15 2.611019 1_545
O30 Sr16 2.809181 1_555
O30 Sr13 2.809181 1_555
O31 Sr17 2.603378 1_555
O31 Sr20 2.669530 1_555
O31 Sr18 2.787053 1_555
O31 Sr13 2.790197 1_455
O32 Sr17 2.603378 1_555
O32 Sr20 2.669530 1_555
O32 Sr19 2.787053 1_555
O32 Sr12 2.790197 1_545
O33 Sr17 2.611019 1_565
O33 Sr15 2.611019 1_455
O33 Sr14 2.809181 1_555
O33 Sr12 2.809181 1_555
O34 Sr13 2.438583 1_555
O34 Sr14 2.729307 1_655
O34 Sr6 2.764851 1_555
O34 Sr2 2.790864 1_555
O34 Sr19 2.792041 1_555
O35 Sr15 2.560395 1_555
O35 Sr0 2.654316 1_555
O35 Sr14 2.737282 1_655
O35 Sr2 2.757158 1_555
O36 Sr15 2.560395 1_555
O36 Sr0 2.654316 1_555
O36 Sr16 2.737282 1_565
O36 Sr1 2.757158 1_555
O37 Sr19 2.484742 1_555
O37 Sr13 2.733638 1_555
O37 Sr5 2.742012 1_556
O37 Sr16 2.803943 1_555
O37 Sr1 2.846943 1_545
O38 Sr17 2.582636 1_565
O38 Sr3 2.604965 1_566
O38 Sr12 2.764572 1_555
O38 Sr4 2.833340 1_556
O39 Sr18 2.484742 1_555
O39 Sr12 2.733638 1_555
O39 Sr4 2.742012 1_556
O39 Sr14 2.803943 1_555
O39 Sr2 2.846943 1_455
O40 Sr17 2.582636 1_655
O40 Sr3 2.604965 1_656
O40 Sr13 2.764572 1_555
O40 Sr5 2.833340 1_556
O41 Sr20 2.615138 1_555
O41 Sr0 2.617955 1_555
O41 Sr2 2.690278 1_555
O41 Sr19 2.700396 1_555
O42 Sr20 2.615138 1_555
O42 Sr0 2.617955 1_555
O42 Sr1 2.690278 1_555
O42 Sr18 2.700396 1_555
