# generated using pymatgen
data_Li11V12(CoO8)4
_symmetry_space_group_name_H-M   'P 1'
_cell_length_a   8.33053955
_cell_length_b   8.33053955
_cell_length_c   8.41712584
_cell_angle_alpha   89.86198832
_cell_angle_beta   89.86198832
_cell_angle_gamma   90.00439646
_symmetry_Int_Tables_number   1
_chemical_formula_structural   Li11V12(CoO8)4
_chemical_formula_sum   'Li11 V12 Co4 O32'
_cell_volume   584.12737479
_cell_formula_units_Z   1
loop_
 _symmetry_equiv_pos_site_id
 _symmetry_equiv_pos_as_xyz
  1  'x, y, z'
loop_
 _atom_site_type_symbol
 _atom_site_label
 _atom_site_symmetry_multiplicity
 _atom_site_fract_x
 _atom_site_fract_y
 _atom_site_fract_z
 _atom_site_occupancy
  Li  Li0  1  0.87591400  0.12408600  0.00000000  1
  Li  Li1  1  0.25216100  0.49130800  0.87284600  1
  Li  Li2  1  0.62456100  0.13180600  0.75578700  1
  Li  Li3  1  0.87962700  0.87858600  0.75541000  1
  Li  Li4  1  0.37137100  0.12319900  0.50734700  1
  Li  Li5  1  0.61826300  0.38173700  0.50000000  1
  Li  Li6  1  0.13187500  0.86812500  0.50000000  1
  Li  Li7  1  0.87680100  0.62862900  0.49265300  1
  Li  Li8  1  0.12141400  0.12037300  0.24459000  1
  Li  Li9  1  0.86819400  0.37543900  0.24421300  1
  Li  Li10  1  0.50869200  0.74783900  0.12715400  1
  V  V0  1  0.87128800  0.62437100  0.00638000  1
  V  V1  1  0.12757200  0.87242800  0.00000000  1
  V  V2  1  0.37562900  0.12871200  0.99362000  1
  V  V3  1  0.88417900  0.37983500  0.75846300  1
  V  V4  1  0.61250200  0.62476000  0.76127700  1
  V  V5  1  0.37287400  0.87634300  0.75957000  1
  V  V6  1  0.87856200  0.12143800  0.50000000  1
  V  V7  1  0.13333300  0.37930400  0.50404000  1
  V  V8  1  0.62069600  0.86666700  0.49596000  1
  V  V9  1  0.12365700  0.62712600  0.24043000  1
  V  V10  1  0.37524000  0.38749800  0.23872300  1
  V  V11  1  0.62016500  0.11582100  0.24153700  1
  Co  Co0  1  0.62273700  0.37726300  0.00000000  1
  Co  Co1  1  0.12643400  0.12989900  0.75453900  1
  Co  Co2  1  0.37419800  0.62580200  0.50000000  1
  Co  Co3  1  0.87010100  0.87356600  0.24546100  1
  O  O0  1  0.61218500  0.14550300  0.99663500  1
  O  O1  1  0.39040400  0.36663600  0.00924100  1
  O  O2  1  0.11159800  0.63034600  0.00409000  1
  O  O3  1  0.88866100  0.86604600  0.01069100  1
  O  O4  1  0.13395400  0.11133900  0.98930900  1
  O  O5  1  0.36965400  0.88840200  0.99591000  1
  O  O6  1  0.63336400  0.60959600  0.99075900  1
  O  O7  1  0.85449700  0.38781500  0.00336500  1
  O  O8  1  0.36421300  0.12370900  0.76833400  1
  O  O9  1  0.13454900  0.89843600  0.75381200  1
  O  O10  1  0.85678300  0.62505500  0.77016800  1
  O  O11  1  0.64245900  0.38704600  0.76566600  1
  O  O12  1  0.39435800  0.62833000  0.74397600  1
  O  O13  1  0.61931800  0.86585200  0.73710900  1
  O  O14  1  0.88928900  0.13661000  0.74761600  1
  O  O15  1  0.12033500  0.36535600  0.73535100  1
  O  O16  1  0.38877000  0.87742400  0.51814000  1
  O  O17  1  0.63264100  0.63920800  0.51925500  1
  O  O18  1  0.89113400  0.36657700  0.50398900  1
  O  O19  1  0.11888700  0.13469700  0.51798400  1
  O  O20  1  0.86530300  0.88111300  0.48201600  1
  O  O21  1  0.63342300  0.10886600  0.49601100  1
  O  O22  1  0.36079200  0.36735900  0.48074500  1
  O  O23  1  0.12257600  0.61123000  0.48186000  1
  O  O24  1  0.63464400  0.87966500  0.26464900  1
  O  O25  1  0.86339000  0.11071100  0.25238400  1
  O  O26  1  0.13414800  0.38068200  0.26289100  1
  O  O27  1  0.37167000  0.60564200  0.25602400  1
  O  O28  1  0.61295400  0.35754100  0.23433400  1
  O  O29  1  0.37494500  0.14321700  0.22983200  1
  O  O30  1  0.10156400  0.86545100  0.24618800  1
  O  O31  1  0.87629100  0.63578700  0.23166600  1
loop_
_geom_bond_atom_site_label_1
_geom_bond_atom_site_label_2
_geom_bond_distance
_geom_bond_site_symmetry_2
Li0 O25 2.129306 1_555
Li0 O14 2.129306 1_554
Li0 O4 2.153917 1_654
Li0 O3 2.153917 1_545
Li0 O7 2.204495 1_555
Li0 O0 2.204495 1_554
Li1 O15 1.912614 1_555
Li1 O1 1.929707 1_556
Li1 O12 1.967337 1_555
Li1 O2 1.983236 1_556
Li2 O0 2.033099 1_555
Li2 O11 2.133332 1_555
Li2 O8 2.172189 1_555
Li2 O21 2.196425 1_555
Li2 O14 2.206591 1_555
Li2 O13 2.221922 1_545
Li3 O10 2.123902 1_555
Li3 O9 2.130061 1_655
Li3 O14 2.151816 1_565
Li3 O3 2.152516 1_556
Li3 O13 2.176945 1_555
Li3 O20 2.304616 1_555
Li4 O22 2.047663 1_555
Li4 O16 2.054380 1_545
Li4 O19 2.107212 1_555
Li4 O21 2.188171 1_555
Li4 O8 2.197440 1_555
Li4 O29 2.341541 1_555
Li5 O17 2.154720 1_555
Li5 O22 2.154720 1_555
Li5 O11 2.246235 1_555
Li5 O28 2.246235 1_555
Li5 O18 2.277002 1_555
Li5 O21 2.277002 1_555
Li6 O16 2.147286 1_555
Li6 O23 2.147286 1_555
Li6 O30 2.152011 1_555
Li6 O9 2.152011 1_555
Li6 O20 2.228824 1_455
Li6 O19 2.228824 1_565
Li7 O17 2.047663 1_555
Li7 O23 2.054380 1_655
Li7 O20 2.107212 1_555
Li7 O18 2.188171 1_555
Li7 O31 2.197440 1_555
Li7 O10 2.341541 1_555
Li8 O29 2.123902 1_555
Li8 O30 2.130061 1_545
Li8 O25 2.151816 1_455
Li8 O4 2.152516 1_554
Li8 O26 2.176945 1_555
Li8 O19 2.304616 1_555
Li9 O7 2.033099 1_555
Li9 O28 2.133332 1_555
Li9 O31 2.172189 1_555
Li9 O18 2.196425 1_555
Li9 O25 2.206591 1_555
Li9 O26 2.221922 1_655
Li10 O24 1.912614 1_555
Li10 O6 1.929707 1_554
Li10 O27 1.967337 1_555
Li10 O5 1.983236 1_554
Co0 O7 1.932958 1_555
Co0 O0 1.932958 1_554
Co0 O1 1.938841 1_555
Co0 O6 1.938841 1_554
Co0 O28 1.980337 1_555
Co0 O11 1.980337 1_554
Co1 O9 1.929425 1_545
Co1 O15 1.968404 1_555
Co1 O14 1.977336 1_455
Co1 O4 1.982897 1_555
Co1 O8 1.985173 1_555
Co1 O19 1.992562 1_555
Co2 O12 2.060994 1_555
Co2 O27 2.060994 1_555
Co2 O23 2.105582 1_555
Co2 O16 2.105582 1_555
Co2 O17 2.162348 1_555
Co2 O22 2.162348 1_555
Co3 O30 1.929425 1_655
Co3 O24 1.968404 1_555
Co3 O25 1.977336 1_565
Co3 O3 1.982897 1_555
Co3 O31 1.985173 1_555
Co3 O20 1.992562 1_555
O0 V2 1.975815 1_555
O0 V11 2.076781 1_556
O1 V10 1.943606 1_555
O1 V2 1.990527 1_554
O2 V9 1.992196 1_555
O2 V0 2.002572 1_455
O2 V1 2.021254 1_555
O3 V1 1.992774 1_655
O3 V0 2.018887 1_555
O4 V1 1.992774 1_546
O4 V2 2.018887 1_555
O5 V5 1.992196 1_555
O5 V2 2.002572 1_565
O5 V1 2.021254 1_556
O6 V4 1.943606 1_555
O6 V0 1.990527 1_556
O7 V0 1.975815 1_555
O7 V3 2.076781 1_554
O8 V2 1.899430 1_555
O8 V5 2.063451 1_545
O9 V5 1.994597 1_555
O9 V1 2.083643 1_556
O10 V0 1.992180 1_556
O10 V4 2.036550 1_555
O10 V3 2.058110 1_555
O11 V4 1.996232 1_555
O11 V3 2.015329 1_555
O12 V4 1.823671 1_555
O12 V5 2.078270 1_555
O13 V4 2.018995 1_555
O13 V8 2.029781 1_555
O13 V5 2.063122 1_555
O14 V3 2.028916 1_555
O14 V6 2.090473 1_555
O15 V7 1.952902 1_555
O15 V3 1.980150 1_455
O16 V8 1.942715 1_555
O16 V5 2.036137 1_555
O17 V8 1.907134 1_555
O17 V4 2.046875 1_555
O18 V7 2.020425 1_655
O18 V6 2.045176 1_555
O18 V3 2.145694 1_555
O19 V6 2.011162 1_455
O19 V7 2.044323 1_555
O20 V6 2.011162 1_565
O20 V8 2.044323 1_555
O21 V8 2.020425 1_545
O21 V6 2.045176 1_555
O21 V11 2.145694 1_555
O22 V7 1.907134 1_555
O22 V10 2.046875 1_555
O23 V7 1.942715 1_555
O23 V9 2.036137 1_555
O24 V8 1.952902 1_555
O24 V11 1.980150 1_565
O25 V11 2.028916 1_555
O25 V6 2.090473 1_555
O26 V10 2.018995 1_555
O26 V7 2.029781 1_555
O26 V9 2.063122 1_555
O27 V10 1.823671 1_555
O27 V9 2.078270 1_555
O28 V10 1.996232 1_555
O28 V11 2.015329 1_555
O29 V2 1.992180 1_554
O29 V10 2.036550 1_555
O29 V11 2.058110 1_555
O30 V9 1.994597 1_555
O30 V1 2.083643 1_555
O31 V0 1.899430 1_555
O31 V9 2.063451 1_655
