# generated using pymatgen
data_Li3Zr4(PO4)6
_symmetry_space_group_name_H-M   'P 1'
_cell_length_a   8.94682900
_cell_length_b   9.01497753
_cell_length_c   9.01981285
_cell_angle_alpha   61.37811943
_cell_angle_beta   60.40715338
_cell_angle_gamma   60.26141657
_symmetry_Int_Tables_number   1
_chemical_formula_structural   Li3Zr4(PO4)6
_chemical_formula_sum   'Li3 Zr4 P6 O24'
_cell_volume   522.22450447
_cell_formula_units_Z   1
loop_
 _symmetry_equiv_pos_site_id
 _symmetry_equiv_pos_as_xyz
  1  'x, y, z'
loop_
 _atom_site_type_symbol
 _atom_site_label
 _atom_site_symmetry_multiplicity
 _atom_site_fract_x
 _atom_site_fract_y
 _atom_site_fract_z
 _atom_site_occupancy
  Li  Li0  1  0.44930100  0.68033200  0.31626000  1
  Li  Li1  1  0.54682200  0.32155600  0.68400600  1
  Li  Li2  1  0.03456600  0.15060400  0.85634900  1
  Zr  Zr0  1  0.35515300  0.36056900  0.35578000  1
  Zr  Zr1  1  0.13828400  0.13860500  0.14600700  1
  Zr  Zr2  1  0.64471400  0.64530000  0.63591700  1
  Zr  Zr3  1  0.86380700  0.85626200  0.86216400  1
  P  P0  1  0.74743700  0.46555700  0.03523400  1
  P  P1  1  0.95667400  0.24945400  0.54702900  1
  P  P2  1  0.54185600  0.95454700  0.25082500  1
  P  P3  1  0.45642500  0.04776900  0.74561000  1
  P  P4  1  0.04165100  0.75293100  0.45762700  1
  P  P5  1  0.25781700  0.53137800  0.95581400  1
  O  O0  1  0.90930500  0.28473700  0.04604500  1
  O  O1  1  0.79882700  0.62318900  0.99906200  1
  O  O2  1  0.72037500  0.94135200  0.08994500  1
  O  O3  1  0.00141800  0.19624500  0.38835600  1
  O  O4  1  0.89341600  0.68728400  0.49339200  1
  O  O5  1  0.58643300  0.45522400  0.21630900  1
  O  O6  1  0.94251600  0.09259700  0.72775900  1
  O  O7  1  0.76560300  0.39896100  0.57117600  1
  O  O8  1  0.49306700  0.11171800  0.30900100  1
  O  O9  1  0.30475500  0.50221400  0.11291800  1
  O  O10  1  0.38702500  0.97100300  0.20368600  1
  O  O11  1  0.56431800  0.77117700  0.40444900  1
  O  O12  1  0.44248800  0.22793200  0.58911200  1
  O  O13  1  0.60609200  0.02309200  0.80418800  1
  O  O14  1  0.69397600  0.50319700  0.87903000  1
  O  O15  1  0.50378800  0.88837700  0.69005300  1
  O  O16  1  0.05423900  0.91373000  0.28538800  1
  O  O17  1  0.23331400  0.60282000  0.43122600  1
  O  O18  1  0.42418100  0.53665000  0.77782500  1
  O  O19  1  0.10320800  0.31051700  0.52295900  1
  O  O20  1  0.99500100  0.80361200  0.62026600  1
  O  O21  1  0.26719200  0.06912000  0.89749900  1
  O  O22  1  0.20881400  0.37090000  0.99606100  1
  O  O23  1  0.10074300  0.71158500  0.92727400  1
loop_
_geom_bond_atom_site_label_1
_geom_bond_atom_site_label_2
_geom_bond_distance
_geom_bond_site_symmetry_2
Li0 O17 1.990987 1_555
Li0 O5 2.150937 1_555
Li0 O11 2.151978 1_555
Li0 O10 2.183830 1_555
Li1 O7 2.015260 1_555
Li1 O18 2.055294 1_555
Li1 O12 2.139901 1_555
Li1 O13 2.248053 1_555
Li2 O21 1.998508 1_555
Li2 O6 2.061247 1_455
Li2 O0 2.095142 1_456
Li2 O19 2.529672 1_555
O0 P0 1.552148 1_555
O0 Zr1 2.180423 1_655
O1 P0 1.546955 1_556
O1 Zr3 2.072371 1_555
O2 P2 1.535786 1_555
O2 Zr3 2.094193 1_554
O3 P1 1.529715 1_455
O3 Zr1 2.088314 1_555
O4 P4 1.544796 1_655
O4 Zr2 2.071495 1_555
O5 P0 1.553994 1_555
O5 Zr0 2.178232 1_555
O6 P1 1.561513 1_555
O6 Zr3 2.162309 1_545
O7 P1 1.553713 1_555
O7 Zr2 2.162918 1_555
O8 P2 1.531655 1_545
O8 Zr0 2.092790 1_555
O9 P5 1.541033 1_554
O9 Zr0 2.087324 1_555
O10 P2 1.561766 1_555
O10 Zr1 2.135582 1_565
O11 P2 1.563341 1_555
O11 Zr2 2.137200 1_555
O12 P3 1.556430 1_555
O12 Zr0 2.180825 1_555
O13 P3 1.553169 1_555
O13 Zr3 2.202012 1_545
O14 P0 1.541281 1_556
O14 Zr2 2.084938 1_555
O15 P3 1.539954 1_565
O15 Zr2 2.075115 1_555
O16 P4 1.535955 1_555
O16 Zr1 2.095841 1_565
O17 P4 1.559396 1_555
O17 Zr0 2.179476 1_555
O18 P5 1.559508 1_555
O18 Zr2 2.170841 1_555
O19 P1 1.545731 1_455
O19 Zr0 2.135069 1_555
O20 P4 1.543756 1_655
O20 Zr3 2.067273 1_555
O21 P3 1.555255 1_555
O21 Zr1 2.195909 1_556
O22 P5 1.544621 1_555
O22 Zr1 2.089828 1_556
O23 P5 1.540150 1_555
O23 Zr3 2.071827 1_455
