# generated using pymatgen
data_Li2VFeP2(O4F)2
_symmetry_space_group_name_H-M   'P 1'
_cell_length_a   6.96443100
_cell_length_b   7.56959778
_cell_length_c   7.79007475
_cell_angle_alpha   117.28124834
_cell_angle_beta   91.18874433
_cell_angle_gamma   90.49437312
_symmetry_Int_Tables_number   1
_chemical_formula_structural   Li2VFeP2(O4F)2
_chemical_formula_sum   'Li4 V2 Fe2 P4 O16 F4'
_cell_volume   364.84143918
_cell_formula_units_Z   2
loop_
 _symmetry_equiv_pos_site_id
 _symmetry_equiv_pos_as_xyz
  1  'x, y, z'
loop_
 _atom_site_type_symbol
 _atom_site_label
 _atom_site_symmetry_multiplicity
 _atom_site_fract_x
 _atom_site_fract_y
 _atom_site_fract_z
 _atom_site_occupancy
  Li  Li0  1  0.34819500  0.92067700  0.73266500  1
  Li  Li1  1  0.84797700  0.42150800  0.23295700  1
  Li  Li2  1  0.15270000  0.57885700  0.76712800  1
  Li  Li3  1  0.65121200  0.07900600  0.26731400  1
  V  V0  1  0.00002800  0.00035600  0.99977700  1
  V  V1  1  0.74991100  0.24999000  0.75024300  1
  Fe  Fe0  1  0.50015300  0.49915700  0.50030100  1
  Fe  Fe1  1  0.24989600  0.74999800  0.24935500  1
  P  P0  1  0.89944500  0.77738400  0.53991400  1
  P  P1  1  0.60032700  0.72232400  0.96017200  1
  P  P2  1  0.39938900  0.27824300  0.04025900  1
  P  P3  1  0.10082300  0.22203400  0.45960300  1
  O  O0  1  0.73523500  0.89606500  0.98188200  1
  O  O1  1  0.78579800  0.96234200  0.57209200  1
  O  O2  1  0.71401200  0.53745500  0.92781700  1
  O  O3  1  0.99646100  0.31102300  0.65491100  1
  O  O4  1  0.76354600  0.60382800  0.51901700  1
  O  O5  1  0.45259100  0.67489000  0.78837100  1
  O  O6  1  0.95323700  0.17542200  0.28821300  1
  O  O7  1  0.50308200  0.18847600  0.84434400  1
  O  O8  1  0.49626000  0.81270400  0.15577800  1
  O  O9  1  0.04689200  0.82466600  0.71160600  1
  O  O10  1  0.54712600  0.32487300  0.21180100  1
  O  O11  1  0.23574200  0.39706400  0.48236000  1
  O  O12  1  0.00448600  0.68785800  0.34510100  1
  O  O13  1  0.28635500  0.46363700  0.07340400  1
  O  O14  1  0.21377200  0.03647900  0.42641600  1
  O  O15  1  0.26529500  0.10312000  0.01681000  1
  F  F0  1  0.89698100  0.23311000  0.96985900  1
  F  F1  1  0.39734700  0.73241700  0.46938100  1
  F  F2  1  0.60239300  0.26821500  0.53013700  1
  F  F3  1  0.10333300  0.76681800  0.03101400  1
loop_
_geom_bond_atom_site_label_1
_geom_bond_atom_site_label_2
_geom_bond_distance
_geom_bond_site_symmetry_2
Li0 O7 2.082392 1_565
Li0 O15 2.098726 1_566
Li0 O9 2.192829 1_555
Li0 O5 2.220092 1_555
Li1 O12 2.079450 1_655
Li1 O4 2.113143 1_555
Li1 O10 2.191128 1_555
Li1 O6 2.222190 1_555
Li2 O3 2.087170 1_455
Li2 O11 2.101851 1_555
Li2 O5 2.183374 1_555
Li2 O9 2.222699 1_555
Li3 O8 2.073863 1_545
Li3 O0 2.109375 1_544
Li3 O6 2.198627 1_555
Li3 O10 2.219082 1_555
Fe0 O4 1.967716 1_555
Fe0 O11 1.968128 1_555
Fe0 O5 2.053549 1_555
Fe0 O10 2.053867 1_555
Fe1 O13 1.985479 1_555
Fe1 O14 1.987514 1_565
Fe1 O8 2.013867 1_555
Fe1 O12 2.014789 1_555
O0 P1 1.552152 1_555
O0 V0 1.976563 1_665
O1 P0 1.534627 1_555
O1 V1 1.995776 1_565
O2 P1 1.533863 1_555
O2 V1 1.993831 1_555
O3 P3 1.552960 1_655
O3 V1 2.016697 1_555
O4 P0 1.557023 1_555
O5 P1 1.573112 1_555
O6 P3 1.571154 1_655
O6 V0 2.054080 1_654
O7 P2 1.554356 1_556
O7 V1 2.015095 1_555
O8 P1 1.553697 1_554
O9 P0 1.571406 1_455
O9 V0 2.053214 1_565
O10 P2 1.572666 1_555
O11 P3 1.557564 1_555
O12 P0 1.552215 1_455
O13 P2 1.533336 1_555
O14 P3 1.533974 1_555
O15 P2 1.553170 1_555
O15 V0 1.976393 1_554
F0 Li1 1.925845 1_556
F0 V0 2.016134 1_655
F0 V1 2.030345 1_555
F1 Li0 1.926848 1_555
F1 Fe0 2.023075 1_555
F1 Fe1 2.036800 1_555
F2 Li3 1.925595 1_555
F2 Fe0 2.001024 1_555
F2 V1 2.039788 1_555
F3 Li2 1.930011 1_554
F3 Fe1 2.019867 1_555
F3 V0 2.027546 1_564
