# generated using pymatgen
data_LiMnF3
_symmetry_space_group_name_H-M   'P 1'
_cell_length_a   7.00626000
_cell_length_b   7.99902880
_cell_length_c   16.63921167
_cell_angle_alpha   91.27387283
_cell_angle_beta   96.86143732
_cell_angle_gamma   91.53134007
_symmetry_Int_Tables_number   1
_chemical_formula_structural   LiMnF3
_chemical_formula_sum   'Li14 Mn14 F42'
_cell_volume   925.20285067
_cell_formula_units_Z   14
loop_
 _symmetry_equiv_pos_site_id
 _symmetry_equiv_pos_as_xyz
  1  'x, y, z'
loop_
 _atom_site_type_symbol
 _atom_site_label
 _atom_site_symmetry_multiplicity
 _atom_site_fract_x
 _atom_site_fract_y
 _atom_site_fract_z
 _atom_site_occupancy
  Li  Li0  1  0.78113600  0.16257800  0.03198500  1
  Li  Li1  1  0.88158900  0.78174200  0.75563500  1
  Li  Li2  1  0.74587000  0.71093600  0.56730700  1
  Li  Li3  1  0.67615200  0.54997500  0.30872900  1
  Li  Li4  1  0.56800500  0.46433300  0.11953800  1
  Li  Li5  1  0.67756900  0.07923300  0.83733600  1
  Li  Li6  1  0.50803200  0.15790700  0.59908500  1
  Li  Li7  1  0.49196800  0.84209300  0.40091500  1
  Li  Li8  1  0.32243100  0.92076700  0.16266400  1
  Li  Li9  1  0.43199500  0.53566700  0.88046200  1
  Li  Li10  1  0.32384800  0.45002500  0.69127100  1
  Li  Li11  1  0.25413000  0.28906400  0.43269300  1
  Li  Li12  1  0.11841100  0.21825800  0.24436500  1
  Li  Li13  1  0.21886400  0.83742200  0.96801500  1
  Mn  Mn0  1  0.94564400  0.95699200  0.39157800  1
  Mn  Mn1  1  0.82853300  0.86059800  0.18633100  1
  Mn  Mn2  1  0.95160600  0.45654800  0.90072200  1
  Mn  Mn3  1  0.76400400  0.29959700  0.48783500  1
  Mn  Mn4  1  0.83416800  0.38072600  0.69373600  1
  Mn  Mn5  1  0.57378500  0.18246800  0.28354000  1
  Mn  Mn6  1  0.70176800  0.81210500  0.95959200  1
  Mn  Mn7  1  0.29823200  0.18789500  0.04040800  1
  Mn  Mn8  1  0.42621500  0.81753200  0.71646000  1
  Mn  Mn9  1  0.16583200  0.61927400  0.30626400  1
  Mn  Mn10  1  0.23599600  0.70040300  0.51216500  1
  Mn  Mn11  1  0.04839400  0.54345200  0.09927800  1
  Mn  Mn12  1  0.17146700  0.13940200  0.81366900  1
  Mn  Mn13  1  0.05435600  0.04300800  0.60842200  1
  F  F0  1  0.98776500  0.31979000  0.01854300  1
  F  F1  1  0.92536500  0.06616700  0.27449000  1
  F  F2  1  0.96260000  0.83436200  0.52030800  1
  F  F3  1  0.84530900  0.94592000  0.07156800  1
  F  F4  1  0.87827000  0.72645200  0.31150300  1
  F  F5  1  0.94069100  0.56131300  0.77953900  1
  F  F6  1  0.77179000  0.62806300  0.11964400  1
  F  F7  1  0.84455800  0.48944300  0.57580700  1
  F  F8  1  0.87004100  0.23396000  0.80752800  1
  F  F9  1  0.74983300  0.35986700  0.37035600  1
  F  F10  1  0.78503100  0.14592800  0.59815700  1
  F  F11  1  0.58377500  0.25280600  0.07667700  1
  F  F12  1  0.57870400  0.40292700  0.22600000  1
  F  F13  1  0.68639100  0.78975300  0.66783000  1
  F  F14  1  0.75867900  0.85564300  0.83859700  1
  F  F15  1  0.66542600  0.02500100  0.39664300  1
  F  F16  1  0.64013700  0.07015500  0.94206500  1
  F  F17  1  0.56807200  0.94622200  0.22377200  1
  F  F18  1  0.68608200  0.51970500  0.92619200  1
  F  F19  1  0.52319400  0.72651800  0.49794300  1
  F  F20  1  0.45625300  0.66033900  0.32750300  1
  F  F21  1  0.54374700  0.33966100  0.67249700  1
  F  F22  1  0.47680600  0.27348200  0.50205700  1
  F  F23  1  0.31391800  0.48029500  0.07380800  1
  F  F24  1  0.43192800  0.05377800  0.77622800  1
  F  F25  1  0.35986300  0.92984500  0.05793500  1
  F  F26  1  0.33457400  0.97499900  0.60335700  1
  F  F27  1  0.24132100  0.14435700  0.16140300  1
  F  F28  1  0.31360900  0.21024700  0.33217000  1
  F  F29  1  0.42129600  0.59707300  0.77400000  1
  F  F30  1  0.41622500  0.74719400  0.92332300  1
  F  F31  1  0.21496900  0.85407200  0.40184300  1
  F  F32  1  0.25016700  0.64013300  0.62964400  1
  F  F33  1  0.12995900  0.76604000  0.19247200  1
  F  F34  1  0.15544200  0.51055700  0.42419300  1
  F  F35  1  0.22821000  0.37193700  0.88035600  1
  F  F36  1  0.05930900  0.43868700  0.22046100  1
  F  F37  1  0.12173000  0.27354800  0.68849700  1
  F  F38  1  0.15469100  0.05408000  0.92843200  1
  F  F39  1  0.03740000  0.16563800  0.47969200  1
  F  F40  1  0.07463500  0.93383300  0.72551000  1
  F  F41  1  0.01223500  0.68021000  0.98145700  1
loop_
_geom_bond_atom_site_label_1
_geom_bond_atom_site_label_2
_geom_bond_distance
_geom_bond_site_symmetry_2
F0 Li0 1.928688 1_555
F0 Mn11 2.214057 1_655
F0 Mn2 2.257371 1_554
F0 Mn7 2.434674 1_655
F1 Li12 1.913589 1_655
F1 Mn0 2.143515 1_545
F1 Mn1 2.216142 1_545
F1 Mn5 2.675940 1_555
F2 Li2 2.032235 1_555
F2 Mn13 2.226423 1_665
F2 Mn10 2.236268 1_655
F2 Mn0 2.367105 1_555
F3 Li0 1.913390 1_565
F3 Mn1 2.057509 1_555
F3 Mn6 2.243813 1_554
F4 Li3 1.968458 1_555
F4 Mn9 2.220971 1_655
F4 Mn0 2.256704 1_555
F4 Mn1 2.357262 1_555
F5 Li1 1.862647 1_555
F5 Mn4 2.068343 1_555
F5 Mn2 2.194462 1_555
F6 Li4 1.911321 1_555
F6 Mn11 2.131997 1_655
F6 Mn1 2.147652 1_555
F7 Li2 1.921030 1_555
F7 Mn3 2.103628 1_555
F7 Mn4 2.172230 1_555
F8 Li5 1.922028 1_555
F8 Mn4 2.242166 1_555
F8 Mn12 2.253837 1_655
F8 Mn2 2.347855 1_555
F9 Li3 1.901384 1_555
F9 Mn3 2.015303 1_555
F9 Mn5 2.238591 1_555
F10 Li6 1.947530 1_555
F10 Mn13 2.068774 1_655
F10 Mn3 2.224347 1_555
F10 Mn4 2.424262 1_555
F11 Li0 1.805853 1_555
F11 Li4 1.832727 1_555
F11 Mn7 2.068386 1_555
F12 Li4 1.842234 1_555
F12 Li3 1.845288 1_555
F12 Mn5 2.026655 1_555
F13 Li2 1.871499 1_555
F13 Li1 1.881602 1_555
F13 Mn8 2.095956 1_555
F14 Li1 1.808736 1_555
F14 Li5 1.890837 1_565
F14 Mn6 2.132852 1_555
F15 Li7 1.884898 1_545
F15 Mn0 2.062061 1_545
F15 Mn5 2.323880 1_555
F15 Mn3 2.669148 1_555
F16 Li5 1.795701 1_555
F16 Li0 1.822000 1_556
F16 Mn6 2.139283 1_545
F17 Li8 1.895043 1_555
F17 Mn5 2.112963 1_565
F17 Mn1 2.122920 1_555
F18 Li9 1.859357 1_555
F18 Mn2 2.030948 1_555
F18 Mn6 2.388585 1_555
F19 Li2 1.835257 1_555
F19 Li7 1.871318 1_555
F19 Mn10 2.059618 1_555
F20 Li3 1.850951 1_555
F20 Li7 1.870020 1_555
F20 Mn9 2.039696 1_555
F21 Li10 1.850951 1_555
F21 Li6 1.870020 1_555
F21 Mn4 2.039696 1_555
F22 Li11 1.835257 1_555
F22 Li6 1.871318 1_555
F22 Mn3 2.059618 1_555
F23 Li4 1.859357 1_555
F23 Mn11 2.030948 1_555
F23 Mn7 2.388585 1_555
F24 Li5 1.895043 1_555
F24 Mn8 2.112963 1_545
F24 Mn12 2.122920 1_555
F25 Li8 1.795701 1_555
F25 Li13 1.822000 1_554
F25 Mn7 2.139283 1_565
F26 Li6 1.884898 1_565
F26 Mn13 2.062061 1_565
F26 Mn8 2.323880 1_555
F26 Mn10 2.669148 1_555
F27 Li12 1.808736 1_555
F27 Li8 1.890837 1_545
F27 Mn7 2.132852 1_555
F28 Li11 1.871499 1_555
F28 Li12 1.881602 1_555
F28 Mn5 2.095956 1_555
F29 Li9 1.842234 1_555
F29 Li10 1.845288 1_555
F29 Mn8 2.026655 1_555
F30 Li13 1.805853 1_555
F30 Li9 1.832727 1_555
F30 Mn6 2.068386 1_555
F31 Li7 1.947530 1_555
F31 Mn0 2.068774 1_455
F31 Mn10 2.224347 1_555
F31 Mn9 2.424262 1_555
F32 Li10 1.901384 1_555
F32 Mn10 2.015303 1_555
F32 Mn8 2.238591 1_555
F33 Li8 1.922028 1_555
F33 Mn9 2.242166 1_555
F33 Mn1 2.253837 1_455
F33 Mn11 2.347855 1_555
F34 Li11 1.921030 1_555
F34 Mn10 2.103628 1_555
F34 Mn9 2.172230 1_555
F35 Li9 1.911321 1_555
F35 Mn2 2.131997 1_455
F35 Mn12 2.147652 1_555
F36 Li12 1.862647 1_555
F36 Mn9 2.068343 1_555
F36 Mn11 2.194462 1_555
F37 Li10 1.968458 1_555
F37 Mn4 2.220971 1_455
F37 Mn13 2.256704 1_555
F37 Mn12 2.357262 1_555
F38 Li13 1.913390 1_545
F38 Mn12 2.057509 1_555
F38 Mn7 2.243813 1_556
F39 Li11 2.032235 1_555
F39 Mn0 2.226423 1_445
F39 Mn3 2.236268 1_455
F39 Mn13 2.367105 1_555
F40 Li1 1.913589 1_455
F40 Mn13 2.143515 1_565
F40 Mn12 2.216142 1_565
F40 Mn8 2.675940 1_555
F41 Li13 1.928688 1_555
F41 Mn2 2.214057 1_455
F41 Mn11 2.257371 1_556
F41 Mn6 2.434674 1_455
