# generated using pymatgen
data_Rb
_symmetry_space_group_name_H-M   'P 1'
_cell_length_a   8.21283751
_cell_length_b   8.18124982
_cell_length_c   12.68204634
_cell_angle_alpha   109.33159569
_cell_angle_beta   108.69805448
_cell_angle_gamma   90.40050684
_symmetry_Int_Tables_number   1
_chemical_formula_structural   Rb
_chemical_formula_sum   Rb8
_cell_volume   755.51704921
_cell_formula_units_Z   8
loop_
 _symmetry_equiv_pos_site_id
 _symmetry_equiv_pos_as_xyz
  1  'x, y, z'
loop_
 _atom_site_type_symbol
 _atom_site_label
 _atom_site_symmetry_multiplicity
 _atom_site_fract_x
 _atom_site_fract_y
 _atom_site_fract_z
 _atom_site_occupancy
  Rb  Rb0  1  0.43398788  0.68800980  0.87478105  1
  Rb  Rb1  1  0.05809479  0.81032779  0.12339075  1
  Rb  Rb2  1  0.30959711  0.06603618  0.62531187  1
  Rb  Rb3  1  0.55871449  0.31031610  0.12484886  1
  Rb  Rb4  1  0.68224910  0.93342892  0.37354204  1
  Rb  Rb5  1  0.18595362  0.44291994  0.37774665  1
  Rb  Rb6  1  0.93339042  0.18408246  0.87501222  1
  Rb  Rb7  1  0.80788158  0.55664380  0.62372054  1
loop_
_geom_bond_atom_site_label_1
_geom_bond_atom_site_label_2
_geom_bond_distance
_geom_bond_site_symmetry_2
Rb0 Rb2 4.913512 1_555
Rb0 Rb3 4.917514 1_566
Rb0 Rb1 4.966642 1_556
Rb0 Rb1 4.969158 1_656
Rb0 Rb7 4.977079 1_555
Rb0 Rb7 4.989376 1_455
Rb0 Rb2 5.006811 1_565
Rb0 Rb3 5.010429 1_556
Rb1 Rb6 4.939061 1_454
Rb1 Rb6 4.967234 1_464
Rb1 Rb4 4.974046 1_555
Rb1 Rb4 4.981307 1_455
Rb1 Rb5 4.983489 1_555
Rb1 Rb5 4.999212 1_565
Rb2 Rb5 4.915639 1_545
Rb2 Rb6 4.971040 1_555
Rb2 Rb4 4.975674 1_545
Rb2 Rb6 4.979695 1_455
Rb2 Rb5 4.980423 1_555
Rb2 Rb4 4.999886 1_445
Rb3 Rb4 4.918920 1_555
Rb3 Rb6 4.970275 1_554
Rb3 Rb6 4.980684 1_454
Rb3 Rb5 4.987385 1_555
Rb3 Rb4 4.991465 1_545
Rb3 Rb5 5.002552 1_655
Rb4 Rb7 4.923906 1_565
Rb4 Rb7 5.005410 1_555
Rb5 Rb7 4.947952 1_555
Rb5 Rb7 4.956519 1_455
Rb6 Rb7 4.955588 1_545
Rb6 Rb7 4.987792 1_555
