# generated using pymatgen
data_Li3V(BO3)2
_symmetry_space_group_name_H-M   'P 1'
_cell_length_a   8.08237495
_cell_length_b   8.35224704
_cell_length_c   8.38950465
_cell_angle_alpha   105.46478394
_cell_angle_beta   104.87387680
_cell_angle_gamma   77.02537771
_symmetry_Int_Tables_number   1
_chemical_formula_structural   Li3V(BO3)2
_chemical_formula_sum   'Li12 V4 B8 O24'
_cell_volume   520.09022096
_cell_formula_units_Z   4
loop_
 _symmetry_equiv_pos_site_id
 _symmetry_equiv_pos_as_xyz
  1  'x, y, z'
loop_
 _atom_site_type_symbol
 _atom_site_label
 _atom_site_symmetry_multiplicity
 _atom_site_fract_x
 _atom_site_fract_y
 _atom_site_fract_z
 _atom_site_occupancy
  Li  Li0  1  0.11585200  0.54593300  0.29387600  1
  Li  Li1  1  0.11585100  0.04578000  0.79373800  1
  Li  Li2  1  0.88414500  0.45422300  0.70626100  1
  Li  Li3  1  0.88414700  0.95406700  0.20612400  1
  Li  Li4  1  0.42497400  0.53248700  0.13296300  1
  Li  Li5  1  0.42506900  0.03262600  0.63283700  1
  Li  Li6  1  0.57493400  0.46737500  0.86716200  1
  Li  Li7  1  0.57502800  0.96751500  0.36703700  1
  Li  Li8  1  0.72789400  0.66127400  0.18791700  1
  Li  Li9  1  0.72804100  0.16140500  0.68787100  1
  Li  Li10  1  0.27195500  0.33859600  0.81213300  1
  Li  Li11  1  0.27210200  0.83872600  0.31208700  1
  V  V0  1  0.78072700  0.84586900  0.79300100  1
  V  V1  1  0.21928400  0.65412700  0.70700100  1
  V  V2  1  0.78099900  0.34577400  0.29311000  1
  V  V3  1  0.21900700  0.15422300  0.20688900  1
  B  B0  1  0.59682000  0.17261100  0.98798500  1
  B  B1  1  0.59684600  0.67266200  0.48800300  1
  B  B2  1  0.40315300  0.82733600  0.01199600  1
  B  B3  1  0.40318000  0.32738800  0.51201400  1
  B  B4  1  0.07652900  0.66774700  0.99864500  1
  B  B5  1  0.07659300  0.16765300  0.49880000  1
  B  B6  1  0.92340600  0.33234700  0.00120000  1
  B  B7  1  0.92347100  0.83225400  0.50135700  1
  O  O0  1  0.28967600  0.85466500  0.86018300  1
  O  O1  1  0.28960700  0.35459100  0.36025300  1
  O  O2  1  0.71039100  0.14541000  0.13974700  1
  O  O3  1  0.71032000  0.64533600  0.63981900  1
  O  O4  1  0.07254700  0.20893700  0.00132400  1
  O  O5  1  0.07254000  0.70895600  0.50156800  1
  O  O6  1  0.92746000  0.79104600  0.99843600  1
  O  O7  1  0.92745000  0.29106200  0.49867900  1
  O  O8  1  0.61163500  0.54661300  0.34136300  1
  O  O9  1  0.61142600  0.04640700  0.84129200  1
  O  O10  1  0.38857900  0.45359200  0.65870800  1
  O  O11  1  0.38837000  0.95338500  0.15863600  1
  O  O12  1  0.48366500  0.31902100  0.98133400  1
  O  O13  1  0.48376100  0.81906100  0.48148800  1
  O  O14  1  0.51623500  0.68093500  0.01850800  1
  O  O15  1  0.51633200  0.18097600  0.51866300  1
  O  O16  1  0.18896600  0.64624400  0.14452000  1
  O  O17  1  0.18904200  0.14611900  0.64450100  1
  O  O18  1  0.81095900  0.35387900  0.85549800  1
  O  O19  1  0.81103500  0.85375800  0.35548100  1
  O  O20  1  0.89721500  0.43414700  0.16183500  1
  O  O21  1  0.89706600  0.93417300  0.66184100  1
  O  O22  1  0.10293200  0.56583100  0.83815800  1
  O  O23  1  0.10278300  0.06585700  0.33816300  1
loop_
_geom_bond_atom_site_label_1
_geom_bond_atom_site_label_2
_geom_bond_distance
_geom_bond_site_symmetry_2
Li0 O16 1.945129 1_555
Li0 O5 1.961240 1_555
Li0 O1 1.975264 1_555
Li0 O20 2.099012 1_455
Li1 O17 1.944803 1_555
Li1 O4 1.961026 1_556
Li1 O0 1.974329 1_545
Li1 O21 2.099007 1_445
Li2 O18 1.944808 1_555
Li2 O7 1.961017 1_555
Li2 O3 1.974309 1_555
Li2 O22 2.099024 1_655
Li3 O19 1.945116 1_555
Li3 O6 1.961210 1_554
Li3 O2 1.975274 1_565
Li3 O23 2.099018 1_665
Li4 O12 1.934563 1_554
Li4 O16 1.944920 1_555
Li4 O8 1.990618 1_555
Li4 O14 2.100610 1_555
Li5 O13 1.934023 1_545
Li5 O17 1.944649 1_555
Li5 O9 1.989603 1_555
Li5 O15 2.098312 1_555
Li6 O14 1.933994 1_556
Li6 O18 1.944641 1_555
Li6 O10 1.989589 1_555
Li6 O12 2.098355 1_555
Li7 O15 1.934531 1_565
Li7 O19 1.944911 1_555
Li7 O11 1.990610 1_555
Li7 O13 2.100655 1_555
Li8 O14 1.929653 1_555
Li8 O19 1.951220 1_555
Li8 O20 2.070270 1_555
Li8 O8 2.267131 1_555
Li9 O15 1.928969 1_555
Li9 O18 1.950759 1_555
Li9 O21 2.069753 1_545
Li9 O9 2.270729 1_555
Li10 O12 1.928946 1_555
Li10 O17 1.950780 1_555
Li10 O22 2.069763 1_555
Li10 O10 2.270792 1_555
Li11 O13 1.929620 1_555
Li11 O16 1.951205 1_555
Li11 O23 2.070285 1_565
Li11 O11 2.267200 1_555
B0 O12 1.357535 1_555
B0 O9 1.402324 1_555
B0 O2 1.405659 1_556
B1 O13 1.357081 1_555
B1 O8 1.401577 1_555
B1 O3 1.405980 1_555
B2 O14 1.357080 1_555
B2 O11 1.401570 1_555
B2 O0 1.405976 1_554
B3 O15 1.357534 1_555
B3 O10 1.402324 1_555
B3 O1 1.405663 1_555
B4 O16 1.352329 1_556
B4 O6 1.398172 1_455
B4 O22 1.427470 1_555
B5 O17 1.351306 1_555
B5 O7 1.399106 1_455
B5 O23 1.427751 1_555
B6 O18 1.351302 1_554
B6 O4 1.399098 1_655
B6 O20 1.427750 1_555
B7 O19 1.352334 1_555
B7 O5 1.398167 1_655
B7 O21 1.427461 1_555
O0 V1 1.919710 1_555
O1 V3 1.919721 1_555
O2 V2 1.919713 1_555
O3 V0 1.919717 1_555
O4 V3 1.927075 1_555
O5 V1 1.927275 1_555
O6 V0 1.927242 1_555
O7 V2 1.927072 1_555
O8 V2 1.934628 1_555
O9 V0 1.932751 1_545
O10 V1 1.932710 1_555
O11 V3 1.934618 1_565
O20 V2 1.978878 1_555
O21 V0 1.978463 1_555
O22 V1 1.978476 1_555
O23 V3 1.978880 1_555
