# generated using pymatgen
data_H8AuC2S2BrN4
_symmetry_space_group_name_H-M   'P 1'
_cell_length_a   9.32454274
_cell_length_b   9.32454274
_cell_length_c   6.95879155
_cell_angle_alpha   84.35973649
_cell_angle_beta   84.35973649
_cell_angle_gamma   122.15088068
_symmetry_Int_Tables_number   1
_chemical_formula_structural   H8AuC2S2BrN4
_chemical_formula_sum   'H16 Au2 C4 S4 Br2 N8'
_cell_volume   501.57474988
_cell_formula_units_Z   2
loop_
 _symmetry_equiv_pos_site_id
 _symmetry_equiv_pos_as_xyz
  1  'x, y, z'
loop_
 _atom_site_type_symbol
 _atom_site_label
 _atom_site_symmetry_multiplicity
 _atom_site_fract_x
 _atom_site_fract_y
 _atom_site_fract_z
 _atom_site_occupancy
  H  H0  1  0.72705800  0.69488700  0.23270700  1
  H  H1  1  0.30511300  0.27294200  0.26729300  1
  H  H2  1  0.27294200  0.30511300  0.76729300  1
  H  H3  1  0.69488700  0.72705800  0.73270700  1
  H  H4  1  0.68354800  0.52820900  0.41900000  1
  H  H5  1  0.47179100  0.31645200  0.08100000  1
  H  H6  1  0.31645200  0.47179100  0.58100000  1
  H  H7  1  0.52820900  0.68354800  0.91900000  1
  H  H8  1  0.04267900  0.51622700  0.23573500  1
  H  H9  1  0.48377300  0.95732100  0.26426500  1
  H  H10  1  0.95732100  0.48377300  0.76426500  1
  H  H11  1  0.51622700  0.04267900  0.73573500  1
  H  H12  1  0.84686200  0.41274500  0.40046100  1
  H  H13  1  0.58725500  0.15313800  0.09953900  1
  H  H14  1  0.15313800  0.58725500  0.59953900  1
  H  H15  1  0.41274500  0.84686200  0.90046100  1
  Au  Au0  1  0.00000000  0.00000000  0.00000000  1
  Au  Au1  1  0.00000000  0.00000000  0.50000000  1
  C  C0  1  0.89757400  0.62083100  0.20843200  1
  C  C1  1  0.37916900  0.10242600  0.29156800  1
  C  C2  1  0.10242600  0.37916900  0.79156800  1
  C  C3  1  0.62083100  0.89757400  0.70843200  1
  S  S0  1  0.04064600  0.77428200  0.00810700  1
  S  S1  1  0.22571800  0.95935400  0.49189300  1
  S  S2  1  0.95935400  0.22571800  0.99189300  1
  S  S3  1  0.77428200  0.04064600  0.50810700  1
  Br  Br0  1  0.37266400  0.62733600  0.25000000  1
  Br  Br1  1  0.62733600  0.37266400  0.75000000  1
  N  N0  1  0.75565200  0.61024200  0.28812200  1
  N  N1  1  0.38975800  0.24434800  0.21187800  1
  N  N2  1  0.24434800  0.38975800  0.71187800  1
  N  N3  1  0.61024200  0.75565200  0.78812200  1
  N  N4  1  0.92757400  0.50271000  0.28016000  1
  N  N5  1  0.49729000  0.07242600  0.21984000  1
  N  N6  1  0.07242600  0.49729000  0.71984000  1
  N  N7  1  0.50271000  0.92757400  0.78016000  1
loop_
_geom_bond_atom_site_label_1
_geom_bond_atom_site_label_2
_geom_bond_distance
_geom_bond_site_symmetry_2
H0 N0 1.013463 1_555
H1 N1 1.013463 1_555
H2 N2 1.013463 1_555
H3 N3 1.013463 1_555
H4 N0 1.030513 1_555
H5 N1 1.030513 1_555
H6 N2 1.030513 1_555
H7 N3 1.030513 1_555
H8 N4 1.023022 1_455
H9 N5 1.023022 1_565
H10 N6 1.023022 1_655
H11 N7 1.023022 1_545
H12 N4 1.018395 1_555
H13 N5 1.018395 1_555
H14 N6 1.018395 1_555
H15 N7 1.018395 1_555
Au0 S2 2.325192 1_454
Au0 S0 2.325192 1_545
Au1 S1 2.325192 1_545
Au1 S3 2.325192 1_455
C0 N0 1.332090 1_555
C0 N4 1.337098 1_555
C0 S0 1.726604 1_655
C1 N1 1.332090 1_555
C1 N5 1.337098 1_555
C1 S1 1.726604 1_545
C2 N2 1.332090 1_555
C2 N6 1.337098 1_555
C2 S2 1.726604 1_455
C3 N3 1.332090 1_555
C3 N7 1.337098 1_555
C3 S3 1.726604 1_565
