# generated using pymatgen
data_Li2Cr3(FeO6)2
_symmetry_space_group_name_H-M   'P 1'
_cell_length_a   9.11853300
_cell_length_b   9.12543300
_cell_length_c   12.61184000
_cell_angle_alpha   90.00000000
_cell_angle_beta   90.00000000
_cell_angle_gamma   90.00000000
_symmetry_Int_Tables_number   1
_chemical_formula_structural   Li2Cr3(FeO6)2
_chemical_formula_sum   'Li8 Cr12 Fe8 O48'
_cell_volume   1049.43829362
_cell_formula_units_Z   4
loop_
 _symmetry_equiv_pos_site_id
 _symmetry_equiv_pos_as_xyz
  1  'x, y, z'
loop_
 _atom_site_type_symbol
 _atom_site_label
 _atom_site_symmetry_multiplicity
 _atom_site_fract_x
 _atom_site_fract_y
 _atom_site_fract_z
 _atom_site_occupancy
  Li  Li0  1  0.27295400  0.21832100  0.18795000  1
  Li  Li1  1  0.77295400  0.78167900  0.18795000  1
  Li  Li2  1  0.77295400  0.28167900  0.31205000  1
  Li  Li3  1  0.27295400  0.71832100  0.31205000  1
  Li  Li4  1  0.72704600  0.28167900  0.68795000  1
  Li  Li5  1  0.22704600  0.71832100  0.68795000  1
  Li  Li6  1  0.22704600  0.21832100  0.81205000  1
  Li  Li7  1  0.72704600  0.78167900  0.81205000  1
  Cr  Cr0  1  0.25000000  0.46202800  0.00000000  1
  Cr  Cr1  1  0.75000000  0.53797200  0.00000000  1
  Cr  Cr2  1  0.60440400  0.10083900  0.14281900  1
  Cr  Cr3  1  0.10440400  0.89916100  0.14281900  1
  Cr  Cr4  1  0.10440400  0.39916100  0.35718100  1
  Cr  Cr5  1  0.60440400  0.60083900  0.35718100  1
  Cr  Cr6  1  0.75000000  0.03797200  0.50000000  1
  Cr  Cr7  1  0.25000000  0.96202800  0.50000000  1
  Cr  Cr8  1  0.39559600  0.39916100  0.64281900  1
  Cr  Cr9  1  0.89559600  0.60083900  0.64281900  1
  Cr  Cr10  1  0.89559600  0.10083900  0.85718100  1
  Cr  Cr11  1  0.39559600  0.89916100  0.85718100  1
  Fe  Fe0  1  0.96334300  0.24502100  0.12104000  1
  Fe  Fe1  1  0.46334300  0.75497900  0.12104000  1
  Fe  Fe2  1  0.96334300  0.74502100  0.37896000  1
  Fe  Fe3  1  0.46334300  0.25497900  0.37896000  1
  Fe  Fe4  1  0.03665700  0.25497900  0.62104000  1
  Fe  Fe5  1  0.53665700  0.74502100  0.62104000  1
  Fe  Fe6  1  0.53665700  0.24502100  0.87896000  1
  Fe  Fe7  1  0.03665700  0.75497900  0.87896000  1
  O  O0  1  0.56767900  0.14942500  0.01708900  1
  O  O1  1  0.06767900  0.85057500  0.01708900  1
  O  O2  1  0.36917900  0.56420700  0.06440000  1
  O  O3  1  0.86917900  0.43579300  0.06440000  1
  O  O4  1  0.16289700  0.35288300  0.08769800  1
  O  O5  1  0.66289700  0.64711700  0.08769800  1
  O  O6  1  0.10565000  0.08715000  0.16086200  1
  O  O7  1  0.60565000  0.91285000  0.16086200  1
  O  O8  1  0.77400300  0.17261100  0.17577300  1
  O  O9  1  0.27400300  0.82738900  0.17577300  1
  O  O10  1  0.97504600  0.82691800  0.22746800  1
  O  O11  1  0.47504600  0.17308200  0.22746800  1
  O  O12  1  0.97504600  0.32691800  0.27253200  1
  O  O13  1  0.47504600  0.67308200  0.27253200  1
  O  O14  1  0.77400300  0.67261100  0.32422700  1
  O  O15  1  0.27400300  0.32738900  0.32422700  1
  O  O16  1  0.60565000  0.41285000  0.33913800  1
  O  O17  1  0.10565000  0.58715000  0.33913800  1
  O  O18  1  0.66289700  0.14711700  0.41230200  1
  O  O19  1  0.16289700  0.85288300  0.41230200  1
  O  O20  1  0.36917900  0.06420700  0.43560000  1
  O  O21  1  0.86917900  0.93579300  0.43560000  1
  O  O22  1  0.56767900  0.64942500  0.48291100  1
  O  O23  1  0.06767900  0.35057500  0.48291100  1
  O  O24  1  0.43232100  0.35057500  0.51708900  1
  O  O25  1  0.93232100  0.64942500  0.51708900  1
  O  O26  1  0.13082100  0.06420700  0.56440000  1
  O  O27  1  0.63082100  0.93579300  0.56440000  1
  O  O28  1  0.83710300  0.14711700  0.58769800  1
  O  O29  1  0.33710300  0.85288300  0.58769800  1
  O  O30  1  0.89435000  0.41285000  0.66086200  1
  O  O31  1  0.39435000  0.58715000  0.66086200  1
  O  O32  1  0.22599700  0.32738900  0.67577300  1
  O  O33  1  0.72599700  0.67261100  0.67577300  1
  O  O34  1  0.52495400  0.32691800  0.72746800  1
  O  O35  1  0.02495400  0.67308200  0.72746800  1
  O  O36  1  0.02495400  0.17308200  0.77253200  1
  O  O37  1  0.52495400  0.82691800  0.77253200  1
  O  O38  1  0.72599700  0.17261100  0.82422700  1
  O  O39  1  0.22599700  0.82738900  0.82422700  1
  O  O40  1  0.39435000  0.08715000  0.83913800  1
  O  O41  1  0.89435000  0.91285000  0.83913800  1
  O  O42  1  0.33710300  0.35288300  0.91230200  1
  O  O43  1  0.83710300  0.64711700  0.91230200  1
  O  O44  1  0.63082100  0.43579300  0.93560000  1
  O  O45  1  0.13082100  0.56420700  0.93560000  1
  O  O46  1  0.93232100  0.14942500  0.98291100  1
  O  O47  1  0.43232100  0.85057500  0.98291100  1
loop_
_geom_bond_atom_site_label_1
_geom_bond_atom_site_label_2
_geom_bond_distance
_geom_bond_site_symmetry_2
Li0 O11 1.953118 1_555
Li0 O6 1.968973 1_555
Li0 O15 1.986112 1_555
Li0 O4 2.028194 1_555
Li1 O10 1.953118 1_555
Li1 O7 1.968973 1_555
Li1 O14 1.986112 1_555
Li1 O5 2.028194 1_555
Li2 O12 1.953118 1_555
Li2 O16 1.968973 1_555
Li2 O8 1.986112 1_555
Li2 O18 2.028194 1_555
Li3 O13 1.953118 1_555
Li3 O17 1.968973 1_555
Li3 O9 1.986112 1_555
Li3 O19 2.028194 1_555
Li4 O34 1.953118 1_555
Li4 O30 1.968973 1_555
Li4 O38 1.986112 1_555
Li4 O28 2.028194 1_555
Li5 O35 1.953118 1_555
Li5 O31 1.968973 1_555
Li5 O39 1.986112 1_555
Li5 O29 2.028194 1_555
Li6 O36 1.953118 1_555
Li6 O40 1.968973 1_555
Li6 O32 1.986112 1_555
Li6 O42 2.028194 1_555
Li7 O37 1.953118 1_555
Li7 O41 1.968973 1_555
Li7 O33 1.986112 1_555
Li7 O43 2.028194 1_555
Cr0 O2 1.646236 1_555
Cr0 O45 1.646236 1_554
Cr0 O4 1.687054 1_555
Cr0 O42 1.687054 1_554
Cr1 O44 1.646236 1_554
Cr1 O3 1.646236 1_555
Cr1 O5 1.687054 1_555
Cr1 O43 1.687054 1_554
Cr2 O0 1.680215 1_555
Cr2 O11 1.722117 1_555
Cr2 O8 1.730126 1_555
Cr2 O7 1.730545 1_545
Cr3 O1 1.680215 1_555
Cr3 O10 1.722117 1_455
Cr3 O9 1.730126 1_555
Cr3 O6 1.730545 1_565
Cr4 O23 1.680215 1_555
Cr4 O12 1.722117 1_455
Cr4 O15 1.730126 1_555
Cr4 O17 1.730545 1_555
Cr5 O22 1.680215 1_555
Cr5 O13 1.722117 1_555
Cr5 O14 1.730126 1_555
Cr5 O16 1.730545 1_555
Cr6 O27 1.646236 1_545
Cr6 O21 1.646236 1_545
Cr6 O18 1.687054 1_555
Cr6 O28 1.687054 1_555
Cr7 O20 1.646236 1_565
Cr7 O26 1.646236 1_565
Cr7 O19 1.687054 1_555
Cr7 O29 1.687054 1_555
Cr8 O24 1.680215 1_555
Cr8 O34 1.722117 1_555
Cr8 O32 1.730126 1_555
Cr8 O31 1.730545 1_555
Cr9 O25 1.680215 1_555
Cr9 O35 1.722117 1_655
Cr9 O33 1.730126 1_555
Cr9 O30 1.730545 1_555
Cr10 O46 1.680215 1_555
Cr10 O36 1.722117 1_655
Cr10 O38 1.730126 1_555
Cr10 O41 1.730545 1_545
Cr11 O47 1.680215 1_555
Cr11 O37 1.722117 1_555
Cr11 O39 1.730126 1_555
Cr11 O40 1.730545 1_565
Fe0 O46 1.968704 1_554
Fe0 O8 1.973303 1_555
Fe0 O6 2.002880 1_655
Fe0 O12 2.054332 1_555
Fe0 O3 2.068377 1_555
Fe0 O4 2.111098 1_655
Fe1 O47 1.968704 1_554
Fe1 O9 1.973303 1_555
Fe1 O7 2.002880 1_555
Fe1 O13 2.054332 1_555
Fe1 O2 2.068377 1_555
Fe1 O5 2.111098 1_555
Fe2 O25 1.968704 1_555
Fe2 O14 1.973303 1_555
Fe2 O17 2.002880 1_655
Fe2 O10 2.054332 1_555
Fe2 O21 2.068377 1_555
Fe2 O19 2.111098 1_655
Fe3 O24 1.968704 1_555
Fe3 O15 1.973303 1_555
Fe3 O16 2.002880 1_555
Fe3 O11 2.054332 1_555
Fe3 O20 2.068377 1_555
Fe3 O18 2.111098 1_555
Fe4 O23 1.968704 1_555
Fe4 O32 1.973303 1_555
Fe4 O30 2.002880 1_455
Fe4 O36 2.054332 1_555
Fe4 O26 2.068377 1_555
Fe4 O28 2.111098 1_455
Fe5 O22 1.968704 1_555
Fe5 O33 1.973303 1_555
Fe5 O31 2.002880 1_555
Fe5 O37 2.054332 1_555
Fe5 O27 2.068377 1_555
Fe5 O29 2.111098 1_555
Fe6 O0 1.968704 1_556
Fe6 O38 1.973303 1_555
Fe6 O40 2.002880 1_555
Fe6 O34 2.054332 1_555
Fe6 O44 2.068377 1_555
Fe6 O42 2.111098 1_555
Fe7 O1 1.968704 1_556
Fe7 O39 1.973303 1_555
Fe7 O41 2.002880 1_455
Fe7 O35 2.054332 1_555
Fe7 O45 2.068377 1_555
Fe7 O43 2.111098 1_455
