# generated using pymatgen
data_Li2Mn3O6
_symmetry_space_group_name_H-M   'P 1'
_cell_length_a   5.39271030
_cell_length_b   6.55869456
_cell_length_c   6.55869199
_cell_angle_alpha   82.04760870
_cell_angle_beta   96.05634754
_cell_angle_gamma   96.05619712
_symmetry_Int_Tables_number   1
_chemical_formula_structural   Li2Mn3O6
_chemical_formula_sum   'Li4 Mn6 O12'
_cell_volume   227.48682688
_cell_formula_units_Z   2
loop_
 _symmetry_equiv_pos_site_id
 _symmetry_equiv_pos_as_xyz
  1  'x, y, z'
loop_
 _atom_site_type_symbol
 _atom_site_label
 _atom_site_symmetry_multiplicity
 _atom_site_fract_x
 _atom_site_fract_y
 _atom_site_fract_z
 _atom_site_occupancy
  Li  Li0  1  0.74998400  0.25569400  0.24430700  1
  Li  Li1  1  0.25001900  0.75569400  0.74430500  1
  Li  Li2  1  0.74999000  0.91102100  0.58899000  1
  Li  Li3  1  0.25001400  0.41100900  0.08897900  1
  Mn  Mn0  1  0.49997000  0.83328000  0.16670400  1
  Mn  Mn1  1  0.00000000  0.00031600  0.99968600  1
  Mn  Mn2  1  0.00000200  0.66637500  0.33362800  1
  Mn  Mn3  1  0.00002000  0.33340800  0.66660300  1
  Mn  Mn4  1  0.49999900  0.50032700  0.49967600  1
  Mn  Mn5  1  0.50000000  0.16629300  0.83371200  1
  O  O0  1  0.84219000  0.93172400  0.26510700  1
  O  O1  1  0.34220400  0.43175800  0.76508400  1
  O  O2  1  0.65780100  0.23492000  0.56824400  1
  O  O3  1  0.15780200  0.73488800  0.06826900  1
  O  O4  1  0.09582800  0.38840900  0.38589900  1
  O  O5  1  0.59581300  0.88837400  0.88593700  1
  O  O6  1  0.90422000  0.27830100  0.94744500  1
  O  O7  1  0.40421000  0.77829400  0.44747400  1
  O  O8  1  0.59578700  0.55252500  0.22170300  1
  O  O9  1  0.09578400  0.05255600  0.72170300  1
  O  O10  1  0.40418400  0.11406100  0.11162300  1
  O  O11  1  0.90417700  0.61410200  0.61159500  1
loop_
_geom_bond_atom_site_label_1
_geom_bond_atom_site_label_2
_geom_bond_distance
_geom_bond_site_symmetry_2
Li0 O10 2.147886 1_555
Li0 O4 2.148040 1_655
Li0 O8 2.176988 1_555
Li0 O6 2.177274 1_554
Li0 O2 2.215424 1_555
Li0 O0 2.215658 1_545
Li1 O5 2.147848 1_555
Li1 O11 2.148020 1_455
Li1 O7 2.176977 1_555
Li1 O9 2.177274 1_565
Li1 O1 2.215417 1_555
Li1 O3 2.215635 1_556
Li2 O7 2.147603 1_555
Li2 O9 2.147677 1_665
Li2 O11 2.177496 1_555
Li2 O5 2.177616 1_555
Li2 O0 2.215152 1_555
Li2 O2 2.215208 1_565
Li3 O8 2.147566 1_555
Li3 O6 2.147662 1_454
Li3 O4 2.177504 1_555
Li3 O10 2.177605 1_555
Li3 O3 2.215142 1_555
Li3 O1 2.215183 1_554
Mn0 O7 1.940465 1_555
Mn0 O8 1.940480 1_555
Mn0 O10 1.940598 1_565
Mn0 O5 1.940620 1_554
Mn0 O3 1.962321 1_555
Mn0 O0 1.962601 1_555
Mn1 O9 1.922708 1_555
Mn1 O6 1.922712 1_455
Mn1 O0 1.993036 1_446
Mn1 O3 1.993050 1_546
Mn1 O10 2.305899 1_556
Mn1 O5 2.305929 1_445
Mn2 O4 1.922684 1_555
Mn2 O11 1.922690 1_455
Mn2 O0 1.992592 1_455
Mn2 O3 1.992617 1_555
Mn2 O7 2.306159 1_555
Mn2 O8 2.306209 1_455
Mn3 O4 1.940146 1_555
Mn3 O11 1.940149 1_455
Mn3 O9 1.941003 1_555
Mn3 O6 1.941010 1_455
Mn3 O1 1.962403 1_555
Mn3 O2 1.962597 1_455
Mn4 O7 1.922612 1_555
Mn4 O8 1.922648 1_555
Mn4 O1 1.992911 1_555
Mn4 O2 1.992922 1_555
Mn4 O4 2.305861 1_555
Mn4 O11 2.305892 1_555
Mn5 O10 1.922318 1_556
Mn5 O5 1.922361 1_545
Mn5 O1 1.993267 1_555
Mn5 O2 1.993299 1_555
Mn5 O9 2.306161 1_555
Mn5 O6 2.306171 1_555
