# generated using pymatgen
data_Mn8O13F3
_symmetry_space_group_name_H-M   'P 1'
_cell_length_a   4.50394000
_cell_length_b   5.52638650
_cell_length_c   9.96264390
_cell_angle_alpha   89.86930820
_cell_angle_beta   89.69159783
_cell_angle_gamma   87.85910570
_symmetry_Int_Tables_number   1
_chemical_formula_structural   Mn8O13F3
_chemical_formula_sum   'Mn8 O13 F3'
_cell_volume   247.79810271
_cell_formula_units_Z   1
loop_
 _symmetry_equiv_pos_site_id
 _symmetry_equiv_pos_as_xyz
  1  'x, y, z'
loop_
 _atom_site_type_symbol
 _atom_site_label
 _atom_site_symmetry_multiplicity
 _atom_site_fract_x
 _atom_site_fract_y
 _atom_site_fract_z
 _atom_site_occupancy
  Mn  Mn0  1  0.99118300  0.15585700  0.62251600  1
  Mn  Mn1  1  0.01704600  0.85727100  0.36561900  1
  Mn  Mn2  1  0.01475400  0.16525800  0.12673800  1
  Mn  Mn3  1  0.00783400  0.85527400  0.86909500  1
  Mn  Mn4  1  0.51375000  0.35630500  0.88421900  1
  Mn  Mn5  1  0.50439600  0.35791500  0.37729100  1
  Mn  Mn6  1  0.49183600  0.63869400  0.13021600  1
  Mn  Mn7  1  0.49518300  0.65238800  0.62619000  1
  O  O0  1  0.23409000  0.10864800  0.45772200  1
  O  O1  1  0.23206300  0.11188300  0.96109300  1
  O  O2  1  0.23755600  0.88589100  0.20781400  1
  O  O3  1  0.21928500  0.88606600  0.70806800  1
  O  O4  1  0.28011800  0.39593600  0.21519500  1
  O  O5  1  0.25768200  0.61010900  0.46048300  1
  O  O6  1  0.26518700  0.61093200  0.96384800  1
  O  O7  1  0.73344700  0.39050700  0.04096800  1
  O  O8  1  0.73364800  0.60964200  0.28830400  1
  O  O9  1  0.71793600  0.38444700  0.54136600  1
  O  O10  1  0.73260800  0.60970100  0.79108800  1
  O  O11  1  0.77152900  0.11404100  0.28606600  1
  O  O12  1  0.75755500  0.10905200  0.79023000  1
  F  F0  1  0.26504200  0.37923800  0.72601800  1
  F  F1  1  0.76028200  0.87561000  0.03657100  1
  F  F2  1  0.76599100  0.87933300  0.52328100  1
loop_
_geom_bond_atom_site_label_1
_geom_bond_atom_site_label_2
_geom_bond_distance
_geom_bond_site_symmetry_2
Mn0 O9 1.911538 1_555
Mn0 O3 1.973346 1_645
Mn0 O0 1.980337 1_655
Mn0 O12 1.991328 1_555
Mn1 O2 1.864633 1_555
Mn1 O11 1.936901 1_465
Mn1 O5 1.956553 1_555
Mn1 O0 1.960717 1_565
Mn1 O8 2.059416 1_455
Mn2 O1 1.931730 1_554
Mn2 O7 1.942666 1_455
Mn2 O11 1.949918 1_455
Mn2 O2 1.982498 1_545
Mn2 O4 1.990113 1_555
Mn3 O3 1.871898 1_555
Mn3 O12 1.934252 1_465
Mn3 O6 1.986718 1_555
Mn3 O1 1.998485 1_565
Mn3 O10 2.030582 1_455
Mn4 O7 1.866949 1_556
Mn4 O6 1.934066 1_555
Mn4 O12 1.957638 1_555
Mn4 O10 1.970000 1_555
Mn4 O1 2.033125 1_555
Mn5 O9 1.909723 1_555
Mn5 O4 1.916401 1_555
Mn5 O5 1.934882 1_555
Mn5 O8 1.969570 1_555
Mn5 O11 1.990638 1_555
Mn5 O0 2.032646 1_555
Mn6 O4 1.872852 1_555
Mn6 O2 1.911523 1_555
Mn6 O8 1.922686 1_555
Mn6 O7 1.933810 1_555
Mn6 O6 1.960578 1_554
Mn7 O3 1.936808 1_555
Mn7 O9 1.949073 1_555
Mn7 O10 1.973907 1_555
Mn7 O5 1.990899 1_555
F0 Mn4 1.939694 1_555
F0 Mn0 2.059585 1_455
F0 Mn7 2.107414 1_555
F1 Mn3 2.002782 1_654
F1 Mn6 2.036426 1_555
F1 Mn2 2.199438 1_665
F2 Mn1 1.931859 1_655
F2 Mn7 2.051036 1_555
F2 Mn0 2.115405 1_565
