# generated using pymatgen
data_Li3Fe(PO4)2
_symmetry_space_group_name_H-M   'P 1'
_cell_length_a   5.09208700
_cell_length_b   12.81801100
_cell_length_c   19.67860897
_cell_angle_alpha   71.02293154
_cell_angle_beta   90.00000000
_cell_angle_gamma   90.00000000
_symmetry_Int_Tables_number   1
_chemical_formula_structural   Li3Fe(PO4)2
_chemical_formula_sum   'Li24 Fe8 P16 O64'
_cell_volume   1214.62083871
_cell_formula_units_Z   8
loop_
 _symmetry_equiv_pos_site_id
 _symmetry_equiv_pos_as_xyz
  1  'x, y, z'
loop_
 _atom_site_type_symbol
 _atom_site_label
 _atom_site_symmetry_multiplicity
 _atom_site_fract_x
 _atom_site_fract_y
 _atom_site_fract_z
 _atom_site_occupancy
  Li  Li0  1  0.70222300  0.18356000  0.96712300  1
  Li  Li1  1  0.19983500  0.28557500  0.88148200  1
  Li  Li2  1  0.79777700  0.68356000  0.96712300  1
  Li  Li3  1  0.79164900  0.43301000  0.81433700  1
  Li  Li4  1  0.28672000  0.25135200  0.67874100  1
  Li  Li5  1  0.30016500  0.78557500  0.88148200  1
  Li  Li6  1  0.69005500  0.17329100  0.61765900  1
  Li  Li7  1  0.70835100  0.93301000  0.81433700  1
  Li  Li8  1  0.20243300  0.14790600  0.53686200  1
  Li  Li9  1  0.21328000  0.75135200  0.67874100  1
  Li  Li10  1  0.80994500  0.67329100  0.61765900  1
  Li  Li11  1  0.70243300  0.35209400  0.46313800  1
  Li  Li12  1  0.29756700  0.64790600  0.53686200  1
  Li  Li13  1  0.19005500  0.32670900  0.38234100  1
  Li  Li14  1  0.78672000  0.24864800  0.32125900  1
  Li  Li15  1  0.79756700  0.85209400  0.46313800  1
  Li  Li16  1  0.29164900  0.06699000  0.18566300  1
  Li  Li17  1  0.30994500  0.82670900  0.38234100  1
  Li  Li18  1  0.69983500  0.21442500  0.11851800  1
  Li  Li19  1  0.71328000  0.74864800  0.32125900  1
  Li  Li20  1  0.20835100  0.56699000  0.18566300  1
  Li  Li21  1  0.20222300  0.31644000  0.03287700  1
  Li  Li22  1  0.80016500  0.71442500  0.11851800  1
  Li  Li23  1  0.29777700  0.81644000  0.03287700  1
  Fe  Fe0  1  0.21102700  0.02634600  0.85927700  1
  Fe  Fe1  1  0.28897300  0.52634600  0.85927700  1
  Fe  Fe2  1  0.77273900  0.38619200  0.63841600  1
  Fe  Fe3  1  0.27273900  0.11380800  0.36158400  1
  Fe  Fe4  1  0.72726100  0.88619200  0.63841600  1
  Fe  Fe5  1  0.22726100  0.61380800  0.36158400  1
  Fe  Fe6  1  0.71102700  0.47365400  0.14072300  1
  Fe  Fe7  1  0.78897300  0.97365400  0.14072300  1
  P  P0  1  0.75968700  0.42497300  0.95744500  1
  P  P1  1  0.70265200  0.19489800  0.80018900  1
  P  P2  1  0.22310300  0.99448900  0.69802100  1
  P  P3  1  0.74031300  0.92497300  0.95744500  1
  P  P4  1  0.79734800  0.69489800  0.80018900  1
  P  P5  1  0.27689700  0.49448900  0.69802100  1
  P  P6  1  0.75059000  0.11462200  0.46127800  1
  P  P7  1  0.25059000  0.38537800  0.53872200  1
  P  P8  1  0.74941000  0.61462200  0.46127800  1
  P  P9  1  0.24941000  0.88537800  0.53872200  1
  P  P10  1  0.72310300  0.50551100  0.30197900  1
  P  P11  1  0.20265200  0.30510200  0.19981100  1
  P  P12  1  0.25968700  0.07502700  0.04255500  1
  P  P13  1  0.77689700  0.00551100  0.30197900  1
  P  P14  1  0.29734800  0.80510200  0.19981100  1
  P  P15  1  0.24031300  0.57502700  0.04255500  1
  O  O0  1  0.75832500  0.03507400  0.96969300  1
  O  O1  1  0.29169700  0.17999700  0.97682600  1
  O  O2  1  0.74167500  0.53507400  0.96969300  1
  O  O3  1  0.99760700  0.42487200  0.90508000  1
  O  O4  1  0.51246500  0.40355200  0.91482400  1
  O  O5  1  0.86693600  0.08897600  0.81153000  1
  O  O6  1  0.82179800  0.26979900  0.83862900  1
  O  O7  1  0.20830300  0.67999700  0.97682600  1
  O  O8  1  0.40936200  0.16686800  0.82521100  1
  O  O9  1  0.22693300  0.46816500  0.78049100  1
  O  O10  1  0.31764000  0.11028900  0.65433900  1
  O  O11  1  0.68486800  0.24913200  0.71625400  1
  O  O12  1  0.50239300  0.92487200  0.90508000  1
  O  O13  1  0.98753500  0.90355200  0.91482400  1
  O  O14  1  0.63306400  0.58897600  0.81153000  1
  O  O15  1  0.67820200  0.76979900  0.83862900  1
  O  O16  1  0.09063800  0.66686800  0.82521100  1
  O  O17  1  0.11897900  0.40197400  0.68154900  1
  O  O18  1  0.57752300  0.48256800  0.68403600  1
  O  O19  1  0.78193500  0.14921100  0.52883900  1
  O  O20  1  0.00511500  0.31966300  0.58173000  1
  O  O21  1  0.49086000  0.33110400  0.58977300  1
  O  O22  1  0.74018500  0.99328600  0.47143800  1
  O  O23  1  0.27306700  0.96816500  0.78049100  1
  O  O24  1  0.18236000  0.61028900  0.65433900  1
  O  O25  1  0.81513200  0.74913200  0.71625400  1
  O  O26  1  0.38102100  0.90197400  0.68154900  1
  O  O27  1  0.24018500  0.50671400  0.52856200  1
  O  O28  1  0.92247700  0.98256800  0.68403600  1
  O  O29  1  0.99086000  0.16889600  0.41022700  1
  O  O30  1  0.50511500  0.18033700  0.41827000  1
  O  O31  1  0.28193500  0.35078900  0.47116100  1
  O  O32  1  0.71806500  0.64921100  0.52883900  1
  O  O33  1  0.49488500  0.81966300  0.58173000  1
  O  O34  1  0.00914000  0.83110400  0.58977300  1
  O  O35  1  0.07752300  0.01743200  0.31596400  1
  O  O36  1  0.75981500  0.49328600  0.47143800  1
  O  O37  1  0.61897900  0.09802600  0.31845100  1
  O  O38  1  0.18486800  0.25086800  0.28374600  1
  O  O39  1  0.81764000  0.38971100  0.34566100  1
  O  O40  1  0.72693300  0.03183500  0.21950900  1
  O  O41  1  0.25981500  0.00671400  0.52856200  1
  O  O42  1  0.50914000  0.66889600  0.41022700  1
  O  O43  1  0.99488500  0.68033700  0.41827000  1
  O  O44  1  0.21806500  0.85078900  0.47116100  1
  O  O45  1  0.42247700  0.51743200  0.31596400  1
  O  O46  1  0.88102100  0.59802600  0.31845100  1
  O  O47  1  0.90936200  0.33313200  0.17478900  1
  O  O48  1  0.32179800  0.23020100  0.16137100  1
  O  O49  1  0.36693600  0.41102400  0.18847000  1
  O  O50  1  0.01246500  0.09644800  0.08517600  1
  O  O51  1  0.49760700  0.07512800  0.09492000  1
  O  O52  1  0.31513200  0.75086800  0.28374600  1
  O  O53  1  0.68236000  0.88971100  0.34566100  1
  O  O54  1  0.77306700  0.53183500  0.21950900  1
  O  O55  1  0.59063800  0.83313200  0.17478900  1
  O  O56  1  0.79169700  0.32000300  0.02317400  1
  O  O57  1  0.17820200  0.73020100  0.16137100  1
  O  O58  1  0.13306400  0.91102400  0.18847000  1
  O  O59  1  0.48753500  0.59644800  0.08517600  1
  O  O60  1  0.00239300  0.57512800  0.09492000  1
  O  O61  1  0.25832500  0.46492600  0.03030700  1
  O  O62  1  0.70830300  0.82000300  0.02317400  1
  O  O63  1  0.24167500  0.96492600  0.03030700  1
loop_
_geom_bond_atom_site_label_1
_geom_bond_atom_site_label_2
_geom_bond_distance
_geom_bond_site_symmetry_2
Li0 O0 1.908952 1_555
Li0 O1 2.098282 1_555
Li0 O56 2.395325 1_556
Li0 O6 2.483650 1_555
Li1 O1 1.979674 1_555
Li1 O6 2.137416 1_455
Li1 O3 2.236820 1_455
Li1 O8 2.403245 1_555
Li1 O4 2.428358 1_555
Li1 O9 2.534009 1_555
Li2 O2 1.908952 1_555
Li2 O7 2.098282 1_655
Li2 O62 2.395325 1_556
Li2 O15 2.483650 1_555
Li3 O6 1.994567 1_555
Li3 O3 2.044097 1_555
Li3 O14 2.140100 1_555
Li3 O9 2.316109 1_655
Li3 O4 2.363953 1_555
Li3 O18 2.666055 1_555
Li4 O21 2.006676 1_555
Li4 O10 2.022246 1_555
Li4 O17 2.128266 1_555
Li4 O11 2.154637 1_555
Li4 O20 2.319527 1_555
Li5 O7 1.979674 1_555
Li5 O15 2.137416 1_555
Li5 O12 2.236820 1_555
Li5 O16 2.403245 1_555
Li5 O13 2.428358 1_455
Li5 O23 2.534009 1_555
Li6 O19 1.928738 1_555
Li6 O10 2.095298 1_555
Li6 O21 2.167934 1_555
Li6 O20 2.393968 1_655
Li6 O11 2.436569 1_555
Li6 O28 2.646989 1_545
Li7 O15 1.994567 1_555
Li7 O12 2.044097 1_555
Li7 O5 2.140100 1_565
Li7 O23 2.316109 1_555
Li7 O13 2.363953 1_555
Li7 O28 2.666055 1_555
Li8 O41 1.892005 1_555
Li8 O19 2.146690 1_455
Li8 O10 2.279478 1_555
Li8 O31 2.532120 1_555
Li9 O34 2.006676 1_555
Li9 O24 2.022246 1_555
Li9 O26 2.128266 1_555
Li9 O25 2.154637 1_455
Li9 O33 2.319527 1_555
Li10 O32 1.928738 1_555
Li10 O24 2.095298 1_655
Li10 O34 2.167934 1_655
Li10 O33 2.393968 1_555
Li10 O25 2.436569 1_555
Li10 O18 2.646989 1_555
Li11 O36 1.892005 1_555
Li11 O31 2.146690 1_555
Li11 O39 2.279478 1_555
Li11 O19 2.532120 1_555
Li12 O27 1.892005 1_555
Li12 O32 2.146690 1_555
Li12 O24 2.279478 1_555
Li12 O44 2.532120 1_555
Li13 O31 1.928738 1_555
Li13 O39 2.095298 1_455
Li13 O29 2.167934 1_455
Li13 O30 2.393968 1_555
Li13 O38 2.436569 1_555
Li13 O45 2.646989 1_555
Li14 O29 2.006676 1_555
Li14 O39 2.022246 1_555
Li14 O37 2.128266 1_555
Li14 O38 2.154637 1_655
Li14 O30 2.319527 1_555
Li15 O22 1.892005 1_555
Li15 O44 2.146690 1_655
Li15 O53 2.279478 1_555
Li15 O32 2.532120 1_555
Li16 O48 1.994567 1_555
Li16 O51 2.044097 1_555
Li16 O58 2.140100 1_545
Li16 O40 2.316109 1_555
Li16 O50 2.363953 1_555
Li16 O35 2.666055 1_555
Li17 O44 1.928738 1_555
Li17 O53 2.095298 1_555
Li17 O42 2.167934 1_555
Li17 O43 2.393968 1_455
Li17 O52 2.436569 1_555
Li17 O35 2.646989 1_565
Li18 O56 1.979674 1_555
Li18 O48 2.137416 1_555
Li18 O51 2.236820 1_555
Li18 O47 2.403245 1_555
Li18 O50 2.428358 1_655
Li18 O40 2.534009 1_555
Li19 O42 2.006676 1_555
Li19 O53 2.022246 1_555
Li19 O46 2.128266 1_555
Li19 O52 2.154637 1_555
Li19 O43 2.319527 1_555
Li20 O57 1.994567 1_555
Li20 O60 2.044097 1_555
Li20 O49 2.140100 1_555
Li20 O54 2.316109 1_455
Li20 O59 2.363953 1_555
Li20 O45 2.666055 1_555
Li21 O61 1.908952 1_555
Li21 O56 2.098282 1_455
Li21 O1 2.395325 1_554
Li21 O48 2.483650 1_555
Li22 O62 1.979674 1_555
Li22 O57 2.137416 1_655
Li22 O60 2.236820 1_655
Li22 O55 2.403245 1_555
Li22 O59 2.428358 1_555
Li22 O54 2.534009 1_555
Li23 O63 1.908952 1_555
Li23 O62 2.098282 1_555
Li23 O7 2.395325 1_554
Li23 O57 2.483650 1_555
Fe0 O23 1.952356 1_545
Fe0 O13 1.961734 1_445
Fe0 O8 1.982024 1_555
Fe0 O12 1.985695 1_545
Fe0 O5 2.026507 1_455
Fe1 O9 1.952356 1_555
Fe1 O4 1.961734 1_555
Fe1 O16 1.982024 1_555
Fe1 O3 1.985695 1_455
Fe1 O14 2.026507 1_555
Fe2 O11 1.970466 1_555
Fe2 O21 1.978566 1_555
Fe2 O17 1.995375 1_655
Fe2 O20 1.997597 1_655
Fe2 O18 2.010336 1_555
Fe3 O38 1.970466 1_555
Fe3 O29 1.978566 1_455
Fe3 O37 1.995375 1_555
Fe3 O30 1.997597 1_555
Fe3 O35 2.010336 1_555
Fe4 O25 1.970466 1_555
Fe4 O34 1.978566 1_655
Fe4 O26 1.995375 1_555
Fe4 O33 1.997597 1_555
Fe4 O28 2.010336 1_555
Fe5 O52 1.970466 1_555
Fe5 O42 1.978566 1_555
Fe5 O46 1.995375 1_455
Fe5 O43 1.997597 1_455
Fe5 O45 2.010336 1_555
Fe6 O54 1.952356 1_555
Fe6 O59 1.961734 1_555
Fe6 O47 1.982024 1_555
Fe6 O60 1.985695 1_655
Fe6 O49 2.026507 1_555
Fe7 O40 1.952356 1_565
Fe7 O50 1.961734 1_665
Fe7 O55 1.982024 1_555
Fe7 O51 1.985695 1_565
Fe7 O58 2.026507 1_655
O0 P3 1.509779 1_545
O1 P12 1.542107 1_556
O2 P0 1.509779 1_555
O3 P0 1.590752 1_555
O4 P0 1.585368 1_555
O5 P1 1.547878 1_555
O6 P1 1.527872 1_555
O7 P15 1.542107 1_556
O8 P1 1.576991 1_555
O9 P5 1.567234 1_555
O10 P2 1.531025 1_545
O11 P1 1.572536 1_555
O12 P3 1.590752 1_555
O13 P3 1.585368 1_555
O14 P4 1.547878 1_555
O15 P4 1.527872 1_555
O16 P4 1.576991 1_455
O17 P5 1.551760 1_555
O18 P5 1.571569 1_555
O19 P6 1.540455 1_555
O20 P7 1.588902 1_555
O21 P7 1.592348 1_555
O22 P6 1.503149 1_565
O23 P2 1.567234 1_555
O24 P5 1.531025 1_555
O25 P4 1.572536 1_555
O26 P2 1.551760 1_555
O27 P7 1.503149 1_555
O28 P2 1.571569 1_655
O29 P6 1.592348 1_555
O30 P6 1.588902 1_555
O31 P7 1.540455 1_555
O32 P8 1.540455 1_555
O33 P9 1.588902 1_555
O34 P9 1.592348 1_555
O35 P13 1.571569 1_455
O36 P8 1.503149 1_555
O37 P13 1.551760 1_555
O38 P11 1.572536 1_555
O39 P10 1.531025 1_555
O40 P13 1.567234 1_555
O41 P9 1.503149 1_545
O42 P8 1.592348 1_555
O43 P8 1.588902 1_555
O44 P9 1.540455 1_555
O45 P10 1.571569 1_555
O46 P10 1.551760 1_555
O47 P11 1.576991 1_655
O48 P11 1.527872 1_555
O49 P11 1.547878 1_555
O50 P12 1.585368 1_555
O51 P12 1.590752 1_555
O52 P14 1.572536 1_555
O53 P13 1.531025 1_565
O54 P10 1.567234 1_555
O55 P14 1.576991 1_555
O56 P0 1.542107 1_554
O57 P14 1.527872 1_555
O58 P14 1.547878 1_555
O59 P15 1.585368 1_555
O60 P15 1.590752 1_555
O61 P15 1.509779 1_555
O62 P3 1.542107 1_554
O63 P12 1.509779 1_565
