# generated using pymatgen
data_Li3Ti3Fe(PO4)6
_symmetry_space_group_name_H-M   'P 1'
_cell_length_a   8.68655600
_cell_length_b   8.69115593
_cell_length_c   15.05167783
_cell_angle_alpha   106.47787433
_cell_angle_beta   90.09952752
_cell_angle_gamma   119.94936870
_symmetry_Int_Tables_number   1
_chemical_formula_structural   Li3Ti3Fe(PO4)6
_chemical_formula_sum   'Li6 Ti6 Fe2 P12 O48'
_cell_volume   930.01005690
_cell_formula_units_Z   2
loop_
 _symmetry_equiv_pos_site_id
 _symmetry_equiv_pos_as_xyz
  1  'x, y, z'
loop_
 _atom_site_type_symbol
 _atom_site_label
 _atom_site_symmetry_multiplicity
 _atom_site_fract_x
 _atom_site_fract_y
 _atom_site_fract_z
 _atom_site_occupancy
  Li  Li0  1  0.22815200  0.87970100  0.41188300  1
  Li  Li1  1  0.45590500  0.17632000  0.17901600  1
  Li  Li2  1  0.91511600  0.85683800  0.05581300  1
  Li  Li3  1  0.59589500  0.87094900  0.80352600  1
  Li  Li4  1  0.10186400  0.30799900  0.64299500  1
  Li  Li5  1  0.40063500  0.84713200  0.56352600  1
  Ti  Ti0  1  0.07443100  0.28281300  0.06749700  1
  Ti  Ti1  1  0.18277000  0.72083100  0.17835100  1
  Ti  Ti2  1  0.58017500  0.28451900  0.56751900  1
  Ti  Ti3  1  0.67254400  0.70310400  0.68496300  1
  Ti  Ti4  1  0.31920100  0.28974600  0.32217800  1
  Ti  Ti5  1  0.93278600  0.71821500  0.92674700  1
  Fe  Fe0  1  0.44299800  0.72315500  0.42505900  1
  Fe  Fe1  1  0.82219500  0.28167000  0.82138900  1
  P  P0  1  0.81357500  0.78842900  0.23084000  1
  P  P1  1  0.08909500  0.50878700  0.37592900  1
  P  P2  1  0.76242200  0.78489600  0.48632000  1
  P  P3  1  0.73992500  0.21196300  0.01661400  1
  P  P4  1  0.31491400  0.78723600  0.73100200  1
  P  P5  1  0.41137900  0.49923100  0.12514700  1
  P  P6  1  0.58777200  0.49521700  0.87603700  1
  P  P7  1  0.69764400  0.21311400  0.26380000  1
  P  P8  1  0.26928800  0.79083500  0.98178000  1
  P  P9  1  0.23111300  0.20151300  0.52000200  1
  P  P10  1  0.91238600  0.49550200  0.62609400  1
  P  P11  1  0.19460800  0.20844300  0.76772900  1
  O  O0  1  0.80664500  0.19061400  0.18403700  1
  O  O1  1  0.19550000  0.57038800  0.00438100  1
  O  O2  1  0.26901200  0.36658700  0.10256100  1
  O  O3  1  0.88704800  0.43504100  0.23853500  1
  O  O4  1  0.25020800  0.81598100  0.06005300  1
  O  O5  1  0.92037400  0.96642000  0.13618400  1
  O  O6  1  0.35794300  0.63322600  0.14673700  1
  O  O7  1  0.01037000  0.80671400  0.21902100  1
  O  O8  1  0.82015000  0.33492400  0.45830000  1
  O  O9  1  0.33173500  0.20814100  0.68305100  1
  O  O10  1  0.14552900  0.65201800  0.28929500  1
  O  O11  1  0.71315600  0.58010500  0.49814900  1
  O  O12  1  0.58922900  0.79121300  0.48463100  1
  O  O13  1  0.48063800  0.02719800  0.11345900  1
  O  O14  1  0.78561800  0.38061300  0.59485400  1
  O  O15  1  0.36863900  0.42068100  0.75393800  1
  O  O16  1  0.02491600  0.98012800  0.39453900  1
  O  O17  1  0.90090700  0.19773000  0.02609600  1
  O  O18  1  0.72820700  0.78843500  0.57064100  1
  O  O19  1  0.44043100  0.98192000  0.63556000  1
  O  O20  1  0.34750900  0.33263300  0.21071000  1
  O  O21  1  0.82293900  0.59729100  0.66326200  1
  O  O22  1  0.50620100  0.80640300  0.72740700  1
  O  O23  1  0.68368400  0.65890800  0.04440500  1
  O  O24  1  0.32092800  0.33361800  0.96189400  1
  O  O25  1  0.49069700  0.18493900  0.27598400  1
  O  O26  1  0.16890200  0.38668500  0.35613800  1
  O  O27  1  0.64247000  0.66680300  0.79687000  1
  O  O28  1  0.57515800  0.02862500  0.36020200  1
  O  O29  1  0.27414800  0.18898400  0.43621700  1
  O  O30  1  0.09977400  0.80107200  0.97756800  1
  O  O31  1  0.97391300  0.00662600  0.61421100  1
  O  O32  1  0.62685300  0.56885500  0.25062200  1
  O  O33  1  0.22391300  0.65494800  0.39776100  1
  O  O34  1  0.52319100  0.96667200  0.88505500  1
  O  O35  1  0.39603700  0.19746800  0.52976100  1
  O  O36  1  0.27480600  0.40611400  0.50795800  1
  O  O37  1  0.86867000  0.32831200  0.70096200  1
  O  O38  1  0.69701500  0.80295800  0.31192000  1
  O  O39  1  0.18413800  0.68723000  0.54042800  1
  O  O40  1  0.00826200  0.19296000  0.76885400  1
  O  O41  1  0.65254600  0.37528000  0.84648700  1
  O  O42  1  0.07620000  0.01621900  0.86060600  1
  O  O43  1  0.76826000  0.19575800  0.93647000  1
  O  O44  1  0.14814600  0.58629000  0.73824600  1
  O  O45  1  0.73250600  0.62245700  0.90044200  1
  O  O46  1  0.80051200  0.42349700  0.00270200  1
  O  O47  1  0.18547800  0.79276100  0.81498400  1
loop_
_geom_bond_atom_site_label_1
_geom_bond_atom_site_label_2
_geom_bond_distance
_geom_bond_site_symmetry_2
Li0 O33 1.885412 1_555
Li0 O10 2.083627 1_555
Li0 O16 2.369155 1_555
Li0 O29 2.426500 1_565
Li0 O35 2.468179 1_565
Li1 O25 1.463223 1_555
Li1 O13 1.500939 1_555
Li1 O20 1.967468 1_555
Li2 O5 1.294351 1_555
Li2 O23 1.846200 1_555
Li3 O22 1.195950 1_555
Li3 O34 1.595311 1_555
Li3 O27 1.984380 1_555
Li4 O31 2.175196 1_455
Li4 O44 2.264291 1_555
Li4 O37 2.274098 1_455
Li4 O40 2.348955 1_555
Li4 P9 2.370007 1_555
Li4 O15 2.431164 1_555
Li4 O36 2.613413 1_555
Li5 O19 1.241453 1_555
Li5 O39 1.644087 1_555
Li5 O12 2.191914 1_555
Fe0 O12 1.308570 1_555
Fe0 O33 1.695490 1_555
Fe0 O28 2.783938 1_565
Fe1 O37 1.966954 1_555
Fe1 O41 2.000250 1_555
Fe1 O43 2.040748 1_555
Fe1 O40 2.175979 1_655
O0 P7 1.559407 1_555
O1 P8 1.828036 1_554
O1 O4 1.858815 1_555
O1 Ti1 2.604166 1_555
O1 Ti0 2.642210 1_555
O2 P5 1.151814 1_555
O2 Ti0 1.488527 1_555
O3 P7 1.954874 1_555
O4 P8 1.163626 1_554
O4 Ti1 2.133720 1_555
O5 P0 2.259541 1_555
O6 P5 1.415224 1_555
O6 Ti1 2.018747 1_555
O7 P0 1.650769 1_455
O7 Ti1 2.008643 1_555
O9 P11 1.746379 1_555
O10 Ti1 1.904240 1_555
O10 P1 1.950410 1_555
O11 P2 1.674004 1_555
O12 P2 1.533024 1_555
O14 P10 1.031852 1_555
O14 Ti2 1.538155 1_555
O15 O9 1.715481 1_555
O15 P11 1.779041 1_555
O15 P6 2.345581 1_555
O16 O29 1.949625 1_565
O16 P9 2.227651 1_565
O17 Ti0 1.352620 1_655
O17 P3 1.474169 1_555
O18 P2 1.299374 1_555
O18 Ti3 2.028184 1_555
O20 Ti4 1.810810 1_555
O21 P10 1.451337 1_555
O21 Ti3 1.920887 1_555
O22 P4 1.587680 1_555
O22 Ti3 2.067640 1_555
O24 P5 2.363214 1_556
O24 Ti0 2.602351 1_556
O25 P7 1.706535 1_555
O25 Ti4 2.128756 1_555
O26 P1 1.500477 1_555
O26 Ti4 1.879346 1_555
O27 Ti3 1.796010 1_555
O28 P7 2.330294 1_555
O29 P9 1.306280 1_555
O29 Ti4 2.092666 1_555
O30 Ti5 1.359590 1_455
O32 O38 1.748540 1_555
O32 P0 1.895975 1_555
O32 P5 2.375901 1_555
O33 P1 1.170309 1_555
O35 Ti2 1.413679 1_555
O35 P9 1.458665 1_555
O36 P9 1.687665 1_555
O37 P10 1.976097 1_555
O38 P0 1.604678 1_555
O40 P11 1.556438 1_555
O41 P6 1.387252 1_555
O42 P11 2.327540 1_555
O42 Ti5 2.737982 1_445
O43 P3 1.214432 1_556
O44 P4 1.656203 1_555
O44 O47 1.703307 1_555
O44 P10 2.298952 1_455
O45 P6 1.148156 1_555
O45 Ti5 1.497031 1_555
O46 P3 1.718576 1_555
O47 P4 1.699635 1_555
