# generated using pymatgen
data_Li2Fe(PO3)4
_symmetry_space_group_name_H-M   'P 1'
_cell_length_a   7.19725778
_cell_length_b   7.28817887
_cell_length_c   10.79721664
_cell_angle_alpha   73.68922871
_cell_angle_beta   111.58695261
_cell_angle_gamma   108.23612820
_symmetry_Int_Tables_number   1
_chemical_formula_structural   Li2Fe(PO3)4
_chemical_formula_sum   'Li4 Fe2 P8 O24'
_cell_volume   491.30712638
_cell_formula_units_Z   2
loop_
 _symmetry_equiv_pos_site_id
 _symmetry_equiv_pos_as_xyz
  1  'x, y, z'
loop_
 _atom_site_type_symbol
 _atom_site_label
 _atom_site_symmetry_multiplicity
 _atom_site_fract_x
 _atom_site_fract_y
 _atom_site_fract_z
 _atom_site_occupancy
  Li  Li0  1  0.60462600  0.44155000  0.32603800  1
  Li  Li1  1  0.10468200  0.44150700  0.82606800  1
  Li  Li2  1  0.39544000  0.55851700  0.67395000  1
  Li  Li3  1  0.89531200  0.55847200  0.17393500  1
  Fe  Fe0  1  0.50011700  0.00014500  0.49996900  1
  Fe  Fe1  1  0.99998500  0.99999100  0.00005100  1
  P  P0  1  0.37494600  0.79317800  0.16262800  1
  P  P1  1  0.87516100  0.79337600  0.66274400  1
  P  P2  1  0.62500700  0.20676000  0.83737800  1
  P  P3  1  0.12481700  0.20666100  0.33721000  1
  P  P4  1  0.51218300  0.77575200  0.92813900  1
  P  P5  1  0.01223800  0.77577600  0.42806800  1
  P  P6  1  0.48776800  0.22412500  0.07188900  1
  P  P7  1  0.98785600  0.22431600  0.57193800  1
  O  O0  1  0.46993300  0.65888900  0.28401000  1
  O  O1  1  0.97012300  0.65912800  0.78413200  1
  O  O2  1  0.52995400  0.34101800  0.71598700  1
  O  O3  1  0.02985200  0.34088900  0.21583300  1
  O  O4  1  0.51456900  0.01534400  0.17231400  1
  O  O5  1  0.01470900  0.01557400  0.67243200  1
  O  O6  1  0.48548400  0.98455900  0.82771200  1
  O  O7  1  0.98528500  0.98444200  0.32753500  1
  O  O8  1  0.84770400  0.20177900  0.86633800  1
  O  O9  1  0.34750300  0.20162000  0.36618800  1
  O  O10  1  0.15226700  0.79822600  0.13369500  1
  O  O11  1  0.65249300  0.79843200  0.63375000  1
  O  O12  1  0.37935800  0.75565100  0.02388200  1
  O  O13  1  0.87990200  0.75589700  0.52405400  1
  O  O14  1  0.62053100  0.24429700  0.97611500  1
  O  O15  1  0.12011200  0.24414700  0.47591200  1
  O  O16  1  0.26201300  0.20529200  0.98976600  1
  O  O17  1  0.76202600  0.20568300  0.49010000  1
  O  O18  1  0.73795000  0.79457100  0.01031300  1
  O  O19  1  0.23803900  0.79445600  0.50990900  1
  O  O20  1  0.59454600  0.38226200  0.15357300  1
  O  O21  1  0.09501300  0.38248600  0.65354700  1
  O  O22  1  0.40540500  0.61766200  0.84644900  1
  O  O23  1  0.90509200  0.61756900  0.34645000  1
loop_
_geom_bond_atom_site_label_1
_geom_bond_atom_site_label_2
_geom_bond_distance
_geom_bond_site_symmetry_2
Li0 O0 1.971900 1_555
Li0 O20 1.998119 1_555
Li0 O23 2.107760 1_555
Li0 O9 2.193070 1_555
Li0 O17 2.325538 1_555
Li1 O1 1.973276 1_455
Li1 O21 1.998913 1_555
Li1 O22 2.109583 1_555
Li1 O8 2.192040 1_455
Li1 O16 2.325572 1_555
Li2 O2 1.972076 1_555
Li2 O22 1.998302 1_555
Li2 O21 2.107574 1_555
Li2 O11 2.192835 1_555
Li2 O19 2.325812 1_555
Li3 O3 1.973011 1_655
Li3 O23 1.998807 1_555
Li3 O20 2.109978 1_555
Li3 O10 2.191927 1_655
Li3 O18 2.324789 1_555
Fe0 O17 2.024726 1_555
Fe0 O9 2.024780 1_555
Fe0 O11 2.025117 1_545
Fe0 O19 2.026221 1_545
Fe1 O10 2.024580 1_655
Fe1 O8 2.024924 1_564
Fe1 O16 2.025442 1_664
Fe1 O18 2.025806 1_555
O0 P0 1.477128 1_555
O1 P1 1.476934 1_555
O2 P2 1.477217 1_555
O3 P3 1.476797 1_555
O4 P6 1.622144 1_555
O4 P0 1.625407 1_545
O5 P7 1.622252 1_455
O5 P1 1.625449 1_445
O6 P4 1.622179 1_555
O6 P2 1.625388 1_565
O7 P5 1.622088 1_655
O7 P3 1.625525 1_665
O8 P2 1.526219 1_555
O9 P3 1.526234 1_555
O10 P0 1.526291 1_555
O11 P1 1.526106 1_555
O12 P4 1.599521 1_554
O12 P0 1.609537 1_555
O13 P5 1.599339 1_655
O13 P1 1.609773 1_555
O14 P6 1.599299 1_556
O14 P2 1.609664 1_555
O15 P7 1.599336 1_455
O15 P3 1.609815 1_555
O16 P6 1.521107 1_556
O17 P7 1.521012 1_555
O18 P4 1.521305 1_554
O19 P5 1.520818 1_555
O20 P6 1.488171 1_555
O21 P7 1.488012 1_455
O22 P4 1.487944 1_555
O23 P5 1.488278 1_655
