# generated using pymatgen
data_LiNbCoO4
_symmetry_space_group_name_H-M   'P 1'
_cell_length_a   6.16923600
_cell_length_b   6.16989100
_cell_length_c   8.49593100
_cell_angle_alpha   90.00026742
_cell_angle_beta   90.00067828
_cell_angle_gamma   90.00232171
_symmetry_Int_Tables_number   1
_chemical_formula_structural   LiNbCoO4
_chemical_formula_sum   'Li4 Nb4 Co4 O16'
_cell_volume   323.38498564
_cell_formula_units_Z   4
loop_
 _symmetry_equiv_pos_site_id
 _symmetry_equiv_pos_as_xyz
  1  'x, y, z'
loop_
 _atom_site_type_symbol
 _atom_site_label
 _atom_site_symmetry_multiplicity
 _atom_site_fract_x
 _atom_site_fract_y
 _atom_site_fract_z
 _atom_site_occupancy
  Li  Li0  1  0.99998700  0.22114100  0.00001600  1
  Li  Li1  1  0.99997800  0.77886900  0.49998000  1
  Li  Li2  1  0.22113400  0.00000900  0.25000800  1
  Li  Li3  1  0.77886100  0.00000100  0.74999500  1
  Nb  Nb0  1  0.21351000  0.50000100  0.25000900  1
  Nb  Nb1  1  0.50000800  0.21350000  0.00001400  1
  Nb  Nb2  1  0.49999500  0.78651300  0.49999400  1
  Nb  Nb3  1  0.78648000  0.49998600  0.74998300  1
  Co  Co0  1  0.74131400  0.25869100  0.37501300  1
  Co  Co1  1  0.74133400  0.74133400  0.12499200  1
  Co  Co2  1  0.25867500  0.25866800  0.62498000  1
  Co  Co3  1  0.25867800  0.74132200  0.87501400  1
  O  O0  1  0.01638100  0.26357700  0.25432600  1
  O  O1  1  0.01640400  0.73643200  0.24572900  1
  O  O2  1  0.26353500  0.01642100  0.99572400  1
  O  O3  1  0.26355500  0.98359200  0.50427500  1
  O  O4  1  0.73645300  0.01643800  0.00430300  1
  O  O5  1  0.73642500  0.98358800  0.49568000  1
  O  O6  1  0.98362100  0.26354900  0.74570000  1
  O  O7  1  0.98361900  0.73646300  0.75426500  1
  O  O8  1  0.26542400  0.48224700  0.01584900  1
  O  O9  1  0.26543700  0.51771300  0.48416400  1
  O  O10  1  0.48230400  0.26543900  0.23416700  1
  O  O11  1  0.48228900  0.73454600  0.26584200  1
  O  O12  1  0.51771700  0.26541500  0.76582700  1
  O  O13  1  0.51774500  0.73457200  0.73416400  1
  O  O14  1  0.73456200  0.51769300  0.51584700  1
  O  O15  1  0.73457700  0.48228000  0.98413900  1
loop_
_geom_bond_atom_site_label_1
_geom_bond_atom_site_label_2
_geom_bond_distance
_geom_bond_site_symmetry_2
Li0 O4 2.059018 1_555
Li0 O2 2.059232 1_654
Li0 O0 2.178752 1_655
Li0 O6 2.178778 1_554
Li0 O8 2.301028 1_655
Li0 O15 2.301167 1_554
Li1 O5 2.059253 1_555
Li1 O3 2.059304 1_655
Li1 O1 2.178269 1_655
Li1 O7 2.178514 1_555
Li1 O14 2.301258 1_555
Li1 O9 2.301427 1_655
Li2 O1 2.059382 1_545
Li2 O0 2.059512 1_555
Li2 O3 2.178384 1_545
Li2 O2 2.178516 1_554
Li2 O10 2.301285 1_555
Li2 O11 2.301452 1_545
Li3 O6 2.059357 1_555
Li3 O7 2.059378 1_545
Li3 O4 2.178730 1_556
Li3 O5 2.178796 1_545
Li3 O13 2.301039 1_545
Li3 O12 2.301190 1_555
Nb0 O0 1.899480 1_555
Nb0 O1 1.899491 1_555
Nb0 O9 2.017949 1_555
Nb0 O8 2.018001 1_555
Nb0 O11 2.204890 1_555
Nb0 O10 2.205123 1_555
Nb1 O4 1.899349 1_555
Nb1 O2 1.899473 1_554
Nb1 O10 2.017952 1_555
Nb1 O12 2.018216 1_554
Nb1 O8 2.205022 1_555
Nb1 O15 2.205048 1_554
Nb2 O5 1.899258 1_555
Nb2 O3 1.899392 1_555
Nb2 O11 2.017967 1_555
Nb2 O13 2.018112 1_555
Nb2 O9 2.205070 1_555
Nb2 O14 2.205300 1_555
Nb3 O6 1.899659 1_555
Nb3 O7 1.899764 1_555
Nb3 O14 2.017782 1_555
Nb3 O15 2.017940 1_555
Nb3 O12 2.204930 1_555
Nb3 O13 2.204933 1_555
Co0 O0 1.982911 1_655
Co0 O5 1.983161 1_545
Co0 O10 1.996711 1_555
Co0 O14 1.996753 1_555
Co1 O1 1.983129 1_655
Co1 O4 1.983264 1_565
Co1 O11 1.996929 1_555
Co1 O15 1.997104 1_554
Co2 O6 1.982989 1_455
Co2 O3 1.983179 1_545
Co2 O12 1.996871 1_555
Co2 O9 1.996881 1_555
Co3 O7 1.983118 1_455
Co3 O2 1.983318 1_565
Co3 O13 1.997035 1_555
Co3 O8 1.997126 1_556
