# generated using pymatgen
data_KV6O14
_symmetry_space_group_name_H-M   'P 1'
_cell_length_a   7.24884900
_cell_length_b   8.75436472
_cell_length_c   10.55717498
_cell_angle_alpha   103.90286019
_cell_angle_beta   90.17394709
_cell_angle_gamma   101.80010015
_symmetry_Int_Tables_number   1
_chemical_formula_structural   KV6O14
_chemical_formula_sum   'K2 V12 O28'
_cell_volume   635.61847540
_cell_formula_units_Z   2
loop_
 _symmetry_equiv_pos_site_id
 _symmetry_equiv_pos_as_xyz
  1  'x, y, z'
loop_
 _atom_site_type_symbol
 _atom_site_label
 _atom_site_symmetry_multiplicity
 _atom_site_fract_x
 _atom_site_fract_y
 _atom_site_fract_z
 _atom_site_occupancy
  K  K0  1  0.74764900  0.99943600  0.59368800  1
  K  K1  1  0.25235100  0.00056400  0.40631200  1
  V  V0  1  0.08329700  0.32527300  0.89773600  1
  V  V1  1  0.57741400  0.31713600  0.89657400  1
  V  V2  1  0.17605600  0.70280100  0.86452800  1
  V  V3  1  0.67238600  0.68611000  0.86186900  1
  V  V4  1  0.60609800  0.41881400  0.58076600  1
  V  V5  1  0.10686600  0.42926200  0.58958400  1
  V  V6  1  0.39390200  0.58118600  0.41923400  1
  V  V7  1  0.89313400  0.57073800  0.41041600  1
  V  V8  1  0.32761400  0.31389000  0.13813100  1
  V  V9  1  0.82394400  0.29719900  0.13547200  1
  V  V10  1  0.42258600  0.68286400  0.10342600  1
  V  V11  1  0.91670300  0.67472700  0.10226400  1
  O  O0  1  0.84948600  0.36661500  0.95097800  1
  O  O1  1  0.33777500  0.38060100  0.94785700  1
  O  O2  1  0.53722600  0.14418200  0.79044100  1
  O  O3  1  0.04044600  0.15168800  0.79304900  1
  O  O4  1  0.92322700  0.73682100  0.93085600  1
  O  O5  1  0.44517000  0.73297200  0.92813100  1
  O  O6  1  0.11508600  0.46908800  0.77441400  1
  O  O7  1  0.62103300  0.47665300  0.77782500  1
  O  O8  1  0.69699600  0.77915400  0.74386500  1
  O  O9  1  0.19392400  0.78709600  0.74220100  1
  O  O10  1  0.55806800  0.22187600  0.53618800  1
  O  O11  1  0.05736900  0.23324700  0.54285700  1
  O  O12  1  0.88016300  0.49849700  0.57806900  1
  O  O13  1  0.36740700  0.49439600  0.57775500  1
  O  O14  1  0.11983700  0.50150300  0.42193100  1
  O  O15  1  0.63259300  0.50560400  0.42224500  1
  O  O16  1  0.44193200  0.77812400  0.46381200  1
  O  O17  1  0.94263100  0.76675300  0.45714300  1
  O  O18  1  0.30300400  0.22084600  0.25613500  1
  O  O19  1  0.80607600  0.21290400  0.25779900  1
  O  O20  1  0.37896700  0.52334700  0.22217500  1
  O  O21  1  0.88491400  0.53091200  0.22558600  1
  O  O22  1  0.55483000  0.26702800  0.07186900  1
  O  O23  1  0.07677300  0.26317900  0.06914400  1
  O  O24  1  0.95955400  0.84831200  0.20695100  1
  O  O25  1  0.46277400  0.85581800  0.20955900  1
  O  O26  1  0.66222500  0.61939900  0.05214300  1
  O  O27  1  0.15051400  0.63338500  0.04902200  1
loop_
_geom_bond_atom_site_label_1
_geom_bond_atom_site_label_2
_geom_bond_distance
_geom_bond_site_symmetry_2
K0 O16 2.737459 1_555
K0 O8 2.747814 1_555
K0 O10 2.776077 1_565
K0 O2 2.791377 1_565
K0 O17 2.829106 1_555
K0 O11 2.858989 1_665
K0 O3 2.859857 1_665
K1 O10 2.737459 1_555
K1 O18 2.747814 1_555
K1 O16 2.776077 1_545
K1 O25 2.791377 1_545
K1 O11 2.829106 1_555
K1 O17 2.858989 1_445
K1 O24 2.859857 1_445
O0 V0 1.865043 1_655
O0 V1 1.982747 1_555
O0 V9 2.173065 1_556
O1 V0 1.850104 1_555
O1 V1 1.968562 1_555
O1 V8 2.220058 1_556
O2 V1 1.623321 1_555
O3 V0 1.620182 1_555
O4 V3 1.881541 1_555
O4 V11 2.008741 1_556
O4 V2 2.017103 1_655
O5 V3 1.875071 1_555
O5 V10 2.001650 1_556
O5 V2 2.005544 1_555
O6 V5 1.896439 1_555
O6 V2 1.994687 1_555
O6 V0 2.001022 1_555
O7 V3 1.795862 1_555
O7 V4 2.016461 1_555
O7 V1 2.069992 1_555
O8 V3 1.636108 1_555
O9 V2 1.627582 1_555
O10 V4 1.636673 1_555
O11 V5 1.630036 1_555
O12 V5 1.877304 1_655
O12 V4 1.969088 1_555
O12 V7 2.013975 1_555
O13 V5 1.871584 1_555
O13 V4 1.977510 1_555
O13 V6 1.992033 1_555
O14 V7 1.877304 1_455
O14 V6 1.969088 1_555
O14 V5 2.013975 1_555
O15 V7 1.871584 1_555
O15 V6 1.977510 1_555
O15 V4 1.992033 1_555
O16 V6 1.636673 1_555
O17 V7 1.630036 1_555
O18 V8 1.636108 1_555
O19 V9 1.627582 1_555
O20 V8 1.795862 1_555
O20 V6 2.016461 1_555
O20 V10 2.069992 1_555
O21 V7 1.896439 1_555
O21 V9 1.994687 1_555
O21 V11 2.001022 1_555
O22 V8 1.875071 1_555
O22 V1 2.001650 1_554
O22 V9 2.005544 1_555
O23 V8 1.881541 1_555
O23 V0 2.008741 1_554
O23 V9 2.017103 1_455
O24 V11 1.620182 1_555
O25 V10 1.623321 1_555
O26 V11 1.850104 1_555
O26 V10 1.968562 1_555
O26 V3 2.220058 1_554
O27 V11 1.865043 1_455
O27 V10 1.982747 1_555
O27 V2 2.173065 1_554
