# generated using pymatgen
data_Na2VO3
_symmetry_space_group_name_H-M   'P 1'
_cell_length_a   5.50508170
_cell_length_b   9.67429557
_cell_length_c   5.50578876
_cell_angle_alpha   101.19036587
_cell_angle_beta   71.28734611
_cell_angle_gamma   78.89154525
_symmetry_Int_Tables_number   1
_chemical_formula_structural   Na2VO3
_chemical_formula_sum   'Na8 V4 O12'
_cell_volume   261.99031156
_cell_formula_units_Z   4
loop_
 _symmetry_equiv_pos_site_id
 _symmetry_equiv_pos_as_xyz
  1  'x, y, z'
loop_
 _atom_site_type_symbol
 _atom_site_label
 _atom_site_symmetry_multiplicity
 _atom_site_fract_x
 _atom_site_fract_y
 _atom_site_fract_z
 _atom_site_occupancy
  Na  Na0  1  0.00661300  0.98748300  0.49271200  1
  Na  Na1  1  0.57739200  0.84375800  0.42244800  1
  Na  Na2  1  0.17200300  0.65548900  0.32889200  1
  Na  Na3  1  0.74426200  0.51073900  0.25414900  1
  Na  Na4  1  0.25400800  0.48739200  0.74258200  1
  Na  Na5  1  0.32728400  0.34485900  0.17165800  1
  Na  Na6  1  0.42036500  0.15467800  0.57587800  1
  Na  Na7  1  0.49409800  0.01250100  0.00576100  1
  V  V0  1  0.08211500  0.82823300  0.91626800  1
  V  V1  1  0.66163600  0.67037200  0.83714200  1
  V  V2  1  0.83364200  0.32871100  0.66129300  1
  V  V3  1  0.91634300  0.17085500  0.08157000  1
  O  O0  1  0.34578700  0.80922300  0.10856000  1
  O  O1  1  0.84491800  0.80858100  0.70179300  1
  O  O2  1  0.40260000  0.69113200  0.64301300  1
  O  O3  1  0.90427900  0.68980300  0.04874400  1
  O  O4  1  0.55555800  0.50032300  0.94222300  1
  O  O5  1  0.93907900  0.49918700  0.55804700  1
  O  O6  1  0.04794000  0.30922100  0.90422000  1
  O  O7  1  0.64151500  0.30749900  0.40213200  1
  O  O8  1  0.70046400  0.19033500  0.84357600  1
  O  O9  1  0.10714300  0.19084400  0.34508900  1
  O  O10  1  0.19147200  0.00133700  0.80825100  1
  O  O11  1  0.81003000  0.99752300  0.19021500  1
loop_
_geom_bond_atom_site_label_1
_geom_bond_atom_site_label_2
_geom_bond_distance
_geom_bond_site_symmetry_2
Na0 O11 2.265662 1_455
Na0 O10 2.273407 1_565
Na0 O8 2.364003 1_465
Na0 O9 2.364114 1_565
Na0 O0 2.396534 1_555
Na0 O1 2.412984 1_455
Na1 O2 2.252667 1_555
Na1 O3 2.256573 1_555
Na1 O11 2.430960 1_555
Na1 O10 2.439080 1_565
Na1 O0 2.465322 1_555
Na1 O1 2.472595 1_555
Na2 O1 2.251914 1_455
Na2 O0 2.258923 1_555
Na2 O4 2.428581 1_554
Na2 O5 2.443786 1_455
Na2 O2 2.463223 1_555
Na2 O3 2.475961 1_455
Na3 O5 2.267182 1_555
Na3 O4 2.270836 1_554
Na3 O6 2.350968 1_654
Na3 O7 2.367355 1_555
Na3 O3 2.401062 1_555
Na3 O2 2.422449 1_555
Na4 O5 2.269373 1_455
Na4 O4 2.275324 1_555
Na4 O3 2.359317 1_456
Na4 O2 2.368041 1_555
Na4 O6 2.398138 1_555
Na4 O7 2.414669 1_555
Na5 O8 2.259546 1_554
Na5 O9 2.259655 1_555
Na5 O4 2.425718 1_554
Na5 O5 2.437732 1_455
Na5 O7 2.465533 1_555
Na5 O6 2.472253 1_554
Na6 O7 2.253506 1_555
Na6 O6 2.257971 1_555
Na6 O10 2.418235 1_555
Na6 O11 2.447336 1_545
Na6 O9 2.460944 1_555
Na6 O8 2.476871 1_555
Na7 O10 2.270660 1_554
Na7 O11 2.273904 1_545
Na7 O1 2.366246 1_544
Na7 O0 2.368243 1_545
Na7 O8 2.397154 1_554
Na7 O9 2.405010 1_555
O0 V1 1.927308 1_554
O0 V0 2.054369 1_554
O1 V1 1.945579 1_555
O1 V0 2.033113 1_655
O2 V0 1.938052 1_555
O2 V1 2.041371 1_555
O3 V0 1.926162 1_654
O3 V1 2.046269 1_554
O4 V1 1.976091 1_555
O4 V2 1.999231 1_555
O5 V2 1.975112 1_555
O5 V1 1.992072 1_555
O6 V3 1.922818 1_456
O6 V2 2.059331 1_455
O7 V3 1.939572 1_555
O7 V2 2.033502 1_555
O8 V2 1.940203 1_555
O8 V3 2.042948 1_556
O9 V2 1.928682 1_455
O9 V3 2.047665 1_455
O10 V3 1.967381 1_456
O10 V0 2.016414 1_545
O11 V0 1.961404 1_654
O11 V3 2.013724 1_565
