# generated using pymatgen
data_H4CSN2
_symmetry_space_group_name_H-M   'P 1'
_cell_length_a   5.64076200
_cell_length_b   7.43541600
_cell_length_c   25.46811000
_cell_angle_alpha   90.00000000
_cell_angle_beta   90.00000000
_cell_angle_gamma   90.00000000
_symmetry_Int_Tables_number   1
_chemical_formula_structural   H4CSN2
_chemical_formula_sum   'H48 C12 S12 N24'
_cell_volume   1068.16849506
_cell_formula_units_Z   12
loop_
 _symmetry_equiv_pos_site_id
 _symmetry_equiv_pos_as_xyz
  1  'x, y, z'
loop_
 _atom_site_type_symbol
 _atom_site_label
 _atom_site_symmetry_multiplicity
 _atom_site_fract_x
 _atom_site_fract_y
 _atom_site_fract_z
 _atom_site_occupancy
  H  H0  1  0.96557200  0.52352800  0.20485600  1
  H  H1  1  0.53442800  0.02352800  0.29514400  1
  H  H2  1  0.03442800  0.47647200  0.70485600  1
  H  H3  1  0.46557200  0.97647200  0.79514400  1
  H  H4  1  0.03442800  0.47647200  0.79514400  1
  H  H5  1  0.46557200  0.97647200  0.70485600  1
  H  H6  1  0.96557200  0.52352800  0.29514400  1
  H  H7  1  0.53442800  0.02352800  0.20485600  1
  H  H8  1  0.22886800  0.49735600  0.16939000  1
  H  H9  1  0.27113200  0.99735600  0.33061000  1
  H  H10  1  0.77113200  0.50264400  0.66939000  1
  H  H11  1  0.72886800  0.00264400  0.83061000  1
  H  H12  1  0.77113200  0.50264400  0.83061000  1
  H  H13  1  0.72886800  0.00264400  0.66939000  1
  H  H14  1  0.22886800  0.49735600  0.33061000  1
  H  H15  1  0.27113200  0.99735600  0.16939000  1
  H  H16  1  0.92550700  0.72670700  0.04599500  1
  H  H17  1  0.57449300  0.22670700  0.45400500  1
  H  H18  1  0.07449300  0.27329300  0.54599500  1
  H  H19  1  0.42550700  0.77329300  0.95400500  1
  H  H20  1  0.07449300  0.27329300  0.95400500  1
  H  H21  1  0.42550700  0.77329300  0.54599500  1
  H  H22  1  0.92550700  0.72670700  0.45400500  1
  H  H23  1  0.57449300  0.22670700  0.04599500  1
  H  H24  1  0.72265300  0.59741600  0.00869400  1
  H  H25  1  0.77734700  0.09741600  0.49130600  1
  H  H26  1  0.27734700  0.40258400  0.50869400  1
  H  H27  1  0.22265300  0.90258400  0.99130600  1
  H  H28  1  0.27734700  0.40258400  0.99130600  1
  H  H29  1  0.22265300  0.90258400  0.50869400  1
  H  H30  1  0.72265300  0.59741600  0.49130600  1
  H  H31  1  0.77734700  0.09741600  0.00869400  1
  H  H32  1  0.85682400  0.78341500  0.13287600  1
  H  H33  1  0.64317600  0.28341500  0.36712400  1
  H  H34  1  0.14317600  0.21658500  0.63287600  1
  H  H35  1  0.35682500  0.71658500  0.86712400  1
  H  H36  1  0.14317600  0.21658500  0.86712400  1
  H  H37  1  0.35682500  0.71658500  0.63287600  1
  H  H38  1  0.85682400  0.78341500  0.36712400  1
  H  H39  1  0.64317600  0.28341500  0.13287600  1
  H  H40  1  0.61502100  0.68304800  0.16482100  1
  H  H41  1  0.88497900  0.18304800  0.33517900  1
  H  H42  1  0.38497900  0.31695200  0.66482100  1
  H  H43  1  0.11502100  0.81695200  0.83517900  1
  H  H44  1  0.38497900  0.31695200  0.83517900  1
  H  H45  1  0.11502100  0.81695200  0.66482100  1
  H  H46  1  0.61502100  0.68304800  0.33517900  1
  H  H47  1  0.88497900  0.18304800  0.16482100  1
  C  C0  1  0.26522100  0.48874900  0.25000000  1
  C  C1  1  0.23477900  0.98874900  0.25000000  1
  C  C2  1  0.73477900  0.51125100  0.75000000  1
  C  C3  1  0.76522100  0.01125100  0.75000000  1
  C  C4  1  0.63132100  0.63488300  0.08573800  1
  C  C5  1  0.86867900  0.13488300  0.41426200  1
  C  C6  1  0.36867900  0.36511700  0.58573800  1
  C  C7  1  0.13132100  0.86511700  0.91426200  1
  C  C8  1  0.36867900  0.36511700  0.91426200  1
  C  C9  1  0.13132100  0.86511700  0.58573800  1
  C  C10  1  0.63132100  0.63488300  0.41426200  1
  C  C11  1  0.86867900  0.13488300  0.08573800  1
  S  S0  1  0.56611600  0.45997900  0.25000000  1
  S  S1  1  0.93388400  0.95997900  0.25000000  1
  S  S2  1  0.43388400  0.54002100  0.75000000  1
  S  S3  1  0.06611600  0.04002100  0.75000000  1
  S  S4  1  0.37329900  0.51341600  0.08208800  1
  S  S5  1  0.12670100  0.01341600  0.41791200  1
  S  S6  1  0.62670100  0.48658400  0.58208800  1
  S  S7  1  0.87329900  0.98658400  0.91791200  1
  S  S8  1  0.62670100  0.48658400  0.91791200  1
  S  S9  1  0.87329900  0.98658400  0.58208800  1
  S  S10  1  0.37329900  0.51341600  0.41791200  1
  S  S11  1  0.12670100  0.01341600  0.08208800  1
  N  N0  1  0.14292200  0.49801000  0.20488300  1
  N  N1  1  0.35707800  0.99801000  0.29511700  1
  N  N2  1  0.85707800  0.50199000  0.70488300  1
  N  N3  1  0.64292200  0.00199000  0.79511700  1
  N  N4  1  0.85707800  0.50199000  0.79511700  1
  N  N5  1  0.64292200  0.00199000  0.70488300  1
  N  N6  1  0.14292200  0.49801000  0.29511700  1
  N  N7  1  0.35707800  0.99801000  0.20488300  1
  N  N8  1  0.77058500  0.65512400  0.04352200  1
  N  N9  1  0.72941500  0.15512400  0.45647800  1
  N  N10  1  0.22941500  0.34487600  0.54352200  1
  N  N11  1  0.27058500  0.84487600  0.95647800  1
  N  N12  1  0.22941500  0.34487600  0.95647800  1
  N  N13  1  0.27058500  0.84487600  0.54352200  1
  N  N14  1  0.77058500  0.65512400  0.45647800  1
  N  N15  1  0.72941500  0.15512400  0.04352200  1
  N  N16  1  0.70094900  0.71282600  0.13076200  1
  N  N17  1  0.79905100  0.21282600  0.36923800  1
  N  N18  1  0.29905100  0.28717400  0.63076200  1
  N  N19  1  0.20094900  0.78717400  0.86923800  1
  N  N20  1  0.29905100  0.28717400  0.86923800  1
  N  N21  1  0.20094900  0.78717400  0.63076200  1
  N  N22  1  0.70094900  0.71282600  0.36923800  1
  N  N23  1  0.79905100  0.21282600  0.13076200  1
loop_
_geom_bond_atom_site_label_1
_geom_bond_atom_site_label_2
_geom_bond_distance
_geom_bond_site_symmetry_2
H0 N0 1.018223 1_655
H1 N1 1.018223 1_545
H2 N2 1.018223 1_455
H3 N3 1.018223 1_565
H4 N4 1.018223 1_455
H5 N5 1.018223 1_565
H6 N6 1.018223 1_655
H7 N7 1.018223 1_545
H8 N0 1.025750 1_555
H9 N1 1.025750 1_555
H10 N2 1.025750 1_555
H11 N3 1.025750 1_555
H12 N4 1.025750 1_555
H13 N5 1.025750 1_555
H14 N6 1.025750 1_555
H15 N7 1.025750 1_555
H16 N8 1.025144 1_555
H17 N9 1.025144 1_555
H18 N10 1.025144 1_555
H19 N11 1.025144 1_555
H20 N12 1.025144 1_555
H21 N13 1.025144 1_555
H22 N14 1.025144 1_555
H23 N15 1.025144 1_555
H24 N8 1.021758 1_555
H25 N9 1.021758 1_555
H26 N10 1.021758 1_555
H27 N11 1.021758 1_555
H28 N12 1.021758 1_555
H29 N13 1.021758 1_555
H30 N14 1.021758 1_555
H31 N15 1.021758 1_555
H32 N16 1.025408 1_555
H33 N17 1.025408 1_555
H34 N18 1.025408 1_555
H35 N19 1.025413 1_555
H36 N20 1.025408 1_555
H37 N21 1.025413 1_555
H38 N22 1.025408 1_555
H39 N23 1.025408 1_555
H40 N16 1.018023 1_555
H41 N17 1.018023 1_555
H42 N18 1.018023 1_555
H43 N19 1.018023 1_555
H44 N20 1.018023 1_555
H45 N21 1.018023 1_555
H46 N22 1.018023 1_555
H47 N23 1.018023 1_555
C0 N6 1.341995 1_555
C0 N0 1.341995 1_555
C0 S0 1.710705 1_555
C1 N1 1.341995 1_555
C1 N7 1.341995 1_555
C1 S1 1.710705 1_455
C2 N4 1.341995 1_555
C2 N2 1.341995 1_555
C2 S2 1.710705 1_555
C3 N3 1.341995 1_555
C3 N5 1.341995 1_555
C3 S3 1.710705 1_655
C4 N8 1.340045 1_555
C4 N16 1.343498 1_555
C4 S4 1.715413 1_555
C5 N9 1.340045 1_555
C5 N17 1.343498 1_555
C5 S5 1.715413 1_655
C6 N10 1.340045 1_555
C6 N18 1.343498 1_555
C6 S6 1.715413 1_555
C7 N11 1.340045 1_555
C7 N19 1.343498 1_555
C7 S7 1.715413 1_455
C8 N12 1.340045 1_555
C8 N20 1.343498 1_555
C8 S8 1.715413 1_555
C9 N13 1.340045 1_555
C9 N21 1.343498 1_555
C9 S9 1.715413 1_455
C10 N14 1.340045 1_555
C10 N22 1.343498 1_555
C10 S10 1.715413 1_555
C11 N15 1.340045 1_555
C11 N23 1.343498 1_555
C11 S11 1.715413 1_655
