# generated using pymatgen
data_LiMnCSO7
_symmetry_space_group_name_H-M   'P 1'
_cell_length_a   6.80486100
_cell_length_b   5.08923800
_cell_length_c   8.70744949
_cell_angle_alpha   85.26211124
_cell_angle_beta   90.00000000
_cell_angle_gamma   90.00000000
_symmetry_Int_Tables_number   1
_chemical_formula_structural   LiMnCSO7
_chemical_formula_sum   'Li2 Mn2 C2 S2 O14'
_cell_volume   300.52212527
_cell_formula_units_Z   2
loop_
 _symmetry_equiv_pos_site_id
 _symmetry_equiv_pos_as_xyz
  1  'x, y, z'
loop_
 _atom_site_type_symbol
 _atom_site_label
 _atom_site_symmetry_multiplicity
 _atom_site_fract_x
 _atom_site_fract_y
 _atom_site_fract_z
 _atom_site_occupancy
  Li  Li0  1  0.47700400  0.78884100  0.81620600  1
  Li  Li1  1  0.97700400  0.21115900  0.18379400  1
  Mn  Mn0  1  0.25312700  0.22682200  0.65400300  1
  Mn  Mn1  1  0.75312700  0.77317800  0.34599700  1
  C  C0  1  0.24900300  0.28064100  0.92722500  1
  C  C1  1  0.74900300  0.71935900  0.07277500  1
  S  S0  1  0.75696300  0.25246000  0.58295800  1
  S  S1  1  0.25696300  0.74754000  0.41704200  1
  O  O0  1  0.70858900  0.69070700  0.93726100  1
  O  O1  1  0.25949200  0.04959900  0.86664400  1
  O  O2  1  0.27818400  0.47620800  0.81860800  1
  O  O3  1  0.93439400  0.20094200  0.67503400  1
  O  O4  1  0.58194800  0.15889600  0.67164700  1
  O  O5  1  0.26768400  0.87210000  0.56715700  1
  O  O6  1  0.73576500  0.54537100  0.54113000  1
  O  O7  1  0.23576500  0.45462900  0.45887000  1
  O  O8  1  0.76768400  0.12790000  0.43284300  1
  O  O9  1  0.08194800  0.84110400  0.32835300  1
  O  O10  1  0.43439400  0.79905800  0.32496600  1
  O  O11  1  0.77818400  0.52379200  0.18139200  1
  O  O12  1  0.75949200  0.95040100  0.13335600  1
  O  O13  1  0.20858900  0.30929300  0.06273900  1
loop_
_geom_bond_atom_site_label_1
_geom_bond_atom_site_label_2
_geom_bond_distance
_geom_bond_site_symmetry_2
Li0 O0 1.938304 1_555
Li0 O1 2.059384 1_565
Li0 O2 2.087313 1_555
Li0 O4 2.291203 1_565
Li1 O13 1.938304 1_655
Li1 O12 2.059384 1_545
Li1 O11 2.087313 1_555
Li1 O9 2.291203 1_645
Mn0 O7 1.979809 1_555
Mn0 O1 1.991923 1_555
Mn0 O2 1.998682 1_555
Mn0 O5 2.016472 1_545
Mn0 O3 2.179718 1_455
Mn0 O4 2.267400 1_555
Mn1 O6 1.979809 1_555
Mn1 O12 1.991923 1_555
Mn1 O11 1.998682 1_555
Mn1 O8 2.016472 1_565
Mn1 O10 2.179718 1_555
Mn1 O9 2.267400 1_655
C0 O13 1.231939 1_556
C0 O1 1.329809 1_555
C0 O2 1.330045 1_555
C1 O0 1.231939 1_554
C1 O12 1.329809 1_555
C1 O11 1.330045 1_555
O3 S0 1.461032 1_555
O4 S0 1.476732 1_555
O5 S1 1.500870 1_555
O6 S0 1.511932 1_555
O7 S1 1.511932 1_555
O8 S0 1.500870 1_555
O9 S1 1.476732 1_555
O10 S1 1.461032 1_555
