# generated using pymatgen
data_V5P6WO24
_symmetry_space_group_name_H-M   'P 1'
_cell_length_a   8.65685466
_cell_length_b   8.65685466
_cell_length_c   8.65685477
_cell_angle_alpha   60.39517340
_cell_angle_beta   60.39517340
_cell_angle_gamma   60.39516688
_symmetry_Int_Tables_number   1
_chemical_formula_structural   V5P6WO24
_chemical_formula_sum   'V5 P6 W1 O24'
_cell_volume   462.83841839
_cell_formula_units_Z   1
loop_
 _symmetry_equiv_pos_site_id
 _symmetry_equiv_pos_as_xyz
  1  'x, y, z'
loop_
 _atom_site_type_symbol
 _atom_site_label
 _atom_site_symmetry_multiplicity
 _atom_site_fract_x
 _atom_site_fract_y
 _atom_site_fract_z
 _atom_site_occupancy
  V  V0  1  0.00269300  0.00269300  0.00269300  1
  V  V1  1  0.35769000  0.35769000  0.35769000  1
  V  V2  1  0.50068900  0.50068900  0.50068900  1
  V  V3  1  0.14402800  0.14402800  0.14402800  1
  V  V4  1  0.64233200  0.64233200  0.64233200  1
  P  P0  1  0.45160100  0.74833900  0.04559700  1
  P  P1  1  0.74833900  0.04559700  0.45160100  1
  P  P2  1  0.04559700  0.45160100  0.74833900  1
  P  P3  1  0.95647300  0.53906700  0.25343100  1
  P  P4  1  0.25343100  0.95647300  0.53906700  1
  P  P5  1  0.53906700  0.25343100  0.95647300  1
  W  W0  1  0.85626000  0.85626000  0.85626000  1
  O  O0  1  0.68422200  0.88875900  0.49902200  1
  O  O1  1  0.88875900  0.49902200  0.68422200  1
  O  O2  1  0.49902200  0.68422200  0.88875900  1
  O  O3  1  0.26055800  0.91055400  0.06083800  1
  O  O4  1  0.61236400  0.81759300  0.00059600  1
  O  O5  1  0.44461000  0.59165800  0.23939600  1
  O  O6  1  0.91055400  0.06083800  0.26055800  1
  O  O7  1  0.59165800  0.23939600  0.44461000  1
  O  O8  1  0.99527100  0.39001200  0.18322000  1
  O  O9  1  0.23939600  0.44461000  0.59165800  1
  O  O10  1  0.93514200  0.73993100  0.08732500  1
  O  O11  1  0.18322000  0.99527100  0.39001200  1
  O  O12  1  0.81759300  0.00059600  0.61236400  1
  O  O13  1  0.06083800  0.26055800  0.91055400  1
  O  O14  1  0.75968900  0.56202500  0.40841500  1
  O  O15  1  0.00059600  0.61236400  0.81759300  1
  O  O16  1  0.40841500  0.75968900  0.56202500  1
  O  O17  1  0.08732500  0.93514200  0.73993100  1
  O  O18  1  0.56202500  0.40841500  0.75968900  1
  O  O19  1  0.39001200  0.18322000  0.99527100  1
  O  O20  1  0.73993100  0.08732500  0.93514200  1
  O  O21  1  0.50832100  0.30972000  0.11258500  1
  O  O22  1  0.11258500  0.50832100  0.30972000  1
  O  O23  1  0.30972000  0.11258500  0.50832100  1
loop_
_geom_bond_atom_site_label_1
_geom_bond_atom_site_label_2
_geom_bond_distance
_geom_bond_site_symmetry_2
O0 P1 1.512871 1_565
O0 V4 1.981530 1_555
O1 P2 1.512871 1_655
O1 V4 1.981530 1_555
O2 P0 1.512871 1_556
O2 V4 1.981530 1_555
O3 P0 1.548348 1_555
O3 V3 2.080186 1_565
O3 V0 2.197044 1_565
O4 P0 1.583023 1_555
O4 W0 1.951833 1_554
O5 P0 1.546123 1_555
O5 V1 2.100566 1_555
O5 V2 2.218022 1_555
O6 P1 1.548349 1_555
O6 V3 2.080186 1_655
O6 V0 2.197044 1_655
O7 P1 1.546123 1_555
O7 V1 2.100566 1_555
O7 V2 2.218022 1_555
O8 P3 1.514010 1_555
O8 V3 1.969959 1_655
O9 P2 1.546123 1_555
O9 V1 2.100566 1_555
O9 V2 2.218022 1_555
O10 P3 1.612469 1_555
O10 W0 2.039976 1_554
O10 V0 2.301593 1_665
O11 P4 1.514010 1_555
O11 V3 1.969959 1_565
O12 P1 1.583023 1_555
O12 W0 1.951833 1_545
O13 P2 1.548349 1_555
O13 V3 2.080186 1_556
O13 V0 2.197044 1_556
O14 P3 1.553166 1_555
O14 V4 2.067963 1_555
O14 V2 2.221434 1_555
O15 P2 1.583023 1_555
O15 W0 1.951833 1_455
O16 P4 1.553166 1_555
O16 V4 2.067962 1_555
O16 V2 2.221434 1_555
O17 P4 1.612469 1_555
O17 W0 2.039976 1_455
O17 V0 2.301593 1_566
O18 P5 1.553166 1_555
O18 V4 2.067963 1_555
O18 V2 2.221434 1_555
O19 P5 1.514010 1_555
O19 V3 1.969960 1_556
O20 P5 1.612469 1_555
O20 W0 2.039976 1_545
O20 V0 2.301592 1_656
O21 P5 1.517165 1_554
O21 V1 1.994207 1_555
O22 P3 1.517165 1_455
O22 V1 1.994207 1_555
O23 P4 1.517165 1_545
O23 V1 1.994207 1_555
