# generated using pymatgen
data_Li2Ti3SnO8
_symmetry_space_group_name_H-M   'P 1'
_cell_length_a   8.78532800
_cell_length_b   8.78532800
_cell_length_c   8.78532800
_cell_angle_alpha   90.00000000
_cell_angle_beta   90.00000000
_cell_angle_gamma   90.00000000
_symmetry_Int_Tables_number   1
_chemical_formula_structural   Li2Ti3SnO8
_chemical_formula_sum   'Li8 Ti12 Sn4 O32'
_cell_volume   678.06908087
_cell_formula_units_Z   4
loop_
 _symmetry_equiv_pos_site_id
 _symmetry_equiv_pos_as_xyz
  1  'x, y, z'
loop_
 _atom_site_type_symbol
 _atom_site_label
 _atom_site_symmetry_multiplicity
 _atom_site_fract_x
 _atom_site_fract_y
 _atom_site_fract_z
 _atom_site_occupancy
  Li  Li0  1  0.13084100  0.86915900  0.36915900  1
  Li  Li1  1  0.25159900  0.75159900  0.74840100  1
  Li  Li2  1  0.24840100  0.24840100  0.24840100  1
  Li  Li3  1  0.36915900  0.13084100  0.86915900  1
  Li  Li4  1  0.63084100  0.63084100  0.63084100  1
  Li  Li5  1  0.75159900  0.74840100  0.25159900  1
  Li  Li6  1  0.74840100  0.25159900  0.75159900  1
  Li  Li7  1  0.86915900  0.36915900  0.13084100  1
  Ti  Ti0  1  0.12834100  0.61843600  0.11607600  1
  Ti  Ti1  1  0.11843600  0.38392400  0.87165900  1
  Ti  Ti2  1  0.11607600  0.12834100  0.61843600  1
  Ti  Ti3  1  0.38392400  0.87165900  0.11843600  1
  Ti  Ti4  1  0.38156400  0.61607600  0.37165900  1
  Ti  Ti5  1  0.37165900  0.38156400  0.61607600  1
  Ti  Ti6  1  0.62834100  0.88156400  0.88392400  1
  Ti  Ti7  1  0.61843600  0.11607600  0.12834100  1
  Ti  Ti8  1  0.61607600  0.37165900  0.38156400  1
  Ti  Ti9  1  0.88392400  0.62834100  0.88156400  1
  Ti  Ti10  1  0.88156400  0.88392400  0.62834100  1
  Ti  Ti11  1  0.87165900  0.11843600  0.38392400  1
  Sn  Sn0  1  0.98599400  0.51400600  0.48599400  1
  Sn  Sn1  1  0.51400600  0.48599400  0.98599400  1
  Sn  Sn2  1  0.48599400  0.98599400  0.51400600  1
  Sn  Sn3  1  0.01400600  0.01400600  0.01400600  1
  O  O0  1  0.08696700  0.13291200  0.39291000  1
  O  O1  1  0.10709000  0.91303300  0.63291200  1
  O  O2  1  0.11703000  0.61703000  0.88297000  1
  O  O3  1  0.13291200  0.39291000  0.08696700  1
  O  O4  1  0.12034000  0.16665400  0.84066800  1
  O  O5  1  0.12689600  0.37310400  0.62689600  1
  O  O6  1  0.15933200  0.62034000  0.33334600  1
  O  O7  1  0.16665400  0.84066800  0.12034000  1
  O  O8  1  0.33334600  0.15933200  0.62034000  1
  O  O9  1  0.34066800  0.37966000  0.83334600  1
  O  O10  1  0.37310400  0.62689600  0.12689600  1
  O  O11  1  0.37966000  0.83334600  0.34066800  1
  O  O12  1  0.36708800  0.60709000  0.58696700  1
  O  O13  1  0.38297000  0.38297000  0.38297000  1
  O  O14  1  0.39291000  0.08696700  0.13291200  1
  O  O15  1  0.41303300  0.86708800  0.89291000  1
  O  O16  1  0.58696700  0.36708800  0.60709000  1
  O  O17  1  0.60709000  0.58696700  0.36708800  1
  O  O18  1  0.61703000  0.88297000  0.11703000  1
  O  O19  1  0.63291200  0.10709000  0.91303300  1
  O  O20  1  0.62034000  0.33334600  0.15933200  1
  O  O21  1  0.62689600  0.12689600  0.37310400  1
  O  O22  1  0.65933200  0.87966000  0.66665400  1
  O  O23  1  0.66665400  0.65933200  0.87966000  1
  O  O24  1  0.83334600  0.34066800  0.37966000  1
  O  O25  1  0.84066800  0.12034000  0.16665400  1
  O  O26  1  0.87310400  0.87310400  0.87310400  1
  O  O27  1  0.87966000  0.66665400  0.65933200  1
  O  O28  1  0.86708800  0.89291000  0.41303300  1
  O  O29  1  0.88297000  0.11703000  0.61703000  1
  O  O30  1  0.89291000  0.41303300  0.86708800  1
  O  O31  1  0.91303300  0.63291200  0.10709000  1
loop_
_geom_bond_atom_site_label_1
_geom_bond_atom_site_label_2
_geom_bond_distance
_geom_bond_site_symmetry_2
Li0 O7 2.222622 1_555
Li0 O6 2.222622 1_555
Li0 O11 2.222622 1_555
Li0 O28 2.358246 1_455
Li0 O0 2.358246 1_565
Li0 O1 2.358246 1_555
Li1 O2 2.047687 1_555
Li1 O1 2.156999 1_555
Li1 O12 2.156999 1_555
Li1 O15 2.156999 1_555
Li2 O13 2.047687 1_555
Li2 O0 2.156999 1_555
Li2 O14 2.156999 1_555
Li2 O3 2.156999 1_555
Li3 O4 2.222622 1_555
Li3 O8 2.222622 1_555
Li3 O9 2.222622 1_555
Li3 O15 2.358246 1_545
Li3 O14 2.358246 1_556
Li3 O19 2.358246 1_555
Li4 O23 2.222622 1_555
Li4 O27 2.222622 1_555
Li4 O22 2.222622 1_555
Li4 O16 2.358246 1_555
Li4 O17 2.358246 1_555
Li4 O12 2.358246 1_555
Li5 O18 2.047687 1_555
Li5 O31 2.156999 1_555
Li5 O17 2.156999 1_555
Li5 O28 2.156999 1_555
Li6 O29 2.047687 1_555
Li6 O19 2.156999 1_555
Li6 O16 2.156999 1_555
Li6 O30 2.156999 1_555
Li7 O25 2.222622 1_555
Li7 O20 2.222622 1_555
Li7 O24 2.222622 1_555
Li7 O30 2.358246 1_554
Li7 O3 2.358246 1_655
Li7 O31 2.358246 1_555
O0 Ti11 1.897465 1_455
O0 Ti2 1.998159 1_555
O1 Ti2 1.897465 1_565
O1 Ti10 1.998159 1_455
O2 Ti0 2.050359 1_556
O2 Ti1 2.050359 1_555
O2 Ti9 2.050359 1_455
O3 Ti1 1.897465 1_554
O3 Ti0 1.998159 1_555
O4 Ti1 1.928181 1_555
O4 Ti2 1.981537 1_555
O4 Sn3 2.233865 1_556
O5 Sn0 2.144054 1_455
O5 Ti1 2.153706 1_555
O5 Ti5 2.153706 1_555
O5 Ti2 2.153706 1_555
O6 Ti0 1.928181 1_555
O6 Ti4 1.981537 1_555
O6 Sn0 2.233865 1_455
O7 Ti3 1.928181 1_555
O7 Ti0 1.981537 1_555
O7 Sn3 2.233865 1_565
O8 Ti2 1.928181 1_555
O8 Ti5 1.981537 1_555
O8 Sn2 2.233865 1_545
O9 Ti5 1.928181 1_555
O9 Ti1 1.981537 1_555
O9 Sn1 2.233865 1_555
O10 Sn1 2.144054 1_554
O10 Ti3 2.153706 1_555
O10 Ti4 2.153706 1_555
O10 Ti0 2.153706 1_555
O11 Ti4 1.928181 1_555
O11 Ti3 1.981537 1_555
O11 Sn2 2.233865 1_555
O12 Ti4 1.897465 1_555
O12 Ti5 1.998159 1_555
O13 Ti8 2.050359 1_555
O13 Ti4 2.050359 1_555
O13 Ti5 2.050359 1_555
O14 Ti3 1.897465 1_545
O14 Ti7 1.998159 1_555
O15 Ti6 1.897465 1_555
O15 Ti3 1.998159 1_556
O16 Ti5 1.897465 1_555
O16 Ti8 1.998159 1_555
O17 Ti8 1.897465 1_555
O17 Ti4 1.998159 1_555
O18 Ti7 2.050359 1_565
O18 Ti3 2.050359 1_555
O18 Ti6 2.050359 1_554
O19 Ti7 1.897465 1_556
O19 Ti6 1.998159 1_545
O20 Ti7 1.928181 1_555
O20 Ti8 1.981537 1_555
O20 Sn1 2.233865 1_554
O21 Sn2 2.144054 1_545
O21 Ti11 2.153706 1_555
O21 Ti8 2.153706 1_555
O21 Ti7 2.153706 1_555
O22 Ti6 1.928181 1_555
O22 Ti10 1.981537 1_555
O22 Sn2 2.233865 1_555
O23 Ti9 1.928181 1_555
O23 Ti6 1.981537 1_555
O23 Sn1 2.233865 1_555
O24 Ti8 1.928181 1_555
O24 Ti11 1.981537 1_555
O24 Sn0 2.233865 1_555
O25 Ti11 1.928181 1_555
O25 Ti7 1.981537 1_555
O25 Sn3 2.233865 1_655
O26 Sn3 2.144054 1_666
O26 Ti9 2.153706 1_555
O26 Ti10 2.153706 1_555
O26 Ti6 2.153706 1_555
O27 Ti10 1.928181 1_555
O27 Ti9 1.981537 1_555
O27 Sn0 2.233865 1_555
O28 Ti10 1.897465 1_555
O28 Ti11 1.998159 1_565
O29 Ti2 2.050359 1_655
O29 Ti11 2.050359 1_555
O29 Ti10 2.050359 1_545
O30 Ti9 1.897465 1_555
O30 Ti1 1.998159 1_655
O31 Ti0 1.897465 1_655
O31 Ti9 1.998159 1_554
