# generated using pymatgen
data_Yb2P4O13
_symmetry_space_group_name_H-M   'P 1'
_cell_length_a   9.61815231
_cell_length_b   9.61815231
_cell_length_c   8.74610500
_cell_angle_alpha   90.00000000
_cell_angle_beta   90.00000000
_cell_angle_gamma   136.47618996
_symmetry_Int_Tables_number   1
_chemical_formula_structural   Yb2P4O13
_chemical_formula_sum   'Yb4 P8 O26'
_cell_volume   557.18612672
_cell_formula_units_Z   2
loop_
 _symmetry_equiv_pos_site_id
 _symmetry_equiv_pos_as_xyz
  1  'x, y, z'
loop_
 _atom_site_type_symbol
 _atom_site_label
 _atom_site_symmetry_multiplicity
 _atom_site_fract_x
 _atom_site_fract_y
 _atom_site_fract_z
 _atom_site_occupancy
  Yb  Yb0  1  0.89346700  0.60007900  0.35257400  1
  Yb  Yb1  1  0.39992100  0.10653300  0.14742600  1
  Yb  Yb2  1  0.60007900  0.89346700  0.64742600  1
  Yb  Yb3  1  0.10653300  0.39992100  0.85257400  1
  P  P0  1  0.83792000  0.72066400  0.72797200  1
  P  P1  1  0.27933600  0.16208000  0.77202800  1
  P  P2  1  0.41441800  0.09720700  0.50188300  1
  P  P3  1  0.90279300  0.58558200  0.99811700  1
  P  P4  1  0.09720700  0.41441800  0.49811700  1
  P  P5  1  0.58558200  0.90279300  0.00188300  1
  P  P6  1  0.16208000  0.27933600  0.22797200  1
  P  P7  1  0.72066400  0.83792000  0.27202800  1
  O  O0  1  0.29984200  0.25672900  0.20568400  1
  O  O1  1  0.74327100  0.70015800  0.29431600  1
  O  O2  1  0.06107300  0.93892700  0.75000000  1
  O  O3  1  0.38125600  0.21056800  0.60860300  1
  O  O4  1  0.78943200  0.61874400  0.89139700  1
  O  O5  1  0.38521100  0.15945000  0.89570900  1
  O  O6  1  0.84055000  0.61478900  0.60429100  1
  O  O7  1  0.22149500  0.93279500  0.40830900  1
  O  O8  1  0.06720500  0.77850500  0.09169100  1
  O  O9  1  0.74131100  0.41758000  0.10952300  1
  O  O10  1  0.58242000  0.25868900  0.39047700  1
  O  O11  1  0.98334900  0.53018100  0.89511500  1
  O  O12  1  0.46981900  0.01665100  0.60488500  1
  O  O13  1  0.01665100  0.46981900  0.39511500  1
  O  O14  1  0.53018100  0.98334900  0.10488500  1
  O  O15  1  0.25868900  0.58242000  0.60952300  1
  O  O16  1  0.41758000  0.74131100  0.89047700  1
  O  O17  1  0.77850500  0.06720500  0.90830900  1
  O  O18  1  0.93279500  0.22149500  0.59169100  1
  O  O19  1  0.61478900  0.84055000  0.39570900  1
  O  O20  1  0.15945000  0.38521100  0.10429100  1
  O  O21  1  0.21056800  0.38125600  0.39139700  1
  O  O22  1  0.61874400  0.78943200  0.10860300  1
  O  O23  1  0.93892700  0.06107300  0.25000000  1
  O  O24  1  0.25672900  0.29984200  0.79431600  1
  O  O25  1  0.70015800  0.74327100  0.70568400  1
loop_
_geom_bond_atom_site_label_1
_geom_bond_atom_site_label_2
_geom_bond_distance
_geom_bond_site_symmetry_2
O0 P6 1.502915 1_555
O0 Yb1 2.299913 1_555
O1 P7 1.502915 1_555
O1 Yb0 2.299913 1_555
O2 P0 1.586408 1_455
O2 P1 1.586408 1_565
O3 P1 1.599520 1_555
O3 P2 1.632810 1_555
O4 P0 1.599520 1_555
O4 P3 1.632810 1_555
O5 P1 1.498368 1_555
O5 Yb1 2.286981 1_556
O6 P0 1.498368 1_555
O6 Yb0 2.286981 1_555
O7 P2 1.535683 1_565
O7 Yb0 2.406431 1_455
O7 Yb1 2.604798 1_565
O8 P3 1.535683 1_454
O8 Yb1 2.406431 1_565
O8 Yb0 2.604798 1_455
O9 P3 1.527488 1_554
O9 Yb1 2.365625 1_555
O9 Yb0 2.452831 1_555
O10 P2 1.527488 1_555
O10 Yb0 2.365625 1_555
O10 Yb1 2.452831 1_555
O11 P3 1.514769 1_555
O11 Yb3 2.294446 1_655
O12 P2 1.514769 1_555
O12 Yb2 2.294446 1_545
O13 P4 1.514769 1_555
O13 Yb0 2.294446 1_455
O14 P5 1.514769 1_555
O14 Yb1 2.294446 1_565
O15 P4 1.527488 1_555
O15 Yb2 2.365625 1_555
O15 Yb3 2.452831 1_555
O16 P5 1.527488 1_556
O16 Yb3 2.365625 1_555
O16 Yb2 2.452831 1_555
O17 P5 1.535683 1_546
O17 Yb3 2.406431 1_655
O17 Yb2 2.604798 1_545
O18 P4 1.535683 1_655
O18 Yb2 2.406431 1_545
O18 Yb3 2.604798 1_655
O19 P7 1.498368 1_555
O19 Yb2 2.286981 1_555
O20 P6 1.498368 1_555
O20 Yb3 2.286981 1_554
O21 P6 1.599520 1_555
O21 P4 1.632810 1_555
O22 P7 1.599520 1_555
O22 P5 1.632810 1_555
O23 P6 1.586408 1_655
O23 P7 1.586408 1_545
O24 P1 1.502915 1_555
O24 Yb3 2.299913 1_555
O25 P0 1.502915 1_555
O25 Yb2 2.299913 1_555
