# generated using pymatgen
data_Li3CrSi2O7
_symmetry_space_group_name_H-M   'P 1'
_cell_length_a   8.58308195
_cell_length_b   8.58308195
_cell_length_c   12.98229800
_cell_angle_alpha   90.00000000
_cell_angle_beta   90.00000000
_cell_angle_gamma   119.99999963
_symmetry_Int_Tables_number   1
_chemical_formula_structural   Li3CrSi2O7
_chemical_formula_sum   'Li18 Cr6 Si12 O42'
_cell_volume   828.26388602
_cell_formula_units_Z   6
loop_
 _symmetry_equiv_pos_site_id
 _symmetry_equiv_pos_as_xyz
  1  'x, y, z'
loop_
 _atom_site_type_symbol
 _atom_site_label
 _atom_site_symmetry_multiplicity
 _atom_site_fract_x
 _atom_site_fract_y
 _atom_site_fract_z
 _atom_site_occupancy
  Li  Li0  1  0.02468600  0.69105600  0.89715900  1
  Li  Li1  1  0.02343500  0.69049000  0.56600700  1
  Li  Li2  1  0.33333300  0.66666700  0.21649700  1
  Li  Li3  1  0.33333300  0.66666700  0.73352500  1
  Li  Li4  1  0.00000000  0.00000000  0.46707600  1
  Li  Li5  1  0.00000000  0.00000000  0.96707600  1
  Li  Li6  1  0.30951000  0.33294400  0.56600700  1
  Li  Li7  1  0.30894400  0.33363100  0.89715900  1
  Li  Li8  1  0.66636900  0.97531400  0.89715900  1
  Li  Li9  1  0.66705600  0.97656500  0.56600700  1
  Li  Li10  1  0.33294400  0.02343500  0.06600700  1
  Li  Li11  1  0.33363100  0.02468600  0.39715900  1
  Li  Li12  1  0.69105600  0.66636900  0.39715900  1
  Li  Li13  1  0.69049000  0.66705600  0.06600700  1
  Li  Li14  1  0.66666700  0.33333300  0.23352500  1
  Li  Li15  1  0.66666700  0.33333300  0.71649700  1
  Li  Li16  1  0.97656500  0.30951000  0.06600700  1
  Li  Li17  1  0.97531400  0.30894400  0.39715900  1
  Cr  Cr0  1  0.00000000  0.00000000  0.23135800  1
  Cr  Cr1  1  0.00000000  0.00000000  0.73135800  1
  Cr  Cr2  1  0.33333300  0.66666700  0.50982500  1
  Cr  Cr3  1  0.33333300  0.66666700  0.95547000  1
  Cr  Cr4  1  0.66666700  0.33333300  0.45547000  1
  Cr  Cr5  1  0.66666700  0.33333300  0.00982500  1
  Si  Si0  1  0.02687300  0.67438000  0.34583500  1
  Si  Si1  1  0.02338000  0.67359000  0.11974900  1
  Si  Si2  1  0.32641000  0.34979000  0.11974900  1
  Si  Si3  1  0.32562000  0.35249300  0.34583500  1
  Si  Si4  1  0.65021000  0.97662000  0.11974900  1
  Si  Si5  1  0.64750700  0.97312700  0.34583500  1
  Si  Si6  1  0.35249300  0.02687300  0.84583500  1
  Si  Si7  1  0.34979000  0.02338000  0.61974900  1
  Si  Si8  1  0.67438000  0.64750700  0.84583500  1
  Si  Si9  1  0.67359000  0.65021000  0.61974900  1
  Si  Si10  1  0.97662000  0.32641000  0.61974900  1
  Si  Si11  1  0.97312700  0.32562000  0.84583500  1
  O  O0  1  0.13326900  0.93191600  0.84270300  1
  O  O1  1  0.13095800  0.92648300  0.62532100  1
  O  O2  1  0.12733700  0.69199300  0.23239300  1
  O  O3  1  0.18783300  0.75656900  0.03533600  1
  O  O4  1  0.18943600  0.75827100  0.43089100  1
  O  O5  1  0.12066600  0.53960000  0.60502300  1
  O  O6  1  0.12039400  0.53850000  0.86041400  1
  O  O7  1  0.06808400  0.20135300  0.84270300  1
  O  O8  1  0.41810600  0.87960600  0.86041400  1
  O  O9  1  0.07351700  0.20447500  0.62532100  1
  O  O10  1  0.41893300  0.87933400  0.60502300  1
  O  O11  1  0.24343100  0.43126500  0.03533600  1
  O  O12  1  0.24172900  0.43116400  0.43089100  1
  O  O13  1  0.30800700  0.43534300  0.23239300  1
  O  O14  1  0.20135300  0.13326900  0.34270300  1
  O  O15  1  0.56465700  0.87266300  0.23239300  1
  O  O16  1  0.20447500  0.13095800  0.12532100  1
  O  O17  1  0.56883600  0.81056400  0.43089100  1
  O  O18  1  0.56873500  0.81216700  0.03533600  1
  O  O19  1  0.46040000  0.58106700  0.60502300  1
  O  O20  1  0.46150000  0.58189400  0.86041400  1
  O  O21  1  0.53850000  0.41810600  0.36041400  1
  O  O22  1  0.53960000  0.41893300  0.10502300  1
  O  O23  1  0.43126500  0.18783300  0.53533600  1
  O  O24  1  0.43116400  0.18943600  0.93089100  1
  O  O25  1  0.79552500  0.86904200  0.62532100  1
  O  O26  1  0.43534300  0.12733700  0.73239300  1
  O  O27  1  0.79864700  0.86673100  0.84270300  1
  O  O28  1  0.69199300  0.56465700  0.73239300  1
  O  O29  1  0.75827100  0.56883600  0.93089100  1
  O  O30  1  0.75656900  0.56873500  0.53533600  1
  O  O31  1  0.58106700  0.12066600  0.10502300  1
  O  O32  1  0.92648300  0.79552500  0.12532100  1
  O  O33  1  0.58189400  0.12039400  0.36041400  1
  O  O34  1  0.93191600  0.79864700  0.34270300  1
  O  O35  1  0.87960600  0.46150000  0.36041400  1
  O  O36  1  0.87933400  0.46040000  0.10502300  1
  O  O37  1  0.81056400  0.24172900  0.93089100  1
  O  O38  1  0.81216700  0.24343100  0.53533600  1
  O  O39  1  0.87266300  0.30800700  0.73239300  1
  O  O40  1  0.86904200  0.07351700  0.12532100  1
  O  O41  1  0.86673100  0.06808400  0.34270300  1
loop_
_geom_bond_atom_site_label_1
_geom_bond_atom_site_label_2
_geom_bond_distance
_geom_bond_site_symmetry_2
Li0 O6 1.921598 1_555
Li0 O0 1.927563 1_555
Li0 O29 2.030341 1_455
Li0 O3 2.169690 1_556
Li1 O1 1.917853 1_555
Li1 O5 1.926427 1_555
Li1 O30 2.025710 1_455
Li1 O4 2.148611 1_555
Li2 O2 1.897442 1_555
Li2 O15 1.897452 1_555
Li2 O13 1.897459 1_555
Li3 O8 2.292074 1_555
Li3 O6 2.292075 1_555
Li3 O20 2.292079 1_555
Li3 O19 2.305130 1_555
Li3 O10 2.305130 1_555
Li3 O5 2.305130 1_555
Li4 O41 2.219330 1_455
Li4 O34 2.219330 1_445
Li4 O14 2.219330 1_555
Li4 O1 2.567362 1_545
Li4 O9 2.567362 1_555
Li4 O25 2.567362 1_445
Li5 O0 2.219330 1_545
Li5 O7 2.219330 1_555
Li5 O27 2.219330 1_445
Li5 O40 2.567362 1_456
Li5 O32 2.567362 1_446
Li5 O16 2.567362 1_556
Li6 O9 1.917853 1_555
Li6 O19 1.926441 1_555
Li6 O23 2.025710 1_555
Li6 O12 2.148611 1_555
Li7 O20 1.921591 1_555
Li7 O7 1.927564 1_555
Li7 O24 2.030341 1_555
Li7 O11 2.169690 1_556
Li8 O8 1.921590 1_555
Li8 O27 1.927570 1_555
Li8 O37 2.030341 1_565
Li8 O18 2.169690 1_556
Li9 O25 1.917846 1_555
Li9 O10 1.926443 1_555
Li9 O38 2.025710 1_565
Li9 O17 2.148611 1_555
Li10 O16 1.917846 1_555
Li10 O31 1.926443 1_555
Li10 O3 2.025710 1_545
Li10 O24 2.148611 1_554
Li11 O33 1.921590 1_555
Li11 O14 1.927570 1_555
Li11 O4 2.030341 1_545
Li11 O23 2.169690 1_555
Li12 O21 1.921591 1_555
Li12 O34 1.927564 1_555
Li12 O17 2.030341 1_555
Li12 O30 2.169690 1_555
Li13 O32 1.917853 1_555
Li13 O22 1.926441 1_555
Li13 O18 2.025710 1_555
Li13 O29 2.148611 1_554
Li14 O33 2.292074 1_555
Li14 O35 2.292075 1_555
Li14 O21 2.292079 1_555
Li14 O22 2.305130 1_555
Li14 O31 2.305130 1_555
Li14 O36 2.305130 1_555
Li15 O39 1.897442 1_555
Li15 O26 1.897452 1_555
Li15 O28 1.897459 1_555
Li16 O40 1.917853 1_555
Li16 O36 1.926427 1_555
Li16 O11 2.025710 1_655
Li16 O37 2.148611 1_554
Li17 O35 1.921598 1_555
Li17 O41 1.927563 1_555
Li17 O12 2.030341 1_655
Li17 O38 2.169690 1_555
Cr0 O40 2.065404 1_455
Cr0 O32 2.065404 1_445
Cr0 O16 2.065404 1_555
Cr0 O41 2.099488 1_455
Cr0 O34 2.099488 1_445
Cr0 O14 2.099488 1_555
Cr1 O1 2.065404 1_545
Cr1 O9 2.065404 1_555
Cr1 O25 2.065404 1_445
Cr1 O0 2.099488 1_545
Cr1 O7 2.099488 1_555
Cr1 O27 2.099488 1_445
Cr2 O19 2.014444 1_555
Cr2 O10 2.014444 1_555
Cr2 O5 2.014444 1_555
Cr2 O4 2.040779 1_555
Cr2 O17 2.040791 1_555
Cr2 O12 2.040793 1_555
Cr3 O8 2.015648 1_555
Cr3 O6 2.015649 1_555
Cr3 O20 2.015654 1_555
Cr3 O3 2.047856 1_556
Cr3 O11 2.047856 1_556
Cr3 O18 2.047856 1_556
Cr4 O33 2.015648 1_555
Cr4 O35 2.015649 1_555
Cr4 O21 2.015654 1_555
Cr4 O38 2.047856 1_555
Cr4 O30 2.047856 1_555
Cr4 O23 2.047856 1_555
Cr5 O22 2.014444 1_555
Cr5 O31 2.014444 1_555
Cr5 O36 2.014444 1_555
Cr5 O37 2.040779 1_554
Cr5 O24 2.040791 1_554
Cr5 O29 2.040793 1_554
O0 Si6 1.634882 1_565
O1 Si7 1.631764 1_565
O2 Si0 1.674813 1_555
O2 Si1 1.678901 1_555
O3 Si1 1.641725 1_555
O4 Si0 1.637051 1_555
O5 Si10 1.628213 1_455
O6 Si11 1.631723 1_455
O7 Si11 1.634882 1_455
O8 Si6 1.631723 1_565
O9 Si10 1.631764 1_455
O10 Si7 1.628206 1_565
O11 Si2 1.641731 1_555
O12 Si3 1.637046 1_555
O13 Si3 1.674809 1_555
O13 Si2 1.678897 1_555
O14 Si3 1.634882 1_555
O15 Si5 1.674812 1_555
O15 Si4 1.678900 1_555
O16 Si2 1.631764 1_555
O17 Si5 1.637052 1_555
O18 Si4 1.641725 1_555
O19 Si9 1.628214 1_555
O20 Si8 1.631723 1_555
O21 Si3 1.631723 1_555
O22 Si2 1.628214 1_555
O23 Si7 1.641725 1_555
O24 Si6 1.637052 1_555
O25 Si9 1.631764 1_555
O26 Si6 1.674812 1_555
O26 Si7 1.678900 1_555
O27 Si8 1.634882 1_555
O28 Si8 1.674809 1_555
O28 Si9 1.678897 1_555
O29 Si8 1.637046 1_555
O30 Si9 1.641731 1_555
O31 Si4 1.628206 1_545
O32 Si1 1.631764 1_655
O33 Si5 1.631723 1_545
O34 Si0 1.634882 1_655
O35 Si0 1.631723 1_655
O36 Si1 1.628213 1_655
O37 Si11 1.637051 1_555
O38 Si10 1.641725 1_555
O39 Si11 1.674813 1_555
O39 Si10 1.678901 1_555
O40 Si4 1.631764 1_545
O41 Si5 1.634882 1_545
