# generated using pymatgen
data_Li3Co2(CO3)4
_symmetry_space_group_name_H-M   'P 1'
_cell_length_a   5.60499800
_cell_length_b   6.08642869
_cell_length_c   8.33574148
_cell_angle_alpha   85.23499880
_cell_angle_beta   104.92186907
_cell_angle_gamma   116.59836016
_symmetry_Int_Tables_number   1
_chemical_formula_structural   Li3Co2(CO3)4
_chemical_formula_sum   'Li3 Co2 C4 O12'
_cell_volume   245.52781269
_cell_formula_units_Z   1
loop_
 _symmetry_equiv_pos_site_id
 _symmetry_equiv_pos_as_xyz
  1  'x, y, z'
loop_
 _atom_site_type_symbol
 _atom_site_label
 _atom_site_symmetry_multiplicity
 _atom_site_fract_x
 _atom_site_fract_y
 _atom_site_fract_z
 _atom_site_occupancy
  Li  Li0  1  0.46056700  0.90439600  0.33672400  1
  Li  Li1  1  0.19072500  0.08820200  0.65244400  1
  Li  Li2  1  0.31189700  0.61686500  0.86281500  1
  Co  Co0  1  0.92826100  0.02707700  0.01013400  1
  Co  Co1  1  0.67873700  0.49490400  0.49865500  1
  C  C0  1  0.38391200  0.42755100  0.21472300  1
  C  C1  1  0.92375400  0.90232400  0.30004100  1
  C  C2  1  0.68240300  0.08525700  0.69568100  1
  C  C3  1  0.72576700  0.58686500  0.79304500  1
  O  O0  1  0.22606800  0.38664300  0.06685200  1
  O  O1  1  0.12278600  0.92841300  0.24012600  1
  O  O2  1  0.72904700  0.94672700  0.20485100  1
  O  O3  1  0.33262200  0.50510700  0.33814100  1
  O  O4  1  0.60261200  0.39235400  0.25542000  1
  O  O5  1  0.91964300  0.83892700  0.45472800  1
  O  O6  1  0.62593600  0.15260800  0.54134000  1
  O  O7  1  0.48784900  0.49570400  0.67964800  1
  O  O8  1  0.93413900  0.59860100  0.74579800  1
  O  O9  1  0.49686600  0.00186800  0.77769400  1
  O  O10  1  0.92765300  0.10497400  0.76209800  1
  O  O11  1  0.73675400  0.66201400  0.93339300  1
loop_
_geom_bond_atom_site_label_1
_geom_bond_atom_site_label_2
_geom_bond_distance
_geom_bond_site_symmetry_2
Li0 O1 1.922845 1_555
Li0 O2 1.999236 1_555
Li0 O6 2.100139 1_565
Li0 O3 2.204421 1_555
Li1 O10 1.965835 1_455
Li1 O9 2.025874 1_555
Li1 O5 2.094820 1_445
Li1 O7 2.275228 1_555
Li2 O8 2.047077 1_455
Li2 O0 2.123536 1_556
Li2 O11 2.193560 1_555
Li2 O9 2.235283 1_565
Li2 O7 2.336971 1_555
Co0 O11 2.060383 1_544
Co0 O0 2.072079 1_655
Co0 O10 2.081964 1_554
Co0 O2 2.105456 1_545
Co0 O1 2.131524 1_645
Co0 O9 2.632234 1_554
Co1 O6 1.983314 1_555
Co1 O5 1.984216 1_555
Co1 O4 2.051538 1_555
Co1 O7 2.063537 1_555
Co1 O3 2.077232 1_555
Co1 O8 2.140062 1_555
C0 O0 1.286922 1_555
C0 O4 1.293254 1_555
C0 O3 1.310865 1_555
C1 O1 1.278395 1_655
C1 O2 1.294669 1_555
C1 O5 1.317851 1_555
C2 O9 1.281514 1_555
C2 O10 1.296877 1_555
C2 O6 1.319950 1_555
C3 O11 1.268167 1_555
C3 O8 1.296830 1_555
C3 O7 1.324785 1_555
