# generated using pymatgen
data_TmAsO4
_symmetry_space_group_name_H-M   'P 1'
_cell_length_a   6.93774000
_cell_length_b   6.63852800
_cell_length_c   8.05632696
_cell_angle_alpha   53.38085874
_cell_angle_beta   90.00000000
_cell_angle_gamma   90.00000000
_symmetry_Int_Tables_number   1
_chemical_formula_structural   TmAsO4
_chemical_formula_sum   'Tm4 As4 O16'
_cell_volume   297.80769988
_cell_formula_units_Z   4
loop_
 _symmetry_equiv_pos_site_id
 _symmetry_equiv_pos_as_xyz
  1  'x, y, z'
loop_
 _atom_site_type_symbol
 _atom_site_label
 _atom_site_symmetry_multiplicity
 _atom_site_fract_x
 _atom_site_fract_y
 _atom_site_fract_z
 _atom_site_occupancy
  Tm  Tm0  1  0.85628100  0.80425600  0.78066200  1
  Tm  Tm1  1  0.35628100  0.19574400  0.71933800  1
  Tm  Tm2  1  0.64371900  0.80425600  0.28066200  1
  Tm  Tm3  1  0.14371900  0.19574400  0.21933800  1
  As  As0  1  0.83966000  0.31091900  0.80015400  1
  As  As1  1  0.33966000  0.68908100  0.69984600  1
  As  As2  1  0.66034000  0.31091900  0.30015400  1
  As  As3  1  0.16034000  0.68908100  0.19984600  1
  O  O0  1  0.89641000  0.35858900  0.98292800  1
  O  O1  1  0.28542600  0.37959900  0.89095300  1
  O  O2  1  0.64778600  0.10708300  0.89963500  1
  O  O3  1  0.50910200  0.84079200  0.74533100  1
  O  O4  1  0.78542600  0.62040100  0.60904700  1
  O  O5  1  0.00910200  0.15920800  0.75466900  1
  O  O6  1  0.14778600  0.89291700  0.60036500  1
  O  O7  1  0.39641000  0.64141100  0.51707200  1
  O  O8  1  0.60359000  0.35858900  0.48292800  1
  O  O9  1  0.85221400  0.10708300  0.39963500  1
  O  O10  1  0.99089800  0.84079200  0.24533100  1
  O  O11  1  0.21457400  0.37959900  0.39095300  1
  O  O12  1  0.49089800  0.15920800  0.25466900  1
  O  O13  1  0.35221400  0.89291700  0.10036500  1
  O  O14  1  0.71457400  0.62040100  0.10904700  1
  O  O15  1  0.10359000  0.64141100  0.01707200  1
loop_
_geom_bond_atom_site_label_1
_geom_bond_atom_site_label_2
_geom_bond_distance
_geom_bond_site_symmetry_2
As0 O2 1.718028 1_555
As0 O4 1.720288 1_555
As0 O5 1.723598 1_655
As0 O0 1.726061 1_555
As1 O6 1.718028 1_555
As1 O1 1.720288 1_555
As1 O3 1.723598 1_555
As1 O7 1.726061 1_555
As2 O9 1.718028 1_555
As2 O14 1.720288 1_555
As2 O12 1.723598 1_555
As2 O8 1.726061 1_555
As3 O13 1.718028 1_555
As3 O11 1.720288 1_555
As3 O10 1.723598 1_455
As3 O15 1.726061 1_555
O0 Tm3 2.298628 1_656
O0 Tm0 2.394692 1_555
O1 Tm3 2.367098 1_556
O1 Tm1 2.378239 1_555
O2 Tm1 2.350829 1_555
O2 Tm2 2.470455 1_546
O3 Tm0 2.420542 1_555
O3 Tm1 2.476228 1_565
O4 Tm2 2.367098 1_555
O4 Tm0 2.378239 1_555
O5 Tm1 2.420542 1_555
O5 Tm0 2.476228 1_445
O6 Tm0 2.350829 1_455
O6 Tm3 2.470455 1_565
O7 Tm2 2.298628 1_555
O7 Tm1 2.394692 1_555
O8 Tm1 2.298628 1_555
O8 Tm2 2.394692 1_555
O9 Tm3 2.350829 1_655
O9 Tm0 2.470455 1_545
O10 Tm2 2.420542 1_555
O10 Tm3 2.476228 1_665
O11 Tm1 2.367098 1_555
O11 Tm3 2.378239 1_555
O12 Tm3 2.420542 1_555
O12 Tm2 2.476228 1_545
O13 Tm2 2.350829 1_555
O13 Tm1 2.470455 1_564
O14 Tm0 2.367098 1_554
O14 Tm2 2.378239 1_555
O15 Tm0 2.298628 1_454
O15 Tm3 2.394692 1_555
