# generated using pymatgen
data_Na3Ni5O8
_symmetry_space_group_name_H-M   'P 1'
_cell_length_a   5.93052735
_cell_length_b   5.93052735
_cell_length_c   10.25273712
_cell_angle_alpha   80.60972045
_cell_angle_beta   80.60972045
_cell_angle_gamma   60.88951611
_symmetry_Int_Tables_number   1
_chemical_formula_structural   Na3Ni5O8
_chemical_formula_sum   'Na6 Ni10 O16'
_cell_volume   309.35720224
_cell_formula_units_Z   2
loop_
 _symmetry_equiv_pos_site_id
 _symmetry_equiv_pos_as_xyz
  1  'x, y, z'
loop_
 _atom_site_type_symbol
 _atom_site_label
 _atom_site_symmetry_multiplicity
 _atom_site_fract_x
 _atom_site_fract_y
 _atom_site_fract_z
 _atom_site_occupancy
  Na  Na0  1  0.87255200  0.37922900  0.24774600  1
  Na  Na1  1  0.62723300  0.62723300  0.74892000  1
  Na  Na2  1  0.37276700  0.37276700  0.25108000  1
  Na  Na3  1  0.37922900  0.87255200  0.24774600  1
  Na  Na4  1  0.12744800  0.62077100  0.75225400  1
  Na  Na5  1  0.62077100  0.12744800  0.75225400  1
  Ni  Ni0  1  0.24891800  0.24891800  0.00374900  1
  Ni  Ni1  1  0.75136700  0.24863300  0.00000000  1
  Ni  Ni2  1  0.00000000  0.50000000  0.50000000  1
  Ni  Ni3  1  0.75108200  0.75108200  0.99625100  1
  Ni  Ni4  1  0.50000000  0.50000000  0.50000000  1
  Ni  Ni5  1  0.50000000  0.00000000  0.50000000  1
  Ni  Ni6  1  0.24863300  0.75136700  0.00000000  1
  Ni  Ni7  1  0.87601000  0.87601000  0.24957700  1
  Ni  Ni8  1  0.12399000  0.12399000  0.75042300  1
  Ni  Ni9  1  0.00000000  0.00000000  0.50000000  1
  O  O0  1  0.83719000  0.31461300  0.60629300  1
  O  O1  1  0.93685700  0.40799000  0.89224700  1
  O  O2  1  0.56364400  0.56364400  0.09821800  1
  O  O3  1  0.30360200  0.30360200  0.60652500  1
  O  O4  1  0.43635600  0.43635600  0.90178200  1
  O  O5  1  0.69639800  0.69639800  0.39347500  1
  O  O6  1  0.06314300  0.59201000  0.10775300  1
  O  O7  1  0.31461300  0.83719000  0.60629300  1
  O  O8  1  0.16281000  0.68538700  0.39370700  1
  O  O9  1  0.40799000  0.93685700  0.89224700  1
  O  O10  1  0.05257300  0.05257300  0.11003200  1
  O  O11  1  0.17289400  0.17289400  0.39824900  1
  O  O12  1  0.82710600  0.82710600  0.60175100  1
  O  O13  1  0.94742700  0.94742700  0.88996800  1
  O  O14  1  0.68538700  0.16281000  0.39370700  1
  O  O15  1  0.59201000  0.06314300  0.10775300  1
loop_
_geom_bond_atom_site_label_1
_geom_bond_atom_site_label_2
_geom_bond_distance
_geom_bond_site_symmetry_2
Na0 O6 2.279800 1_655
Na0 O11 2.282775 1_655
Na0 O10 2.296651 1_655
Na0 O2 2.307050 1_555
Na0 O14 2.310034 1_555
Na0 O5 2.314656 1_555
Na1 O4 2.260109 1_555
Na1 O1 2.270627 1_555
Na1 O9 2.270627 1_555
Na1 O7 2.273866 1_555
Na1 O0 2.273866 1_555
Na1 O12 2.299280 1_555
Na2 O2 2.260109 1_555
Na2 O6 2.270627 1_555
Na2 O15 2.270627 1_555
Na2 O14 2.273866 1_555
Na2 O8 2.273866 1_555
Na2 O11 2.299280 1_555
Na3 O15 2.279800 1_565
Na3 O11 2.282775 1_565
Na3 O10 2.296651 1_565
Na3 O2 2.307050 1_555
Na3 O8 2.310034 1_555
Na3 O5 2.314656 1_555
Na4 O1 2.279800 1_455
Na4 O12 2.282775 1_455
Na4 O13 2.296651 1_455
Na4 O4 2.307050 1_555
Na4 O7 2.310034 1_555
Na4 O3 2.314656 1_555
Na5 O9 2.279800 1_545
Na5 O12 2.282775 1_545
Na5 O13 2.296651 1_545
Na5 O4 2.307050 1_555
Na5 O0 2.310034 1_555
Na5 O3 2.314656 1_555
Ni0 O4 2.002034 1_554
Ni0 O9 2.064373 1_544
Ni0 O1 2.064373 1_454
Ni0 O10 2.095325 1_555
Ni0 O6 2.152768 1_555
Ni0 O15 2.152768 1_555
Ni1 O15 1.896854 1_555
Ni1 O1 1.896854 1_554
Ni1 O2 1.991979 1_555
Ni1 O4 1.991979 1_554
Ni1 O13 2.006037 1_544
Ni1 O10 2.006037 1_655
Ni2 O8 1.904535 1_555
Ni2 O0 1.904535 1_455
Ni2 O3 1.994349 1_555
Ni2 O5 1.994349 1_455
Ni2 O11 2.068548 1_555
Ni2 O12 2.068548 1_455
Ni3 O2 2.002034 1_556
Ni3 O6 2.064373 1_656
Ni3 O15 2.064373 1_566
Ni3 O13 2.095325 1_555
Ni3 O9 2.152768 1_555
Ni3 O1 2.152768 1_555
Ni4 O5 2.096632 1_555
Ni4 O3 2.096632 1_555
Ni4 O0 2.139217 1_555
Ni4 O14 2.139217 1_555
Ni4 O7 2.139217 1_555
Ni4 O8 2.139217 1_555
Ni5 O14 1.904535 1_555
Ni5 O7 1.904535 1_545
Ni5 O5 1.994349 1_545
Ni5 O3 1.994349 1_555
Ni5 O11 2.068548 1_555
Ni5 O12 2.068548 1_545
Ni6 O6 1.896854 1_555
Ni6 O9 1.896854 1_554
Ni6 O2 1.991979 1_555
Ni6 O4 1.991979 1_554
Ni6 O10 2.006037 1_565
Ni6 O13 2.006037 1_454
Ni7 O10 2.080611 1_665
Ni7 O5 2.127037 1_555
Ni7 O15 2.153287 1_565
Ni7 O6 2.153287 1_655
Ni7 O8 2.181472 1_655
Ni7 O14 2.181472 1_565
Ni8 O13 2.080611 1_445
Ni8 O3 2.127037 1_555
Ni8 O9 2.153287 1_545
Ni8 O1 2.153287 1_455
Ni8 O7 2.181472 1_545
Ni8 O0 2.181472 1_455
Ni9 O11 1.875063 1_555
Ni9 O12 1.875063 1_445
Ni9 O7 2.041689 1_545
Ni9 O0 2.041689 1_455
Ni9 O8 2.041689 1_545
Ni9 O14 2.041689 1_455
