# generated using pymatgen
data_Li4Fe5CoO12
_symmetry_space_group_name_H-M   'P 1'
_cell_length_a   4.92049267
_cell_length_b   4.92929345
_cell_length_c   10.16949655
_cell_angle_alpha   89.45443965
_cell_angle_beta   88.96270042
_cell_angle_gamma   59.93720098
_symmetry_Int_Tables_number   1
_chemical_formula_structural   Li4Fe5CoO12
_chemical_formula_sum   'Li4 Fe5 Co1 O12'
_cell_volume   213.44055398
_cell_formula_units_Z   1
loop_
 _symmetry_equiv_pos_site_id
 _symmetry_equiv_pos_as_xyz
  1  'x, y, z'
loop_
 _atom_site_type_symbol
 _atom_site_label
 _atom_site_symmetry_multiplicity
 _atom_site_fract_x
 _atom_site_fract_y
 _atom_site_fract_z
 _atom_site_occupancy
  Li  Li0  1  0.15087800  0.49588400  0.74992800  1
  Li  Li1  1  0.34449000  0.50619300  0.24879400  1
  Li  Li2  1  0.64832300  0.50066800  0.75028000  1
  Li  Li3  1  0.84876800  0.49881300  0.24720700  1
  Fe  Fe0  1  0.16708300  0.66753300  0.49948900  1
  Fe  Fe1  1  0.66271900  0.67682900  0.99878400  1
  Fe  Fe2  1  0.33610300  0.32870200  0.99938200  1
  Fe  Fe3  1  0.83726300  0.32721100  0.49944300  1
  Fe  Fe4  1  0.50242000  0.99953300  0.49877200  1
  Co  Co0  1  0.99910900  0.00305600  0.99905800  1
  O  O0  1  0.00191000  0.66419300  0.09972000  1
  O  O1  1  0.33581400  0.66299800  0.89868200  1
  O  O2  1  0.15472400  0.35466400  0.39216500  1
  O  O3  1  0.51165900  0.64055200  0.39295400  1
  O  O4  1  0.49247500  0.35339600  0.60681700  1
  O  O5  1  0.16909000  0.99738600  0.59611600  1
  O  O6  1  0.84773200  0.64145600  0.60592600  1
  O  O7  1  0.66215400  0.34264300  0.10036600  1
  O  O8  1  0.32908400  0.00239500  0.09509500  1
  O  O9  1  0.99622400  0.34116500  0.89805800  1
  O  O10  1  0.66978300  0.00396000  0.90256600  1
  O  O11  1  0.83790200  0.99754500  0.40175300  1
loop_
_geom_bond_atom_site_label_1
_geom_bond_atom_site_label_2
_geom_bond_distance
_geom_bond_site_symmetry_2
Li0 O6 1.967513 1_455
Li0 O9 1.986974 1_455
Li0 O4 2.045651 1_555
Li0 O1 2.149335 1_555
Li1 O3 1.967853 1_555
Li1 O7 2.011652 1_555
Li1 O2 2.045559 1_555
Li1 O0 2.121560 1_555
Li2 O4 1.965199 1_555
Li2 O1 1.997151 1_555
Li2 O6 2.051845 1_555
Li2 O9 2.128202 1_555
Li3 O2 1.983196 1_655
Li3 O0 2.008290 1_655
Li3 O3 2.050852 1_555
Li3 O7 2.108421 1_555
Fe0 O11 1.909266 1_455
Fe0 O5 1.912132 1_555
Fe0 O4 1.923462 1_555
Fe0 O2 1.924005 1_555
Fe0 O3 1.943306 1_555
Fe0 O6 1.948193 1_455
Fe1 O8 1.887300 1_566
Fe1 O10 1.893082 1_565
Fe1 O9 1.931552 1_555
Fe1 O7 1.937228 1_556
Fe1 O1 1.949053 1_555
Fe1 O0 1.949280 1_656
Fe2 O8 1.886899 1_556
Fe2 O10 1.888329 1_555
Fe2 O0 1.930515 1_556
Fe2 O1 1.931236 1_555
Fe2 O7 1.950563 1_556
Fe2 O9 1.954637 1_455
Fe3 O5 1.908859 1_645
Fe3 O11 1.911327 1_545
Fe3 O3 1.917529 1_555
Fe3 O6 1.920574 1_555
Fe3 O2 1.948289 1_655
Fe3 O4 1.950234 1_555
Fe4 O11 1.903545 1_555
Fe4 O5 1.904884 1_555
Fe4 O2 2.048697 1_565
Fe4 O4 2.049700 1_565
Fe4 O6 2.053181 1_555
Fe4 O3 2.060388 1_555
Co0 O10 1.907622 1_555
Co0 O8 1.908431 1_656
Co0 O9 1.943472 1_555
Co0 O0 1.945015 1_646
Co0 O1 1.945654 1_645
Co0 O7 1.950062 1_556
