# generated using pymatgen
data_Bi7(O2F3)3
_symmetry_space_group_name_H-M   'P 1'
_cell_length_a   21.02876218
_cell_length_b   21.02876218
_cell_length_c   5.83657000
_cell_angle_alpha   90.00000000
_cell_angle_beta   90.00000000
_cell_angle_gamma   164.00067708
_symmetry_Int_Tables_number   1
_chemical_formula_structural   Bi7(O2F3)3
_chemical_formula_sum   'Bi14 O12 F18'
_cell_volume   711.38596730
_cell_formula_units_Z   2
loop_
 _symmetry_equiv_pos_site_id
 _symmetry_equiv_pos_as_xyz
  1  'x, y, z'
loop_
 _atom_site_type_symbol
 _atom_site_label
 _atom_site_symmetry_multiplicity
 _atom_site_fract_x
 _atom_site_fract_y
 _atom_site_fract_z
 _atom_site_occupancy
  Bi  Bi0  1  0.95961100  0.61351200  0.70655400  1
  Bi  Bi1  1  0.11351200  0.45961100  0.70655400  1
  Bi  Bi2  1  0.22527100  0.28328200  0.74754100  1
  Bi  Bi3  1  0.78328200  0.72527100  0.74754100  1
  Bi  Bi4  1  0.44217100  0.94217100  0.74157400  1
  Bi  Bi5  1  0.61102000  0.81460200  0.69284700  1
  Bi  Bi6  1  0.31460200  0.11102000  0.69284700  1
  Bi  Bi7  1  0.81460200  0.61102000  0.30715300  1
  Bi  Bi8  1  0.11102000  0.31460200  0.30715300  1
  Bi  Bi9  1  0.94217100  0.44217100  0.25842600  1
  Bi  Bi10  1  0.72527100  0.78328200  0.25245900  1
  Bi  Bi11  1  0.28328200  0.22527100  0.25245900  1
  Bi  Bi12  1  0.61351200  0.95961100  0.29344600  1
  Bi  Bi13  1  0.45961100  0.11351200  0.29344600  1
  O  O0  1  0.98302500  0.98302500  0.00000000  1
  O  O1  1  0.48302500  0.48302500  0.00000000  1
  O  O2  1  0.86785500  0.16017000  0.52222900  1
  O  O3  1  0.66017000  0.36785500  0.52222900  1
  O  O4  1  0.89544800  0.04252300  0.50735500  1
  O  O5  1  0.54252300  0.39544800  0.50735500  1
  O  O6  1  0.50532500  0.50532500  0.50000000  1
  O  O7  1  0.00532500  0.00532500  0.50000000  1
  O  O8  1  0.04252300  0.89544800  0.49264500  1
  O  O9  1  0.39544800  0.54252300  0.49264500  1
  O  O10  1  0.36785500  0.66017000  0.47777100  1
  O  O11  1  0.16017000  0.86785500  0.47777100  1
  F  F0  1  0.53219100  0.66090700  0.95172300  1
  F  F1  1  0.16090700  0.03219100  0.95172300  1
  F  F2  1  0.22581600  0.48835200  0.91801500  1
  F  F3  1  0.98835200  0.72581600  0.91801500  1
  F  F4  1  0.08650800  0.58650800  0.89206200  1
  F  F5  1  0.34345600  0.95011400  0.87348400  1
  F  F6  1  0.45011400  0.84345600  0.87348400  1
  F  F7  1  0.76385700  0.19945400  0.53904500  1
  F  F8  1  0.69945400  0.26385700  0.53904500  1
  F  F9  1  0.26385700  0.69945400  0.46095500  1
  F  F10  1  0.19945400  0.76385700  0.46095500  1
  F  F11  1  0.95011400  0.34345600  0.12651600  1
  F  F12  1  0.84345600  0.45011400  0.12651600  1
  F  F13  1  0.58650800  0.08650800  0.10793800  1
  F  F14  1  0.72581600  0.98835200  0.08198500  1
  F  F15  1  0.48835200  0.22581600  0.08198500  1
  F  F16  1  0.03219100  0.16090700  0.04827700  1
  F  F17  1  0.66090700  0.53219100  0.04827700  1
loop_
_geom_bond_atom_site_label_1
_geom_bond_atom_site_label_2
_geom_bond_distance
_geom_bond_site_symmetry_2
Bi0 F3 2.172944 1_555
Bi0 O11 2.193116 1_655
Bi0 O3 2.226341 1_555
Bi0 F5 2.522391 1_655
Bi0 F10 2.613839 1_655
Bi0 F8 2.759381 1_555
Bi0 F12 2.765003 1_556
Bi1 F2 2.172944 1_555
Bi1 O10 2.193116 1_555
Bi1 O2 2.226341 1_455
Bi1 F6 2.522391 1_555
Bi1 F9 2.613839 1_555
Bi1 F7 2.759381 1_455
Bi1 F11 2.765003 1_456
Bi2 O1 2.328754 1_556
Bi2 O7 2.381166 1_555
Bi2 O6 2.388697 1_555
Bi2 F16 2.470041 1_556
Bi2 O0 2.480147 1_446
Bi2 O9 2.689319 1_555
Bi2 F0 2.757066 1_555
Bi2 O4 2.862402 1_455
Bi3 O0 2.328754 1_556
Bi3 O6 2.381166 1_555
Bi3 O7 2.388697 1_665
Bi3 F17 2.470041 1_556
Bi3 O1 2.480147 1_556
Bi3 O8 2.689319 1_655
Bi3 F1 2.757066 1_665
Bi3 O5 2.862402 1_555
Bi4 F4 2.259418 1_555
Bi4 F13 2.299145 1_566
Bi4 F6 2.365676 1_555
Bi4 F5 2.365676 1_555
Bi4 F9 2.449369 1_555
Bi4 F10 2.449369 1_555
Bi4 F8 2.463089 1_565
Bi4 F7 2.463089 1_565
Bi5 O9 2.187850 1_555
Bi5 O4 2.192017 1_565
Bi5 F0 2.275206 1_555
Bi5 O10 2.518733 1_555
Bi5 F14 2.716381 1_556
Bi5 O2 2.741158 1_565
Bi5 F2 2.751248 1_555
Bi6 O8 2.187850 1_545
Bi6 O5 2.192017 1_555
Bi6 F1 2.275206 1_555
Bi6 O11 2.518733 1_545
Bi6 F15 2.716381 1_556
Bi6 O3 2.741158 1_555
Bi6 F3 2.751248 1_445
Bi7 O5 2.187850 1_555
Bi7 O8 2.192017 1_655
Bi7 F17 2.275206 1_555
Bi7 O3 2.518733 1_555
Bi7 F3 2.716381 1_554
Bi7 O11 2.741158 1_655
Bi7 F15 2.751248 1_555
Bi8 O4 2.187850 1_455
Bi8 O9 2.192017 1_555
Bi8 F16 2.275206 1_555
Bi8 O2 2.518733 1_455
Bi8 F2 2.716381 1_554
Bi8 O10 2.741158 1_555
Bi8 F14 2.751248 1_445
Bi9 F13 2.259418 1_555
Bi9 F4 2.299145 1_654
Bi9 F11 2.365676 1_555
Bi9 F12 2.365676 1_555
Bi9 F7 2.449369 1_555
Bi9 F8 2.449369 1_555
Bi9 F10 2.463089 1_655
Bi9 F9 2.463089 1_655
Bi10 O0 2.328754 1_555
Bi10 O6 2.381166 1_555
Bi10 O7 2.388697 1_665
Bi10 F0 2.470041 1_554
Bi10 O1 2.480147 1_555
Bi10 O4 2.689319 1_565
Bi10 F16 2.757066 1_665
Bi10 O9 2.862402 1_555
Bi11 O1 2.328754 1_555
Bi11 O7 2.381166 1_555
Bi11 O6 2.388697 1_555
Bi11 F1 2.470041 1_554
Bi11 O0 2.480147 1_445
Bi11 O5 2.689319 1_555
Bi11 F17 2.757066 1_555
Bi11 O8 2.862402 1_545
Bi12 F14 2.172944 1_555
Bi12 O2 2.193116 1_565
Bi12 O10 2.226341 1_555
Bi12 F11 2.522391 1_565
Bi12 F7 2.613839 1_565
Bi12 F9 2.759381 1_555
Bi12 F6 2.765003 1_554
Bi13 F15 2.172944 1_555
Bi13 O3 2.193116 1_555
Bi13 O11 2.226341 1_545
Bi13 F12 2.522391 1_555
Bi13 F8 2.613839 1_555
Bi13 F10 2.759381 1_545
Bi13 F5 2.765003 1_544
