# generated using pymatgen
data_LiCrSiO4
_symmetry_space_group_name_H-M   'P 1'
_cell_length_a   5.57876200
_cell_length_b   7.96747300
_cell_length_c   5.84547200
_cell_angle_alpha   90.00004118
_cell_angle_beta   89.99989964
_cell_angle_gamma   89.99989112
_symmetry_Int_Tables_number   1
_chemical_formula_structural   LiCrSiO4
_chemical_formula_sum   'Li4 Cr4 Si4 O16'
_cell_volume   259.82325489
_cell_formula_units_Z   4
loop_
 _symmetry_equiv_pos_site_id
 _symmetry_equiv_pos_as_xyz
  1  'x, y, z'
loop_
 _atom_site_type_symbol
 _atom_site_label
 _atom_site_symmetry_multiplicity
 _atom_site_fract_x
 _atom_site_fract_y
 _atom_site_fract_z
 _atom_site_occupancy
  Li  Li0  1  0.24999400  0.24999900  0.25000100  1
  Li  Li1  1  0.74999400  0.74999900  0.74999300  1
  Li  Li2  1  0.74999700  0.24999500  0.24998200  1
  Li  Li3  1  0.24999700  0.74999600  0.74997400  1
  Cr  Cr0  1  0.50021900  0.49996200  0.50017900  1
  Cr  Cr1  1  0.99985300  0.99994500  0.50016700  1
  Cr  Cr2  1  0.00024100  0.99993700  0.99978100  1
  Cr  Cr3  1  0.49974200  0.50015800  0.99988700  1
  Si  Si0  1  0.50001500  0.13543900  0.75003100  1
  Si  Si1  1  0.99998800  0.63539400  0.25002100  1
  Si  Si2  1  0.99999000  0.36457500  0.75000900  1
  Si  Si3  1  0.50001700  0.86461700  0.25004200  1
  O  O0  1  0.75563100  0.49242700  0.75000400  1
  O  O1  1  0.25556900  0.99237900  0.25000500  1
  O  O2  1  0.25565800  0.00757300  0.74997100  1
  O  O3  1  0.75556200  0.50761700  0.24999000  1
  O  O4  1  0.24435300  0.49242400  0.74997900  1
  O  O5  1  0.74444600  0.99238200  0.24998800  1
  O  O6  1  0.74435800  0.00757600  0.74999300  1
  O  O7  1  0.24442100  0.50761700  0.25001500  1
  O  O8  1  0.49997400  0.24889900  0.98491200  1
  O  O9  1  0.99999100  0.74886000  0.48499900  1
  O  O10  1  0.49999800  0.24886200  0.51507600  1
  O  O11  1  0.00001200  0.74884300  0.01501000  1
  O  O12  1  0.99998800  0.25112200  0.51508000  1
  O  O13  1  0.49997500  0.75116400  0.01500800  1
  O  O14  1  0.00001200  0.25111400  0.98490500  1
  O  O15  1  0.50000200  0.75112400  0.48499700  1
loop_
_geom_bond_atom_site_label_1
_geom_bond_atom_site_label_2
_geom_bond_distance
_geom_bond_site_symmetry_2
Li0 O7 2.052800 1_555
Li0 O1 2.052816 1_545
Li0 O8 2.084727 1_554
Li0 O10 2.084761 1_555
Li0 O14 2.084769 1_554
Li0 O12 2.084782 1_455
Li1 O0 2.052439 1_555
Li1 O6 2.052479 1_565
Li1 O15 2.084372 1_555
Li1 O9 2.084379 1_555
Li1 O13 2.084554 1_556
Li1 O11 2.084562 1_656
Li2 O5 2.052758 1_545
Li2 O3 2.052831 1_555
Li2 O14 2.084806 1_654
Li2 O8 2.084809 1_554
Li2 O12 2.084812 1_555
Li2 O10 2.084821 1_555
Li3 O4 2.052440 1_555
Li3 O2 2.052481 1_565
Li3 O9 2.084334 1_455
Li3 O15 2.084335 1_555
Li3 O13 2.084487 1_556
Li3 O11 2.084518 1_556
Cr0 O10 2.002527 1_555
Cr0 O15 2.003094 1_555
Cr0 O0 2.041203 1_555
Cr0 O3 2.042482 1_555
Cr0 O4 2.042865 1_555
Cr0 O7 2.044152 1_555
Cr1 O9 2.002477 1_555
Cr1 O12 2.003144 1_565
Cr1 O6 2.041549 1_565
Cr1 O2 2.042668 1_665
Cr1 O5 2.042671 1_555
Cr1 O1 2.043800 1_655
Cr2 O11 2.002565 1_556
Cr2 O14 2.003135 1_565
Cr2 O2 2.041180 1_565
Cr2 O1 2.042551 1_556
Cr2 O6 2.042908 1_465
Cr2 O5 2.044293 1_456
Cr3 O13 2.001836 1_556
Cr3 O8 2.003813 1_555
Cr3 O4 2.041508 1_555
Cr3 O7 2.042095 1_556
Cr3 O0 2.043347 1_555
Cr3 O3 2.043937 1_556
O0 Si2 1.701772 1_555
O1 Si3 1.701741 1_555
O2 Si0 1.701833 1_555
O3 Si1 1.701717 1_555
O4 Si2 1.701779 1_455
O5 Si3 1.701673 1_555
O6 Si0 1.701753 1_555
O7 Si1 1.701745 1_455
O8 Si0 1.643867 1_555
O9 Si1 1.644367 1_555
O10 Si0 1.644067 1_555
O11 Si1 1.644454 1_455
O12 Si2 1.644070 1_555
O13 Si3 1.644583 1_555
O14 Si2 1.643945 1_455
O15 Si3 1.644374 1_555
