# generated using pymatgen
data_LiMnPCO7
_symmetry_space_group_name_H-M   'P 1'
_cell_length_a   6.24434500
_cell_length_b   9.48560400
_cell_length_c   10.20354913
_cell_angle_alpha   61.64543464
_cell_angle_beta   90.00000000
_cell_angle_gamma   90.00000000
_symmetry_Int_Tables_number   1
_chemical_formula_structural   LiMnPCO7
_chemical_formula_sum   'Li4 Mn4 P4 C4 O28'
_cell_volume   531.86128174
_cell_formula_units_Z   4
loop_
 _symmetry_equiv_pos_site_id
 _symmetry_equiv_pos_as_xyz
  1  'x, y, z'
loop_
 _atom_site_type_symbol
 _atom_site_label
 _atom_site_symmetry_multiplicity
 _atom_site_fract_x
 _atom_site_fract_y
 _atom_site_fract_z
 _atom_site_occupancy
  Li  Li0  1  0.46799800  0.26132200  0.49540000  1
  Li  Li1  1  0.03200200  0.26132200  0.99540000  1
  Li  Li2  1  0.53200200  0.73867800  0.50460000  1
  Li  Li3  1  0.96799800  0.73867800  0.00460000  1
  Mn  Mn0  1  0.74934800  0.32915300  0.68847000  1
  Mn  Mn1  1  0.75065200  0.32915300  0.18847000  1
  Mn  Mn2  1  0.25065200  0.67084700  0.31153000  1
  Mn  Mn3  1  0.24934800  0.67084700  0.81153000  1
  P  P0  1  0.25038900  0.42480700  0.67611300  1
  P  P1  1  0.24961100  0.42480700  0.17611300  1
  P  P2  1  0.74961100  0.57519300  0.32388700  1
  P  P3  1  0.75038900  0.57519300  0.82388700  1
  C  C0  1  0.74160500  0.04794000  0.37150100  1
  C  C1  1  0.75839500  0.04794000  0.87150100  1
  C  C2  1  0.25839500  0.95206000  0.62849900  1
  C  C3  1  0.24160500  0.95206000  0.12849900  1
  O  O0  1  0.74379200  0.10231700  0.72641400  1
  O  O1  1  0.75620800  0.10231700  0.22641400  1
  O  O2  1  0.26660100  0.09372900  0.53320700  1
  O  O3  1  0.73506400  0.17037400  0.40135500  1
  O  O4  1  0.23339900  0.09372900  0.03320700  1
  O  O5  1  0.76493600  0.17037400  0.90135500  1
  O  O6  1  0.05374800  0.32448900  0.68128800  1
  O  O7  1  0.44050700  0.31233200  0.68931600  1
  O  O8  1  0.05949300  0.31233200  0.18931600  1
  O  O9  1  0.44625200  0.32448900  0.18128800  1
  O  O10  1  0.72775100  0.41478700  0.46930000  1
  O  O11  1  0.25996600  0.46304900  0.30896900  1
  O  O12  1  0.77224900  0.41478700  0.96930000  1
  O  O13  1  0.24003400  0.46304900  0.80896900  1
  O  O14  1  0.74003400  0.53695100  0.69103100  1
  O  O15  1  0.27224900  0.58521300  0.53070000  1
  O  O16  1  0.75996600  0.53695100  0.19103100  1
  O  O17  1  0.22775100  0.58521300  0.03070000  1
  O  O18  1  0.94625200  0.67551100  0.31871200  1
  O  O19  1  0.55949300  0.68766800  0.31068400  1
  O  O20  1  0.55374800  0.67551100  0.81871200  1
  O  O21  1  0.94050700  0.68766800  0.81068400  1
  O  O22  1  0.26493600  0.82962600  0.59864500  1
  O  O23  1  0.73339900  0.90627100  0.46679300  1
  O  O24  1  0.23506400  0.82962600  0.09864500  1
  O  O25  1  0.76660100  0.90627100  0.96679300  1
  O  O26  1  0.25620800  0.89768300  0.27358600  1
  O  O27  1  0.24379200  0.89768300  0.77358600  1
loop_
_geom_bond_atom_site_label_1
_geom_bond_atom_site_label_2
_geom_bond_distance
_geom_bond_site_symmetry_2
Li0 O2 1.917044 1_555
Li0 O10 2.110123 1_555
Li0 O7 2.255647 1_555
Li0 O3 2.287455 1_555
Li0 O11 2.347360 1_555
Li1 O4 1.917044 1_556
Li1 O12 2.110123 1_455
Li1 O8 2.255647 1_556
Li1 O5 2.287455 1_455
Li1 O13 2.347360 1_555
Li2 O23 1.917044 1_555
Li2 O15 2.110123 1_555
Li2 O19 2.255647 1_555
Li2 O22 2.287455 1_555
Li2 O14 2.347360 1_555
Li3 O25 1.917044 1_554
Li3 O17 2.110123 1_655
Li3 O21 2.255647 1_554
Li3 O24 2.287455 1_655
Li3 O16 2.347360 1_555
Mn0 O6 1.903514 1_655
Mn0 O7 1.934780 1_555
Mn0 O5 1.971988 1_555
Mn0 O14 1.984486 1_555
Mn0 O10 1.988379 1_555
Mn0 O0 1.997382 1_555
Mn1 O9 1.903514 1_555
Mn1 O8 1.934780 1_655
Mn1 O3 1.971988 1_555
Mn1 O16 1.984486 1_555
Mn1 O12 1.988379 1_554
Mn1 O1 1.997382 1_555
Mn2 O18 1.903514 1_455
Mn2 O19 1.934780 1_555
Mn2 O24 1.971988 1_555
Mn2 O11 1.984486 1_555
Mn2 O15 1.988379 1_555
Mn2 O26 1.997382 1_555
Mn3 O20 1.903514 1_555
Mn3 O21 1.934780 1_455
Mn3 O22 1.971988 1_555
Mn3 O13 1.984486 1_555
Mn3 O17 1.988379 1_556
Mn3 O27 1.997382 1_555
C0 O23 1.229949 1_545
C0 O1 1.319339 1_555
C0 O3 1.333884 1_555
C1 O25 1.229949 1_545
C1 O0 1.319339 1_555
C1 O5 1.333884 1_555
C2 O2 1.229949 1_565
C2 O27 1.319339 1_555
C2 O22 1.333884 1_555
C3 O4 1.229949 1_565
C3 O26 1.319339 1_555
C3 O24 1.333884 1_555
O6 P0 1.538923 1_555
O7 P0 1.558603 1_555
O8 P1 1.558603 1_555
O9 P1 1.538923 1_555
O10 P2 1.546233 1_555
O11 P1 1.562213 1_555
O12 P3 1.546233 1_555
O13 P0 1.562213 1_555
O14 P3 1.562213 1_555
O15 P0 1.546233 1_555
O16 P2 1.562213 1_555
O17 P1 1.546233 1_555
O18 P2 1.538923 1_555
O19 P2 1.558603 1_555
O20 P3 1.538923 1_555
O21 P3 1.558603 1_555
