# generated using pymatgen
data_Sr3La4O9
_symmetry_space_group_name_H-M   'P 1'
_cell_length_a   6.97616830
_cell_length_b   6.97616830
_cell_length_c   13.53559925
_cell_angle_alpha   68.58225492
_cell_angle_beta   68.58225492
_cell_angle_gamma   63.54010823
_symmetry_Int_Tables_number   1
_chemical_formula_structural   Sr3La4O9
_chemical_formula_sum   'Sr6 La8 O18'
_cell_volume   532.56066060
_cell_formula_units_Z   2
loop_
 _symmetry_equiv_pos_site_id
 _symmetry_equiv_pos_as_xyz
  1  'x, y, z'
loop_
 _atom_site_type_symbol
 _atom_site_label
 _atom_site_symmetry_multiplicity
 _atom_site_fract_x
 _atom_site_fract_y
 _atom_site_fract_z
 _atom_site_occupancy
  Sr  Sr0  1  0.45804700  0.58352500  0.44686000  1
  Sr  Sr1  1  0.45536400  0.78223900  0.17162400  1
  Sr  Sr2  1  0.58352500  0.45804700  0.94686000  1
  Sr  Sr3  1  0.29175100  0.11777100  0.50233900  1
  Sr  Sr4  1  0.78223900  0.45536400  0.67162400  1
  Sr  Sr5  1  0.11777100  0.29175100  0.00233900  1
  La  La0  1  0.70718300  0.94527700  0.88231000  1
  La  La1  1  0.19578100  0.56610100  0.72178400  1
  La  La2  1  0.94527700  0.70718300  0.38231000  1
  La  La3  1  0.25940300  0.98345700  0.79049600  1
  La  La4  1  0.56610100  0.19578100  0.22178400  1
  La  La5  1  0.02843000  0.76676000  0.08652400  1
  La  La6  1  0.98345700  0.25940300  0.29049600  1
  La  La7  1  0.76676000  0.02843000  0.58652400  1
  O  O0  1  0.08760000  0.70241300  0.90397800  1
  O  O1  1  0.31395000  0.99692500  0.33904900  1
  O  O2  1  0.71960300  0.45857100  0.09552600  1
  O  O3  1  0.03026300  0.67828600  0.55196100  1
  O  O4  1  0.34532400  0.88468200  0.97663100  1
  O  O5  1  0.02032800  0.98352000  0.19733000  1
  O  O6  1  0.65670300  0.78079400  0.76702800  1
  O  O7  1  0.99692500  0.31395000  0.83904900  1
  O  O8  1  0.31849600  0.48546400  0.32581300  1
  O  O9  1  0.45857100  0.71960300  0.59552600  1
  O  O10  1  0.67828600  0.03026300  0.05196100  1
  O  O11  1  0.24682500  0.38291100  0.12851200  1
  O  O12  1  0.88468200  0.34532400  0.47663100  1
  O  O13  1  0.98352000  0.02032800  0.69733000  1
  O  O14  1  0.78079400  0.65670300  0.26702800  1
  O  O15  1  0.48546400  0.31849600  0.82581300  1
  O  O16  1  0.38291100  0.24682500  0.62851200  1
  O  O17  1  0.70241300  0.08760000  0.40397800  1
loop_
_geom_bond_atom_site_label_1
_geom_bond_atom_site_label_2
_geom_bond_distance
_geom_bond_site_symmetry_2
La0 O15 2.361590 1_565
La0 O6 2.438165 1_555
La0 O0 2.489610 1_655
La0 O10 2.492985 1_566
La0 O4 2.526701 1_555
La0 O13 2.583877 1_565
La1 O9 2.356475 1_555
La1 O7 2.462812 1_455
La1 O15 2.498298 1_555
La1 O16 2.553021 1_555
La1 O3 2.654977 1_555
La1 O0 2.696187 1_555
La1 O13 2.784569 1_465
La2 O8 2.361590 1_655
La2 O14 2.438165 1_555
La2 O17 2.489610 1_565
La2 O3 2.492985 1_655
La2 O12 2.526701 1_555
La2 O5 2.583877 1_655
La3 O7 2.359250 1_465
La3 O6 2.444321 1_555
La3 O16 2.452409 1_565
La3 O0 2.487962 1_555
La3 O13 2.540675 1_465
La3 O4 2.578499 1_555
La4 O2 2.356475 1_555
La4 O1 2.462812 1_545
La4 O8 2.498298 1_555
La4 O11 2.553021 1_555
La4 O10 2.654977 1_555
La4 O17 2.696187 1_555
La4 O5 2.784569 1_645
La5 O11 2.387482 1_555
La5 O10 2.402021 1_465
La5 O5 2.461213 1_555
La5 O4 2.470206 1_554
La5 O14 2.504535 1_455
La5 O0 2.525300 1_554
La6 O1 2.359250 1_645
La6 O14 2.444321 1_555
La6 O11 2.452409 1_655
La6 O17 2.487962 1_555
La6 O5 2.540675 1_645
La6 O12 2.578499 1_555
La7 O16 2.387482 1_555
La7 O3 2.402021 1_645
La7 O13 2.461213 1_555
La7 O12 2.470206 1_555
La7 O6 2.504535 1_545
La7 O17 2.525300 1_555
O0 Sr5 2.627909 1_556
O1 Sr3 2.571832 1_565
O1 Sr0 2.621346 1_555
O1 Sr1 2.807363 1_555
O2 Sr1 2.481954 1_555
O2 Sr5 2.508676 1_655
O2 Sr2 2.520727 1_554
O3 Sr4 2.558754 1_455
O3 Sr0 2.682348 1_555
O4 Sr5 2.646965 1_566
O4 Sr1 2.771183 1_556
O4 Sr2 2.785937 1_555
O5 Sr1 2.662949 1_555
O5 Sr5 2.810557 1_565
O6 Sr4 2.670579 1_555
O6 Sr2 2.714626 1_555
O7 Sr5 2.571832 1_656
O7 Sr2 2.621346 1_555
O7 Sr4 2.807363 1_555
O8 Sr0 2.584036 1_555
O8 Sr1 2.589273 1_555
O8 Sr3 2.819286 1_555
O9 Sr4 2.481954 1_555
O9 Sr3 2.508676 1_565
O9 Sr0 2.520727 1_555
O10 Sr1 2.558754 1_545
O10 Sr2 2.682348 1_554
O11 Sr5 2.560859 1_555
O11 Sr2 2.788462 1_554
O12 Sr3 2.646965 1_655
O12 Sr4 2.771183 1_555
O12 Sr0 2.785937 1_555
O13 Sr4 2.662949 1_555
O13 Sr3 2.810557 1_655
O14 Sr1 2.670579 1_555
O14 Sr0 2.714626 1_555
O15 Sr2 2.584036 1_555
O15 Sr4 2.589273 1_555
O15 Sr5 2.819286 1_556
O16 Sr3 2.560859 1_555
O16 Sr0 2.788462 1_555
O17 Sr3 2.627909 1_555
