# generated using pymatgen
data_Na4PtO4
_symmetry_space_group_name_H-M   'P 1'
_cell_length_a   5.73047739
_cell_length_b   5.73047739
_cell_length_c   7.97716948
_cell_angle_alpha   60.37385163
_cell_angle_beta   60.37385163
_cell_angle_gamma   33.48598367
_symmetry_Int_Tables_number   1
_chemical_formula_structural   Na4PtO4
_chemical_formula_sum   'Na4 Pt1 O4'
_cell_volume   123.78370877
_cell_formula_units_Z   1
loop_
 _symmetry_equiv_pos_site_id
 _symmetry_equiv_pos_as_xyz
  1  'x, y, z'
loop_
 _atom_site_type_symbol
 _atom_site_label
 _atom_site_symmetry_multiplicity
 _atom_site_fract_x
 _atom_site_fract_y
 _atom_site_fract_z
 _atom_site_occupancy
  Na  Na0  1  0.20689900  0.20689900  0.67427600  1
  Na  Na1  1  0.36887500  0.36887500  0.89383600  1
  Na  Na2  1  0.79310100  0.79310100  0.32572400  1
  Na  Na3  1  0.63112500  0.63112500  0.10616400  1
  Pt  Pt0  1  0.00000000  0.00000000  0.50000000  1
  O  O0  1  0.80308300  0.80308300  0.76860200  1
  O  O1  1  0.19691700  0.19691700  0.23139800  1
  O  O2  1  0.43176300  0.43176300  0.40427100  1
  O  O3  1  0.56823700  0.56823700  0.59572900  1
loop_
_geom_bond_atom_site_label_1
_geom_bond_atom_site_label_2
_geom_bond_distance
_geom_bond_site_symmetry_2
Na0 O0 2.286015 1_545
Na0 O0 2.286015 1_455
Na0 O2 2.289475 1_555
Na0 O3 2.533436 1_545
Na0 O3 2.533436 1_455
Na1 O0 2.233702 1_545
Na1 O0 2.233702 1_455
Na1 O3 2.251777 1_555
Na1 O1 2.359232 1_556
Na2 O1 2.286015 1_565
Na2 O1 2.286015 1_655
Na2 O3 2.289475 1_555
Na2 O2 2.533436 1_655
Na2 O2 2.533436 1_565
Na3 O1 2.233702 1_655
Na3 O1 2.233702 1_565
Na3 O2 2.251777 1_555
Na3 O0 2.359232 1_554
O0 Pt0 2.116795 1_665
O1 Pt0 2.116795 1_555
O2 Pt0 2.111804 1_565
O2 Pt0 2.111804 1_655
O3 Pt0 2.111804 1_655
O3 Pt0 2.111804 1_565
