# generated using pymatgen
data_Li2CoSiO4
_symmetry_space_group_name_H-M   'P 1'
_cell_length_a   5.37625621
_cell_length_b   5.37729436
_cell_length_c   12.37123933
_cell_angle_alpha   89.98633577
_cell_angle_beta   90.01441981
_cell_angle_gamma   109.75266799
_symmetry_Int_Tables_number   1
_chemical_formula_structural   Li2CoSiO4
_chemical_formula_sum   'Li8 Co4 Si4 O16'
_cell_volume   336.60498751
_cell_formula_units_Z   4
loop_
 _symmetry_equiv_pos_site_id
 _symmetry_equiv_pos_as_xyz
  1  'x, y, z'
loop_
 _atom_site_type_symbol
 _atom_site_label
 _atom_site_symmetry_multiplicity
 _atom_site_fract_x
 _atom_site_fract_y
 _atom_site_fract_z
 _atom_site_occupancy
  Li  Li0  1  0.49778500  0.00174200  0.62549700  1
  Li  Li1  1  0.99776200  0.50174800  0.87551900  1
  Li  Li2  1  0.49777100  0.00172700  0.12554100  1
  Li  Li3  1  0.99775600  0.50175000  0.37552100  1
  Li  Li4  1  0.49744700  0.00159800  0.87561400  1
  Li  Li5  1  0.99747200  0.50159500  0.12563800  1
  Li  Li6  1  0.49744800  0.00160700  0.37561600  1
  Li  Li7  1  0.99745800  0.50157800  0.62559200  1
  Co  Co0  1  0.49680900  0.50104600  0.00049700  1
  Co  Co1  1  0.99683000  0.00104400  0.75020900  1
  Co  Co2  1  0.99684400  0.00103000  0.25035200  1
  Co  Co3  1  0.49684100  0.50103000  0.50037000  1
  Si  Si0  1  0.99722900  0.00135000  0.00042200  1
  Si  Si1  1  0.49715400  0.50140800  0.25048400  1
  Si  Si2  1  0.99714300  0.00143100  0.50045400  1
  Si  Si3  1  0.49723100  0.50133600  0.75052100  1
  O  O0  1  0.16959500  0.39567200  0.75061200  1
  O  O1  1  0.66955800  0.89569200  0.00047200  1
  O  O2  1  0.16955000  0.39577000  0.25053800  1
  O  O3  1  0.66954200  0.89576600  0.50055200  1
  O  O4  1  0.10865900  0.88987000  0.60857600  1
  O  O5  1  0.60873100  0.38978000  0.85861100  1
  O  O6  1  0.10868700  0.88978300  0.10857300  1
  O  O7  1  0.60867100  0.38979500  0.35857900  1
  O  O8  1  0.10242000  0.32909600  0.00046100  1
  O  O9  1  0.60240200  0.82912700  0.25049500  1
  O  O10  1  0.10234200  0.32913100  0.50055100  1
  O  O11  1  0.60247100  0.82909800  0.75061700  1
  O  O12  1  0.60873600  0.39041900  0.64228500  1
  O  O13  1  0.10875200  0.89042400  0.89224700  1
  O  O14  1  0.60873000  0.39057200  0.14226500  1
  O  O15  1  0.10874200  0.89046700  0.39227300  1
loop_
_geom_bond_atom_site_label_1
_geom_bond_atom_site_label_2
_geom_bond_distance
_geom_bond_site_symmetry_2
Li0 O3 1.980787 1_545
Li0 O12 1.981072 1_555
Li0 O11 1.981569 1_545
Li0 O4 1.982809 1_545
Li1 O8 1.979808 1_656
Li1 O0 1.980890 1_655
Li1 O13 1.980977 1_655
Li1 O5 1.982278 1_555
Li2 O9 1.979702 1_545
Li2 O14 1.981848 1_555
Li2 O1 1.982216 1_545
Li2 O6 1.982634 1_545
Li3 O10 1.980386 1_655
Li3 O15 1.981220 1_655
Li3 O2 1.981275 1_655
Li3 O7 1.982602 1_555
Li4 O5 1.978645 1_555
Li4 O1 1.980277 1_546
Li4 O13 1.980510 1_545
Li4 O11 1.981316 1_545
Li5 O6 1.978777 1_655
Li5 O2 1.980389 1_655
Li5 O14 1.980788 1_555
Li5 O8 1.982871 1_655
Li6 O7 1.978738 1_555
Li6 O15 1.980608 1_545
Li6 O3 1.980823 1_545
Li6 O9 1.982286 1_545
Li7 O4 1.979249 1_655
Li7 O12 1.980731 1_555
Li7 O10 1.981247 1_655
Li7 O0 1.981920 1_655
Co0 O8 2.006391 1_555
Co0 O14 2.007863 1_555
Co0 O1 2.008434 1_555
Co0 O5 2.011347 1_554
Co1 O11 2.006250 1_545
Co1 O4 2.008218 1_645
Co1 O0 2.008363 1_655
Co1 O13 2.011094 1_645
Co2 O9 2.006622 1_545
Co2 O2 2.008867 1_655
Co2 O15 2.009657 1_645
Co2 O6 2.009981 1_645
Co3 O10 2.006897 1_555
Co3 O3 2.008845 1_555
Co3 O12 2.009688 1_555
Co3 O7 2.010057 1_555
O0 Si3 1.658034 1_555
O1 Si0 1.658212 1_565
O2 Si1 1.657873 1_555
O3 Si2 1.657856 1_565
O4 Si2 1.658560 1_465
O5 Si3 1.658186 1_555
O6 Si0 1.658714 1_465
O7 Si1 1.658428 1_555
O8 Si0 1.658961 1_455
O9 Si1 1.658818 1_555
O10 Si2 1.658727 1_455
O11 Si3 1.659039 1_555
O12 Si3 1.658471 1_555
O13 Si0 1.657932 1_466
O14 Si1 1.658276 1_555
O15 Si2 1.658288 1_465
