# generated using pymatgen
data_MnSn(PO4)2
_symmetry_space_group_name_H-M   'P 1'
_cell_length_a   6.11040501
_cell_length_b   10.08292092
_cell_length_c   10.25138676
_cell_angle_alpha   89.29196477
_cell_angle_beta   89.99922105
_cell_angle_gamma   89.99363669
_symmetry_Int_Tables_number   1
_chemical_formula_structural   MnSn(PO4)2
_chemical_formula_sum   'Mn4 Sn4 P8 O32'
_cell_volume   631.54719877
_cell_formula_units_Z   4
loop_
 _symmetry_equiv_pos_site_id
 _symmetry_equiv_pos_as_xyz
  1  'x, y, z'
loop_
 _atom_site_type_symbol
 _atom_site_label
 _atom_site_symmetry_multiplicity
 _atom_site_fract_x
 _atom_site_fract_y
 _atom_site_fract_z
 _atom_site_occupancy
  Mn  Mn0  1  0.74987900  0.72485500  0.22418100  1
  Mn  Mn1  1  0.25017100  0.27532700  0.77584500  1
  Mn  Mn2  1  0.74983600  0.22476700  0.22397400  1
  Mn  Mn3  1  0.25007900  0.77517400  0.77593000  1
  Sn  Sn0  1  0.24999400  0.47778100  0.28201700  1
  Sn  Sn1  1  0.24997700  0.97789700  0.28194800  1
  Sn  Sn2  1  0.75005900  0.02212200  0.71804800  1
  Sn  Sn3  1  0.75001100  0.52212500  0.71800300  1
  P  P0  1  0.24997400  0.19612000  0.10168900  1
  P  P1  1  0.24994300  0.69607200  0.10178100  1
  P  P2  1  0.75004600  0.30391000  0.89824100  1
  P  P3  1  0.75008900  0.80389700  0.89829200  1
  P  P4  1  0.74999400  0.45689400  0.40749000  1
  P  P5  1  0.74998300  0.95696400  0.40749400  1
  P  P6  1  0.25001000  0.04302100  0.59252000  1
  P  P7  1  0.24998700  0.54310600  0.59250800  1
  O  O0  1  0.75003800  0.32116900  0.04348100  1
  O  O1  1  0.75011100  0.82111000  0.04349500  1
  O  O2  1  0.25002700  0.17891800  0.95647700  1
  O  O3  1  0.24991700  0.67879400  0.95653700  1
  O  O4  1  0.24999900  0.34592200  0.13436100  1
  O  O5  1  0.24999400  0.84591400  0.13434900  1
  O  O6  1  0.74996800  0.15409700  0.86563500  1
  O  O7  1  0.74994500  0.65409100  0.86560000  1
  O  O8  1  0.74995900  0.10557300  0.39282500  1
  O  O9  1  0.74994300  0.60544100  0.39288000  1
  O  O10  1  0.25002700  0.39451500  0.60710700  1
  O  O11  1  0.25000800  0.89445500  0.60719500  1
  O  O12  1  0.24999300  0.08848400  0.44672200  1
  O  O13  1  0.24998200  0.58855600  0.44672100  1
  O  O14  1  0.74997900  0.41141300  0.55330600  1
  O  O15  1  0.74996100  0.91148600  0.55326900  1
  O  O16  1  0.05493800  0.12087200  0.17420400  1
  O  O17  1  0.05492700  0.62086000  0.17431800  1
  O  O18  1  0.44501900  0.12085000  0.17421500  1
  O  O19  1  0.44502600  0.62084400  0.17428300  1
  O  O20  1  0.55499200  0.37918200  0.82574500  1
  O  O21  1  0.55504200  0.87920400  0.82582600  1
  O  O22  1  0.94507100  0.37913600  0.82571700  1
  O  O23  1  0.94514100  0.87912900  0.82577500  1
  O  O24  1  0.95015600  0.38737600  0.33699300  1
  O  O25  1  0.95013000  0.88745900  0.33698900  1
  O  O26  1  0.54985000  0.38737300  0.33697900  1
  O  O27  1  0.54985200  0.88745300  0.33697600  1
  O  O28  1  0.04984700  0.11256900  0.66299400  1
  O  O29  1  0.04983200  0.61258500  0.66303700  1
  O  O30  1  0.45016600  0.11254900  0.66299400  1
  O  O31  1  0.45013000  0.61258700  0.66303200  1
loop_
_geom_bond_atom_site_label_1
_geom_bond_atom_site_label_2
_geom_bond_distance
_geom_bond_site_symmetry_2
Mn0 O1 2.080494 1_555
Mn0 O9 2.095012 1_555
Mn0 O19 2.201170 1_555
Mn0 O17 2.201807 1_655
Mn0 O27 2.359053 1_555
Mn0 O25 2.360077 1_555
Mn1 O2 2.080711 1_555
Mn1 O10 2.094054 1_555
Mn1 O20 2.200256 1_555
Mn1 O22 2.201200 1_455
Mn1 O30 2.360511 1_555
Mn1 O28 2.361616 1_555
Mn2 O0 2.079420 1_555
Mn2 O8 2.095037 1_555
Mn2 O18 2.200191 1_555
Mn2 O16 2.201377 1_655
Mn2 O26 2.360055 1_555
Mn2 O24 2.361410 1_555
Mn3 O3 2.080352 1_555
Mn3 O11 2.094557 1_555
Mn3 O23 2.201001 1_455
Mn3 O21 2.201826 1_555
Mn3 O31 2.359578 1_555
Mn3 O29 2.360393 1_555
O0 P2 1.501181 1_554
O1 P3 1.500745 1_554
O2 P0 1.500822 1_556
O3 P1 1.501246 1_556
O4 P0 1.551167 1_555
O4 Sn0 2.026967 1_555
O5 P1 1.551318 1_555
O5 Sn1 2.027358 1_555
O6 P2 1.551121 1_555
O6 Sn2 2.027211 1_555
O7 P3 1.551253 1_555
O7 Sn3 2.027228 1_555
O8 P5 1.504090 1_545
O9 P4 1.503415 1_555
O10 P7 1.503846 1_555
O11 P6 1.503664 1_565
O12 P6 1.557922 1_555
O12 Sn1 2.035468 1_545
O13 P7 1.557777 1_555
O13 Sn0 2.035927 1_555
O14 P4 1.558150 1_555
O14 Sn3 2.035512 1_555
O15 P5 1.557740 1_555
O15 Sn2 2.035787 1_565
O16 P0 1.592096 1_555
O16 Sn1 2.163057 1_545
O17 P1 1.591938 1_555
O17 Sn0 2.163612 1_555
O18 P0 1.592183 1_555
O18 Sn1 2.163024 1_545
O19 P1 1.592044 1_555
O19 Sn0 2.163727 1_555
O20 P2 1.592092 1_555
O20 Sn3 2.162926 1_555
O21 P3 1.592084 1_555
O21 Sn2 2.162938 1_565
O22 P2 1.591984 1_555
O22 Sn3 2.163066 1_555
O23 P3 1.592103 1_555
O23 Sn2 2.163234 1_565
O24 P4 1.588022 1_555
O24 Sn0 2.119644 1_655
O25 P5 1.587931 1_555
O25 Sn1 2.120008 1_655
O26 P4 1.588152 1_555
O26 Sn0 2.119553 1_555
O27 P5 1.588079 1_555
O27 Sn1 2.119985 1_555
O28 P6 1.588054 1_555
O28 Sn2 2.119770 1_455
O29 P7 1.587965 1_555
O29 Sn3 2.119765 1_455
O30 P6 1.588065 1_555
O30 Sn2 2.120076 1_555
O31 P7 1.588029 1_555
O31 Sn3 2.119942 1_555
