# generated using pymatgen
data_Li3Co(BO2)5
_symmetry_space_group_name_H-M   'P 1'
_cell_length_a   6.94702700
_cell_length_b   7.09736073
_cell_length_c   9.37695797
_cell_angle_alpha   80.17000928
_cell_angle_beta   68.94587751
_cell_angle_gamma   61.83010721
_symmetry_Int_Tables_number   1
_chemical_formula_structural   Li3Co(BO2)5
_chemical_formula_sum   'Li6 Co2 B10 O20'
_cell_volume   380.36384050
_cell_formula_units_Z   2
loop_
 _symmetry_equiv_pos_site_id
 _symmetry_equiv_pos_as_xyz
  1  'x, y, z'
loop_
 _atom_site_type_symbol
 _atom_site_label
 _atom_site_symmetry_multiplicity
 _atom_site_fract_x
 _atom_site_fract_y
 _atom_site_fract_z
 _atom_site_occupancy
  Li  Li0  1  0.24136300  0.49280100  0.24854500  1
  Li  Li1  1  0.81570100  0.99199300  0.16251400  1
  Li  Li2  1  0.01988200  0.19343100  0.46434700  1
  Li  Li3  1  0.98011800  0.80656900  0.53565300  1
  Li  Li4  1  0.18429900  0.00800700  0.83748600  1
  Li  Li5  1  0.75863700  0.50719900  0.75145500  1
  Co  Co0  1  0.21423400  0.52347800  0.88429200  1
  Co  Co1  1  0.78576600  0.47652200  0.11570800  1
  B  B0  1  0.30422800  0.80435600  0.07367900  1
  B  B1  1  0.41036900  0.85921900  0.29011300  1
  B  B2  1  0.36343400  0.75021400  0.56815100  1
  B  B3  1  0.21562800  0.16829600  0.13159500  1
  B  B4  1  0.74449300  0.71597300  0.39694900  1
  B  B5  1  0.25550700  0.28402700  0.60305100  1
  B  B6  1  0.78437200  0.83170400  0.86840500  1
  B  B7  1  0.63656600  0.24978600  0.43184900  1
  B  B8  1  0.58963100  0.14078100  0.70988700  1
  B  B9  1  0.69577200  0.19564400  0.92632100  1
  O  O0  1  0.26987500  0.69366800  0.99450100  1
  O  O1  1  0.27201600  0.84213000  0.44816500  1
  O  O2  1  0.40854200  0.71984800  0.18772100  1
  O  O3  1  0.21876700  0.73950800  0.70592400  1
  O  O4  1  0.12960900  0.37959500  0.09922700  1
  O  O5  1  0.65595900  0.78366400  0.27281900  1
  O  O6  1  0.04725200  0.30585100  0.62222700  1
  O  O7  1  0.69366100  0.91149800  0.74983800  1
  O  O8  1  0.59959200  0.68233600  0.53973700  1
  O  O9  1  0.77891500  0.97418900  0.95799000  1
  O  O10  1  0.22108500  0.02581100  0.04201000  1
  O  O11  1  0.40040800  0.31766400  0.46026300  1
  O  O12  1  0.30633900  0.08850200  0.25016200  1
  O  O13  1  0.95274800  0.69414900  0.37777300  1
  O  O14  1  0.34404100  0.21633600  0.72718100  1
  O  O15  1  0.87039100  0.62040500  0.90077300  1
  O  O16  1  0.78123300  0.26049200  0.29407600  1
  O  O17  1  0.59145800  0.28015200  0.81227900  1
  O  O18  1  0.72798400  0.15787000  0.55183500  1
  O  O19  1  0.73012500  0.30633200  0.00549900  1
loop_
_geom_bond_atom_site_label_1
_geom_bond_atom_site_label_2
_geom_bond_distance
_geom_bond_site_symmetry_2
Li0 O13 1.915966 1_455
Li0 O4 2.227734 1_555
Li0 O2 2.290883 1_555
Li0 O11 2.478682 1_555
Li1 O9 2.055397 1_554
Li1 O5 2.165613 1_555
Li1 O16 2.317393 1_565
Li1 O19 2.398641 1_565
Li2 O6 1.900862 1_555
Li2 O18 2.016441 1_455
Li2 O12 2.188205 1_555
Li2 O1 2.263280 1_545
Li2 O16 2.534120 1_455
Li3 O13 1.900862 1_555
Li3 O1 2.016441 1_655
Li3 O7 2.188205 1_555
Li3 O18 2.263280 1_565
Li3 O3 2.534120 1_655
Li4 O10 2.055397 1_556
Li4 O14 2.165613 1_555
Li4 O3 2.317393 1_545
Li4 O0 2.398641 1_545
Li5 O6 1.915966 1_655
Li5 O15 2.227734 1_555
Li5 O17 2.290883 1_555
Li5 O8 2.478682 1_555
Co0 O0 1.957160 1_555
Co0 O3 2.069146 1_555
Co0 O15 2.102976 1_455
Co0 O4 2.112626 1_556
Co0 O17 2.271473 1_555
Co0 O14 2.453880 1_555
Co1 O19 1.957160 1_555
Co1 O16 2.069146 1_555
Co1 O4 2.102976 1_655
Co1 O15 2.112626 1_554
Co1 O2 2.271473 1_555
Co1 O5 2.453880 1_555
B0 O0 1.314846 1_554
B0 O2 1.398515 1_555
B0 O10 1.413825 1_565
B1 O1 1.469757 1_555
B1 O12 1.478757 1_565
B1 O5 1.480467 1_555
B1 O2 1.498448 1_555
B2 O3 1.338099 1_555
B2 O1 1.402272 1_555
B2 O8 1.406467 1_555
B3 O4 1.351657 1_555
B3 O12 1.380356 1_555
B3 O10 1.400265 1_555
B4 O13 1.326813 1_555
B4 O5 1.417159 1_555
B4 O8 1.418579 1_555
B5 O6 1.326813 1_555
B5 O14 1.417159 1_555
B5 O11 1.418579 1_555
B6 O15 1.351657 1_555
B6 O7 1.380356 1_555
B6 O9 1.400265 1_555
B7 O16 1.338099 1_555
B7 O18 1.402272 1_555
B7 O11 1.406467 1_555
B8 O18 1.469757 1_555
B8 O7 1.478757 1_545
B8 O14 1.480467 1_555
B8 O17 1.498448 1_555
B9 O19 1.314846 1_556
B9 O17 1.398515 1_555
B9 O9 1.413825 1_545
