# generated using pymatgen
data_Mg2CoO4
_symmetry_space_group_name_H-M   'P 1'
_cell_length_a   5.94614436
_cell_length_b   8.40911700
_cell_length_c   5.94614436
_cell_angle_alpha   90.00000000
_cell_angle_beta   90.00000000
_cell_angle_gamma   90.00000000
_symmetry_Int_Tables_number   1
_chemical_formula_structural   Mg2CoO4
_chemical_formula_sum   'Mg8 Co4 O16'
_cell_volume   297.31806168
_cell_formula_units_Z   4
loop_
 _symmetry_equiv_pos_site_id
 _symmetry_equiv_pos_as_xyz
  1  'x, y, z'
loop_
 _atom_site_type_symbol
 _atom_site_label
 _atom_site_symmetry_multiplicity
 _atom_site_fract_x
 _atom_site_fract_y
 _atom_site_fract_z
 _atom_site_occupancy
  Mg  Mg0  1  0.75000000  0.25000000  0.75000000  1
  Mg  Mg1  1  0.25000000  0.75000000  0.25000000  1
  Mg  Mg2  1  0.75000000  0.25000000  0.25000000  1
  Mg  Mg3  1  0.25000000  0.75000000  0.75000000  1
  Mg  Mg4  1  0.50000000  0.50000000  0.00000000  1
  Mg  Mg5  1  0.00000000  0.00000000  0.50000000  1
  Mg  Mg6  1  0.00000000  0.50000000  0.00000000  1
  Mg  Mg7  1  0.50000000  0.00000000  0.50000000  1
  Co  Co0  1  0.75000000  0.62500000  0.50000000  1
  Co  Co1  1  0.25000000  0.37500000  0.50000000  1
  Co  Co2  1  0.25000000  0.12500000  0.00000000  1
  Co  Co3  1  0.75000000  0.87500000  0.00000000  1
  O  O0  1  0.50160200  0.25080100  0.00000000  1
  O  O1  1  0.00160200  0.75080100  0.50000000  1
  O  O2  1  0.99839700  0.25080100  0.00000000  1
  O  O3  1  0.49839700  0.75080100  0.50000000  1
  O  O4  1  0.25000000  0.50080100  0.75160200  1
  O  O5  1  0.75000000  0.00080100  0.25160200  1
  O  O6  1  0.25000000  0.50080100  0.24839800  1
  O  O7  1  0.75000000  0.00080100  0.74839800  1
  O  O8  1  0.75000000  0.49919900  0.75160200  1
  O  O9  1  0.25000000  0.99919900  0.25160200  1
  O  O10  1  0.75000000  0.49919900  0.24839800  1
  O  O11  1  0.25000000  0.99919900  0.74839800  1
  O  O12  1  0.00160300  0.74919900  0.00000000  1
  O  O13  1  0.50160300  0.24919900  0.50000000  1
  O  O14  1  0.49839800  0.74919900  0.00000000  1
  O  O15  1  0.99839800  0.24919900  0.50000000  1
loop_
_geom_bond_atom_site_label_1
_geom_bond_atom_site_label_2
_geom_bond_distance
_geom_bond_site_symmetry_2
Mg0 O13 2.095561 1_555
Mg0 O2 2.095561 1_556
Mg0 O7 2.095565 1_555
Mg0 O8 2.095565 1_555
Mg0 O15 2.095565 1_555
Mg0 O0 2.095565 1_556
Mg1 O3 2.095561 1_555
Mg1 O12 2.095561 1_555
Mg1 O6 2.095565 1_555
Mg1 O9 2.095565 1_555
Mg1 O14 2.095565 1_555
Mg1 O1 2.095565 1_555
Mg2 O13 2.095561 1_555
Mg2 O2 2.095561 1_555
Mg2 O10 2.095565 1_555
Mg2 O5 2.095565 1_555
Mg2 O15 2.095565 1_555
Mg2 O0 2.095565 1_555
Mg3 O12 2.095561 1_556
Mg3 O3 2.095561 1_555
Mg3 O4 2.095565 1_555
Mg3 O11 2.095565 1_555
Mg3 O14 2.095565 1_556
Mg3 O1 2.095565 1_555
Mg4 O14 2.095565 1_555
Mg4 O0 2.095565 1_555
Mg4 O6 2.095565 1_555
Mg4 O4 2.095565 1_554
Mg4 O8 2.095565 1_554
Mg4 O10 2.095565 1_555
Mg5 O1 2.095565 1_545
Mg5 O15 2.095565 1_455
Mg5 O7 2.095565 1_455
Mg5 O9 2.095565 1_545
Mg5 O11 2.095565 1_545
Mg5 O5 2.095565 1_455
Mg6 O12 2.095565 1_555
Mg6 O2 2.095565 1_455
Mg6 O6 2.095565 1_555
Mg6 O4 2.095565 1_554
Mg6 O10 2.095565 1_455
Mg6 O8 2.095565 1_454
Mg7 O3 2.095565 1_545
Mg7 O13 2.095565 1_555
Mg7 O7 2.095565 1_555
Mg7 O5 2.095565 1_555
Mg7 O9 2.095565 1_545
Mg7 O11 2.095565 1_545
Co0 O10 1.832294 1_555
Co0 O8 1.832294 1_555
Co0 O1 1.832294 1_655
Co0 O3 1.832299 1_555
Co1 O15 1.832294 1_455
Co1 O6 1.832294 1_555
Co1 O4 1.832294 1_555
Co1 O13 1.832299 1_555
Co2 O0 1.832294 1_555
Co2 O11 1.832294 1_544
Co2 O9 1.832294 1_545
Co2 O2 1.832299 1_455
Co3 O5 1.832294 1_565
Co3 O14 1.832294 1_555
Co3 O7 1.832294 1_564
Co3 O12 1.832299 1_655
