# generated using pymatgen
data_Ge3Ru2
_symmetry_space_group_name_H-M   'P 1'
_cell_length_a   5.73900814
_cell_length_b   5.73904949
_cell_length_c   9.27968842
_cell_angle_alpha   89.99790169
_cell_angle_beta   89.99384316
_cell_angle_gamma   90.00466864
_symmetry_Int_Tables_number   1
_chemical_formula_structural   Ge3Ru2
_chemical_formula_sum   'Ge12 Ru8'
_cell_volume   305.64000650
_cell_formula_units_Z   4
loop_
 _symmetry_equiv_pos_site_id
 _symmetry_equiv_pos_as_xyz
  1  'x, y, z'
loop_
 _atom_site_type_symbol
 _atom_site_label
 _atom_site_symmetry_multiplicity
 _atom_site_fract_x
 _atom_site_fract_y
 _atom_site_fract_z
 _atom_site_occupancy
  Ge  Ge0  1  0.82712770  0.82636713  0.74983275  1
  Ge  Ge1  1  0.82685645  0.17364005  0.24994573  1
  Ge  Ge2  1  0.34836420  0.21704358  0.41420978  1
  Ge  Ge3  1  0.34842740  0.78334627  0.91386615  1
  Ge  Ge4  1  0.21821015  0.34866987  0.08549549  1
  Ge  Ge5  1  0.78183909  0.34842304  0.58556783  1
  Ge  Ge6  1  0.65165391  0.78262149  0.41426306  1
  Ge  Ge7  1  0.17310896  0.17380826  0.74988337  1
  Ge  Ge8  1  0.17293898  0.82619282  0.24978022  1
  Ge  Ge9  1  0.78139116  0.65157036  0.08529470  1
  Ge  Ge10  1  0.21828271  0.65133398  0.58546141  1
  Ge  Ge11  1  0.65172418  0.21734287  0.91431492  1
  Ru  Ru0  1  0.00003754  0.50007299  0.87676102  1
  Ru  Ru1  1  0.00002147  0.00004723  0.00027050  1
  Ru  Ru2  1  0.49997550  0.99998781  0.12367419  1
  Ru  Ru3  1  0.00002406  0.49990940  0.37682282  1
  Ru  Ru4  1  0.49999233  0.99984797  0.62377386  1
  Ru  Ru5  1  0.50000562  0.49993116  0.25024219  1
  Ru  Ru6  1  0.50003027  0.49993268  0.75022489  1
  Ru  Ru7  1  0.99998533  0.99991102  0.50030812  1
loop_
_geom_bond_atom_site_label_1
_geom_bond_atom_site_label_2
_geom_bond_distance
_geom_bond_site_symmetry_2
Ge0 Ru0 2.424697 1_655
Ge0 Ru4 2.425922 1_555
Ge0 Ru6 2.651997 1_555
Ge0 Ru7 2.708664 1_555
Ge0 Ru1 2.716518 1_666
Ge1 Ru3 2.424904 1_655
Ge1 Ru2 2.426058 1_545
Ge1 Ru5 2.650630 1_555
Ge1 Ru1 2.710730 1_655
Ge1 Ru7 2.716514 1_545
Ge2 Ru5 2.389062 1_555
Ge2 Ru4 2.468435 1_545
Ge2 Ru7 2.487523 1_445
Ge2 Ru3 2.598630 1_555
Ge3 Ru6 2.389280 1_555
Ge3 Ru2 2.468455 1_556
Ge3 Ru1 2.487514 1_566
Ge3 Ru0 2.599775 1_555
Ge4 Ru5 2.388857 1_555
Ge4 Ru0 2.464803 1_554
Ge4 Ru1 2.489258 1_555
Ge4 Ru2 2.597190 1_545
Ge5 Ru6 2.388768 1_555
Ge5 Ru3 2.464801 1_655
Ge5 Ru7 2.488806 1_545
Ge5 Ru4 2.596792 1_545
Ge6 Ru5 2.388817 1_555
Ge6 Ru4 2.468127 1_555
Ge6 Ru7 2.487764 1_555
Ge6 Ru3 2.598236 1_655
Ge7 Ru0 2.424681 1_555
Ge7 Ru4 2.426001 1_545
Ge7 Ru6 2.650025 1_555
Ge7 Ru7 2.710616 1_445
Ge7 Ru1 2.716448 1_556
Ge8 Ru3 2.424948 1_555
Ge8 Ru2 2.426114 1_555
Ge8 Ru5 2.651389 1_555
Ge8 Ru1 2.709570 1_565
Ge8 Ru7 2.717317 1_455
Ge9 Ru5 2.388984 1_555
Ge9 Ru0 2.464751 1_654
Ge9 Ru1 2.489138 1_665
Ge9 Ru2 2.594998 1_555
Ge10 Ru6 2.389117 1_555
Ge10 Ru3 2.464376 1_555
Ge10 Ru7 2.489268 1_455
Ge10 Ru4 2.596234 1_555
Ge11 Ru6 2.388950 1_555
Ge11 Ru2 2.467426 1_546
Ge11 Ru1 2.487492 1_656
Ge11 Ru0 2.597972 1_655
