# generated using pymatgen
data_Co6OF11
_symmetry_space_group_name_H-M   'P 1'
_cell_length_a   4.75071100
_cell_length_b   5.70569471
_cell_length_c   7.89689523
_cell_angle_alpha   86.74248628
_cell_angle_beta   89.60356457
_cell_angle_gamma   89.52909178
_symmetry_Int_Tables_number   1
_chemical_formula_structural   Co6OF11
_chemical_formula_sum   'Co6 O1 F11'
_cell_volume   213.69654068
_cell_formula_units_Z   1
loop_
 _symmetry_equiv_pos_site_id
 _symmetry_equiv_pos_as_xyz
  1  'x, y, z'
loop_
 _atom_site_type_symbol
 _atom_site_label
 _atom_site_symmetry_multiplicity
 _atom_site_fract_x
 _atom_site_fract_y
 _atom_site_fract_z
 _atom_site_occupancy
  Co  Co0  1  0.51923700  0.48809100  0.99378900  1
  Co  Co1  1  0.50449600  0.82893200  0.66436100  1
  Co  Co2  1  0.49709300  0.16836700  0.33495500  1
  Co  Co3  1  0.00451100  0.66508900  0.32972900  1
  Co  Co4  1  0.98799000  0.32703000  0.68511900  1
  Co  Co5  1  0.99009600  0.01893900  0.99085100  1
  O  O0  1  0.79199600  0.30387000  0.90316900  1
  F  F0  1  0.80542000  0.62795100  0.56649900  1
  F  F1  1  0.80342700  0.96814700  0.22968700  1
  F  F2  1  0.69151100  0.46892900  0.23567700  1
  F  F3  1  0.69978100  0.79925300  0.89704200  1
  F  F4  1  0.70226500  0.12797900  0.56513300  1
  F  F5  1  0.30369200  0.86709100  0.43294400  1
  F  F6  1  0.30164600  0.53442000  0.76692600  1
  F  F7  1  0.29840700  0.20408100  0.10290200  1
  F  F8  1  0.20610200  0.02979900  0.76460100  1
  F  F9  1  0.20102000  0.70572800  0.09393500  1
  F  F10  1  0.19131000  0.36630800  0.44268200  1
loop_
_geom_bond_atom_site_label_1
_geom_bond_atom_site_label_2
_geom_bond_distance
_geom_bond_site_symmetry_2
Co0 O0 1.829289 1_555
Co0 F6 2.077323 1_555
Co0 F7 2.079843 1_556
Co0 F2 2.080127 1_556
Co0 F3 2.081636 1_555
Co0 F9 2.125333 1_556
Co1 F8 2.002631 1_565
Co1 F0 2.003616 1_555
Co1 F3 2.061863 1_555
Co1 F6 2.066292 1_555
Co1 F4 2.066963 1_565
Co1 F5 2.067028 1_555
Co2 F10 2.043196 1_555
Co2 F1 2.043985 1_545
Co2 F5 2.064663 1_545
Co2 F7 2.066121 1_555
Co2 F2 2.066851 1_555
Co2 F4 2.068911 1_555
Co3 F2 2.037769 1_455
Co3 F5 2.040253 1_555
Co3 F10 2.074273 1_555
Co3 F9 2.079164 1_555
Co3 F1 2.086801 1_455
Co3 F0 2.090272 1_455
Co4 O0 1.950233 1_555
Co4 F6 2.041347 1_655
Co4 F4 2.048321 1_555
Co4 F8 2.050096 1_655
Co4 F0 2.093247 1_555
Co4 F10 2.139563 1_655
Co5 O0 1.965724 1_555
Co5 F3 2.042115 1_545
Co5 F7 2.047878 1_656
Co5 F8 2.052360 1_655
Co5 F1 2.084853 1_546
Co5 F9 2.162625 1_646
