# generated using pymatgen
data_H6CSBrN3
_symmetry_space_group_name_H-M   'P 1'
_cell_length_a   7.83875100
_cell_length_b   12.08562700
_cell_length_c   12.34572100
_cell_angle_alpha   90.00000000
_cell_angle_beta   90.00000000
_cell_angle_gamma   90.00000000
_symmetry_Int_Tables_number   1
_chemical_formula_structural   H6CSBrN3
_chemical_formula_sum   'H48 C8 S8 Br8 N24'
_cell_volume   1169.58694975
_cell_formula_units_Z   8
loop_
 _symmetry_equiv_pos_site_id
 _symmetry_equiv_pos_as_xyz
  1  'x, y, z'
loop_
 _atom_site_type_symbol
 _atom_site_label
 _atom_site_symmetry_multiplicity
 _atom_site_fract_x
 _atom_site_fract_y
 _atom_site_fract_z
 _atom_site_occupancy
  H  H0  1  0.31659000  0.30573500  0.87752700  1
  H  H1  1  0.18341000  0.69426500  0.37752700  1
  H  H2  1  0.81659000  0.19426500  0.12247300  1
  H  H3  1  0.68341000  0.80573500  0.62247300  1
  H  H4  1  0.68341000  0.69426500  0.12247300  1
  H  H5  1  0.81659000  0.30573500  0.62247300  1
  H  H6  1  0.18341000  0.80573500  0.87752700  1
  H  H7  1  0.31659000  0.19426500  0.37752700  1
  H  H8  1  0.47368100  0.36124500  0.04851400  1
  H  H9  1  0.02631900  0.63875500  0.54851400  1
  H  H10  1  0.97368100  0.13875500  0.95148600  1
  H  H11  1  0.52631900  0.86124500  0.45148600  1
  H  H12  1  0.52631900  0.63875500  0.95148600  1
  H  H13  1  0.97368100  0.36124500  0.45148600  1
  H  H14  1  0.02631900  0.86124500  0.04851400  1
  H  H15  1  0.47368100  0.13875500  0.54851400  1
  H  H16  1  0.38032400  0.23495400  0.03130400  1
  H  H17  1  0.11967600  0.76504600  0.53130400  1
  H  H18  1  0.88032400  0.26504600  0.96869600  1
  H  H19  1  0.61967600  0.73495400  0.46869600  1
  H  H20  1  0.61967600  0.76504600  0.96869600  1
  H  H21  1  0.88032400  0.23495400  0.46869600  1
  H  H22  1  0.11967600  0.73495400  0.03130400  1
  H  H23  1  0.38032400  0.26504600  0.53130400  1
  H  H24  1  0.27716200  0.32960300  0.10689500  1
  H  H25  1  0.22283800  0.67039700  0.60689500  1
  H  H26  1  0.77716200  0.17039700  0.89310500  1
  H  H27  1  0.72283800  0.82960300  0.39310500  1
  H  H28  1  0.72283800  0.67039700  0.89310500  1
  H  H29  1  0.77716200  0.32960300  0.39310500  1
  H  H30  1  0.22283800  0.82960300  0.10689500  1
  H  H31  1  0.27716200  0.17039700  0.60689500  1
  H  H32  1  0.12865300  0.56260800  0.81384300  1
  H  H33  1  0.37134700  0.43739200  0.31384300  1
  H  H34  1  0.62865300  0.93739200  0.18615700  1
  H  H35  1  0.87134700  0.06260800  0.68615700  1
  H  H36  1  0.87134700  0.43739200  0.18615700  1
  H  H37  1  0.62865300  0.56260800  0.68615700  1
  H  H38  1  0.37134700  0.06260800  0.81384300  1
  H  H39  1  0.12865300  0.93739200  0.31384300  1
  H  H40  1  0.13855300  0.42167600  0.77706200  1
  H  H41  1  0.36144700  0.57832400  0.27706200  1
  H  H42  1  0.63855300  0.07832400  0.22293800  1
  H  H43  1  0.86144700  0.92167600  0.72293800  1
  H  H44  1  0.86144700  0.57832400  0.22293800  1
  H  H45  1  0.63855300  0.42167600  0.72293800  1
  H  H46  1  0.36144700  0.92167600  0.77706200  1
  H  H47  1  0.13855300  0.07832400  0.27706200  1
  C  C0  1  0.23289600  0.46131800  0.92740100  1
  C  C1  1  0.26710400  0.53868200  0.42740100  1
  C  C2  1  0.73289600  0.03868200  0.07259900  1
  C  C3  1  0.76710400  0.96131800  0.57259900  1
  C  C4  1  0.76710400  0.53868200  0.07259900  1
  C  C5  1  0.73289600  0.46131800  0.57259900  1
  C  C6  1  0.26710400  0.96131800  0.92740100  1
  C  C7  1  0.23289600  0.03868200  0.42740100  1
  S  S0  1  0.26282500  0.55527000  0.02712700  1
  S  S1  1  0.23717500  0.44473000  0.52712700  1
  S  S2  1  0.76282500  0.94473000  0.97287300  1
  S  S3  1  0.73717500  0.05527000  0.47287300  1
  S  S4  1  0.73717500  0.44473000  0.97287300  1
  S  S5  1  0.76282500  0.55527000  0.47287300  1
  S  S6  1  0.23717500  0.05527000  0.02712700  1
  S  S7  1  0.26282500  0.94473000  0.52712700  1
  Br  Br0  1  0.04995900  0.22477200  0.71849600  1
  Br  Br1  1  0.45004100  0.77522800  0.21849600  1
  Br  Br2  1  0.54995900  0.27522800  0.28150400  1
  Br  Br3  1  0.95004100  0.72477200  0.78150400  1
  Br  Br4  1  0.95004100  0.77522800  0.28150400  1
  Br  Br5  1  0.54995900  0.22477200  0.78150400  1
  Br  Br6  1  0.45004100  0.72477200  0.71849600  1
  Br  Br7  1  0.04995900  0.27522800  0.21849600  1
  N  N0  1  0.27019200  0.35091800  0.94300300  1
  N  N1  1  0.22980800  0.64908200  0.44300300  1
  N  N2  1  0.77019200  0.14908200  0.05699700  1
  N  N3  1  0.72980800  0.85091800  0.55699700  1
  N  N4  1  0.72980800  0.64908200  0.05699700  1
  N  N5  1  0.77019200  0.35091800  0.55699700  1
  N  N6  1  0.22980800  0.85091800  0.94300300  1
  N  N7  1  0.27019200  0.14908200  0.44300300  1
  N  N8  1  0.35750800  0.31977800  0.03883100  1
  N  N9  1  0.14249200  0.68022200  0.53883100  1
  N  N10  1  0.85750800  0.18022200  0.96116900  1
  N  N11  1  0.64249200  0.81977800  0.46116900  1
  N  N12  1  0.64249200  0.68022200  0.96116900  1
  N  N13  1  0.85750800  0.31977800  0.46116900  1
  N  N14  1  0.14249200  0.81977800  0.03883100  1
  N  N15  1  0.35750800  0.18022200  0.53883100  1
  N  N16  1  0.17188100  0.48394000  0.82923600  1
  N  N17  1  0.32811900  0.51606000  0.32923600  1
  N  N18  1  0.67188100  0.01606000  0.17076400  1
  N  N19  1  0.82811900  0.98394000  0.67076400  1
  N  N20  1  0.82811900  0.51606000  0.17076400  1
  N  N21  1  0.67188100  0.48394000  0.67076400  1
  N  N22  1  0.32811900  0.98394000  0.82923600  1
  N  N23  1  0.17188100  0.01606000  0.32923600  1
loop_
_geom_bond_atom_site_label_1
_geom_bond_atom_site_label_2
_geom_bond_distance
_geom_bond_site_symmetry_2
H0 N0 1.041102 1_555
H1 N1 1.041102 1_555
H2 N2 1.041102 1_555
H3 N3 1.041102 1_555
H4 N4 1.041102 1_555
H5 N5 1.041102 1_555
H6 N6 1.041102 1_555
H7 N7 1.041102 1_555
H8 N8 1.046295 1_555
H9 N9 1.046295 1_555
H10 N10 1.046295 1_555
H11 N11 1.046295 1_555
H12 N12 1.046295 1_555
H13 N13 1.046295 1_555
H14 N14 1.046295 1_555
H15 N15 1.046295 1_555
H16 N8 1.044776 1_555
H17 N9 1.044776 1_555
H18 N10 1.044776 1_555
H19 N11 1.044776 1_555
H20 N12 1.044776 1_555
H21 N13 1.044776 1_555
H22 N14 1.044776 1_555
H23 N15 1.044776 1_555
H24 N8 1.056819 1_555
H25 N9 1.056819 1_555
H26 N10 1.056819 1_555
H27 N11 1.056819 1_555
H28 N12 1.056819 1_555
H29 N13 1.056819 1_555
H30 N14 1.056819 1_555
H31 N15 1.056819 1_555
H32 N16 1.027067 1_555
H33 N17 1.027067 1_555
H34 N18 1.027067 1_565
H35 N19 1.027067 1_545
H36 N20 1.027067 1_555
H37 N21 1.027067 1_555
H38 N22 1.027067 1_545
H39 N23 1.027067 1_565
H40 N16 1.024405 1_555
H41 N17 1.024405 1_555
H42 N18 1.024405 1_555
H43 N19 1.024405 1_555
H44 N20 1.024405 1_555
H45 N21 1.024405 1_555
H46 N22 1.024405 1_555
H47 N23 1.024405 1_555
C0 N16 1.331257 1_555
C0 N0 1.379422 1_555
C0 S0 1.691200 1_556
C1 N17 1.331257 1_555
C1 N1 1.379422 1_555
C1 S1 1.691200 1_555
C2 N18 1.331257 1_555
C2 N2 1.379422 1_555
C2 S2 1.691200 1_544
C3 N19 1.331257 1_555
C3 N3 1.379422 1_555
C3 S3 1.691200 1_565
C4 N20 1.331257 1_555
C4 N4 1.379422 1_555
C4 S4 1.691200 1_554
C5 N21 1.331257 1_555
C5 N5 1.379422 1_555
C5 S5 1.691200 1_555
C6 N22 1.331257 1_555
C6 N6 1.379422 1_555
C6 S6 1.691200 1_566
C7 N23 1.331257 1_555
C7 N7 1.379422 1_555
C7 S7 1.691200 1_545
N0 N8 1.417657 1_556
N1 N9 1.417657 1_555
N10 N2 1.417657 1_556
N11 N3 1.417657 1_555
N12 N4 1.417657 1_556
N13 N5 1.417657 1_555
N14 N6 1.417657 1_554
N15 N7 1.417657 1_555
