# generated using pymatgen
data_Li24Mn7Cr5O36
_symmetry_space_group_name_H-M   'P 1'
_cell_length_a   5.01335800
_cell_length_b   9.74703101
_cell_length_c   13.27801405
_cell_angle_alpha   97.06138118
_cell_angle_beta   100.48447420
_cell_angle_gamma   94.80707565
_symmetry_Int_Tables_number   1
_chemical_formula_structural   Li24Mn7Cr5O36
_chemical_formula_sum   'Li24 Mn7 Cr5 O36'
_cell_volume   629.40428271
_cell_formula_units_Z   1
loop_
 _symmetry_equiv_pos_site_id
 _symmetry_equiv_pos_as_xyz
  1  'x, y, z'
loop_
 _atom_site_type_symbol
 _atom_site_label
 _atom_site_symmetry_multiplicity
 _atom_site_fract_x
 _atom_site_fract_y
 _atom_site_fract_z
 _atom_site_occupancy
  Li  Li0  1  0.16786300  0.99953800  0.83326200  1
  Li  Li1  1  0.05165600  0.00000100  0.61435100  1
  Li  Li2  1  0.99962600  0.74954400  0.25009300  1
  Li  Li3  1  0.33144800  0.75028400  0.91717000  1
  Li  Li4  1  0.04726100  0.50000000  0.11211200  1
  Li  Li5  1  0.38050400  0.49879600  0.77657900  1
  Li  Li6  1  0.16595000  0.49999900  0.33338500  1
  Li  Li7  1  0.50234000  0.50006900  0.00036600  1
  Li  Li8  1  0.28785600  0.50062400  0.55629900  1
  Li  Li9  1  0.33417900  0.25010600  0.41603800  1
  Li  Li10  1  0.50012900  0.99985900  0.50062200  1
  Li  Li11  1  0.27968300  0.99859500  0.05246000  1
  Li  Li12  1  0.61462100  0.99989400  0.71875000  1
  Li  Li13  1  0.38525800  0.99994900  0.28059800  1
  Li  Li14  1  0.71881100  0.00126700  0.94761300  1
  Li  Li15  1  0.66394600  0.75014500  0.58407900  1
  Li  Li16  1  0.71229400  0.49961300  0.44356300  1
  Li  Li17  1  0.83421200  0.50014700  0.66719300  1
  Li  Li18  1  0.61955400  0.50112300  0.22277600  1
  Li  Li19  1  0.95066200  0.50023400  0.88798500  1
  Li  Li20  1  0.66791900  0.24973100  0.08267400  1
  Li  Li21  1  0.83437000  0.00027700  0.16672900  1
  Li  Li22  1  0.99909900  0.25002900  0.74851100  1
  Li  Li23  1  0.94854500  0.99974900  0.38565800  1
  Mn  Mn0  1  0.22345400  0.75003000  0.69404200  1
  Mn  Mn1  1  0.44476200  0.25072800  0.64009100  1
  Mn  Mn2  1  0.55469200  0.25002900  0.86108600  1
  Mn  Mn3  1  0.44436900  0.74978200  0.13904600  1
  Mn  Mn4  1  0.55357200  0.74858900  0.35982200  1
  Mn  Mn5  1  0.77762200  0.25039700  0.30566700  1
  Mn  Mn6  1  0.89189900  0.75136300  0.02875700  1
  Cr  Cr0  1  0.10460800  0.24798000  0.96914300  1
  Cr  Cr1  1  0.10390400  0.75047100  0.47299100  1
  Cr  Cr2  1  0.22890000  0.25085400  0.19352800  1
  Cr  Cr3  1  0.77216800  0.74986500  0.80715000  1
  Cr  Cr4  1  0.89316600  0.25001600  0.52625600  1
  O  O0  1  0.00334900  0.86314100  0.93117200  1
  O  O1  1  0.06932700  0.63643200  0.78469900  1
  O  O2  1  0.99926800  0.36182100  0.42893900  1
  O  O3  1  0.14867400  0.36303600  0.64471700  1
  O  O4  1  0.26458700  0.36375400  0.88367500  1
  O  O5  1  0.33654900  0.86315300  0.59786800  1
  O  O6  1  0.06836600  0.13611100  0.28453800  1
  O  O7  1  0.18655900  0.13840500  0.52548800  1
  O  O8  1  0.40864800  0.13432400  0.95039800  1
  O  O9  1  0.14381500  0.86135800  0.14338400  1
  O  O10  1  0.26531400  0.86386500  0.38277500  1
  O  O11  1  0.48000000  0.86124800  0.80873200  1
  O  O12  1  0.33166000  0.13856000  0.73836400  1
  O  O13  1  0.19049200  0.63833200  0.02372600  1
  O  O14  1  0.40285500  0.63630800  0.45085000  1
  O  O15  1  0.51874500  0.63720500  0.68870800  1
  O  O16  1  0.33177600  0.63844900  0.23753400  1
  O  O17  1  0.67072600  0.63896300  0.90444100  1
  O  O18  1  0.32735300  0.36150200  0.09611500  1
  O  O19  1  0.66834700  0.36165700  0.76225000  1
  O  O20  1  0.48186400  0.36288400  0.31170300  1
  O  O21  1  0.60005200  0.36353100  0.54975600  1
  O  O22  1  0.80293500  0.36312200  0.97523100  1
  O  O23  1  0.66618400  0.86121400  0.26145400  1
  O  O24  1  0.52198100  0.13856800  0.19126200  1
  O  O25  1  0.73441100  0.13538500  0.61866300  1
  O  O26  1  0.85711400  0.13844800  0.85726900  1
  O  O27  1  0.59724900  0.86340000  0.04832500  1
  O  O28  1  0.81169000  0.86153600  0.47483500  1
  O  O29  1  0.93219800  0.86370500  0.71563800  1
  O  O30  1  0.66480400  0.13723700  0.40279500  1
  O  O31  1  0.73592500  0.63637800  0.11825400  1
  O  O32  1  0.85117100  0.63748900  0.35546200  1
  O  O33  1  0.00357300  0.63863900  0.57056700  1
  O  O34  1  0.92979100  0.36407900  0.21533600  1
  O  O35  1  0.00174700  0.13708200  0.06863200  1
loop_
_geom_bond_atom_site_label_1
_geom_bond_atom_site_label_2
_geom_bond_distance
_geom_bond_site_symmetry_2
Li0 O29 2.036151 1_455
Li0 O8 2.037338 1_565
Li0 O12 2.169819 1_565
Li0 O0 2.183862 1_555
Li0 O26 2.188608 1_465
Li0 O11 2.191532 1_555
Li1 O7 2.048992 1_555
Li1 O5 2.056291 1_545
Li1 O29 2.128689 1_445
Li1 O25 2.154181 1_455
Li1 O12 2.190933 1_555
Li1 O28 2.236651 1_445
Li2 O32 2.079113 1_555
Li2 O16 2.081366 1_655
Li2 O9 2.082850 1_655
Li2 O23 2.087655 1_555
Li2 O31 2.113644 1_555
Li2 O10 2.129358 1_655
Li3 O13 2.075119 1_556
Li3 O0 2.077139 1_555
Li3 O11 2.106114 1_555
Li3 O27 2.112150 1_556
Li3 O17 2.113739 1_555
Li3 O1 2.118186 1_555
Li4 O18 2.048171 1_555
Li4 O13 2.060194 1_555
Li4 O31 2.139455 1_455
Li4 O34 2.142430 1_455
Li4 O16 2.211189 1_555
Li4 O22 2.214356 1_454
Li5 O15 2.046026 1_555
Li5 O19 2.065447 1_555
Li5 O3 2.144614 1_555
Li5 O1 2.149770 1_555
Li5 O4 2.173741 1_555
Li5 O17 2.250209 1_555
Li6 O14 2.039691 1_555
Li6 O34 2.040822 1_455
Li6 O2 2.177008 1_455
Li6 O16 2.179754 1_555
Li6 O32 2.190542 1_455
Li6 O20 2.191692 1_555
Li7 O4 2.035456 1_554
Li7 O31 2.036556 1_555
Li7 O22 2.138883 1_554
Li7 O13 2.187110 1_555
Li7 O17 2.188937 1_554
Li7 O18 2.199915 1_555
Li8 O3 2.047456 1_555
Li8 O33 2.057601 1_555
Li8 O21 2.148087 1_555
Li8 O15 2.151458 1_555
Li8 O14 2.159429 1_555
Li8 O2 2.236598 1_455
Li9 O20 2.070525 1_555
Li9 O30 2.086338 1_555
Li9 O2 2.097474 1_455
Li9 O6 2.118296 1_555
Li9 O7 2.119083 1_555
Li9 O21 2.135524 1_555
Li10 O25 2.035200 1_565
Li10 O10 2.037032 1_555
Li10 O5 2.177287 1_555
Li10 O30 2.189629 1_565
Li10 O28 2.192902 1_555
Li10 O7 2.199775 1_565
Li11 O35 2.040239 1_565
Li11 O9 2.062636 1_555
Li11 O0 2.148173 1_554
Li11 O8 2.149666 1_564
Li11 O27 2.154024 1_555
Li11 O24 2.241179 1_565
Li12 O11 2.060783 1_555
Li12 O12 2.067908 1_565
Li12 O25 2.111849 1_565
Li12 O5 2.155082 1_555
Li12 O29 2.159478 1_555
Li12 O26 2.232710 1_565
Li13 O24 2.058443 1_565
Li13 O23 2.059544 1_555
Li13 O10 2.137124 1_555
Li13 O6 2.157461 1_565
Li13 O30 2.170636 1_565
Li13 O9 2.219825 1_555
Li14 O26 2.061384 1_555
Li14 O0 2.063507 1_645
Li14 O8 2.109115 1_555
Li14 O27 2.136961 1_546
Li14 O35 2.163172 1_656
Li14 O11 2.236165 1_545
Li15 O15 2.069190 1_555
Li15 O5 2.074528 1_555
Li15 O28 2.115411 1_555
Li15 O33 2.117999 1_655
Li15 O14 2.122539 1_555
Li15 O29 2.122588 1_555
Li16 O32 2.045808 1_555
Li16 O2 2.067074 1_555
Li16 O14 2.135544 1_555
Li16 O20 2.146684 1_555
Li16 O21 2.165100 1_555
Li16 O33 2.241160 1_655
Li17 O21 2.035697 1_555
Li17 O1 2.036418 1_655
Li17 O19 2.172419 1_555
Li17 O3 2.187869 1_655
Li17 O15 2.189125 1_555
Li17 O33 2.195308 1_655
Li18 O20 2.053822 1_555
Li18 O16 2.067264 1_555
Li18 O34 2.141208 1_555
Li18 O31 2.149441 1_555
Li18 O32 2.154069 1_555
Li18 O18 2.243428 1_555
Li19 O17 2.050068 1_555
Li19 O22 2.050263 1_555
Li19 O1 2.146919 1_655
Li19 O4 2.148200 1_655
Li19 O13 2.202183 1_656
Li19 O19 2.209094 1_555
Li20 O22 2.080551 1_554
Li20 O35 2.100596 1_655
Li20 O24 2.103170 1_555
Li20 O8 2.116133 1_554
Li20 O34 2.121104 1_555
Li20 O18 2.123373 1_555
Li21 O6 2.034373 1_655
Li21 O27 2.050156 1_545
Li21 O23 2.178010 1_545
Li21 O9 2.181771 1_645
Li21 O24 2.192548 1_555
Li21 O35 2.194553 1_655
Li22 O3 2.070232 1_655
Li22 O12 2.080311 1_655
Li22 O19 2.080947 1_555
Li22 O26 2.098911 1_555
Li22 O25 2.104112 1_555
Li22 O4 2.148368 1_655
Li23 O28 2.054415 1_555
Li23 O30 2.057538 1_565
Li23 O6 2.128068 1_665
Li23 O10 2.154030 1_655
Li23 O23 2.197606 1_555
Li23 O7 2.236972 1_665
Mn0 O5 1.916474 1_555
Mn0 O15 1.922973 1_555
Mn0 O33 1.945752 1_555
Mn0 O29 1.946124 1_455
Mn0 O1 1.948040 1_555
Mn0 O11 1.948347 1_555
Mn1 O3 1.922107 1_555
Mn1 O12 1.932781 1_555
Mn1 O19 1.939190 1_555
Mn1 O21 1.942769 1_555
Mn1 O25 1.949068 1_555
Mn1 O7 1.955970 1_555
Mn2 O8 1.928916 1_555
Mn2 O22 1.932331 1_555
Mn2 O19 1.936505 1_555
Mn2 O26 1.942909 1_555
Mn2 O4 1.944529 1_555
Mn2 O12 1.945246 1_555
Mn3 O16 1.929054 1_555
Mn3 O9 1.935789 1_555
Mn3 O23 1.940042 1_555
Mn3 O31 1.943485 1_555
Mn3 O27 1.945928 1_555
Mn3 O13 1.947994 1_555
Mn4 O32 1.920624 1_555
Mn4 O16 1.933830 1_555
Mn4 O23 1.935667 1_555
Mn4 O14 1.936115 1_555
Mn4 O10 1.947314 1_555
Mn4 O28 1.961466 1_555
Mn5 O20 1.923846 1_555
Mn5 O30 1.926224 1_555
Mn5 O34 1.940741 1_555
Mn5 O6 1.946362 1_655
Mn5 O24 1.946395 1_555
Mn5 O2 1.947340 1_555
Mn6 O0 1.920073 1_654
Mn6 O9 1.932178 1_655
Mn6 O13 1.937478 1_655
Mn6 O27 1.944839 1_555
Mn6 O31 1.948967 1_555
Mn6 O17 1.959621 1_554
Cr0 O26 1.898211 1_455
Cr0 O35 1.919632 1_556
Cr0 O4 1.923267 1_555
Cr0 O22 1.964709 1_455
Cr0 O18 1.990682 1_556
Cr0 O8 1.991445 1_555
Cr1 O28 1.894996 1_455
Cr1 O33 1.900604 1_555
Cr1 O10 1.959526 1_555
Cr1 O32 1.969123 1_455
Cr1 O14 1.982506 1_555
Cr1 O5 1.987387 1_555
Cr2 O18 1.888354 1_555
Cr2 O24 1.906608 1_555
Cr2 O20 1.971110 1_555
Cr2 O6 1.973384 1_555
Cr2 O34 1.976675 1_455
Cr2 O35 1.981332 1_555
Cr3 O17 1.893739 1_555
Cr3 O11 1.896488 1_555
Cr3 O1 1.971636 1_655
Cr3 O29 1.971909 1_555
Cr3 O15 1.976789 1_555
Cr3 O0 1.979403 1_655
Cr4 O7 1.902103 1_655
Cr4 O2 1.907741 1_555
Cr4 O21 1.958429 1_555
Cr4 O30 1.967084 1_555
Cr4 O25 1.982610 1_555
Cr4 O3 1.983098 1_655
