# generated using pymatgen
data_La(SeO3)2
_symmetry_space_group_name_H-M   'P 1'
_cell_length_a   7.21092600
_cell_length_b   8.62083600
_cell_length_c   19.33891300
_cell_angle_alpha   90.00000000
_cell_angle_beta   90.00000000
_cell_angle_gamma   90.00000000
_symmetry_Int_Tables_number   1
_chemical_formula_structural   La(SeO3)2
_chemical_formula_sum   'La8 Se16 O48'
_cell_volume   1202.18825769
_cell_formula_units_Z   8
loop_
 _symmetry_equiv_pos_site_id
 _symmetry_equiv_pos_as_xyz
  1  'x, y, z'
loop_
 _atom_site_type_symbol
 _atom_site_label
 _atom_site_symmetry_multiplicity
 _atom_site_fract_x
 _atom_site_fract_y
 _atom_site_fract_z
 _atom_site_occupancy
  La  La0  1  0.41261800  0.65935200  0.41331000  1
  La  La1  1  0.58738200  0.34064800  0.91331000  1
  La  La2  1  0.41261800  0.84064800  0.91331000  1
  La  La3  1  0.58738200  0.15935200  0.41331000  1
  La  La4  1  0.91147300  0.55100100  0.50179200  1
  La  La5  1  0.08852700  0.44899900  0.00179200  1
  La  La6  1  0.91147300  0.94899900  0.00179200  1
  La  La7  1  0.08852700  0.05100100  0.50179200  1
  Se  Se0  1  0.92969300  0.80774200  0.36087000  1
  Se  Se1  1  0.07030700  0.19225800  0.86087000  1
  Se  Se2  1  0.92969300  0.69225800  0.86087000  1
  Se  Se3  1  0.07030700  0.30774200  0.36087000  1
  Se  Se4  1  0.43088700  0.40461300  0.55304700  1
  Se  Se5  1  0.56911300  0.59538700  0.05304700  1
  Se  Se6  1  0.43088700  0.09538700  0.05304700  1
  Se  Se7  1  0.56911300  0.90461300  0.55304700  1
  Se  Se8  1  0.47153200  0.86500000  0.26414000  1
  Se  Se9  1  0.52846800  0.13500000  0.76414000  1
  Se  Se10  1  0.47153200  0.63500000  0.76414000  1
  Se  Se11  1  0.52846800  0.36500000  0.26414000  1
  Se  Se12  1  0.94148000  0.35142100  0.65169600  1
  Se  Se13  1  0.05852000  0.64857900  0.15169600  1
  Se  Se14  1  0.94148000  0.14857900  0.15169600  1
  Se  Se15  1  0.05852000  0.85142100  0.65169600  1
  O  O0  1  0.76206600  0.68607700  0.39569700  1
  O  O1  1  0.23793400  0.31392300  0.89569700  1
  O  O2  1  0.76206600  0.81392300  0.89569700  1
  O  O3  1  0.23793400  0.18607700  0.39569700  1
  O  O4  1  0.86560700  0.99267500  0.38261700  1
  O  O5  1  0.13439300  0.00732500  0.88261700  1
  O  O6  1  0.86560700  0.50732500  0.88261700  1
  O  O7  1  0.13439300  0.49267500  0.38261700  1
  O  O8  1  0.09473600  0.78624700  0.42830700  1
  O  O9  1  0.90526400  0.21375300  0.92830700  1
  O  O10  1  0.09473600  0.71375300  0.92830700  1
  O  O11  1  0.90526400  0.28624700  0.42830700  1
  O  O12  1  0.36800100  0.22013300  0.52982700  1
  O  O13  1  0.63199900  0.77986700  0.02982700  1
  O  O14  1  0.36800100  0.27986700  0.02982700  1
  O  O15  1  0.63199900  0.72013300  0.52982700  1
  O  O16  1  0.59562000  0.42606400  0.48589000  1
  O  O17  1  0.40438000  0.57393600  0.98589000  1
  O  O18  1  0.59562000  0.07393600  0.98589000  1
  O  O19  1  0.40438000  0.92606400  0.48589000  1
  O  O20  1  0.26374900  0.52862600  0.51902700  1
  O  O21  1  0.73625100  0.47137400  0.01902700  1
  O  O22  1  0.26374900  0.97137400  0.01902700  1
  O  O23  1  0.73625100  0.02862600  0.51902700  1
  O  O24  1  0.34896000  0.69700600  0.27491400  1
  O  O25  1  0.65104000  0.30299400  0.77491400  1
  O  O26  1  0.34896000  0.80299400  0.77491400  1
  O  O27  1  0.65104000  0.19700600  0.27491400  1
  O  O28  1  0.47294100  0.92519700  0.34949600  1
  O  O29  1  0.52705900  0.07480300  0.84949600  1
  O  O30  1  0.47294100  0.57480300  0.84949600  1
  O  O31  1  0.52705900  0.42519700  0.34949600  1
  O  O32  1  0.68849600  0.82413400  0.23942800  1
  O  O33  1  0.31150400  0.17586600  0.73942800  1
  O  O34  1  0.68849600  0.67586600  0.73942800  1
  O  O35  1  0.31150400  0.32413400  0.23942800  1
  O  O36  1  0.99127900  0.28162900  0.56944400  1
  O  O37  1  0.00872100  0.71837100  0.06944400  1
  O  O38  1  0.99127900  0.21837100  0.06944400  1
  O  O39  1  0.00872100  0.78162900  0.56944400  1
  O  O40  1  0.79981300  0.49842600  0.62630000  1
  O  O41  1  0.20018700  0.50157400  0.12630000  1
  O  O42  1  0.79981300  0.00157400  0.12630000  1
  O  O43  1  0.20018700  0.99842600  0.62630000  1
  O  O44  1  0.13256200  0.42880800  0.68759900  1
  O  O45  1  0.86743800  0.57119200  0.18759900  1
  O  O46  1  0.13256200  0.07119200  0.18759900  1
  O  O47  1  0.86743800  0.92880800  0.68759900  1
loop_
_geom_bond_atom_site_label_1
_geom_bond_atom_site_label_2
_geom_bond_distance
_geom_bond_site_symmetry_2
La0 O31 2.505749 1_555
La0 O7 2.538123 1_555
La0 O0 2.553177 1_555
La0 O8 2.556386 1_555
La0 O20 2.569476 1_555
La0 O28 2.639048 1_555
La0 O19 2.694506 1_555
La0 O24 2.734840 1_555
La0 O16 2.784995 1_555
La0 O15 2.802590 1_555
La1 O30 2.505749 1_555
La1 O6 2.538123 1_555
La1 O1 2.553177 1_555
La1 O9 2.556386 1_555
La1 O21 2.569476 1_556
La1 O29 2.639048 1_555
La1 O18 2.694506 1_555
La1 O25 2.734840 1_555
La1 O17 2.784995 1_555
La1 O14 2.802590 1_556
La2 O29 2.505749 1_565
La2 O5 2.538123 1_565
La2 O2 2.553177 1_555
La2 O10 2.556386 1_555
La2 O22 2.569476 1_556
La2 O30 2.639048 1_555
La2 O17 2.694506 1_555
La2 O26 2.734840 1_555
La2 O18 2.784995 1_565
La2 O13 2.802590 1_556
La3 O28 2.505749 1_545
La3 O4 2.538123 1_545
La3 O3 2.553177 1_555
La3 O11 2.556386 1_555
La3 O23 2.569476 1_555
La3 O31 2.639048 1_555
La3 O16 2.694506 1_555
La3 O27 2.734840 1_555
La3 O19 2.784995 1_545
La3 O12 2.802590 1_555
La4 O39 2.481210 1_655
La4 O16 2.538122 1_555
La4 O15 2.545816 1_555
La4 O20 2.569261 1_655
La4 O40 2.579044 1_555
La4 O0 2.593535 1_555
La4 O11 2.689041 1_555
La4 O36 2.726817 1_555
La4 O8 2.806918 1_655
La4 O7 2.854552 1_655
La5 O38 2.481210 1_455
La5 O17 2.538122 1_554
La5 O14 2.545816 1_555
La5 O21 2.569261 1_455
La5 O41 2.579044 1_555
La5 O1 2.593535 1_554
La5 O10 2.689041 1_554
La5 O37 2.726817 1_555
La5 O9 2.806918 1_454
La5 O6 2.854552 1_454
La6 O37 2.481210 1_655
La6 O18 2.538122 1_564
La6 O13 2.545816 1_555
La6 O22 2.569261 1_655
La6 O42 2.579044 1_565
La6 O2 2.593535 1_554
La6 O9 2.689041 1_564
La6 O38 2.726817 1_565
La6 O10 2.806918 1_654
La6 O5 2.854552 1_664
La7 O36 2.481210 1_455
La7 O19 2.538122 1_545
La7 O12 2.545816 1_555
La7 O23 2.569261 1_455
La7 O43 2.579044 1_545
La7 O3 2.593535 1_555
La7 O8 2.689041 1_545
La7 O39 2.726817 1_545
La7 O11 2.806918 1_455
La7 O4 2.854552 1_445
O0 Se0 1.736314 1_555
O1 Se1 1.736314 1_555
O2 Se2 1.736314 1_555
O3 Se3 1.736314 1_555
O4 Se0 1.712351 1_555
O5 Se1 1.712351 1_555
O6 Se2 1.712351 1_555
O7 Se3 1.712351 1_555
O8 Se0 1.775256 1_455
O9 Se1 1.775256 1_655
O10 Se2 1.775256 1_455
O11 Se3 1.775256 1_655
O12 Se4 1.713639 1_555
O13 Se5 1.713639 1_555
O14 Se6 1.713639 1_555
O15 Se7 1.713639 1_555
O16 Se4 1.769741 1_555
O17 Se5 1.769741 1_556
O18 Se6 1.769741 1_556
O19 Se7 1.769741 1_555
O20 Se4 1.740220 1_555
O21 Se5 1.740220 1_555
O22 Se6 1.740220 1_565
O23 Se7 1.740220 1_545
O24 Se8 1.709398 1_555
O25 Se9 1.709398 1_555
O26 Se10 1.709398 1_555
O27 Se11 1.709398 1_555
O28 Se8 1.730374 1_555
O29 Se9 1.730374 1_555
O30 Se10 1.730374 1_555
O31 Se11 1.730374 1_555
O32 Se8 1.673380 1_555
O33 Se9 1.673380 1_555
O34 Se10 1.673380 1_555
O35 Se11 1.673380 1_555
O36 Se12 1.738150 1_555
O37 Se13 1.738150 1_555
O38 Se14 1.738150 1_555
O39 Se15 1.738150 1_555
O40 Se12 1.700247 1_555
O41 Se13 1.700247 1_555
O42 Se14 1.700247 1_555
O43 Se15 1.700247 1_555
O44 Se12 1.680985 1_455
O45 Se13 1.680985 1_655
O46 Se14 1.680985 1_455
O47 Se15 1.680985 1_655
