# generated using pymatgen
data_Li2Bi5B3O13
_symmetry_space_group_name_H-M   'P 1'
_cell_length_a   3.73047800
_cell_length_b   10.75979900
_cell_length_c   16.39682250
_cell_angle_alpha   76.20496099
_cell_angle_beta   90.00000000
_cell_angle_gamma   90.00000000
_symmetry_Int_Tables_number   1
_chemical_formula_structural   Li2Bi5B3O13
_chemical_formula_sum   'Li4 Bi10 B6 O26'
_cell_volume   639.17069638
_cell_formula_units_Z   2
loop_
 _symmetry_equiv_pos_site_id
 _symmetry_equiv_pos_as_xyz
  1  'x, y, z'
loop_
 _atom_site_type_symbol
 _atom_site_label
 _atom_site_symmetry_multiplicity
 _atom_site_fract_x
 _atom_site_fract_y
 _atom_site_fract_z
 _atom_site_occupancy
  Li  Li0  1  0.75000000  0.78650900  0.73207400  1
  Li  Li1  1  0.25000000  0.60994100  0.94486400  1
  Li  Li2  1  0.75000000  0.39005900  0.05513600  1
  Li  Li3  1  0.25000000  0.21349100  0.26792600  1
  Bi  Bi0  1  0.75000000  0.85216500  0.99413300  1
  Bi  Bi1  1  0.75000000  0.96623700  0.37632300  1
  Bi  Bi2  1  0.25000000  0.81653600  0.20040800  1
  Bi  Bi3  1  0.25000000  0.64057900  0.43785200  1
  Bi  Bi4  1  0.25000000  0.52850100  0.70175100  1
  Bi  Bi5  1  0.75000000  0.47149900  0.29824900  1
  Bi  Bi6  1  0.75000000  0.35942100  0.56214800  1
  Bi  Bi7  1  0.75000000  0.18346400  0.79959200  1
  Bi  Bi8  1  0.25000000  0.03376300  0.62367700  1
  Bi  Bi9  1  0.25000000  0.14783500  0.00586700  1
  B  B0  1  0.25000000  0.90505400  0.81598800  1
  B  B1  1  0.75000000  0.78510900  0.57654500  1
  B  B2  1  0.25000000  0.40450700  0.89724300  1
  B  B3  1  0.75000000  0.59549300  0.10275700  1
  B  B4  1  0.25000000  0.21489100  0.42345500  1
  B  B5  1  0.75000000  0.09494600  0.18401200  1
  O  O0  1  0.25000000  0.82376500  0.89422700  1
  O  O1  1  0.75000000  0.91070700  0.58470000  1
  O  O2  1  0.25000000  0.85599300  0.74432900  1
  O  O3  1  0.75000000  0.96004900  0.19758600  1
  O  O4  1  0.25000000  0.86131400  0.33832400  1
  O  O5  1  0.75000000  0.76096600  0.49703300  1
  O  O6  1  0.75000000  0.68682400  0.64973600  1
  O  O7  1  0.25000000  0.91737100  0.05863300  1
  O  O8  1  0.25000000  0.52575400  0.84721600  1
  O  O9  1  0.25000000  0.38209200  0.98412100  1
  O  O10  1  0.75000000  0.70671400  0.13743500  1
  O  O11  1  0.25000000  0.60323800  0.29631400  1
  O  O12  1  0.25000000  0.48484700  0.56859100  1
  O  O13  1  0.75000000  0.51515300  0.43140900  1
  O  O14  1  0.75000000  0.39676200  0.70368600  1
  O  O15  1  0.25000000  0.29328600  0.86256500  1
  O  O16  1  0.75000000  0.61790800  0.01587900  1
  O  O17  1  0.75000000  0.47424600  0.15278400  1
  O  O18  1  0.75000000  0.08262900  0.94136700  1
  O  O19  1  0.25000000  0.31317600  0.35026400  1
  O  O20  1  0.25000000  0.23903400  0.50296700  1
  O  O21  1  0.75000000  0.13868600  0.66167600  1
  O  O22  1  0.25000000  0.03995100  0.80241400  1
  O  O23  1  0.75000000  0.14400700  0.25567100  1
  O  O24  1  0.25000000  0.08929300  0.41530000  1
  O  O25  1  0.75000000  0.17623500  0.10577300  1
loop_
_geom_bond_atom_site_label_1
_geom_bond_atom_site_label_2
_geom_bond_distance
_geom_bond_site_symmetry_2
Li0 O6 1.914095 1_555
Li0 O2 2.037179 1_655
Li0 O2 2.037179 1_555
Li0 O1 2.466801 1_555
Li1 O8 2.018857 1_555
Li1 O16 2.211322 1_456
Li1 O16 2.211322 1_556
Li1 O0 2.252025 1_555
Li1 O9 2.381626 1_555
Li2 O17 2.018857 1_555
Li2 O9 2.211322 1_654
Li2 O9 2.211322 1_554
Li2 O25 2.252025 1_555
Li2 O16 2.381626 1_555
Li3 O19 1.914095 1_555
Li3 O23 2.037179 1_555
Li3 O23 2.037179 1_455
Li3 O24 2.466801 1_555
Bi0 O7 2.333182 1_656
Bi0 O7 2.333182 1_556
Bi0 O18 2.423744 1_565
Bi0 O16 2.460029 1_556
Bi0 O10 2.493323 1_556
Bi0 O0 2.548475 1_555
Bi0 O0 2.548475 1_655
Bi1 O4 2.340365 1_555
Bi1 O4 2.340365 1_655
Bi1 O23 2.401622 1_565
Bi1 O24 2.458505 1_565
Bi1 O24 2.458505 1_665
Bi1 O5 2.590547 1_555
Bi2 O7 2.319131 1_555
Bi2 O3 2.414880 1_555
Bi2 O3 2.414880 1_455
Bi2 O4 2.421898 1_555
Bi2 O11 2.453362 1_555
Bi2 O10 2.554114 1_455
Bi2 O10 2.554114 1_555
Bi3 O13 2.319392 1_455
Bi3 O13 2.319392 1_555
Bi3 O12 2.385412 1_555
Bi3 O11 2.447877 1_555
Bi3 O4 2.540811 1_555
Bi3 O5 2.588070 1_455
Bi3 O5 2.588070 1_555
Bi4 O14 2.338363 1_455
Bi4 O14 2.338363 1_555
Bi4 O12 2.340289 1_555
Bi4 O8 2.378289 1_555
Bi4 O6 2.532909 1_455
Bi4 O6 2.532909 1_555
Bi5 O11 2.338363 1_655
Bi5 O11 2.338363 1_555
Bi5 O13 2.340289 1_555
Bi5 O17 2.378289 1_555
Bi5 O19 2.532909 1_555
Bi5 O19 2.532909 1_655
Bi6 O12 2.319392 1_555
Bi6 O12 2.319392 1_655
Bi6 O13 2.385412 1_555
Bi6 O14 2.447877 1_555
Bi6 O21 2.540811 1_555
Bi6 O20 2.588070 1_555
Bi6 O20 2.588070 1_655
Bi7 O18 2.319131 1_555
Bi7 O22 2.414880 1_655
Bi7 O22 2.414880 1_555
Bi7 O21 2.421898 1_555
Bi7 O14 2.453362 1_555
Bi7 O15 2.554114 1_655
Bi7 O15 2.554114 1_555
Bi8 O21 2.340365 1_455
Bi8 O21 2.340365 1_555
Bi8 O2 2.401622 1_545
Bi8 O1 2.458505 1_445
Bi8 O1 2.458505 1_545
Bi8 O20 2.590547 1_555
Bi9 O18 2.333182 1_454
Bi9 O18 2.333182 1_554
Bi9 O7 2.423744 1_545
Bi9 O9 2.460029 1_554
Bi9 O15 2.493323 1_554
Bi9 O25 2.548475 1_455
Bi9 O25 2.548475 1_555
B0 O0 1.369549 1_555
B0 O2 1.398228 1_555
B0 O22 1.414999 1_565
B1 O5 1.388793 1_555
B1 O1 1.389376 1_555
B1 O6 1.397624 1_555
B2 O8 1.365461 1_555
B2 O9 1.386935 1_555
B2 O15 1.442205 1_555
B3 O17 1.365461 1_555
B3 O16 1.386935 1_555
B3 O10 1.442205 1_555
B4 O20 1.388793 1_555
B4 O24 1.389376 1_555
B4 O19 1.397624 1_555
B5 O25 1.369549 1_555
B5 O23 1.398228 1_555
B5 O3 1.414999 1_545
