# generated using pymatgen
data_Li4Co3OF11
_symmetry_space_group_name_H-M   'P 1'
_cell_length_a   5.74959600
_cell_length_b   5.90716807
_cell_length_c   6.30195647
_cell_angle_alpha   100.49297905
_cell_angle_beta   100.76144432
_cell_angle_gamma   97.62970217
_symmetry_Int_Tables_number   1
_chemical_formula_structural   Li4Co3OF11
_chemical_formula_sum   'Li4 Co3 O1 F11'
_cell_volume   203.65319469
_cell_formula_units_Z   1
loop_
 _symmetry_equiv_pos_site_id
 _symmetry_equiv_pos_as_xyz
  1  'x, y, z'
loop_
 _atom_site_type_symbol
 _atom_site_label
 _atom_site_symmetry_multiplicity
 _atom_site_fract_x
 _atom_site_fract_y
 _atom_site_fract_z
 _atom_site_occupancy
  Li  Li0  1  0.12406900  0.33777000  0.56787200  1
  Li  Li1  1  0.59930600  0.15201400  0.32412100  1
  Li  Li2  1  0.85158900  0.64412800  0.39834000  1
  Li  Li3  1  0.32124000  0.60362700  0.14754300  1
  Co  Co0  1  0.69033500  0.37963200  0.86605200  1
  Co  Co1  1  0.00141200  0.00678000  0.00970600  1
  Co  Co2  1  0.41173400  0.85738800  0.65785300  1
  O  O0  1  0.68100100  0.05929500  0.86954300  1
  F  F0  1  0.08567000  0.32305300  0.96661800  1
  F  F1  1  0.38884700  0.17317100  0.58845400  1
  F  F2  1  0.43225200  0.59007400  0.80708300  1
  F  F3  1  0.93271900  0.10338600  0.28946400  1
  F  F4  1  0.80644700  0.41061400  0.59906200  1
  F  F5  1  0.18349900  0.60286000  0.41539800  1
  F  F6  1  0.09290000  0.88991700  0.72502000  1
  F  F7  1  0.59143100  0.41410100  0.15977600  1
  F  F8  1  0.60390900  0.82180300  0.45062500  1
  F  F9  1  0.88629100  0.68197200  0.03012700  1
  F  F10  1  0.31534900  0.94841600  0.12734100  1
loop_
_geom_bond_atom_site_label_1
_geom_bond_atom_site_label_2
_geom_bond_distance
_geom_bond_site_symmetry_2
Co0 O0 1.890170 1_555
Co0 F4 1.951763 1_555
Co0 F9 1.971355 1_556
Co0 F7 2.019336 1_556
Co0 F2 2.082661 1_555
Co0 F1 2.254265 1_555
Co0 F0 2.328279 1_655
Co1 F3 1.882374 1_455
Co1 F10 1.919670 1_545
Co1 F0 1.947422 1_554
Co1 O0 1.978423 1_454
Co1 F9 1.980045 1_445
Co1 F6 1.992415 1_544
Co2 F8 1.863086 1_555
Co2 O0 1.938543 1_565
Co2 F6 1.982492 1_555
Co2 F2 1.985127 1_555
Co2 F1 2.007258 1_565
Co2 F5 2.051296 1_555
F0 Li3 2.005087 1_556
F1 Li0 1.909207 1_555
F1 Li1 2.229770 1_555
F2 Li0 2.261956 1_555
F2 Li3 2.340868 1_556
F3 Li1 2.021087 1_555
F3 Li0 2.048310 1_655
F4 Li0 1.967410 1_655
F4 Li2 2.057492 1_555
F4 Li1 2.129866 1_555
F5 Li2 1.941454 1_455
F5 Li3 1.994405 1_555
F5 Li0 2.005187 1_555
F6 Li2 2.362431 1_455
F7 Li1 2.014135 1_555
F7 Li3 2.030083 1_555
F7 Li2 2.054379 1_555
F8 Li2 1.919436 1_555
F8 Li1 2.239059 1_565
F8 Li3 2.310518 1_555
F9 Li2 2.413364 1_555
F10 Li1 1.956807 1_565
F10 Li3 2.068034 1_555
