# generated using pymatgen
data_Li5Mn3(BO3)4
_symmetry_space_group_name_H-M   'P 1'
_cell_length_a   9.17518200
_cell_length_b   5.30893300
_cell_length_c   11.00867200
_cell_angle_alpha   62.75293151
_cell_angle_beta   90.00000000
_cell_angle_gamma   90.00000000
_symmetry_Int_Tables_number   1
_chemical_formula_structural   Li5Mn3(BO3)4
_chemical_formula_sum   'Li10 Mn6 B8 O24'
_cell_volume   476.73654299
_cell_formula_units_Z   2
loop_
 _symmetry_equiv_pos_site_id
 _symmetry_equiv_pos_as_xyz
  1  'x, y, z'
loop_
 _atom_site_type_symbol
 _atom_site_label
 _atom_site_symmetry_multiplicity
 _atom_site_fract_x
 _atom_site_fract_y
 _atom_site_fract_z
 _atom_site_occupancy
  Li  Li0  1  0.23125400  0.50282000  0.33904300  1
  Li  Li1  1  0.91860500  0.45381300  0.37348000  1
  Li  Li2  1  0.41726900  0.54163800  0.12924400  1
  Li  Li3  1  0.73377900  0.51140900  0.14995100  1
  Li  Li4  1  0.74452700  0.06564300  0.62219200  1
  Li  Li5  1  0.76874600  0.50282000  0.83904300  1
  Li  Li6  1  0.08139500  0.45381300  0.87348000  1
  Li  Li7  1  0.25547300  0.06564300  0.12219200  1
  Li  Li8  1  0.58273100  0.54163800  0.62924400  1
  Li  Li9  1  0.26622100  0.51140900  0.64995100  1
  Mn  Mn0  1  0.57928100  0.97819500  0.87654600  1
  Mn  Mn1  1  0.24082700  0.93452300  0.88965500  1
  Mn  Mn2  1  0.06946800  0.02519900  0.61827700  1
  Mn  Mn3  1  0.42071900  0.97819500  0.37654600  1
  Mn  Mn4  1  0.75917300  0.93452300  0.38965500  1
  Mn  Mn5  1  0.93053200  0.02519900  0.11827700  1
  B  B0  1  0.57104100  0.45596900  0.37886400  1
  B  B1  1  0.91023200  0.96375100  0.86756200  1
  B  B2  1  0.07328600  0.54404100  0.11952000  1
  B  B3  1  0.41541600  0.03104600  0.63486700  1
  B  B4  1  0.08976800  0.96375100  0.36756200  1
  B  B5  1  0.42895900  0.45596900  0.87886400  1
  B  B6  1  0.58458400  0.03104600  0.13486700  1
  B  B7  1  0.92671400  0.54404100  0.61952000  1
  O  O0  1  0.58118400  0.83272900  0.08424600  1
  O  O1  1  0.91017200  0.32082600  0.58851600  1
  O  O2  1  0.19597300  0.70951500  0.11211100  1
  O  O3  1  0.93753500  0.60715700  0.15417800  1
  O  O4  1  0.54521100  0.12238400  0.66919700  1
  O  O5  1  0.28343400  0.13108700  0.65722400  1
  O  O6  1  0.43663100  0.38565300  0.34531000  1
  O  O7  1  0.69996400  0.32286800  0.37628800  1
  O  O8  1  0.78086200  0.84320200  0.85798400  1
  O  O9  1  0.03800400  0.86360300  0.83348200  1
  O  O10  1  0.08264000  0.17756200  0.40723100  1
  O  O11  1  0.42223000  0.67536400  0.91503000  1
  O  O12  1  0.08982800  0.32082600  0.08851600  1
  O  O13  1  0.41881600  0.83272900  0.58424600  1
  O  O14  1  0.45478900  0.12238400  0.16919700  1
  O  O15  1  0.71656600  0.13108700  0.15722400  1
  O  O16  1  0.80402700  0.70951500  0.61211100  1
  O  O17  1  0.06246500  0.60715700  0.65417800  1
  O  O18  1  0.21913800  0.84320200  0.35798400  1
  O  O19  1  0.96199600  0.86360300  0.33348200  1
  O  O20  1  0.56336900  0.38565300  0.84531000  1
  O  O21  1  0.30003600  0.32286800  0.87628800  1
  O  O22  1  0.57777000  0.67536400  0.41503000  1
  O  O23  1  0.91736000  0.17756200  0.90723100  1
loop_
_geom_bond_atom_site_label_1
_geom_bond_atom_site_label_2
_geom_bond_distance
_geom_bond_site_symmetry_2
Li0 O18 1.914769 1_555
Li0 O6 1.975663 1_555
Li0 O10 2.053689 1_555
Li0 O2 2.244965 1_555
Li1 O10 2.013748 1_655
Li1 O19 2.051400 1_555
Li1 O7 2.118696 1_555
Li1 O1 2.139628 1_555
Li1 O3 2.172960 1_555
Li2 O0 2.048047 1_555
Li2 O14 2.090385 1_555
Li2 O11 2.129381 1_554
Li2 O6 2.138095 1_555
Li2 O2 2.190577 1_555
Li3 O3 1.943512 1_555
Li3 O15 1.990002 1_555
Li3 O0 2.064848 1_555
Li3 O7 2.241182 1_555
Li4 O1 1.955189 1_555
Li4 O4 1.961021 1_555
Li4 O16 2.019175 1_545
Li4 O8 2.331701 1_545
Li4 O7 2.444446 1_555
Li5 O8 1.914769 1_555
Li5 O20 1.975663 1_555
Li5 O23 2.053689 1_555
Li5 O16 2.244965 1_555
Li6 O23 2.013748 1_455
Li6 O9 2.051400 1_555
Li6 O21 2.118696 1_555
Li6 O12 2.139628 1_556
Li6 O17 2.172960 1_555
Li7 O12 1.955189 1_555
Li7 O14 1.961021 1_555
Li7 O2 2.019175 1_545
Li7 O18 2.331701 1_545
Li7 O21 2.444446 1_554
Li8 O13 2.048047 1_555
Li8 O4 2.090385 1_555
Li8 O22 2.129381 1_555
Li8 O20 2.138095 1_555
Li8 O16 2.190577 1_555
Li9 O17 1.943512 1_555
Li9 O5 1.990002 1_555
Li9 O13 2.064848 1_555
Li9 O21 2.241182 1_555
Mn0 O8 2.027380 1_555
Mn0 O20 2.034146 1_565
Mn0 O0 2.051324 1_556
Mn0 O11 2.053520 1_555
Mn0 O4 2.072237 1_565
Mn1 O9 2.049499 1_555
Mn1 O21 2.071130 1_565
Mn1 O11 2.095076 1_555
Mn1 O2 2.216980 1_556
Mn1 O5 2.311726 1_565
Mn2 O1 2.058133 1_455
Mn2 O17 2.069472 1_545
Mn2 O10 2.084703 1_555
Mn2 O9 2.137995 1_545
Mn2 O5 2.138833 1_555
Mn3 O18 2.027380 1_555
Mn3 O6 2.034146 1_565
Mn3 O13 2.051324 1_555
Mn3 O22 2.053520 1_555
Mn3 O14 2.072237 1_565
Mn4 O19 2.049499 1_555
Mn4 O7 2.071130 1_565
Mn4 O22 2.095076 1_555
Mn4 O16 2.216980 1_555
Mn4 O15 2.311726 1_565
Mn5 O12 2.058133 1_655
Mn5 O3 2.069472 1_545
Mn5 O23 2.084703 1_554
Mn5 O19 2.137995 1_545
Mn5 O15 2.138833 1_555
B0 O7 1.384812 1_555
B0 O6 1.386699 1_555
B0 O22 1.394130 1_555
B1 O8 1.375297 1_555
B1 O23 1.391888 1_565
B1 O9 1.407284 1_655
B2 O12 1.383542 1_555
B2 O3 1.387906 1_455
B2 O2 1.407101 1_555
B3 O5 1.388801 1_555
B3 O13 1.399020 1_545
B3 O4 1.401425 1_555
B4 O18 1.375297 1_555
B4 O10 1.391888 1_565
B4 O19 1.407284 1_455
B5 O21 1.384812 1_555
B5 O20 1.386699 1_555
B5 O11 1.394130 1_555
B6 O15 1.388801 1_555
B6 O0 1.399020 1_545
B6 O14 1.401425 1_555
B7 O1 1.383542 1_555
B7 O17 1.387906 1_655
B7 O16 1.407101 1_555
