# generated using pymatgen
data_Li3MnV(PO4)3
_symmetry_space_group_name_H-M   'P 1'
_cell_length_a   9.88910246
_cell_length_b   9.88910246
_cell_length_c   9.80683032
_cell_angle_alpha   87.05460967
_cell_angle_beta   87.05460967
_cell_angle_gamma   84.54851838
_symmetry_Int_Tables_number   1
_chemical_formula_structural   Li3MnV(PO4)3
_chemical_formula_sum   'Li12 Mn4 V4 P12 O48'
_cell_volume   952.40994058
_cell_formula_units_Z   4
loop_
 _symmetry_equiv_pos_site_id
 _symmetry_equiv_pos_as_xyz
  1  'x, y, z'
loop_
 _atom_site_type_symbol
 _atom_site_label
 _atom_site_symmetry_multiplicity
 _atom_site_fract_x
 _atom_site_fract_y
 _atom_site_fract_z
 _atom_site_occupancy
  Li  Li0  1  0.01364400  0.48727700  0.74972300  1
  Li  Li1  1  0.98375000  0.74194500  0.61604600  1
  Li  Li2  1  0.22673600  0.43299400  0.53916900  1
  Li  Li3  1  0.22250600  0.26565400  0.82345300  1
  Li  Li4  1  0.25805500  0.01625000  0.38395400  1
  Li  Li5  1  0.37861500  0.25301800  0.17736200  1
  Li  Li6  1  0.51272300  0.98635600  0.25027700  1
  Li  Li7  1  0.56700600  0.77326400  0.46083100  1
  Li  Li8  1  0.67989400  0.08669100  0.01753300  1
  Li  Li9  1  0.73434600  0.77749400  0.17654700  1
  Li  Li10  1  0.74698200  0.62138500  0.82263800  1
  Li  Li11  1  0.91330900  0.32010600  0.98246700  1
  Mn  Mn0  1  0.46967400  0.53032600  0.00000000  1
  Mn  Mn1  1  0.73720400  0.02568400  0.72306100  1
  Mn  Mn2  1  0.75675900  0.24324100  0.50000000  1
  Mn  Mn3  1  0.97431600  0.26279600  0.27693900  1
  V  V0  1  0.02992600  0.75112900  0.21683800  1
  V  V1  1  0.24584900  0.75415100  0.00000000  1
  V  V2  1  0.24887100  0.97007400  0.78316200  1
  V  V3  1  0.53418200  0.46581800  0.50000000  1
  P  P0  1  0.05490100  0.18435800  0.59186200  1
  P  P1  1  0.17444000  0.05580800  0.09907400  1
  P  P2  1  0.16038500  0.45156400  0.06705100  1
  P  P3  1  0.31842100  0.65968100  0.69769600  1
  P  P4  1  0.34031900  0.68157900  0.30230400  1
  P  P5  1  0.44413300  0.15861700  0.57811600  1
  P  P6  1  0.54843600  0.83961500  0.93294900  1
  P  P7  1  0.65160300  0.31599200  0.20199200  1
  P  P8  1  0.68400800  0.34839700  0.79800800  1
  P  P9  1  0.84138300  0.55586700  0.42188400  1
  P  P10  1  0.81564200  0.94509900  0.40813800  1
  P  P11  1  0.94419200  0.82556000  0.90092600  1
  O  O0  1  0.03539100  0.13302300  0.13738100  1
  O  O1  1  0.09091700  0.17589800  0.43644600  1
  O  O2  1  0.11161000  0.39101400  0.20530900  1
  O  O3  1  0.11350400  0.04910900  0.66337000  1
  O  O4  1  0.10713800  0.30885800  0.65351000  1
  O  O5  1  0.12520400  0.61211900  0.07107200  1
  O  O6  1  0.09467100  0.40077100  0.94250400  1
  O  O7  1  0.10229500  0.83985100  0.87403200  1
  O  O8  1  0.16014900  0.89770500  0.12596800  1
  O  O9  1  0.18278900  0.68848600  0.32876100  1
  O  O10  1  0.20370400  0.09037700  0.94388000  1
  O  O11  1  0.19433600  0.59788300  0.64867800  1
  O  O12  1  0.28972100  0.08838600  0.18642100  1
  O  O13  1  0.31869200  0.41305800  0.05639100  1
  O  O14  1  0.31151400  0.81721100  0.67123900  1
  O  O15  1  0.32357300  0.62787900  0.85910400  1
  O  O16  1  0.36759100  0.11859400  0.71444700  1
  O  O17  1  0.40715500  0.08934300  0.45296100  1
  O  O18  1  0.37212100  0.67642700  0.14089600  1
  O  O19  1  0.39749600  0.54428400  0.36782700  1
  O  O20  1  0.41342300  0.31849600  0.55947900  1
  O  O21  1  0.40211700  0.80566400  0.35132200  1
  O  O22  1  0.38788100  0.87479600  0.92892800  1
  O  O23  1  0.45571600  0.60250400  0.63217300  1
  O  O24  1  0.57662000  0.19588600  0.16001300  1
  O  O25  1  0.54577600  0.40632200  0.85505700  1
  O  O26  1  0.59367800  0.45422400  0.14494300  1
  O  O27  1  0.60276600  0.12214100  0.59634800  1
  O  O28  1  0.62832500  0.32409000  0.36487200  1
  O  O29  1  0.59922900  0.90532900  0.05749600  1
  O  O30  1  0.58694200  0.68130800  0.94360900  1
  O  O31  1  0.60898600  0.88839000  0.79469100  1
  O  O32  1  0.67591000  0.37167500  0.63512800  1
  O  O33  1  0.70557400  0.19457000  0.84192700  1
  O  O34  1  0.68150400  0.58657700  0.44052100  1
  O  O35  1  0.69114200  0.89286200  0.34649000  1
  O  O36  1  0.80543000  0.29442600  0.15807300  1
  O  O37  1  0.81579300  0.10303700  0.37691600  1
  O  O38  1  0.80411400  0.42338000  0.83998700  1
  O  O39  1  0.82410200  0.90908300  0.56355400  1
  O  O40  1  0.87785900  0.39723400  0.40365200  1
  O  O41  1  0.89696300  0.18420700  0.62308400  1
  O  O42  1  0.88140600  0.63240900  0.28555300  1
  O  O43  1  0.90962300  0.79629600  0.05612000  1
  O  O44  1  0.91065700  0.59284500  0.54703900  1
  O  O45  1  0.86697700  0.96460900  0.86261900  1
  O  O46  1  0.91161400  0.71027900  0.81357900  1
  O  O47  1  0.95089100  0.88649600  0.33663000  1
loop_
_geom_bond_atom_site_label_1
_geom_bond_atom_site_label_2
_geom_bond_distance
_geom_bond_site_symmetry_2
Li0 O4 2.151675 1_555
Li0 O6 2.192571 1_555
Li0 O11 2.334370 1_555
Li0 O38 2.340749 1_455
Li0 O44 2.422970 1_455
Li0 O46 2.434691 1_455
Li1 O44 1.873451 1_555
Li1 O46 2.048822 1_555
Li1 O39 2.233762 1_555
Li1 O11 2.434497 1_655
Li2 O11 1.990026 1_555
Li2 O4 2.039922 1_555
Li2 O20 2.085065 1_555
Li3 O10 2.064482 1_555
Li3 O4 2.071554 1_555
Li3 O6 2.105778 1_555
Li3 O16 2.218548 1_555
Li4 O17 1.873451 1_555
Li4 O12 2.048822 1_555
Li4 O1 2.233762 1_555
Li4 O21 2.434497 1_545
Li5 O12 1.918414 1_555
Li5 O24 1.986886 1_555
Li5 O13 1.991092 1_555
Li6 O35 2.151675 1_555
Li6 O29 2.192571 1_555
Li6 O21 2.334370 1_555
Li6 O24 2.340749 1_565
Li6 O17 2.422970 1_565
Li6 O12 2.434691 1_565
Li7 O21 1.990026 1_555
Li7 O35 2.039922 1_555
Li7 O34 2.085065 1_555
Li8 O24 1.990058 1_555
Li8 O33 1.996521 1_554
Li8 O29 2.043054 1_545
Li9 O43 2.064482 1_555
Li9 O35 2.071554 1_555
Li9 O29 2.105778 1_555
Li9 O42 2.218548 1_555
Li10 O46 1.918414 1_555
Li10 O38 1.986886 1_555
Li10 O30 1.991092 1_555
Li11 O38 1.990058 1_555
Li11 O36 1.996521 1_556
Li11 O6 2.043054 1_655
Mn0 O25 1.996115 1_554
Mn0 O26 1.996115 1_555
Mn0 O30 2.014493 1_554
Mn0 O13 2.014493 1_555
Mn0 O15 2.175015 1_554
Mn0 O18 2.175015 1_555
Mn1 O45 1.957843 1_545
Mn1 O27 2.007128 1_555
Mn1 O31 2.020425 1_545
Mn1 O33 2.075903 1_555
Mn1 O39 2.091390 1_545
Mn1 O41 2.463385 1_555
Mn2 O37 1.914668 1_555
Mn2 O41 1.914668 1_555
Mn2 O28 1.969675 1_555
Mn2 O32 1.969675 1_555
Mn2 O27 2.174486 1_555
Mn2 O40 2.174486 1_555
Mn3 O0 1.957843 1_655
Mn3 O40 2.007128 1_555
Mn3 O2 2.020425 1_655
Mn3 O36 2.075903 1_555
Mn3 O1 2.091390 1_655
Mn3 O37 2.463385 1_555
O0 P1 1.546577 1_555
O1 P0 1.551936 1_555
O2 P2 1.527684 1_555
O3 P0 1.553902 1_555
O3 V2 1.910876 1_545
O4 P0 1.541957 1_555
O5 P2 1.594866 1_555
O5 V1 2.003588 1_555
O5 V0 2.153701 1_555
O6 P2 1.540486 1_556
O7 P11 1.590544 1_455
O7 V1 2.025756 1_556
O7 V2 2.158146 1_555
O8 P1 1.590544 1_565
O8 V1 2.025756 1_555
O8 V0 2.158146 1_555
O9 P4 1.561693 1_555
O9 V0 1.948431 1_555
O10 P1 1.561104 1_556
O10 V2 2.029397 1_545
O11 P3 1.530884 1_555
O12 P1 1.528304 1_555
O13 P2 1.575045 1_555
O14 P3 1.561693 1_555
O14 V2 1.948431 1_555
O15 P3 1.600363 1_555
O15 V1 1.986226 1_556
O16 P5 1.554233 1_555
O16 V2 2.033285 1_545
O17 P5 1.513144 1_555
O18 P4 1.600363 1_555
O18 V1 1.986226 1_555
O19 P4 1.542024 1_555
O19 V3 1.996683 1_555
O20 P5 1.584348 1_555
O20 V3 2.015071 1_555
O21 P4 1.530884 1_555
O22 P6 1.594866 1_555
O22 V1 2.003588 1_556
O22 V2 2.153701 1_555
O23 P3 1.542024 1_555
O23 V3 1.996683 1_555
O24 P7 1.542407 1_555
O25 P8 1.521629 1_555
O26 P7 1.521629 1_555
O27 P5 1.593017 1_555
O28 P7 1.607092 1_555
O28 V3 2.098422 1_555
O29 P6 1.540486 1_554
O30 P6 1.575045 1_555
O31 P6 1.527684 1_555
O32 P8 1.607092 1_555
O32 V3 2.098422 1_555
O33 P8 1.557414 1_555
O34 P9 1.584348 1_555
O34 V3 2.015071 1_555
O35 P10 1.541957 1_555
O36 P7 1.557414 1_555
O37 P10 1.576206 1_545
O38 P8 1.542407 1_555
O39 P10 1.551936 1_555
O40 P9 1.593017 1_555
O41 P0 1.576206 1_655
O42 P9 1.554233 1_555
O42 V0 2.033285 1_655
O43 P11 1.561104 1_554
O43 V0 2.029397 1_655
O44 P9 1.513144 1_555
O45 P11 1.546577 1_555
O46 P11 1.528304 1_555
O47 P10 1.553902 1_555
O47 V0 1.910876 1_655
