# generated using pymatgen
data_VAg2O3F
_symmetry_space_group_name_H-M   'P 1'
_cell_length_a   10.62738200
_cell_length_b   5.70818700
_cell_length_c   13.93492982
_cell_angle_alpha   65.90156888
_cell_angle_beta   90.00000000
_cell_angle_gamma   90.00000000
_symmetry_Int_Tables_number   1
_chemical_formula_structural   VAg2O3F
_chemical_formula_sum   'V8 Ag16 O24 F8'
_cell_volume   771.66087474
_cell_formula_units_Z   8
loop_
 _symmetry_equiv_pos_site_id
 _symmetry_equiv_pos_as_xyz
  1  'x, y, z'
loop_
 _atom_site_type_symbol
 _atom_site_label
 _atom_site_symmetry_multiplicity
 _atom_site_fract_x
 _atom_site_fract_y
 _atom_site_fract_z
 _atom_site_occupancy
  V  V0  1  0.23162000  0.12709700  0.58597500  1
  V  V1  1  0.48448300  0.93947800  0.28554300  1
  V  V2  1  0.26838000  0.12709700  0.08597500  1
  V  V3  1  0.51551700  0.06052200  0.71445700  1
  V  V4  1  0.01551700  0.93947800  0.78554300  1
  V  V5  1  0.76838000  0.87290300  0.41402500  1
  V  V6  1  0.73162000  0.87290300  0.91402500  1
  V  V7  1  0.98448300  0.06052200  0.21445700  1
  Ag  Ag0  1  0.05323400  0.66691900  0.06478400  1
  Ag  Ag1  1  0.02651600  0.64532900  0.59653400  1
  Ag  Ag2  1  0.94676600  0.33308100  0.93521600  1
  Ag  Ag3  1  0.29620300  0.77922500  0.91695100  1
  Ag  Ag4  1  0.79620300  0.22077500  0.58304900  1
  Ag  Ag5  1  0.24512900  0.42167300  0.77598900  1
  Ag  Ag6  1  0.74512900  0.57832700  0.72401100  1
  Ag  Ag7  1  0.25487100  0.42167300  0.27598900  1
  Ag  Ag8  1  0.70379700  0.22077500  0.08304900  1
  Ag  Ag9  1  0.52651600  0.35467100  0.90346600  1
  Ag  Ag10  1  0.55323400  0.33308100  0.43521600  1
  Ag  Ag11  1  0.44676600  0.66691900  0.56478400  1
  Ag  Ag12  1  0.20379700  0.77922500  0.41695100  1
  Ag  Ag13  1  0.97348400  0.35467100  0.40346600  1
  Ag  Ag14  1  0.47348400  0.64532900  0.09653400  1
  Ag  Ag15  1  0.75487100  0.57832700  0.22401100  1
  O  O0  1  0.60626600  0.33055600  0.66568900  1
  O  O1  1  0.83189500  0.65683200  0.53147700  1
  O  O2  1  0.89373400  0.33055600  0.16568900  1
  O  O3  1  0.10891000  0.20846500  0.09730000  1
  O  O4  1  0.66810500  0.65683200  0.03147700  1
  O  O5  1  0.89109000  0.79153500  0.90270000  1
  O  O6  1  0.42580000  0.10479200  0.80809600  1
  O  O7  1  0.64657600  0.84309600  0.80888500  1
  O  O8  1  0.33189500  0.34316800  0.96852300  1
  O  O9  1  0.85342400  0.84309600  0.30888500  1
  O  O10  1  0.92580000  0.89520800  0.69190400  1
  O  O11  1  0.07420000  0.10479200  0.30809600  1
  O  O12  1  0.57420000  0.89520800  0.19190400  1
  O  O13  1  0.60891000  0.79153500  0.40270000  1
  O  O14  1  0.21869600  0.81591600  0.59394300  1
  O  O15  1  0.39109000  0.20846500  0.59730000  1
  O  O16  1  0.10626600  0.66944400  0.83431100  1
  O  O17  1  0.35342400  0.15690400  0.19111500  1
  O  O18  1  0.39373400  0.66944400  0.33431100  1
  O  O19  1  0.16810500  0.34316800  0.46852300  1
  O  O20  1  0.28130400  0.81591600  0.09394300  1
  O  O21  1  0.71869600  0.18408400  0.90605700  1
  O  O22  1  0.78130400  0.18408400  0.40605700  1
  O  O23  1  0.14657600  0.15690400  0.69111500  1
  F  F0  1  0.93134400  0.28379100  0.75610600  1
  F  F1  1  0.60209900  0.94449400  0.60296900  1
  F  F2  1  0.89790100  0.94449400  0.10296900  1
  F  F3  1  0.56865600  0.28379100  0.25610600  1
  F  F4  1  0.43134400  0.71620900  0.74389400  1
  F  F5  1  0.39790100  0.05550600  0.39703100  1
  F  F6  1  0.06865600  0.71620900  0.24389400  1
  F  F7  1  0.10209900  0.05550600  0.89703100  1
loop_
_geom_bond_atom_site_label_1
_geom_bond_atom_site_label_2
_geom_bond_distance
_geom_bond_site_symmetry_2
Ag0 F2 2.491422 1_455
Ag0 O2 2.516391 1_455
Ag0 F7 2.533774 1_564
Ag0 O3 2.536825 1_555
Ag0 F6 2.628482 1_555
Ag0 O20 2.654319 1_555
Ag0 O5 2.695312 1_454
Ag1 O1 2.248438 1_455
Ag1 O14 2.256556 1_555
Ag1 F0 2.545402 1_455
Ag1 O10 2.548385 1_455
Ag2 F7 2.491422 1_655
Ag2 O16 2.516391 1_655
Ag2 F2 2.533774 1_546
Ag2 O5 2.536825 1_555
Ag2 F0 2.628482 1_555
Ag2 O21 2.654319 1_555
Ag2 O3 2.695312 1_656
Ag3 O6 2.312892 1_565
Ag3 O8 2.322754 1_555
Ag3 O16 2.526382 1_555
Ag3 F7 2.542029 1_565
Ag3 O20 2.563932 1_556
Ag4 O10 2.312892 1_545
Ag4 O1 2.322754 1_555
Ag4 O0 2.526382 1_555
Ag4 F1 2.542029 1_545
Ag4 O22 2.563932 1_555
Ag5 O16 2.403600 1_555
Ag5 O23 2.497928 1_555
Ag5 F4 2.515750 1_555
Ag5 O6 2.549069 1_555
Ag5 F7 2.577844 1_555
Ag5 O14 2.629964 1_555
Ag5 O8 2.695827 1_555
Ag6 O0 2.403600 1_555
Ag6 O7 2.497928 1_555
Ag6 F0 2.515750 1_555
Ag6 O10 2.549069 1_555
Ag6 F1 2.577844 1_555
Ag6 O21 2.629964 1_555
Ag6 O1 2.695827 1_555
Ag7 O18 2.403600 1_555
Ag7 O17 2.497928 1_555
Ag7 F6 2.515750 1_555
Ag7 O11 2.549069 1_555
Ag7 F5 2.577844 1_555
Ag7 O20 2.629964 1_555
Ag7 O19 2.695827 1_555
Ag8 O12 2.312892 1_545
Ag8 O4 2.322754 1_555
Ag8 O2 2.526382 1_555
Ag8 F2 2.542029 1_545
Ag8 O21 2.563932 1_554
Ag9 O8 2.248438 1_555
Ag9 O21 2.256556 1_555
Ag9 F4 2.545402 1_555
Ag9 O6 2.548385 1_555
Ag10 F5 2.491422 1_555
Ag10 O18 2.516391 1_555
Ag10 F1 2.533774 1_545
Ag10 O13 2.536825 1_555
Ag10 F3 2.628482 1_555
Ag10 O22 2.654319 1_555
Ag10 O15 2.695312 1_555
Ag11 F1 2.491422 1_555
Ag11 O0 2.516391 1_555
Ag11 F5 2.533774 1_565
Ag11 O15 2.536825 1_555
Ag11 F4 2.628482 1_555
Ag11 O14 2.654319 1_555
Ag11 O13 2.695312 1_555
Ag12 O11 2.312892 1_565
Ag12 O19 2.322754 1_555
Ag12 O18 2.526382 1_555
Ag12 F5 2.542029 1_565
Ag12 O14 2.563932 1_555
Ag13 O19 2.248438 1_655
Ag13 O22 2.256556 1_555
Ag13 F6 2.545402 1_655
Ag13 O11 2.548385 1_655
Ag14 O4 2.248438 1_555
Ag14 O20 2.256556 1_555
Ag14 F3 2.545402 1_555
Ag14 O12 2.548385 1_555
Ag15 O2 2.403600 1_555
Ag15 O9 2.497928 1_555
Ag15 F3 2.515750 1_555
Ag15 O12 2.549069 1_555
Ag15 F2 2.577844 1_555
Ag15 O22 2.629964 1_555
Ag15 O4 2.695827 1_555
O0 V3 1.706595 1_555
O1 V5 1.734106 1_555
O2 V7 1.706595 1_555
O3 V2 1.781196 1_555
O3 V7 2.000293 1_455
O4 V6 1.734106 1_554
O5 V6 1.781196 1_555
O5 V4 2.000293 1_655
O6 V3 1.716056 1_555
O7 V6 1.787717 1_555
O7 V3 1.969294 1_565
O8 V2 1.734106 1_556
O9 V5 1.787717 1_555
O9 V7 1.969294 1_565
O10 V4 1.716056 1_655
O11 V7 1.716056 1_455
O12 V1 1.716056 1_555
O13 V5 1.781196 1_555
O13 V1 2.000293 1_555
O14 V0 1.739340 1_565
O15 V0 1.781196 1_555
O15 V3 2.000293 1_555
O16 V4 1.706595 1_555
O17 V2 1.787717 1_555
O17 V1 1.969294 1_545
O18 V1 1.706595 1_555
O19 V0 1.734106 1_555
O20 V2 1.739340 1_565
O21 V6 1.739340 1_545
O22 V5 1.739340 1_545
O23 V0 1.787717 1_555
O23 V4 1.969294 1_545
F0 V4 2.042771 1_645
F1 V3 2.130532 1_565
F2 V7 2.130532 1_565
F3 V1 2.042771 1_545
F4 V3 2.042771 1_565
F5 V1 2.130532 1_545
F6 V7 2.042771 1_465
F7 V4 2.130532 1_545
