# generated using pymatgen
data_Li3NbS4
_symmetry_space_group_name_H-M   'P 1'
_cell_length_a   10.09484700
_cell_length_b   11.24561700
_cell_length_c   12.52553000
_cell_angle_alpha   90.00000000
_cell_angle_beta   90.00000000
_cell_angle_gamma   90.00000000
_symmetry_Int_Tables_number   1
_chemical_formula_structural   Li3NbS4
_chemical_formula_sum   'Li24 Nb8 S32'
_cell_volume   1421.93302460
_cell_formula_units_Z   8
loop_
 _symmetry_equiv_pos_site_id
 _symmetry_equiv_pos_as_xyz
  1  'x, y, z'
loop_
 _atom_site_type_symbol
 _atom_site_label
 _atom_site_symmetry_multiplicity
 _atom_site_fract_x
 _atom_site_fract_y
 _atom_site_fract_z
 _atom_site_occupancy
  Li  Li0  1  0.12530200  0.04512000  0.10731400  1
  Li  Li1  1  0.37469800  0.04512000  0.60731400  1
  Li  Li2  1  0.50340800  0.12875100  0.10117900  1
  Li  Li3  1  0.99659200  0.12875100  0.60117900  1
  Li  Li4  1  0.20150400  0.16935400  0.86442000  1
  Li  Li5  1  0.29849600  0.16935400  0.36442000  1
  Li  Li6  1  0.70150400  0.33064600  0.86442000  1
  Li  Li7  1  0.79849600  0.33064600  0.36442000  1
  Li  Li8  1  0.49659200  0.37124900  0.60117900  1
  Li  Li9  1  0.00340800  0.37124900  0.10117900  1
  Li  Li10  1  0.62530200  0.45488000  0.10731400  1
  Li  Li11  1  0.87469800  0.45488000  0.60731400  1
  Li  Li12  1  0.12530200  0.54512000  0.39268600  1
  Li  Li13  1  0.37469800  0.54512000  0.89268600  1
  Li  Li14  1  0.99659200  0.62875100  0.89882100  1
  Li  Li15  1  0.50340800  0.62875100  0.39882100  1
  Li  Li16  1  0.29849600  0.66935400  0.13558000  1
  Li  Li17  1  0.20150400  0.66935400  0.63558000  1
  Li  Li18  1  0.70150400  0.83064600  0.63558000  1
  Li  Li19  1  0.79849600  0.83064600  0.13558000  1
  Li  Li20  1  0.49659200  0.87124900  0.89882100  1
  Li  Li21  1  0.00340800  0.87124900  0.39882100  1
  Li  Li22  1  0.87469800  0.95488000  0.89268600  1
  Li  Li23  1  0.62530200  0.95488000  0.39268600  1
  Nb  Nb0  1  0.82015200  0.10443500  0.11716600  1
  Nb  Nb1  1  0.67984800  0.10443500  0.61716600  1
  Nb  Nb2  1  0.32015200  0.39556500  0.11716600  1
  Nb  Nb3  1  0.17984800  0.39556500  0.61716600  1
  Nb  Nb4  1  0.67984800  0.60443500  0.88283400  1
  Nb  Nb5  1  0.82015200  0.60443500  0.38283400  1
  Nb  Nb6  1  0.17984800  0.89556500  0.88283400  1
  Nb  Nb7  1  0.32015200  0.89556500  0.38283400  1
  S  S0  1  0.43411900  0.01063500  0.26533200  1
  S  S1  1  0.06588100  0.01063500  0.76533200  1
  S  S2  1  0.17938500  0.01878900  0.47576900  1
  S  S3  1  0.32061500  0.01878900  0.97576900  1
  S  S4  1  0.96689000  0.18058300  0.99598700  1
  S  S5  1  0.53311000  0.18058300  0.49598700  1
  S  S6  1  0.80202400  0.24792800  0.70130400  1
  S  S7  1  0.69797600  0.24792800  0.20130400  1
  S  S8  1  0.19797600  0.25207200  0.20130400  1
  S  S9  1  0.30202400  0.25207200  0.70130400  1
  S  S10  1  0.03311000  0.31941700  0.49598700  1
  S  S11  1  0.46689000  0.31941700  0.99598700  1
  S  S12  1  0.67938500  0.48121100  0.47576900  1
  S  S13  1  0.82061500  0.48121100  0.97576900  1
  S  S14  1  0.56588100  0.48936500  0.76533200  1
  S  S15  1  0.93411900  0.48936500  0.26533200  1
  S  S16  1  0.43411900  0.51063500  0.23466800  1
  S  S17  1  0.06588100  0.51063500  0.73466800  1
  S  S18  1  0.17938500  0.51878900  0.02423100  1
  S  S19  1  0.32061500  0.51878900  0.52423100  1
  S  S20  1  0.53311000  0.68058300  0.00401300  1
  S  S21  1  0.96689000  0.68058300  0.50401300  1
  S  S22  1  0.69797600  0.74792800  0.29869600  1
  S  S23  1  0.80202400  0.74792800  0.79869600  1
  S  S24  1  0.30202400  0.75207200  0.79869600  1
  S  S25  1  0.19797600  0.75207200  0.29869600  1
  S  S26  1  0.03311000  0.81941700  0.00401300  1
  S  S27  1  0.46689000  0.81941700  0.50401300  1
  S  S28  1  0.67938500  0.98121100  0.02423100  1
  S  S29  1  0.82061500  0.98121100  0.52423100  1
  S  S30  1  0.56588100  0.98936500  0.73466800  1
  S  S31  1  0.93411900  0.98936500  0.23466800  1
loop_
_geom_bond_atom_site_label_1
_geom_bond_atom_site_label_2
_geom_bond_distance
_geom_bond_site_symmetry_2
Li0 S31 2.581177 1_445
Li0 S3 2.586488 1_554
Li0 S4 2.611961 1_454
Li0 S8 2.709342 1_555
Li0 S26 2.997101 1_545
Li1 S30 2.581177 1_545
Li1 S2 2.586488 1_555
Li1 S5 2.611961 1_555
Li1 S9 2.709342 1_555
Li1 S27 2.997101 1_545
Li2 S11 2.543489 1_554
Li2 S0 2.545811 1_555
Li2 S28 2.614885 1_545
Li2 S7 2.688275 1_555
Li2 S3 2.720600 1_554
Li3 S10 2.543489 1_655
Li3 S1 2.545811 1_655
Li3 S29 2.614885 1_545
Li3 S6 2.688275 1_555
Li3 S2 2.720600 1_655
Li4 S9 2.463595 1_555
Li4 S3 2.501579 1_555
Li4 S1 2.569176 1_555
Li4 S4 2.888071 1_455
Li5 S8 2.463595 1_555
Li5 S2 2.501579 1_555
Li5 S0 2.569176 1_555
Li5 S5 2.888071 1_555
Li6 S6 2.463595 1_555
Li6 S13 2.501579 1_555
Li6 S14 2.569176 1_555
Li6 S11 2.888071 1_555
Li7 S7 2.463595 1_555
Li7 S12 2.501579 1_555
Li7 S15 2.569176 1_555
Li7 S10 2.888071 1_655
Li8 S5 2.543489 1_555
Li8 S14 2.545811 1_555
Li8 S19 2.614885 1_555
Li8 S9 2.688275 1_555
Li8 S12 2.720600 1_555
Li9 S4 2.543489 1_454
Li9 S15 2.545811 1_455
Li9 S18 2.614885 1_555
Li9 S8 2.688275 1_555
Li9 S13 2.720600 1_454
Li10 S16 2.581177 1_555
Li10 S13 2.586488 1_554
Li10 S11 2.611961 1_554
Li10 S7 2.709342 1_555
Li10 S20 2.997101 1_555
Li11 S17 2.581177 1_655
Li11 S12 2.586488 1_555
Li11 S10 2.611961 1_655
Li11 S6 2.709342 1_555
Li11 S21 2.997101 1_555
Li12 S15 2.581177 1_455
Li12 S19 2.586488 1_555
Li12 S21 2.611961 1_455
Li12 S25 2.709342 1_555
Li12 S10 2.997101 1_555
Li13 S14 2.581177 1_555
Li13 S18 2.586488 1_556
Li13 S20 2.611961 1_556
Li13 S24 2.709342 1_555
Li13 S11 2.997101 1_555
Li14 S26 2.543489 1_656
Li14 S17 2.545811 1_655
Li14 S13 2.614885 1_555
Li14 S23 2.688275 1_555
Li14 S18 2.720600 1_656
Li15 S27 2.543489 1_555
Li15 S16 2.545811 1_555
Li15 S12 2.614885 1_555
Li15 S22 2.688275 1_555
Li15 S19 2.720600 1_555
Li16 S25 2.463595 1_555
Li16 S18 2.501579 1_555
Li16 S16 2.569176 1_555
Li16 S20 2.888071 1_555
Li17 S24 2.463595 1_555
Li17 S19 2.501579 1_555
Li17 S17 2.569176 1_555
Li17 S21 2.888071 1_455
Li18 S23 2.463595 1_555
Li18 S29 2.501579 1_555
Li18 S30 2.569176 1_555
Li18 S27 2.888071 1_555
Li19 S22 2.463595 1_555
Li19 S28 2.501579 1_555
Li19 S31 2.569176 1_555
Li19 S26 2.888071 1_655
Li20 S20 2.543489 1_556
Li20 S30 2.545811 1_555
Li20 S3 2.614885 1_565
Li20 S24 2.688275 1_555
Li20 S28 2.720600 1_556
Li21 S21 2.543489 1_455
Li21 S31 2.545811 1_455
Li21 S2 2.614885 1_565
Li21 S25 2.688275 1_555
Li21 S29 2.720600 1_455
Li22 S1 2.581177 1_665
Li22 S28 2.586488 1_556
Li22 S26 2.611961 1_656
Li22 S23 2.709342 1_555
Li22 S4 2.997101 1_565
Li23 S0 2.581177 1_565
Li23 S29 2.586488 1_555
Li23 S27 2.611961 1_555
Li23 S22 2.709342 1_555
Li23 S5 2.997101 1_565
Nb0 S31 2.272498 1_545
Nb0 S4 2.287216 1_554
Nb0 S7 2.288169 1_555
Nb0 S28 2.300997 1_545
Nb1 S30 2.272498 1_545
Nb1 S5 2.287216 1_555
Nb1 S6 2.288169 1_555
Nb1 S29 2.300997 1_545
Nb2 S16 2.272498 1_555
Nb2 S11 2.287216 1_554
Nb2 S8 2.288169 1_555
Nb2 S18 2.300997 1_555
Nb3 S17 2.272498 1_555
Nb3 S10 2.287216 1_555
Nb3 S9 2.288169 1_555
Nb3 S19 2.300997 1_555
Nb4 S14 2.272498 1_555
Nb4 S20 2.287216 1_556
Nb4 S23 2.288169 1_555
Nb4 S13 2.300997 1_555
Nb5 S15 2.272498 1_555
Nb5 S21 2.287216 1_555
Nb5 S22 2.288169 1_555
Nb5 S12 2.300997 1_555
Nb6 S1 2.272498 1_565
Nb6 S26 2.287216 1_556
Nb6 S24 2.288169 1_555
Nb6 S3 2.300997 1_565
Nb7 S0 2.272498 1_565
Nb7 S27 2.287216 1_555
Nb7 S25 2.288169 1_555
Nb7 S2 2.300997 1_565
