# generated using pymatgen
data_Li2VO2F
_symmetry_space_group_name_H-M   'P 1'
_cell_length_a   5.13099459
_cell_length_b   5.93920482
_cell_length_c   7.86264398
_cell_angle_alpha   100.88303529
_cell_angle_beta   70.52889016
_cell_angle_gamma   90.00075203
_symmetry_Int_Tables_number   1
_chemical_formula_structural   Li2VO2F
_chemical_formula_sum   'Li8 V4 O8 F4'
_cell_volume   221.32742490
_cell_formula_units_Z   4
loop_
 _symmetry_equiv_pos_site_id
 _symmetry_equiv_pos_as_xyz
  1  'x, y, z'
loop_
 _atom_site_type_symbol
 _atom_site_label
 _atom_site_symmetry_multiplicity
 _atom_site_fract_x
 _atom_site_fract_y
 _atom_site_fract_z
 _atom_site_occupancy
  Li  Li0  1  0.33663000  0.66501900  0.66011300  1
  Li  Li1  1  0.83663000  0.41504200  0.66011200  1
  Li  Li2  1  0.33663600  0.16503100  0.66010700  1
  Li  Li3  1  0.83663500  0.91503300  0.66010800  1
  Li  Li4  1  0.16335700  0.58496600  0.33989600  1
  Li  Li5  1  0.66337200  0.33495200  0.33989000  1
  Li  Li6  1  0.16337400  0.08498100  0.33988900  1
  Li  Li7  1  0.66335900  0.83497100  0.33989400  1
  V  V0  1  0.50007900  0.75052400  0.99997300  1
  V  V1  1  0.00013100  0.49949400  0.99996900  1
  V  V2  1  0.49991300  0.25040800  0.00001900  1
  V  V3  1  0.99989400  0.99958700  0.00001500  1
  O  O0  1  0.59047200  0.54017300  0.15635200  1
  O  O1  1  0.09048000  0.28805600  0.15641300  1
  O  O2  1  0.59048400  0.04017100  0.15641700  1
  O  O3  1  0.09048200  0.78802100  0.15635700  1
  O  O4  1  0.90948100  0.70985000  0.84360300  1
  O  O5  1  0.40947900  0.46193100  0.84359900  1
  O  O6  1  0.90955500  0.20984500  0.84363200  1
  O  O7  1  0.40956000  0.96194700  0.84363800  1
  F  F0  1  0.24999900  0.87499800  0.50000100  1
  F  F1  1  0.74999900  0.62500500  0.49999800  1
  F  F2  1  0.24999900  0.37500100  0.50000100  1
  F  F3  1  0.74999900  0.12499400  0.50000500  1
loop_
_geom_bond_atom_site_label_1
_geom_bond_atom_site_label_2
_geom_bond_distance
_geom_bond_site_symmetry_2
Li0 O5 2.166227 1_555
Li0 O4 2.168604 1_455
Li0 O7 2.175152 1_555
Li1 O4 2.166228 1_555
Li1 O5 2.168605 1_555
Li1 O6 2.175170 1_555
Li2 O7 2.166656 1_545
Li2 O6 2.168413 1_455
Li2 O5 2.174716 1_555
Li3 O6 2.166532 1_565
Li3 O7 2.168401 1_555
Li3 O4 2.174791 1_555
Li4 O3 2.166491 1_555
Li4 O0 2.168597 1_555
Li4 O1 2.174785 1_555
Li5 O2 2.166113 1_555
Li5 O1 2.168407 1_655
Li5 O0 2.175334 1_555
Li6 O1 2.166200 1_555
Li6 O2 2.168403 1_555
Li6 O3 2.175237 1_545
Li7 O0 2.166489 1_555
Li7 O3 2.168612 1_655
Li7 O2 2.174802 1_565
O0 V1 2.037965 1_654
O0 V0 2.061056 1_554
O0 V2 2.066523 1_555
O1 V2 2.037018 1_555
O1 V3 2.061306 1_445
O1 V1 2.066007 1_554
O2 V3 2.036937 1_545
O2 V2 2.061074 1_555
O2 V0 2.066131 1_544
O3 V0 2.037702 1_554
O3 V1 2.061001 1_554
O3 V3 2.066444 1_455
O4 V0 2.036845 1_555
O4 V1 2.061556 1_655
O4 V3 2.066404 1_556
O5 V1 2.036613 1_555
O5 V0 2.061768 1_555
O5 V2 2.066407 1_556
O6 V2 2.037897 1_556
O6 V3 2.060566 1_546
O6 V1 2.066079 1_655
O7 V3 2.037979 1_456
O7 V2 2.060696 1_566
O7 V0 2.065639 1_555
F0 Li7 2.060752 1_555
F0 Li3 2.060769 1_455
F0 Li0 2.074515 1_555
F0 Li6 2.074519 1_565
F0 Li2 2.074555 1_565
F0 Li4 2.074557 1_555
F1 Li4 2.060734 1_655
F1 Li0 2.060806 1_555
F1 Li7 2.074429 1_555
F1 Li1 2.074460 1_555
F1 Li3 2.074548 1_555
F1 Li5 2.074627 1_555
F2 Li1 2.060798 1_455
F2 Li5 2.060815 1_555
F2 Li4 2.074436 1_555
F2 Li2 2.074452 1_555
F2 Li6 2.074498 1_555
F2 Li0 2.074503 1_555
F3 Li2 2.060755 1_555
F3 Li6 2.060833 1_655
F3 Li3 2.074393 1_545
F3 Li5 2.074436 1_555
F3 Li7 2.074539 1_545
F3 Li1 2.074610 1_555
