# generated using pymatgen
data_Li2Fe3CoO8
_symmetry_space_group_name_H-M   'P 1'
_cell_length_a   5.89467277
_cell_length_b   5.89467277
_cell_length_c   5.89467273
_cell_angle_alpha   60.35547982
_cell_angle_beta   60.35547982
_cell_angle_gamma   60.35546997
_symmetry_Int_Tables_number   1
_chemical_formula_structural   Li2Fe3CoO8
_chemical_formula_sum   'Li2 Fe3 Co1 O8'
_cell_volume   145.99649139
_cell_formula_units_Z   1
loop_
 _symmetry_equiv_pos_site_id
 _symmetry_equiv_pos_as_xyz
  1  'x, y, z'
loop_
 _atom_site_type_symbol
 _atom_site_label
 _atom_site_symmetry_multiplicity
 _atom_site_fract_x
 _atom_site_fract_y
 _atom_site_fract_z
 _atom_site_occupancy
  Li  Li0  1  0.88018500  0.88018500  0.88018500  1
  Li  Li1  1  0.50126600  0.50126600  0.50126600  1
  Fe  Fe0  1  0.99303800  0.50286100  0.50286100  1
  Fe  Fe1  1  0.50286100  0.99303800  0.50286100  1
  Fe  Fe2  1  0.50286100  0.50286100  0.99303800  1
  Co  Co0  1  0.11671200  0.11671200  0.11671200  1
  O  O0  1  0.74594200  0.74594200  0.74594200  1
  O  O1  1  0.74714100  0.74714100  0.29292000  1
  O  O2  1  0.74714100  0.29292000  0.74714100  1
  O  O3  1  0.29292000  0.74714100  0.74714100  1
  O  O4  1  0.71224600  0.25241500  0.25241500  1
  O  O5  1  0.25241500  0.71224600  0.25241500  1
  O  O6  1  0.25241500  0.25241500  0.71224600  1
  O  O7  1  0.25285700  0.25285700  0.25285700  1
loop_
_geom_bond_atom_site_label_1
_geom_bond_atom_site_label_2
_geom_bond_distance
_geom_bond_site_symmetry_2
Li0 O0 1.933103 1_555
Li0 O3 1.995677 1_655
Li0 O2 1.995677 1_565
Li0 O1 1.995677 1_556
Li1 O3 2.065404 1_555
Li1 O2 2.065404 1_555
Li1 O1 2.065405 1_555
Li1 O4 2.090338 1_555
Li1 O5 2.090338 1_555
Li1 O6 2.090338 1_555
Fe0 O1 1.911256 1_555
Fe0 O2 1.911257 1_555
Fe0 O6 1.967717 1_655
Fe0 O5 1.967717 1_655
Fe0 O0 2.032166 1_555
Fe0 O7 2.090956 1_655
Fe1 O1 1.911256 1_555
Fe1 O3 1.911257 1_555
Fe1 O6 1.967717 1_565
Fe1 O4 1.967717 1_565
Fe1 O0 2.032166 1_555
Fe1 O7 2.090956 1_565
Fe2 O3 1.911256 1_555
Fe2 O2 1.911256 1_555
Fe2 O4 1.967717 1_556
Fe2 O5 1.967717 1_556
Fe2 O0 2.032167 1_555
Fe2 O7 2.090956 1_556
Co0 O5 1.955465 1_545
Co0 O4 1.955465 1_455
Co0 O6 1.955465 1_554
Co0 O7 1.960492 1_555
