# generated using pymatgen
data_V2O3F
_symmetry_space_group_name_H-M   'P 1'
_cell_length_a   5.59270342
_cell_length_b   9.83988850
_cell_length_c   5.57097010
_cell_angle_alpha   78.16779692
_cell_angle_beta   65.54843327
_cell_angle_gamma   97.73760411
_symmetry_Int_Tables_number   1
_chemical_formula_structural   V2O3F
_chemical_formula_sum   'V8 O12 F4'
_cell_volume   264.73292103
_cell_formula_units_Z   4
loop_
 _symmetry_equiv_pos_site_id
 _symmetry_equiv_pos_as_xyz
  1  'x, y, z'
loop_
 _atom_site_type_symbol
 _atom_site_label
 _atom_site_symmetry_multiplicity
 _atom_site_fract_x
 _atom_site_fract_y
 _atom_site_fract_z
 _atom_site_occupancy
  V  V0  1  0.91267000  0.77372300  0.63669300  1
  V  V1  1  0.62597800  0.25028000  0.87565400  1
  V  V2  1  0.51902000  0.00002400  0.49808200  1
  V  V3  1  0.73272800  0.50031700  0.25325300  1
  V  V4  1  0.25048400  0.49794800  0.74110700  1
  V  V5  1  0.33916100  0.72671400  0.11469000  1
  V  V6  1  0.12576800  0.25027600  0.37583000  1
  V  V7  1  0.00156100  0.00260600  0.01031400  1
  O  O0  1  0.92706700  0.15330400  0.77302500  1
  O  O1  1  0.58197700  0.84667600  0.73271400  1
  O  O2  1  0.32501400  0.34725200  0.97850700  1
  O  O3  1  0.81259800  0.34598600  0.49619800  1
  O  O4  1  0.90680400  0.10303900  0.30159900  1
  O  O5  1  0.34488800  0.39748900  0.44986900  1
  O  O6  1  0.11413400  0.90559700  0.70301900  1
  O  O7  1  0.17134200  0.65401000  0.51918400  1
  O  O8  1  0.66971900  0.65367200  0.01826300  1
  O  O9  1  0.43890500  0.15428600  0.25553300  1
  O  O10  1  0.08074700  0.84667100  0.23220500  1
  O  O11  1  0.13752300  0.59496400  0.04856100  1
  F  F0  1  0.84390800  0.39771900  0.95035800  1
  F  F1  1  0.65091400  0.60332300  0.54982300  1
  F  F2  1  0.40817800  0.10251800  0.80115300  1
  F  F3  1  0.60114900  0.89736600  0.20090600  1
loop_
_geom_bond_atom_site_label_1
_geom_bond_atom_site_label_2
_geom_bond_distance
_geom_bond_site_symmetry_2
O0 V6 1.963330 1_655
O0 V1 1.983021 1_555
O0 V7 1.984524 1_656
O1 V2 1.955669 1_565
O1 V5 1.977817 1_556
O1 V0 1.979379 1_555
O2 V6 1.964008 1_556
O2 V1 1.982484 1_555
O2 V4 1.985001 1_555
O3 V1 1.880785 1_555
O3 V6 2.033494 1_655
O3 V3 2.043954 1_555
O4 V2 1.979126 1_555
O4 V6 1.989187 1_655
O4 V7 1.994373 1_655
O5 V3 1.978911 1_555
O5 V6 1.988897 1_555
O5 V4 1.994350 1_555
O6 V0 1.799296 1_455
O6 V2 2.037781 1_565
O6 V7 2.044011 1_566
O7 V5 1.969219 1_555
O7 V0 1.974872 1_455
O7 V4 1.984954 1_555
O8 V3 1.957044 1_555
O8 V0 1.976675 1_554
O8 V5 1.979105 1_555
O9 V1 1.883262 1_554
O9 V6 2.035104 1_555
O9 V2 2.043010 1_555
O10 V0 1.969280 1_455
O10 V5 1.975736 1_555
O10 V7 1.984154 1_565
O11 V5 1.798394 1_555
O11 V3 2.037772 1_455
O11 V4 2.044825 1_554
F0 V1 1.988686 1_555
F0 V4 2.057258 1_655
F0 V3 2.062098 1_556
F1 V3 2.037689 1_555
F1 V4 2.042537 1_555
F1 V0 2.333876 1_555
F2 V1 1.989752 1_555
F2 V7 2.056771 1_556
F2 V2 2.062109 1_555
F3 V2 2.038007 1_565
F3 V7 2.042262 1_665
F3 V5 2.334118 1_555
