# generated using pymatgen
data_LiMn2F7
_symmetry_space_group_name_H-M   'P 1'
_cell_length_a   5.09576000
_cell_length_b   7.50873500
_cell_length_c   13.25818487
_cell_angle_alpha   81.87453145
_cell_angle_beta   90.00000000
_cell_angle_gamma   90.00000000
_symmetry_Int_Tables_number   1
_chemical_formula_structural   LiMn2F7
_chemical_formula_sum   'Li4 Mn8 F28'
_cell_volume   502.20134029
_cell_formula_units_Z   4
loop_
 _symmetry_equiv_pos_site_id
 _symmetry_equiv_pos_as_xyz
  1  'x, y, z'
loop_
 _atom_site_type_symbol
 _atom_site_label
 _atom_site_symmetry_multiplicity
 _atom_site_fract_x
 _atom_site_fract_y
 _atom_site_fract_z
 _atom_site_occupancy
  Li  Li0  1  0.28034400  0.85781000  0.55975900  1
  Li  Li1  1  0.77294100  0.59956000  0.42820100  1
  Li  Li2  1  0.27294100  0.40044000  0.57179900  1
  Li  Li3  1  0.78034400  0.14219000  0.44024100  1
  Mn  Mn0  1  0.77035100  0.97539800  0.10658100  1
  Mn  Mn1  1  0.26143100  0.91869400  0.31748400  1
  Mn  Mn2  1  0.76132900  0.58231100  0.68338800  1
  Mn  Mn3  1  0.26111300  0.52508000  0.89470000  1
  Mn  Mn4  1  0.76111300  0.47492000  0.10530000  1
  Mn  Mn5  1  0.26132900  0.41768900  0.31661200  1
  Mn  Mn6  1  0.76143100  0.08130600  0.68251600  1
  Mn  Mn7  1  0.27035100  0.02460200  0.89341900  1
  F  F0  1  0.95195800  0.98912300  0.79843800  1
  F  F1  1  0.53702300  0.94900100  0.41019800  1
  F  F2  1  0.61227400  0.82394700  0.66538900  1
  F  F3  1  0.37224500  0.78216000  0.88197200  1
  F  F4  1  0.05693400  0.82801400  0.42807400  1
  F  F5  1  0.09054400  0.94196800  0.01323500  1
  F  F6  1  0.95954200  0.88642100  0.22784300  1
  F  F7  1  0.96095400  0.59381000  0.82000100  1
  F  F8  1  0.06962500  0.65277100  0.61671700  1
  F  F9  1  0.66038100  0.73375900  0.09698100  1
  F  F10  1  0.40098200  0.65929000  0.31020300  1
  F  F11  1  0.57024500  0.56203100  0.55053400  1
  F  F12  1  0.46142100  0.49888800  0.75999900  1
  F  F13  1  0.56075800  0.45754700  0.97230500  1
  F  F14  1  0.06075800  0.54245300  0.02769500  1
  F  F15  1  0.96142100  0.50111200  0.24000100  1
  F  F16  1  0.07024500  0.43796900  0.44946600  1
  F  F17  1  0.90098200  0.34071000  0.68979700  1
  F  F18  1  0.16038100  0.26624100  0.90301900  1
  F  F19  1  0.56962500  0.34722900  0.38328300  1
  F  F20  1  0.46095400  0.40619000  0.17999900  1
  F  F21  1  0.45954200  0.11357900  0.77215700  1
  F  F22  1  0.59054400  0.05803200  0.98676500  1
  F  F23  1  0.55693400  0.17198600  0.57192600  1
  F  F24  1  0.87224500  0.21784000  0.11802800  1
  F  F25  1  0.11227400  0.17605300  0.33461100  1
  F  F26  1  0.03702300  0.05099900  0.58980200  1
  F  F27  1  0.45195800  0.01087700  0.20156200  1
loop_
_geom_bond_atom_site_label_1
_geom_bond_atom_site_label_2
_geom_bond_distance
_geom_bond_site_symmetry_2
F0 Mn6 1.866307 1_565
F0 Mn7 2.093785 1_665
F1 Mn1 1.901064 1_555
F1 Li3 1.990882 1_565
F1 Li0 2.393274 1_555
F2 Mn2 1.950242 1_555
F2 Mn6 2.118404 1_565
F2 Li0 2.187748 1_555
F3 Mn7 1.919559 1_565
F3 Mn3 1.995827 1_555
F4 Mn1 1.848544 1_555
F4 Li0 2.122430 1_555
F4 Li1 2.244116 1_455
F5 Mn7 1.862620 1_564
F5 Mn0 2.084390 1_455
F6 Mn0 1.912304 1_555
F6 Mn1 1.979684 1_655
F7 Mn3 1.855311 1_655
F7 Mn2 2.089745 1_555
F8 Mn2 1.843123 1_455
F8 Li0 1.940339 1_555
F8 Li2 2.310164 1_555
F9 Mn0 1.920304 1_555
F9 Mn4 1.998112 1_555
F10 Mn5 1.939355 1_555
F10 Mn1 2.088557 1_555
F10 Li1 2.458225 1_555
F11 Li1 1.909889 1_555
F11 Li2 1.936539 1_555
F11 Mn2 2.037076 1_555
F12 Mn2 1.892033 1_555
F12 Mn3 2.090273 1_555
F13 Mn3 1.870767 1_555
F13 Mn4 2.057554 1_556
F14 Mn4 1.870767 1_455
F14 Mn3 2.057554 1_554
F15 Mn5 1.892033 1_655
F15 Mn4 2.090273 1_555
F16 Li2 1.909889 1_555
F16 Li1 1.936539 1_455
F16 Mn5 2.037076 1_555
F17 Mn2 1.939355 1_555
F17 Mn6 2.088557 1_555
F17 Li2 2.458225 1_655
F18 Mn7 1.920304 1_555
F18 Mn3 1.998112 1_555
F19 Mn5 1.843123 1_555
F19 Li3 1.940339 1_555
F19 Li1 2.310164 1_555
F20 Mn4 1.855311 1_555
F20 Mn5 2.089745 1_555
F21 Mn7 1.912304 1_555
F21 Mn6 1.979684 1_555
F22 Mn0 1.862620 1_546
F22 Mn7 2.084390 1_555
F23 Mn6 1.848544 1_555
F23 Li3 2.122430 1_555
F23 Li2 2.244116 1_555
F24 Mn0 1.919559 1_545
F24 Mn4 1.995827 1_555
F25 Mn5 1.950242 1_555
F25 Mn1 2.118404 1_545
F25 Li3 2.187748 1_455
F26 Mn6 1.901064 1_455
F26 Li0 1.990882 1_545
F26 Li3 2.393274 1_455
F27 Mn1 1.866307 1_545
F27 Mn0 2.093785 1_545
