# generated using pymatgen
data_Li32Ti3Cr13O48
_symmetry_space_group_name_H-M   'P 1'
_cell_length_a   5.05093700
_cell_length_b   8.73635415
_cell_length_c   19.53713293
_cell_angle_alpha   98.52491672
_cell_angle_beta   94.85465294
_cell_angle_gamma   90.11996482
_symmetry_Int_Tables_number   1
_chemical_formula_structural   Li32Ti3Cr13O48
_chemical_formula_sum   'Li32 Ti3 Cr13 O48'
_cell_volume   849.43329457
_cell_formula_units_Z   1
loop_
 _symmetry_equiv_pos_site_id
 _symmetry_equiv_pos_as_xyz
  1  'x, y, z'
loop_
 _atom_site_type_symbol
 _atom_site_label
 _atom_site_symmetry_multiplicity
 _atom_site_fract_x
 _atom_site_fract_y
 _atom_site_fract_z
 _atom_site_occupancy
  Li  Li0  1  0.99388000  0.17193900  0.24996900  1
  Li  Li1  1  0.87542900  0.37623800  0.37511200  1
  Li  Li2  1  0.74891200  0.24944700  0.00018900  1
  Li  Li3  1  0.74196800  0.91872200  0.00106000  1
  Li  Li4  1  0.99380900  0.16967900  0.75039500  1
  Li  Li5  1  0.75939600  0.58057800  0.50017500  1
  Li  Li6  1  0.87729200  0.37482800  0.87436500  1
  Li  Li7  1  0.74294700  0.25242000  0.49995800  1
  Li  Li8  1  0.74482500  0.91951600  0.49989300  1
  Li  Li9  1  0.62454500  0.12534600  0.12501900  1
  Li  Li10  1  0.75793900  0.58197500  0.00060900  1
  Li  Li11  1  0.50819300  0.33238000  0.24924700  1
  Li  Li12  1  0.62553300  0.12566600  0.62514900  1
  Li  Li13  1  0.50146600  0.99882100  0.25025600  1
  Li  Li14  1  0.49210000  0.66700500  0.24965500  1
  Li  Li15  1  0.51025100  0.33159200  0.75049900  1
  Li  Li16  1  0.37721700  0.87487800  0.37453200  1
  Li  Li17  1  0.49352700  0.00237200  0.74995800  1
  Li  Li18  1  0.24645200  0.75218700  0.00025800  1
  Li  Li19  1  0.49341200  0.66853500  0.74945700  1
  Li  Li20  1  0.24123700  0.41847900  0.99982100  1
  Li  Li21  1  0.37582500  0.87586400  0.87515500  1
  Li  Li22  1  0.25644700  0.07954500  0.49987700  1
  Li  Li23  1  0.25053400  0.74771100  0.50036800  1
  Li  Li24  1  0.12520100  0.62464900  0.12499300  1
  Li  Li25  1  0.24488700  0.42120600  0.50064000  1
  Li  Li26  1  0.00700600  0.83021400  0.25086000  1
  Li  Li27  1  0.26304200  0.07948000  0.99987700  1
  Li  Li28  1  0.12718100  0.62503700  0.62445500  1
  Li  Li29  1  0.99609200  0.49999300  0.24968000  1
  Li  Li30  1  0.00733300  0.83087200  0.75029600  1
  Li  Li31  1  0.00071200  0.49805700  0.75033300  1
  Ti  Ti0  1  0.87794500  0.03903200  0.87688300  1
  Ti  Ti1  1  0.37700700  0.53892200  0.37602200  1
  Ti  Ti2  1  0.12779800  0.28903100  0.62634900  1
  Cr  Cr0  1  0.87794400  0.71181400  0.37494400  1
  Cr  Cr1  1  0.87212600  0.04710400  0.37404700  1
  Cr  Cr2  1  0.87147200  0.70319000  0.87477600  1
  Cr  Cr3  1  0.61571600  0.78852000  0.12369400  1
  Cr  Cr4  1  0.63419800  0.46100600  0.12613500  1
  Cr  Cr5  1  0.62160100  0.79663800  0.62410100  1
  Cr  Cr6  1  0.62895500  0.46171100  0.62510800  1
  Cr  Cr7  1  0.37245400  0.20316300  0.37452400  1
  Cr  Cr8  1  0.37095500  0.54698200  0.87419900  1
  Cr  Cr9  1  0.37879700  0.21187500  0.87524500  1
  Cr  Cr10  1  0.11526600  0.96026000  0.12398800  1
  Cr  Cr11  1  0.13518500  0.28991800  0.12621100  1
  Cr  Cr12  1  0.12204100  0.95295100  0.62467300  1
  O  O0  1  0.96689300  0.10185600  0.06857500  1
  O  O1  1  0.92114300  0.78211800  0.06889700  1
  O  O2  1  0.92228600  0.42477100  0.06839600  1
  O  O3  1  0.96472500  0.10274500  0.56845600  1
  O  O4  1  0.82827000  0.96169200  0.18050400  1
  O  O5  1  0.82805700  0.32011400  0.18207000  1
  O  O6  1  0.93502000  0.78758600  0.56867800  1
  O  O7  1  0.92062400  0.42848100  0.56765300  1
  O  O8  1  0.78437800  0.63896500  0.18117100  1
  O  O9  1  0.71319000  0.86097200  0.31863500  1
  O  O10  1  0.81549800  0.95981700  0.68150000  1
  O  O11  1  0.82540700  0.32157500  0.68354600  1
  O  O12  1  0.68113600  0.53675000  0.31853000  1
  O  O13  1  0.68357600  0.17443500  0.31724900  1
  O  O14  1  0.78354600  0.64205300  0.67975500  1
  O  O15  1  0.71473800  0.85310400  0.81871000  1
  O  O16  1  0.46431200  0.61009700  0.06831700  1
  O  O17  1  0.57611800  0.71687100  0.43110300  1
  O  O18  1  0.56454100  0.07546300  0.43197700  1
  O  O19  1  0.68447300  0.53762500  0.81869000  1
  O  O20  1  0.67030200  0.17841500  0.81788200  1
  O  O21  1  0.42208000  0.92965700  0.06799800  1
  O  O22  1  0.42342300  0.28842000  0.06965400  1
  O  O23  1  0.53662000  0.39024300  0.43124400  1
  O  O24  1  0.46350400  0.61084400  0.56877300  1
  O  O25  1  0.56520500  0.70961500  0.93134500  1
  O  O26  1  0.57489200  0.07178400  0.93392200  1
  O  O27  1  0.32839500  0.82496100  0.18128100  1
  O  O28  1  0.32783000  0.46795600  0.18115400  1
  O  O29  1  0.43317900  0.92462000  0.56738600  1
  O  O30  1  0.43111100  0.28685800  0.56867800  1
  O  O31  1  0.53230600  0.39209600  0.93010500  1
  O  O32  1  0.28476700  0.14843700  0.18149300  1
  O  O33  1  0.21476400  0.35319200  0.31860600  1
  O  O34  1  0.31452900  0.82536900  0.68207400  1
  O  O35  1  0.32577200  0.46716500  0.68118100  1
  O  O36  1  0.17046600  0.67854500  0.31725200  1
  O  O37  1  0.18516800  0.03754800  0.31834800  1
  O  O38  1  0.28656400  0.14017200  0.68135300  1
  O  O39  1  0.21368500  0.36082700  0.81884600  1
  O  O40  1  0.07513900  0.57178500  0.43339300  1
  O  O41  1  0.06572600  0.21014800  0.43135900  1
  O  O42  1  0.18271800  0.67495300  0.81744200  1
  O  O43  1  0.18065300  0.03689300  0.81889800  1
  O  O44  1  0.03352200  0.89236700  0.42960000  1
  O  O45  1  0.06404900  0.57533200  0.93210200  1
  O  O46  1  0.07505400  0.21716600  0.93159900  1
  O  O47  1  0.03658000  0.89019100  0.93161300  1
loop_
_geom_bond_atom_site_label_1
_geom_bond_atom_site_label_2
_geom_bond_distance
_geom_bond_site_symmetry_2
Li0 O32 2.059891 1_655
Li0 O37 2.085188 1_655
Li0 O5 2.112489 1_555
Li0 O13 2.127236 1_555
Li0 O33 2.158749 1_655
Li0 O4 2.231080 1_545
Li1 O23 2.103552 1_555
Li1 O12 2.105527 1_555
Li1 O33 2.110152 1_655
Li1 O40 2.110501 1_655
Li1 O41 2.129960 1_655
Li1 O13 2.131148 1_555
Li2 O26 2.015874 1_554
Li2 O2 2.020002 1_555
Li2 O46 2.202834 1_654
Li2 O31 2.209741 1_554
Li2 O22 2.214403 1_555
Li2 O0 2.219816 1_555
Li3 O1 2.066460 1_555
Li3 O47 2.088153 1_654
Li3 O26 2.134988 1_564
Li3 O21 2.156676 1_555
Li3 O0 2.168731 1_565
Li3 O25 2.244820 1_554
Li4 O43 2.068499 1_655
Li4 O38 2.075705 1_655
Li4 O11 2.126205 1_555
Li4 O20 2.179362 1_555
Li4 O39 2.211171 1_655
Li4 O10 2.245128 1_545
Li5 O24 2.082140 1_555
Li5 O17 2.089347 1_555
Li5 O7 2.123434 1_555
Li5 O40 2.138827 1_655
Li5 O23 2.217329 1_555
Li5 O6 2.218889 1_555
Li6 O39 2.086123 1_655
Li6 O46 2.102062 1_655
Li6 O19 2.107043 1_555
Li6 O45 2.111340 1_655
Li6 O20 2.119208 1_555
Li6 O31 2.125692 1_555
Li7 O7 2.027467 1_555
Li7 O18 2.036870 1_555
Li7 O23 2.141444 1_555
Li7 O30 2.148033 1_555
Li7 O41 2.194584 1_655
Li7 O3 2.242056 1_555
Li8 O6 2.074281 1_555
Li8 O44 2.076636 1_655
Li8 O29 2.133712 1_555
Li8 O3 2.166888 1_565
Li8 O17 2.181976 1_555
Li8 O18 2.186921 1_565
Li9 O5 2.104938 1_555
Li9 O21 2.108269 1_545
Li9 O32 2.111716 1_555
Li9 O0 2.122587 1_555
Li9 O22 2.123353 1_555
Li9 O4 2.134235 1_545
Li10 O16 2.060826 1_555
Li10 O25 2.061870 1_554
Li10 O45 2.124365 1_654
Li10 O1 2.152441 1_555
Li10 O2 2.164987 1_555
Li10 O31 2.235374 1_554
Li11 O28 2.066201 1_555
Li11 O33 2.081800 1_555
Li11 O5 2.159195 1_555
Li11 O32 2.171884 1_555
Li11 O13 2.191636 1_555
Li11 O12 2.204518 1_555
Li12 O38 2.104991 1_555
Li12 O30 2.108966 1_555
Li12 O3 2.111626 1_555
Li12 O11 2.114021 1_555
Li12 O29 2.126521 1_545
Li12 O10 2.128855 1_545
Li13 O27 2.018763 1_555
Li13 O13 2.026818 1_565
Li13 O9 2.149243 1_555
Li13 O37 2.159885 1_565
Li13 O4 2.222372 1_555
Li13 O32 2.233617 1_565
Li14 O12 2.063580 1_555
Li14 O8 2.065977 1_555
Li14 O28 2.149308 1_555
Li14 O36 2.172051 1_555
Li14 O27 2.176417 1_555
Li14 O9 2.234970 1_555
Li15 O39 2.081134 1_555
Li15 O35 2.090868 1_555
Li15 O20 2.127000 1_555
Li15 O11 2.138156 1_555
Li15 O19 2.207525 1_555
Li15 O38 2.227571 1_555
Li16 O9 2.088613 1_555
Li16 O17 2.099180 1_555
Li16 O37 2.110340 1_565
Li16 O18 2.110895 1_565
Li16 O44 2.112574 1_555
Li16 O36 2.123800 1_555
Li17 O20 2.027864 1_555
Li17 O34 2.037341 1_545
Li17 O38 2.141288 1_555
Li17 O43 2.155056 1_555
Li17 O10 2.189752 1_545
Li17 O15 2.241565 1_545
Li18 O21 2.032111 1_555
Li18 O45 2.045863 1_554
Li18 O47 2.149427 1_554
Li18 O25 2.182673 1_554
Li18 O16 2.183414 1_555
Li18 O1 2.199384 1_455
Li19 O14 2.073954 1_555
Li19 O19 2.076339 1_555
Li19 O42 2.135678 1_555
Li19 O35 2.167504 1_555
Li19 O34 2.182986 1_555
Li19 O15 2.184030 1_555
Li20 O22 2.061731 1_556
Li20 O31 2.077735 1_555
Li20 O46 2.164189 1_555
Li20 O2 2.176500 1_456
Li20 O45 2.184355 1_555
Li20 O16 2.221596 1_556
Li21 O43 2.107077 1_565
Li21 O15 2.107589 1_555
Li21 O47 2.109100 1_555
Li21 O26 2.115096 1_565
Li21 O42 2.126844 1_555
Li21 O25 2.128479 1_555
Li22 O41 2.064219 1_555
Li22 O3 2.064520 1_455
Li22 O18 2.125634 1_555
Li22 O29 2.168727 1_545
Li22 O44 2.211788 1_545
Li22 O30 2.221761 1_555
Li23 O40 2.015210 1_555
Li23 O29 2.035618 1_555
Li23 O24 2.146805 1_555
Li23 O6 2.160237 1_455
Li23 O17 2.208771 1_555
Li23 O44 2.231029 1_555
Li24 O28 2.094387 1_555
Li24 O1 2.101843 1_455
Li24 O16 2.110975 1_555
Li24 O8 2.112759 1_455
Li24 O2 2.133207 1_455
Li24 O27 2.134491 1_555
Li25 O30 2.069988 1_555
Li25 O23 2.076949 1_555
Li25 O40 2.125622 1_555
Li25 O7 2.177006 1_455
Li25 O24 2.196752 1_555
Li25 O41 2.257573 1_555
Li26 O9 2.063177 1_455
Li26 O4 2.070313 1_455
Li26 O36 2.110154 1_555
Li26 O27 2.200107 1_555
Li26 O37 2.216648 1_565
Li26 O8 2.228988 1_455
Li27 O0 2.083354 1_456
Li27 O46 2.096199 1_555
Li27 O26 2.112884 1_555
Li27 O21 2.114167 1_546
Li27 O47 2.213998 1_545
Li27 O22 2.217153 1_556
Li28 O24 2.087641 1_555
Li28 O35 2.099400 1_555
Li28 O6 2.105171 1_455
Li28 O34 2.110550 1_555
Li28 O14 2.114902 1_455
Li28 O7 2.121390 1_455
Li29 O5 2.030750 1_555
Li29 O36 2.034386 1_655
Li29 O8 2.157325 1_555
Li29 O12 2.163210 1_555
Li29 O33 2.223586 1_655
Li29 O28 2.224608 1_655
Li30 O10 2.060938 1_455
Li30 O15 2.065662 1_455
Li30 O34 2.125497 1_555
Li30 O42 2.167789 1_555
Li30 O43 2.209498 1_565
Li30 O14 2.225457 1_455
Li31 O11 2.016446 1_455
Li31 O42 2.035139 1_555
Li31 O39 2.150273 1_555
Li31 O19 2.163546 1_455
Li31 O35 2.205225 1_555
Li31 O14 2.225116 1_455
Cr0 O44 1.897174 1_655
Cr0 O36 1.929895 1_655
Cr0 O17 1.949077 1_555
Cr0 O12 1.962267 1_555
Cr0 O9 1.968609 1_555
Cr0 O40 2.004840 1_655
Cr1 O13 1.888741 1_555
Cr1 O41 1.890739 1_655
Cr1 O9 1.945819 1_545
Cr1 O37 1.988980 1_655
Cr1 O44 1.989938 1_645
Cr1 O18 1.993003 1_555
Cr2 O19 1.879942 1_555
Cr2 O45 1.907692 1_655
Cr2 O15 1.955701 1_555
Cr2 O25 1.972045 1_555
Cr2 O47 1.974142 1_655
Cr2 O42 2.001193 1_655
Cr3 O16 1.881507 1_555
Cr3 O27 1.909284 1_555
Cr3 O1 1.947129 1_555
Cr3 O21 1.970702 1_555
Cr3 O4 1.991737 1_555
Cr3 O8 1.992880 1_555
Cr4 O8 1.873518 1_555
Cr4 O2 1.914147 1_555
Cr4 O28 1.953533 1_555
Cr4 O5 1.972514 1_555
Cr4 O22 1.981312 1_555
Cr4 O16 1.996415 1_555
Cr5 O29 1.891279 1_555
Cr5 O10 1.892963 1_555
Cr5 O24 1.941406 1_555
Cr5 O6 1.987478 1_555
Cr5 O14 1.991148 1_555
Cr5 O34 1.991514 1_555
Cr6 O14 1.893911 1_555
Cr6 O7 1.923459 1_555
Cr6 O35 1.953519 1_555
Cr6 O30 1.963513 1_555
Cr6 O24 1.970091 1_555
Cr6 O11 2.003672 1_555
Cr7 O37 1.881644 1_555
Cr7 O18 1.907188 1_555
Cr7 O33 1.956392 1_555
Cr7 O23 1.971962 1_555
Cr7 O41 1.976965 1_555
Cr7 O13 2.000156 1_555
Cr8 O25 1.888472 1_555
Cr8 O42 1.891307 1_555
Cr8 O39 1.942467 1_555
Cr8 O19 1.988815 1_555
Cr8 O45 1.989836 1_555
Cr8 O31 1.995069 1_555
Cr9 O31 1.892839 1_555
Cr9 O20 1.921793 1_555
Cr9 O46 1.959378 1_555
Cr9 O43 1.964339 1_555
Cr9 O39 1.969043 1_555
Cr9 O26 2.005484 1_555
Cr10 O0 1.878175 1_465
Cr10 O4 1.894084 1_455
Cr10 O1 1.964769 1_455
Cr10 O21 1.967632 1_555
Cr10 O32 1.995388 1_565
Cr10 O27 2.000649 1_555
Cr11 O32 1.877948 1_555
Cr11 O22 1.899670 1_555
Cr11 O28 1.959643 1_555
Cr11 O5 1.967223 1_455
Cr11 O0 1.993373 1_455
Cr11 O2 2.003608 1_455
Cr12 O6 1.878043 1_455
Cr12 O34 1.906786 1_555
Cr12 O3 1.957813 1_465
Cr12 O38 1.973234 1_565
Cr12 O10 1.976144 1_455
Cr12 O29 2.000215 1_555
O3 Ti2 1.974164 1_655
O7 Ti2 2.027484 1_655
O11 Ti2 1.964406 1_655
O12 Ti1 1.976755 1_555
O15 Ti0 1.974386 1_565
O17 Ti1 1.974995 1_555
O20 Ti0 2.031840 1_555
O23 Ti1 1.942614 1_555
O26 Ti0 1.965394 1_555
O30 Ti2 1.975572 1_555
O33 Ti1 1.965173 1_555
O35 Ti2 1.971623 1_555
O36 Ti1 2.027907 1_555
O38 Ti2 1.939584 1_555
O40 Ti1 1.964487 1_555
O43 Ti0 1.976980 1_455
O46 Ti0 1.968750 1_455
O47 Ti0 1.935916 1_465
