# generated using pymatgen
data_Cr(SO4)2
_symmetry_space_group_name_H-M   'P 1'
_cell_length_a   8.89670361
_cell_length_b   8.89670361
_cell_length_c   8.89670375
_cell_angle_alpha   56.00400447
_cell_angle_beta   56.00400447
_cell_angle_gamma   56.00400657
_symmetry_Int_Tables_number   1
_chemical_formula_structural   Cr(SO4)2
_chemical_formula_sum   'Cr3 S6 O24'
_cell_volume   451.83897906
_cell_formula_units_Z   3
loop_
 _symmetry_equiv_pos_site_id
 _symmetry_equiv_pos_as_xyz
  1  'x, y, z'
loop_
 _atom_site_type_symbol
 _atom_site_label
 _atom_site_symmetry_multiplicity
 _atom_site_fract_x
 _atom_site_fract_y
 _atom_site_fract_z
 _atom_site_occupancy
  Cr  Cr0  1  0.35552900  0.35552900  0.35552900  1
  Cr  Cr1  1  0.64507600  0.64507600  0.64507600  1
  Cr  Cr2  1  0.84980900  0.84980900  0.84980900  1
  S  S0  1  0.46880400  0.74552500  0.03777500  1
  S  S1  1  0.74552500  0.03777500  0.46880400  1
  S  S2  1  0.03777500  0.46880400  0.74552500  1
  S  S3  1  0.95973700  0.53589600  0.25362800  1
  S  S4  1  0.25362800  0.95973700  0.53589600  1
  S  S5  1  0.53589600  0.25362800  0.95973700  1
  O  O0  1  0.51640000  0.29584400  0.11084600  1
  O  O1  1  0.11084600  0.51640000  0.29584400  1
  O  O2  1  0.33777500  0.94527600  0.00137200  1
  O  O3  1  0.29584400  0.11084600  0.51640000  1
  O  O4  1  0.66080400  0.71356800  0.02239500  1
  O  O5  1  0.39054800  0.60951800  0.23222600  1
  O  O6  1  0.60951800  0.23222600  0.39054800  1
  O  O7  1  0.94527600  0.00137200  0.33777500  1
  O  O8  1  0.23222600  0.39054800  0.60951800  1
  O  O9  1  0.97844600  0.67825900  0.05161300  1
  O  O10  1  0.96754200  0.35182400  0.28680200  1
  O  O11  1  0.28680200  0.96754200  0.35182400  1
  O  O12  1  0.71356800  0.02239500  0.66080400  1
  O  O13  1  0.02239500  0.66080400  0.71356800  1
  O  O14  1  0.00137200  0.33777500  0.94527600  1
  O  O15  1  0.76179700  0.62592600  0.38705000  1
  O  O16  1  0.05161300  0.97844600  0.67825900  1
  O  O17  1  0.38705000  0.76179700  0.62592600  1
  O  O18  1  0.62592600  0.38705000  0.76179700  1
  O  O19  1  0.35182400  0.28680200  0.96754200  1
  O  O20  1  0.68072100  0.89307400  0.50095400  1
  O  O21  1  0.67825900  0.05161300  0.97844600  1
  O  O22  1  0.89307400  0.50095400  0.68072100  1
  O  O23  1  0.50095400  0.68072100  0.89307400  1
loop_
_geom_bond_atom_site_label_1
_geom_bond_atom_site_label_2
_geom_bond_distance
_geom_bond_site_symmetry_2
Cr0 O3 2.006945 1_555
Cr0 O0 2.006945 1_555
Cr0 O1 2.006945 1_555
Cr0 O5 2.009879 1_555
Cr0 O8 2.009879 1_555
Cr0 O6 2.009879 1_555
Cr1 O20 1.943398 1_555
Cr1 O23 1.943398 1_555
Cr1 O22 1.943398 1_555
Cr1 O18 1.987671 1_555
Cr1 O15 1.987671 1_555
Cr1 O17 1.987671 1_555
Cr2 O4 1.991240 1_556
Cr2 O12 1.991240 1_565
Cr2 O13 1.991240 1_655
Cr2 O16 2.035380 1_655
Cr2 O9 2.035380 1_556
Cr2 O21 2.035380 1_565
O0 S5 1.486444 1_554
O1 S3 1.486444 1_455
O2 S0 1.443571 1_555
O3 S4 1.486444 1_545
O4 S0 1.502142 1_555
O5 S0 1.481883 1_555
O6 S1 1.481883 1_555
O7 S1 1.443571 1_555
O8 S2 1.481883 1_555
O9 S3 1.489194 1_555
O10 S3 1.459121 1_555
O11 S4 1.459121 1_555
O12 S1 1.502142 1_555
O13 S2 1.502142 1_555
O14 S2 1.443571 1_555
O15 S3 1.516582 1_555
O16 S4 1.489194 1_555
O17 S4 1.516582 1_555
O18 S5 1.516582 1_555
O19 S5 1.459121 1_555
O20 S1 1.518331 1_565
O21 S5 1.489194 1_555
O22 S2 1.518331 1_655
O23 S0 1.518331 1_556
