# generated using pymatgen
data_LiVF5
_symmetry_space_group_name_H-M   'P 1'
_cell_length_a   9.43386470
_cell_length_b   5.10531198
_cell_length_c   7.44142460
_cell_angle_alpha   74.11745986
_cell_angle_beta   90.00000000
_cell_angle_gamma   90.00000000
_symmetry_Int_Tables_number   1
_chemical_formula_structural   LiVF5
_chemical_formula_sum   'Li4 V4 F20'
_cell_volume   344.71800135
_cell_formula_units_Z   4
loop_
 _symmetry_equiv_pos_site_id
 _symmetry_equiv_pos_as_xyz
  1  'x, y, z'
loop_
 _atom_site_type_symbol
 _atom_site_label
 _atom_site_symmetry_multiplicity
 _atom_site_fract_x
 _atom_site_fract_y
 _atom_site_fract_z
 _atom_site_occupancy
  Li  Li0  1  0.48526535  0.51470435  0.68438675  1
  Li  Li1  1  0.98526535  0.48529565  0.81561325  1
  Li  Li2  1  0.01473465  0.51470435  0.18438675  1
  Li  Li3  1  0.51473465  0.48529565  0.31561325  1
  V  V0  1  0.74694417  0.06993146  0.13821823  1
  V  V1  1  0.24694417  0.93006854  0.36178177  1
  V  V2  1  0.75305583  0.06993146  0.63821823  1
  V  V3  1  0.25305583  0.93006854  0.86178177  1
  F  F0  1  0.62457934  0.80737484  0.65561812  1
  F  F1  1  0.62413146  0.33725409  0.13715474  1
  F  F2  1  0.88572431  0.33582629  0.04227359  1
  F  F3  1  0.10903259  0.18269277  0.27274902  1
  F  F4  1  0.80202467  0.07484562  0.38873550  1
  F  F5  1  0.87586854  0.33725409  0.63715474  1
  F  F6  1  0.12457934  0.19262516  0.84438188  1
  F  F7  1  0.61427569  0.33582629  0.54227359  1
  F  F8  1  0.39096741  0.18269277  0.77274902  1
  F  F9  1  0.69797533  0.07484562  0.88873550  1
  F  F10  1  0.30202467  0.92515438  0.11126450  1
  F  F11  1  0.60903259  0.81730723  0.22725098  1
  F  F12  1  0.38572431  0.66417371  0.45772641  1
  F  F13  1  0.87542066  0.80737484  0.15561812  1
  F  F14  1  0.12413146  0.66274591  0.36284526  1
  F  F15  1  0.19797533  0.92515438  0.61126450  1
  F  F16  1  0.89096741  0.81730723  0.72725098  1
  F  F17  1  0.11427569  0.66417371  0.95772641  1
  F  F18  1  0.37586854  0.66274591  0.86284526  1
  F  F19  1  0.37542066  0.19262516  0.34438188  1
loop_
_geom_bond_atom_site_label_1
_geom_bond_atom_site_label_2
_geom_bond_distance
_geom_bond_site_symmetry_2
F0 V2 1.785371 1_565
F0 Li0 1.957195 1_555
F1 V0 1.788599 1_555
F1 Li3 1.987265 1_555
F2 V0 1.880455 1_555
F2 Li1 1.898564 1_554
F2 Li2 1.990524 1_655
F3 V1 1.824104 1_545
F3 Li2 1.867301 1_555
F4 V2 1.906611 1_555
F4 V0 1.942034 1_555
F5 V2 1.788599 1_555
F5 Li1 1.987265 1_555
F6 V3 1.785371 1_545
F6 Li1 1.957195 1_455
F7 V2 1.880455 1_555
F7 Li3 1.898564 1_555
F7 Li0 1.990524 1_555
F8 V3 1.824104 1_545
F8 Li0 1.867301 1_555
F9 V0 1.906611 1_556
F9 V2 1.942034 1_555
F10 V3 1.906611 1_554
F10 V1 1.942034 1_555
F11 V0 1.824104 1_565
F11 Li3 1.867301 1_555
F12 V1 1.880455 1_555
F12 Li0 1.898564 1_555
F12 Li3 1.990524 1_555
F13 V0 1.785371 1_565
F13 Li2 1.957195 1_655
F14 V1 1.788599 1_555
F14 Li2 1.987265 1_555
F15 V1 1.906611 1_555
F15 V3 1.942034 1_555
F16 V2 1.824104 1_565
F16 Li1 1.867301 1_555
F17 V3 1.880455 1_555
F17 Li2 1.898564 1_556
F17 Li1 1.990524 1_455
F18 V3 1.788599 1_555
F18 Li0 1.987265 1_555
F19 V1 1.785371 1_545
F19 Li3 1.957195 1_555
