# generated using pymatgen
data_KCoO2
_symmetry_space_group_name_H-M   'P 1'
_cell_length_a   6.51671266
_cell_length_b   6.92872000
_cell_length_c   6.51205221
_cell_angle_alpha   66.88609718
_cell_angle_beta   75.26874199
_cell_angle_gamma   76.41286571
_symmetry_Int_Tables_number   1
_chemical_formula_structural   KCoO2
_chemical_formula_sum   'K4 Co4 O8'
_cell_volume   258.50825632
_cell_formula_units_Z   4
loop_
 _symmetry_equiv_pos_site_id
 _symmetry_equiv_pos_as_xyz
  1  'x, y, z'
loop_
 _atom_site_type_symbol
 _atom_site_label
 _atom_site_symmetry_multiplicity
 _atom_site_fract_x
 _atom_site_fract_y
 _atom_site_fract_z
 _atom_site_occupancy
  K  K0  1  0.40571600  0.73038000  0.65173300  1
  K  K1  1  0.90572800  0.73048800  0.65148000  1
  K  K2  1  0.09428200  0.26962100  0.34827300  1
  K  K3  1  0.59427600  0.26952000  0.34851300  1
  Co  Co0  1  0.97645700  0.20472700  0.89198200  1
  Co  Co1  1  0.52354200  0.79527300  0.10802000  1
  Co  Co2  1  0.47642600  0.20480200  0.89209200  1
  Co  Co3  1  0.02357400  0.79519600  0.10790700  1
  O  O0  1  0.44035700  0.03179400  0.20529500  1
  O  O1  1  0.94033600  0.03178300  0.20523700  1
  O  O2  1  0.05964000  0.96820700  0.79470700  1
  O  O3  1  0.55966500  0.96821400  0.79476700  1
  O  O4  1  0.28987700  0.65396600  0.18284000  1
  O  O5  1  0.78983600  0.65393200  0.18283000  1
  O  O6  1  0.21012200  0.34603200  0.81716200  1
  O  O7  1  0.71016700  0.34606500  0.81716100  1
loop_
_geom_bond_atom_site_label_1
_geom_bond_atom_site_label_2
_geom_bond_distance
_geom_bond_site_symmetry_2
K0 O3 2.654564 1_555
K0 O2 2.656889 1_555
K0 O0 2.825825 1_565
K0 O6 2.919095 1_555
K0 O7 2.922326 1_555
K0 O4 3.199120 1_556
K1 O2 2.654609 1_655
K1 O3 2.657217 1_555
K1 O1 2.824623 1_565
K1 O7 2.919264 1_555
K1 O6 2.923015 1_655
K1 O5 3.200433 1_556
K2 O1 2.654584 1_455
K2 O0 2.656895 1_555
K2 O2 2.825806 1_545
K2 O4 2.919078 1_555
K2 O5 2.922308 1_455
K2 O6 3.199149 1_554
K3 O0 2.654637 1_555
K3 O1 2.657221 1_555
K3 O3 2.824701 1_545
K3 O5 2.919193 1_555
K3 O4 2.922980 1_555
K3 O7 3.200461 1_554
Co0 O6 1.860990 1_655
Co0 O7 1.861379 1_555
Co0 O2 1.898350 1_645
Co0 O1 1.903096 1_556
Co1 O4 1.860998 1_555
Co1 O5 1.861385 1_555
Co1 O0 1.898357 1_565
Co1 O3 1.903081 1_554
Co2 O7 1.861134 1_555
Co2 O6 1.861514 1_555
Co2 O3 1.898982 1_545
Co2 O0 1.902933 1_556
Co3 O5 1.861129 1_455
Co3 O4 1.861514 1_555
Co3 O1 1.898995 1_465
Co3 O2 1.902923 1_554
