# generated using pymatgen
data_Li4V3CrO8
_symmetry_space_group_name_H-M   'P 1'
_cell_length_a   5.17703722
_cell_length_b   5.98331107
_cell_length_c   10.78264825
_cell_angle_alpha   106.02238287
_cell_angle_beta   85.40813637
_cell_angle_gamma   73.14908961
_symmetry_Int_Tables_number   1
_chemical_formula_structural   Li4V3CrO8
_chemical_formula_sum   'Li8 V6 Cr2 O16'
_cell_volume   302.55532231
_cell_formula_units_Z   2
loop_
 _symmetry_equiv_pos_site_id
 _symmetry_equiv_pos_as_xyz
  1  'x, y, z'
loop_
 _atom_site_type_symbol
 _atom_site_label
 _atom_site_symmetry_multiplicity
 _atom_site_fract_x
 _atom_site_fract_y
 _atom_site_fract_z
 _atom_site_occupancy
  Li  Li0  1  0.00227200  0.12268100  0.74869900  1
  Li  Li1  1  0.00012900  0.00037000  0.00187100  1
  Li  Li2  1  0.99832100  0.25278800  0.50089000  1
  Li  Li3  1  0.00170300  0.37222600  0.24889200  1
  Li  Li4  1  0.99935600  0.62514800  0.74824200  1
  Li  Li5  1  0.99780300  0.50205100  0.00155500  1
  Li  Li6  1  0.00066300  0.74777700  0.50144900  1
  Li  Li7  1  0.99970900  0.87695900  0.24842000  1
  V  V0  1  0.49867500  0.06282800  0.87491200  1
  V  V1  1  0.50029900  0.18677600  0.62474800  1
  V  V2  1  0.50007900  0.31244900  0.37499600  1
  V  V3  1  0.50126300  0.56219600  0.87509800  1
  V  V4  1  0.49970200  0.43825400  0.12526300  1
  V  V5  1  0.50004700  0.81244900  0.37498600  1
  Cr  Cr0  1  0.50102000  0.68545200  0.62488300  1
  Cr  Cr1  1  0.49908700  0.93953900  0.12513000  1
  O  O0  1  0.27187800  0.09132300  0.30893500  1
  O  O1  1  0.72799400  0.03690800  0.43906300  1
  O  O2  1  0.27065200  0.33857500  0.81006200  1
  O  O3  1  0.72935700  0.28629600  0.93997500  1
  O  O4  1  0.72714700  0.16183000  0.18681700  1
  O  O5  1  0.27031400  0.21022000  0.06063900  1
  O  O6  1  0.27291200  0.46312600  0.56318400  1
  O  O7  1  0.72954300  0.41500000  0.68946900  1
  O  O8  1  0.27208900  0.58801300  0.31093500  1
  O  O9  1  0.72812700  0.53363000  0.44105000  1
  O  O10  1  0.27411300  0.83662000  0.80955700  1
  O  O11  1  0.72571600  0.78852900  0.94040900  1
  O  O12  1  0.27325200  0.71387600  0.06243200  1
  O  O13  1  0.27262500  0.95565500  0.55919500  1
  O  O14  1  0.72740400  0.66929100  0.19073800  1
  O  O15  1  0.72674500  0.91116100  0.68750800  1
loop_
_geom_bond_atom_site_label_1
_geom_bond_atom_site_label_2
_geom_bond_distance
_geom_bond_site_symmetry_2
Li0 O10 2.170737 1_545
Li0 O13 2.176433 1_545
Li0 O2 2.180100 1_555
Li0 O7 2.188567 1_455
Li0 O15 2.192730 1_445
Li0 O3 2.196658 1_455
Li1 O4 2.145018 1_455
Li1 O5 2.157667 1_555
Li1 O12 2.173632 1_545
Li1 O3 2.174157 1_454
Li1 O11 2.189757 1_444
Li1 O10 2.207646 1_544
Li2 O9 2.139370 1_555
Li2 O7 2.165037 1_555
Li2 O6 2.186177 1_655
Li2 O1 2.189409 1_555
Li2 O0 2.203770 1_655
Li2 O13 2.206538 1_645
Li3 O0 2.140823 1_555
Li3 O5 2.161970 1_555
Li3 O4 2.185789 1_455
Li3 O8 2.189730 1_555
Li3 O14 2.205334 1_455
Li3 O9 2.205495 1_455
Li4 O6 2.147286 1_655
Li4 O7 2.157287 1_555
Li4 O15 2.171550 1_555
Li4 O2 2.177533 1_655
Li4 O10 2.189438 1_655
Li4 O11 2.205656 1_555
Li5 O14 2.173924 1_555
Li5 O11 2.174786 1_554
Li5 O3 2.180257 1_554
Li5 O5 2.185164 1_655
Li5 O12 2.192984 1_655
Li5 O2 2.198298 1_654
Li6 O13 2.155277 1_555
Li6 O15 2.156294 1_455
Li6 O6 2.171343 1_555
Li6 O8 2.187072 1_555
Li6 O9 2.188883 1_455
Li6 O1 2.194669 1_465
Li7 O12 2.154831 1_655
Li7 O14 2.155787 1_555
Li7 O4 2.172144 1_565
Li7 O0 2.188423 1_665
Li7 O1 2.188790 1_565
Li7 O8 2.194053 1_655
Cr0 O7 2.036490 1_555
Cr0 O9 2.037236 1_555
Cr0 O6 2.038321 1_555
Cr0 O13 2.042412 1_555
Cr0 O10 2.044119 1_555
Cr0 O15 2.045309 1_555
Cr1 O0 2.037187 1_565
Cr1 O5 2.037345 1_565
Cr1 O4 2.037945 1_565
Cr1 O14 2.041926 1_555
Cr1 O11 2.043992 1_554
Cr1 O12 2.045709 1_555
O0 V2 2.043115 1_555
O0 V5 2.082007 1_545
O1 V5 2.052029 1_545
O1 V2 2.053994 1_555
O1 V1 2.054391 1_555
O2 V1 2.054955 1_555
O2 V0 2.060207 1_555
O2 V3 2.061447 1_555
O3 V4 2.054751 1_556
O3 V0 2.061138 1_555
O3 V3 2.061186 1_555
O4 V4 2.040715 1_555
O4 V2 2.075000 1_555
O5 V0 2.056076 1_554
O5 V4 2.074721 1_555
O6 V1 2.040344 1_555
O6 V2 2.075265 1_555
O7 V3 2.055073 1_555
O7 V1 2.075172 1_555
O8 V5 2.051917 1_555
O8 V4 2.054120 1_555
O8 V2 2.054199 1_555
O9 V2 2.042706 1_555
O9 V5 2.081685 1_555
O10 V0 2.048650 1_565
O10 V3 2.057313 1_555
O11 V3 2.048655 1_555
O11 V0 2.056272 1_565
O12 V4 2.043538 1_555
O12 V3 2.069399 1_554
O13 V5 2.041274 1_555
O13 V1 2.083273 1_565
O14 V5 2.041492 1_555
O14 V4 2.082848 1_555
O15 V1 2.043040 1_565
O15 V0 2.070121 1_565
