# generated using pymatgen
data_Li4AlCr3O8
_symmetry_space_group_name_H-M   'P 1'
_cell_length_a   5.11086600
_cell_length_b   7.75934163
_cell_length_c   7.76086502
_cell_angle_alpha   81.85897253
_cell_angle_beta   83.83847630
_cell_angle_gamma   71.00919580
_symmetry_Int_Tables_number   1
_chemical_formula_structural   Li4AlCr3O8
_chemical_formula_sum   'Li8 Al2 Cr6 O16'
_cell_volume   287.47031614
_cell_formula_units_Z   2
loop_
 _symmetry_equiv_pos_site_id
 _symmetry_equiv_pos_as_xyz
  1  'x, y, z'
loop_
 _atom_site_type_symbol
 _atom_site_label
 _atom_site_symmetry_multiplicity
 _atom_site_fract_x
 _atom_site_fract_y
 _atom_site_fract_z
 _atom_site_occupancy
  Li  Li0  1  0.99988200  0.68787700  0.93747300  1
  Li  Li1  1  0.00030800  0.43678700  0.68693000  1
  Li  Li2  1  0.99969200  0.56321300  0.31307000  1
  Li  Li3  1  0.00017800  0.06269800  0.81090100  1
  Li  Li4  1  0.00033600  0.18598700  0.43845900  1
  Li  Li5  1  0.00011800  0.31212300  0.06252700  1
  Li  Li6  1  0.99966400  0.81401300  0.56154100  1
  Li  Li7  1  0.99982200  0.93730200  0.18909900  1
  Al  Al0  1  0.49986100  0.12378400  0.62372500  1
  Al  Al1  1  0.50013900  0.87621600  0.37627500  1
  Cr  Cr0  1  0.49984000  0.37371300  0.87367300  1
  Cr  Cr1  1  0.50000000  0.50000000  0.50000000  1
  Cr  Cr2  1  0.50016000  0.62628700  0.12632700  1
  Cr  Cr3  1  0.49993400  0.24722000  0.25292900  1
  Cr  Cr4  1  0.50006600  0.75278000  0.74707100  1
  Cr  Cr5  1  0.50000000  0.00000000  0.00000000  1
  O  O0  1  0.72680700  0.53684100  0.90637000  1
  O  O1  1  0.27251300  0.58980200  0.71744500  1
  O  O2  1  0.72170300  0.66822800  0.52567600  1
  O  O3  1  0.27838200  0.21003600  0.83414000  1
  O  O4  1  0.72058900  0.27886700  0.65483800  1
  O  O5  1  0.72748700  0.41019800  0.28255500  1
  O  O6  1  0.27829700  0.33177200  0.47432400  1
  O  O7  1  0.72133500  0.91906700  0.77628600  1
  O  O8  1  0.71589800  0.03206900  0.41416200  1
  O  O9  1  0.27319300  0.46315900  0.09363000  1
  O  O10  1  0.28410200  0.96793100  0.58583800  1
  O  O11  1  0.72728100  0.16094400  0.03307800  1
  O  O12  1  0.27866500  0.08093300  0.22371400  1
  O  O13  1  0.72161800  0.78996400  0.16586000  1
  O  O14  1  0.27941100  0.72113300  0.34516200  1
  O  O15  1  0.27271900  0.83905600  0.96692200  1
loop_
_geom_bond_atom_site_label_1
_geom_bond_atom_site_label_2
_geom_bond_distance
_geom_bond_site_symmetry_2
Li0 O15 2.140482 1_655
Li0 O0 2.143945 1_555
Li0 O1 2.145627 1_655
Li0 O9 2.154068 1_656
Li0 O7 2.212285 1_555
Li0 O13 2.216995 1_556
Li1 O6 2.128182 1_555
Li1 O3 2.138343 1_555
Li1 O0 2.148059 1_455
Li1 O1 2.150951 1_555
Li1 O2 2.213701 1_455
Li1 O4 2.215916 1_455
Li2 O2 2.128182 1_555
Li2 O13 2.138343 1_555
Li2 O9 2.148059 1_655
Li2 O5 2.150951 1_555
Li2 O6 2.213701 1_655
Li2 O14 2.215916 1_655
Li3 O3 2.128998 1_555
Li3 O7 2.132116 1_445
Li3 O4 2.135064 1_455
Li3 O15 2.147442 1_545
Li3 O11 2.159546 1_456
Li3 O10 2.196022 1_545
Li4 O10 2.117852 1_545
Li4 O4 2.130805 1_455
Li4 O12 2.141667 1_555
Li4 O6 2.143639 1_555
Li4 O5 2.149959 1_455
Li4 O8 2.197231 1_455
Li5 O11 2.140482 1_455
Li5 O9 2.143945 1_555
Li5 O5 2.145627 1_455
Li5 O0 2.154068 1_454
Li5 O12 2.212285 1_555
Li5 O3 2.216995 1_554
Li6 O8 2.117852 1_565
Li6 O14 2.130805 1_655
Li6 O7 2.141667 1_555
Li6 O2 2.143639 1_555
Li6 O1 2.149959 1_655
Li6 O10 2.197231 1_655
Li7 O13 2.128998 1_555
Li7 O12 2.132116 1_665
Li7 O14 2.135064 1_655
Li7 O11 2.147442 1_565
Li7 O15 2.159546 1_654
Li7 O8 2.196022 1_565
Al0 O7 1.947091 1_545
Al0 O6 1.947738 1_555
Al0 O8 1.949777 1_555
Al0 O10 1.950154 1_545
Al0 O4 1.950191 1_555
Al0 O3 1.953355 1_555
Al1 O12 1.947091 1_565
Al1 O2 1.947738 1_555
Al1 O10 1.949777 1_555
Al1 O8 1.950154 1_565
Al1 O14 1.950191 1_555
Al1 O13 1.953355 1_555
Cr0 O11 2.022016 1_556
Cr0 O1 2.022386 1_555
Cr0 O4 2.025133 1_555
Cr0 O3 2.026973 1_555
Cr0 O0 2.030250 1_555
Cr0 O9 2.031103 1_556
Cr1 O1 2.017364 1_555
Cr1 O5 2.017364 1_555
Cr1 O14 2.026583 1_555
Cr1 O4 2.026583 1_555
Cr1 O6 2.027877 1_555
Cr1 O2 2.027877 1_555
Cr2 O15 2.022016 1_554
Cr2 O5 2.022386 1_555
Cr2 O14 2.025133 1_555
Cr2 O13 2.026973 1_555
Cr2 O9 2.030250 1_555
Cr2 O0 2.031103 1_554
Cr3 O8 2.019070 1_555
Cr3 O12 2.020560 1_555
Cr3 O6 2.020796 1_555
Cr3 O11 2.025133 1_555
Cr3 O5 2.025236 1_555
Cr3 O9 2.033701 1_555
Cr4 O10 2.019070 1_555
Cr4 O7 2.020560 1_555
Cr4 O2 2.020796 1_555
Cr4 O15 2.025133 1_555
Cr4 O1 2.025236 1_555
Cr4 O0 2.033701 1_555
Cr5 O11 2.018341 1_555
Cr5 O15 2.018341 1_544
Cr5 O7 2.028128 1_544
Cr5 O12 2.028128 1_555
Cr5 O3 2.028134 1_554
Cr5 O13 2.028134 1_545
