# generated using pymatgen
data_Y(BO2)3
_symmetry_space_group_name_H-M   'P 1'
_cell_length_a   6.27302609
_cell_length_b   6.27302609
_cell_length_c   6.14088464
_cell_angle_alpha   63.06247359
_cell_angle_beta   63.06247359
_cell_angle_gamma   79.77165736
_symmetry_Int_Tables_number   1
_chemical_formula_structural   Y(BO2)3
_chemical_formula_sum   'Y2 B6 O12'
_cell_volume   191.94011291
_cell_formula_units_Z   2
loop_
 _symmetry_equiv_pos_site_id
 _symmetry_equiv_pos_as_xyz
  1  'x, y, z'
loop_
 _atom_site_type_symbol
 _atom_site_label
 _atom_site_symmetry_multiplicity
 _atom_site_fract_x
 _atom_site_fract_y
 _atom_site_fract_z
 _atom_site_occupancy
  Y  Y0  1  0.70811504  0.29188496  0.25000000  1
  Y  Y1  1  0.29188496  0.70811504  0.75000000  1
  B  B0  1  0.27679651  0.72320349  0.25000000  1
  B  B1  1  0.16458655  0.29078806  0.40567224  1
  B  B2  1  0.29078806  0.16458655  0.90567224  1
  B  B3  1  0.70921194  0.83541345  0.09432776  1
  B  B4  1  0.83541345  0.70921194  0.59432776  1
  B  B5  1  0.72320349  0.27679651  0.75000000  1
  O  O0  1  0.08187740  0.71699738  0.49797753  1
  O  O1  1  0.48914831  0.71709885  0.29768527  1
  O  O2  1  0.29979357  0.11167866  0.48661076  1
  O  O3  1  0.11167866  0.29979357  0.98661076  1
  O  O4  1  0.28290115  0.51085169  0.20231473  1
  O  O5  1  0.28300262  0.91812260  0.00202247  1
  O  O6  1  0.71699738  0.08187740  0.99797753  1
  O  O7  1  0.71709885  0.48914831  0.79768527  1
  O  O8  1  0.88832134  0.70020643  0.01338924  1
  O  O9  1  0.70020643  0.88832134  0.51338924  1
  O  O10  1  0.51085169  0.28290115  0.70231473  1
  O  O11  1  0.91812260  0.28300262  0.50202247  1
loop_
_geom_bond_atom_site_label_1
_geom_bond_atom_site_label_2
_geom_bond_distance
_geom_bond_site_symmetry_2
B0 O5 1.446266 1_555
B0 O0 1.446266 1_555
B0 O1 1.478790 1_555
B0 O4 1.478790 1_555
B1 O2 1.329037 1_555
B1 O11 1.383701 1_455
B1 O4 1.406484 1_555
B2 O3 1.329037 1_555
B2 O5 1.383701 1_546
B2 O10 1.406484 1_555
B3 O8 1.329037 1_555
B3 O6 1.383701 1_564
B3 O1 1.406484 1_555
B4 O9 1.329037 1_555
B4 O0 1.383701 1_655
B4 O7 1.406484 1_555
B5 O11 1.446266 1_555
B5 O6 1.446266 1_555
B5 O10 1.478790 1_555
B5 O7 1.478790 1_555
O0 Y1 2.424223 1_555
O1 Y1 2.453230 1_555
O1 Y0 2.851219 1_555
O2 Y1 2.299867 1_545
O2 Y0 2.473466 1_555
O3 Y0 2.299867 1_456
O3 Y1 2.473466 1_555
O4 Y1 2.453230 1_554
O4 Y0 2.851219 1_555
O5 Y1 2.424223 1_554
O6 Y0 2.424223 1_556
O7 Y0 2.453230 1_556
O7 Y1 2.851219 1_555
O8 Y1 2.299867 1_654
O8 Y0 2.473466 1_555
O9 Y0 2.299867 1_565
O9 Y1 2.473466 1_555
O10 Y0 2.453230 1_555
O10 Y1 2.851219 1_555
O11 Y0 2.424223 1_555
