# generated using pymatgen
data_Li7V3P8O29
_symmetry_space_group_name_H-M   'P 1'
_cell_length_a   9.83233395
_cell_length_b   9.84751338
_cell_length_c   13.89786372
_cell_angle_alpha   90.71932309
_cell_angle_beta   90.74519477
_cell_angle_gamma   60.29706260
_symmetry_Int_Tables_number   1
_chemical_formula_structural   Li7V3P8O29
_chemical_formula_sum   'Li14 V6 P16 O58'
_cell_volume   1168.70970603
_cell_formula_units_Z   2
loop_
 _symmetry_equiv_pos_site_id
 _symmetry_equiv_pos_as_xyz
  1  'x, y, z'
loop_
 _atom_site_type_symbol
 _atom_site_label
 _atom_site_symmetry_multiplicity
 _atom_site_fract_x
 _atom_site_fract_y
 _atom_site_fract_z
 _atom_site_occupancy
  Li  Li0  1  0.90571640  0.32590762  0.56538361  1
  Li  Li1  1  0.66647603  0.68079345  0.38508963  1
  Li  Li2  1  0.67522414  0.67041847  0.88519072  1
  Li  Li3  1  0.76598715  0.32183257  0.06262084  1
  Li  Li4  1  0.32563010  0.90863680  0.06475937  1
  Li  Li5  1  0.67120432  0.23612381  0.43959894  1
  Li  Li6  1  0.32864229  0.76440406  0.56428282  1
  Li  Li7  1  0.65656698  0.10334808  0.93581991  1
  Li  Li8  1  0.23476769  0.66569309  0.93645131  1
  Li  Li9  1  0.33066162  0.32890833  0.61479615  1
  Li  Li10  1  0.09348741  0.67396350  0.43592659  1
  Li  Li11  1  0.10251581  0.23262917  0.93919421  1
  Li  Li12  1  0.97863151  0.96258168  0.00263770  1
  Li  Li13  1  0.99858785  0.99467538  0.50770620  1
  V  V0  1  0.56334595  0.43518453  0.24768006  1
  V  V1  1  0.43413134  0.56525284  0.75181002  1
  V  V2  1  0.56723434  0.99662126  0.74474903  1
  V  V3  1  0.43537696  0.00531853  0.25382207  1
  V  V4  1  0.99742477  0.56524217  0.24661898  1
  V  V5  1  0.00227677  0.43583570  0.75092893  1
  P  P0  1  0.91251991  0.78079351  0.83823208  1
  P  P1  1  0.78308756  0.91531259  0.33901044  1
  P  P2  1  0.90792531  0.31741586  0.34541022  1
  P  P3  1  0.66392215  0.66640502  0.12849396  1
  P  P4  1  0.66428176  0.66488568  0.62585041  1
  P  P5  1  0.77277182  0.31986197  0.84433580  1
  P  P6  1  0.68075544  0.22577820  0.65749386  1
  P  P7  1  0.31867126  0.91277647  0.84765362  1
  P  P8  1  0.68708829  0.08362454  0.15235937  1
  P  P9  1  0.31934739  0.77616190  0.34298746  1
  P  P10  1  0.22470662  0.68747687  0.15825871  1
  P  P11  1  0.33131424  0.33736055  0.37174914  1
  P  P12  1  0.33910279  0.32718317  0.87387592  1
  P  P13  1  0.08941118  0.68382146  0.65084858  1
  P  P14  1  0.22109808  0.08436916  0.65845172  1
  P  P15  1  0.08533152  0.22543238  0.16045049  1
  O  O0  1  0.01201246  0.76670511  0.55868443  1
  O  O1  1  0.92227767  0.74690263  0.34063298  1
  O  O2  1  0.76995258  0.01394401  0.05973598  1
  O  O3  1  0.74616887  0.92420900  0.84092967  1
  O  O4  1  0.89837770  0.63117336  0.83563648  1
  O  O5  1  0.81173159  0.66558579  0.17542725  1
  O  O6  1  0.89532146  0.47963821  0.33284780  1
  O  O7  1  0.99669046  0.22549582  0.07085982  1
  O  O8  1  0.92296570  0.33094915  0.84667141  1
  O  O9  1  0.66211501  0.81254672  0.67462828  1
  O  O10  1  0.63080520  0.90217903  0.33084166  1
  O  O11  1  0.81228750  0.51705813  0.66311477  1
  O  O12  1  0.66404963  0.66897249  0.02115590  1
  O  O13  1  0.66304223  0.67309383  0.51769196  1
  O  O14  1  0.67260237  0.51105248  0.16385417  1
  O  O15  1  0.48272344  0.89513467  0.83330743  1
  O  O16  1  0.51418353  0.81152090  0.17015486  1
  O  O17  1  0.73766361  0.34290428  0.33795945  1
  O  O18  1  0.78563474  0.21608384  0.75036781  1
  O  O19  1  0.77060419  0.22787908  0.56945992  1
  O  O20  1  0.76271000  0.23364050  0.93163282  1
  O  O21  1  0.63133888  0.48474460  0.83265938  1
  O  O22  1  0.51448252  0.66779069  0.66182800  1
  O  O23  1  0.66186442  0.25232300  0.16237846  1
  O  O24  1  0.48162406  0.62761564  0.32868603  1
  O  O25  1  0.34509814  0.91700713  0.34167095  1
  O  O26  1  0.80220193  0.98684694  0.23939073  1
  O  O27  1  0.78934880  0.01381254  0.41968906  1
  O  O28  1  0.21120599  0.98653582  0.57787554  1
  O  O29  1  0.66398800  0.07992144  0.65837252  1
  O  O30  1  0.51722640  0.37153672  0.66669147  1
  O  O31  1  0.33278274  0.75069488  0.84722508  1
  O  O32  1  0.48036753  0.33696635  0.33421517  1
  O  O33  1  0.38306951  0.53331806  0.17194110  1
  O  O34  1  0.22312660  0.77453878  0.06889999  1
  O  O35  1  0.23360409  0.76963043  0.43042597  1
  O  O36  1  0.21014825  0.79402189  0.25045230  1
  O  O37  1  0.25153624  0.67014633  0.66064979  1
  O  O38  1  0.48490428  0.18148098  0.82377615  1
  O  O39  1  0.53357871  0.08127239  0.16667143  1
  O  O40  1  0.33356484  0.47941877  0.83884701  1
  O  O41  1  0.35711819  0.30920377  0.98089210  1
  O  O42  1  0.33288358  0.33659928  0.47912177  1
  O  O43  1  0.18047410  0.48561928  0.33278467  1
  O  O44  1  0.37287438  0.09699337  0.66409803  1
  O  O45  1  0.33334035  0.18955067  0.32515490  1
  O  O46  1  0.08893560  0.65536650  0.16085546  1
  O  O47  1  0.98553726  0.79346311  0.73839771  1
  O  O48  1  0.01199450  0.78965001  0.91880407  1
  O  O49  1  0.10905403  0.51939877  0.66415753  1
  O  O50  1  0.19019872  0.32495661  0.83590513  1
  O  O51  1  0.09336710  0.37690545  0.17220274  1
  O  O52  1  0.24979058  0.07991863  0.16282286  1
  O  O53  1  0.23763543  0.00263706  0.93842493  1
  O  O54  1  0.20901237  0.00893922  0.75879864  1
  O  O55  1  0.07961937  0.25073381  0.65733705  1
  O  O56  1  0.98312489  0.23329467  0.43628818  1
  O  O57  1  0.99635993  0.20980901  0.25342440  1
loop_
_geom_bond_atom_site_label_1
_geom_bond_atom_site_label_2
_geom_bond_distance
_geom_bond_site_symmetry_2
Li0 O55 1.953808 1_655
Li0 O56 1.984077 1_555
Li0 O19 1.993522 1_555
Li0 O11 2.118166 1_555
Li1 O13 1.846833 1_555
Li1 O10 2.172762 1_555
Li1 O24 2.255653 1_555
Li1 O6 2.259034 1_555
Li2 O12 1.894884 1_556
Li2 O4 2.151771 1_555
Li2 O21 2.191457 1_555
Li2 O15 2.202974 1_555
Li3 O7 1.980382 1_555
Li3 O20 2.013913 1_554
Li3 O23 2.047927 1_555
Li3 O14 2.137015 1_555
Li4 O53 1.973777 1_564
Li4 O52 1.995171 1_565
Li4 O34 2.021192 1_555
Li4 O16 2.169025 1_555
Li5 O27 1.921346 1_555
Li5 O19 2.024401 1_555
Li5 O17 2.066470 1_555
Li5 O32 2.184138 1_555
Li6 O28 1.909477 1_555
Li6 O37 1.996256 1_555
Li6 O35 2.060624 1_555
Li6 O22 2.080136 1_555
Li7 O2 1.999825 1_556
Li7 O3 2.014675 1_545
Li7 O20 2.017237 1_555
Li7 O38 2.130807 1_555
Li8 O48 1.921409 1_555
Li8 O31 2.005922 1_555
Li8 O40 2.086728 1_555
Li8 O34 2.093972 1_556
Li9 O42 1.888898 1_555
Li9 O49 2.166366 1_555
Li9 O30 2.186869 1_555
Li9 O44 2.224851 1_555
Li10 O0 1.912561 1_555
Li10 O1 1.967570 1_455
Li10 O35 2.020422 1_555
Li10 O43 2.149274 1_555
Li11 O53 1.978019 1_555
Li11 O8 1.996453 1_455
Li11 O50 2.114783 1_555
Li11 O7 2.135699 1_456
Li12 O48 1.942069 1_654
Li12 O2 2.024660 1_565
Li12 O34 2.372720 1_655
Li13 O28 2.260674 1_655
Li13 O0 2.302820 1_655
Li13 O27 2.306617 1_565
Li13 O19 2.436033 1_565
Li13 O56 2.496091 1_565
Li13 O35 2.516802 1_655
O0 P13 1.507092 1_555
O1 P1 1.541015 1_555
O1 V4 2.027273 1_555
O2 P8 1.497592 1_555
O3 P0 1.543465 1_555
O3 V2 2.027325 1_555
O4 P0 1.546956 1_555
O4 V5 2.038810 1_655
O5 P3 1.581612 1_555
O5 V4 1.865083 1_555
O6 P2 1.551791 1_555
O6 V4 2.012450 1_555
O7 P15 1.510355 1_655
O8 P5 1.533699 1_555
O8 V5 2.074891 1_655
O9 P4 1.587239 1_555
O9 V2 1.846418 1_555
O10 P1 1.567997 1_555
O10 V3 1.977196 1_565
O11 P4 1.550819 1_555
O11 V5 2.025653 1_655
O12 P3 1.492329 1_555
O13 P4 1.505923 1_555
O14 P3 1.574033 1_555
O14 V0 1.979690 1_555
O15 P7 1.549692 1_555
O15 V2 2.021013 1_555
O16 P3 1.568873 1_555
O16 V3 2.024066 1_565
O17 P2 1.567153 1_555
O17 V0 1.940836 1_555
O18 P5 1.615118 1_555
O18 P6 1.615380 1_555
O19 P6 1.524677 1_555
O20 P5 1.521476 1_555
O21 P5 1.536108 1_555
O21 V1 2.023145 1_555
O22 P4 1.548301 1_555
O22 V1 2.013853 1_555
O23 P8 1.558034 1_555
O23 V0 1.958068 1_555
O24 P9 1.553405 1_555
O24 V0 1.991233 1_555
O25 P9 1.528695 1_555
O25 V3 1.963336 1_565
O26 P8 1.605204 1_565
O26 P1 1.615813 1_555
O27 P1 1.493971 1_545
O28 P14 1.501533 1_565
O29 P6 1.524966 1_555
O29 V2 1.961312 1_545
O30 P6 1.541256 1_555
O30 V1 2.032211 1_555
O31 P7 1.532038 1_555
O31 V1 2.063115 1_555
O32 P11 1.560171 1_555
O32 V0 1.970851 1_555
O33 P10 1.556359 1_555
O33 V0 1.860977 1_555
O34 P10 1.513478 1_555
O35 P9 1.507966 1_555
O36 P10 1.607860 1_555
O36 P9 1.618720 1_555
O37 P13 1.536170 1_555
O37 V1 2.007788 1_555
O38 P12 1.600336 1_555
O38 V2 1.920421 1_545
O39 P8 1.536500 1_555
O39 V3 1.930704 1_555
O40 P12 1.556962 1_555
O40 V1 2.010084 1_555
O41 P12 1.497816 1_555
O42 P11 1.492204 1_555
O43 P11 1.574016 1_555
O43 V4 1.963959 1_455
O44 P14 1.558582 1_555
O44 V2 1.996374 1_545
O45 P11 1.576807 1_555
O45 V3 1.859493 1_555
O46 P10 1.517641 1_555
O46 V4 1.965642 1_455
O47 P0 1.604720 1_555
O47 P13 1.611166 1_655
O48 P0 1.507223 1_455
O49 P13 1.545918 1_555
O49 V5 2.036581 1_555
O50 P12 1.560097 1_555
O50 V5 1.994306 1_555
O51 P15 1.538905 1_555
O51 V4 1.908566 1_455
O52 P15 1.540360 1_555
O52 V3 2.025754 1_555
O53 P7 1.519454 1_545
O54 P7 1.602223 1_545
O54 P14 1.621294 1_555
O55 P14 1.536515 1_555
O55 V5 2.045793 1_555
O56 P2 1.491006 1_555
O57 P2 1.610918 1_555
O57 P15 1.620598 1_655
