# generated using pymatgen
data_Pt(SN)4
_symmetry_space_group_name_H-M   'P 1'
_cell_length_a   8.28696100
_cell_length_b   8.85752000
_cell_length_c   11.72485907
_cell_angle_alpha   77.46622161
_cell_angle_beta   90.00000000
_cell_angle_gamma   90.00000000
_symmetry_Int_Tables_number   1
_chemical_formula_structural   Pt(SN)4
_chemical_formula_sum   'Pt4 S16 N16'
_cell_volume   840.11693624
_cell_formula_units_Z   4
loop_
 _symmetry_equiv_pos_site_id
 _symmetry_equiv_pos_as_xyz
  1  'x, y, z'
loop_
 _atom_site_type_symbol
 _atom_site_label
 _atom_site_symmetry_multiplicity
 _atom_site_fract_x
 _atom_site_fract_y
 _atom_site_fract_z
 _atom_site_occupancy
  Pt  Pt0  1  0.16352800  0.95243600  0.63603400  1
  Pt  Pt1  1  0.66352800  0.04756400  0.86396600  1
  Pt  Pt2  1  0.83647200  0.04756400  0.36396600  1
  Pt  Pt3  1  0.33647200  0.95243600  0.13603400  1
  S  S0  1  0.28607100  0.10254600  0.48248300  1
  S  S1  1  0.78607100  0.89745400  0.01751700  1
  S  S2  1  0.71392900  0.89745400  0.51751700  1
  S  S3  1  0.21392900  0.10254600  0.98248300  1
  S  S4  1  0.09707000  0.29836500  0.57629400  1
  S  S5  1  0.59707000  0.70163500  0.92370600  1
  S  S6  1  0.90293000  0.70163500  0.42370600  1
  S  S7  1  0.40293000  0.29836500  0.07629400  1
  S  S8  1  0.27802700  0.73294300  0.61222300  1
  S  S9  1  0.77802700  0.26705700  0.88777700  1
  S  S10  1  0.72197300  0.26705700  0.38777700  1
  S  S11  1  0.22197300  0.73294300  0.11222300  1
  S  S12  1  0.08754300  0.64906800  0.80689800  1
  S  S13  1  0.58754300  0.35093200  0.69310200  1
  S  S14  1  0.91245700  0.35093200  0.19310200  1
  S  S15  1  0.41245700  0.64906800  0.30689800  1
  N  N0  1  0.05781200  0.14383400  0.66262800  1
  N  N1  1  0.55781200  0.85616600  0.83737200  1
  N  N2  1  0.94218800  0.85616600  0.33737200  1
  N  N3  1  0.44218800  0.14383400  0.16262800  1
  N  N4  1  0.22405600  0.27900700  0.47507600  1
  N  N5  1  0.72405600  0.72099300  0.02492400  1
  N  N6  1  0.77594400  0.72099300  0.52492400  1
  N  N7  1  0.27594400  0.27900700  0.97507600  1
  N  N8  1  0.05262800  0.82534700  0.77536900  1
  N  N9  1  0.55262800  0.17465300  0.72463100  1
  N  N10  1  0.94737200  0.17465300  0.22463100  1
  N  N11  1  0.44737200  0.82534700  0.27536900  1
  N  N12  1  0.21266300  0.59427000  0.71760700  1
  N  N13  1  0.71266300  0.40573000  0.78239300  1
  N  N14  1  0.78733700  0.40573000  0.28239300  1
  N  N15  1  0.28733700  0.59427000  0.21760700  1
loop_
_geom_bond_atom_site_label_1
_geom_bond_atom_site_label_2
_geom_bond_distance
_geom_bond_site_symmetry_2
Pt0 S8 2.234638 1_555
Pt0 S0 2.236391 1_565
Pt1 S9 2.234638 1_555
Pt1 S1 2.236391 1_546
Pt2 S10 2.234638 1_555
Pt2 S2 2.236391 1_545
Pt3 S11 2.234638 1_555
Pt3 S3 2.236391 1_564
N0 S4 1.550046 1_555
N0 Pt0 1.992042 1_545
N1 S5 1.550046 1_555
N1 Pt1 1.992042 1_565
N2 S6 1.550046 1_555
N2 Pt2 1.992042 1_565
N3 S7 1.550046 1_555
N3 Pt3 1.992042 1_545
N4 S4 1.622815 1_555
N4 S0 1.629640 1_555
N5 S5 1.622815 1_554
N5 S1 1.629640 1_555
N6 S6 1.622815 1_555
N6 S2 1.629640 1_555
N7 S7 1.622815 1_556
N7 S3 1.629640 1_555
N8 S12 1.551710 1_555
N8 Pt0 1.995625 1_555
N9 S13 1.551710 1_555
N9 Pt1 1.995625 1_555
N10 S14 1.551710 1_555
N10 Pt2 1.995625 1_555
N11 S15 1.551710 1_555
N11 Pt3 1.995625 1_555
N12 S12 1.620889 1_555
N12 S8 1.634054 1_555
N13 S13 1.620889 1_555
N13 S9 1.634054 1_555
N14 S14 1.620889 1_555
N14 S10 1.634054 1_555
N15 S15 1.620889 1_555
N15 S11 1.634054 1_555
