# generated using pymatgen
data_NaSbO3
_symmetry_space_group_name_H-M   'P 1'
_cell_length_a   8.10530600
_cell_length_b   8.16446304
_cell_length_c   8.24757755
_cell_angle_alpha   109.39925254
_cell_angle_beta   109.31935902
_cell_angle_gamma   108.45155726
_symmetry_Int_Tables_number   1
_chemical_formula_structural   NaSbO3
_chemical_formula_sum   'Na6 Sb6 O18'
_cell_volume   426.44615617
_cell_formula_units_Z   6
loop_
 _symmetry_equiv_pos_site_id
 _symmetry_equiv_pos_as_xyz
  1  'x, y, z'
loop_
 _atom_site_type_symbol
 _atom_site_label
 _atom_site_symmetry_multiplicity
 _atom_site_fract_x
 _atom_site_fract_y
 _atom_site_fract_z
 _atom_site_occupancy
  Na  Na0  1  0.01408700  0.98251700  0.32208200  1
  Na  Na1  1  0.50000000  0.00000000  0.00000000  1
  Na  Na2  1  0.67064000  0.65195100  0.70179900  1
  Na  Na3  1  0.32936000  0.34804900  0.29820100  1
  Na  Na4  1  0.00000000  0.50000000  0.00000000  1
  Na  Na5  1  0.98591300  0.01748300  0.67791800  1
  Sb  Sb0  1  0.49869900  0.84021600  0.33716800  1
  Sb  Sb1  1  0.15928800  0.66328900  0.50113100  1
  Sb  Sb2  1  0.65980700  0.49671600  0.15952400  1
  Sb  Sb3  1  0.34019300  0.50328400  0.84047600  1
  Sb  Sb4  1  0.84071200  0.33671100  0.49886900  1
  Sb  Sb5  1  0.50130100  0.15978400  0.66283200  1
  O  O0  1  0.27439500  0.95637400  0.66091600  1
  O  O1  1  0.33546500  0.71976800  0.04612800  1
  O  O2  1  0.63819000  0.99141200  0.63548700  1
  O  O3  1  0.28261300  0.62203500  0.32840600  1
  O  O4  1  0.66316600  0.70516500  0.38125600  1
  O  O5  1  0.38381400  0.67279200  0.71408300  1
  O  O6  1  0.95211700  0.66530800  0.28215100  1
  O  O7  1  0.01014800  0.36296700  0.36644700  1
  O  O8  1  0.35871500  0.36311200  0.00344500  1
  O  O9  1  0.64128500  0.63688800  0.99655500  1
  O  O10  1  0.98985200  0.63703300  0.63355300  1
  O  O11  1  0.04788300  0.33469200  0.71784900  1
  O  O12  1  0.61618600  0.32720800  0.28591700  1
  O  O13  1  0.33683400  0.29483500  0.61874400  1
  O  O14  1  0.71738700  0.37796500  0.67159400  1
  O  O15  1  0.36181000  0.00858800  0.36451300  1
  O  O16  1  0.66453500  0.28023200  0.95387200  1
  O  O17  1  0.72560500  0.04362600  0.33908400  1
loop_
_geom_bond_atom_site_label_1
_geom_bond_atom_site_label_2
_geom_bond_distance
_geom_bond_site_symmetry_2
Na0 O6 2.359776 1_455
Na0 O17 2.577763 1_465
Na0 O13 2.594189 1_565
Na0 O15 2.651287 1_565
Na0 O9 2.916075 1_454
Na1 O1 2.477989 1_545
Na1 O16 2.477989 1_554
Na1 O12 2.517469 1_555
Na1 O5 2.517469 1_544
Na1 O17 2.614199 1_555
Na1 O0 2.614199 1_544
Na2 O14 2.332027 1_555
Na2 O5 2.416354 1_555
Na2 O9 2.558204 1_555
Na2 O4 2.802730 1_555
Na2 O10 2.853656 1_555
Na3 O3 2.332027 1_555
Na3 O12 2.416354 1_555
Na3 O8 2.558204 1_555
Na3 O13 2.802730 1_555
Na3 O7 2.853656 1_555
Na4 O11 2.496034 1_554
Na4 O6 2.496034 1_455
Na4 O14 2.496689 1_454
Na4 O3 2.496689 1_555
Na4 O16 2.555625 1_454
Na4 O1 2.555625 1_555
Na5 O11 2.359776 1_655
Na5 O0 2.577763 1_645
Na5 O4 2.594189 1_545
Na5 O2 2.651287 1_545
Na5 O8 2.916075 1_656
O0 Sb1 2.002872 1_555
O0 Sb5 2.042220 1_565
O1 Sb0 1.996578 1_555
O1 Sb3 2.024031 1_554
O2 Sb5 2.024036 1_565
O2 Sb0 2.028310 1_555
O3 Sb1 1.994636 1_555
O3 Sb0 2.025276 1_555
O4 Sb0 2.000265 1_555
O4 Sb2 2.027728 1_555
O5 Sb3 2.004861 1_555
O5 Sb1 2.026779 1_555
O6 Sb2 1.989044 1_555
O6 Sb1 2.027912 1_655
O7 Sb4 2.021487 1_455
O7 Sb1 2.033046 1_555
O8 Sb2 2.026371 1_555
O8 Sb3 2.033701 1_554
O9 Sb3 2.026371 1_555
O9 Sb2 2.033701 1_556
O10 Sb1 2.021487 1_655
O10 Sb4 2.033046 1_555
O11 Sb3 1.989044 1_555
O11 Sb4 2.027912 1_455
O12 Sb2 2.004861 1_555
O12 Sb4 2.026779 1_555
O13 Sb5 2.000265 1_555
O13 Sb3 2.027728 1_555
O14 Sb4 1.994636 1_555
O14 Sb5 2.025276 1_555
O15 Sb0 2.024036 1_545
O15 Sb5 2.028310 1_555
O16 Sb5 1.996578 1_555
O16 Sb2 2.024031 1_556
O17 Sb4 2.002872 1_555
O17 Sb0 2.042220 1_545
