# generated using pymatgen
data_LiCu5(PO4)2
_symmetry_space_group_name_H-M   'P 1'
_cell_length_a   5.60482100
_cell_length_b   6.24856924
_cell_length_c   10.32295252
_cell_angle_alpha   90.97190708
_cell_angle_beta   90.34841848
_cell_angle_gamma   91.17156722
_symmetry_Int_Tables_number   1
_chemical_formula_structural   LiCu5(PO4)2
_chemical_formula_sum   'Li2 Cu10 P4 O16'
_cell_volume   361.39655017
_cell_formula_units_Z   2
loop_
 _symmetry_equiv_pos_site_id
 _symmetry_equiv_pos_as_xyz
  1  'x, y, z'
loop_
 _atom_site_type_symbol
 _atom_site_label
 _atom_site_symmetry_multiplicity
 _atom_site_fract_x
 _atom_site_fract_y
 _atom_site_fract_z
 _atom_site_occupancy
  Li  Li0  1  0.85617200  0.99813500  0.25055400  1
  Li  Li1  1  0.67907400  0.24596500  0.49292900  1
  Cu  Cu0  1  0.74638600  0.00831800  0.74881400  1
  Cu  Cu1  1  0.64075300  0.27994200  0.99904500  1
  Cu  Cu2  1  0.34329900  0.29801100  0.23630000  1
  Cu  Cu3  1  0.36724600  0.23461300  0.75761900  1
  Cu  Cu4  1  0.25926000  0.50072900  0.98703500  1
  Cu  Cu5  1  0.25759900  0.50739800  0.47807400  1
  Cu  Cu6  1  0.35434000  0.75306000  0.74102600  1
  Cu  Cu7  1  0.35152500  0.70169400  0.23037500  1
  Cu  Cu8  1  0.64908600  0.75582700  0.49843900  1
  Cu  Cu9  1  0.64258600  0.71742500  0.00204400  1
  P  P0  1  0.13864000  0.99473500  0.00644200  1
  P  P1  1  0.16246800  0.00948800  0.50172100  1
  P  P2  1  0.81854500  0.49673500  0.25817300  1
  P  P3  1  0.84066000  0.49906700  0.74630500  1
  O  O0  1  0.15239300  0.00257400  0.65170000  1
  O  O1  1  0.90746100  0.01291700  0.44222700  1
  O  O2  1  0.16158700  0.99707000  0.15636100  1
  O  O3  1  0.87504300  0.99040000  0.96078600  1
  O  O4  1  0.31797400  0.20556500  0.45622300  1
  O  O5  1  0.26993100  0.19616700  0.94983800  1
  O  O6  1  0.69342700  0.28245600  0.20754100  1
  O  O7  1  0.69914900  0.30240700  0.68356800  1
  O  O8  1  0.83820300  0.49149800  0.89615500  1
  O  O9  1  0.09924900  0.50221700  0.69581600  1
  O  O10  1  0.82233700  0.49806100  0.40783900  1
  O  O11  1  0.07213000  0.49553600  0.19990200  1
  O  O12  1  0.70628300  0.70178600  0.69954400  1
  O  O13  1  0.70283900  0.70754500  0.20800900  1
  O  O14  1  0.29757000  0.81061700  0.44523300  1
  O  O15  1  0.27678800  0.80203800  0.94695600  1
loop_
_geom_bond_atom_site_label_1
_geom_bond_atom_site_label_2
_geom_bond_distance
_geom_bond_site_symmetry_2
Li0 O2 1.973891 1_655
Li0 O1 1.997986 1_565
Li0 O13 2.032986 1_555
Li0 O6 2.067267 1_565
Li1 O10 1.975215 1_555
Li1 O7 1.995505 1_555
Li1 O1 2.022771 1_555
Li1 O4 2.066401 1_555
Cu0 O12 1.981380 1_545
Cu0 O7 1.990065 1_555
Cu0 O3 2.305008 1_545
Cu0 O0 2.492891 1_655
Cu1 O8 2.025444 1_555
Cu1 O6 2.170418 1_556
Cu1 O5 2.187557 1_555
Cu1 O3 2.287545 1_545
Cu2 O6 1.990609 1_555
Cu2 O11 2.014944 1_555
Cu2 O2 2.261227 1_545
Cu2 O4 2.356469 1_555
Cu3 O7 2.054363 1_555
Cu3 O5 2.077619 1_555
Cu3 O0 2.146321 1_555
Cu3 O9 2.363591 1_555
Cu4 O15 1.935182 1_555
Cu4 O5 1.937231 1_555
Cu4 O11 2.441064 1_556
Cu4 O8 2.533473 1_455
Cu5 O4 1.932633 1_555
Cu5 O14 1.939152 1_555
Cu5 O9 2.422114 1_555
Cu5 O10 2.540037 1_455
Cu6 O12 2.051473 1_555
Cu6 O9 2.143401 1_555
Cu6 O0 2.161129 1_565
Cu6 O15 2.190035 1_555
Cu7 O13 1.983603 1_555
Cu7 O11 2.026917 1_555
Cu7 O2 2.289517 1_555
Cu7 O14 2.332259 1_555
Cu8 O14 2.078775 1_555
Cu8 O10 2.106130 1_555
Cu8 O12 2.132294 1_555
Cu8 O1 2.227380 1_565
Cu9 O8 2.101286 1_554
Cu9 O13 2.152909 1_555
Cu9 O3 2.174588 1_554
Cu9 O15 2.201527 1_554
O0 P1 1.550900 1_555
O1 P1 1.552893 1_655
O2 P0 1.551959 1_555
O3 P0 1.547603 1_656
O4 P1 1.569140 1_555
O5 P0 1.568266 1_546
O6 P2 1.578327 1_555
O7 P3 1.576534 1_555
O8 P3 1.548555 1_555
O9 P3 1.543050 1_455
O10 P2 1.544891 1_555
O11 P2 1.546824 1_455
O12 P3 1.568481 1_555
O13 P2 1.574132 1_555
O14 P1 1.573813 1_565
O15 P0 1.563729 1_556
