# generated using pymatgen
data_Mn8O13F3
_symmetry_space_group_name_H-M   'P 1'
_cell_length_a   4.99747800
_cell_length_b   7.08952718
_cell_length_c   7.14792327
_cell_angle_alpha   101.68208985
_cell_angle_beta   90.14546951
_cell_angle_gamma   90.06926061
_symmetry_Int_Tables_number   1
_chemical_formula_structural   Mn8O13F3
_chemical_formula_sum   'Mn8 O13 F3'
_cell_volume   248.00223024
_cell_formula_units_Z   1
loop_
 _symmetry_equiv_pos_site_id
 _symmetry_equiv_pos_as_xyz
  1  'x, y, z'
loop_
 _atom_site_type_symbol
 _atom_site_label
 _atom_site_symmetry_multiplicity
 _atom_site_fract_x
 _atom_site_fract_y
 _atom_site_fract_z
 _atom_site_occupancy
  Mn  Mn0  1  0.71061600  0.07196000  0.43621500  1
  Mn  Mn1  1  0.25915200  0.42708400  0.07095000  1
  Mn  Mn2  1  0.77500000  0.08065400  0.93822900  1
  Mn  Mn3  1  0.26326900  0.43423500  0.57843000  1
  Mn  Mn4  1  0.74274800  0.58332500  0.41611600  1
  Mn  Mn5  1  0.25910200  0.91748400  0.07746300  1
  Mn  Mn6  1  0.22648300  0.92270500  0.58176300  1
  Mn  Mn7  1  0.75938500  0.57118300  0.92500800  1
  O  O0  1  0.09428500  0.17309500  0.05987000  1
  O  O1  1  0.58199800  0.06086200  0.17521800  1
  O  O2  1  0.90394200  0.06291500  0.67534700  1
  O  O3  1  0.43709900  0.66723300  0.06078400  1
  O  O4  1  0.93437400  0.56158900  0.16663300  1
  O  O5  1  0.39900100  0.17420500  0.55880700  1
  O  O6  1  0.42390000  0.43700500  0.32689300  1
  O  O7  1  0.07014700  0.66637000  0.55600300  1
  O  O8  1  0.58199500  0.56092300  0.67159500  1
  O  O9  1  0.54867500  0.83368500  0.43808600  1
  O  O10  1  0.59054900  0.32652200  0.93837300  1
  O  O11  1  0.08900100  0.43913800  0.82667000  1
  O  O12  1  0.93517600  0.82765900  0.93286200  1
  F  F0  1  0.92448600  0.31446400  0.44052500  1
  F  F1  1  0.03352700  0.94083100  0.32359600  1
  F  F2  1  0.45608700  0.94487400  0.82456500  1
loop_
_geom_bond_atom_site_label_1
_geom_bond_atom_site_label_2
_geom_bond_distance
_geom_bond_site_symmetry_2
Mn0 O5 1.863030 1_555
Mn0 O9 1.874734 1_545
Mn0 O1 1.958085 1_555
Mn0 O2 1.973675 1_555
Mn1 O3 1.934304 1_555
Mn1 O4 1.938222 1_455
Mn1 O11 1.957618 1_554
Mn1 O0 1.966171 1_555
Mn1 O10 1.971389 1_554
Mn1 O6 1.992446 1_555
Mn2 O0 1.868467 1_656
Mn2 O12 1.958328 1_545
Mn2 O2 1.967883 1_555
Mn2 O10 1.972616 1_555
Mn2 O1 1.980855 1_556
Mn3 O8 1.880477 1_555
Mn3 O7 1.943057 1_555
Mn3 O5 1.943460 1_555
Mn3 O11 1.972591 1_555
Mn3 O6 1.974606 1_555
Mn4 O6 1.935143 1_555
Mn4 O7 1.942793 1_655
Mn4 O9 2.001941 1_555
Mn4 O4 2.004666 1_555
Mn4 O8 2.032241 1_555
Mn5 O12 1.953682 1_454
Mn5 O1 1.956547 1_565
Mn5 O3 1.967698 1_555
Mn5 O0 2.018301 1_565
Mn6 O2 1.942632 1_465
Mn6 O9 1.947811 1_555
Mn6 O7 1.951204 1_555
Mn6 O5 2.016151 1_565
Mn7 O3 1.934591 1_556
Mn7 O4 1.947399 1_556
Mn7 O10 1.947722 1_555
Mn7 O11 1.956272 1_655
Mn7 O8 2.002647 1_555
Mn7 O12 2.008899 1_555
F0 Mn0 2.018174 1_555
F0 Mn3 2.051396 1_655
F0 Mn4 2.150951 1_555
F1 Mn0 1.955396 1_465
F1 Mn5 2.070287 1_555
F1 Mn6 2.106897 1_555
F2 Mn2 1.949307 1_565
F2 Mn6 2.057274 1_555
F2 Mn5 2.103638 1_556
