# generated using pymatgen
data_NaBrO2
_symmetry_space_group_name_H-M   'P 1'
_cell_length_a   8.50911500
_cell_length_b   5.66354500
_cell_length_c   7.40517981
_cell_angle_alpha   74.32442298
_cell_angle_beta   90.00000000
_cell_angle_gamma   90.00000000
_symmetry_Int_Tables_number   1
_chemical_formula_structural   NaBrO2
_chemical_formula_sum   'Na4 Br4 O8'
_cell_volume   343.59560402
_cell_formula_units_Z   4
loop_
 _symmetry_equiv_pos_site_id
 _symmetry_equiv_pos_as_xyz
  1  'x, y, z'
loop_
 _atom_site_type_symbol
 _atom_site_label
 _atom_site_symmetry_multiplicity
 _atom_site_fract_x
 _atom_site_fract_y
 _atom_site_fract_z
 _atom_site_occupancy
  Na  Na0  1  0.67499800  0.06381800  0.96996100  1
  Na  Na1  1  0.17499800  0.93618200  0.53003900  1
  Na  Na2  1  0.32500200  0.93618200  0.03003900  1
  Na  Na3  1  0.82500200  0.06381800  0.46996100  1
  Br  Br0  1  0.49208400  0.57029200  0.74213100  1
  Br  Br1  1  0.99208400  0.42970800  0.75786900  1
  Br  Br2  1  0.50791600  0.42970800  0.25786900  1
  Br  Br3  1  0.00791600  0.57029200  0.24213100  1
  O  O0  1  0.83690300  0.24075700  0.72358700  1
  O  O1  1  0.33690300  0.75924300  0.77641300  1
  O  O2  1  0.16309700  0.75924300  0.27641300  1
  O  O3  1  0.66309700  0.24075700  0.22358700  1
  O  O4  1  0.93574400  0.73653900  0.68467600  1
  O  O5  1  0.43574400  0.26346100  0.81532400  1
  O  O6  1  0.06425600  0.26346100  0.31532400  1
  O  O7  1  0.56425600  0.73653900  0.18467600  1
loop_
_geom_bond_atom_site_label_1
_geom_bond_atom_site_label_2
_geom_bond_distance
_geom_bond_site_symmetry_2
Na0 O0 2.289718 1_555
Na0 O7 2.293287 1_546
Na0 O3 2.357741 1_556
Na0 O5 2.456566 1_555
Na1 O1 2.289718 1_555
Na1 O6 2.293287 1_565
Na1 O2 2.357741 1_555
Na1 O4 2.456566 1_455
Na2 O2 2.289718 1_555
Na2 O5 2.293287 1_564
Na2 O1 2.357741 1_554
Na2 O7 2.456566 1_555
Na3 O3 2.289718 1_555
Na3 O4 2.293287 1_545
Na3 O0 2.357741 1_555
Na3 O6 2.456566 1_655
Br0 O5 1.741955 1_555
Br0 O1 1.760690 1_555
Br1 O4 1.741955 1_555
Br1 O0 1.760690 1_555
Br2 O7 1.741955 1_555
Br2 O3 1.760690 1_555
Br3 O6 1.741955 1_555
Br3 O2 1.760690 1_555
