# generated using pymatgen
data_Fe5O7F3
_symmetry_space_group_name_H-M   'P 1'
_cell_length_a   4.66866106
_cell_length_b   4.66866106
_cell_length_c   15.22698520
_cell_angle_alpha   89.90916062
_cell_angle_beta   89.90916062
_cell_angle_gamma   88.34596707
_symmetry_Int_Tables_number   1
_chemical_formula_structural   Fe5O7F3
_chemical_formula_sum   'Fe10 O14 F6'
_cell_volume   331.75430280
_cell_formula_units_Z   2
loop_
 _symmetry_equiv_pos_site_id
 _symmetry_equiv_pos_as_xyz
  1  'x, y, z'
loop_
 _atom_site_type_symbol
 _atom_site_label
 _atom_site_symmetry_multiplicity
 _atom_site_fract_x
 _atom_site_fract_y
 _atom_site_fract_z
 _atom_site_occupancy
  Fe  Fe0  1  0.03815200  0.01975900  0.70699400  1
  Fe  Fe1  1  0.97344800  0.97069400  0.90141000  1
  Fe  Fe2  1  0.02930600  0.02655200  0.09859000  1
  Fe  Fe3  1  0.98024100  0.96184800  0.29300600  1
  Fe  Fe4  1  0.01646900  0.98353100  0.50000000  1
  Fe  Fe5  1  0.50511000  0.49610100  0.79972800  1
  Fe  Fe6  1  0.50389900  0.49489000  0.20027200  1
  Fe  Fe7  1  0.50139400  0.49860600  0.00000000  1
  Fe  Fe8  1  0.48785200  0.52507300  0.40482800  1
  Fe  Fe9  1  0.47492700  0.51214800  0.59517200  1
  O  O0  1  0.19447400  0.79515000  0.80488700  1
  O  O1  1  0.19397900  0.80602100  0.00000000  1
  O  O2  1  0.20485000  0.80552600  0.19511300  1
  O  O3  1  0.17596200  0.80475400  0.39570000  1
  O  O4  1  0.19524600  0.82403800  0.60430000  1
  O  O5  1  0.68016100  0.67409200  0.90072200  1
  O  O6  1  0.67786800  0.67913700  0.29856000  1
  O  O7  1  0.69365600  0.70414100  0.50171400  1
  O  O8  1  0.32086300  0.32213200  0.70144000  1
  O  O9  1  0.32590800  0.31983900  0.09927800  1
  O  O10  1  0.29585900  0.30634400  0.49828600  1
  O  O11  1  0.80631500  0.18797700  0.80266100  1
  O  O12  1  0.81202300  0.19368500  0.19733900  1
  O  O13  1  0.80872300  0.19127700  0.00000000  1
  F  F0  1  0.70569700  0.70660600  0.69925600  1
  F  F1  1  0.70802900  0.70158600  0.09922200  1
  F  F2  1  0.29841400  0.29197100  0.90077800  1
  F  F3  1  0.29339400  0.29430300  0.30074400  1
  F  F4  1  0.80563500  0.20785400  0.60262400  1
  F  F5  1  0.79214600  0.19436500  0.39737600  1
loop_
_geom_bond_atom_site_label_1
_geom_bond_atom_site_label_2
_geom_bond_distance
_geom_bond_site_symmetry_2
Fe0 O4 1.944294 1_545
Fe0 O0 1.951535 1_545
Fe0 O8 1.961862 1_555
Fe0 O11 1.964660 1_455
Fe1 O0 1.961338 1_655
Fe1 O11 1.962664 1_565
Fe1 O1 1.964773 1_656
Fe1 O13 1.964989 1_566
Fe1 O5 1.975351 1_555
Fe2 O2 1.961338 1_545
Fe2 O12 1.962664 1_455
Fe2 O1 1.964773 1_545
Fe2 O13 1.964989 1_455
Fe2 O9 1.975351 1_555
Fe3 O3 1.944294 1_655
Fe3 O2 1.951535 1_655
Fe3 O6 1.961862 1_555
Fe3 O12 1.964660 1_565
Fe4 O4 1.933383 1_555
Fe4 O3 1.933383 1_555
Fe4 O10 2.021558 1_565
Fe4 O7 2.021558 1_455
Fe5 O8 1.920355 1_555
Fe5 O5 1.941805 1_555
Fe5 O11 1.982936 1_555
Fe5 O0 1.985388 1_555
Fe6 O6 1.920355 1_555
Fe6 O9 1.941805 1_555
Fe6 O12 1.982936 1_555
Fe6 O2 1.985388 1_555
Fe7 O5 1.919527 1_554
Fe7 O9 1.919527 1_555
Fe7 O13 1.999636 1_555
Fe7 O1 2.000195 1_555
Fe8 O3 1.932569 1_555
Fe8 O7 1.962991 1_555
Fe8 O10 1.978785 1_555
Fe8 O6 1.987790 1_555
Fe9 O4 1.932569 1_555
Fe9 O10 1.962991 1_555
Fe9 O7 1.978785 1_555
Fe9 O8 1.987790 1_555
F0 Fe5 2.056016 1_555
F0 Fe9 2.136182 1_555
F0 Fe0 2.166228 1_665
F1 Fe7 2.042867 1_555
F1 Fe6 2.061732 1_555
F1 Fe2 2.164008 1_665
F2 Fe7 2.042867 1_556
F2 Fe5 2.061732 1_555
F2 Fe1 2.164008 1_445
F3 Fe6 2.056016 1_555
F3 Fe8 2.136182 1_555
F3 Fe3 2.166228 1_445
F4 Fe9 2.070834 1_555
F4 Fe0 2.102678 1_655
F4 Fe4 2.109117 1_645
F5 Fe8 2.070834 1_555
F5 Fe3 2.102678 1_545
F5 Fe4 2.109117 1_645
