# generated using pymatgen
data_Li5V3P8O29
_symmetry_space_group_name_H-M   'P 1'
_cell_length_a   9.75761200
_cell_length_b   9.79179187
_cell_length_c   14.05964704
_cell_angle_alpha   90.54505483
_cell_angle_beta   89.76228107
_cell_angle_gamma   119.63780794
_symmetry_Int_Tables_number   1
_chemical_formula_structural   Li5V3P8O29
_chemical_formula_sum   'Li10 V6 P16 O58'
_cell_volume   1167.52052868
_cell_formula_units_Z   2
loop_
 _symmetry_equiv_pos_site_id
 _symmetry_equiv_pos_as_xyz
  1  'x, y, z'
loop_
 _atom_site_type_symbol
 _atom_site_label
 _atom_site_symmetry_multiplicity
 _atom_site_fract_x
 _atom_site_fract_y
 _atom_site_fract_z
 _atom_site_occupancy
  Li  Li0  1  0.09456200  0.77319500  0.56149400  1
  Li  Li1  1  0.68323300  0.91423600  0.56437300  1
  Li  Li2  1  0.66888200  0.77104300  0.05573100  1
  Li  Li3  1  0.10516800  0.33767500  0.05674900  1
  Li  Li4  1  0.76880500  0.68202700  0.43974300  1
  Li  Li5  1  0.22915400  0.32521800  0.56180400  1
  Li  Li6  1  0.91240400  0.67835200  0.93609300  1
  Li  Li7  1  0.65333600  0.31794600  0.10856800  1
  Li  Li8  1  0.32223900  0.09375000  0.43982900  1
  Li  Li9  1  0.05879600  0.04295000  0.99432500  1
  V  V0  1  0.56558000  0.57067900  0.24940100  1
  V  V1  1  0.43304200  0.42904300  0.75399100  1
  V  V2  1  0.00219600  0.56648400  0.74827300  1
  V  V3  1  0.00063300  0.42785300  0.25259200  1
  V  V4  1  0.42795200  0.99432300  0.24666000  1
  V  V5  1  0.56801000  0.00320200  0.75570400  1
  P  P0  1  0.22084700  0.91610100  0.84154400  1
  P  P1  1  0.08410700  0.76816900  0.33888500  1
  P  P2  1  0.68193100  0.91731000  0.34580100  1
  P  P3  1  0.32771900  0.66246100  0.12819300  1
  P  P4  1  0.33882600  0.66654000  0.63003900  1
  P  P5  1  0.68291100  0.77082200  0.83970500  1
  P  P6  1  0.76678100  0.67767200  0.65683000  1
  P  P7  1  0.08597600  0.31361300  0.84451400  1
  P  P8  1  0.90862700  0.67973600  0.15489600  1
  P  P9  1  0.23347200  0.31975500  0.34377900  1
  P  P10  1  0.31220200  0.22228900  0.16057500  1
  P  P11  1  0.66616400  0.33676500  0.37014600  1
  P  P12  1  0.67080100  0.33951800  0.87236700  1
  P  P13  1  0.31868600  0.08602600  0.65786300  1
  P  P14  1  0.91304100  0.22776900  0.66188400  1
  P  P15  1  0.77820700  0.08558600  0.16110100  1
  O  O0  1  0.24436900  0.00129700  0.56602300  1
  O  O1  1  0.24900200  0.91611800  0.33984100  1
  O  O2  1  0.98712000  0.76255700  0.06548500  1
  O  O3  1  0.08152700  0.74291900  0.83286100  1
  O  O4  1  0.37887100  0.91912300  0.83392300  1
  O  O5  1  0.32009800  0.80402400  0.17203400  1
  O  O6  1  0.52278500  0.90733000  0.31927100  1
  O  O7  1  0.78923600  0.99064000  0.08087700  1
  O  O8  1  0.65461800  0.91189500  0.83720000  1
  O  O9  1  0.18848800  0.67151300  0.66766400  1
  O  O10  1  0.09614400  0.61837900  0.31824500  1
  O  O11  1  0.48878300  0.81516500  0.66972900  1
  O  O12  1  0.31776500  0.64375000  0.02288900  1
  O  O13  1  0.33745900  0.65504600  0.52395600  1
  O  O14  1  0.48332300  0.67189800  0.16738900  1
  O  O15  1  0.08835500  0.46938000  0.83227800  1
  O  O16  1  0.18075700  0.50830400  0.17253800  1
  O  O17  1  0.66566000  0.75129900  0.33674600  1
  O  O18  1  0.78994700  0.79001400  0.74800500  1
  O  O19  1  0.75264000  0.75540400  0.56837400  1
  O  O20  1  0.76780000  0.76957000  0.92855900  1
  O  O21  1  0.52473900  0.61624000  0.82621600  1
  O  O22  1  0.33525400  0.51555600  0.67424700  1
  O  O23  1  0.73793800  0.65609600  0.15966000  1
  O  O24  1  0.38161900  0.47877500  0.32321700  1
  O  O25  1  0.08552100  0.33955300  0.33548900  1
  O  O26  1  0.99434400  0.78703800  0.24835500  1
  O  O27  1  0.99582800  0.75331700  0.42956700  1
  O  O28  1  0.01079900  0.23857100  0.57860600  1
  O  O29  1  0.91737100  0.66326100  0.65574100  1
  O  O30  1  0.61909300  0.51906800  0.67704100  1
  O  O31  1  0.25654900  0.33945400  0.82875300  1
  O  O32  1  0.67135300  0.48955100  0.33032700  1
  O  O33  1  0.47445900  0.37316600  0.16826800  1
  O  O34  1  0.20747700  0.21296600  0.08080900  1
  O  O35  1  0.24340600  0.24772000  0.43514100  1
  O  O36  1  0.21651100  0.20278400  0.25886000  1
  O  O37  1  0.34040200  0.25417600  0.65923800  1
  O  O38  1  0.81466600  0.49388100  0.83619400  1
  O  O39  1  0.89739200  0.51756000  0.16929400  1
  O  O40  1  0.51843100  0.33573700  0.82682600  1
  O  O41  1  0.66111200  0.34385100  0.97860500  1
  O  O42  1  0.67992800  0.34411500  0.47543300  1
  O  O43  1  0.51630800  0.18826300  0.33108400  1
  O  O44  1  0.90351300  0.38038500  0.67966600  1
  O  O45  1  0.81617400  0.33842400  0.32015700  1
  O  O46  1  0.34221600  0.08127100  0.16227000  1
  O  O47  1  0.20249900  0.99533300  0.74374600  1
  O  O48  1  0.19305100  0.99389300  0.92377400  1
  O  O49  1  0.47750100  0.09378400  0.67784500  1
  O  O50  1  0.67495000  0.19553200  0.83046400  1
  O  O51  1  0.62781500  0.10087700  0.16715600  1
  O  O52  1  0.92306200  0.25699000  0.16002000  1
  O  O53  1  0.02363700  0.22999600  0.93664800  1
  O  O54  1  0.98762200  0.20024900  0.75824600  1
  O  O55  1  0.74505900  0.08381000  0.66166300  1
  O  O56  1  0.74584200  0.99183400  0.43924900  1
  O  O57  1  0.79954300  0.01693600  0.26073600  1
loop_
_geom_bond_atom_site_label_1
_geom_bond_atom_site_label_2
_geom_bond_distance
_geom_bond_site_symmetry_2
Li0 O0 1.974446 1_565
Li0 O29 2.017744 1_455
Li0 O27 2.056452 1_455
Li0 O9 2.236424 1_555
Li1 O56 1.898091 1_555
Li1 O19 1.980996 1_555
Li1 O55 1.991219 1_565
Li1 O11 2.217842 1_555
Li2 O7 1.902419 1_555
Li2 O20 2.031675 1_554
Li2 O23 2.155352 1_555
Li2 O14 2.225358 1_555
Li3 O53 1.934828 1_554
Li3 O34 1.954095 1_555
Li3 O52 2.121733 1_455
Li3 O16 2.173733 1_555
Li4 O27 1.970982 1_555
Li4 O19 1.974032 1_555
Li4 O17 2.067846 1_555
Li4 O32 2.237690 1_555
Li5 O28 1.878024 1_555
Li5 O35 1.960400 1_555
Li5 O37 2.077531 1_555
Li5 O22 2.256951 1_555
Li6 O2 1.977068 1_556
Li6 O20 2.012310 1_555
Li6 O3 2.048237 1_655
Li6 O38 2.098591 1_555
Li7 O41 1.843235 1_554
Li7 O51 2.183204 1_555
Li7 O33 2.226198 1_555
Li7 O39 2.366844 1_555
Li8 O0 1.970753 1_555
Li8 O35 2.004578 1_555
Li8 O1 2.060271 1_545
Li8 O43 2.247130 1_555
Li9 O48 1.879706 1_545
Li9 O34 1.985471 1_556
Li9 O53 2.186719 1_555
O0 P13 1.507921 1_555
O1 P1 1.543425 1_555
O1 V4 2.007321 1_555
O2 P8 1.490517 1_555
O3 P0 1.567169 1_555
O3 V2 1.908963 1_555
O4 P0 1.530846 1_555
O4 V5 1.947020 1_565
O5 P3 1.546675 1_555
O5 V4 1.926916 1_555
O6 P2 1.553756 1_555
O6 V4 1.851492 1_555
O7 P15 1.492015 1_565
O8 P5 1.537460 1_555
O8 V5 1.897677 1_565
O9 P4 1.580455 1_555
O9 V2 1.950006 1_555
O10 P1 1.552820 1_555
O10 V3 1.858980 1_555
O11 P4 1.567027 1_555
O11 V5 2.001625 1_565
O12 P3 1.487758 1_555
O13 P4 1.494280 1_555
O14 P3 1.576308 1_555
O14 V0 1.942234 1_555
O15 P7 1.525263 1_555
O15 V2 1.956016 1_555
O16 P3 1.610351 1_555
O16 V3 1.899359 1_555
O17 P2 1.557174 1_555
O17 V0 1.962169 1_555
O18 P5 1.608619 1_555
O18 P6 1.622975 1_555
O19 P6 1.506108 1_555
O20 P5 1.505263 1_555
O21 P5 1.547759 1_555
O21 V1 1.881926 1_555
O22 P4 1.593598 1_555
O22 V1 1.926518 1_555
O23 P8 1.565274 1_555
O23 V0 1.931636 1_555
O24 P9 1.541645 1_555
O24 V0 1.874485 1_555
O25 P9 1.553675 1_555
O25 V3 1.878173 1_555
O26 P1 1.610943 1_655
O26 P8 1.625973 1_555
O27 P1 1.503057 1_655
O28 P14 1.478275 1_455
O29 P6 1.544061 1_555
O29 V2 2.020815 1_655
O30 P6 1.536505 1_555
O30 V1 1.913731 1_555
O31 P7 1.569966 1_555
O31 V1 1.829911 1_555
O32 P11 1.579535 1_555
O32 V0 1.956697 1_555
O33 P10 1.544655 1_555
O33 V0 2.024316 1_555
O34 P10 1.491833 1_555
O35 P9 1.497596 1_555
O36 P9 1.597763 1_555
O36 P10 1.623502 1_555
O37 P13 1.552602 1_555
O37 V1 1.989843 1_555
O38 P12 1.556929 1_555
O38 V2 2.023148 1_655
O39 P8 1.551926 1_555
O39 V3 2.015566 1_655
O40 P12 1.604627 1_555
O40 V1 1.831760 1_555
O41 P12 1.497790 1_555
O42 P11 1.484777 1_555
O43 P11 1.562919 1_555
O43 V4 2.026032 1_545
O44 P14 1.560269 1_555
O44 V2 1.848528 1_655
O45 P11 1.613979 1_555
O45 V3 1.830731 1_655
O46 P10 1.547139 1_555
O46 V4 1.887951 1_545
O47 P13 1.595381 1_565
O47 P0 1.638385 1_555
O48 P0 1.474918 1_555
O49 P13 1.540424 1_555
O49 V5 1.888433 1_555
O50 P12 1.541733 1_555
O50 V5 1.941177 1_555
O51 P15 1.548920 1_555
O51 V4 2.032971 1_545
O52 P15 1.571301 1_555
O52 V3 1.944297 1_655
O53 P7 1.496472 1_555
O54 P7 1.598359 1_655
O54 P14 1.626903 1_555
O55 P14 1.545472 1_555
O55 V5 2.001990 1_555
O56 P2 1.478536 1_555
O57 P2 1.613257 1_545
O57 P15 1.617493 1_555
