# generated using pymatgen
data_Li2VO2F
_symmetry_space_group_name_H-M   'P 1'
_cell_length_a   5.15298423
_cell_length_b   7.21083852
_cell_length_c   6.51714476
_cell_angle_alpha   110.82179063
_cell_angle_beta   75.16154356
_cell_angle_gamma   89.09250704
_symmetry_Int_Tables_number   1
_chemical_formula_structural   Li2VO2F
_chemical_formula_sum   'Li8 V4 O8 F4'
_cell_volume   217.26029149
_cell_formula_units_Z   4
loop_
 _symmetry_equiv_pos_site_id
 _symmetry_equiv_pos_as_xyz
  1  'x, y, z'
loop_
 _atom_site_type_symbol
 _atom_site_label
 _atom_site_symmetry_multiplicity
 _atom_site_fract_x
 _atom_site_fract_y
 _atom_site_fract_z
 _atom_site_occupancy
  Li  Li0  1  0.58345100  0.91485000  0.74950400  1
  Li  Li1  1  0.08310600  0.41910500  0.25154600  1
  Li  Li2  1  0.83216200  0.16691200  0.49985200  1
  Li  Li3  1  0.33524000  0.66613700  0.99962400  1
  Li  Li4  1  0.75064500  0.74985700  0.25156500  1
  Li  Li5  1  0.24946400  0.24971400  0.74989000  1
  Li  Li6  1  0.41735100  0.08281500  0.24918500  1
  Li  Li7  1  0.91632000  0.58392700  0.74806500  1
  V  V0  1  0.64134700  0.32429100  0.99299300  1
  V  V1  1  0.02445200  0.00798400  0.00762300  1
  V  V2  1  0.14532800  0.82821300  0.49414700  1
  V  V3  1  0.52435300  0.50726600  0.50660600  1
  O  O0  1  0.83036300  0.66588100  0.49951200  1
  O  O1  1  0.33364500  0.16820600  0.99964800  1
  O  O2  1  0.08493100  0.91398400  0.24921000  1
  O  O3  1  0.58157700  0.41722500  0.75031400  1
  O  O4  1  0.91696900  0.07796800  0.75740300  1
  O  O5  1  0.41426100  0.58054500  0.26192900  1
  O  O6  1  0.24852300  0.75465700  0.74292400  1
  O  O7  1  0.75365100  0.25229200  0.23851100  1
  F  F0  1  0.48163000  0.99589200  0.49411000  1
  F  F1  1  0.97734400  0.49250500  0.99235300  1
  F  F2  1  0.18780800  0.33861100  0.50528400  1
  F  F3  1  0.68607200  0.84116200  0.00820500  1
loop_
_geom_bond_atom_site_label_1
_geom_bond_atom_site_label_2
_geom_bond_distance
_geom_bond_site_symmetry_2
Li0 O0 2.069484 1_555
Li0 O6 2.093001 1_555
Li0 O1 2.094178 1_565
Li0 O4 2.099064 1_565
Li1 O0 2.068440 1_455
Li1 O5 2.082724 1_555
Li1 O1 2.089001 1_554
Li1 O7 2.098119 1_455
Li2 O3 2.083679 1_555
Li2 O2 2.099559 1_645
Li2 O7 2.129343 1_555
Li2 O4 2.133500 1_555
Li3 O3 2.066637 1_555
Li3 O2 2.071044 1_556
Li3 O6 2.130467 1_555
Li3 O5 2.137217 1_556
Li4 O0 2.043114 1_555
Li4 O2 2.105253 1_655
Li4 O5 2.136684 1_555
Li5 O1 2.053469 1_555
Li5 O3 2.110295 1_555
Li5 O4 2.130494 1_455
Li6 O1 2.067051 1_554
Li6 O2 2.117159 1_545
Li6 O7 2.137097 1_555
Li7 O0 2.051609 1_555
Li7 O3 2.117968 1_555
Li7 O6 2.124579 1_655
O0 V3 1.963206 1_555
O0 V2 2.016378 1_655
O1 V0 1.959266 1_555
O1 V1 1.983578 1_556
O2 V2 1.994432 1_555
O2 V1 2.009677 1_565
O3 V3 1.999519 1_555
O3 V0 2.010412 1_555
O4 V1 2.063847 1_656
O4 V2 2.067321 1_645
O4 V0 2.096146 1_555
O5 V3 2.048569 1_555
O5 V2 2.079949 1_555
O5 V0 2.105761 1_554
O6 V2 2.058342 1_555
O6 V1 2.078134 1_566
O6 V3 2.102322 1_555
O7 V0 2.054266 1_554
O7 V1 2.068099 1_655
O7 V3 2.102202 1_555
F0 Li6 2.006480 1_565
F0 Li5 2.073659 1_565
F0 Li4 2.091374 1_555
F0 Li0 2.125142 1_555
F0 V2 2.128720 1_555
F0 Li2 2.203910 1_565
F1 Li7 2.015964 1_555
F1 Li5 2.085387 1_655
F1 Li4 2.086631 1_556
F1 Li1 2.128033 1_656
F1 V0 2.129653 1_555
F1 Li3 2.246497 1_655
F2 Li5 2.008120 1_555
F2 Li6 2.078000 1_555
F2 Li7 2.094712 1_455
F2 Li1 2.119422 1_555
F2 V3 2.133912 1_555
F2 Li2 2.228595 1_455
F3 Li4 2.016269 1_555
F3 Li6 2.069894 1_565
F3 Li7 2.094499 1_554
F3 Li0 2.118766 1_554
F3 V1 2.133944 1_665
F3 Li3 2.222184 1_554
