# generated using pymatgen
data_Li3Fe4P9O32
_symmetry_space_group_name_H-M   'P 1'
_cell_length_a   13.94536700
_cell_length_b   13.94536700
_cell_length_c   6.36582100
_cell_angle_alpha   90.00000000
_cell_angle_beta   90.00000000
_cell_angle_gamma   90.00000000
_symmetry_Int_Tables_number   1
_chemical_formula_structural   Li3Fe4P9O32
_chemical_formula_sum   'Li6 Fe8 P18 O64'
_cell_volume   1237.98196731
_cell_formula_units_Z   2
loop_
 _symmetry_equiv_pos_site_id
 _symmetry_equiv_pos_as_xyz
  1  'x, y, z'
loop_
 _atom_site_type_symbol
 _atom_site_label
 _atom_site_symmetry_multiplicity
 _atom_site_fract_x
 _atom_site_fract_y
 _atom_site_fract_z
 _atom_site_occupancy
  Li  Li0  1  0.50000000  0.00000000  0.35569700  1
  Li  Li1  1  0.00000000  0.50000000  0.64430300  1
  Li  Li2  1  0.00000000  0.50000000  0.14430300  1
  Li  Li3  1  0.50000000  0.50000000  0.50000000  1
  Li  Li4  1  0.50000000  0.00000000  0.85569700  1
  Li  Li5  1  0.00000000  0.00000000  0.00000000  1
  Fe  Fe0  1  0.80279000  0.12050500  0.37618600  1
  Fe  Fe1  1  0.69721000  0.62050500  0.12381400  1
  Fe  Fe2  1  0.19721000  0.87949500  0.37618600  1
  Fe  Fe3  1  0.12050500  0.19721000  0.62381400  1
  Fe  Fe4  1  0.30279000  0.37949500  0.12381400  1
  Fe  Fe5  1  0.62050500  0.30279000  0.87618600  1
  Fe  Fe6  1  0.37949500  0.69721000  0.87618600  1
  Fe  Fe7  1  0.87949500  0.80279000  0.62381400  1
  P  P0  1  0.74568700  0.60658500  0.63449700  1
  P  P1  1  0.60658500  0.25431300  0.36550300  1
  P  P2  1  0.10658500  0.24568700  0.13449700  1
  P  P3  1  0.94088500  0.30410800  0.38567800  1
  P  P4  1  0.80410800  0.44088500  0.88567800  1
  P  P5  1  0.25431300  0.39341500  0.63449700  1
  P  P6  1  0.30410800  0.05911500  0.61432200  1
  P  P7  1  0.24568700  0.89341500  0.86550300  1
  P  P8  1  0.69589200  0.94088500  0.61432200  1
  P  P9  1  0.00000000  0.00000000  0.50000000  1
  P  P10  1  0.75431300  0.10658500  0.86550300  1
  P  P11  1  0.44088500  0.19589200  0.11432200  1
  P  P12  1  0.55911500  0.80410800  0.11432200  1
  P  P13  1  0.50000000  0.50000000  0.00000000  1
  P  P14  1  0.05911500  0.69589200  0.38567800  1
  P  P15  1  0.19589200  0.55911500  0.88567800  1
  P  P16  1  0.89341500  0.75431300  0.13449700  1
  P  P17  1  0.39341500  0.74568700  0.36550300  1
  O  O0  1  0.68768500  0.60725100  0.43254500  1
  O  O1  1  0.33700500  0.83969200  0.37487500  1
  O  O2  1  0.76135300  0.34042600  0.85976000  1
  O  O3  1  0.99097600  0.25449300  0.57150300  1
  O  O4  1  0.44476200  0.08712900  0.10006500  1
  O  O5  1  0.93936200  0.93665600  0.65071000  1
  O  O6  1  0.34042600  0.23864700  0.14024000  1
  O  O7  1  0.50382000  0.77565600  0.33028100  1
  O  O8  1  0.31231500  0.39274900  0.43254500  1
  O  O9  1  0.58712900  0.94476200  0.60006500  1
  O  O10  1  0.49618000  0.22434400  0.33028100  1
  O  O11  1  0.60725100  0.31231500  0.56745500  1
  O  O12  1  0.56063800  0.43665600  0.84929000  1
  O  O13  1  0.18010500  0.86498800  0.68232300  1
  O  O14  1  0.86498800  0.81989500  0.31767700  1
  O  O15  1  0.73864700  0.84042600  0.64024000  1
  O  O16  1  0.56334400  0.56063800  0.15071000  1
  O  O17  1  0.15957400  0.73864700  0.35976000  1
  O  O18  1  0.81231500  0.10725100  0.06745500  1
  O  O19  1  0.06063800  0.06334400  0.65071000  1
  O  O20  1  0.27565600  0.00382000  0.83028100  1
  O  O21  1  0.84042600  0.26135300  0.35976000  1
  O  O22  1  0.65957400  0.76135300  0.14024000  1
  O  O23  1  0.43936200  0.56334400  0.84929000  1
  O  O24  1  0.10725100  0.18768500  0.93254500  1
  O  O25  1  0.77565600  0.49618000  0.66971900  1
  O  O26  1  0.91287100  0.44476200  0.89993500  1
  O  O27  1  0.05523800  0.58712900  0.39993500  1
  O  O28  1  0.06334400  0.93936200  0.34929000  1
  O  O29  1  0.99618000  0.27565600  0.16971900  1
  O  O30  1  0.55523800  0.91287100  0.10006500  1
  O  O31  1  0.00902400  0.74550700  0.57150300  1
  O  O32  1  0.31989500  0.36498800  0.81767700  1
  O  O33  1  0.50902400  0.75449300  0.92849700  1
  O  O34  1  0.25449300  0.00902400  0.42849700  1
  O  O35  1  0.93665600  0.06063800  0.34929000  1
  O  O36  1  0.66030800  0.16299500  0.87487500  1
  O  O37  1  0.83700500  0.66030800  0.12512500  1
  O  O38  1  0.36498800  0.68010500  0.18232300  1
  O  O39  1  0.41287100  0.05523800  0.60006500  1
  O  O40  1  0.81989500  0.13501200  0.68232300  1
  O  O41  1  0.08712900  0.55523800  0.89993500  1
  O  O42  1  0.74550700  0.99097600  0.42849700  1
  O  O43  1  0.13501200  0.18010500  0.31767700  1
  O  O44  1  0.26135300  0.15957400  0.64024000  1
  O  O45  1  0.00382000  0.72434400  0.16971900  1
  O  O46  1  0.18768500  0.89274900  0.06745500  1
  O  O47  1  0.39274900  0.68768500  0.56745500  1
  O  O48  1  0.33969200  0.83700500  0.87487500  1
  O  O49  1  0.94476200  0.41287100  0.39993500  1
  O  O50  1  0.22434400  0.50382000  0.66971900  1
  O  O51  1  0.75449300  0.49097600  0.07150300  1
  O  O52  1  0.49097600  0.24550700  0.92849700  1
  O  O53  1  0.16030800  0.33700500  0.62512500  1
  O  O54  1  0.89274900  0.81231500  0.93254500  1
  O  O55  1  0.66299500  0.16030800  0.37487500  1
  O  O56  1  0.68010500  0.63501200  0.81767700  1
  O  O57  1  0.23864700  0.65957400  0.85976000  1
  O  O58  1  0.16299500  0.33969200  0.12512500  1
  O  O59  1  0.24550700  0.50902400  0.07150300  1
  O  O60  1  0.43665600  0.43936200  0.15071000  1
  O  O61  1  0.72434400  0.99618000  0.83028100  1
  O  O62  1  0.83969200  0.66299500  0.62512500  1
  O  O63  1  0.63501200  0.31989500  0.18232300  1
loop_
_geom_bond_atom_site_label_1
_geom_bond_atom_site_label_2
_geom_bond_distance
_geom_bond_site_symmetry_2
Li0 O9 2.118873 1_545
Li0 O39 2.118873 1_555
Li0 O30 2.172061 1_545
Li0 O4 2.172061 1_555
Li1 O27 2.118873 1_555
Li1 O49 2.118873 1_455
Li1 O26 2.172061 1_455
Li1 O41 2.172061 1_555
Li2 O41 2.118873 1_554
Li2 O26 2.118873 1_454
Li2 O49 2.172061 1_455
Li2 O27 2.172061 1_555
Li3 O16 2.537601 1_555
Li3 O23 2.537601 1_555
Li3 O12 2.537601 1_555
Li3 O60 2.537601 1_555
Li4 O4 2.118873 1_556
Li4 O30 2.118873 1_546
Li4 O39 2.172061 1_555
Li4 O9 2.172061 1_545
Li5 O5 2.537601 1_444
Li5 O28 2.537601 1_545
Li5 O19 2.537601 1_554
Li5 O35 2.537601 1_455
Fe0 O40 1.973753 1_555
Fe0 O18 1.978463 1_555
Fe0 O42 2.002960 1_545
Fe0 O55 2.026991 1_555
Fe0 O21 2.035778 1_555
Fe0 O35 2.052145 1_555
Fe1 O56 1.973753 1_554
Fe1 O0 1.978463 1_555
Fe1 O51 2.002960 1_555
Fe1 O37 2.026991 1_555
Fe1 O22 2.035778 1_555
Fe1 O16 2.052145 1_555
Fe2 O13 1.973753 1_555
Fe2 O46 1.978463 1_555
Fe2 O34 2.002960 1_565
Fe2 O1 2.026991 1_555
Fe2 O17 2.035778 1_555
Fe2 O28 2.052145 1_555
Fe3 O43 1.973753 1_555
Fe3 O24 1.978463 1_555
Fe3 O3 2.002960 1_455
Fe3 O53 2.026991 1_555
Fe3 O44 2.035778 1_555
Fe3 O19 2.052145 1_555
Fe4 O32 1.973753 1_554
Fe4 O8 1.978463 1_555
Fe4 O59 2.002960 1_555
Fe4 O58 2.026991 1_555
Fe4 O6 2.035778 1_555
Fe4 O60 2.052145 1_555
Fe5 O63 1.973753 1_556
Fe5 O11 1.978463 1_555
Fe5 O52 2.002960 1_555
Fe5 O36 2.026991 1_555
Fe5 O2 2.035778 1_555
Fe5 O12 2.052145 1_555
Fe6 O38 1.973753 1_556
Fe6 O47 1.978463 1_555
Fe6 O33 2.002960 1_555
Fe6 O48 2.026991 1_555
Fe6 O57 2.035778 1_555
Fe6 O23 2.052145 1_555
Fe7 O14 1.973753 1_555
Fe7 O54 1.978463 1_555
Fe7 O31 2.002960 1_655
Fe7 O62 2.026991 1_555
Fe7 O15 2.035778 1_555
Fe7 O5 2.052145 1_555
O0 P0 1.518908 1_555
O1 P17 1.530013 1_555
O2 P4 1.531451 1_555
O3 P3 1.538181 1_555
O4 P11 1.520414 1_555
O5 P9 1.554292 1_665
O6 P11 1.531451 1_555
O7 P17 1.611032 1_555
O7 P12 1.625421 1_555
O8 P5 1.518908 1_555
O9 P8 1.520414 1_555
O10 P1 1.611032 1_555
O10 P11 1.625421 1_555
O11 P1 1.518908 1_555
O12 P13 1.554292 1_556
O13 P7 1.534063 1_555
O14 P16 1.534063 1_555
O15 P8 1.531451 1_555
O16 P13 1.554292 1_555
O17 P14 1.531451 1_555
O18 P10 1.518908 1_554
O19 P9 1.554292 1_555
O20 P7 1.611032 1_545
O20 P6 1.625421 1_555
O21 P3 1.531451 1_555
O22 P12 1.531451 1_555
O23 P13 1.554292 1_556
O24 P2 1.518908 1_556
O25 P0 1.611032 1_555
O25 P4 1.625421 1_555
O26 P4 1.520414 1_555
O27 P14 1.520414 1_555
O28 P9 1.554292 1_565
O29 P2 1.611032 1_655
O29 P3 1.625421 1_555
O30 P12 1.520414 1_555
O31 P14 1.538181 1_555
O32 P5 1.534063 1_555
O33 P12 1.538181 1_556
O34 P6 1.538181 1_555
O35 P9 1.554292 1_655
O36 P10 1.530013 1_555
O37 P16 1.530013 1_555
O38 P17 1.534063 1_555
O39 P6 1.520414 1_555
O40 P10 1.534063 1_555
O41 P15 1.520414 1_555
O42 P8 1.538181 1_555
O43 P2 1.534063 1_555
O44 P6 1.531451 1_555
O45 P16 1.611032 1_455
O45 P14 1.625421 1_555
O46 P7 1.518908 1_554
O47 P17 1.518908 1_555
O48 P7 1.530013 1_555
O49 P3 1.520414 1_555
O50 P5 1.611032 1_555
O50 P15 1.625421 1_555
O51 P4 1.538181 1_554
O52 P11 1.538181 1_556
O53 P5 1.530013 1_555
O54 P16 1.518908 1_556
O55 P1 1.530013 1_555
O56 P0 1.534063 1_555
O57 P15 1.531451 1_555
O58 P2 1.530013 1_555
O59 P15 1.538181 1_554
O60 P13 1.554292 1_555
O61 P10 1.611032 1_565
O61 P8 1.625421 1_555
O62 P0 1.530013 1_555
O63 P1 1.534063 1_555
