# generated using pymatgen
data_La2Ti3O9
_symmetry_space_group_name_H-M   'P 1'
_cell_length_a   7.93799924
_cell_length_b   7.93799924
_cell_length_c   7.93799924
_cell_angle_alpha   109.47122063
_cell_angle_beta   109.47122063
_cell_angle_gamma   109.47122063
_symmetry_Int_Tables_number   1
_chemical_formula_structural   La2Ti3O9
_chemical_formula_sum   'La4 Ti6 O18'
_cell_volume   385.04480543
_cell_formula_units_Z   2
loop_
 _symmetry_equiv_pos_site_id
 _symmetry_equiv_pos_as_xyz
  1  'x, y, z'
loop_
 _atom_site_type_symbol
 _atom_site_label
 _atom_site_symmetry_multiplicity
 _atom_site_fract_x
 _atom_site_fract_y
 _atom_site_fract_z
 _atom_site_occupancy
  La  La0  1  0.59656700  0.00000000  0.00000000  1
  La  La1  1  0.40343300  0.40343300  0.40343300  1
  La  La2  1  0.00000000  0.59656700  0.00000000  1
  La  La3  1  0.00000000  0.00000000  0.59656700  1
  Ti  Ti0  1  0.84461100  0.50000000  0.34461100  1
  Ti  Ti1  1  0.65538900  0.15538900  0.50000000  1
  Ti  Ti2  1  0.50000000  0.65538900  0.15538900  1
  Ti  Ti3  1  0.50000000  0.34461100  0.84461100  1
  Ti  Ti4  1  0.34461100  0.84461100  0.50000000  1
  Ti  Ti5  1  0.15538900  0.50000000  0.65538900  1
  O  O0  1  0.73952100  0.34772500  0.03409700  1
  O  O1  1  0.60820400  0.26047900  0.29457600  1
  O  O2  1  0.35854300  0.00000000  0.35854300  1
  O  O3  1  0.64145700  0.00000000  0.64145700  1
  O  O4  1  0.35854300  0.35854300  0.00000000  1
  O  O5  1  0.64145700  0.64145700  0.00000000  1
  O  O6  1  0.96590300  0.31362800  0.70542400  1
  O  O7  1  0.68637200  0.65227500  0.39179600  1
  O  O8  1  0.65227500  0.39179600  0.68637200  1
  O  O9  1  0.34772500  0.03409700  0.73952100  1
  O  O10  1  0.29457600  0.60820400  0.26047900  1
  O  O11  1  0.70542400  0.96590300  0.31362800  1
  O  O12  1  0.26047900  0.29457600  0.60820400  1
  O  O13  1  0.00000000  0.35854300  0.35854300  1
  O  O14  1  0.39179600  0.68637200  0.65227500  1
  O  O15  1  0.03409700  0.73952100  0.34772500  1
  O  O16  1  0.00000000  0.64145700  0.64145700  1
  O  O17  1  0.31362800  0.70542400  0.96590300  1
loop_
_geom_bond_atom_site_label_1
_geom_bond_atom_site_label_2
_geom_bond_distance
_geom_bond_site_symmetry_2
La0 O11 2.487752 1_545
La0 O0 2.487752 1_555
La0 O14 2.487752 1_544
La0 O9 2.501411 1_554
La0 O1 2.501411 1_555
La0 O17 2.501411 1_544
La0 O13 2.983866 1_655
La0 O3 2.983866 1_554
La0 O5 2.983866 1_545
La1 O10 2.487752 1_555
La1 O12 2.487752 1_555
La1 O1 2.487752 1_555
La1 O14 2.501411 1_555
La1 O8 2.501411 1_555
La1 O7 2.501411 1_555
La1 O4 2.983866 1_555
La1 O2 2.983866 1_555
La1 O13 2.983866 1_555
La2 O17 2.487752 1_554
La2 O15 2.487752 1_555
La2 O8 2.487752 1_454
La2 O0 2.501411 1_455
La2 O10 2.501411 1_555
La2 O6 2.501411 1_454
La2 O2 2.983866 1_565
La2 O5 2.983866 1_455
La2 O16 2.983866 1_554
La3 O6 2.487752 1_455
La3 O9 2.487752 1_555
La3 O7 2.487752 1_445
La3 O15 2.501411 1_545
La3 O12 2.501411 1_555
La3 O11 2.501411 1_445
La3 O4 2.983866 1_556
La3 O3 2.983866 1_455
La3 O16 2.983866 1_545
O0 Ti3 1.978730 1_554
O0 Ti0 2.050175 1_555
O1 Ti0 1.978730 1_555
O1 Ti1 2.050175 1_555
O2 Ti1 1.926080 1_555
O2 Ti4 1.926080 1_545
O3 Ti4 1.926080 1_545
O3 Ti1 1.926080 1_555
O4 Ti2 1.926080 1_555
O4 Ti3 1.926080 1_554
O5 Ti2 1.926080 1_555
O5 Ti3 1.926080 1_554
O6 Ti5 1.978730 1_655
O6 Ti1 2.050175 1_555
O7 Ti2 1.978730 1_555
O7 Ti0 2.050175 1_555
O8 Ti1 1.978730 1_555
O8 Ti3 2.050175 1_555
O9 Ti4 1.978730 1_545
O9 Ti3 2.050175 1_555
O10 Ti4 1.978730 1_555
O10 Ti2 2.050175 1_555
O11 Ti1 1.978730 1_565
O11 Ti2 2.050175 1_555
O12 Ti3 1.978730 1_555
O12 Ti5 2.050175 1_555
O13 Ti0 1.926080 1_455
O13 Ti5 1.926080 1_555
O14 Ti5 1.978730 1_555
O14 Ti4 2.050175 1_555
O15 Ti0 1.978730 1_455
O15 Ti4 2.050175 1_555
O16 Ti5 1.926080 1_555
O16 Ti0 1.926080 1_455
O17 Ti2 1.978730 1_556
O17 Ti5 2.050175 1_555
