# generated using pymatgen
data_ZnGaP2H4NO8
_symmetry_space_group_name_H-M   'P 1'
_cell_length_a   9.16259800
_cell_length_b   9.47762105
_cell_length_c   9.48560581
_cell_angle_alpha   89.09767602
_cell_angle_beta   97.73723056
_cell_angle_gamma   96.92691363
_symmetry_Int_Tables_number   1
_chemical_formula_structural   ZnGaP2H4NO8
_chemical_formula_sum   'Zn4 Ga4 P8 H16 N4 O32'
_cell_volume   810.26934247
_cell_formula_units_Z   4
loop_
 _symmetry_equiv_pos_site_id
 _symmetry_equiv_pos_as_xyz
  1  'x, y, z'
loop_
 _atom_site_type_symbol
 _atom_site_label
 _atom_site_symmetry_multiplicity
 _atom_site_fract_x
 _atom_site_fract_y
 _atom_site_fract_z
 _atom_site_occupancy
  Zn  Zn0  1  0.07200500  0.96041600  0.20472500  1
  Zn  Zn1  1  0.43590800  0.80001200  0.04278200  1
  Zn  Zn2  1  0.56280900  0.20351000  0.95867900  1
  Zn  Zn3  1  0.88105900  0.57218000  0.68475500  1
  Ga  Ga0  1  0.11401300  0.42567600  0.31365000  1
  Ga  Ga1  1  0.38481100  0.68627200  0.57252500  1
  Ga  Ga2  1  0.61598900  0.31398000  0.43349500  1
  Ga  Ga3  1  0.93354000  0.04183400  0.79587900  1
  P  P0  1  0.08021800  0.78572600  0.91622600  1
  P  P1  1  0.04522400  0.71244300  0.44141800  1
  P  P2  1  0.45341400  0.55618100  0.28924000  1
  P  P3  1  0.58524600  0.91320200  0.78827700  1
  P  P4  1  0.41902800  0.08901200  0.21612400  1
  P  P5  1  0.54053800  0.44493800  0.71190100  1
  P  P6  1  0.95516300  0.28567100  0.56157700  1
  P  P7  1  0.91489100  0.21205700  0.08683400  1
  H  H0  1  0.13050800  0.36424300  0.89204300  1
  H  H1  1  0.20543300  0.53110700  0.93711500  1
  H  H2  1  0.23003700  0.97254200  0.60896800  1
  H  H3  1  0.19569400  0.13875900  0.57484900  1
  H  H4  1  0.30751800  0.42412200  0.86261100  1
  H  H5  1  0.27064400  0.38905700  0.02692200  1
  H  H6  1  0.29313600  0.06157200  0.46778500  1
  H  H7  1  0.37109600  0.10383000  0.63914800  1
  H  H8  1  0.63021200  0.89593900  0.35802900  1
  H  H9  1  0.70495700  0.93764900  0.52750300  1
  H  H10  1  0.72991400  0.61090200  0.97068600  1
  H  H11  1  0.69374500  0.57760200  0.13620200  1
  H  H12  1  0.80604800  0.85905000  0.42441200  1
  H  H13  1  0.77070600  0.02603100  0.38792000  1
  H  H14  1  0.79356300  0.46982600  0.06070400  1
  H  H15  1  0.86979400  0.63957100  0.10364000  1
  N  N0  1  0.22769500  0.42684300  0.92939700  1
  N  N1  1  0.27387100  0.06978000  0.57349100  1
  N  N2  1  0.72753800  0.92878500  0.42430600  1
  N  N3  1  0.77271600  0.57479100  0.06895200  1
  O  O0  1  0.07137300  0.91450400  0.80706700  1
  O  O1  1  0.03707100  0.86134300  0.38060400  1
  O  O2  1  0.02002800  0.82664600  0.05213100  1
  O  O3  1  0.05030400  0.60292600  0.31926000  1
  O  O4  1  0.02513000  0.34557800  0.14325200  1
  O  O5  1  0.09065100  0.31737300  0.47606400  1
  O  O6  1  0.18656400  0.71027600  0.55403000  1
  O  O7  1  0.24124900  0.75086100  0.93861800  1
  O  O8  1  0.26536700  0.06133500  0.26744500  1
  O  O9  1  0.31370500  0.44531900  0.29228100  1
  O  O10  1  0.39474300  0.51727200  0.66798600  1
  O  O11  1  0.49098900  0.85103400  0.64744600  1
  O  O12  1  0.45373900  0.67799700  0.39756600  1
  O  O13  1  0.48218300  0.95138700  0.18166700  1
  O  O14  1  0.58667200  0.80656000  0.91088200  1
  O  O15  1  0.52166300  0.38007900  0.85752500  1
  O  O16  1  0.46849700  0.61771100  0.14226400  1
  O  O17  1  0.41680800  0.19523400  0.09155100  1
  O  O18  1  0.52165900  0.05069200  0.81878400  1
  O  O19  1  0.54280900  0.32091300  0.60457900  1
  O  O20  1  0.52426900  0.14915300  0.35231800  1
  O  O21  1  0.59334600  0.47694100  0.32988000  1
  O  O22  1  0.67351100  0.55795800  0.70995200  1
  O  O23  1  0.74495500  0.94894000  0.74347600  1
  O  O24  1  0.76248600  0.26510100  0.05409700  1
  O  O25  1  0.81394200  0.28461900  0.45050800  1
  O  O26  1  0.90418700  0.67426000  0.51127400  1
  O  O27  1  0.98327600  0.65039300  0.85934400  1
  O  O28  1  0.96072300  0.38855200  0.68402100  1
  O  O29  1  0.97294700  0.17098100  0.94485600  1
  O  O30  1  0.96913300  0.13327300  0.62326200  1
  O  O31  1  0.91733400  0.08967900  0.19324200  1
loop_
_geom_bond_atom_site_label_1
_geom_bond_atom_site_label_2
_geom_bond_distance
_geom_bond_site_symmetry_2
Ga0 O4 1.840418 1_555
Ga0 O3 1.847536 1_555
Ga0 O9 1.854737 1_555
Ga0 O5 1.859800 1_555
Ga1 O10 1.833306 1_555
Ga1 O11 1.836388 1_555
Ga1 O6 1.842462 1_555
Ga1 O12 1.859444 1_555
Ga2 O20 1.812879 1_555
Ga2 O21 1.835495 1_555
Ga2 O19 1.842413 1_555
Ga2 O25 1.853303 1_555
Ga3 O0 1.841201 1_645
Ga3 O23 1.850275 1_545
Ga3 O29 1.853647 1_555
Ga3 O30 1.889263 1_555
H0 N0 1.031864 1_555
H1 N0 1.038448 1_555
H2 N1 1.030155 1_565
H3 N1 1.027794 1_555
H4 N0 1.032832 1_555
H5 N0 1.031712 1_554
H6 N1 1.046907 1_555
H7 N1 1.035955 1_555
H8 N2 1.037124 1_555
H9 N2 1.034118 1_555
H10 N3 1.031343 1_556
H11 N3 1.029889 1_555
H12 N2 1.033806 1_555
H13 N2 1.031424 1_545
H14 N3 1.041432 1_555
H15 N3 1.035486 1_555
O0 P0 1.590536 1_555
O1 P1 1.522520 1_555
O1 Zn0 1.946631 1_555
O2 P0 1.541172 1_554
O2 Zn0 1.912022 1_555
O3 P1 1.576791 1_555
O4 P7 1.573375 1_455
O5 P6 1.569347 1_455
O6 P1 1.565833 1_555
O7 P0 1.536977 1_555
O7 Zn1 1.927175 1_556
O8 P4 1.542568 1_555
O8 Zn0 1.932115 1_545
O9 P2 1.558214 1_555
O10 P5 1.578005 1_555
O11 P3 1.571298 1_555
O12 P2 1.557075 1_555
O13 P4 1.545782 1_565
O13 Zn1 1.932882 1_555
O14 P3 1.528500 1_555
O14 Zn1 1.979827 1_556
O15 P5 1.525711 1_555
O15 Zn2 1.966580 1_555
O16 P2 1.519762 1_555
O16 Zn1 1.990496 1_555
O17 P4 1.539877 1_555
O17 Zn2 1.951877 1_554
O18 P3 1.536749 1_545
O18 Zn2 1.948044 1_555
O19 P5 1.570920 1_555
O20 P4 1.574446 1_555
O21 P2 1.564147 1_555
O22 P5 1.524080 1_555
O22 Zn3 1.936806 1_555
O23 P3 1.574823 1_555
O24 P7 1.531936 1_555
O24 Zn2 1.954584 1_554
O25 P6 1.553879 1_555
O26 P1 1.533035 1_655
O26 Zn3 1.919147 1_555
O27 P0 1.530750 1_655
O27 Zn3 1.903375 1_555
O28 P6 1.519897 1_555
O28 Zn3 1.967193 1_555
O29 P7 1.583543 1_556
O30 P6 1.562935 1_555
O31 P7 1.525727 1_555
O31 Zn0 1.973370 1_645
