# generated using pymatgen
data_Li2V3O3F5
_symmetry_space_group_name_H-M   'P 1'
_cell_length_a   5.95290891
_cell_length_b   8.50930456
_cell_length_c   6.11995789
_cell_angle_alpha   90.31505951
_cell_angle_beta   91.17239938
_cell_angle_gamma   87.80007345
_symmetry_Int_Tables_number   1
_chemical_formula_structural   Li2V3O3F5
_chemical_formula_sum   'Li4 V6 O6 F10'
_cell_volume   309.71038697
_cell_formula_units_Z   2
loop_
 _symmetry_equiv_pos_site_id
 _symmetry_equiv_pos_as_xyz
  1  'x, y, z'
loop_
 _atom_site_type_symbol
 _atom_site_label
 _atom_site_symmetry_multiplicity
 _atom_site_fract_x
 _atom_site_fract_y
 _atom_site_fract_z
 _atom_site_occupancy
  Li  Li0  1  0.50774400  0.49966500  0.49582700  1
  Li  Li1  1  0.00780700  0.99969100  0.99579300  1
  Li  Li2  1  0.99395700  0.74755300  0.51077100  1
  Li  Li3  1  0.49397100  0.24759700  0.01075800  1
  V  V0  1  0.50266800  0.87317300  0.75266600  1
  V  V1  1  0.99772300  0.38737200  0.75198800  1
  V  V2  1  0.23400300  0.62475200  0.98998500  1
  V  V3  1  0.00265000  0.37320000  0.25268800  1
  V  V4  1  0.49771700  0.88732900  0.25198400  1
  V  V5  1  0.73396800  0.12475500  0.48994800  1
  O  O0  1  0.52310200  0.10853700  0.25614700  1
  O  O1  1  0.02315100  0.60857100  0.75616000  1
  O  O2  1  0.28215500  0.86087300  0.99183200  1
  O  O3  1  0.78212500  0.36087200  0.49177900  1
  O  O4  1  0.71864700  0.88541000  0.50964300  1
  O  O5  1  0.21869900  0.38548200  0.00970600  1
  F  F0  1  0.47654300  0.63978700  0.24445700  1
  F  F1  1  0.97654000  0.13980600  0.74436100  1
  F  F2  1  0.73422300  0.87819500  0.00019700  1
  F  F3  1  0.23421100  0.37817500  0.50028900  1
  F  F4  1  0.48804500  0.63450800  0.75685600  1
  F  F5  1  0.98802000  0.13453900  0.25689900  1
  F  F6  1  0.01351900  0.61320100  0.24728400  1
  F  F7  1  0.51357000  0.11316800  0.74726900  1
  F  F8  1  0.76921500  0.37054200  0.00332500  1
  F  F9  1  0.26915400  0.87056300  0.50341500  1
loop_
_geom_bond_atom_site_label_1
_geom_bond_atom_site_label_2
_geom_bond_distance
_geom_bond_site_symmetry_2
Li0 O3 1.979032 1_555
Li1 O2 1.978980 1_555
Li2 O1 1.917610 1_655
Li2 O4 1.978418 1_555
Li3 O0 1.918001 1_555
Li3 O5 1.978375 1_555
O0 V5 1.892011 1_555
O0 V4 1.894146 1_545
O1 V2 1.892036 1_555
O1 V1 1.894100 1_455
O2 V0 1.991822 1_555
O2 V2 2.040371 1_555
O2 V4 2.041277 1_556
O3 V3 1.991546 1_655
O3 V5 2.040343 1_555
O3 V1 2.041725 1_555
O4 V0 1.991517 1_555
O4 V4 2.032294 1_555
O4 V5 2.046519 1_565
O5 V3 1.991634 1_555
O5 V1 2.032745 1_454
O5 V2 2.045884 1_554
F0 Li0 1.953010 1_555
F0 V2 2.108630 1_554
F0 V4 2.115196 1_555
F1 Li1 1.953294 1_645
F1 V5 2.108508 1_555
F1 V1 2.115414 1_555
F2 Li1 1.962992 1_654
F2 V0 2.028572 1_554
F2 V4 2.107542 1_555
F3 Li0 1.962718 1_555
F3 V3 2.028892 1_555
F3 V1 2.107072 1_455
F4 Li0 1.964552 1_555
F4 V0 2.036398 1_555
F4 V2 2.104455 1_555
F5 Li1 1.964987 1_644
F5 V3 2.036370 1_655
F5 V5 2.104176 1_555
F6 Li2 1.974336 1_455
F6 V3 2.046217 1_555
F6 V2 2.075598 1_554
F7 Li3 1.974733 1_556
F7 V0 2.046179 1_545
F7 V5 2.075392 1_555
F8 Li3 1.978995 1_555
F8 V3 2.043466 1_655
F8 V1 2.083234 1_554
F9 Li2 1.979047 1_455
F9 V0 2.043263 1_555
F9 V4 2.083833 1_555
