# generated using pymatgen
data_V4OF11
_symmetry_space_group_name_H-M   'P 1'
_cell_length_a   5.46479896
_cell_length_b   5.46479896
_cell_length_c   17.70099393
_cell_angle_alpha   79.40612886
_cell_angle_beta   79.40612886
_cell_angle_gamma   57.50045622
_symmetry_Int_Tables_number   1
_chemical_formula_structural   V4OF11
_chemical_formula_sum   'V8 O2 F22'
_cell_volume   435.92581099
_cell_formula_units_Z   2
loop_
 _symmetry_equiv_pos_site_id
 _symmetry_equiv_pos_as_xyz
  1  'x, y, z'
loop_
 _atom_site_type_symbol
 _atom_site_label
 _atom_site_symmetry_multiplicity
 _atom_site_fract_x
 _atom_site_fract_y
 _atom_site_fract_z
 _atom_site_occupancy
  V  V0  1  0.60386900  0.51750000  0.80575300  1
  V  V1  1  0.13170700  0.99161200  0.31134700  1
  V  V2  1  0.23870700  0.13749700  0.93690400  1
  V  V3  1  0.75616000  0.61915900  0.43754200  1
  V  V4  1  0.86250300  0.76129300  0.06309600  1
  V  V5  1  0.38084100  0.24384000  0.56245800  1
  V  V6  1  0.00838800  0.86829300  0.68865300  1
  V  V7  1  0.48250000  0.39613100  0.19424700  1
  O  O0  1  0.33912200  0.62235100  0.26609000  1
  O  O1  1  0.37764900  0.66087800  0.73391000  1
  F  F0  1  0.83277700  0.11700000  0.77649000  1
  F  F1  1  0.91329400  0.58338100  0.74941900  1
  F  F2  1  0.41661900  0.08670600  0.25058100  1
  F  F3  1  0.33880000  0.42071000  0.87705400  1
  F  F4  1  0.62775400  0.92360800  0.97603200  1
  F  F5  1  0.14457100  0.41090300  0.47474400  1
  F  F6  1  0.41609000  0.89092200  0.85028800  1
  F  F7  1  0.91971200  0.37804700  0.35016700  1
  F  F8  1  0.10907800  0.58391000  0.14971200  1
  F  F9  1  0.14993800  0.85006200  0.00000000  1
  F  F10  1  0.84066600  0.90814900  0.37465200  1
  F  F11  1  0.07639200  0.37224600  0.02396800  1
  F  F12  1  0.88300000  0.16722300  0.22351000  1
  F  F13  1  0.58909700  0.85542900  0.52525600  1
  F  F14  1  0.62195300  0.08028800  0.64983300  1
  F  F15  1  0.65538200  0.14820900  0.10630000  1
  F  F16  1  0.85179100  0.34461800  0.89370000  1
  F  F17  1  0.36626900  0.82876100  0.40043100  1
  F  F18  1  0.67176100  0.32823900  0.50000000  1
  F  F19  1  0.09185100  0.15933400  0.62534800  1
  F  F20  1  0.57929000  0.66120000  0.12294600  1
  F  F21  1  0.17123900  0.63373100  0.59956900  1
loop_
_geom_bond_atom_site_label_1
_geom_bond_atom_site_label_2
_geom_bond_distance
_geom_bond_site_symmetry_2
O0 V7 1.711792 1_555
O0 V1 1.949674 1_555
O1 V0 1.711792 1_555
O1 V6 1.949674 1_555
F0 V0 1.964656 1_555
F0 V6 2.003094 1_645
F1 V0 1.971157 1_555
F1 V6 1.974684 1_655
F2 V7 1.971157 1_555
F2 V1 1.974684 1_545
F3 V0 1.968914 1_555
F3 V2 1.977543 1_555
F4 V4 1.951688 1_556
F4 V2 1.984799 1_565
F5 V5 1.964806 1_555
F5 V3 1.968953 1_455
F6 V0 1.970435 1_555
F6 V2 1.978783 1_565
F7 V1 1.971251 1_645
F7 V3 1.975490 1_555
F8 V7 1.970435 1_555
F8 V4 1.978783 1_455
F9 V4 1.981058 1_455
F9 V2 1.981058 1_564
F10 V3 1.973544 1_555
F10 V1 1.982327 1_655
F11 V2 1.951688 1_554
F11 V4 1.984799 1_455
F12 V7 1.964656 1_555
F12 V1 2.003094 1_645
F13 V3 1.964806 1_555
F13 V5 1.968953 1_565
F14 V6 1.971251 1_645
F14 V5 1.975490 1_555
F15 V7 2.002724 1_555
F15 V4 2.010293 1_545
F16 V0 2.002724 1_555
F16 V2 2.010293 1_655
F17 V3 1.974516 1_555
F17 V1 1.980659 1_555
F18 V3 1.979070 1_555
F18 V5 1.979070 1_555
F19 V5 1.973544 1_555
F19 V6 1.982327 1_545
F20 V7 1.968914 1_555
F20 V4 1.977543 1_555
F21 V5 1.974516 1_555
F21 V6 1.980659 1_555
