# generated using pymatgen
data_Li2Cr2FeO6
_symmetry_space_group_name_H-M   'P 1'
_cell_length_a   5.07789297
_cell_length_b   5.07789245
_cell_length_c   10.13828400
_cell_angle_alpha   90.00000000
_cell_angle_beta   90.00000000
_cell_angle_gamma   120.04390019
_symmetry_Int_Tables_number   1
_chemical_formula_structural   Li2Cr2FeO6
_chemical_formula_sum   'Li4 Cr4 Fe2 O12'
_cell_volume   226.29233203
_cell_formula_units_Z   2
loop_
 _symmetry_equiv_pos_site_id
 _symmetry_equiv_pos_as_xyz
  1  'x, y, z'
loop_
 _atom_site_type_symbol
 _atom_site_label
 _atom_site_symmetry_multiplicity
 _atom_site_fract_x
 _atom_site_fract_y
 _atom_site_fract_z
 _atom_site_occupancy
  Li  Li0  1  0.15188400  0.65188400  0.75000000  1
  Li  Li1  1  0.34811600  0.84811600  0.25000000  1
  Li  Li2  1  0.65188400  0.15188400  0.75000000  1
  Li  Li3  1  0.84811600  0.34811600  0.25000000  1
  Cr  Cr0  1  0.16368800  0.83631200  0.50000000  1
  Cr  Cr1  1  0.33631200  0.66368800  0.00000000  1
  Cr  Cr2  1  0.66368800  0.33631200  0.00000000  1
  Cr  Cr3  1  0.83631200  0.16368800  0.50000000  1
  Fe  Fe0  1  0.00000000  0.00000000  0.00000000  1
  Fe  Fe1  1  0.50000000  0.50000000  0.50000000  1
  O  O0  1  0.00678400  0.67491600  0.10528400  1
  O  O1  1  0.99321600  0.32508400  0.89471600  1
  O  O2  1  0.17491600  0.50678400  0.39471600  1
  O  O3  1  0.49321600  0.82508400  0.60528400  1
  O  O4  1  0.18807800  0.18807800  0.59936000  1
  O  O5  1  0.31192200  0.31192200  0.09936000  1
  O  O6  1  0.68807800  0.68807800  0.90064000  1
  O  O7  1  0.32508400  0.99321600  0.89471600  1
  O  O8  1  0.81192200  0.81192200  0.40064000  1
  O  O9  1  0.50678400  0.17491600  0.39471600  1
  O  O10  1  0.82508400  0.49321600  0.60528400  1
  O  O11  1  0.67491600  0.00678400  0.10528400  1
loop_
_geom_bond_atom_site_label_1
_geom_bond_atom_site_label_2
_geom_bond_distance
_geom_bond_site_symmetry_2
Li0 O1 2.053470 1_455
Li0 O10 2.053470 1_455
Li0 O7 2.098534 1_555
Li0 O3 2.098534 1_555
Li1 O9 2.053470 1_565
Li1 O11 2.053470 1_565
Li1 O2 2.098534 1_555
Li1 O0 2.098534 1_555
Li2 O3 2.053470 1_545
Li2 O7 2.053470 1_545
Li2 O10 2.098534 1_555
Li2 O1 2.098534 1_555
Li3 O0 2.053470 1_655
Li3 O2 2.053470 1_655
Li3 O11 2.098534 1_555
Li3 O9 2.098534 1_555
Cr0 O4 1.999793 1_565
Cr0 O8 1.999793 1_455
Cr0 O2 2.009497 1_555
Cr0 O3 2.009498 1_555
Cr0 O10 2.032591 1_455
Cr0 O9 2.032591 1_565
Cr1 O5 1.999793 1_555
Cr1 O6 1.999793 1_554
Cr1 O7 2.009497 1_554
Cr1 O0 2.009498 1_555
Cr1 O11 2.032591 1_565
Cr1 O1 2.032591 1_454
Cr2 O6 1.999793 1_554
Cr2 O5 1.999793 1_555
Cr2 O11 2.009497 1_555
Cr2 O1 2.009498 1_554
Cr2 O7 2.032591 1_544
Cr2 O0 2.032591 1_655
Cr3 O8 1.999793 1_545
Cr3 O4 1.999793 1_655
Cr3 O10 2.009497 1_555
Cr3 O9 2.009498 1_555
Cr3 O2 2.032591 1_655
Cr3 O3 2.032591 1_545
Fe0 O6 1.876210 1_444
Fe0 O5 1.876210 1_555
Fe0 O0 1.980509 1_545
Fe0 O1 1.980509 1_454
Fe0 O11 1.980509 1_455
Fe0 O7 1.980509 1_544
Fe1 O8 1.876210 1_555
Fe1 O4 1.876210 1_555
Fe1 O3 1.980509 1_555
Fe1 O9 1.980509 1_555
Fe1 O10 1.980509 1_555
Fe1 O2 1.980509 1_555
