# generated using pymatgen
data_Na2Mn2O3
_symmetry_space_group_name_H-M   'P 1'
_cell_length_a   5.89525432
_cell_length_b   6.11366229
_cell_length_c   6.34036100
_cell_angle_alpha   90.00010053
_cell_angle_beta   89.99989466
_cell_angle_gamma   115.99232265
_symmetry_Int_Tables_number   1
_chemical_formula_structural   Na2Mn2O3
_chemical_formula_sum   'Na4 Mn4 O6'
_cell_volume   205.40288581
_cell_formula_units_Z   2
loop_
 _symmetry_equiv_pos_site_id
 _symmetry_equiv_pos_as_xyz
  1  'x, y, z'
loop_
 _atom_site_type_symbol
 _atom_site_label
 _atom_site_symmetry_multiplicity
 _atom_site_fract_x
 _atom_site_fract_y
 _atom_site_fract_z
 _atom_site_occupancy
  Na  Na0  1  0.92374100  0.21175100  0.64603600  1
  Na  Na1  1  0.42374800  0.21175700  0.85396000  1
  Na  Na2  1  0.57625100  0.78825800  0.14603600  1
  Na  Na3  1  0.07625100  0.78825300  0.35396800  1
  Mn  Mn0  1  0.95612600  0.67937900  0.87940500  1
  Mn  Mn1  1  0.45612700  0.67938000  0.62059100  1
  Mn  Mn2  1  0.54388600  0.32063700  0.37944300  1
  Mn  Mn3  1  0.04388400  0.32063500  0.12056100  1
  O  O0  1  0.49999500  0.99998500  0.50000300  1
  O  O1  1  0.99999700  0.99998700  0.99999500  1
  O  O2  1  0.74006600  0.41241500  0.10130300  1
  O  O3  1  0.75992900  0.58757500  0.60130700  1
  O  O4  1  0.24006600  0.41240900  0.39869900  1
  O  O5  1  0.25993300  0.58758000  0.89869500  1
loop_
_geom_bond_atom_site_label_1
_geom_bond_atom_site_label_2
_geom_bond_distance
_geom_bond_site_symmetry_2
Na0 O4 2.331649 1_655
Na0 O0 2.437035 1_545
Na0 O1 2.724872 1_545
Na0 O5 2.789663 1_655
Na0 O3 2.870041 1_555
Na1 O2 2.331652 1_556
Na1 O1 2.437063 1_445
Na1 O0 2.724863 1_545
Na1 O3 2.789584 1_555
Na1 O5 2.870050 1_555
Na2 O5 2.331665 1_554
Na2 O1 2.437034 1_554
Na2 O0 2.724785 1_555
Na2 O4 2.789726 1_555
Na2 O2 2.870164 1_555
Na3 O3 2.331669 1_455
Na3 O0 2.437014 1_555
Na3 O1 2.724840 1_454
Na3 O2 2.789699 1_455
Na3 O4 2.870170 1_555
Mn0 O1 2.012235 1_555
Mn0 O3 2.047641 1_555
Mn0 O5 2.102075 1_655
Mn0 O2 2.107957 1_556
Mn1 O0 2.012221 1_555
Mn1 O5 2.047664 1_555
Mn1 O3 2.102068 1_555
Mn1 O4 2.107955 1_555
Mn2 O0 2.012377 1_545
Mn2 O2 2.047820 1_555
Mn2 O4 2.102031 1_555
Mn2 O3 2.107705 1_555
Mn3 O1 2.012374 1_444
Mn3 O4 2.047815 1_555
Mn3 O2 2.102052 1_455
Mn3 O5 2.107746 1_554
