# generated using pymatgen
data_LiMnCo3O8
_symmetry_space_group_name_H-M   'P 1'
_cell_length_a   5.74428136
_cell_length_b   5.98320845
_cell_length_c   9.90158851
_cell_angle_alpha   75.14670061
_cell_angle_beta   90.05055494
_cell_angle_gamma   118.56538548
_symmetry_Int_Tables_number   1
_chemical_formula_structural   LiMnCo3O8
_chemical_formula_sum   'Li2 Mn2 Co6 O16'
_cell_volume   285.91396903
_cell_formula_units_Z   2
loop_
 _symmetry_equiv_pos_site_id
 _symmetry_equiv_pos_as_xyz
  1  'x, y, z'
loop_
 _atom_site_type_symbol
 _atom_site_label
 _atom_site_symmetry_multiplicity
 _atom_site_fract_x
 _atom_site_fract_y
 _atom_site_fract_z
 _atom_site_occupancy
  Li  Li0  1  0.74682700  0.49621200  0.25395100  1
  Li  Li1  1  0.25165900  0.50455600  0.74501500  1
  Mn  Mn0  1  0.49917200  0.00053200  0.49984600  1
  Mn  Mn1  1  0.00098400  0.99969800  0.00007900  1
  Co  Co0  1  0.99995700  0.00170200  0.50014800  1
  Co  Co1  1  0.50058800  0.99895000  0.00015500  1
  Co  Co2  1  0.74912000  0.00213700  0.24779600  1
  Co  Co3  1  0.25110300  0.99786300  0.75237500  1
  Co  Co4  1  0.25209300  0.00117800  0.24776300  1
  Co  Co5  1  0.74753700  0.99800800  0.75239800  1
  O  O0  1  0.09727500  0.19278200  0.13827700  1
  O  O1  1  0.59441700  0.19020400  0.64189700  1
  O  O2  1  0.90467400  0.80711700  0.86140700  1
  O  O3  1  0.40420500  0.80949900  0.35875000  1
  O  O4  1  0.09572300  0.19308800  0.64523600  1
  O  O5  1  0.59635400  0.19195500  0.13834100  1
  O  O6  1  0.90328500  0.80848200  0.35495600  1
  O  O7  1  0.40446500  0.80631300  0.86179400  1
  O  O8  1  0.83575400  0.20209300  0.37796700  1
  O  O9  1  0.34593300  0.19383100  0.88384300  1
  O  O10  1  0.35891100  0.19972500  0.37888000  1
  O  O11  1  0.84912500  0.19376900  0.88393600  1
  O  O12  1  0.63950000  0.80118100  0.62053300  1
  O  O13  1  0.15229400  0.80508200  0.11646000  1
  O  O14  1  0.16223900  0.79940500  0.62165800  1
  O  O15  1  0.65680400  0.80464000  0.11654100  1
loop_
_geom_bond_atom_site_label_1
_geom_bond_atom_site_label_2
_geom_bond_distance
_geom_bond_site_symmetry_2
Li0 O8 2.148557 1_555
Li0 O6 2.156237 1_555
Li0 O10 2.177604 1_555
Li0 O5 2.221114 1_555
Li0 O15 2.268952 1_555
Li0 O13 2.300611 1_655
Li1 O4 2.144148 1_555
Li1 O14 2.151435 1_555
Li1 O12 2.175890 1_555
Li1 O7 2.218154 1_555
Li1 O11 2.297568 1_455
Li1 O9 2.300104 1_555
Mn0 O8 1.917550 1_555
Mn0 O14 1.918708 1_545
Mn0 O12 1.920277 1_545
Mn0 O10 1.920656 1_555
Mn0 O3 1.943421 1_545
Mn0 O1 1.946475 1_555
Mn1 O15 1.925633 1_455
Mn1 O0 1.926419 1_565
Mn1 O11 1.927183 1_464
Mn1 O13 1.928065 1_555
Mn1 O9 1.928125 1_564
Mn1 O2 1.928538 1_454
Co0 O4 1.979216 1_655
Co0 O6 1.987061 1_545
Co0 O10 2.008936 1_655
Co0 O12 2.010723 1_545
Co0 O14 2.027808 1_645
Co0 O8 2.031418 1_555
Co1 O5 1.926014 1_565
Co1 O7 1.926091 1_554
Co1 O13 1.942765 1_555
Co1 O9 1.943065 1_564
Co1 O11 1.943168 1_564
Co1 O15 1.947788 1_555
Co2 O15 1.885065 1_545
Co2 O5 1.885435 1_555
Co2 O8 1.886878 1_555
Co2 O6 1.897868 1_545
Co2 O3 1.905704 1_545
Co2 O0 1.914352 1_655
Co3 O9 1.880566 1_565
Co3 O14 1.884907 1_555
Co3 O7 1.894902 1_555
Co3 O1 1.896881 1_565
Co3 O2 1.904795 1_455
Co3 O4 1.909576 1_565
Co4 O13 1.879634 1_545
Co4 O10 1.888236 1_555
Co4 O3 1.896553 1_545
Co4 O5 1.896965 1_555
Co4 O0 1.901708 1_555
Co4 O6 1.907249 1_445
Co5 O11 1.880396 1_565
Co5 O12 1.888060 1_555
Co5 O7 1.891485 1_555
Co5 O1 1.900963 1_565
Co5 O4 1.903892 1_665
Co5 O2 1.906941 1_555
