# generated using pymatgen
data_Os(CO)4
_symmetry_space_group_name_H-M   'P 1'
_cell_length_a   9.45793500
_cell_length_b   13.13229900
_cell_length_c   17.77412691
_cell_angle_alpha   83.70481464
_cell_angle_beta   90.00000000
_cell_angle_gamma   90.00000000
_symmetry_Int_Tables_number   1
_chemical_formula_structural   Os(CO)4
_chemical_formula_sum   'Os12 C48 O48'
_cell_volume   2194.31370905
_cell_formula_units_Z   12
loop_
 _symmetry_equiv_pos_site_id
 _symmetry_equiv_pos_as_xyz
  1  'x, y, z'
loop_
 _atom_site_type_symbol
 _atom_site_label
 _atom_site_symmetry_multiplicity
 _atom_site_fract_x
 _atom_site_fract_y
 _atom_site_fract_z
 _atom_site_occupancy
  Os  Os0  1  0.74510300  0.18784500  0.28121000  1
  Os  Os1  1  0.24510300  0.81215500  0.21879000  1
  Os  Os2  1  0.25489700  0.81215500  0.71879000  1
  Os  Os3  1  0.75489700  0.18784500  0.78121000  1
  Os  Os4  1  0.87467000  0.27500100  0.40366000  1
  Os  Os5  1  0.37467000  0.72499900  0.09634000  1
  Os  Os6  1  0.12533000  0.72499900  0.59634000  1
  Os  Os7  1  0.62533000  0.27500100  0.90366000  1
  Os  Os8  1  0.49594800  0.25696800  0.34992200  1
  Os  Os9  1  0.99594800  0.74303200  0.15007800  1
  Os  Os10  1  0.50405200  0.74303200  0.65007800  1
  Os  Os11  1  0.00405200  0.25696800  0.84992200  1
  C  C0  1  0.62712000  0.13764700  0.20464400  1
  C  C1  1  0.12712000  0.86235300  0.29535600  1
  C  C2  1  0.37288000  0.86235300  0.79535600  1
  C  C3  1  0.87288000  0.13764700  0.70464400  1
  C  C4  1  0.93184200  0.15268500  0.24976000  1
  C  C5  1  0.43184200  0.84731500  0.25024000  1
  C  C6  1  0.06815800  0.84731500  0.75024000  1
  C  C7  1  0.56815800  0.15268500  0.74976000  1
  C  C8  1  0.72715000  0.06492900  0.35345900  1
  C  C9  1  0.22715000  0.93507100  0.14654100  1
  C  C10  1  0.27285000  0.93507100  0.64654100  1
  C  C11  1  0.77285000  0.06492900  0.85345900  1
  C  C12  1  0.75765000  0.32595500  0.22881200  1
  C  C13  1  0.25765000  0.67404500  0.27118800  1
  C  C14  1  0.24235000  0.67404500  0.77118800  1
  C  C15  1  0.74235000  0.32595500  0.72881200  1
  C  C16  1  0.91284000  0.34386800  0.49138700  1
  C  C17  1  0.41284000  0.65613200  0.00861300  1
  C  C18  1  0.08716000  0.65613200  0.50861300  1
  C  C19  1  0.58716000  0.34386800  0.99138700  1
  C  C20  1  0.99125300  0.36000700  0.33974800  1
  C  C21  1  0.49125300  0.63999300  0.16025200  1
  C  C22  1  0.00874700  0.63999300  0.66025200  1
  C  C23  1  0.50874700  0.36000700  0.83974800  1
  C  C24  1  0.98568800  0.16090400  0.43691200  1
  C  C25  1  0.48568800  0.83909600  0.06308800  1
  C  C26  1  0.01431200  0.83909600  0.56308800  1
  C  C27  1  0.51431200  0.16090400  0.93691200  1
  C  C28  1  0.36249900  0.31284700  0.41547700  1
  C  C29  1  0.86249900  0.68715300  0.08452300  1
  C  C30  1  0.63750100  0.68715300  0.58452300  1
  C  C31  1  0.13750100  0.31284700  0.91547700  1
  C  C32  1  0.42543800  0.33242900  0.26273100  1
  C  C33  1  0.92543800  0.66757100  0.23726900  1
  C  C34  1  0.57456200  0.66757100  0.73726900  1
  C  C35  1  0.07456200  0.33242900  0.76273100  1
  C  C36  1  0.40855400  0.12919700  0.35505500  1
  C  C37  1  0.90855400  0.87080300  0.14494500  1
  C  C38  1  0.59144600  0.87080300  0.64494500  1
  C  C39  1  0.09144600  0.12919700  0.85505500  1
  C  C40  1  0.60328300  0.19040100  0.55477300  1
  C  C41  1  0.10328300  0.80959900  0.94522700  1
  C  C42  1  0.39671700  0.80959900  0.44522700  1
  C  C43  1  0.89671700  0.19040100  0.05477300  1
  C  C44  1  0.62843200  0.51198500  0.40099800  1
  C  C45  1  0.12843200  0.48801500  0.09900200  1
  C  C46  1  0.37156800  0.48801500  0.59900200  1
  C  C47  1  0.87156800  0.51198500  0.90099800  1
  O  O0  1  0.55520800  0.10908000  0.15819000  1
  O  O1  1  0.05520800  0.89092000  0.34181000  1
  O  O2  1  0.44479200  0.89092000  0.84181000  1
  O  O3  1  0.94479200  0.10908000  0.65819000  1
  O  O4  1  0.04553000  0.13263500  0.23151200  1
  O  O5  1  0.54553000  0.86736500  0.26848800  1
  O  O6  1  0.95447000  0.86736500  0.76848800  1
  O  O7  1  0.45447000  0.13263500  0.73151200  1
  O  O8  1  0.71855500  0.99029700  0.39481200  1
  O  O9  1  0.21855500  0.00970300  0.10518800  1
  O  O10  1  0.28144500  0.00970300  0.60518800  1
  O  O11  1  0.78144500  0.99029700  0.89481200  1
  O  O12  1  0.77134000  0.40567900  0.19408800  1
  O  O13  1  0.27134000  0.59432100  0.30591200  1
  O  O14  1  0.22866000  0.59432100  0.80591200  1
  O  O15  1  0.72866000  0.40567900  0.69408800  1
  O  O16  1  0.93091500  0.38609000  0.54493900  1
  O  O17  1  0.43091500  0.61391000  0.95506100  1
  O  O18  1  0.06908500  0.61391000  0.45506100  1
  O  O19  1  0.56908500  0.38609000  0.04493900  1
  O  O20  1  0.07700300  0.40370100  0.30117000  1
  O  O21  1  0.57700300  0.59629900  0.19883000  1
  O  O22  1  0.92299700  0.59629900  0.69883000  1
  O  O23  1  0.42299700  0.40370100  0.80117000  1
  O  O24  1  0.06976600  0.09726700  0.45347300  1
  O  O25  1  0.56976600  0.90273300  0.04652700  1
  O  O26  1  0.93023400  0.90273300  0.54652700  1
  O  O27  1  0.43023400  0.09726700  0.95347300  1
  O  O28  1  0.28496300  0.34807100  0.45661400  1
  O  O29  1  0.78496300  0.65192900  0.04338600  1
  O  O30  1  0.71503700  0.65192900  0.54338600  1
  O  O31  1  0.21503700  0.34807100  0.95661400  1
  O  O32  1  0.37096300  0.37048200  0.20762300  1
  O  O33  1  0.87096300  0.62951800  0.29237700  1
  O  O34  1  0.62903700  0.62951800  0.79237700  1
  O  O35  1  0.12903700  0.37048200  0.70762300  1
  O  O36  1  0.34555000  0.05308600  0.35207800  1
  O  O37  1  0.84555000  0.94691400  0.14792200  1
  O  O38  1  0.65445000  0.94691400  0.64792200  1
  O  O39  1  0.15445000  0.05308600  0.85207800  1
  O  O40  1  0.63670900  0.20210500  0.49209800  1
  O  O41  1  0.13670900  0.79789500  0.00790200  1
  O  O42  1  0.36329100  0.79789500  0.50790200  1
  O  O43  1  0.86329100  0.20210500  0.99209800  1
  O  O44  1  0.64986300  0.43006400  0.38660500  1
  O  O45  1  0.14986300  0.56993600  0.11339500  1
  O  O46  1  0.35013700  0.56993600  0.61339500  1
  O  O47  1  0.85013700  0.43006400  0.88660500  1
loop_
_geom_bond_atom_site_label_1
_geom_bond_atom_site_label_2
_geom_bond_distance
_geom_bond_site_symmetry_2
C0 O0 1.163186 1_555
C0 Os0 1.930936 1_555
C1 O1 1.163186 1_555
C1 Os1 1.930936 1_555
C2 O2 1.163186 1_555
C2 Os2 1.930936 1_555
C3 O3 1.163186 1_555
C3 Os3 1.930936 1_555
C4 O4 1.161648 1_655
C4 Os0 1.923958 1_555
C5 O5 1.161648 1_555
C5 Os1 1.923958 1_555
C6 O6 1.161648 1_455
C6 Os2 1.923958 1_555
C7 O7 1.161648 1_555
C7 Os3 1.923958 1_555
C8 O8 1.161658 1_545
C8 Os0 1.956750 1_555
C9 O9 1.161658 1_565
C9 Os1 1.956750 1_555
C10 O10 1.161658 1_565
C10 Os2 1.956750 1_555
C11 O11 1.161658 1_545
C11 Os3 1.956750 1_555
C12 O12 1.162800 1_555
C12 Os0 1.949496 1_555
C13 O13 1.162800 1_555
C13 Os1 1.949496 1_555
C14 O14 1.162800 1_555
C14 Os2 1.949496 1_555
C15 O15 1.162800 1_555
C15 Os3 1.949496 1_555
C16 O16 1.165506 1_555
C16 Os4 1.920629 1_555
C17 O17 1.165506 1_554
C17 Os5 1.920629 1_555
C18 O18 1.165506 1_555
C18 Os6 1.920629 1_555
C19 O19 1.165506 1_556
C19 Os7 1.920629 1_555
C20 O20 1.170849 1_655
C20 Os4 1.863956 1_555
C21 O21 1.170849 1_555
C21 Os5 1.863956 1_555
C22 O22 1.170849 1_455
C22 Os6 1.863956 1_555
C23 O23 1.170849 1_555
C23 Os7 1.863956 1_555
C24 O24 1.167666 1_655
C24 Os4 1.871544 1_555
C25 O25 1.167666 1_555
C25 Os5 1.871544 1_555
C26 O26 1.167666 1_455
C26 Os6 1.871544 1_555
C27 O27 1.167666 1_555
C27 Os7 1.871544 1_555
C28 O28 1.166420 1_555
C28 Os8 1.917467 1_555
C29 O29 1.166420 1_555
C29 Os9 1.917467 1_555
C30 O30 1.166420 1_555
C30 Os10 1.917467 1_555
C31 O31 1.166420 1_555
C31 Os11 1.917467 1_555
C32 O32 1.169293 1_555
C32 Os8 1.868602 1_555
C33 O33 1.169293 1_555
C33 Os9 1.868602 1_555
C34 O34 1.169293 1_555
C34 Os10 1.868602 1_555
C35 O35 1.169293 1_555
C35 Os11 1.868602 1_555
C36 O36 1.169831 1_555
C36 Os8 1.863707 1_555
C37 O37 1.169831 1_555
C37 Os9 1.863707 1_555
C38 O38 1.169831 1_555
C38 Os10 1.863707 1_555
C39 O39 1.169831 1_555
C39 Os11 1.863707 1_555
C40 O40 1.151955 1_555
C41 O41 1.151955 1_556
C42 O42 1.151955 1_555
C43 O43 1.151955 1_554
C44 O44 1.150763 1_555
C45 O45 1.150763 1_555
C46 O46 1.150763 1_555
C47 O47 1.150763 1_555
