# generated using pymatgen
data_Li3NbS4
_symmetry_space_group_name_H-M   'P 1'
_cell_length_a   18.43527771
_cell_length_b   13.83108651
_cell_length_c   13.31386000
_cell_angle_alpha   85.53079900
_cell_angle_beta   48.41482154
_cell_angle_gamma   46.05437946
_symmetry_Int_Tables_number   1
_chemical_formula_structural   Li3NbS4
_chemical_formula_sum   'Li24 Nb8 S32'
_cell_volume   1286.29915799
_cell_formula_units_Z   8
loop_
 _symmetry_equiv_pos_site_id
 _symmetry_equiv_pos_as_xyz
  1  'x, y, z'
loop_
 _atom_site_type_symbol
 _atom_site_label
 _atom_site_symmetry_multiplicity
 _atom_site_fract_x
 _atom_site_fract_y
 _atom_site_fract_z
 _atom_site_occupancy
  Li  Li0  1  0.49315600  0.00684400  0.00684400  1
  Li  Li1  1  0.97927700  0.52072300  0.52072300  1
  Li  Li2  1  0.76368100  0.22788500  0.73472500  1
  Li  Li3  1  0.63184900  0.62116900  0.91841200  1
  Li  Li4  1  0.13166700  0.64667800  0.55738100  1
  Li  Li5  1  0.13221500  0.05296600  0.59257400  1
  Li  Li6  1  0.31661900  0.12586400  0.42634100  1
  Li  Li7  1  0.82365900  0.11882500  0.93338100  1
  Li  Li8  1  0.65742600  0.02775400  0.11778500  1
  Li  Li9  1  0.69261900  0.58572500  0.11833300  1
  Li  Li10  1  0.33158800  0.42143000  0.61815100  1
  Li  Li11  1  0.51527500  0.97629200  0.48631900  1
  Li  Li12  1  0.24315600  0.75684400  0.75684400  1
  Li  Li13  1  0.72927700  0.27072300  0.27072300  1
  Li  Li14  1  0.02211500  0.48631900  0.97629200  1
  Li  Li15  1  0.62883100  0.61815100  0.42143000  1
  Li  Li16  1  0.60332200  0.11833300  0.58572500  1
  Li  Li17  1  0.19703400  0.11778500  0.02775400  1
  Li  Li18  1  0.12413600  0.93338100  0.11882500  1
  Li  Li19  1  0.13117500  0.42634100  0.12586400  1
  Li  Li20  1  0.22224600  0.59257400  0.05296600  1
  Li  Li21  1  0.66427500  0.55738100  0.64667800  1
  Li  Li22  1  0.82857000  0.91841200  0.62116900  1
  Li  Li23  1  0.27370800  0.73472500  0.22788500  1
  Nb  Nb0  1  0.42649900  0.30391000  0.09316000  1
  Nb  Nb1  1  0.92581700  0.58644100  0.81859000  1
  Nb  Nb2  1  0.43141000  0.58084800  0.32418300  1
  Nb  Nb3  1  0.15684000  0.07356800  0.82350100  1
  Nb  Nb4  1  0.94609000  0.82350100  0.07356800  1
  Nb  Nb5  1  0.66355900  0.32418300  0.58084800  1
  Nb  Nb6  1  0.66915200  0.81859000  0.58644100  1
  Nb  Nb7  1  0.17643200  0.09316000  0.30391000  1
  S  S0  1  0.88217200  0.30095400  0.61327800  1
  S  S1  1  0.72154000  0.10582000  0.87979200  1
  S  S2  1  0.34928600  0.23738700  0.26423100  1
  S  S3  1  0.85601500  0.75362700  0.74248900  1
  S  S4  1  0.39470800  0.91632600  0.24641500  1
  S  S5  1  0.61379000  0.46244900  0.03012600  1
  S  S6  1  0.12369400  0.87919000  0.53756800  1
  S  S7  1  0.92593800  0.43202100  0.76459700  1
  S  S8  1  0.48540300  0.37255700  0.32406200  1
  S  S9  1  0.71243200  0.79045300  0.12630600  1
  S  S10  1  0.21987400  0.35636500  0.63621000  1
  S  S11  1  0.00358500  0.80744900  0.85529200  1
  S  S12  1  0.50751100  0.60213200  0.39398500  1
  S  S13  1  0.98576900  0.10090500  0.90071400  1
  S  S14  1  0.37020800  0.95715200  0.52846000  1
  S  S15  1  0.63672200  0.04640400  0.36782800  1
  S  S16  1  0.94904600  0.36782800  0.04640400  1
  S  S17  1  0.14418000  0.52846000  0.95715200  1
  S  S18  1  0.01261300  0.90071400  0.10090500  1
  S  S19  1  0.49637300  0.39398500  0.60213200  1
  S  S20  1  0.33367400  0.85529200  0.80744900  1
  S  S21  1  0.78755100  0.63621000  0.35636500  1
  S  S22  1  0.37081000  0.12630600  0.79045300  1
  S  S23  1  0.81797900  0.32406200  0.37255700  1
  S  S24  1  0.87744300  0.76459700  0.43202100  1
  S  S25  1  0.45954700  0.53756800  0.87919000  1
  S  S26  1  0.89363500  0.03012600  0.46244900  1
  S  S27  1  0.44255100  0.24641500  0.91632600  1
  S  S28  1  0.64786800  0.74248900  0.75362700  1
  S  S29  1  0.14909500  0.26423100  0.23738700  1
  S  S30  1  0.29284800  0.87979200  0.10582000  1
  S  S31  1  0.20359600  0.61327800  0.30095400  1
loop_
_geom_bond_atom_site_label_1
_geom_bond_atom_site_label_2
_geom_bond_distance
_geom_bond_site_symmetry_2
Li0 S2 2.616247 1_555
Li0 S29 2.616260 1_555
Li0 S3 2.748048 1_544
Li0 S28 2.748061 1_544
Li1 S3 2.583453 1_555
Li1 S28 2.583467 1_555
Li1 S2 2.758643 1_655
Li1 S29 2.758655 1_655
Li2 S1 2.550416 1_555
Li2 S0 2.555038 1_555
Li2 S25 2.668000 1_555
Li2 S26 2.698807 1_555
Li2 S6 2.935774 1_645
Li2 S5 2.957720 1_556
Li3 S7 2.615726 1_555
Li3 S0 2.639169 1_555
Li3 S28 2.640103 1_555
Li3 S5 2.643947 1_556
Li3 S4 2.740939 1_556
Li3 S30 2.782377 1_556
Li4 S31 2.648277 1_555
Li4 S8 2.679307 1_555
Li4 S3 2.756017 1_455
Li4 S11 2.811871 1_555
Li5 S4 2.699591 1_545
Li5 S6 2.699803 1_545
Li5 S13 2.792075 1_455
Li5 S14 2.978157 1_545
Li6 S14 2.521616 1_545
Li6 S2 2.538754 1_555
Li6 S4 2.631255 1_545
Li6 S7 2.769599 1_455
Li6 S9 2.816754 1_545
Li6 S10 2.834288 1_555
Li7 S1 2.521624 1_555
Li7 S13 2.538754 1_555
Li7 S11 2.631266 1_645
Li7 S8 2.769599 1_556
Li7 S6 2.816753 1_645
Li7 S5 2.834277 1_556
Li8 S11 2.699597 1_644
Li8 S9 2.699776 1_545
Li8 S2 2.792075 1_555
Li8 S1 2.978165 1_554
Li9 S16 2.648278 1_555
Li9 S7 2.679307 1_554
Li9 S12 2.755998 1_555
Li9 S4 2.811875 1_555
Li10 S8 2.615731 1_555
Li10 S15 2.639169 1_555
Li10 S19 2.640112 1_555
Li10 S10 2.643947 1_555
Li10 S11 2.740939 1_555
Li10 S17 2.782377 1_555
Li11 S14 2.550428 1_555
Li11 S15 2.555025 1_565
Li11 S22 2.668000 1_565
Li11 S21 2.698814 1_555
Li11 S9 2.935774 1_555
Li11 S10 2.957713 1_565
Li12 S13 2.616255 1_465
Li12 S18 2.616256 1_556
Li12 S19 2.748051 1_555
Li12 S12 2.748052 1_555
Li13 S19 2.583462 1_555
Li13 S12 2.583463 1_555
Li13 S13 2.758646 1_554
Li13 S18 2.758647 1_645
Li14 S17 2.550410 1_555
Li14 S16 2.555039 1_456
Li14 S9 2.668000 1_456
Li14 S10 2.698818 1_555
Li14 S22 2.935774 1_555
Li14 S21 2.957710 1_456
Li15 S23 2.615733 1_555
Li15 S16 2.639169 1_555
Li15 S12 2.640093 1_555
Li15 S21 2.643947 1_555
Li15 S20 2.740939 1_555
Li15 S14 2.782377 1_555
Li16 S15 2.648264 1_555
Li16 S24 2.679307 1_545
Li16 S19 2.756009 1_555
Li16 S27 2.811883 1_555
Li17 S20 2.699583 1_544
Li17 S22 2.699793 1_554
Li17 S29 2.792075 1_555
Li17 S30 2.978166 1_545
Li18 S30 2.521606 1_555
Li18 S18 2.538754 1_555
Li18 S20 2.631263 1_554
Li18 S23 2.769599 1_465
Li18 S25 2.816749 1_554
Li18 S26 2.834279 1_465
Li19 S17 2.521614 1_554
Li19 S29 2.538754 1_555
Li19 S27 2.631270 1_554
Li19 S24 2.769599 1_455
Li19 S22 2.816735 1_554
Li19 S21 2.834273 1_455
Li20 S27 2.699594 1_554
Li20 S25 2.699771 1_554
Li20 S18 2.792075 1_555
Li20 S17 2.978175 1_554
Li21 S0 2.648268 1_555
Li21 S23 2.679307 1_555
Li21 S28 2.755985 1_555
Li21 S20 2.811883 1_555
Li22 S24 2.615742 1_555
Li22 S31 2.639169 1_655
Li22 S3 2.640103 1_555
Li22 S26 2.643947 1_565
Li22 S27 2.740939 1_565
Li22 S1 2.782377 1_565
Li23 S30 2.550421 1_555
Li23 S31 2.555025 1_555
Li23 S6 2.668000 1_555
Li23 S5 2.698820 1_555
Li23 S25 2.935774 1_554
Li23 S26 2.957707 1_465
Nb0 S1 2.275787 1_554
Nb0 S31 2.279886 1_555
Nb0 S2 2.290798 1_555
Nb0 S27 2.302864 1_554
Nb1 S10 2.279738 1_655
Nb1 S9 2.285329 1_556
Nb1 S3 2.294591 1_555
Nb1 S7 2.304109 1_555
Nb2 S5 2.279738 1_555
Nb2 S6 2.285326 1_555
Nb2 S12 2.294599 1_555
Nb2 S8 2.304096 1_555
Nb3 S14 2.275792 1_545
Nb3 S16 2.279896 1_456
Nb3 S13 2.290777 1_455
Nb3 S20 2.302860 1_545
Nb4 S17 2.275790 1_654
Nb4 S15 2.279889 1_565
Nb4 S18 2.290812 1_655
Nb4 S11 2.302851 1_654
Nb5 S26 2.279738 1_555
Nb5 S25 2.285319 1_555
Nb5 S19 2.294581 1_555
Nb5 S23 2.304104 1_555
Nb6 S21 2.279738 1_555
Nb6 S22 2.285323 1_565
Nb6 S28 2.294588 1_555
Nb6 S24 2.304093 1_555
Nb7 S30 2.275801 1_545
Nb7 S0 2.279892 1_455
Nb7 S29 2.290789 1_555
Nb7 S4 2.302850 1_545
