# generated using pymatgen
data_LiFeF4
_symmetry_space_group_name_H-M   'P 1'
_cell_length_a   5.78222300
_cell_length_b   5.95153300
_cell_length_c   8.50035400
_cell_angle_alpha   90.00000000
_cell_angle_beta   90.00000000
_cell_angle_gamma   90.00000000
_symmetry_Int_Tables_number   1
_chemical_formula_structural   LiFeF4
_chemical_formula_sum   'Li4 Fe4 F16'
_cell_volume   292.52345572
_cell_formula_units_Z   4
loop_
 _symmetry_equiv_pos_site_id
 _symmetry_equiv_pos_as_xyz
  1  'x, y, z'
loop_
 _atom_site_type_symbol
 _atom_site_label
 _atom_site_symmetry_multiplicity
 _atom_site_fract_x
 _atom_site_fract_y
 _atom_site_fract_z
 _atom_site_occupancy
  Li  Li0  1  0.02638000  0.78483800  0.25578600  1
  Li  Li1  1  0.47362000  0.21516200  0.75578600  1
  Li  Li2  1  0.97362000  0.28483800  0.24421400  1
  Li  Li3  1  0.52638000  0.71516200  0.74421400  1
  Fe  Fe0  1  0.97580200  0.90693300  0.90108200  1
  Fe  Fe1  1  0.52419800  0.09306700  0.40108200  1
  Fe  Fe2  1  0.02419800  0.40693300  0.59891800  1
  Fe  Fe3  1  0.47580200  0.59306700  0.09891800  1
  F  F0  1  0.40464600  0.85121400  0.25788700  1
  F  F1  1  0.78991000  0.72114600  0.07649900  1
  F  F2  1  0.45253100  0.92592300  0.58160200  1
  F  F3  1  0.82726100  0.00481800  0.34908100  1
  F  F4  1  0.67273900  0.99518200  0.84908100  1
  F  F5  1  0.04746900  0.07407700  0.08160200  1
  F  F6  1  0.71009000  0.27885400  0.57649900  1
  F  F7  1  0.09535400  0.14878600  0.75788700  1
  F  F8  1  0.59535400  0.35121400  0.24211300  1
  F  F9  1  0.21009000  0.22114600  0.42350100  1
  F  F10  1  0.54746900  0.42592300  0.91839800  1
  F  F11  1  0.17273900  0.50481800  0.15091900  1
  F  F12  1  0.32726100  0.49518200  0.65091900  1
  F  F13  1  0.95253100  0.57407700  0.41839800  1
  F  F14  1  0.28991000  0.77885400  0.92350100  1
  F  F15  1  0.90464600  0.64878600  0.74211300  1
loop_
_geom_bond_atom_site_label_1
_geom_bond_atom_site_label_2
_geom_bond_distance
_geom_bond_site_symmetry_2
F0 Fe1 2.007815 1_565
F0 Fe3 2.087034 1_555
F0 Li0 2.222678 1_555
F1 Fe3 1.978915 1_555
F1 Li0 2.082269 1_655
F1 Fe0 2.145077 1_554
F2 Fe1 1.875078 1_565
F2 Li3 1.914779 1_555
F2 Li1 2.273850 1_565
F3 Fe1 1.882038 1_555
F3 Li0 1.915352 1_645
F3 Li2 2.070792 1_555
F4 Fe0 1.882038 1_555
F4 Li1 1.915352 1_565
F4 Li3 2.070792 1_555
F5 Fe0 1.875078 1_444
F5 Li2 1.914779 1_455
F5 Li0 2.273850 1_545
F6 Fe2 1.978915 1_655
F6 Li1 2.082269 1_555
F6 Fe1 2.145077 1_555
F7 Fe0 2.007815 1_445
F7 Fe2 2.087034 1_555
F7 Li1 2.222678 1_555
F8 Fe3 2.007815 1_555
F8 Fe1 2.087034 1_555
F8 Li2 2.222678 1_555
F9 Fe1 1.978915 1_555
F9 Li2 2.082269 1_455
F9 Fe2 2.145077 1_555
F10 Fe3 1.875078 1_556
F10 Li1 1.914779 1_555
F10 Li3 2.273850 1_555
F11 Fe3 1.882038 1_555
F11 Li2 1.915352 1_455
F11 Li0 2.070792 1_555
F12 Fe2 1.882038 1_555
F12 Li3 1.915352 1_555
F12 Li1 2.070792 1_555
F13 Fe2 1.875078 1_655
F13 Li0 1.914779 1_655
F13 Li2 2.273850 1_555
F14 Fe0 1.978915 1_455
F14 Li3 2.082269 1_555
F14 Fe3 2.145077 1_556
F15 Fe2 2.007815 1_655
F15 Fe0 2.087034 1_555
F15 Li3 2.222678 1_555
