# generated using pymatgen
data_LiVCoO4
_symmetry_space_group_name_H-M   'P 1'
_cell_length_a   5.20290063
_cell_length_b   5.20264510
_cell_length_c   6.30451401
_cell_angle_alpha   89.90410208
_cell_angle_beta   89.91177755
_cell_angle_gamma   66.72254353
_symmetry_Int_Tables_number   1
_chemical_formula_structural   LiVCoO4
_chemical_formula_sum   'Li2 V2 Co2 O8'
_cell_volume   156.76456410
_cell_formula_units_Z   2
loop_
 _symmetry_equiv_pos_site_id
 _symmetry_equiv_pos_as_xyz
  1  'x, y, z'
loop_
 _atom_site_type_symbol
 _atom_site_label
 _atom_site_symmetry_multiplicity
 _atom_site_fract_x
 _atom_site_fract_y
 _atom_site_fract_z
 _atom_site_occupancy
  Li  Li0  1  0.33717800  0.33716400  0.75003600  1
  Li  Li1  1  0.66282100  0.66283600  0.24996400  1
  V  V0  1  0.64709800  0.64712500  0.75026100  1
  V  V1  1  0.35290300  0.35287700  0.24973900  1
  Co  Co0  1  0.00000000  0.00000000  0.50000100  1
  Co  Co1  1  0.00000000  0.00000000  0.00000000  1
  O  O0  1  0.23851900  0.23848000  0.02853700  1
  O  O1  1  0.23796600  0.23788500  0.47208900  1
  O  O2  1  0.76203300  0.76211400  0.52791300  1
  O  O3  1  0.76148000  0.76152000  0.97146300  1
  O  O4  1  0.23564200  0.72474100  0.24927800  1
  O  O5  1  0.27516500  0.76446200  0.75074300  1
  O  O6  1  0.72483500  0.23553900  0.24925700  1
  O  O7  1  0.76435900  0.27525800  0.75072200  1
loop_
_geom_bond_atom_site_label_1
_geom_bond_atom_site_label_2
_geom_bond_distance
_geom_bond_site_symmetry_2
Li0 O0 1.952555 1_556
Li0 O1 1.954587 1_555
Li0 O7 2.116096 1_555
Li0 O5 2.116442 1_555
Li1 O3 1.952555 1_554
Li1 O2 1.954596 1_555
Li1 O4 2.116087 1_555
Li1 O6 2.116435 1_555
Co0 O1 2.074928 1_555
Co0 O2 2.074936 1_445
Co0 O5 2.159658 1_545
Co0 O6 2.159669 1_455
Co0 O7 2.160185 1_455
Co0 O4 2.160198 1_545
Co1 O0 2.080918 1_555
Co1 O3 2.080922 1_444
Co1 O5 2.152590 1_544
Co1 O6 2.152591 1_455
Co1 O7 2.152792 1_454
Co1 O4 2.152795 1_545
O0 V1 1.714209 1_555
O1 V1 1.719876 1_555
O2 V0 1.719853 1_555
O3 V0 1.714199 1_555
O4 V1 1.783895 1_555
O5 V0 1.784295 1_555
O6 V1 1.784290 1_555
O7 V0 1.783910 1_555
