# generated using pymatgen
data_Li2AlFeO4
_symmetry_space_group_name_H-M   'P 1'
_cell_length_a   5.30138500
_cell_length_b   10.37409800
_cell_length_c   13.81865500
_cell_angle_alpha   90.00000000
_cell_angle_beta   90.00000000
_cell_angle_gamma   90.00000000
_symmetry_Int_Tables_number   1
_chemical_formula_structural   Li2AlFeO4
_chemical_formula_sum   'Li16 Al8 Fe8 O32'
_cell_volume   759.98577852
_cell_formula_units_Z   8
loop_
 _symmetry_equiv_pos_site_id
 _symmetry_equiv_pos_as_xyz
  1  'x, y, z'
loop_
 _atom_site_type_symbol
 _atom_site_label
 _atom_site_symmetry_multiplicity
 _atom_site_fract_x
 _atom_site_fract_y
 _atom_site_fract_z
 _atom_site_occupancy
  Li  Li0  1  0.00680200  0.97240100  0.55512600  1
  Li  Li1  1  0.50150100  0.97610300  0.94580900  1
  Li  Li2  1  0.87797200  0.20824500  0.21014400  1
  Li  Li3  1  0.37198100  0.20710300  0.28875000  1
  Li  Li4  1  0.87797200  0.29175500  0.71014400  1
  Li  Li5  1  0.37198100  0.29289700  0.78875000  1
  Li  Li6  1  0.50150100  0.52389700  0.44580900  1
  Li  Li7  1  0.00680200  0.52759900  0.05512600  1
  Li  Li8  1  0.49849900  0.47610300  0.94580900  1
  Li  Li9  1  0.99319800  0.47240100  0.55512600  1
  Li  Li10  1  0.62801900  0.70710300  0.28875000  1
  Li  Li11  1  0.12202800  0.70824500  0.21014400  1
  Li  Li12  1  0.62801900  0.79289700  0.78875000  1
  Li  Li13  1  0.12202800  0.79175500  0.71014400  1
  Li  Li14  1  0.99319800  0.02759900  0.05512600  1
  Li  Li15  1  0.49849900  0.02389700  0.44580900  1
  Al  Al0  1  0.00495300  0.03254200  0.80953200  1
  Al  Al1  1  0.49404700  0.21400200  0.06481200  1
  Al  Al2  1  0.49404700  0.28599800  0.56481200  1
  Al  Al3  1  0.00495300  0.46745800  0.30953200  1
  Al  Al4  1  0.99504700  0.53254200  0.80953200  1
  Al  Al5  1  0.50595300  0.71400200  0.06481200  1
  Al  Al6  1  0.50595300  0.78599800  0.56481200  1
  Al  Al7  1  0.99504700  0.96745800  0.30953200  1
  Fe  Fe0  1  0.50402300  0.03257200  0.68902400  1
  Fe  Fe1  1  0.99506000  0.21383700  0.43677200  1
  Fe  Fe2  1  0.99506000  0.28616300  0.93677200  1
  Fe  Fe3  1  0.50402300  0.46742800  0.18902400  1
  Fe  Fe4  1  0.49597700  0.53257200  0.68902400  1
  Fe  Fe5  1  0.00494000  0.71383700  0.43677200  1
  Fe  Fe6  1  0.00494000  0.78616300  0.93677200  1
  Fe  Fe7  1  0.49597700  0.96742800  0.18902400  1
  O  O0  1  0.31946500  0.01780700  0.30412000  1
  O  O1  1  0.84126400  0.02020900  0.20060800  1
  O  O2  1  0.35218700  0.06088500  0.08450900  1
  O  O3  1  0.85935800  0.04846400  0.41062300  1
  O  O4  1  0.05688600  0.20288500  0.81412100  1
  O  O5  1  0.55637500  0.21502100  0.68084900  1
  O  O6  1  0.30965100  0.17701100  0.49689100  1
  O  O7  1  0.78627400  0.17594800  0.00877300  1
  O  O8  1  0.30965100  0.32298900  0.99689100  1
  O  O9  1  0.78627400  0.32405200  0.50877300  1
  O  O10  1  0.55637500  0.28497900  0.18084900  1
  O  O11  1  0.05688600  0.29711500  0.31412100  1
  O  O12  1  0.35218700  0.43911500  0.58450900  1
  O  O13  1  0.85935800  0.45153600  0.91062300  1
  O  O14  1  0.31946500  0.48219300  0.80412000  1
  O  O15  1  0.84126400  0.47979100  0.70060800  1
  O  O16  1  0.15873600  0.52020900  0.20060800  1
  O  O17  1  0.68053500  0.51780700  0.30412000  1
  O  O18  1  0.14064200  0.54846400  0.41062300  1
  O  O19  1  0.64781300  0.56088500  0.08450900  1
  O  O20  1  0.44362500  0.71502100  0.68084900  1
  O  O21  1  0.94311400  0.70288500  0.81412100  1
  O  O22  1  0.21372600  0.67594800  0.00877300  1
  O  O23  1  0.69034900  0.67701100  0.49689100  1
  O  O24  1  0.21372600  0.82405200  0.50877300  1
  O  O25  1  0.69034900  0.82298900  0.99689100  1
  O  O26  1  0.44362500  0.78497900  0.18084900  1
  O  O27  1  0.94311400  0.79711500  0.31412100  1
  O  O28  1  0.14064200  0.95153600  0.91062300  1
  O  O29  1  0.64781300  0.93911500  0.58450900  1
  O  O30  1  0.15873600  0.97979100  0.70060800  1
  O  O31  1  0.68053500  0.98219300  0.80412000  1
loop_
_geom_bond_atom_site_label_1
_geom_bond_atom_site_label_2
_geom_bond_distance
_geom_bond_site_symmetry_2
Li0 O29 1.976371 1_455
Li0 O24 1.995530 1_555
Li0 O30 2.167075 1_555
Li0 O3 2.284951 1_465
Li1 O28 1.990260 1_555
Li1 O25 2.005907 1_555
Li1 O31 2.176789 1_555
Li1 O2 2.252489 1_566
Li2 O10 1.924651 1_555
Li2 O11 1.952967 1_655
Li2 O1 1.964811 1_555
Li3 O11 1.945573 1_555
Li3 O10 1.957423 1_555
Li3 O0 1.994752 1_555
Li4 O5 1.924651 1_555
Li4 O4 1.952967 1_655
Li4 O15 1.964811 1_555
Li5 O4 1.945573 1_555
Li5 O5 1.957423 1_555
Li5 O14 1.994752 1_555
Li6 O18 1.990260 1_555
Li6 O23 2.005907 1_555
Li6 O17 2.176789 1_555
Li6 O12 2.252489 1_555
Li7 O19 1.976371 1_455
Li7 O22 1.995530 1_555
Li7 O16 2.167075 1_555
Li7 O13 2.284951 1_454
Li8 O13 1.990260 1_555
Li8 O8 2.005907 1_555
Li8 O14 2.176789 1_555
Li8 O19 2.252489 1_556
Li9 O12 1.976371 1_655
Li9 O9 1.995530 1_555
Li9 O15 2.167075 1_555
Li9 O18 2.284951 1_655
Li10 O27 1.945573 1_555
Li10 O26 1.957423 1_555
Li10 O17 1.994752 1_555
Li11 O26 1.924651 1_555
Li11 O27 1.952967 1_455
Li11 O16 1.964811 1_555
Li12 O21 1.945573 1_555
Li12 O20 1.957423 1_555
Li12 O31 1.994752 1_555
Li13 O20 1.924651 1_555
Li13 O21 1.952967 1_455
Li13 O30 1.964811 1_555
Li14 O2 1.976371 1_655
Li14 O7 1.995530 1_555
Li14 O1 2.167075 1_555
Li14 O28 2.284951 1_644
Li15 O3 1.990260 1_555
Li15 O6 2.005907 1_555
Li15 O0 2.176789 1_555
Li15 O29 2.252489 1_545
Al0 O28 1.781883 1_545
Al0 O4 1.789597 1_555
Al0 O30 1.797138 1_545
Al0 O31 1.798986 1_445
Al1 O8 1.764905 1_554
Al1 O7 1.776390 1_555
Al1 O2 1.778439 1_555
Al1 O10 1.795128 1_555
Al2 O6 1.764905 1_555
Al2 O9 1.776390 1_555
Al2 O12 1.778439 1_555
Al2 O5 1.795128 1_555
Al3 O18 1.781883 1_555
Al3 O11 1.789597 1_555
Al3 O16 1.797138 1_555
Al3 O17 1.798986 1_455
Al4 O13 1.781883 1_555
Al4 O21 1.789597 1_555
Al4 O15 1.797138 1_555
Al4 O14 1.798986 1_655
Al5 O25 1.764905 1_554
Al5 O22 1.776390 1_555
Al5 O19 1.778439 1_555
Al5 O26 1.795128 1_555
Al6 O23 1.764905 1_555
Al6 O24 1.776390 1_555
Al6 O29 1.778439 1_555
Al6 O20 1.795128 1_555
Al7 O3 1.781883 1_565
Al7 O27 1.789597 1_555
Al7 O1 1.797138 1_565
Al7 O0 1.798986 1_665
Fe0 O29 1.899197 1_545
Fe0 O5 1.916316 1_555
Fe0 O30 1.917334 1_545
Fe0 O31 1.917914 1_545
Fe1 O9 1.876803 1_555
Fe1 O3 1.895095 1_555
Fe1 O6 1.901991 1_655
Fe1 O11 1.930389 1_655
Fe2 O7 1.876803 1_556
Fe2 O13 1.895095 1_555
Fe2 O8 1.901991 1_655
Fe2 O4 1.930389 1_655
Fe3 O19 1.899197 1_555
Fe3 O10 1.916316 1_555
Fe3 O16 1.917334 1_555
Fe3 O17 1.917914 1_555
Fe4 O12 1.899197 1_555
Fe4 O20 1.916316 1_555
Fe4 O15 1.917334 1_555
Fe4 O14 1.917914 1_555
Fe5 O24 1.876803 1_555
Fe5 O18 1.895095 1_555
Fe5 O23 1.901991 1_455
Fe5 O27 1.930389 1_455
Fe6 O22 1.876803 1_556
Fe6 O28 1.895095 1_555
Fe6 O25 1.901991 1_455
Fe6 O21 1.930389 1_455
Fe7 O2 1.899197 1_565
Fe7 O26 1.916316 1_555
Fe7 O1 1.917334 1_565
Fe7 O0 1.917914 1_565
