# generated using pymatgen
data_Na3Ti2(PO4)3
_symmetry_space_group_name_H-M   'P 1'
_cell_length_a   9.15021670
_cell_length_b   9.15021670
_cell_length_c   9.15021698
_cell_angle_alpha   58.19727579
_cell_angle_beta   58.19727579
_cell_angle_gamma   58.19727514
_symmetry_Int_Tables_number   1
_chemical_formula_structural   Na3Ti2(PO4)3
_chemical_formula_sum   'Na6 Ti4 P6 O24'
_cell_volume   519.34767488
_cell_formula_units_Z   2
loop_
 _symmetry_equiv_pos_site_id
 _symmetry_equiv_pos_as_xyz
  1  'x, y, z'
loop_
 _atom_site_type_symbol
 _atom_site_label
 _atom_site_symmetry_multiplicity
 _atom_site_fract_x
 _atom_site_fract_y
 _atom_site_fract_z
 _atom_site_occupancy
  Na  Na0  1  0.08699500  0.33816000  0.74848500  1
  Na  Na1  1  0.25151500  0.91300500  0.66184000  1
  Na  Na2  1  0.66184000  0.25151500  0.91300500  1
  Na  Na3  1  0.33816000  0.74848500  0.08699500  1
  Na  Na4  1  0.74848500  0.08699500  0.33816000  1
  Na  Na5  1  0.91300500  0.66184000  0.25151500  1
  Ti  Ti0  1  0.85234400  0.85234400  0.85234400  1
  Ti  Ti1  1  0.64967900  0.64967900  0.64967900  1
  Ti  Ti2  1  0.35032100  0.35032100  0.35032100  1
  Ti  Ti3  1  0.14765600  0.14765600  0.14765600  1
  P  P0  1  0.24825700  0.53514900  0.96292000  1
  P  P1  1  0.03708000  0.75174300  0.46485100  1
  P  P2  1  0.46485100  0.03708000  0.75174300  1
  P  P3  1  0.53514900  0.96292000  0.24825700  1
  P  P4  1  0.96292000  0.24825700  0.53514900  1
  P  P5  1  0.75174300  0.46485100  0.03708000  1
  O  O0  1  0.48296700  0.85089900  0.76381500  1
  O  O1  1  0.76381500  0.48296700  0.85089900  1
  O  O2  1  0.21338900  0.37450400  0.98910700  1
  O  O3  1  0.09599400  0.72115000  0.91021600  1
  O  O4  1  0.85089900  0.76381500  0.48296700  1
  O  O5  1  0.27885000  0.08978400  0.90400600  1
  O  O6  1  0.01089300  0.78661100  0.62549600  1
  O  O7  1  0.43875500  0.54025100  0.81713300  1
  O  O8  1  0.18286700  0.56124500  0.45974900  1
  O  O9  1  0.62549600  0.01089300  0.78661100  1
  O  O10  1  0.08978400  0.90400600  0.27885000  1
  O  O11  1  0.45974900  0.18286700  0.56124500  1
  O  O12  1  0.54025100  0.81713300  0.43875500  1
  O  O13  1  0.91021600  0.09599400  0.72115000  1
  O  O14  1  0.37450400  0.98910700  0.21338900  1
  O  O15  1  0.81713300  0.43875500  0.54025100  1
  O  O16  1  0.56124500  0.45974900  0.18286700  1
  O  O17  1  0.98910700  0.21338900  0.37450400  1
  O  O18  1  0.72115000  0.91021600  0.09599400  1
  O  O19  1  0.14910100  0.23618500  0.51703300  1
  O  O20  1  0.90400600  0.27885000  0.08978400  1
  O  O21  1  0.78661100  0.62549600  0.01089300  1
  O  O22  1  0.23618500  0.51703300  0.14910100  1
  O  O23  1  0.51703300  0.14910100  0.23618500  1
loop_
_geom_bond_atom_site_label_1
_geom_bond_atom_site_label_2
_geom_bond_distance
_geom_bond_site_symmetry_2
Na0 O5 2.300255 1_555
Na0 O1 2.374182 1_455
Na0 O8 2.382616 1_555
Na0 O19 2.436036 1_555
Na0 O20 2.551669 1_456
Na0 O11 2.808281 1_555
Na1 O3 2.300255 1_555
Na1 O19 2.374182 1_565
Na1 O12 2.382616 1_555
Na1 O0 2.436036 1_555
Na1 O13 2.551669 1_465
Na1 O7 2.808281 1_555
Na2 O13 2.300255 1_555
Na2 O23 2.374182 1_556
Na2 O7 2.382616 1_555
Na2 O1 2.436036 1_555
Na2 O18 2.551669 1_546
Na2 O15 2.808281 1_555
Na3 O10 2.300255 1_555
Na3 O0 2.374182 1_554
Na3 O16 2.382616 1_555
Na3 O22 2.436036 1_555
Na3 O5 2.551669 1_564
Na3 O8 2.808281 1_555
Na4 O20 2.300255 1_555
Na4 O4 2.374182 1_545
Na4 O11 2.382616 1_555
Na4 O23 2.436036 1_555
Na4 O10 2.551669 1_645
Na4 O16 2.808281 1_555
Na5 O18 2.300255 1_555
Na5 O22 2.374182 1_655
Na5 O15 2.382616 1_555
Na5 O4 2.436036 1_555
Na5 O3 2.551669 1_654
Na5 O12 2.808281 1_555
O0 P2 1.570106 1_565
O0 Ti1 2.048170 1_555
O1 P5 1.570106 1_556
O1 Ti1 2.048171 1_555
O2 P0 1.537014 1_555
O2 Ti3 1.999319 1_556
O3 P0 1.553754 1_555
O3 Ti0 2.108415 1_455
O4 P1 1.570106 1_655
O4 Ti1 2.048170 1_555
O5 P2 1.553754 1_555
O5 Ti3 2.108415 1_556
O6 P1 1.537014 1_555
O6 Ti0 1.999319 1_455
O7 P0 1.545769 1_555
O7 Ti1 2.092398 1_555
O8 P1 1.545769 1_555
O8 Ti2 2.092398 1_555
O9 P2 1.537014 1_555
O9 Ti0 1.999319 1_545
O10 P1 1.553754 1_555
O10 Ti3 2.108415 1_565
O11 P2 1.545769 1_555
O11 Ti2 2.092398 1_555
O12 P3 1.545769 1_555
O12 Ti1 2.092398 1_555
O13 P4 1.553754 1_555
O13 Ti0 2.108415 1_545
O14 P3 1.537014 1_555
O14 Ti3 1.999319 1_565
O15 P4 1.545769 1_555
O15 Ti1 2.092398 1_555
O16 P5 1.545769 1_555
O16 Ti2 2.092398 1_555
O17 P4 1.537014 1_555
O17 Ti3 1.999319 1_655
O18 P3 1.553754 1_555
O18 Ti0 2.108415 1_554
O19 P4 1.570106 1_455
O19 Ti2 2.048170 1_555
O20 P5 1.553754 1_555
O20 Ti3 2.108415 1_655
O21 P5 1.537014 1_555
O21 Ti0 1.999319 1_554
O22 P0 1.570106 1_554
O22 Ti2 2.048171 1_555
O23 P3 1.570106 1_545
O23 Ti2 2.048170 1_555
