# generated using pymatgen
data_Cr2(MoO4)3
_symmetry_space_group_name_H-M   'P 1'
_cell_length_a   9.37112800
_cell_length_b   15.87106100
_cell_length_c   15.98614800
_cell_angle_alpha   70.92759766
_cell_angle_beta   90.00000000
_cell_angle_gamma   90.00000000
_symmetry_Int_Tables_number   1
_chemical_formula_structural   Cr2(MoO4)3
_chemical_formula_sum   'Cr16 Mo24 O96'
_cell_volume   2247.09984814
_cell_formula_units_Z   8
loop_
 _symmetry_equiv_pos_site_id
 _symmetry_equiv_pos_as_xyz
  1  'x, y, z'
loop_
 _atom_site_type_symbol
 _atom_site_label
 _atom_site_symmetry_multiplicity
 _atom_site_fract_x
 _atom_site_fract_y
 _atom_site_fract_z
 _atom_site_occupancy
  Cr  Cr0  1  0.52530100  0.06629300  0.81527600  1
  Cr  Cr1  1  0.97469900  0.56629300  0.81527600  1
  Cr  Cr2  1  0.98140800  0.69045300  0.41732500  1
  Cr  Cr3  1  0.48140800  0.80954700  0.58267500  1
  Cr  Cr4  1  0.53592500  0.56404400  0.31793800  1
  Cr  Cr5  1  0.46407500  0.43595600  0.68206200  1
  Cr  Cr6  1  0.51859200  0.19045300  0.41732500  1
  Cr  Cr7  1  0.45689400  0.32478300  0.04904100  1
  Cr  Cr8  1  0.03592500  0.93595600  0.68206200  1
  Cr  Cr9  1  0.96407500  0.06404400  0.31793800  1
  Cr  Cr10  1  0.95689400  0.17521700  0.95095900  1
  Cr  Cr11  1  0.04310600  0.82478300  0.04904100  1
  Cr  Cr12  1  0.01859200  0.30954700  0.58267500  1
  Cr  Cr13  1  0.54310600  0.67521700  0.95095900  1
  Cr  Cr14  1  0.47469900  0.93370700  0.18472400  1
  Cr  Cr15  1  0.02530100  0.43370700  0.18472400  1
  Mo  Mo0  1  0.87204200  0.63927400  0.21329700  1
  Mo  Mo1  1  0.74501000  0.98159800  0.01925500  1
  Mo  Mo2  1  0.74903500  0.99360600  0.51055100  1
  Mo  Mo3  1  0.24501000  0.51840200  0.98074500  1
  Mo  Mo4  1  0.24903500  0.50639400  0.48944900  1
  Mo  Mo5  1  0.75096500  0.49360600  0.51055100  1
  Mo  Mo6  1  0.37869900  0.72508300  0.13505100  1
  Mo  Mo7  1  0.61950500  0.76819300  0.38326100  1
  Mo  Mo8  1  0.75499000  0.48159800  0.01925500  1
  Mo  Mo9  1  0.37204200  0.86072600  0.78670300  1
  Mo  Mo10  1  0.62130100  0.27491700  0.86494900  1
  Mo  Mo11  1  0.61604400  0.61097300  0.74789200  1
  Mo  Mo12  1  0.88395600  0.11097300  0.74789200  1
  Mo  Mo13  1  0.87869900  0.77491700  0.86494900  1
  Mo  Mo14  1  0.62795800  0.13927400  0.21329700  1
  Mo  Mo15  1  0.88049500  0.26819300  0.38326100  1
  Mo  Mo16  1  0.11604400  0.88902700  0.25210800  1
  Mo  Mo17  1  0.12795800  0.36072600  0.78670300  1
  Mo  Mo18  1  0.38395600  0.38902700  0.25210800  1
  Mo  Mo19  1  0.12130100  0.22508300  0.13505100  1
  Mo  Mo20  1  0.25499000  0.01840200  0.98074500  1
  Mo  Mo21  1  0.38049500  0.23180700  0.61673900  1
  Mo  Mo22  1  0.11950500  0.73180700  0.61673900  1
  Mo  Mo23  1  0.25096500  0.00639400  0.48944900  1
  O  O0  1  0.39842200  0.76130000  0.87940400  1
  O  O1  1  0.79129600  0.56444400  0.75116500  1
  O  O2  1  0.35188200  0.90593800  0.50607600  1
  O  O3  1  0.31811600  0.50348300  0.59501700  1
  O  O4  1  0.89842200  0.73870000  0.12059600  1
  O  O5  1  0.91758800  0.68154800  0.82966000  1
  O  O6  1  0.18922000  0.22971100  0.60907200  1
  O  O7  1  0.42352800  0.37801100  0.14605200  1
  O  O8  1  0.92352800  0.12198900  0.85394800  1
  O  O9  1  0.20870400  0.43555600  0.24883500  1
  O  O10  1  0.35820600  0.10412200  0.45073000  1
  O  O11  1  0.53395700  0.04857200  0.19618900  1
  O  O12  1  0.38833900  0.28173300  0.33613200  1
  O  O13  1  0.53471200  0.76450900  0.48471600  1
  O  O14  1  0.42958200  0.13088000  0.70130700  1
  O  O15  1  0.14179400  0.60412200  0.45073000  1
  O  O16  1  0.11153100  0.12535400  0.22910900  1
  O  O17  1  0.12123300  0.49991100  0.07030700  1
  O  O18  1  0.31078000  0.72971100  0.60907200  1
  O  O19  1  0.57041800  0.86912000  0.29869300  1
  O  O20  1  0.68805600  0.58688500  0.02232400  1
  O  O21  1  0.00333400  0.77862900  0.94881200  1
  O  O22  1  0.69775900  0.76536600  0.90362300  1
  O  O23  1  0.60157800  0.23870000  0.12059600  1
  O  O24  1  0.93766400  0.65358300  0.31248300  1
  O  O25  1  0.11172100  0.01148400  0.41116000  1
  O  O26  1  0.41758800  0.81845200  0.17034000  1
  O  O27  1  0.49666600  0.27862900  0.94881200  1
  O  O28  1  0.65698600  0.92712700  0.12214100  1
  O  O29  1  0.99666600  0.22137100  0.05118800  1
  O  O30  1  0.18188400  0.00348300  0.59501700  1
  O  O31  1  0.11238400  0.08662400  0.99643100  1
  O  O32  1  0.46528800  0.23549100  0.51528400  1
  O  O33  1  0.88846900  0.87464600  0.77089100  1
  O  O34  1  0.08241200  0.31845200  0.17034000  1
  O  O35  1  0.11166100  0.78173300  0.33613200  1
  O  O36  1  0.96604300  0.54857200  0.19618900  1
  O  O37  1  0.38761600  0.58662400  0.99643100  1
  O  O38  1  0.61166100  0.71826700  0.66386800  1
  O  O39  1  0.61153100  0.37464600  0.77089100  1
  O  O40  1  0.46604300  0.95142800  0.80381100  1
  O  O41  1  0.56233600  0.15358300  0.31248300  1
  O  O42  1  0.43821200  0.32826400  0.64251200  1
  O  O43  1  0.18401000  0.88225300  0.77418700  1
  O  O44  1  0.01596600  0.04094700  0.72362200  1
  O  O45  1  0.03395700  0.45142800  0.80381100  1
  O  O46  1  0.81811600  0.99651700  0.40498300  1
  O  O47  1  0.85188200  0.59406200  0.49392400  1
  O  O48  1  0.56178800  0.67173600  0.35748800  1
  O  O49  1  0.84301400  0.42712700  0.12214100  1
  O  O50  1  0.88761600  0.91337600  0.00356900  1
  O  O51  1  0.57647200  0.62198900  0.85394800  1
  O  O52  1  0.14811800  0.40593800  0.50607600  1
  O  O53  1  0.80224100  0.26536600  0.90362300  1
  O  O54  1  0.07041800  0.63088000  0.70130700  1
  O  O55  1  0.88827900  0.98851600  0.58884000  1
  O  O56  1  0.81078000  0.77028900  0.39092800  1
  O  O57  1  0.98403400  0.95905300  0.27637800  1
  O  O58  1  0.03471200  0.73549100  0.51528400  1
  O  O59  1  0.48403400  0.54094700  0.72362200  1
  O  O60  1  0.87876700  0.50008900  0.92969300  1
  O  O61  1  0.81599000  0.11774700  0.22581300  1
  O  O62  1  0.10157800  0.26130000  0.87940400  1
  O  O63  1  0.61238400  0.41337600  0.00356900  1
  O  O64  1  0.31599000  0.38225300  0.77418700  1
  O  O65  1  0.18805600  0.91311500  0.97767600  1
  O  O66  1  0.34301400  0.07287300  0.87785900  1
  O  O67  1  0.38846900  0.62535400  0.22910900  1
  O  O68  1  0.51596600  0.45905300  0.27637800  1
  O  O69  1  0.19775900  0.73463400  0.09637700  1
  O  O70  1  0.70870400  0.06444400  0.75116500  1
  O  O71  1  0.37876700  0.99991100  0.07030700  1
  O  O72  1  0.64179400  0.89587800  0.54927000  1
  O  O73  1  0.50333400  0.72137100  0.05118800  1
  O  O74  1  0.38827900  0.51148400  0.41116000  1
  O  O75  1  0.06233600  0.34641700  0.68751700  1
  O  O76  1  0.96528800  0.26450900  0.48471600  1
  O  O77  1  0.61172100  0.48851600  0.58884000  1
  O  O78  1  0.93821200  0.17173600  0.35748800  1
  O  O79  1  0.64811800  0.09406200  0.49392400  1
  O  O80  1  0.15698600  0.57287300  0.87785900  1
  O  O81  1  0.68922000  0.27028900  0.39092800  1
  O  O82  1  0.88833900  0.21826700  0.66386800  1
  O  O83  1  0.81194400  0.08688500  0.02232400  1
  O  O84  1  0.68401000  0.61774700  0.22581300  1
  O  O85  1  0.85820600  0.39587800  0.54927000  1
  O  O86  1  0.68188400  0.49651700  0.40498300  1
  O  O87  1  0.92958200  0.36912000  0.29869300  1
  O  O88  1  0.29129600  0.93555600  0.24883500  1
  O  O89  1  0.06178800  0.82826400  0.64251200  1
  O  O90  1  0.31194400  0.41311500  0.97767600  1
  O  O91  1  0.58241200  0.18154800  0.82966000  1
  O  O92  1  0.62123300  0.00008900  0.92969300  1
  O  O93  1  0.43766400  0.84641700  0.68751700  1
  O  O94  1  0.07647200  0.87801100  0.14605200  1
  O  O95  1  0.30224100  0.23463400  0.09637700  1
loop_
_geom_bond_atom_site_label_1
_geom_bond_atom_site_label_2
_geom_bond_distance
_geom_bond_site_symmetry_2
Cr0 O40 1.970726 1_545
Cr0 O14 1.988530 1_555
Cr0 O91 1.990034 1_555
Cr0 O66 1.999544 1_555
Cr0 O92 2.000445 1_555
Cr0 O70 2.006195 1_555
Cr1 O45 1.970726 1_655
Cr1 O54 1.988530 1_655
Cr1 O5 1.990034 1_555
Cr1 O80 1.999544 1_655
Cr1 O60 2.000445 1_555
Cr1 O1 2.006195 1_555
Cr2 O15 1.985787 1_655
Cr2 O58 1.986029 1_655
Cr2 O24 1.990088 1_555
Cr2 O56 1.997714 1_555
Cr2 O35 2.011096 1_655
Cr2 O47 2.022102 1_555
Cr3 O72 1.985787 1_555
Cr3 O13 1.986029 1_555
Cr3 O93 1.990088 1_555
Cr3 O18 1.997714 1_555
Cr3 O38 2.011096 1_555
Cr3 O2 2.022102 1_555
Cr4 O67 1.992426 1_555
Cr4 O68 1.994119 1_555
Cr4 O86 1.995287 1_555
Cr4 O84 2.000205 1_555
Cr4 O74 2.004665 1_555
Cr4 O48 2.021392 1_555
Cr5 O39 1.992426 1_555
Cr5 O59 1.994119 1_555
Cr5 O3 1.995287 1_555
Cr5 O64 2.000205 1_555
Cr5 O77 2.004665 1_555
Cr5 O42 2.021392 1_555
Cr6 O10 1.985787 1_555
Cr6 O32 1.986029 1_555
Cr6 O41 1.990088 1_555
Cr6 O81 1.997714 1_555
Cr6 O12 2.011096 1_555
Cr6 O79 2.022102 1_555
Cr7 O63 1.990139 1_555
Cr7 O23 1.998014 1_555
Cr7 O27 2.002451 1_554
Cr7 O95 2.003130 1_555
Cr7 O90 2.016629 1_554
Cr7 O7 2.018094 1_555
Cr8 O33 1.992426 1_455
Cr8 O44 1.994119 1_565
Cr8 O30 1.995287 1_565
Cr8 O43 2.000205 1_555
Cr8 O55 2.004665 1_455
Cr8 O89 2.021392 1_555
Cr9 O16 1.992426 1_655
Cr9 O57 1.994119 1_545
Cr9 O46 1.995287 1_545
Cr9 O61 2.000205 1_555
Cr9 O25 2.004665 1_655
Cr9 O78 2.021392 1_555
Cr10 O31 1.990139 1_655
Cr10 O62 1.998014 1_655
Cr10 O29 2.002451 1_556
Cr10 O53 2.003130 1_555
Cr10 O83 2.016629 1_556
Cr10 O8 2.018094 1_555
Cr11 O50 1.990139 1_455
Cr11 O4 1.998014 1_455
Cr11 O21 2.002451 1_554
Cr11 O69 2.003130 1_555
Cr11 O65 2.016629 1_554
Cr11 O94 2.018094 1_555
Cr12 O85 1.985787 1_455
Cr12 O76 1.986029 1_455
Cr12 O75 1.990088 1_555
Cr12 O6 1.997714 1_555
Cr12 O82 2.011096 1_455
Cr12 O52 2.022102 1_555
Cr13 O37 1.990139 1_555
Cr13 O0 1.998014 1_555
Cr13 O73 2.002451 1_556
Cr13 O22 2.003130 1_555
Cr13 O20 2.016629 1_556
Cr13 O51 2.018094 1_555
Cr14 O11 1.970726 1_565
Cr14 O19 1.988530 1_555
Cr14 O26 1.990034 1_555
Cr14 O28 1.999544 1_555
Cr14 O71 2.000445 1_555
Cr14 O88 2.006195 1_555
Cr15 O36 1.970726 1_455
Cr15 O87 1.988530 1_455
Cr15 O34 1.990034 1_555
Cr15 O49 1.999544 1_455
Cr15 O17 2.000445 1_555
Cr15 O9 2.006195 1_555
Mo0 O24 1.783031 1_555
Mo0 O36 1.783349 1_555
Mo0 O84 1.793596 1_555
Mo0 O4 1.794171 1_555
Mo1 O50 1.788460 1_555
Mo1 O28 1.789907 1_555
Mo1 O92 1.790776 1_564
Mo1 O83 1.800478 1_565
Mo2 O72 1.780847 1_555
Mo2 O55 1.791507 1_555
Mo2 O46 1.793974 1_555
Mo2 O79 1.797218 1_565
Mo3 O37 1.788460 1_555
Mo3 O80 1.789907 1_555
Mo3 O17 1.790776 1_556
Mo3 O90 1.800478 1_555
Mo4 O15 1.780847 1_555
Mo4 O74 1.791507 1_555
Mo4 O3 1.793974 1_555
Mo4 O52 1.797218 1_555
Mo5 O85 1.780847 1_555
Mo5 O77 1.791507 1_555
Mo5 O86 1.793974 1_555
Mo5 O47 1.797218 1_555
Mo6 O26 1.786985 1_555
Mo6 O73 1.793481 1_555
Mo6 O69 1.794175 1_555
Mo6 O67 1.794210 1_555
Mo7 O19 1.786022 1_555
Mo7 O13 1.789782 1_555
Mo7 O48 1.793900 1_555
Mo7 O56 1.797697 1_555
Mo8 O63 1.788460 1_555
Mo8 O49 1.789907 1_555
Mo8 O60 1.790776 1_554
Mo8 O20 1.800478 1_555
Mo9 O93 1.783031 1_555
Mo9 O40 1.783349 1_555
Mo9 O43 1.793596 1_555
Mo9 O0 1.794171 1_555
Mo10 O91 1.786985 1_555
Mo10 O27 1.793481 1_555
Mo10 O53 1.794175 1_555
Mo10 O39 1.794210 1_555
Mo11 O59 1.788263 1_555
Mo11 O38 1.791889 1_555
Mo11 O1 1.794434 1_555
Mo11 O51 1.798965 1_555
Mo12 O44 1.788263 1_655
Mo12 O82 1.791889 1_555
Mo12 O70 1.794434 1_555
Mo12 O8 1.798965 1_555
Mo13 O5 1.786985 1_555
Mo13 O21 1.793481 1_655
Mo13 O22 1.794175 1_555
Mo13 O33 1.794210 1_555
Mo14 O41 1.783031 1_555
Mo14 O11 1.783349 1_555
Mo14 O61 1.793596 1_555
Mo14 O23 1.794171 1_555
Mo15 O87 1.786022 1_555
Mo15 O76 1.789782 1_555
Mo15 O78 1.793900 1_555
Mo15 O81 1.797697 1_555
Mo16 O57 1.788263 1_455
Mo16 O35 1.791889 1_555
Mo16 O88 1.794434 1_555
Mo16 O94 1.798965 1_555
Mo17 O75 1.783031 1_555
Mo17 O45 1.783349 1_555
Mo17 O64 1.793596 1_555
Mo17 O62 1.794171 1_555
Mo18 O68 1.788263 1_555
Mo18 O12 1.791889 1_555
Mo18 O9 1.794434 1_555
Mo18 O7 1.798965 1_555
Mo19 O34 1.786985 1_555
Mo19 O29 1.793481 1_455
Mo19 O95 1.794175 1_555
Mo19 O16 1.794210 1_555
Mo20 O31 1.788460 1_555
Mo20 O66 1.789907 1_555
Mo20 O71 1.790776 1_546
Mo20 O65 1.800478 1_545
Mo21 O14 1.786022 1_555
Mo21 O32 1.789782 1_555
Mo21 O42 1.793900 1_555
Mo21 O6 1.797697 1_555
Mo22 O54 1.786022 1_555
Mo22 O58 1.789782 1_555
Mo22 O89 1.793900 1_555
Mo22 O18 1.797697 1_555
Mo23 O10 1.780847 1_555
Mo23 O25 1.791507 1_555
Mo23 O30 1.793974 1_555
Mo23 O2 1.797218 1_545
