# generated using pymatgen
data_Li4V3P8O29
_symmetry_space_group_name_H-M   'P 1'
_cell_length_a   9.75248900
_cell_length_b   9.75540145
_cell_length_c   14.29849382
_cell_angle_alpha   89.69678897
_cell_angle_beta   89.80609109
_cell_angle_gamma   60.39215202
_symmetry_Int_Tables_number   1
_chemical_formula_structural   Li4V3P8O29
_chemical_formula_sum   'Li8 V6 P16 O58'
_cell_volume   1182.70902536
_cell_formula_units_Z   2
loop_
 _symmetry_equiv_pos_site_id
 _symmetry_equiv_pos_as_xyz
  1  'x, y, z'
loop_
 _atom_site_type_symbol
 _atom_site_label
 _atom_site_symmetry_multiplicity
 _atom_site_fract_x
 _atom_site_fract_y
 _atom_site_fract_z
 _atom_site_occupancy
  Li  Li0  1  0.33110000  0.90750500  0.43640700  1
  Li  Li1  1  0.32615100  0.76681900  0.93883700  1
  Li  Li2  1  0.90483400  0.33637400  0.93729000  1
  Li  Li3  1  0.76579300  0.33319800  0.44139500  1
  Li  Li4  1  0.09314400  0.66980600  0.06087800  1
  Li  Li5  1  0.67364100  0.09127800  0.56145000  1
  Li  Li6  1  0.94088900  0.04182200  0.00277100  1
  Li  Li7  1  0.03364000  0.94556900  0.50081100  1
  V  V0  1  0.43267400  0.56370100  0.74846300  1
  V  V1  1  0.56424400  0.43294800  0.24826300  1
  V  V2  1  0.99621500  0.56692100  0.25532700  1
  V  V3  1  0.00103700  0.43574200  0.74562300  1
  V  V4  1  0.56631900  0.99653400  0.75628900  1
  V  V5  1  0.43611100  0.00153900  0.24741500  1
  P  P0  1  0.78281000  0.91728400  0.16338700  1
  P  P1  1  0.91621400  0.78313400  0.66307300  1
  P  P2  1  0.31355200  0.91402600  0.65614300  1
  P  P3  1  0.66898800  0.66052200  0.86796800  1
  P  P4  1  0.66376200  0.66379600  0.36838500  1
  P  P5  1  0.31695700  0.77238900  0.15692500  1
  P  P6  1  0.22181800  0.69305400  0.33684200  1
  P  P7  1  0.91243100  0.31435800  0.15543100  1
  P  P8  1  0.08611400  0.68441300  0.84513700  1
  P  P9  1  0.77210600  0.31659000  0.65625200  1
  P  P10  1  0.69281100  0.22230700  0.83652000  1
  P  P11  1  0.33927400  0.32577600  0.63438900  1
  P  P12  1  0.32593100  0.34049100  0.13391700  1
  P  P13  1  0.68656200  0.08640000  0.34545300  1
  P  P14  1  0.08408600  0.21790300  0.33537600  1
  P  P15  1  0.21592000  0.08558900  0.83549600  1
  O  O0  1  0.76388100  0.01784200  0.43700100  1
  O  O1  1  0.73948200  0.92071700  0.66810200  1
  O  O2  1  0.01736800  0.75873200  0.93695000  1
  O  O3  1  0.92064000  0.74080900  0.16847100  1
  O  O4  1  0.62500700  0.91999500  0.17024000  1
  O  O5  1  0.66559300  0.81267300  0.82310600  1
  O  O6  1  0.46852700  0.91668500  0.67282800  1
  O  O7  1  0.20636400  0.98996000  0.91436100  1
  O  O8  1  0.34622100  0.91285000  0.16519100  1
  O  O9  1  0.81169900  0.66553900  0.32172200  1
  O  O10  1  0.91985100  0.62463400  0.66859700  1
  O  O11  1  0.51334000  0.81168200  0.33107700  1
  O  O12  1  0.67949500  0.65609300  0.97180700  1
  O  O13  1  0.67264100  0.65254700  0.47224100  1
  O  O14  1  0.51271400  0.66932500  0.83169700  1
  O  O15  1  0.91567400  0.46910000  0.17167800  1
  O  O16  1  0.81081600  0.51338300  0.82330400  1
  O  O17  1  0.34492700  0.74298200  0.67427400  1
  O  O18  1  0.19896200  0.78965300  0.24035700  1
  O  O19  1  0.20732400  0.79871100  0.41625600  1
  O  O20  1  0.24007200  0.76807500  0.06704000  1
  O  O21  1  0.47432500  0.61780600  0.17538300  1
  O  O22  1  0.67042700  0.51142100  0.32669400  1
  O  O23  1  0.25912800  0.65598000  0.83673800  1
  O  O24  1  0.61693400  0.47413000  0.67502600  1
  O  O25  1  0.91371900  0.34378200  0.66274400  1
  O  O26  1  0.99054100  0.80301800  0.76102900  1
  O  O27  1  0.99707700  0.81000700  0.58295900  1
  O  O28  1  0.98878600  0.20946000  0.41466200  1
  O  O29  1  0.08552000  0.65436200  0.33617500  1
  O  O30  1  0.38202100  0.54030100  0.32874400  1
  O  O31  1  0.74162200  0.34420400  0.17203500  1
  O  O32  1  0.33995200  0.47649000  0.68020700  1
  O  O33  1  0.53891800  0.38210500  0.82799000  1
  O  O34  1  0.79731400  0.21060400  0.91607200  1
  O  O35  1  0.76720000  0.23891600  0.56692500  1
  O  O36  1  0.78908600  0.19898300  0.74024100  1
  O  O37  1  0.65472100  0.26010300  0.33718700  1
  O  O38  1  0.18096000  0.49093100  0.17852300  1
  O  O39  1  0.08952800  0.52720800  0.82626800  1
  O  O40  1  0.47495000  0.34149200  0.18094600  1
  O  O41  1  0.32335700  0.36019400  0.03086200  1
  O  O42  1  0.35369100  0.32301700  0.53107700  1
  O  O43  1  0.49063900  0.18211100  0.67911400  1
  O  O44  1  0.08010800  0.37950300  0.32556000  1
  O  O45  1  0.19563300  0.32329300  0.67662000  1
  O  O46  1  0.65417900  0.08619800  0.83675500  1
  O  O47  1  0.80340700  0.99259800  0.26079200  1
  O  O48  1  0.80922000  0.99781000  0.08289800  1
  O  O49  1  0.53004400  0.08625300  0.32820600  1
  O  O50  1  0.32608100  0.19474000  0.17510900  1
  O  O51  1  0.37859000  0.07983400  0.82630600  1
  O  O52  1  0.08021200  0.25757000  0.83793200  1
  O  O53  1  0.97180600  0.23868700  0.06223200  1
  O  O54  1  0.01499600  0.19506100  0.23717700  1
  O  O55  1  0.25588200  0.08153900  0.33774500  1
  O  O56  1  0.23965700  0.97175200  0.56229800  1
  O  O57  1  0.19319000  0.01767700  0.73676500  1
loop_
_geom_bond_atom_site_label_1
_geom_bond_atom_site_label_2
_geom_bond_distance
_geom_bond_site_symmetry_2
Li0 O56 1.969032 1_555
Li0 O19 1.984469 1_555
Li0 O55 2.040023 1_565
Li0 O11 2.157764 1_555
Li1 O7 1.925539 1_555
Li1 O20 2.011177 1_556
Li1 O23 2.109300 1_555
Li1 O14 2.201924 1_555
Li2 O53 1.975126 1_556
Li2 O34 1.993568 1_555
Li2 O52 2.056825 1_655
Li2 O16 2.212397 1_555
Li3 O28 1.933390 1_555
Li3 O35 2.009477 1_555
Li3 O37 2.165045 1_555
Li3 O22 2.227095 1_555
Li4 O2 1.948779 1_554
Li4 O20 2.083056 1_555
Li4 O3 2.125816 1_455
Li4 O38 2.260547 1_555
Li5 O0 1.958067 1_555
Li5 O35 2.052620 1_555
Li5 O1 2.104854 1_545
Li5 O43 2.287737 1_555
Li6 O48 1.917159 1_545
Li6 O34 1.980019 1_554
Li6 O53 2.256827 1_555
Li7 O27 1.924165 1_455
Li7 O19 1.997481 1_555
Li7 O56 2.323019 1_555
Li7 O0 2.535227 1_465
Li7 O28 2.682045 1_465
O0 P13 1.492805 1_555
O1 P1 1.578494 1_555
O1 V4 1.936543 1_555
O2 P8 1.490758 1_555
O3 P0 1.577551 1_555
O3 V2 1.926560 1_555
O4 P0 1.528897 1_555
O4 V5 1.947226 1_565
O5 P3 1.599125 1_555
O5 V4 1.827416 1_555
O6 P2 1.543742 1_555
O6 V4 1.921483 1_555
O7 P15 1.491525 1_565
O8 P5 1.536678 1_555
O8 V5 1.914814 1_565
O9 P4 1.595181 1_555
O9 V2 1.830966 1_555
O10 P1 1.530641 1_555
O10 V3 1.943769 1_655
O11 P4 1.556873 1_555
O11 V5 2.008207 1_565
O12 P3 1.487548 1_555
O13 P4 1.488111 1_555
O14 P3 1.573103 1_555
O14 V0 1.975216 1_555
O15 P7 1.544250 1_555
O15 V2 1.928024 1_555
O16 P3 1.556692 1_555
O16 V3 1.963523 1_655
O17 P2 1.560938 1_555
O17 V0 1.850420 1_555
O18 P5 1.605317 1_555
O18 P6 1.619186 1_555
O19 P6 1.496354 1_555
O20 P5 1.501356 1_555
O21 P5 1.552672 1_555
O21 V1 1.879016 1_555
O22 P4 1.575705 1_555
O22 V1 1.927777 1_555
O23 P8 1.573187 1_555
O23 V0 1.939112 1_555
O24 P9 1.558081 1_555
O24 V0 1.881667 1_555
O25 P9 1.532807 1_555
O25 V3 1.925423 1_655
O26 P8 1.606554 1_655
O26 P1 1.635084 1_555
O27 P1 1.482506 1_555
O28 P14 1.491081 1_655
O29 P6 1.550919 1_555
O29 V2 1.890477 1_455
O30 P6 1.541130 1_555
O30 V1 1.933672 1_555
O31 P7 1.560407 1_555
O31 V1 1.856704 1_555
O32 P11 1.615790 1_555
O32 V0 1.808032 1_555
O33 P10 1.544316 1_555
O33 V0 1.917778 1_555
O34 P10 1.495686 1_555
O35 P9 1.501429 1_555
O36 P9 1.607780 1_555
O36 P10 1.616156 1_555
O37 P13 1.568453 1_555
O37 V1 1.937308 1_555
O38 P12 1.585265 1_555
O38 V2 1.917603 1_455
O39 P8 1.542623 1_555
O39 V3 1.910270 1_555
O40 P12 1.607819 1_555
O40 V1 1.806466 1_555
O41 P12 1.483696 1_555
O42 P11 1.482534 1_555
O43 P11 1.582689 1_555
O43 V4 1.924566 1_545
O44 P14 1.563244 1_555
O44 V2 1.878483 1_455
O45 P11 1.534685 1_555
O45 V3 1.928760 1_555
O46 P10 1.548956 1_555
O46 V4 1.892348 1_545
O47 P13 1.604144 1_565
O47 P0 1.636598 1_555
O48 P0 1.481994 1_555
O49 P13 1.547757 1_555
O49 V5 1.903149 1_555
O50 P12 1.535472 1_555
O50 V5 1.939353 1_555
O51 P15 1.564564 1_555
O51 V4 1.881664 1_545
O52 P15 1.540736 1_555
O52 V3 2.003966 1_555
O53 P7 1.496292 1_555
O54 P7 1.601368 1_455
O54 P14 1.622722 1_555
O55 P14 1.541256 1_555
O55 V5 2.001637 1_555
O56 P2 1.494842 1_555
O57 P2 1.599859 1_545
O57 P15 1.624223 1_555
