# generated using pymatgen
data_ZnP2H11C2NO8
_symmetry_space_group_name_H-M   'P 1'
_cell_length_a   8.51163920
_cell_length_b   8.51163920
_cell_length_c   14.67617793
_cell_angle_alpha   83.05295033
_cell_angle_beta   83.05295033
_cell_angle_gamma   82.91619289
_symmetry_Int_Tables_number   1
_chemical_formula_structural   ZnP2H11C2NO8
_chemical_formula_sum   'Zn4 P8 H44 C8 N4 O32'
_cell_volume   1041.31156463
_cell_formula_units_Z   4
loop_
 _symmetry_equiv_pos_site_id
 _symmetry_equiv_pos_as_xyz
  1  'x, y, z'
loop_
 _atom_site_type_symbol
 _atom_site_label
 _atom_site_symmetry_multiplicity
 _atom_site_fract_x
 _atom_site_fract_y
 _atom_site_fract_z
 _atom_site_occupancy
  Zn  Zn0  1  0.22658200  0.98823100  0.92816600  1
  Zn  Zn1  1  0.98823100  0.22658200  0.42816600  1
  Zn  Zn2  1  0.47853800  0.21166100  0.49297400  1
  Zn  Zn3  1  0.21166100  0.47853800  0.99297400  1
  P  P0  1  0.97027600  0.76234800  0.88716500  1
  P  P1  1  0.76234800  0.97027600  0.38716500  1
  P  P2  1  0.70433100  0.45898500  0.53913200  1
  P  P3  1  0.45898500  0.70433100  0.03913200  1
  P  P4  1  0.34356300  0.30226500  0.81337600  1
  P  P5  1  0.30226500  0.34356300  0.31337600  1
  P  P6  1  0.16583600  0.09533400  0.61299700  1
  P  P7  1  0.09533400  0.16583600  0.11299700  1
  H  H0  1  0.80387500  0.85340300  0.67744800  1
  H  H1  1  0.63933900  0.96560000  0.62440700  1
  H  H2  1  0.85340300  0.80387500  0.17744800  1
  H  H3  1  0.96560000  0.63933900  0.12440700  1
  H  H4  1  0.62095600  0.65013400  0.73972400  1
  H  H5  1  0.80184200  0.37909500  0.92911500  1
  H  H6  1  0.45712400  0.77021500  0.69232500  1
  H  H7  1  0.44521800  0.70674200  0.81415900  1
  H  H8  1  0.89945300  0.23681900  0.85334300  1
  H  H9  1  0.65013400  0.62095600  0.23972400  1
  H  H10  1  0.37909500  0.80184200  0.42911500  1
  H  H11  1  0.77021500  0.45712400  0.19232500  1
  H  H12  1  0.68655500  0.28602500  0.86136900  1
  H  H13  1  0.70674200  0.44521800  0.31415900  1
  H  H14  1  0.23681900  0.89945300  0.35334300  1
  H  H15  1  0.28602500  0.68655500  0.36136900  1
  H  H16  1  0.28118000  0.63893000  0.57422500  1
  H  H17  1  0.74640300  0.05580800  0.69864300  1
  H  H18  1  0.63893000  0.28118000  0.07422500  1
  H  H19  1  0.07249500  0.62135500  0.59726800  1
  H  H20  1  0.18999400  0.52402000  0.50540500  1
  H  H21  1  0.05580800  0.74640300  0.19864300  1
  H  H22  1  0.62135500  0.07249500  0.09726800  1
  H  H23  1  0.52402000  0.18999400  0.00540500  1
  H  H24  1  0.93058900  0.57994100  0.80262400  1
  H  H25  1  0.65484200  0.86783600  0.82514800  1
  H  H26  1  0.50086700  0.98154000  0.78235800  1
  H  H27  1  0.57994100  0.93058900  0.30262400  1
  H  H28  1  0.86783600  0.65484200  0.32514800  1
  H  H29  1  0.71231400  0.70191600  0.47160700  1
  H  H30  1  0.98154000  0.50086700  0.28235800  1
  H  H31  1  0.75556800  0.39369600  0.68025700  1
  H  H32  1  0.70191600  0.71231400  0.97160700  1
  H  H33  1  0.12625300  0.91835700  0.73604700  1
  H  H34  1  0.39369600  0.75556800  0.18025700  1
  H  H35  1  0.12332500  0.87736300  0.50881800  1
  H  H36  1  0.77032800  0.03019700  0.95071100  1
  H  H37  1  0.91835700  0.12625300  0.23604700  1
  H  H38  1  0.50386400  0.33322200  0.68223000  1
  H  H39  1  0.87736300  0.12332500  0.00881800  1
  H  H40  1  0.03019700  0.77032800  0.45071100  1
  H  H41  1  0.33322200  0.50386400  0.18223000  1
  H  H42  1  0.13497500  0.29132500  0.71206300  1
  H  H43  1  0.29132500  0.13497500  0.21206300  1
  C  C0  1  0.70306800  0.94542500  0.68593900  1
  C  C1  1  0.94542500  0.70306800  0.18593900  1
  C  C2  1  0.52358700  0.74387400  0.75273900  1
  C  C3  1  0.79167500  0.26917100  0.89920900  1
  C  C4  1  0.74387400  0.52358700  0.25273900  1
  C  C5  1  0.26917100  0.79167500  0.39920900  1
  C  C6  1  0.17258600  0.62907900  0.54325800  1
  C  C7  1  0.62907900  0.17258600  0.04325800  1
  N  N0  1  0.59260600  0.89054600  0.76709900  1
  N  N1  1  0.89054600  0.59260600  0.26709900  1
  N  N2  1  0.77260300  0.13985800  0.97642900  1
  N  N3  1  0.13985800  0.77260300  0.47642900  1
  O  O0  1  0.79914600  0.83363000  0.91996900  1
  O  O1  1  0.95842900  0.68894600  0.79187300  1
  O  O2  1  0.83363000  0.79914600  0.41996900  1
  O  O3  1  0.68894600  0.95842900  0.29187300  1
  O  O4  1  0.40491100  0.83428900  0.96585800  1
  O  O5  1  0.77936700  0.47991000  0.63198700  1
  O  O6  1  0.62749100  0.62990100  0.50568100  1
  O  O7  1  0.83428900  0.40491100  0.46585800  1
  O  O8  1  0.47991000  0.77936700  0.13198700  1
  O  O9  1  0.14636500  0.92362700  0.66738100  1
  O  O10  1  0.62990100  0.62749100  0.00568100  1
  O  O11  1  0.08015500  0.89474600  0.85676100  1
  O  O12  1  0.92362700  0.14636500  0.16738100  1
  O  O13  1  0.57401000  0.34856000  0.56812200  1
  O  O14  1  0.89474600  0.08015500  0.35676100  1
  O  O15  1  0.50545400  0.33890000  0.74975300  1
  O  O16  1  0.35688000  0.37819800  0.90095800  1
  O  O17  1  0.03181100  0.63033100  0.95806200  1
  O  O18  1  0.34856000  0.57401000  0.06812200  1
  O  O19  1  0.33890000  0.50545400  0.24975300  1
  O  O20  1  0.37819800  0.35688000  0.40095800  1
  O  O21  1  0.19917000  0.37320700  0.76309600  1
  O  O22  1  0.63033100  0.03181100  0.45806200  1
  O  O23  1  0.35317900  0.11747700  0.83287700  1
  O  O24  1  0.34303400  0.11509300  0.59632700  1
  O  O25  1  0.37320700  0.19917000  0.26309600  1
  O  O26  1  0.11747700  0.35317900  0.33287700  1
  O  O27  1  0.06825400  0.22415400  0.66930400  1
  O  O28  1  0.11509300  0.34303400  0.09632700  1
  O  O29  1  0.09222400  0.08484800  0.52279900  1
  O  O30  1  0.22415400  0.06825400  0.16930400  1
  O  O31  1  0.08484800  0.09222400  0.02279900  1
loop_
_geom_bond_atom_site_label_1
_geom_bond_atom_site_label_2
_geom_bond_distance
_geom_bond_site_symmetry_2
H24 O1 0.975525 1_555
H25 N0 1.043003 1_555
H26 N0 1.053676 1_555
H27 O3 0.975525 1_555
H28 N1 1.043003 1_555
H29 O6 1.046291 1_555
H29 O2 1.481635 1_555
H30 N1 1.053676 1_555
H31 O5 0.978561 1_555
H32 O10 1.046291 1_556
H32 O0 1.481635 1_555
H33 O9 0.998055 1_555
H34 O8 0.978561 1_555
H35 N3 1.047021 1_555
H36 N2 1.051434 1_555
H37 O12 0.998055 1_555
H38 O15 0.999775 1_555
H38 O13 1.703673 1_555
H39 N2 1.047021 1_554
H40 N3 1.051434 1_555
H41 O19 0.999775 1_555
H41 O18 1.703673 1_555
H42 O27 1.138546 1_555
H42 O21 1.290135 1_555
H43 O30 1.138546 1_555
H43 O25 1.290135 1_555
C0 H0 1.094180 1_555
C0 H1 1.094187 1_555
C0 H17 1.094548 1_565
C0 N0 1.491233 1_555
C1 H2 1.094180 1_555
C1 H3 1.094187 1_555
C1 H21 1.094548 1_655
C1 N1 1.491233 1_555
C2 H7 1.093167 1_555
C2 H4 1.093360 1_555
C2 H6 1.094715 1_555
C2 N0 1.490827 1_555
C3 H12 1.094909 1_555
C3 H8 1.097114 1_555
C3 H5 1.097285 1_555
C3 N2 1.489964 1_555
C4 H13 1.093167 1_555
C4 H9 1.093360 1_555
C4 H11 1.094715 1_555
C4 N1 1.490827 1_555
C5 H15 1.094909 1_555
C5 H14 1.097114 1_555
C5 H10 1.097285 1_555
C5 N3 1.489964 1_555
C6 H19 1.093747 1_555
C6 H20 1.094438 1_555
C6 H16 1.094480 1_555
C6 N3 1.491390 1_555
C7 H22 1.093747 1_555
C7 H23 1.094438 1_555
C7 H18 1.094480 1_555
C7 N2 1.491390 1_554
O0 P0 1.550685 1_555
O1 P0 1.617835 1_555
O2 P1 1.550685 1_555
O3 P1 1.617835 1_555
O4 P3 1.516005 1_556
O4 Zn0 1.965721 1_555
O5 P2 1.610606 1_555
O6 P2 1.566965 1_555
O7 P2 1.516005 1_555
O7 Zn1 1.965721 1_555
O8 P3 1.610606 1_555
O9 P6 1.595643 1_565
O10 P3 1.566965 1_555
O11 P0 1.543086 1_455
O11 Zn0 2.011709 1_555
O12 P7 1.595643 1_655
O13 P2 1.530064 1_555
O13 Zn2 1.998927 1_555
O14 P1 1.543086 1_545
O14 Zn1 2.011709 1_555
O15 P4 1.610023 1_555
O16 P4 1.528731 1_555
O16 Zn3 1.922440 1_555
O17 P0 1.524291 1_455
O17 Zn3 1.953714 1_555
O18 P3 1.530064 1_555
O18 Zn3 1.998927 1_554
O19 P5 1.610023 1_555
O20 P5 1.528731 1_555
O20 Zn2 1.922440 1_555
O21 P4 1.532381 1_555
O22 P1 1.524291 1_545
O22 Zn2 1.953714 1_555
O23 P4 1.558039 1_555
O23 Zn0 1.970467 1_545
O24 P6 1.525219 1_555
O24 Zn2 1.953365 1_555
O25 P5 1.532381 1_555
O26 P5 1.558039 1_555
O26 Zn1 1.970467 1_455
O27 P6 1.550334 1_555
O28 P7 1.525219 1_555
O28 Zn3 1.953365 1_554
O29 P6 1.547870 1_555
O29 Zn1 1.948454 1_455
O30 P7 1.550334 1_555
O31 P7 1.547870 1_555
O31 Zn0 1.948454 1_544
