# generated using pymatgen
data_Y3ReB7
_symmetry_space_group_name_H-M   'P 1'
_cell_length_a   8.09790907
_cell_length_b   8.09790907
_cell_length_c   9.35562831
_cell_angle_alpha   90.00000000
_cell_angle_beta   90.00000000
_cell_angle_gamma   154.70883644
_symmetry_Int_Tables_number   1
_chemical_formula_structural   Y3ReB7
_chemical_formula_sum   'Y6 Re2 B14'
_cell_volume   262.10102942
_cell_formula_units_Z   2
loop_
 _symmetry_equiv_pos_site_id
 _symmetry_equiv_pos_as_xyz
  1  'x, y, z'
loop_
 _atom_site_type_symbol
 _atom_site_label
 _atom_site_symmetry_multiplicity
 _atom_site_fract_x
 _atom_site_fract_y
 _atom_site_fract_z
 _atom_site_occupancy
  Y  Y0  1  0.89534832  0.10465168  0.94021402  1
  Y  Y1  1  0.10465168  0.89534832  0.05978598  1
  Y  Y2  1  0.75829799  0.24170201  0.25000000  1
  Y  Y3  1  0.24170201  0.75829799  0.75000000  1
  Y  Y4  1  0.89534832  0.10465168  0.55978598  1
  Y  Y5  1  0.10465168  0.89534832  0.44021402  1
  Re  Re0  1  0.05328634  0.94671366  0.75000000  1
  Re  Re1  1  0.94671366  0.05328634  0.25000000  1
  B  B0  1  0.54239674  0.45760326  0.25000000  1
  B  B1  1  0.45760326  0.54239674  0.75000000  1
  B  B2  1  0.52074310  0.47925690  0.90385431  1
  B  B3  1  0.47925690  0.52074310  0.09614569  1
  B  B4  1  0.47925690  0.52074310  0.40385431  1
  B  B5  1  0.52074310  0.47925690  0.59614569  1
  B  B6  1  0.63148621  0.36851379  0.84915856  1
  B  B7  1  0.36851379  0.63148621  0.15084144  1
  B  B8  1  0.72697707  0.27302293  0.96584418  1
  B  B9  1  0.27302293  0.72697707  0.03415582  1
  B  B10  1  0.27302293  0.72697707  0.46584418  1
  B  B11  1  0.72697707  0.27302293  0.53415582  1
  B  B12  1  0.63148621  0.36851379  0.65084144  1
  B  B13  1  0.36851379  0.63148621  0.34915856  1
loop_
_geom_bond_atom_site_label_1
_geom_bond_atom_site_label_2
_geom_bond_distance
_geom_bond_site_symmetry_2
Re0 Y3 2.977524 1_555
Re0 Y5 3.009768 1_555
Re0 Y1 3.009768 1_556
Re0 Y0 3.065343 1_465
Re0 Y4 3.065343 1_465
Re1 Y2 2.977524 1_555
Re1 Y4 3.009768 1_555
Re1 Y0 3.009768 1_554
Re1 Y1 3.065343 1_645
Re1 Y5 3.065343 1_645
B0 B3 1.751422 1_555
B0 B4 1.751422 1_555
B0 Re1 2.330056 1_455
B0 Re1 2.330056 1_565
B0 Y1 2.697693 1_655
B0 Y5 2.697693 1_655
B0 Y1 2.697693 1_545
B0 Y5 2.697693 1_545
B1 B5 1.751422 1_555
B1 B2 1.751422 1_555
B1 Re0 2.330056 1_545
B1 Re0 2.330056 1_655
B1 Y0 2.697693 1_565
B1 Y4 2.697693 1_565
B1 Y4 2.697693 1_455
B1 Y0 2.697693 1_455
B2 B6 1.823346 1_555
B2 B3 1.914743 1_556
B2 Re0 2.340759 1_545
B2 Re0 2.340759 1_655
B2 Y1 2.651279 1_656
B2 Y1 2.651279 1_546
B2 Y0 2.680536 1_565
B2 Y0 2.680536 1_455
B3 B7 1.823346 1_555
B3 Re1 2.340759 1_565
B3 Re1 2.340759 1_455
B3 Y0 2.651279 1_564
B3 Y0 2.651279 1_454
B3 Y1 2.680536 1_655
B3 Y1 2.680536 1_545
B4 B5 1.914743 1_555
B4 Re1 2.340759 1_565
B4 Re1 2.340759 1_455
B4 Y4 2.651279 1_565
B4 Y4 2.651279 1_455
B4 Y5 2.680536 1_655
B4 Y5 2.680536 1_545
B5 Re0 2.340759 1_545
B5 Re0 2.340759 1_655
B5 Y5 2.651279 1_655
B5 Y5 2.651279 1_545
B5 Y4 2.680536 1_565
B5 Y4 2.680536 1_455
B6 B8 1.862507 1_555
B6 Re0 2.351717 1_655
B6 Re0 2.351717 1_545
B6 Y3 2.652742 1_545
B6 Y3 2.652742 1_655
B6 Y1 2.684342 1_656
B6 Y1 2.684342 1_546
B7 B9 1.862507 1_555
B7 Re1 2.351717 1_565
B7 Re1 2.351717 1_455
B7 Y2 2.652742 1_455
B7 Y2 2.652742 1_565
B7 Y0 2.684342 1_564
B7 Y0 2.684342 1_454
B8 B9 2.020080 1_546
B8 B9 2.020080 1_656
B8 Y0 2.671546 1_555
B8 Y3 2.697173 1_545
B8 Y3 2.697173 1_655
B8 Y2 2.704141 1_556
B8 Y1 2.766245 1_546
B8 Y1 2.766245 1_656
B9 Y1 2.671546 1_555
B9 Y2 2.697173 1_455
B9 Y2 2.697173 1_565
B9 Y3 2.704141 1_554
B9 Y0 2.766245 1_454
B9 Y0 2.766245 1_564
B10 B13 1.862507 1_555
B10 B11 2.020080 1_565
B10 B11 2.020080 1_455
B10 Y5 2.671546 1_555
B10 Y2 2.697173 1_455
B10 Y2 2.697173 1_565
B10 Y3 2.704141 1_555
B10 Y4 2.766245 1_455
B10 Y4 2.766245 1_565
B11 B12 1.862507 1_555
B11 Y4 2.671546 1_555
B11 Y3 2.697173 1_545
B11 Y3 2.697173 1_655
B11 Y2 2.704141 1_555
B11 Y5 2.766245 1_545
B11 Y5 2.766245 1_655
B12 B5 1.823346 1_555
B12 B6 1.855381 1_555
B12 Re0 2.351717 1_655
B12 Re0 2.351717 1_545
B12 Y3 2.652742 1_545
B12 Y3 2.652742 1_655
B12 Y5 2.684342 1_655
B12 Y5 2.684342 1_545
B13 B4 1.823346 1_555
B13 B7 1.855381 1_555
B13 Re1 2.351717 1_565
B13 Re1 2.351717 1_455
B13 Y2 2.652742 1_455
B13 Y2 2.652742 1_565
B13 Y4 2.684342 1_565
B13 Y4 2.684342 1_455
