# generated using pymatgen
data_Li4Fe2Ni3Sb3O16
_symmetry_space_group_name_H-M   'P 1'
_cell_length_a   6.08651661
_cell_length_b   6.08651661
_cell_length_c   9.68292816
_cell_angle_alpha   88.71908389
_cell_angle_beta   88.71908389
_cell_angle_gamma   59.71608024
_symmetry_Int_Tables_number   1
_chemical_formula_structural   Li4Fe2Ni3Sb3O16
_chemical_formula_sum   'Li4 Fe2 Ni3 Sb3 O16'
_cell_volume   309.65708561
_cell_formula_units_Z   1
loop_
 _symmetry_equiv_pos_site_id
 _symmetry_equiv_pos_as_xyz
  1  'x, y, z'
loop_
 _atom_site_type_symbol
 _atom_site_label
 _atom_site_symmetry_multiplicity
 _atom_site_fract_x
 _atom_site_fract_y
 _atom_site_fract_z
 _atom_site_occupancy
  Li  Li0  1  0.66640900  0.66640900  0.11744000  1
  Li  Li1  1  0.98262300  0.98262300  0.01286400  1
  Li  Li2  1  0.98934100  0.98934100  0.49472500  1
  Li  Li3  1  0.32798500  0.32798500  0.60007100  1
  Fe  Fe0  1  0.67805900  0.67805900  0.48964000  1
  Fe  Fe1  1  0.35283800  0.35283800  0.02515200  1
  Ni  Ni0  1  0.82994200  0.82994200  0.78454400  1
  Ni  Ni1  1  0.66079600  0.17132200  0.28685000  1
  Ni  Ni2  1  0.17132200  0.66079600  0.28685000  1
  Sb  Sb0  1  0.83191900  0.33673800  0.78405200  1
  Sb  Sb1  1  0.33673800  0.83191900  0.78405200  1
  Sb  Sb2  1  0.17090400  0.17090400  0.28407100  1
  O  O0  1  0.84850300  0.32992800  0.40479900  1
  O  O1  1  0.51157700  0.51157700  0.66559600  1
  O  O2  1  0.66205200  0.66205200  0.89909000  1
  O  O3  1  0.00163500  0.00163500  0.68210400  1
  O  O4  1  0.99946100  0.99946100  0.19724800  1
  O  O5  1  0.32992800  0.84850300  0.40479900  1
  O  O6  1  0.96298400  0.51037700  0.66185100  1
  O  O7  1  0.51037700  0.96298400  0.66185100  1
  O  O8  1  0.15515700  0.15515700  0.89826700  1
  O  O9  1  0.83746500  0.83746500  0.39506700  1
  O  O10  1  0.47614700  0.03495700  0.15504200  1
  O  O11  1  0.03495700  0.47614700  0.15504200  1
  O  O12  1  0.33392500  0.33392500  0.39042000  1
  O  O13  1  0.67800800  0.17231400  0.90159900  1
  O  O14  1  0.48142500  0.48142500  0.16766200  1
  O  O15  1  0.17231400  0.67800800  0.90159900  1
loop_
_geom_bond_atom_site_label_1
_geom_bond_atom_site_label_2
_geom_bond_distance
_geom_bond_site_symmetry_2
Li0 O11 1.975643 1_655
Li0 O10 1.975643 1_565
Li0 O14 2.000349 1_555
Li0 O2 2.115953 1_554
Li1 O4 1.798758 1_555
Li1 O13 1.950886 1_564
Li1 O15 1.950886 1_654
Li1 O8 2.108286 1_664
Li2 O3 1.822348 1_665
Li2 O9 1.892564 1_555
Li2 O0 1.987648 1_565
Li2 O5 1.987648 1_655
Li3 O6 2.002142 1_455
Li3 O7 2.002142 1_545
Li3 O12 2.029388 1_555
Li3 O1 2.054907 1_555
Fe0 O9 1.895054 1_555
Fe0 O0 2.015829 1_555
Fe0 O5 2.015829 1_555
Fe0 O6 2.257822 1_555
Fe0 O7 2.257822 1_555
Fe0 O1 2.416104 1_555
Fe1 O14 1.960508 1_555
Fe1 O15 2.077316 1_554
Fe1 O13 2.077316 1_554
Fe1 O11 2.087438 1_555
Fe1 O10 2.087438 1_555
Fe1 O8 2.448894 1_554
Ni0 O3 2.043704 1_665
Ni0 O2 2.066500 1_555
Ni0 O6 2.078961 1_555
Ni0 O7 2.078961 1_555
Ni0 O13 2.144169 1_565
Ni0 O15 2.144169 1_655
Ni1 O4 1.970231 1_545
Ni1 O12 1.978042 1_555
Ni1 O14 1.991722 1_555
Ni1 O9 2.033426 1_545
Ni1 O10 2.152476 1_555
Ni1 O0 2.182095 1_555
Ni2 O4 1.970231 1_455
Ni2 O12 1.978042 1_555
Ni2 O14 1.991722 1_555
Ni2 O9 2.033426 1_455
Ni2 O11 2.152476 1_555
Ni2 O5 2.182095 1_555
O0 Sb2 2.046082 1_655
O1 Sb1 2.049977 1_555
O1 Sb0 2.049977 1_555
O2 Sb1 2.052479 1_555
O2 Sb0 2.052479 1_555
O3 Sb0 2.030031 1_455
O3 Sb1 2.030031 1_545
O4 Sb2 2.015235 1_665
O5 Sb2 2.046082 1_565
O6 Sb0 1.976267 1_555
O7 Sb1 1.976267 1_555
O8 Sb1 2.040791 1_545
O8 Sb0 2.040791 1_455
O10 Sb2 2.022193 1_555
O11 Sb2 2.022193 1_555
O12 Sb2 2.028248 1_555
O13 Sb0 2.005377 1_555
O15 Sb1 2.005377 1_555
