# generated using pymatgen
data_Mn(H2N)2
_symmetry_space_group_name_H-M   'P 1'
_cell_length_a   14.23802731
_cell_length_b   14.23802731
_cell_length_c   14.23802731
_cell_angle_alpha   135.55641549
_cell_angle_beta   135.55641549
_cell_angle_gamma   64.66687442
_symmetry_Int_Tables_number   1
_chemical_formula_structural   Mn(H2N)2
_chemical_formula_sum   'Mn16 H64 N32'
_cell_volume   1395.29859432
_cell_formula_units_Z   16
loop_
 _symmetry_equiv_pos_site_id
 _symmetry_equiv_pos_as_xyz
  1  'x, y, z'
loop_
 _atom_site_type_symbol
 _atom_site_label
 _atom_site_symmetry_multiplicity
 _atom_site_fract_x
 _atom_site_fract_y
 _atom_site_fract_z
 _atom_site_occupancy
  Mn  Mn0  1  0.27003700  0.86814500  0.04526200  1
  Mn  Mn1  1  0.77003700  0.72477600  0.40189300  1
  Mn  Mn2  1  0.11814500  0.02003700  0.54526200  1
  Mn  Mn3  1  0.61814500  0.07288300  0.09810700  1
  Mn  Mn4  1  0.47996300  0.38185500  0.45473800  1
  Mn  Mn5  1  0.97996300  0.52522400  0.09810700  1
  Mn  Mn6  1  0.63185500  0.22996300  0.95473800  1
  Mn  Mn7  1  0.13185500  0.17711700  0.40189300  1
  Mn  Mn8  1  0.32288300  0.36814500  0.59810700  1
  Mn  Mn9  1  0.82288300  0.22477600  0.95473800  1
  Mn  Mn10  1  0.97477600  0.52003700  0.90189300  1
  Mn  Mn11  1  0.47477600  0.57288300  0.45473800  1
  Mn  Mn12  1  0.42711700  0.88185500  0.90189300  1
  Mn  Mn13  1  0.92711700  0.02522400  0.54526200  1
  Mn  Mn14  1  0.77522400  0.72996300  0.59810700  1
  Mn  Mn15  1  0.27522400  0.67711700  0.04526200  1
  H  H0  1  0.44685400  0.33931800  0.14799300  1
  H  H1  1  0.94685400  0.79886000  0.10753600  1
  H  H2  1  0.58931800  0.19685400  0.64799300  1
  H  H3  1  0.08931800  0.44132400  0.39246400  1
  H  H4  1  0.30314600  0.91068200  0.35200700  1
  H  H5  1  0.80314600  0.45114000  0.39246400  1
  H  H6  1  0.16068200  0.05314600  0.85200700  1
  H  H7  1  0.66068200  0.80867600  0.10753600  1
  H  H8  1  0.69132400  0.83931800  0.89246400  1
  H  H9  1  0.19132400  0.29886000  0.85200700  1
  H  H10  1  0.04886000  0.69685400  0.60753600  1
  H  H11  1  0.54886000  0.94132400  0.35200700  1
  H  H12  1  0.05867600  0.41068200  0.60753600  1
  H  H13  1  0.55867600  0.95114000  0.64799300  1
  H  H14  1  0.70114000  0.55314600  0.89246400  1
  H  H15  1  0.20114000  0.30867600  0.14799300  1
  H  H16  1  0.46340100  0.95750200  0.14464500  1
  H  H17  1  0.96340100  0.81875500  0.50589900  1
  H  H18  1  0.20750200  0.21340100  0.64464500  1
  H  H19  1  0.70750200  0.06285600  0.99410100  1
  H  H20  1  0.28659900  0.29249800  0.35535500  1
  H  H21  1  0.78659900  0.43124500  0.99410100  1
  H  H22  1  0.54249800  0.03659900  0.85535500  1
  H  H23  1  0.04249800  0.18714400  0.50589900  1
  H  H24  1  0.31285600  0.45750200  0.49410100  1
  H  H25  1  0.81285600  0.31875500  0.85535500  1
  H  H26  1  0.06875500  0.71340100  0.00589900  1
  H  H27  1  0.56875500  0.56285600  0.35535500  1
  H  H28  1  0.43714400  0.79249800  0.00589900  1
  H  H29  1  0.93714400  0.93124500  0.64464500  1
  H  H30  1  0.68124500  0.53659900  0.49410100  1
  H  H31  1  0.18124500  0.68714400  0.14464500  1
  H  H32  1  0.45299000  0.29832400  0.07944400  1
  H  H33  1  0.95299000  0.87354500  0.15466600  1
  H  H34  1  0.54832400  0.20299000  0.57944400  1
  H  H35  1  0.04832400  0.46888000  0.34533400  1
  H  H36  1  0.29701000  0.95167600  0.42055600  1
  H  H37  1  0.79701000  0.37645500  0.34533400  1
  H  H38  1  0.20167600  0.04701000  0.92055600  1
  H  H39  1  0.70167600  0.78112000  0.15466600  1
  H  H40  1  0.71888000  0.79832400  0.84533400  1
  H  H41  1  0.21888000  0.37354500  0.92055600  1
  H  H42  1  0.12354500  0.70299000  0.65466600  1
  H  H43  1  0.62354500  0.96888000  0.42055600  1
  H  H44  1  0.03112000  0.45167600  0.65466600  1
  H  H45  1  0.53112000  0.87645500  0.57944400  1
  H  H46  1  0.62645500  0.54701000  0.84533400  1
  H  H47  1  0.12645500  0.28112000  0.07944400  1
  H  H48  1  0.54027800  0.42594100  0.41872900  1
  H  H49  1  0.04027800  0.62154900  0.11433700  1
  H  H50  1  0.67594100  0.29027800  0.91872900  1
  H  H51  1  0.17594100  0.25721200  0.38566300  1
  H  H52  1  0.20972200  0.82405900  0.08127100  1
  H  H53  1  0.70972200  0.62845100  0.38566300  1
  H  H54  1  0.07405900  0.95972200  0.58127100  1
  H  H55  1  0.57405900  0.99278800  0.11433700  1
  H  H56  1  0.50721200  0.92594100  0.88566300  1
  H  H57  1  0.00721200  0.12154900  0.58127100  1
  H  H58  1  0.87154900  0.79027800  0.61433700  1
  H  H59  1  0.37154900  0.75721200  0.08127100  1
  H  H60  1  0.24278800  0.32405900  0.61433700  1
  H  H61  1  0.74278800  0.12845100  0.91872900  1
  H  H62  1  0.87845100  0.45972200  0.88566300  1
  H  H63  1  0.37845100  0.49278800  0.41872900  1
  N  N0  1  0.06180400  0.06180400  0.00000000  1
  N  N1  1  0.56180400  0.56180400  0.00000000  1
  N  N2  1  0.31180400  0.81180400  0.50000000  1
  N  N3  1  0.81180400  0.31180400  0.50000000  1
  N  N4  1  0.68819600  0.18819600  0.50000000  1
  N  N5  1  0.18819600  0.68819600  0.50000000  1
  N  N6  1  0.43819600  0.43819600  0.00000000  1
  N  N7  1  0.93819600  0.93819600  0.00000000  1
  N  N8  1  0.39108100  0.87500000  0.01608100  1
  N  N9  1  0.89108100  0.87500000  0.51608100  1
  N  N10  1  0.12500000  0.14108100  0.51608100  1
  N  N11  1  0.62500000  0.10891900  0.98391900  1
  N  N12  1  0.35891900  0.37500000  0.48391900  1
  N  N13  1  0.85891900  0.37500000  0.98391900  1
  N  N14  1  0.12500000  0.64108100  0.01608100  1
  N  N15  1  0.62500000  0.60891900  0.48391900  1
  N  N16  1  0.85184400  0.41519200  0.64151600  1
  N  N17  1  0.35184400  0.71032800  0.43665300  1
  N  N18  1  0.66519200  0.60184400  0.14151600  1
  N  N19  1  0.16519200  0.02367500  0.06334700  1
  N  N20  1  0.89815600  0.83480800  0.85848400  1
  N  N21  1  0.39815600  0.53967200  0.06334700  1
  N  N22  1  0.08480800  0.64815600  0.35848400  1
  N  N23  1  0.58480800  0.22632500  0.43665300  1
  N  N24  1  0.27367500  0.91519200  0.56334700  1
  N  N25  1  0.77367500  0.21032800  0.35848400  1
  N  N26  1  0.96032800  0.10184400  0.93665300  1
  N  N27  1  0.46032800  0.52367500  0.85848400  1
  N  N28  1  0.47632500  0.33480800  0.93665300  1
  N  N29  1  0.97632500  0.03967200  0.14151600  1
  N  N30  1  0.78967200  0.14815600  0.56334700  1
  N  N31  1  0.28967200  0.72632500  0.64151600  1
loop_
_geom_bond_atom_site_label_1
_geom_bond_atom_site_label_2
_geom_bond_distance
_geom_bond_site_symmetry_2
Mn0 N19 2.025895 1_565
Mn0 N8 2.092041 1_555
Mn1 N18 2.025911 1_555
Mn1 N9 2.092037 1_555
Mn2 N24 2.025895 1_545
Mn2 N10 2.092041 1_555
Mn3 N25 2.025905 1_555
Mn3 N11 2.092027 1_554
Mn4 N23 2.025895 1_555
Mn4 N12 2.092041 1_555
Mn5 N22 2.025911 1_655
Mn5 N13 2.092037 1_554
Mn6 N28 2.025895 1_555
Mn6 N11 2.092041 1_555
Mn7 N29 2.025905 1_455
Mn7 N10 2.092027 1_555
Mn8 N27 2.025905 1_555
Mn8 N12 2.092027 1_555
Mn9 N26 2.025905 1_555
Mn9 N13 2.092027 1_555
Mn10 N16 2.025911 1_555
Mn10 N14 2.092037 1_656
Mn11 N17 2.025905 1_555
Mn11 N15 2.092027 1_555
Mn12 N31 2.025905 1_555
Mn12 N8 2.092027 1_556
Mn13 N30 2.025905 1_555
Mn13 N9 2.092027 1_545
Mn14 N20 2.025911 1_555
Mn14 N15 2.092037 1_555
Mn15 N21 2.025905 1_555
Mn15 N14 2.092027 1_555
H0 H32 0.752055 1_555
H1 H33 0.752055 1_555
H2 H34 0.752055 1_555
H3 H35 0.752067 1_555
H10 H42 0.752055 1_555
H11 H43 0.752058 1_555
H12 H44 0.752067 1_555
H13 H45 0.752058 1_555
H14 H46 0.752055 1_555
H15 H47 0.752058 1_555
H16 N8 1.031653 1_555
H17 N9 1.031657 1_555
H18 N10 1.031653 1_555
H19 N11 1.031657 1_555
H20 N12 1.031653 1_555
H21 N13 1.031657 1_555
H22 N11 1.031653 1_555
H23 N10 1.031657 1_555
H24 N12 1.031657 1_555
H25 N13 1.031646 1_555
H26 N14 1.031657 1_555
H27 N15 1.031646 1_555
H28 N8 1.031657 1_555
H29 N9 1.031646 1_555
H30 N15 1.031657 1_555
H31 N14 1.031646 1_555
H36 H4 0.752055 1_555
H37 H5 0.752055 1_555
H38 H6 0.752055 1_555
H39 H7 0.752067 1_555
H40 H8 0.752067 1_555
H41 H9 0.752058 1_555
H48 Mn4 1.715760 1_555
H48 Mn11 1.729499 1_555
H49 Mn5 1.715762 1_455
H49 Mn10 1.729496 1_454
H50 Mn6 1.715760 1_555
H50 Mn9 1.729499 1_555
H51 Mn7 1.715773 1_555
H51 Mn8 1.729499 1_555
H52 Mn0 1.715760 1_555
H52 Mn15 1.729499 1_555
H53 Mn1 1.715762 1_555
H53 Mn14 1.729496 1_555
H54 Mn2 1.715760 1_565
H54 Mn13 1.729499 1_465
H55 Mn3 1.715773 1_565
H55 Mn12 1.729499 1_554
H56 Mn12 1.715773 1_555
H56 Mn3 1.729499 1_566
H57 Mn13 1.715773 1_455
H57 Mn2 1.729502 1_555
H58 Mn14 1.715762 1_555
H58 Mn1 1.729496 1_555
H59 Mn15 1.715773 1_555
H59 Mn0 1.729502 1_555
H60 Mn8 1.715773 1_555
H60 Mn7 1.729499 1_555
H61 Mn9 1.715773 1_555
H61 Mn6 1.729502 1_555
H62 Mn10 1.715762 1_555
H62 Mn5 1.729496 1_556
H63 Mn11 1.715773 1_555
H63 Mn4 1.729502 1_555
N0 N26 1.180930 1_454
N0 N19 1.180938 1_555
N1 N27 1.180930 1_554
N1 N18 1.180934 1_555
N2 N24 1.180938 1_555
N16 N3 1.180934 1_555
N17 N2 1.180930 1_555
N20 N7 1.180934 1_556
N21 N6 1.180930 1_555
N22 N5 1.180934 1_555
N23 N4 1.180938 1_555
N25 N3 1.180930 1_555
N28 N6 1.180938 1_556
N29 N7 1.180930 1_545
N30 N4 1.180930 1_555
N31 N5 1.180930 1_555
