# generated using pymatgen
data_BaNa3PCO7
_symmetry_space_group_name_H-M   'P 1'
_cell_length_a   7.30570100
_cell_length_b   5.48013500
_cell_length_c   9.42375014
_cell_angle_alpha   89.99004107
_cell_angle_beta   90.00000000
_cell_angle_gamma   90.00000000
_symmetry_Int_Tables_number   1
_chemical_formula_structural   BaNa3PCO7
_chemical_formula_sum   'Ba2 Na6 P2 C2 O14'
_cell_volume   377.29140126
_cell_formula_units_Z   2
loop_
 _symmetry_equiv_pos_site_id
 _symmetry_equiv_pos_as_xyz
  1  'x, y, z'
loop_
 _atom_site_type_symbol
 _atom_site_label
 _atom_site_symmetry_multiplicity
 _atom_site_fract_x
 _atom_site_fract_y
 _atom_site_fract_z
 _atom_site_occupancy
  Ba  Ba0  1  0.23405100  0.01315800  0.31948300  1
  Ba  Ba1  1  0.73405100  0.98684200  0.68051700  1
  Na  Na0  1  0.51855800  0.00748900  0.01656600  1
  Na  Na1  1  0.79465800  0.50096700  0.16580300  1
  Na  Na2  1  0.51898800  0.49230600  0.48136900  1
  Na  Na3  1  0.01898800  0.50769400  0.51863100  1
  Na  Na4  1  0.29465800  0.49903300  0.83419700  1
  Na  Na5  1  0.01855800  0.99251100  0.98343400  1
  P  P0  1  0.76678900  0.99566200  0.31993000  1
  P  P1  1  0.26678900  0.00433800  0.68007000  1
  C  C0  1  0.25433800  0.51056800  0.13779400  1
  C  C1  1  0.75433800  0.48943200  0.86220600  1
  O  O0  1  0.27733200  0.70961800  0.06527500  1
  O  O1  1  0.22846100  0.30389500  0.07291500  1
  O  O2  1  0.90278500  0.91661300  0.20167900  1
  O  O3  1  0.58401900  0.08546300  0.25412100  1
  O  O4  1  0.25638700  0.51689800  0.27774700  1
  O  O5  1  0.84885900  0.21051200  0.40873400  1
  O  O6  1  0.74017800  0.76995200  0.41944800  1
  O  O7  1  0.24017800  0.23004800  0.58055200  1
  O  O8  1  0.34885900  0.78948800  0.59126600  1
  O  O9  1  0.75638700  0.48310200  0.72225300  1
  O  O10  1  0.08401900  0.91453700  0.74587900  1
  O  O11  1  0.40278500  0.08338700  0.79832100  1
  O  O12  1  0.72846100  0.69610500  0.92708500  1
  O  O13  1  0.77733200  0.29038200  0.93472500  1
loop_
_geom_bond_atom_site_label_1
_geom_bond_atom_site_label_2
_geom_bond_distance
_geom_bond_site_symmetry_2
Ba0 O3 2.659578 1_555
Ba0 O2 2.714702 1_445
Ba0 O7 2.732871 1_555
Ba0 O4 2.752774 1_545
Ba0 O4 2.793144 1_555
Ba0 O1 2.817448 1_555
Ba0 O0 2.933814 1_545
Ba0 O8 2.960520 1_545
Ba0 O5 3.129948 1_455
Ba1 O10 2.659578 1_655
Ba1 O11 2.714702 1_565
Ba1 O6 2.732871 1_555
Ba1 O9 2.752774 1_565
Ba1 O9 2.793144 1_555
Ba1 O12 2.817448 1_555
Ba1 O13 2.933814 1_565
Ba1 O5 2.960520 1_565
Ba1 O8 3.129948 1_555
Na0 O11 2.262309 1_554
Na0 O3 2.328783 1_555
Na0 O12 2.444390 1_544
Na0 O0 2.445582 1_545
Na0 O13 2.563572 1_554
Na0 O1 2.722586 1_555
Na1 O2 2.434530 1_555
Na1 O13 2.467940 1_554
Na1 O12 2.537205 1_554
Na1 O5 2.816049 1_555
Na1 O6 2.836549 1_555
Na1 O3 2.871404 1_555
Na2 O6 2.294899 1_555
Na2 O8 2.295713 1_555
Na2 O7 2.662272 1_555
Na2 O4 2.716757 1_555
Na2 O9 2.857196 1_555
Na2 O5 2.943038 1_555
Na3 O7 2.294899 1_555
Na3 O5 2.295713 1_455
Na3 O6 2.662272 1_455
Na3 O9 2.716757 1_455
Na3 O4 2.857196 1_555
Na3 O8 2.943038 1_555
Na4 O11 2.434530 1_555
Na4 O0 2.467940 1_556
Na4 O1 2.537205 1_556
Na4 O8 2.816049 1_555
Na4 O7 2.836549 1_555
Na4 O10 2.871404 1_555
Na5 O2 2.262309 1_456
Na5 O10 2.328783 1_555
Na5 O1 2.444390 1_566
Na5 O13 2.445582 1_465
Na5 O0 2.563572 1_556
Na5 O12 2.722586 1_455
C0 O0 1.298032 1_555
C0 O1 1.300987 1_555
C0 O4 1.319429 1_555
C1 O13 1.298032 1_555
C1 O12 1.300987 1_555
C1 O9 1.319429 1_555
O2 P0 1.554599 1_555
O3 P0 1.552293 1_545
O5 P0 1.564120 1_545
O6 P0 1.564256 1_555
O7 P1 1.564256 1_555
O8 P1 1.564120 1_565
O10 P1 1.552293 1_565
O11 P1 1.554599 1_555
