# generated using pymatgen
data_Li3Co2(NiO4)2
_symmetry_space_group_name_H-M   'P 1'
_cell_length_a   5.76960815
_cell_length_b   5.79986183
_cell_length_c   5.67934822
_cell_angle_alpha   59.97074194
_cell_angle_beta   60.77621130
_cell_angle_gamma   90.47526243
_symmetry_Int_Tables_number   1
_chemical_formula_structural   Li3Co2(NiO4)2
_chemical_formula_sum   'Li3 Co2 Ni2 O8'
_cell_volume   135.33136700
_cell_formula_units_Z   1
loop_
 _symmetry_equiv_pos_site_id
 _symmetry_equiv_pos_as_xyz
  1  'x, y, z'
loop_
 _atom_site_type_symbol
 _atom_site_label
 _atom_site_symmetry_multiplicity
 _atom_site_fract_x
 _atom_site_fract_y
 _atom_site_fract_z
 _atom_site_occupancy
  Li  Li0  1  0.00000000  0.50000000  0.00000000  1
  Li  Li1  1  0.50000000  0.50000000  0.50000000  1
  Li  Li2  1  0.50000000  0.00000000  0.50000000  1
  Co  Co0  1  0.00000000  0.00000000  0.00000000  1
  Co  Co1  1  0.00000000  0.00000000  0.50000000  1
  Ni  Ni0  1  0.00000000  0.50000000  0.50000000  1
  Ni  Ni1  1  0.50000000  0.00000000  0.00000000  1
  O  O0  1  0.23139000  0.77617300  0.01520200  1
  O  O1  1  0.21659000  0.22021900  0.02372500  1
  O  O2  1  0.24253700  0.77475000  0.48003100  1
  O  O3  1  0.21213100  0.22390900  0.53490900  1
  O  O4  1  0.78786900  0.77609100  0.46509100  1
  O  O5  1  0.75746300  0.22525000  0.51996900  1
  O  O6  1  0.78341000  0.77978100  0.97627500  1
  O  O7  1  0.76861000  0.22382700  0.98479800  1
loop_
_geom_bond_atom_site_label_1
_geom_bond_atom_site_label_2
_geom_bond_distance
_geom_bond_site_symmetry_2
Li0 O6 2.047461 1_454
Li0 O1 2.047461 1_555
Li0 O5 2.106225 1_455
Li0 O2 2.106225 1_554
Li0 O0 2.137966 1_555
Li0 O7 2.137966 1_454
Li1 O1 2.128404 1_556
Li1 O6 2.128404 1_554
Li1 O4 2.163005 1_555
Li1 O3 2.163005 1_555
Li1 O5 2.186692 1_555
Li1 O2 2.186692 1_555
Li2 O2 2.051044 1_545
Li2 O5 2.051044 1_555
Li2 O0 2.094172 1_546
Li2 O7 2.094172 1_554
Li2 O4 2.110991 1_545
Li2 O3 2.110991 1_555
Co0 O0 1.871927 1_545
Co0 O7 1.871927 1_454
Co0 O1 1.876508 1_555
Co0 O6 1.876508 1_444
Co0 O4 1.882854 1_445
Co0 O3 1.882854 1_554
Co1 O3 1.921459 1_555
Co1 O4 1.921459 1_445
Co1 O2 1.923906 1_545
Co1 O5 1.923906 1_455
Co1 O6 1.929935 1_445
Co1 O1 1.929935 1_555
Ni0 O7 1.972320 1_455
Ni0 O0 1.972320 1_555
Ni0 O3 2.013230 1_555
Ni0 O4 2.013230 1_455
Ni0 O2 2.034077 1_555
Ni0 O5 2.034077 1_455
Ni1 O5 1.947945 1_554
Ni1 O2 1.947945 1_545
Ni1 O7 1.954042 1_554
Ni1 O0 1.954042 1_545
Ni1 O1 2.077263 1_555
Ni1 O6 2.077263 1_544
