# generated using pymatgen
data_Nb2NiO6
_symmetry_space_group_name_H-M   'P 1'
_cell_length_a   4.80306100
_cell_length_b   10.37295490
_cell_length_c   9.60607600
_cell_angle_alpha   62.41718790
_cell_angle_beta   90.00011929
_cell_angle_gamma   90.00016334
_symmetry_Int_Tables_number   1
_chemical_formula_structural   Nb2NiO6
_chemical_formula_sum   'Nb8 Ni4 O24'
_cell_volume   424.19758812
_cell_formula_units_Z   4
loop_
 _symmetry_equiv_pos_site_id
 _symmetry_equiv_pos_as_xyz
  1  'x, y, z'
loop_
 _atom_site_type_symbol
 _atom_site_label
 _atom_site_symmetry_multiplicity
 _atom_site_fract_x
 _atom_site_fract_y
 _atom_site_fract_z
 _atom_site_occupancy
  Nb  Nb0  1  0.99999100  0.99793400  0.00104000  1
  Nb  Nb1  1  0.99999900  0.99794300  0.50101900  1
  Nb  Nb2  1  0.00001400  0.33540200  0.33229400  1
  Nb  Nb3  1  0.00000500  0.33539300  0.83231500  1
  Nb  Nb4  1  0.49999500  0.83539200  0.83231400  1
  Nb  Nb5  1  0.49998700  0.83540200  0.33229500  1
  Nb  Nb6  1  0.50000900  0.49793400  0.00103900  1
  Nb  Nb7  1  0.50000100  0.49794400  0.50101900  1
  Ni  Ni0  1  0.00000000  0.66666300  0.16666300  1
  Ni  Ni1  1  0.50000000  0.16666300  0.16666300  1
  Ni  Ni2  1  0.00000000  0.66666300  0.66666400  1
  Ni  Ni3  1  0.49999900  0.16666300  0.66666400  1
  O  O0  1  0.19113400  0.16667100  0.01222900  1
  O  O1  1  0.19116300  0.16666900  0.51224700  1
  O  O2  1  0.30886800  0.66667100  0.01223000  1
  O  O3  1  0.30883900  0.66666800  0.51224700  1
  O  O4  1  0.69116100  0.66666700  0.82108500  1
  O  O5  1  0.69113100  0.66666500  0.32110300  1
  O  O6  1  0.80886800  0.16666500  0.32110300  1
  O  O7  1  0.80883700  0.16666800  0.82108500  1
  O  O8  1  0.20188700  0.83984400  0.68101800  1
  O  O9  1  0.20190100  0.83986600  0.18101800  1
  O  O10  1  0.20186600  0.49348800  0.85419100  1
  O  O11  1  0.20189700  0.49346900  0.35421300  1
  O  O12  1  0.29813300  0.99348900  0.85418900  1
  O  O13  1  0.29810100  0.99346900  0.35421200  1
  O  O14  1  0.29809800  0.33986500  0.18101800  1
  O  O15  1  0.29811200  0.33984400  0.68101800  1
  O  O16  1  0.70187900  0.99348900  0.65231800  1
  O  O17  1  0.70189500  0.99346900  0.15231700  1
  O  O18  1  0.70190200  0.33986300  0.97912500  1
  O  O19  1  0.70186800  0.33984400  0.47914600  1
  O  O20  1  0.79810000  0.83986400  0.97912400  1
  O  O21  1  0.79813000  0.83984600  0.47914400  1
  O  O22  1  0.79810600  0.49346800  0.15231700  1
  O  O23  1  0.79812000  0.49348800  0.65231700  1
loop_
_geom_bond_atom_site_label_1
_geom_bond_atom_site_label_2
_geom_bond_distance
_geom_bond_site_symmetry_2
Nb0 O20 1.998186 1_554
Nb0 O9 1.998195 1_655
Nb0 O0 2.022911 1_665
Nb0 O7 2.023057 1_564
Nb0 O17 2.025223 1_555
Nb0 O12 2.025572 1_654
Nb1 O21 1.998188 1_555
Nb1 O8 1.998377 1_655
Nb1 O6 2.022778 1_565
Nb1 O1 2.023025 1_665
Nb1 O13 2.025241 1_655
Nb1 O16 2.025489 1_555
Nb2 O11 1.998155 1_555
Nb2 O22 1.998177 1_455
Nb2 O6 2.022926 1_455
Nb2 O1 2.023033 1_555
Nb2 O14 2.025182 1_555
Nb2 O19 2.025582 1_455
Nb3 O10 1.998156 1_555
Nb3 O23 1.998348 1_455
Nb3 O0 2.022765 1_556
Nb3 O7 2.023034 1_455
Nb3 O18 2.025251 1_455
Nb3 O15 2.025441 1_555
Nb4 O12 1.998176 1_555
Nb4 O16 1.998344 1_555
Nb4 O2 2.022764 1_556
Nb4 O4 2.023030 1_555
Nb4 O20 2.025260 1_555
Nb4 O8 2.025430 1_555
Nb5 O13 1.998157 1_555
Nb5 O17 1.998185 1_555
Nb5 O5 2.022931 1_555
Nb5 O3 2.023030 1_555
Nb5 O9 2.025188 1_555
Nb5 O21 2.025554 1_555
Nb6 O18 1.998196 1_554
Nb6 O14 1.998205 1_555
Nb6 O2 2.022920 1_555
Nb6 O4 2.023042 1_554
Nb6 O22 2.025226 1_555
Nb6 O10 2.025554 1_554
Nb7 O19 1.998206 1_555
Nb7 O15 1.998382 1_555
Nb7 O5 2.022770 1_555
Nb7 O3 2.023007 1_555
Nb7 O11 2.025241 1_555
Nb7 O23 2.025468 1_555
Ni0 O2 2.097966 1_555
Ni0 O5 2.098051 1_455
Ni0 O22 2.101466 1_455
Ni0 O20 2.101510 1_454
Ni0 O11 2.101519 1_555
Ni0 O9 2.101595 1_555
Ni1 O0 2.097961 1_555
Ni1 O6 2.098043 1_555
Ni1 O17 2.101464 1_545
Ni1 O18 2.101504 1_554
Ni1 O13 2.101517 1_545
Ni1 O14 2.101593 1_555
Ni2 O3 2.097769 1_555
Ni2 O4 2.097827 1_455
Ni2 O23 2.101256 1_455
Ni2 O10 2.101258 1_555
Ni2 O21 2.101274 1_455
Ni2 O8 2.101358 1_555
Ni3 O1 2.097751 1_555
Ni3 O7 2.097822 1_555
Ni3 O12 2.101243 1_545
Ni3 O16 2.101247 1_545
Ni3 O19 2.101252 1_555
Ni3 O15 2.101363 1_555
