# generated using pymatgen
data_KP
_symmetry_space_group_name_H-M   'P 1'
_cell_length_a   6.02809154
_cell_length_b   6.54114017
_cell_length_c   11.35361890
_cell_angle_alpha   90.00000000
_cell_angle_beta   90.00000000
_cell_angle_gamma   90.00000000
_symmetry_Int_Tables_number   1
_chemical_formula_structural   KP
_chemical_formula_sum   'K8 P8'
_cell_volume   447.67991140
_cell_formula_units_Z   8
loop_
 _symmetry_equiv_pos_site_id
 _symmetry_equiv_pos_as_xyz
  1  'x, y, z'
loop_
 _atom_site_type_symbol
 _atom_site_label
 _atom_site_symmetry_multiplicity
 _atom_site_fract_x
 _atom_site_fract_y
 _atom_site_fract_z
 _atom_site_occupancy
  K  K0  1  0.64897447  0.63223304  0.16530262  1
  K  K1  1  0.14897447  0.36776696  0.33469738  1
  K  K2  1  0.85102553  0.13223304  0.83469738  1
  K  K3  1  0.35102553  0.86776696  0.66530262  1
  K  K4  1  0.91653845  0.89686774  0.46795346  1
  K  K5  1  0.41653845  0.10313226  0.03204654  1
  K  K6  1  0.58346155  0.39686774  0.53204654  1
  K  K7  1  0.08346155  0.60313226  0.96795346  1
  P  P0  1  0.41697426  0.93735871  0.35104444  1
  P  P1  1  0.91697426  0.06264129  0.14895556  1
  P  P2  1  0.08302574  0.43735871  0.64895556  1
  P  P3  1  0.58302574  0.56264129  0.85104444  1
  P  P4  1  0.15627434  0.83225368  0.22094829  1
  P  P5  1  0.65627434  0.16774632  0.27905171  1
  P  P6  1  0.34372566  0.33225368  0.77905171  1
  P  P7  1  0.84372566  0.66774632  0.72094829  1
loop_
_geom_bond_atom_site_label_1
_geom_bond_atom_site_label_2
_geom_bond_distance
_geom_bond_site_symmetry_2
K0 P0 3.222819 1_555
K0 P1 3.251251 1_565
K0 P5 3.301654 1_555
K0 P4 3.306374 1_555
K0 P4 3.385651 1_655
K0 P3 3.618791 1_554
K1 P1 3.222819 1_455
K1 P0 3.251251 1_545
K1 P4 3.301654 1_555
K1 P5 3.306374 1_455
K1 P5 3.385651 1_555
K1 P2 3.618791 1_555
K2 P2 3.222819 1_655
K2 P3 3.251251 1_555
K2 P7 3.301654 1_545
K2 P6 3.306374 1_655
K2 P6 3.385651 1_555
K2 P1 3.618791 1_556
K3 P3 3.222819 1_555
K3 P2 3.251251 1_555
K3 P6 3.301654 1_565
K3 P7 3.306374 1_555
K3 P7 3.385651 1_455
K3 P0 3.618791 1_555
K4 P4 3.183043 1_655
K4 P5 3.193857 1_565
K4 P7 3.269483 1_555
K4 P0 3.301609 1_555
K4 P0 3.306402 1_655
K5 P5 3.183043 1_555
K5 P4 3.193857 1_545
K5 P6 3.269483 1_554
K5 P1 3.301609 1_455
K5 P1 3.306402 1_555
K6 P6 3.183043 1_555
K6 P7 3.193857 1_555
K6 P5 3.269483 1_555
K6 P2 3.301609 1_655
K6 P2 3.306402 1_555
K7 P7 3.183043 1_455
K7 P6 3.193857 1_555
K7 P4 3.269483 1_556
K7 P3 3.301609 1_555
K7 P3 3.306402 1_455
P0 P5 2.240540 1_565
P0 P4 2.263639 1_555
P1 P4 2.240540 1_645
P1 P5 2.263639 1_555
P2 P7 2.240540 1_455
P2 P6 2.263639 1_555
P3 P6 2.240540 1_555
P3 P7 2.263639 1_555
