# generated using pymatgen
data_Li2Cu5(PO4)4
_symmetry_space_group_name_H-M   'P 1'
_cell_length_a   5.16421100
_cell_length_b   7.85428084
_cell_length_c   8.21582760
_cell_angle_alpha   112.18638401
_cell_angle_beta   88.52853461
_cell_angle_gamma   100.81349799
_symmetry_Int_Tables_number   1
_chemical_formula_structural   Li2Cu5(PO4)4
_chemical_formula_sum   'Li2 Cu5 P4 O16'
_cell_volume   302.71706365
_cell_formula_units_Z   1
loop_
 _symmetry_equiv_pos_site_id
 _symmetry_equiv_pos_as_xyz
  1  'x, y, z'
loop_
 _atom_site_type_symbol
 _atom_site_label
 _atom_site_symmetry_multiplicity
 _atom_site_fract_x
 _atom_site_fract_y
 _atom_site_fract_z
 _atom_site_occupancy
  Li  Li0  1  0.59722300  0.05520100  0.29559100  1
  Li  Li1  1  0.40277700  0.94479900  0.70440900  1
  Cu  Cu0  1  0.10707500  0.25140200  0.78194500  1
  Cu  Cu1  1  0.00000000  0.00000000  0.00000000  1
  Cu  Cu2  1  0.64196200  0.40757100  0.67069600  1
  Cu  Cu3  1  0.35803800  0.59242900  0.32930400  1
  Cu  Cu4  1  0.89292500  0.74859800  0.21805500  1
  P  P0  1  0.12141500  0.20942400  0.42354400  1
  P  P1  1  0.63123100  0.30008100  0.03057300  1
  P  P2  1  0.36876900  0.69991900  0.96942700  1
  P  P3  1  0.87858500  0.79057600  0.57645600  1
  O  O0  1  0.34203200  0.21095200  0.96534000  1
  O  O1  1  0.78095300  0.33159000  0.87355500  1
  O  O2  1  0.07942500  0.02002300  0.25522300  1
  O  O3  1  0.84673600  0.23794500  0.49632600  1
  O  O4  1  0.29815000  0.17171100  0.55594600  1
  O  O5  1  0.75445900  0.17543500  0.10070000  1
  O  O6  1  0.34810100  0.50152200  0.81820100  1
  O  O7  1  0.27642300  0.36404700  0.37447900  1
  O  O8  1  0.72357700  0.63595300  0.62552100  1
  O  O9  1  0.65189900  0.49847800  0.18179900  1
  O  O10  1  0.24554100  0.82456500  0.89930000  1
  O  O11  1  0.70185000  0.82828900  0.44405400  1
  O  O12  1  0.15326400  0.76205500  0.50367400  1
  O  O13  1  0.92057500  0.97997700  0.74477700  1
  O  O14  1  0.21904700  0.66841000  0.12644500  1
  O  O15  1  0.65796800  0.78904800  0.03466000  1
loop_
_geom_bond_atom_site_label_1
_geom_bond_atom_site_label_2
_geom_bond_distance
_geom_bond_site_symmetry_2
Li0 O3 2.016870 1_555
Li0 O5 2.214147 1_555
Li0 O15 2.427148 1_545
Li0 O2 2.556158 1_655
Li0 O4 2.584685 1_555
Li0 O11 2.644436 1_545
Li0 O2 2.652513 1_555
Li1 O12 2.016870 1_555
Li1 O10 2.214147 1_555
Li1 O0 2.427148 1_565
Li1 O13 2.556158 1_455
Li1 O11 2.584685 1_555
Li1 O4 2.644436 1_565
Li1 O13 2.652513 1_555
Cu0 O1 1.942796 1_455
Cu0 O4 2.018158 1_555
Cu0 O6 2.038851 1_555
Cu0 O13 2.078138 1_445
Cu0 O0 2.107972 1_555
Cu1 O5 1.982871 1_455
Cu1 O10 1.982871 1_544
Cu1 O13 2.088239 1_444
Cu1 O2 2.088239 1_555
Cu1 O15 2.275655 1_445
Cu1 O0 2.275655 1_554
Cu2 O8 1.934973 1_555
Cu2 O3 1.988716 1_555
Cu2 O6 1.991609 1_555
Cu2 O1 2.149984 1_555
Cu2 O4 2.237373 1_555
Cu3 O7 1.934973 1_555
Cu3 O12 1.988716 1_555
Cu3 O9 1.991609 1_555
Cu3 O14 2.149984 1_555
Cu3 O11 2.237373 1_555
Cu4 O14 1.942796 1_655
Cu4 O11 2.018158 1_555
Cu4 O9 2.038851 1_555
Cu4 O2 2.078138 1_665
Cu4 O15 2.107972 1_555
O0 P1 1.540535 1_556
O1 P1 1.562483 1_556
O2 P0 1.585268 1_555
O3 P0 1.547382 1_655
O4 P0 1.581084 1_555
O5 P1 1.540770 1_555
O6 P2 1.570181 1_555
O7 P0 1.505511 1_555
O8 P3 1.505511 1_555
O9 P1 1.570181 1_555
O10 P2 1.540770 1_555
O11 P3 1.581084 1_555
O12 P3 1.547382 1_455
O13 P3 1.585268 1_555
O14 P2 1.562483 1_554
O15 P2 1.540535 1_554
