# generated using pymatgen
data_Li4Ti2V3(Fe2O9)2
_symmetry_space_group_name_H-M   'P 1'
_cell_length_a   2.96500500
_cell_length_b   9.13239900
_cell_length_c   25.56661400
_cell_angle_alpha   90.00000000
_cell_angle_beta   90.00000000
_cell_angle_gamma   90.00000000
_symmetry_Int_Tables_number   1
_chemical_formula_structural   Li4Ti2V3(Fe2O9)2
_chemical_formula_sum   'Li8 Ti4 V6 Fe8 O36'
_cell_volume   692.28276960
_cell_formula_units_Z   2
loop_
 _symmetry_equiv_pos_site_id
 _symmetry_equiv_pos_as_xyz
  1  'x, y, z'
loop_
 _atom_site_type_symbol
 _atom_site_label
 _atom_site_symmetry_multiplicity
 _atom_site_fract_x
 _atom_site_fract_y
 _atom_site_fract_z
 _atom_site_occupancy
  Li  Li0  1  0.50000000  0.19620100  0.49064800  1
  Li  Li1  1  0.50000000  0.19410000  0.68517300  1
  Li  Li2  1  0.50000000  0.30590000  0.18517300  1
  Li  Li3  1  0.50000000  0.30379900  0.99064800  1
  Li  Li4  1  0.50000000  0.69620100  0.00935200  1
  Li  Li5  1  0.50000000  0.69410000  0.81482700  1
  Li  Li6  1  0.50000000  0.80590000  0.31482700  1
  Li  Li7  1  0.50000000  0.80379900  0.50935200  1
  Ti  Ti0  1  0.50000000  0.99600000  0.59972500  1
  Ti  Ti1  1  0.50000000  0.50400000  0.09972500  1
  Ti  Ti2  1  0.50000000  0.49600000  0.90027500  1
  Ti  Ti3  1  0.50000000  0.00400000  0.40027500  1
  V  V0  1  0.50000000  0.00000000  0.00000000  1
  V  V1  1  0.00000000  0.14987700  0.30913400  1
  V  V2  1  0.00000000  0.35012300  0.80913400  1
  V  V3  1  0.50000000  0.50000000  0.50000000  1
  V  V4  1  0.00000000  0.64987700  0.19086600  1
  V  V5  1  0.00000000  0.85012300  0.69086600  1
  Fe  Fe0  1  0.50000000  0.00751400  0.80459700  1
  Fe  Fe1  1  0.00000000  0.14767300  0.08753400  1
  Fe  Fe2  1  0.00000000  0.35232700  0.58753400  1
  Fe  Fe3  1  0.50000000  0.49248600  0.30459700  1
  Fe  Fe4  1  0.50000000  0.50751400  0.69540300  1
  Fe  Fe5  1  0.00000000  0.64767300  0.41246600  1
  Fe  Fe6  1  0.00000000  0.85232700  0.91246600  1
  Fe  Fe7  1  0.50000000  0.99248600  0.19540300  1
  O  O0  1  0.50000000  0.99742700  0.92579900  1
  O  O1  1  0.50000000  0.00257300  0.07420100  1
  O  O2  1  0.00000000  0.05837200  0.44354300  1
  O  O3  1  0.00000000  0.04421100  0.65677200  1
  O  O4  1  0.00000000  0.11803300  0.16620100  1
  O  O5  1  0.50000000  0.08895100  0.26281500  1
  O  O6  1  0.00000000  0.14947800  0.00466500  1
  O  O7  1  0.00000000  0.15089400  0.78972000  1
  O  O8  1  0.50000000  0.18454500  0.35867700  1
  O  O9  1  0.50000000  0.20203000  0.58585800  1
  O  O10  1  0.50000000  0.29797000  0.08585800  1
  O  O11  1  0.50000000  0.31545500  0.85867700  1
  O  O12  1  0.00000000  0.34910600  0.28972000  1
  O  O13  1  0.00000000  0.35052200  0.50466500  1
  O  O14  1  0.50000000  0.41104900  0.76281500  1
  O  O15  1  0.00000000  0.38196700  0.66620100  1
  O  O16  1  0.00000000  0.45578900  0.15677200  1
  O  O17  1  0.00000000  0.44162800  0.94354300  1
  O  O18  1  0.50000000  0.49742700  0.57420100  1
  O  O19  1  0.50000000  0.50257300  0.42579900  1
  O  O20  1  0.00000000  0.55837200  0.05645700  1
  O  O21  1  0.00000000  0.54421100  0.84322800  1
  O  O22  1  0.00000000  0.61803300  0.33379900  1
  O  O23  1  0.50000000  0.58895100  0.23718500  1
  O  O24  1  0.00000000  0.64947800  0.49533500  1
  O  O25  1  0.00000000  0.65089400  0.71028000  1
  O  O26  1  0.50000000  0.68454500  0.14132300  1
  O  O27  1  0.50000000  0.70203000  0.91414200  1
  O  O28  1  0.50000000  0.79797000  0.41414200  1
  O  O29  1  0.50000000  0.81545500  0.64132300  1
  O  O30  1  0.00000000  0.84910600  0.21028000  1
  O  O31  1  0.00000000  0.85052200  0.99533500  1
  O  O32  1  0.50000000  0.91104900  0.73718500  1
  O  O33  1  0.00000000  0.88196700  0.83379900  1
  O  O34  1  0.00000000  0.95578900  0.34322800  1
  O  O35  1  0.00000000  0.94162800  0.55645700  1
loop_
_geom_bond_atom_site_label_1
_geom_bond_atom_site_label_2
_geom_bond_distance
_geom_bond_site_symmetry_2
Li0 O13 2.076638 1_655
Li0 O13 2.076638 1_555
Li0 O2 2.287474 1_655
Li0 O2 2.287474 1_555
Li0 O9 2.434779 1_555
Li1 O3 2.144481 1_655
Li1 O3 2.144481 1_555
Li1 O15 2.318757 1_555
Li1 O15 2.318757 1_655
Li1 O9 2.540181 1_555
Li2 O16 2.144481 1_555
Li2 O16 2.144481 1_655
Li2 O4 2.318757 1_555
Li2 O4 2.318757 1_655
Li2 O10 2.540181 1_555
Li3 O6 2.076638 1_556
Li3 O6 2.076638 1_656
Li3 O17 2.287474 1_655
Li3 O17 2.287474 1_555
Li3 O10 2.434779 1_556
Li4 O31 2.076638 1_554
Li4 O31 2.076638 1_654
Li4 O20 2.287474 1_555
Li4 O20 2.287474 1_655
Li4 O27 2.434779 1_554
Li5 O21 2.144481 1_555
Li5 O21 2.144481 1_655
Li5 O33 2.318757 1_655
Li5 O33 2.318757 1_555
Li5 O27 2.540181 1_555
Li6 O34 2.144481 1_555
Li6 O34 2.144481 1_655
Li6 O22 2.318757 1_655
Li6 O22 2.318757 1_555
Li6 O28 2.540181 1_555
Li7 O24 2.076638 1_555
Li7 O24 2.076638 1_655
Li7 O35 2.287474 1_555
Li7 O35 2.287474 1_655
Li7 O28 2.434779 1_555
Fe0 O32 1.935594 1_545
Fe0 O7 2.014205 1_655
Fe0 O7 2.014205 1_555
Fe0 O33 2.017371 1_545
Fe0 O33 2.017371 1_645
Fe1 O1 2.017407 1_455
Fe1 O1 2.017407 1_555
Fe1 O10 2.020793 1_455
Fe1 O10 2.020793 1_555
Fe1 O4 2.029382 1_555
Fe1 O6 2.118744 1_555
Fe2 O18 2.017407 1_555
Fe2 O18 2.017407 1_455
Fe2 O9 2.020793 1_455
Fe2 O9 2.020793 1_555
Fe2 O15 2.029382 1_555
Fe2 O13 2.118744 1_555
Fe3 O23 1.935594 1_555
Fe3 O12 2.014205 1_555
Fe3 O12 2.014205 1_655
Fe3 O22 2.017371 1_655
Fe3 O22 2.017371 1_555
Fe4 O14 1.935594 1_555
Fe4 O25 2.014205 1_555
Fe4 O25 2.014205 1_655
Fe4 O15 2.017371 1_555
Fe4 O15 2.017371 1_655
Fe5 O19 2.017407 1_555
Fe5 O19 2.017407 1_455
Fe5 O28 2.020793 1_455
Fe5 O28 2.020793 1_555
Fe5 O22 2.029382 1_555
Fe5 O24 2.118744 1_555
Fe6 O0 2.017407 1_555
Fe6 O0 2.017407 1_455
Fe6 O27 2.020793 1_455
Fe6 O27 2.020793 1_555
Fe6 O33 2.029382 1_555
Fe6 O31 2.118744 1_555
Fe7 O5 1.935594 1_565
Fe7 O30 2.014205 1_555
Fe7 O30 2.014205 1_655
Fe7 O4 2.017371 1_665
Fe7 O4 2.017371 1_565
O0 V0 1.897214 1_566
O1 V0 1.897214 1_555
O2 Ti3 1.915225 1_455
O2 Ti3 1.915225 1_555
O3 V5 1.975227 1_545
O3 Ti0 2.125766 1_445
O3 Ti0 2.125766 1_545
O5 V1 1.977314 1_555
O5 V1 1.977314 1_655
O6 V0 2.018791 1_455
O6 V0 2.018791 1_555
O7 V2 1.885927 1_555
O8 Ti3 1.962051 1_555
O8 V1 1.975461 1_555
O8 V1 1.975461 1_655
O9 Ti0 1.914658 1_545
O10 Ti1 1.914658 1_555
O11 Ti2 1.962051 1_555
O11 V2 1.975461 1_555
O11 V2 1.975461 1_655
O12 V1 1.885927 1_555
O13 V3 2.018791 1_455
O13 V3 2.018791 1_555
O14 V2 1.977314 1_555
O14 V2 1.977314 1_655
O16 V4 1.975227 1_555
O16 Ti1 2.125766 1_555
O16 Ti1 2.125766 1_455
O17 Ti2 1.915225 1_455
O17 Ti2 1.915225 1_555
O18 V3 1.897214 1_555
O19 V3 1.897214 1_555
O20 Ti1 1.915225 1_455
O20 Ti1 1.915225 1_555
O21 V2 1.975227 1_555
O21 Ti2 2.125766 1_555
O21 Ti2 2.125766 1_455
O23 V4 1.977314 1_555
O23 V4 1.977314 1_655
O24 V3 2.018791 1_555
O24 V3 2.018791 1_455
O25 V5 1.885927 1_555
O26 Ti1 1.962051 1_555
O26 V4 1.975461 1_655
O26 V4 1.975461 1_555
O27 Ti2 1.914658 1_555
O28 Ti3 1.914658 1_565
O29 Ti0 1.962051 1_555
O29 V5 1.975461 1_555
O29 V5 1.975461 1_655
O30 V4 1.885927 1_555
O31 V0 2.018791 1_466
O31 V0 2.018791 1_566
O32 V5 1.977314 1_555
O32 V5 1.977314 1_655
O34 V1 1.975227 1_565
O34 Ti3 2.125766 1_465
O34 Ti3 2.125766 1_565
O35 Ti0 1.915225 1_555
O35 Ti0 1.915225 1_455
