# generated using pymatgen
data_Li2Ni3(BO3)3
_symmetry_space_group_name_H-M   'P 1'
_cell_length_a   6.06152100
_cell_length_b   8.10223769
_cell_length_c   8.10377905
_cell_angle_alpha   119.92987344
_cell_angle_beta   90.08917715
_cell_angle_gamma   90.07891907
_symmetry_Int_Tables_number   1
_chemical_formula_structural   Li2Ni3(BO3)3
_chemical_formula_sum   'Li4 Ni6 B6 O18'
_cell_volume   344.91287531
_cell_formula_units_Z   2
loop_
 _symmetry_equiv_pos_site_id
 _symmetry_equiv_pos_as_xyz
  1  'x, y, z'
loop_
 _atom_site_type_symbol
 _atom_site_label
 _atom_site_symmetry_multiplicity
 _atom_site_fract_x
 _atom_site_fract_y
 _atom_site_fract_z
 _atom_site_occupancy
  Li  Li0  1  0.25497000  0.69737300  0.72300500  1
  Li  Li1  1  0.74967900  0.27606200  0.97601500  1
  Li  Li2  1  0.75455300  0.02503100  0.30053700  1
  Li  Li3  1  0.25173500  0.02410200  0.30002100  1
  Ni  Ni0  1  0.99797000  0.98366900  0.62040000  1
  Ni  Ni1  1  0.49816200  0.98412000  0.62408000  1
  Ni  Ni2  1  0.00211900  0.38532700  0.36781200  1
  Ni  Ni3  1  0.50471100  0.38493600  0.36827600  1
  Ni  Ni4  1  0.00244200  0.62686800  0.00892100  1
  Ni  Ni5  1  0.50095200  0.62668400  0.01134700  1
  B  B0  1  0.25097600  0.33153200  0.66579700  1
  B  B1  1  0.74969600  0.33065400  0.66330500  1
  B  B2  1  0.00283300  0.00029200  0.00211200  1
  B  B3  1  0.50151000  0.00028300  0.00620500  1
  B  B4  1  0.75170300  0.66801500  0.32852200  1
  B  B5  1  0.25133000  0.66704100  0.33708300  1
  O  O0  1  0.48979000  0.80413800  0.91168900  1
  O  O1  1  0.01930500  0.80443200  0.90898600  1
  O  O2  1  0.24770200  0.78378800  0.53524800  1
  O  O3  1  0.74792600  0.78402700  0.52326600  1
  O  O4  1  0.25125700  0.45416100  0.85936500  1
  O  O5  1  0.75004600  0.44585700  0.85910700  1
  O  O6  1  0.98433200  0.08941600  0.89659800  1
  O  O7  1  0.51252800  0.09048700  0.90102200  1
  O  O8  1  0.75500300  0.74753600  0.20991200  1
  O  O9  1  0.25219400  0.74754200  0.22001600  1
  O  O10  1  0.25393400  0.41103400  0.54847600  1
  O  O11  1  0.75405400  0.40204900  0.54121200  1
  O  O12  1  0.74594400  0.13399900  0.58570300  1
  O  O13  1  0.24789300  0.13584200  0.58640400  1
  O  O14  1  0.75213900  0.47049700  0.24787100  1
  O  O15  1  0.25387500  0.47218600  0.25916800  1
  O  O16  1  0.00311600  0.10171900  0.19942800  1
  O  O17  1  0.50339900  0.10099800  0.20324300  1
loop_
_geom_bond_atom_site_label_1
_geom_bond_atom_site_label_2
_geom_bond_distance
_geom_bond_site_symmetry_2
Li0 O1 1.941662 1_555
Li0 O0 1.944792 1_555
Li0 O2 1.967277 1_555
Li0 O10 2.026913 1_555
Li1 O6 1.939529 1_555
Li1 O7 1.943183 1_555
Li1 O14 1.967749 1_556
Li1 O5 2.022562 1_555
Li2 O17 1.949674 1_555
Li2 O16 1.958768 1_655
Li2 O8 1.986627 1_545
Li2 O12 2.021663 1_555
Li3 O17 1.954221 1_555
Li3 O16 1.959955 1_555
Li3 O9 1.997915 1_545
Li3 O13 2.027265 1_555
Ni0 O6 1.959032 1_565
Ni0 O13 2.055751 1_665
Ni0 O12 2.059586 1_565
Ni0 O3 2.062093 1_555
Ni0 O2 2.070073 1_655
Ni1 O7 1.963727 1_565
Ni1 O12 2.049508 1_565
Ni1 O3 2.068024 1_555
Ni1 O2 2.069170 1_555
Ni1 O13 2.069761 1_565
Ni2 O16 2.003337 1_555
Ni2 O11 2.017686 1_455
Ni2 O10 2.050505 1_555
Ni2 O15 2.053943 1_555
Ni2 O14 2.093930 1_455
Ni3 O17 2.002713 1_555
Ni3 O11 2.016555 1_555
Ni3 O10 2.046346 1_555
Ni3 O15 2.053238 1_555
Ni3 O14 2.087744 1_555
Ni4 O1 1.974475 1_554
Ni4 O4 2.005189 1_554
Ni4 O5 2.043704 1_454
Ni4 O8 2.069049 1_455
Ni4 O9 2.119670 1_555
Ni5 O0 1.970480 1_554
Ni5 O4 2.007988 1_554
Ni5 O5 2.038763 1_554
Ni5 O8 2.082146 1_555
Ni5 O9 2.109892 1_555
B0 O4 1.375695 1_555
B0 O13 1.382074 1_555
B0 O10 1.389350 1_555
B1 O11 1.373105 1_555
B1 O5 1.382403 1_555
B1 O12 1.390942 1_555
B2 O6 1.371569 1_454
B2 O1 1.379631 1_544
B2 O16 1.385961 1_555
B3 O7 1.373625 1_554
B3 O0 1.379192 1_544
B3 O17 1.383957 1_555
B4 O3 1.376427 1_555
B4 O14 1.394468 1_555
B4 O8 1.399074 1_555
B5 O15 1.377233 1_555
B5 O9 1.393882 1_555
B5 O2 1.399451 1_555
