# generated using pymatgen
data_Ti2N2O
_symmetry_space_group_name_H-M   'P 1'
_cell_length_a   8.21508600
_cell_length_b   8.21865437
_cell_length_c   8.22688134
_cell_angle_alpha   109.48817089
_cell_angle_beta   109.44636717
_cell_angle_gamma   109.39916084
_symmetry_Int_Tables_number   1
_chemical_formula_structural   Ti2N2O
_chemical_formula_sum   'Ti16 N16 O8'
_cell_volume   428.00990685
_cell_formula_units_Z   8
loop_
 _symmetry_equiv_pos_site_id
 _symmetry_equiv_pos_as_xyz
  1  'x, y, z'
loop_
 _atom_site_type_symbol
 _atom_site_label
 _atom_site_symmetry_multiplicity
 _atom_site_fract_x
 _atom_site_fract_y
 _atom_site_fract_z
 _atom_site_occupancy
  Ti  Ti0  1  0.49886600  0.99790100  0.01114300  1
  Ti  Ti1  1  0.53984000  0.29105300  0.74053400  1
  Ti  Ti2  1  0.74754800  0.45962100  0.21818300  1
  Ti  Ti3  1  0.75115700  0.96178200  0.70862400  1
  Ti  Ti4  1  0.96190200  0.20807200  0.26577900  1
  Ti  Ti5  1  0.51343000  0.51468800  0.51570100  1
  Ti  Ti6  1  0.20850200  0.74267100  0.44481500  1
  Ti  Ti7  1  0.29269300  0.24910800  0.04183400  1
  Ti  Ti8  1  0.00524800  0.49699700  0.98540000  1
  Ti  Ti9  1  0.99843100  0.99623200  0.49949000  1
  Ti  Ti10  1  0.70924600  0.75165500  0.96280600  1
  Ti  Ti11  1  0.79372800  0.26046600  0.54840000  1
  Ti  Ti12  1  0.03729400  0.79797700  0.74696300  1
  Ti  Ti13  1  0.24920300  0.03702200  0.28349600  1
  Ti  Ti14  1  0.25322100  0.54189800  0.79438200  1
  Ti  Ti15  1  0.45248600  0.69967300  0.24427200  1
  N  N0  1  0.26953000  0.99410100  0.04151600  1
  N  N1  1  0.72417800  0.23594700  0.27026800  1
  N  N2  1  0.76640700  0.22519600  0.77551500  1
  N  N3  1  0.53447500  0.26050900  0.48722700  1
  N  N4  1  0.95304600  0.72616900  0.45844400  1
  N  N5  1  0.04025000  0.05294300  0.77416900  1
  N  N6  1  0.77605400  0.72637500  0.73646200  1
  N  N7  1  0.54666900  0.50527600  0.27203700  1
  N  N8  1  0.45893600  0.73649700  0.51111000  1
  N  N9  1  0.22507800  0.45030700  0.98793500  1
  N  N10  1  0.99001800  0.54078400  0.76545600  1
  N  N11  1  0.22953100  0.77323700  0.22569300  1
  N  N12  1  0.95934600  0.94960300  0.22515600  1
  N  N13  1  0.04972800  0.27476500  0.53734300  1
  N  N14  1  0.45263700  0.48952400  0.72802100  1
  N  N15  1  0.51168700  0.78053300  0.05309300  1
  O  O0  1  0.72993800  0.00451000  0.95513000  1
  O  O1  1  0.27733700  0.04251400  0.55493200  1
  O  O2  1  0.48823200  0.22353000  0.94584900  1
  O  O3  1  0.27601600  0.76867600  0.72641900  1
  O  O4  1  0.01297700  0.45970200  0.23810700  1
  O  O5  1  0.72704900  0.95599300  0.45014100  1
  O  O6  1  0.77069900  0.54447700  0.01072400  1
  O  O7  1  0.21738300  0.27201500  0.25742500  1
loop_
_geom_bond_atom_site_label_1
_geom_bond_atom_site_label_2
_geom_bond_distance
_geom_bond_site_symmetry_2
N0 Ti0 1.972943 1_555
N0 Ti13 1.976688 1_565
N0 Ti7 2.039544 1_565
N0 Ti12 2.093515 1_554
N1 Ti2 1.986383 1_555
N1 Ti0 1.995609 1_545
N1 Ti4 2.051181 1_555
N1 Ti11 2.085207 1_555
N2 Ti3 1.996091 1_545
N2 Ti8 2.019971 1_655
N2 Ti11 2.054967 1_555
N2 Ti1 2.063151 1_555
N3 Ti1 1.997538 1_555
N3 Ti11 2.018959 1_555
N3 Ti13 2.036200 1_555
N3 Ti5 2.095017 1_555
N4 Ti2 1.997054 1_555
N4 Ti9 2.011421 1_555
N4 Ti12 2.039973 1_655
N4 Ti6 2.100669 1_655
N5 Ti12 2.022709 1_545
N5 Ti9 2.028719 1_445
N5 Ti7 2.029414 1_556
N5 Ti3 2.046482 1_445
N6 Ti5 1.941467 1_555
N6 Ti12 1.990784 1_655
N6 Ti10 2.076035 1_555
N6 Ti3 2.089206 1_555
N7 Ti2 1.961534 1_555
N7 Ti15 2.037254 1_555
N7 Ti7 2.040333 1_555
N7 Ti5 2.091408 1_555
N8 Ti6 1.968084 1_555
N8 Ti5 2.025308 1_555
N8 Ti3 2.067388 1_555
N8 Ti15 2.093348 1_555
N9 Ti8 1.962052 1_555
N9 Ti14 2.021116 1_555
N9 Ti15 2.021683 1_556
N9 Ti7 2.043256 1_556
N10 Ti8 1.932078 1_655
N10 Ti11 1.991617 1_555
N10 Ti12 2.085814 1_655
N10 Ti14 2.091593 1_655
N11 Ti6 1.955335 1_555
N11 Ti13 1.995122 1_565
N11 Ti8 2.063618 1_554
N11 Ti15 2.086747 1_555
N12 Ti10 2.002611 1_554
N12 Ti4 2.028954 1_565
N12 Ti9 2.049944 1_555
N12 Ti13 2.071020 1_665
N13 Ti4 1.912914 1_455
N13 Ti14 2.048613 1_555
N13 Ti9 2.076292 1_445
N13 Ti11 2.101259 1_455
N14 Ti1 2.005911 1_555
N14 Ti14 2.018479 1_555
N14 Ti5 2.023991 1_555
N14 Ti10 2.076407 1_555
N15 Ti0 1.958021 1_555
N15 Ti15 2.035659 1_555
N15 Ti10 2.045240 1_554
N15 Ti14 2.079504 1_554
O0 Ti3 2.016747 1_545
O0 Ti10 2.052205 1_545
O0 Ti0 2.085523 1_546
O0 Ti4 2.179068 1_556
O1 Ti1 1.988623 1_555
O1 Ti9 2.052297 1_445
O1 Ti6 2.111136 1_545
O1 Ti13 2.150402 1_555
O2 Ti7 2.050940 1_556
O2 Ti1 2.070445 1_555
O2 Ti0 2.115620 1_546
O2 Ti2 2.120923 1_556
O3 Ti0 2.072843 1_556
O3 Ti14 2.086780 1_555
O3 Ti12 2.107089 1_555
O3 Ti6 2.110880 1_555
O4 Ti6 1.985300 1_555
O4 Ti4 2.075104 1_455
O4 Ti2 2.131320 1_455
O4 Ti8 2.184125 1_554
O5 Ti9 2.015564 1_555
O5 Ti3 2.051667 1_555
O5 Ti15 2.076814 1_555
O5 Ti11 2.158756 1_565
O6 Ti10 2.048396 1_554
O6 Ti1 2.087047 1_554
O6 Ti2 2.087514 1_555
O6 Ti8 2.149633 1_654
O7 Ti4 2.018242 1_455
O7 Ti7 2.036967 1_555
O7 Ti13 2.102091 1_555
O7 Ti5 2.217392 1_555
