# generated using pymatgen
data_V6O7F5
_symmetry_space_group_name_H-M   'P 1'
_cell_length_a   5.75329000
_cell_length_b   6.07196289
_cell_length_c   6.14540752
_cell_angle_alpha   101.32417575
_cell_angle_beta   99.01100163
_cell_angle_gamma   100.03970617
_symmetry_Int_Tables_number   1
_chemical_formula_structural   V6O7F5
_chemical_formula_sum   'V6 O7 F5'
_cell_volume   203.18937581
_cell_formula_units_Z   1
loop_
 _symmetry_equiv_pos_site_id
 _symmetry_equiv_pos_as_xyz
  1  'x, y, z'
loop_
 _atom_site_type_symbol
 _atom_site_label
 _atom_site_symmetry_multiplicity
 _atom_site_fract_x
 _atom_site_fract_y
 _atom_site_fract_z
 _atom_site_occupancy
  V  V0  1  0.70077500  0.86451700  0.38995100  1
  V  V1  1  0.15824800  0.61849100  0.35025400  1
  V  V2  1  0.40213100  0.67251900  0.85061800  1
  V  V3  1  0.59915900  0.32370200  0.14094700  1
  V  V4  1  0.84821500  0.39907600  0.66096300  1
  V  V5  1  0.31524100  0.13168600  0.59366100  1
  O  O0  1  0.06827100  0.90205300  0.35769300  1
  O  O1  1  0.43668700  0.81780700  0.58420000  1
  O  O2  1  0.40339400  0.58175800  0.17604900  1
  O  O3  1  0.81388600  0.56954800  0.41879700  1
  O  O4  1  0.18133900  0.41964700  0.56666100  1
  O  O5  1  0.57982100  0.42026000  0.82650400  1
  O  O6  1  0.57228900  0.17144200  0.40743700  1
  F  F0  1  0.67482900  0.90650000  0.06293800  1
  F  F1  1  0.06178700  0.67668000  0.88198700  1
  F  F2  1  0.94661100  0.34799000  0.10265200  1
  F  F3  1  0.32843900  0.09120200  0.92175100  1
  F  F4  1  0.90182000  0.08543200  0.68511800  1
loop_
_geom_bond_atom_site_label_1
_geom_bond_atom_site_label_2
_geom_bond_distance
_geom_bond_site_symmetry_2
O0 V1 1.876659 1_555
O0 V5 1.983850 1_565
O0 V0 2.131333 1_455
O1 V1 2.004280 1_555
O1 V2 2.026423 1_555
O1 V0 2.089215 1_555
O1 V5 2.134805 1_565
O2 V1 1.916755 1_555
O2 V3 2.080612 1_555
O2 V2 2.175560 1_554
O2 V0 2.233367 1_555
O3 V4 1.977214 1_555
O3 V0 2.039037 1_555
O3 V1 2.072740 1_655
O3 V3 2.089339 1_555
O4 V1 1.968560 1_555
O4 V5 2.054693 1_555
O4 V4 2.077867 1_455
O4 V2 2.142344 1_555
O5 V2 1.979258 1_555
O5 V4 1.986407 1_555
O5 V3 2.119090 1_556
O5 V5 2.199536 1_555
O6 V5 2.017230 1_555
O6 V3 2.045663 1_555
O6 V0 2.111326 1_545
O6 V4 2.114818 1_555
F0 V2 2.008981 1_554
F0 V0 2.060669 1_555
F0 V3 2.609521 1_565
F1 V2 2.001381 1_555
F1 V4 2.012935 1_455
F2 V3 2.032563 1_555
F2 V1 2.058266 1_655
F3 V3 2.015625 1_556
F3 V5 2.069936 1_555
F3 V2 2.613654 1_545
F4 V4 2.011339 1_555
F4 V0 2.067310 1_545
F4 V5 2.509983 1_655
