# generated using pymatgen
data_Sr5(ReO3)12
_symmetry_space_group_name_H-M   'P 1'
_cell_length_a   8.04367000
_cell_length_b   8.11171483
_cell_length_c   13.14526009
_cell_angle_alpha   90.03783160
_cell_angle_beta   90.05129713
_cell_angle_gamma   109.56799912
_symmetry_Int_Tables_number   1
_chemical_formula_structural   Sr5(ReO3)12
_chemical_formula_sum   'Sr5 Re12 O36'
_cell_volume   808.16379257
_cell_formula_units_Z   1
loop_
 _symmetry_equiv_pos_site_id
 _symmetry_equiv_pos_as_xyz
  1  'x, y, z'
loop_
 _atom_site_type_symbol
 _atom_site_label
 _atom_site_symmetry_multiplicity
 _atom_site_fract_x
 _atom_site_fract_y
 _atom_site_fract_z
 _atom_site_occupancy
  Sr  Sr0  1  0.18362100  0.18775200  0.18453300  1
  Sr  Sr1  1  0.00133500  0.63686600  0.00016400  1
  Sr  Sr2  1  0.49875700  0.86078000  0.49977900  1
  Sr  Sr3  1  0.85443000  0.49816200  0.50028300  1
  Sr  Sr4  1  0.18712800  0.18759600  0.81552800  1
  Re  Re0  1  0.17986900  0.81644600  0.31635900  1
  Re  Re1  1  0.32992200  0.68870300  0.18135900  1
  Re  Re2  1  0.56727400  0.42523800  0.06880900  1
  Re  Re3  1  0.06762100  0.93451600  0.56915200  1
  Re  Re4  1  0.39058800  0.88605000  0.75503000  1
  Re  Re5  1  0.11405900  0.61635600  0.74655600  1
  Re  Re6  1  0.61694800  0.11281100  0.25187700  1
  Re  Re7  1  0.88763200  0.38869900  0.25052500  1
  Re  Re8  1  0.43465100  0.56905300  0.93115600  1
  Re  Re9  1  0.93703900  0.06629300  0.43153300  1
  Re  Re10  1  0.81724200  0.18180600  0.68162200  1
  Re  Re11  1  0.68407600  0.32118400  0.81688800  1
  O  O0  1  0.16647700  0.83475500  0.16403100  1
  O  O1  1  0.03429900  0.96813200  0.32317100  1
  O  O2  1  0.32536500  0.67154100  0.03261100  1
  O  O3  1  0.52561600  0.88887000  0.18192900  1
  O  O4  1  0.11426800  0.47716200  0.17671000  1
  O  O5  1  0.66668900  0.65767400  0.99947200  1
  O  O6  1  0.32865300  0.32838800  0.99867300  1
  O  O7  1  0.46013500  0.52593600  0.17044500  1
  O  O8  1  0.17066800  0.81886100  0.46761800  1
  O  O9  1  0.33731100  0.67597200  0.33371800  1
  O  O10  1  0.71079500  0.00471800  0.35508100  1
  O  O11  1  0.99662000  0.28767700  0.35216300  1
  O  O12  1  0.78826100  0.49139200  0.14619800  1
  O  O13  1  0.50369300  0.21221200  0.14852600  1
  O  O14  1  0.97224700  0.61310700  0.32225400  1
  O  O15  1  0.82945100  0.82977200  0.49976800  1
  O  O16  1  0.16436300  0.16187700  0.49999200  1
  O  O17  1  0.61225900  0.97490200  0.67864200  1
  O  O18  1  0.83894600  0.16870200  0.17095300  1
  O  O19  1  0.38430700  0.02634800  0.31990200  1
  O  O20  1  0.67310700  0.33221900  0.33613800  1
  O  O21  1  0.33325800  0.67417300  0.66548800  1
  O  O22  1  0.02847800  0.38617500  0.67883400  1
  O  O23  1  0.16363600  0.83289800  0.83588200  1
  O  O24  1  0.20765100  0.50454200  0.85621500  1
  O  O25  1  0.48966700  0.78286000  0.85342200  1
  O  O26  1  0.00342400  0.70925400  0.64459200  1
  O  O27  1  0.28557800  0.99171700  0.64984000  1
  O  O28  1  0.67569100  0.33916800  0.66522800  1
  O  O29  1  0.52466800  0.45922300  0.82739000  1
  O  O30  1  0.81791200  0.17022400  0.53058600  1
  O  O31  1  0.88889100  0.52857300  0.82162300  1
  O  O32  1  0.47269500  0.11641300  0.82053600  1
  O  O33  1  0.67720000  0.33464500  0.96600400  1
  O  O34  1  0.96825700  0.03487700  0.67449300  1
  O  O35  1  0.84011800  0.17315900  0.83072200  1
loop_
_geom_bond_atom_site_label_1
_geom_bond_atom_site_label_2
_geom_bond_distance
_geom_bond_site_symmetry_2
O0 Re0 2.013443 1_555
O0 Re1 2.055982 1_555
O0 Sr1 2.746501 1_555
O0 Sr0 2.832876 1_565
O1 Re9 1.921685 1_465
O1 Re0 1.964218 1_555
O1 Sr0 2.551963 1_565
O2 Re8 1.932018 1_554
O2 Re1 1.959627 1_555
O2 Sr1 2.561462 1_555
O3 Re1 1.844493 1_555
O3 Re6 1.946189 1_565
O4 Re7 1.976751 1_455
O4 Re1 1.990745 1_555
O4 Sr0 2.590467 1_555
O4 Sr1 2.945804 1_555
O5 Re8 1.975908 1_555
O5 Re2 2.004686 1_556
O5 Sr1 2.752919 1_656
O6 Re2 2.033975 1_556
O6 Re8 2.052914 1_555
O6 Sr4 2.741680 1_555
O6 Sr0 2.783665 1_556
O7 Re2 1.914951 1_555
O7 Re1 1.946073 1_555
O7 Sr0 2.901904 1_555
O8 Re3 1.967180 1_555
O8 Re0 1.990110 1_555
O8 Sr2 2.579844 1_555
O8 Sr3 2.998848 1_455
O9 Re0 1.980089 1_555
O9 Re1 2.007379 1_555
O9 Sr2 2.717612 1_555
O10 Re6 1.903216 1_555
O10 Re9 1.989584 1_555
O10 Sr2 2.562219 1_545
O11 Re7 1.925012 1_555
O11 Re9 1.992491 1_555
O11 Sr0 2.931794 1_655
O11 Sr3 3.053211 1_555
O12 Re7 1.912882 1_555
O12 Re2 1.959495 1_555
O12 Sr1 2.582469 1_655
O13 Re2 1.938306 1_555
O13 Re6 1.953721 1_555
O13 Sr0 2.559660 1_555
O14 Re0 1.915954 1_655
O14 Re7 1.957698 1_555
O14 Sr3 2.580531 1_555
O15 Re9 2.031240 1_565
O15 Re3 2.032101 1_655
O15 Sr2 2.754452 1_555
O15 Sr3 2.763724 1_555
O16 Re9 1.949602 1_455
O16 Re3 1.968650 1_545
O17 Re10 1.919142 1_565
O17 Re4 1.962232 1_555
O17 Sr2 2.577941 1_555
O18 Re7 1.990168 1_555
O18 Re6 1.996882 1_555
O18 Sr0 2.730263 1_655
O19 Re0 1.931224 1_545
O19 Re6 1.979371 1_555
O19 Sr0 2.983305 1_555
O19 Sr2 3.011770 1_545
O20 Re7 1.982074 1_555
O20 Re6 2.014067 1_555
O20 Sr3 2.696367 1_555
O21 Re5 1.978497 1_555
O21 Re4 2.004357 1_555
O21 Sr2 2.732788 1_555
O22 Re10 1.936480 1_455
O22 Re5 1.971902 1_555
O22 Sr4 2.971308 1_555
O22 Sr3 3.023715 1_455
O23 Re4 2.030980 1_555
O23 Re5 2.037258 1_555
O23 Sr1 2.741440 1_556
O23 Sr4 2.832410 1_565
O24 Re5 1.981029 1_555
O24 Re8 1.983511 1_555
O24 Sr4 2.576228 1_555
O24 Sr1 2.946684 1_556
O25 Re4 1.858785 1_555
O25 Re8 1.933121 1_555
O26 Re5 1.898610 1_555
O26 Re3 1.990031 1_555
O26 Sr3 2.565907 1_455
O27 Re4 1.960763 1_555
O27 Re3 1.965971 1_555
O27 Sr4 2.955817 1_565
O27 Sr2 3.030318 1_555
O28 Re10 1.986376 1_555
O28 Re11 2.001761 1_555
O28 Sr3 2.683074 1_555
O29 Re8 1.900222 1_555
O29 Re11 1.969470 1_555
O29 Sr4 2.870929 1_555
O30 Re9 1.966278 1_555
O30 Re10 1.987665 1_555
O30 Sr3 2.607585 1_555
O30 Sr2 2.955577 1_545
O31 Re11 1.921268 1_555
O31 Re5 1.975187 1_655
O31 Sr1 2.561101 1_656
O32 Re11 1.939265 1_555
O32 Re4 1.959503 1_545
O32 Sr4 2.549942 1_555
O33 Re2 1.893200 1_556
O33 Re11 1.964994 1_555
O33 Sr1 2.953687 1_656
O34 Re3 1.911909 1_645
O34 Re10 1.968412 1_555
O34 Sr4 2.569322 1_655
O35 Re10 1.971902 1_555
O35 Re11 2.014859 1_555
O35 Sr4 2.761641 1_655
