# generated using pymatgen
data_Li3Ti2(NiO4)2
_symmetry_space_group_name_H-M   'P 1'
_cell_length_a   5.93529017
_cell_length_b   5.88686880
_cell_length_c   5.88689099
_cell_angle_alpha   120.04646875
_cell_angle_beta   60.14811431
_cell_angle_gamma   119.85205928
_symmetry_Int_Tables_number   1
_chemical_formula_structural   Li3Ti2(NiO4)2
_chemical_formula_sum   'Li3 Ti2 Ni2 O8'
_cell_volume   145.71758694
_cell_formula_units_Z   1
loop_
 _symmetry_equiv_pos_site_id
 _symmetry_equiv_pos_as_xyz
  1  'x, y, z'
loop_
 _atom_site_type_symbol
 _atom_site_label
 _atom_site_symmetry_multiplicity
 _atom_site_fract_x
 _atom_site_fract_y
 _atom_site_fract_z
 _atom_site_occupancy
  Li  Li0  1  0.49999600  0.00000000  0.00000000  1
  Li  Li1  1  0.00000000  0.00000000  0.50000100  1
  Li  Li2  1  0.00000000  0.49999900  0.00000000  1
  Ti  Ti0  1  0.50000200  0.99999600  0.49999600  1
  Ti  Ti1  1  0.50000200  0.50000400  0.00000400  1
  Ni  Ni0  1  0.49996800  0.49999700  0.50000300  1
  Ni  Ni1  1  0.00000600  0.50000200  0.49999800  1
  O  O0  1  0.72895100  0.24904700  0.75095600  1
  O  O1  1  0.71802100  0.71390600  0.73898200  1
  O  O2  1  0.71801700  0.26101800  0.28610000  1
  O  O3  1  0.27158600  0.24411400  0.75589000  1
  O  O4  1  0.72841700  0.75588500  0.24411000  1
  O  O5  1  0.28198800  0.73898200  0.71390000  1
  O  O6  1  0.28198400  0.28609400  0.26101900  1
  O  O7  1  0.27105300  0.75095400  0.24904300  1
loop_
_geom_bond_atom_site_label_1
_geom_bond_atom_site_label_2
_geom_bond_distance
_geom_bond_site_symmetry_2
Li0 O7 2.081162 1_545
Li0 O0 2.081167 1_554
Li0 O6 2.114373 1_555
Li0 O5 2.114383 1_544
Li0 O1 2.114423 1_544
Li0 O2 2.114433 1_555
Li1 O0 2.175577 1_455
Li1 O7 2.175590 1_545
Li1 O1 2.199872 1_445
Li1 O6 2.199878 1_555
Li1 O4 2.208193 1_445
Li1 O3 2.208198 1_555
Li2 O0 2.175563 1_454
Li2 O7 2.175576 1_555
Li2 O2 2.199900 1_455
Li2 O5 2.199910 1_554
Li2 O4 2.208175 1_455
Li2 O3 2.208184 1_554
Ni0 O5 1.911784 1_555
Ni0 O6 1.911794 1_555
Ni0 O2 1.912049 1_555
Ni0 O1 1.912064 1_555
Ni0 O3 2.140677 1_555
Ni0 O4 2.140698 1_555
Ni1 O5 2.084691 1_555
Ni1 O6 2.084699 1_555
Ni1 O2 2.084707 1_455
Ni1 O1 2.084714 1_455
Ni1 O7 2.099201 1_555
Ni1 O0 2.099228 1_455
O0 Ti1 2.006194 1_556
O0 Ti0 2.006205 1_545
O1 Ti1 1.989286 1_556
O2 Ti0 1.989261 1_545
O3 Ti1 1.977614 1_556
O3 Ti0 1.977633 1_545
O4 Ti1 1.977574 1_555
O4 Ti0 1.977598 1_555
O5 Ti0 1.989258 1_555
O6 Ti1 1.989288 1_555
O7 Ti1 2.006163 1_555
O7 Ti0 2.006175 1_555
