# generated using pymatgen
data_LiFe5O8
_symmetry_space_group_name_H-M   'P 1'
_cell_length_a   8.41410026
_cell_length_b   8.37664959
_cell_length_c   16.76566353
_cell_angle_alpha   90.20695289
_cell_angle_beta   90.23343174
_cell_angle_gamma   90.06701399
_symmetry_Int_Tables_number   1
_chemical_formula_structural   LiFe5O8
_chemical_formula_sum   'Li8 Fe40 O64'
_cell_volume   1181.65864203
_cell_formula_units_Z   8
loop_
 _symmetry_equiv_pos_site_id
 _symmetry_equiv_pos_as_xyz
  1  'x, y, z'
loop_
 _atom_site_type_symbol
 _atom_site_label
 _atom_site_symmetry_multiplicity
 _atom_site_fract_x
 _atom_site_fract_y
 _atom_site_fract_z
 _atom_site_occupancy
  Li  Li0  1  0.12710700  0.62254300  0.06282000  1
  Li  Li1  1  0.12280000  0.63044100  0.56479400  1
  Li  Li2  1  0.12444900  0.87119000  0.68445600  1
  Li  Li3  1  0.13213400  0.12218900  0.31607600  1
  Li  Li4  1  0.36879400  0.12334900  0.43628700  1
  Li  Li5  1  0.37298100  0.12460800  0.93487100  1
  Li  Li6  1  0.62370500  0.62709200  0.31392400  1
  Li  Li7  1  0.62194400  0.62479600  0.81184300  1
  Fe  Fe0  1  0.00678900  0.50679100  0.25421800  1
  Fe  Fe1  1  0.00423600  0.49873200  0.74960500  1
  Fe  Fe2  1  0.12607400  0.37134500  0.43924600  1
  Fe  Fe3  1  0.12676700  0.87152700  0.18993200  1
  Fe  Fe4  1  0.12968500  0.37389900  0.93626800  1
  Fe  Fe5  1  0.12709000  0.12583000  0.81166600  1
  Fe  Fe6  1  0.24612700  0.74214800  0.37370400  1
  Fe  Fe7  1  0.24852600  0.74467100  0.87327900  1
  Fe  Fe8  1  0.24903100  0.25005300  0.12531800  1
  Fe  Fe9  1  0.24712600  0.24697800  0.62445400  1
  Fe  Fe10  1  0.36803000  0.87184100  0.05899300  1
  Fe  Fe11  1  0.36474000  0.87790400  0.56130100  1
  Fe  Fe12  1  0.37423400  0.62440700  0.18818400  1
  Fe  Fe13  1  0.37242900  0.62692300  0.68857300  1
  Fe  Fe14  1  0.37699800  0.37067300  0.31818700  1
  Fe  Fe15  1  0.37698400  0.37297700  0.81260000  1
  Fe  Fe16  1  0.49468000  0.50655600  0.99854100  1
  Fe  Fe17  1  0.50449200  0.50434800  0.50149700  1
  Fe  Fe18  1  0.50279000  0.00301500  0.25232400  1
  Fe  Fe19  1  0.50041100  0.00649700  0.75089000  1
  Fe  Fe20  1  0.62198300  0.87359700  0.93536100  1
  Fe  Fe21  1  0.62093700  0.87706600  0.43557000  1
  Fe  Fe22  1  0.61916000  0.12727500  0.05934500  1
  Fe  Fe23  1  0.62612900  0.12736700  0.56339900  1
  Fe  Fe24  1  0.62357200  0.38227500  0.19112600  1
  Fe  Fe25  1  0.62675800  0.37396600  0.68803700  1
  Fe  Fe26  1  0.74461400  0.74564900  0.12424400  1
  Fe  Fe27  1  0.74794500  0.74574100  0.62505000  1
  Fe  Fe28  1  0.74679600  0.24320400  0.37652800  1
  Fe  Fe29  1  0.74634900  0.24528400  0.87200300  1
  Fe  Fe30  1  0.87476700  0.62580700  0.93626300  1
  Fe  Fe31  1  0.87496500  0.62226600  0.43803900  1
  Fe  Fe32  1  0.88264800  0.37795800  0.06236100  1
  Fe  Fe33  1  0.87316600  0.37482000  0.56343200  1
  Fe  Fe34  1  0.87519800  0.87358100  0.31317900  1
  Fe  Fe35  1  0.87626300  0.87223000  0.80797100  1
  Fe  Fe36  1  0.87923600  0.12493300  0.19258000  1
  Fe  Fe37  1  0.87676700  0.12587700  0.68630500  1
  Fe  Fe38  1  0.00379200  0.00717000  0.49936400  1
  Fe  Fe39  1  0.00300600  0.00539100  0.99775600  1
  O  O0  1  0.11359200  0.60652000  0.43804300  1
  O  O1  1  0.11506300  0.60820500  0.93709300  1
  O  O2  1  0.13165900  0.87508600  0.06499400  1
  O  O3  1  0.13348700  0.88057800  0.56261300  1
  O  O4  1  0.11884700  0.37185600  0.05379000  1
  O  O5  1  0.10671100  0.36844100  0.55735100  1
  O  O6  1  0.10821000  0.87449700  0.30930000  1
  O  O7  1  0.14197200  0.63134500  0.18646400  1
  O  O8  1  0.13411600  0.62248800  0.68792600  1
  O  O9  1  0.11561500  0.89284200  0.81573400  1
  O  O10  1  0.12546100  0.14420500  0.43691200  1
  O  O11  1  0.12462700  0.14046100  0.92955300  1
  O  O12  1  0.11500800  0.11481500  0.18772500  1
  O  O13  1  0.10681000  0.13343600  0.69480600  1
  O  O14  1  0.13340800  0.37384000  0.31868000  1
  O  O15  1  0.13924100  0.36251700  0.81810800  1
  O  O16  1  0.37542600  0.63378900  0.07159900  1
  O  O17  1  0.37440300  0.63330000  0.56818500  1
  O  O18  1  0.38397400  0.87324900  0.44013900  1
  O  O19  1  0.38847300  0.86985100  0.94068300  1
  O  O20  1  0.36769900  0.86242000  0.18468800  1
  O  O21  1  0.37941500  0.86684000  0.68551200  1
  O  O22  1  0.38445900  0.11522500  0.06288400  1
  O  O23  1  0.37892800  0.37998800  0.43289100  1
  O  O24  1  0.39489200  0.11993500  0.56559500  1
  O  O25  1  0.36295200  0.37815700  0.93012600  1
  O  O26  1  0.37511600  0.61537600  0.30399100  1
  O  O27  1  0.37675700  0.60566100  0.80935900  1
  O  O28  1  0.37776700  0.13877100  0.31094200  1
  O  O29  1  0.35980300  0.14040600  0.81033400  1
  O  O30  1  0.38126200  0.38737000  0.19062200  1
  O  O31  1  0.39069700  0.37698800  0.69285600  1
  O  O32  1  0.61694500  0.88203800  0.05534300  1
  O  O33  1  0.62201400  0.89215900  0.55962400  1
  O  O34  1  0.63423200  0.63924300  0.93782500  1
  O  O35  1  0.63860900  0.63571700  0.43800700  1
  O  O36  1  0.62454400  0.11057800  0.93977900  1
  O  O37  1  0.62929700  0.11572600  0.44772100  1
  O  O38  1  0.61015900  0.61647300  0.18653000  1
  O  O39  1  0.62048500  0.60562800  0.68821100  1
  O  O40  1  0.64258900  0.87655400  0.31645900  1
  O  O41  1  0.63388500  0.88236800  0.81991500  1
  O  O42  1  0.63164100  0.36886200  0.06514700  1
  O  O43  1  0.63711700  0.36363800  0.56986700  1
  O  O44  1  0.61908200  0.37485000  0.30797200  1
  O  O45  1  0.61167300  0.36764700  0.80517700  1
  O  O46  1  0.63540900  0.13624600  0.18185300  1
  O  O47  1  0.64032300  0.13787400  0.68193000  1
  O  O48  1  0.87252700  0.86700400  0.43115400  1
  O  O49  1  0.86121100  0.86904900  0.93382000  1
  O  O50  1  0.87528500  0.61438200  0.05862500  1
  O  O51  1  0.87359400  0.60715600  0.55976200  1
  O  O52  1  0.87170300  0.64012700  0.31587600  1
  O  O53  1  0.87466000  0.63420600  0.81595500  1
  O  O54  1  0.86508800  0.13366400  0.06623900  1
  O  O55  1  0.86209600  0.13957100  0.56894200  1
  O  O56  1  0.88477300  0.37949400  0.93915200  1
  O  O57  1  0.86796200  0.38208000  0.44424000  1
  O  O58  1  0.88076400  0.87815700  0.19286600  1
  O  O59  1  0.86942400  0.89322300  0.69051500  1
  O  O60  1  0.86862000  0.37106000  0.18447400  1
  O  O61  1  0.86313300  0.36155300  0.68235500  1
  O  O62  1  0.87141900  0.10987600  0.30823100  1
  O  O63  1  0.88868400  0.12056100  0.80517200  1
loop_
_geom_bond_atom_site_label_1
_geom_bond_atom_site_label_2
_geom_bond_distance
_geom_bond_site_symmetry_2
Li0 O7 2.077273 1_555
Li0 O16 2.095945 1_555
Li0 O4 2.105868 1_555
Li0 O1 2.112895 1_554
Li0 O2 2.115946 1_555
Li0 O50 2.120750 1_455
Li1 O8 2.067514 1_555
Li1 O3 2.097591 1_555
Li1 O51 2.106989 1_455
Li1 O17 2.117650 1_555
Li1 O0 2.134854 1_555
Li1 O5 2.201753 1_555
Li2 O3 2.046295 1_555
Li2 O8 2.085984 1_555
Li2 O21 2.145664 1_555
Li2 O59 2.156718 1_455
Li2 O13 2.208175 1_565
Li2 O9 2.209330 1_555
Li3 O10 2.034618 1_555
Li3 O28 2.073439 1_555
Li3 O6 2.086978 1_545
Li3 O14 2.108300 1_555
Li3 O12 2.156780 1_555
Li3 O62 2.199364 1_455
Li4 O10 2.055138 1_555
Li4 O18 2.100249 1_545
Li4 O28 2.107579 1_555
Li4 O23 2.152334 1_555
Li4 O24 2.178431 1_555
Li4 O37 2.200508 1_555
Li5 O29 2.095105 1_555
Li5 O11 2.095601 1_555
Li5 O36 2.121352 1_555
Li5 O25 2.127428 1_555
Li5 O19 2.140686 1_545
Li5 O22 2.149727 1_556
Li6 O35 2.084587 1_555
Li6 O52 2.089524 1_555
Li6 O40 2.095767 1_555
Li6 O26 2.099748 1_555
Li6 O44 2.115243 1_555
Li6 O38 2.139943 1_555
Li7 O27 2.069297 1_555
Li7 O39 2.078389 1_555
Li7 O34 2.117298 1_555
Li7 O53 2.128573 1_555
Li7 O45 2.158153 1_555
Li7 O41 2.163534 1_555
Fe0 O14 1.882934 1_555
Fe0 O52 1.900585 1_455
Fe0 O7 1.920683 1_555
Fe0 O60 1.996939 1_455
Fe1 O8 1.831003 1_555
Fe1 O53 1.928104 1_455
Fe1 O15 1.978188 1_555
Fe1 O61 1.994438 1_455
Fe2 O10 1.902934 1_555
Fe2 O0 1.973070 1_555
Fe2 O5 1.987695 1_555
Fe2 O14 2.022745 1_555
Fe2 O23 2.131797 1_555
Fe2 O57 2.175686 1_455
Fe3 O6 2.008066 1_555
Fe3 O7 2.016777 1_555
Fe3 O20 2.031000 1_555
Fe3 O12 2.040916 1_565
Fe3 O58 2.071483 1_455
Fe3 O2 2.095560 1_555
Fe4 O11 1.958663 1_555
Fe4 O25 1.966139 1_555
Fe4 O1 1.966697 1_555
Fe4 O4 1.972950 1_556
Fe4 O15 1.984941 1_555
Fe4 O56 2.062062 1_455
Fe5 O9 1.955382 1_545
Fe5 O29 1.961954 1_555
Fe5 O13 1.967227 1_555
Fe5 O11 1.980002 1_555
Fe5 O15 1.987683 1_555
Fe5 O63 2.008906 1_455
Fe6 O26 1.917222 1_555
Fe6 O0 1.927066 1_555
Fe6 O6 1.934706 1_555
Fe6 O18 1.941534 1_555
Fe7 O27 1.916207 1_555
Fe7 O9 1.930047 1_555
Fe7 O1 1.930823 1_555
Fe7 O19 1.934137 1_555
Fe8 O12 1.914398 1_555
Fe8 O22 1.916742 1_555
Fe8 O4 1.918265 1_555
Fe8 O30 1.933311 1_555
Fe9 O24 1.912498 1_555
Fe9 O5 1.922760 1_555
Fe9 O13 1.925234 1_555
Fe9 O31 1.984216 1_555
Fe10 O19 1.991699 1_554
Fe10 O2 1.992014 1_555
Fe10 O16 2.007017 1_555
Fe10 O22 2.044050 1_565
Fe10 O32 2.097188 1_555
Fe10 O20 2.109135 1_555
Fe11 O3 1.946154 1_555
Fe11 O18 2.038691 1_555
Fe11 O24 2.043900 1_565
Fe11 O17 2.054312 1_555
Fe11 O21 2.088034 1_555
Fe11 O33 2.168183 1_555
Fe12 O26 1.943312 1_555
Fe12 O7 1.955306 1_555
Fe12 O16 1.956554 1_555
Fe12 O38 1.986590 1_555
Fe12 O30 1.987088 1_555
Fe12 O20 1.995640 1_555
Fe13 O8 2.005475 1_555
Fe13 O21 2.011338 1_555
Fe13 O17 2.019420 1_555
Fe13 O27 2.033697 1_555
Fe13 O39 2.095016 1_555
Fe13 O31 2.100897 1_555
Fe14 O23 1.924391 1_555
Fe14 O28 1.945938 1_555
Fe14 O44 2.045070 1_555
Fe14 O14 2.049843 1_555
Fe14 O26 2.064488 1_555
Fe14 O30 2.144228 1_555
Fe15 O27 1.950069 1_555
Fe15 O29 1.953575 1_555
Fe15 O25 1.974739 1_555
Fe15 O45 1.979666 1_555
Fe15 O15 2.004728 1_555
Fe15 O31 2.011769 1_555
Fe16 O16 1.909483 1_556
Fe16 O34 1.914471 1_555
Fe16 O25 1.918048 1_555
Fe16 O42 1.976697 1_556
Fe17 O23 1.871704 1_555
Fe17 O17 1.902367 1_555
Fe17 O35 1.905992 1_555
Fe17 O43 1.987689 1_555
Fe18 O28 1.835423 1_555
Fe18 O40 1.913853 1_545
Fe18 O46 1.975846 1_555
Fe18 O20 1.985351 1_545
Fe19 O21 1.893500 1_545
Fe19 O29 1.912019 1_555
Fe19 O41 1.918981 1_545
Fe19 O47 1.987696 1_555
Fe20 O41 1.940177 1_555
Fe20 O34 1.966499 1_555
Fe20 O19 1.967383 1_555
Fe20 O36 1.986309 1_565
Fe20 O32 2.013186 1_556
Fe20 O49 2.013563 1_555
Fe21 O18 1.995836 1_555
Fe21 O40 2.005997 1_555
Fe21 O37 2.009912 1_565
Fe21 O35 2.027877 1_555
Fe21 O33 2.083213 1_555
Fe21 O48 2.120263 1_555
Fe22 O22 1.978400 1_555
Fe22 O36 2.009671 1_554
Fe22 O42 2.028252 1_555
Fe22 O32 2.055178 1_545
Fe22 O46 2.059012 1_555
Fe22 O54 2.072636 1_555
Fe23 O37 1.941810 1_555
Fe23 O24 1.947077 1_555
Fe23 O33 1.971302 1_545
Fe23 O43 1.983764 1_555
Fe23 O55 1.989737 1_555
Fe23 O47 1.991972 1_555
Fe24 O44 1.960729 1_555
Fe24 O38 1.966940 1_555
Fe24 O30 2.039301 1_555
Fe24 O60 2.067553 1_555
Fe24 O46 2.068740 1_555
Fe24 O42 2.116072 1_555
Fe25 O39 1.941323 1_555
Fe25 O45 1.969441 1_555
Fe25 O47 1.983383 1_555
Fe25 O43 1.985048 1_555
Fe25 O31 1.988399 1_555
Fe25 O61 1.994367 1_555
Fe26 O38 1.885777 1_555
Fe26 O50 1.905831 1_555
Fe26 O32 1.948314 1_555
Fe26 O58 1.960890 1_555
Fe27 O39 1.914243 1_555
Fe27 O51 1.914842 1_555
Fe27 O59 1.937458 1_555
Fe27 O33 1.957940 1_555
Fe28 O37 1.886461 1_555
Fe28 O57 1.913036 1_555
Fe28 O62 1.913450 1_555
Fe28 O44 1.921921 1_555
Fe29 O45 1.894894 1_555
Fe29 O36 1.905486 1_555
Fe29 O63 1.945937 1_555
Fe29 O56 1.965955 1_555
Fe30 O53 2.018521 1_555
Fe30 O1 2.027411 1_655
Fe30 O34 2.027414 1_555
Fe30 O49 2.041426 1_555
Fe30 O50 2.054044 1_556
Fe30 O56 2.065828 1_555
Fe31 O35 1.992042 1_555
Fe31 O0 2.012313 1_655
Fe31 O57 2.015818 1_555
Fe31 O51 2.045223 1_555
Fe31 O48 2.053870 1_555
Fe31 O52 2.054214 1_555
Fe32 O50 1.982690 1_555
Fe32 O4 1.993876 1_655
Fe32 O60 2.052203 1_555
Fe32 O54 2.052803 1_555
Fe32 O56 2.065917 1_554
Fe32 O42 2.113995 1_555
Fe33 O51 1.947391 1_555
Fe33 O5 1.968906 1_655
Fe33 O55 1.975202 1_555
Fe33 O43 1.991620 1_555
Fe33 O61 1.999439 1_555
Fe33 O57 1.999780 1_555
Fe34 O52 1.956438 1_555
Fe34 O40 1.958377 1_555
Fe34 O6 1.961936 1_655
Fe34 O48 1.979114 1_555
Fe34 O62 1.981684 1_565
Fe34 O58 2.018363 1_555
Fe35 O59 1.978306 1_555
Fe35 O53 1.998848 1_555
Fe35 O9 2.024737 1_655
Fe35 O41 2.051839 1_555
Fe35 O63 2.083391 1_565
Fe35 O49 2.114517 1_555
Fe36 O62 1.944893 1_555
Fe36 O12 1.987704 1_655
Fe36 O46 2.061043 1_555
Fe36 O58 2.067234 1_545
Fe36 O60 2.068693 1_555
Fe36 O54 2.122578 1_555
Fe37 O13 1.941208 1_655
Fe37 O59 1.951309 1_545
Fe37 O55 1.974791 1_555
Fe37 O61 1.978971 1_555
Fe37 O47 1.993182 1_555
Fe37 O63 1.995657 1_555
Fe38 O3 1.855053 1_545
Fe38 O10 1.864584 1_555
Fe38 O48 1.970582 1_445
Fe38 O55 2.004333 1_455
Fe39 O2 1.906754 1_546
Fe39 O11 1.910770 1_555
Fe39 O54 1.955593 1_456
Fe39 O49 1.963258 1_445
