# generated using pymatgen
data_Li2Mn3SbO8
_symmetry_space_group_name_H-M   'P 1'
_cell_length_a   6.02957900
_cell_length_b   6.02958713
_cell_length_c   9.80313200
_cell_angle_alpha   90.00102488
_cell_angle_beta   89.99948993
_cell_angle_gamma   119.99987897
_symmetry_Int_Tables_number   1
_chemical_formula_structural   Li2Mn3SbO8
_chemical_formula_sum   'Li4 Mn6 Sb2 O16'
_cell_volume   308.65305294
_cell_formula_units_Z   2
loop_
 _symmetry_equiv_pos_site_id
 _symmetry_equiv_pos_as_xyz
  1  'x, y, z'
loop_
 _atom_site_type_symbol
 _atom_site_label
 _atom_site_symmetry_multiplicity
 _atom_site_fract_x
 _atom_site_fract_y
 _atom_site_fract_z
 _atom_site_occupancy
  Li  Li0  1  0.33332500  0.66667800  0.90488400  1
  Li  Li1  1  0.00000400  0.99999900  0.98616500  1
  Li  Li2  1  0.99999500  0.99999600  0.48616300  1
  Li  Li3  1  0.66667700  0.33335400  0.40488400  1
  Mn  Mn0  1  0.16049000  0.82168000  0.21328500  1
  Mn  Mn1  1  0.17834000  0.33882500  0.21327600  1
  Mn  Mn2  1  0.66119800  0.83953900  0.21327300  1
  Mn  Mn3  1  0.33881800  0.17835400  0.71327800  1
  Mn  Mn4  1  0.83951700  0.66119800  0.71328200  1
  Mn  Mn5  1  0.82166200  0.16048500  0.71327200  1
  Sb  Sb0  1  0.33333600  0.66667500  0.48513300  1
  Sb  Sb1  1  0.66666300  0.33334200  0.98513800  1
  O  O0  1  0.14278000  0.80733000  0.59115000  1
  O  O1  1  0.03655000  0.47911700  0.35009000  1
  O  O2  1  0.33334100  0.66668400  0.11810200  1
  O  O3  1  0.00000300  0.00002100  0.29609100  1
  O  O4  1  0.99999200  0.00001400  0.79609000  1
  O  O5  1  0.19266500  0.33546200  0.59114300  1
  O  O6  1  0.44255800  0.96347000  0.35009600  1
  O  O7  1  0.52090900  0.55746200  0.35008600  1
  O  O8  1  0.33545300  0.19267400  0.09114400  1
  O  O9  1  0.66454200  0.85722200  0.59114700  1
  O  O10  1  0.55743700  0.52090900  0.85009700  1
  O  O11  1  0.47908700  0.03655000  0.85008800  1
  O  O12  1  0.66665700  0.33334100  0.61810200  1
  O  O13  1  0.85721900  0.66455300  0.09115200  1
  O  O14  1  0.96344900  0.44257000  0.85008900  1
  O  O15  1  0.80733600  0.14279700  0.09114000  1
loop_
_geom_bond_atom_site_label_1
_geom_bond_atom_site_label_2
_geom_bond_distance
_geom_bond_site_symmetry_2
Li0 O10 2.018575 1_555
Li0 O11 2.018576 1_565
Li0 O14 2.018580 1_455
Li0 O2 2.090204 1_556
Li1 O4 1.863330 1_465
Li1 O8 2.037146 1_566
Li1 O15 2.037181 1_466
Li1 O13 2.037184 1_456
Li2 O3 1.863301 1_665
Li2 O9 2.037189 1_555
Li2 O0 2.037204 1_655
Li2 O5 2.037211 1_665
Li3 O1 2.018563 1_655
Li3 O7 2.018595 1_555
Li3 O6 2.018602 1_545
Li3 O12 2.090204 1_555
Mn0 O3 1.947347 1_565
Mn0 O2 1.950449 1_555
Mn0 O13 1.985552 1_455
Mn0 O6 1.992033 1_555
Mn0 O1 2.253869 1_555
Mn0 O8 2.278316 1_565
Mn1 O3 1.947298 1_555
Mn1 O2 1.950491 1_555
Mn1 O8 1.985501 1_555
Mn1 O1 1.992090 1_555
Mn1 O7 2.253909 1_555
Mn1 O15 2.278315 1_455
Mn2 O3 1.947300 1_665
Mn2 O2 1.950452 1_555
Mn2 O15 1.985515 1_565
Mn2 O7 1.992098 1_555
Mn2 O6 2.253980 1_555
Mn2 O13 2.278233 1_555
Mn3 O4 1.947376 1_455
Mn3 O12 1.950394 1_555
Mn3 O5 1.985535 1_555
Mn3 O11 1.992060 1_555
Mn3 O10 2.253885 1_555
Mn3 O0 2.278350 1_545
Mn4 O4 1.947303 1_565
Mn4 O12 1.950485 1_555
Mn4 O0 1.985514 1_655
Mn4 O10 1.992106 1_555
Mn4 O14 2.253870 1_555
Mn4 O9 2.278302 1_555
Mn5 O4 1.947291 1_555
Mn5 O12 1.950477 1_555
Mn5 O9 1.985459 1_545
Mn5 O14 1.992124 1_555
Mn5 O11 2.253968 1_555
Mn5 O5 2.278274 1_655
O0 Sb0 2.023343 1_555
O1 Sb0 2.051839 1_555
O5 Sb0 2.023341 1_555
O6 Sb0 2.051865 1_555
O7 Sb0 2.051862 1_555
O8 Sb1 2.023290 1_554
O9 Sb0 2.023316 1_555
O10 Sb1 2.051876 1_555
O11 Sb1 2.051908 1_555
O13 Sb1 2.023332 1_554
O14 Sb1 2.051876 1_555
O15 Sb1 2.023320 1_554
