# generated using pymatgen
data_Li3Fe3NiO8
_symmetry_space_group_name_H-M   'P 1'
_cell_length_a   5.94841017
_cell_length_b   5.94841017
_cell_length_c   5.94841001
_cell_angle_alpha   59.48829891
_cell_angle_beta   59.48829891
_cell_angle_gamma   59.48830026
_symmetry_Int_Tables_number   1
_chemical_formula_structural   Li3Fe3NiO8
_chemical_formula_sum   'Li3 Fe3 Ni1 O8'
_cell_volume   147.09693837
_cell_formula_units_Z   1
loop_
 _symmetry_equiv_pos_site_id
 _symmetry_equiv_pos_as_xyz
  1  'x, y, z'
loop_
 _atom_site_type_symbol
 _atom_site_label
 _atom_site_symmetry_multiplicity
 _atom_site_fract_x
 _atom_site_fract_y
 _atom_site_fract_z
 _atom_site_occupancy
  Li  Li0  1  0.00000000  0.50000000  0.00000000  1
  Li  Li1  1  0.50000000  0.00000000  0.00000000  1
  Li  Li2  1  0.00000000  0.00000000  0.50000000  1
  Fe  Fe0  1  0.50000000  0.00000000  0.50000000  1
  Fe  Fe1  1  0.00000000  0.50000000  0.50000000  1
  Fe  Fe2  1  0.50000000  0.50000000  0.00000000  1
  Ni  Ni0  1  0.00000000  0.00000000  0.00000000  1
  O  O0  1  0.74272600  0.74272600  0.74272600  1
  O  O1  1  0.22737100  0.76146700  0.22737100  1
  O  O2  1  0.76146700  0.22737100  0.22737100  1
  O  O3  1  0.25727400  0.25727400  0.25727400  1
  O  O4  1  0.22737100  0.22737100  0.76146700  1
  O  O5  1  0.77262900  0.23853300  0.77262900  1
  O  O6  1  0.23853300  0.77262900  0.77262900  1
  O  O7  1  0.77262900  0.77262900  0.23853300  1
loop_
_geom_bond_atom_site_label_1
_geom_bond_atom_site_label_2
_geom_bond_distance
_geom_bond_site_symmetry_2
Li0 O2 2.152469 1_455
Li0 O6 2.152469 1_554
Li0 O4 2.152469 1_554
Li0 O7 2.152469 1_455
Li0 O3 2.158591 1_555
Li0 O0 2.158591 1_454
Li1 O5 2.152469 1_554
Li1 O1 2.152469 1_545
Li1 O4 2.152469 1_554
Li1 O7 2.152469 1_545
Li1 O3 2.158591 1_555
Li1 O0 2.158591 1_544
Li2 O6 2.152469 1_545
Li2 O5 2.152469 1_455
Li2 O2 2.152469 1_455
Li2 O1 2.152469 1_545
Li2 O3 2.158591 1_555
Li2 O0 2.158591 1_445
Fe0 O0 2.034891 1_545
Fe0 O3 2.034891 1_555
Fe0 O6 2.055679 1_545
Fe0 O2 2.055679 1_555
Fe0 O7 2.055679 1_545
Fe0 O4 2.055679 1_555
Fe1 O0 2.034891 1_455
Fe1 O3 2.034891 1_555
Fe1 O1 2.055679 1_555
Fe1 O5 2.055679 1_455
Fe1 O7 2.055679 1_455
Fe1 O4 2.055679 1_555
Fe2 O3 2.034891 1_555
Fe2 O0 2.034891 1_554
Fe2 O6 2.055679 1_554
Fe2 O1 2.055679 1_555
Fe2 O5 2.055679 1_554
Fe2 O2 2.055679 1_555
Ni0 O4 1.905756 1_554
Ni0 O7 1.905756 1_445
Ni0 O1 1.905756 1_545
Ni0 O5 1.905756 1_454
Ni0 O2 1.905756 1_455
Ni0 O6 1.905756 1_544
