# generated using pymatgen
data_LiCoSiO4
_symmetry_space_group_name_H-M   'P 1'
_cell_length_a   4.77092600
_cell_length_b   5.79618300
_cell_length_c   10.15644300
_cell_angle_alpha   90.00000000
_cell_angle_beta   90.00000000
_cell_angle_gamma   90.00000000
_symmetry_Int_Tables_number   1
_chemical_formula_structural   LiCoSiO4
_chemical_formula_sum   'Li4 Co4 Si4 O16'
_cell_volume   280.85774509
_cell_formula_units_Z   4
loop_
 _symmetry_equiv_pos_site_id
 _symmetry_equiv_pos_as_xyz
  1  'x, y, z'
loop_
 _atom_site_type_symbol
 _atom_site_label
 _atom_site_symmetry_multiplicity
 _atom_site_fract_x
 _atom_site_fract_y
 _atom_site_fract_z
 _atom_site_occupancy
  Li  Li0  1  0.50000000  0.00000000  0.00000000  1
  Li  Li1  1  0.00000000  0.00000000  0.50000000  1
  Li  Li2  1  0.00000000  0.50000000  0.50000000  1
  Li  Li3  1  0.50000000  0.50000000  0.00000000  1
  Co  Co0  1  0.51725600  0.75000000  0.27576200  1
  Co  Co1  1  0.98274400  0.75000000  0.77576200  1
  Co  Co2  1  0.01725600  0.25000000  0.22423800  1
  Co  Co3  1  0.48274400  0.25000000  0.72423800  1
  Si  Si0  1  0.55614400  0.25000000  0.40662700  1
  Si  Si1  1  0.94385600  0.25000000  0.90662700  1
  Si  Si2  1  0.05614400  0.75000000  0.09337300  1
  Si  Si3  1  0.44385600  0.75000000  0.59337300  1
  O  O0  1  0.68886000  0.25000000  0.55499800  1
  O  O1  1  0.71202600  0.03174700  0.32772700  1
  O  O2  1  0.71202600  0.46825300  0.32772700  1
  O  O3  1  0.71585800  0.75000000  0.10098100  1
  O  O4  1  0.78414200  0.75000000  0.60098100  1
  O  O5  1  0.78797400  0.46825300  0.82772700  1
  O  O6  1  0.78797400  0.03174700  0.82772700  1
  O  O7  1  0.81114000  0.25000000  0.05499800  1
  O  O8  1  0.18886000  0.75000000  0.94500200  1
  O  O9  1  0.21202600  0.53174700  0.17227300  1
  O  O10  1  0.21202600  0.96825300  0.17227300  1
  O  O11  1  0.21585800  0.25000000  0.39901900  1
  O  O12  1  0.28414200  0.25000000  0.89901900  1
  O  O13  1  0.28797400  0.96825300  0.67227300  1
  O  O14  1  0.28797400  0.53174700  0.67227300  1
  O  O15  1  0.31114000  0.75000000  0.44500200  1
loop_
_geom_bond_atom_site_label_1
_geom_bond_atom_site_label_2
_geom_bond_distance
_geom_bond_site_symmetry_2
Li0 O3 2.052360 1_545
Li0 O12 2.052360 1_554
Li0 O7 2.148318 1_555
Li0 O8 2.148318 1_544
Li0 O10 2.232230 1_545
Li0 O6 2.232230 1_554
Li1 O11 2.052360 1_555
Li1 O4 2.052360 1_445
Li1 O0 2.148318 1_455
Li1 O15 2.148318 1_545
Li1 O13 2.232230 1_545
Li1 O1 2.232230 1_455
Li2 O11 2.052360 1_555
Li2 O4 2.052360 1_455
Li2 O0 2.148318 1_455
Li2 O15 2.148318 1_555
Li2 O14 2.232230 1_555
Li2 O2 2.232230 1_455
Li3 O12 2.052360 1_554
Li3 O3 2.052360 1_555
Li3 O7 2.148318 1_555
Li3 O8 2.148318 1_554
Li3 O5 2.232230 1_554
Li3 O9 2.232230 1_555
Co0 O1 1.951641 1_565
Co0 O2 1.951641 1_555
Co0 O15 1.980288 1_555
Co0 O3 2.012201 1_555
Co0 O10 2.196744 1_555
Co0 O9 2.196744 1_555
Co1 O6 1.951641 1_565
Co1 O5 1.951641 1_555
Co1 O8 1.980288 1_655
Co1 O4 2.012201 1_555
Co1 O13 2.196744 1_655
Co1 O14 2.196744 1_655
Co2 O10 1.951641 1_545
Co2 O9 1.951641 1_555
Co2 O7 1.980288 1_455
Co2 O11 2.012201 1_555
Co2 O1 2.196744 1_455
Co2 O2 2.196744 1_455
Co3 O14 1.951641 1_555
Co3 O13 1.951641 1_545
Co3 O0 1.980288 1_555
Co3 O12 2.012201 1_555
Co3 O6 2.196744 1_555
Co3 O5 2.196744 1_555
O0 Si0 1.634542 1_555
O1 Si0 1.671991 1_555
O2 Si0 1.671991 1_555
O3 Si2 1.625317 1_655
O4 Si3 1.625317 1_555
O5 Si1 1.671991 1_555
O6 Si1 1.671991 1_555
O7 Si1 1.634542 1_554
O8 Si2 1.634542 1_556
O9 Si2 1.671991 1_555
O10 Si2 1.671991 1_555
O11 Si0 1.625317 1_555
O12 Si1 1.625317 1_455
O13 Si3 1.671991 1_555
O14 Si3 1.671991 1_555
O15 Si3 1.634542 1_555
