# generated using pymatgen
data_NbFe3Co2(PO4)6
_symmetry_space_group_name_H-M   'P 1'
_cell_length_a   8.58044580
_cell_length_b   8.58044580
_cell_length_c   8.58044647
_cell_angle_alpha   60.85737038
_cell_angle_beta   60.85737038
_cell_angle_gamma   60.85737138
_symmetry_Int_Tables_number   1
_chemical_formula_structural   NbFe3Co2(PO4)6
_chemical_formula_sum   'Nb1 Fe3 Co2 P6 O24'
_cell_volume   455.33361034
_cell_formula_units_Z   1
loop_
 _symmetry_equiv_pos_site_id
 _symmetry_equiv_pos_as_xyz
  1  'x, y, z'
loop_
 _atom_site_type_symbol
 _atom_site_label
 _atom_site_symmetry_multiplicity
 _atom_site_fract_x
 _atom_site_fract_y
 _atom_site_fract_z
 _atom_site_occupancy
  Nb  Nb0  1  0.85778300  0.85778300  0.85778300  1
  Fe  Fe0  1  0.35550400  0.35550400  0.35550400  1
  Fe  Fe1  1  0.14631400  0.14631400  0.14631400  1
  Fe  Fe2  1  0.64407900  0.64407900  0.64407900  1
  Co  Co0  1  0.00707200  0.00707200  0.00707200  1
  Co  Co1  1  0.50035900  0.50035900  0.50035900  1
  P  P0  1  0.44932300  0.74639900  0.04742500  1
  P  P1  1  0.74639900  0.04742500  0.44932300  1
  P  P2  1  0.04742500  0.44932300  0.74639900  1
  P  P3  1  0.95444000  0.53890800  0.25686200  1
  P  P4  1  0.25686200  0.95444000  0.53890800  1
  P  P5  1  0.53890800  0.25686200  0.95444000  1
  O  O0  1  0.68304800  0.88873300  0.49560600  1
  O  O1  1  0.88873300  0.49560600  0.68304800  1
  O  O2  1  0.49560600  0.68304800  0.88873300  1
  O  O3  1  0.25805700  0.91001000  0.06091800  1
  O  O4  1  0.61432800  0.81648900  0.99485100  1
  O  O5  1  0.44430900  0.59126000  0.24164500  1
  O  O6  1  0.91001000  0.06091800  0.25805700  1
  O  O7  1  0.59126000  0.24164500  0.44430900  1
  O  O8  1  0.99580900  0.38784900  0.18409600  1
  O  O9  1  0.24164500  0.44430900  0.59126000  1
  O  O10  1  0.93736200  0.73905700  0.09217400  1
  O  O11  1  0.18409600  0.99580900  0.38784900  1
  O  O12  1  0.81648900  0.99485100  0.61432800  1
  O  O13  1  0.06091800  0.25805700  0.91001000  1
  O  O14  1  0.75779300  0.55793900  0.41123400  1
  O  O15  1  0.99485100  0.61432800  0.81648900  1
  O  O16  1  0.41123400  0.75779300  0.55793900  1
  O  O17  1  0.09217400  0.93736200  0.73905700  1
  O  O18  1  0.55793900  0.41123400  0.75779300  1
  O  O19  1  0.38784900  0.18409600  0.99580900  1
  O  O20  1  0.73905700  0.09217400  0.93736200  1
  O  O21  1  0.50557000  0.31479200  0.11262200  1
  O  O22  1  0.11262200  0.50557000  0.31479200  1
  O  O23  1  0.31479200  0.11262200  0.50557000  1
loop_
_geom_bond_atom_site_label_1
_geom_bond_atom_site_label_2
_geom_bond_distance
_geom_bond_site_symmetry_2
Nb0 O4 1.947982 1_555
Nb0 O15 1.947982 1_555
Nb0 O12 1.947982 1_555
Nb0 O17 2.052660 1_655
Nb0 O20 2.052660 1_565
Nb0 O10 2.052661 1_556
Fe0 O23 1.944370 1_555
Fe0 O22 1.944370 1_555
Fe0 O21 1.944370 1_555
Fe0 O5 2.116261 1_555
Fe0 O7 2.116261 1_555
Fe0 O9 2.116261 1_555
Fe1 O19 1.925582 1_554
Fe1 O8 1.925582 1_455
Fe1 O11 1.925582 1_545
Fe1 O6 2.106332 1_455
Fe1 O3 2.106332 1_545
Fe1 O13 2.106332 1_554
Fe2 O0 1.950800 1_555
Fe2 O1 1.950800 1_555
Fe2 O2 1.950800 1_555
Fe2 O18 2.080189 1_555
Fe2 O16 2.080189 1_555
Fe2 O14 2.080189 1_555
Co0 O13 2.095795 1_554
Co0 O3 2.095796 1_545
Co0 O6 2.095796 1_455
Co0 O10 2.336308 1_445
Co0 O20 2.336308 1_454
Co0 O17 2.336308 1_544
Co1 O9 2.180740 1_555
Co1 O7 2.180740 1_555
Co1 O5 2.180740 1_555
Co1 O14 2.181246 1_555
Co1 O16 2.181246 1_555
Co1 O18 2.181246 1_555
O0 P1 1.513687 1_565
O1 P2 1.513687 1_655
O2 P0 1.513687 1_556
O3 P0 1.551405 1_555
O4 P0 1.585161 1_556
O5 P0 1.541546 1_555
O6 P1 1.551405 1_555
O7 P1 1.541546 1_555
O8 P3 1.523181 1_555
O9 P2 1.541546 1_555
O10 P3 1.600188 1_555
O11 P4 1.523182 1_555
O12 P1 1.585161 1_565
O13 P2 1.551405 1_555
O14 P3 1.547165 1_555
O15 P2 1.585161 1_655
O16 P4 1.547164 1_555
O17 P4 1.600188 1_555
O18 P5 1.547165 1_555
O19 P5 1.523181 1_555
O20 P5 1.600188 1_555
O21 P5 1.520377 1_554
O22 P3 1.520377 1_455
O23 P4 1.520377 1_545
