# generated using pymatgen
data_LiV5O7F
_symmetry_space_group_name_H-M   'P 1'
_cell_length_a   6.01960460
_cell_length_b   6.01960460
_cell_length_c   6.01960416
_cell_angle_alpha   61.39300885
_cell_angle_beta   61.39300885
_cell_angle_gamma   61.39301534
_symmetry_Int_Tables_number   1
_chemical_formula_structural   LiV5O7F
_chemical_formula_sum   'Li1 V5 O7 F1'
_cell_volume   159.06363030
_cell_formula_units_Z   1
loop_
 _symmetry_equiv_pos_site_id
 _symmetry_equiv_pos_as_xyz
  1  'x, y, z'
loop_
 _atom_site_type_symbol
 _atom_site_label
 _atom_site_symmetry_multiplicity
 _atom_site_fract_x
 _atom_site_fract_y
 _atom_site_fract_z
 _atom_site_occupancy
  Li  Li0  1  0.24154500  0.24154500  0.24154500  1
  V  V0  1  0.00924100  0.00924100  0.00924100  1
  V  V1  1  0.62006100  0.62006100  0.62006100  1
  V  V2  1  0.63210000  0.12884000  0.63210000  1
  V  V3  1  0.12884000  0.63210000  0.63210000  1
  V  V4  1  0.63210000  0.63210000  0.12884000  1
  O  O0  1  0.84330800  0.37486300  0.37486300  1
  O  O1  1  0.37486300  0.37486300  0.84330800  1
  O  O2  1  0.37486300  0.84330800  0.37486300  1
  O  O3  1  0.87309500  0.87309500  0.87309500  1
  O  O4  1  0.86834600  0.40414400  0.86834600  1
  O  O5  1  0.40414400  0.86834600  0.86834600  1
  O  O6  1  0.86834600  0.86834600  0.40414400  1
  F  F0  1  0.37913800  0.37913800  0.37913800  1
loop_
_geom_bond_atom_site_label_1
_geom_bond_atom_site_label_2
_geom_bond_distance
_geom_bond_site_symmetry_2
Li0 O1 1.991736 1_554
Li0 O2 1.991737 1_545
Li0 O0 1.991737 1_455
O0 V2 1.982235 1_555
O0 V4 1.982235 1_555
O0 V1 2.109601 1_555
O1 V3 1.982235 1_555
O1 V2 1.982235 1_555
O1 V1 2.109601 1_555
O2 V3 1.982235 1_555
O2 V4 1.982235 1_555
O2 V1 2.109601 1_555
O3 V0 1.986073 1_666
O3 V4 2.077756 1_556
O3 V2 2.077757 1_565
O3 V3 2.077757 1_655
O4 V0 1.979156 1_656
O4 V3 2.102515 1_655
O4 V4 2.102515 1_556
O4 V1 2.139044 1_555
O5 V0 1.979156 1_566
O5 V2 2.102515 1_565
O5 V4 2.102515 1_556
O5 V1 2.139044 1_555
O6 V0 1.979156 1_665
O6 V2 2.102515 1_565
O6 V3 2.102515 1_655
O6 V1 2.139044 1_555
F0 Li0 2.007182 1_555
F0 V4 2.175758 1_555
F0 V2 2.175759 1_555
F0 V3 2.175759 1_555
