# generated using pymatgen
data_Li4MnF7
_symmetry_space_group_name_H-M   'P 1'
_cell_length_a   5.70130600
_cell_length_b   7.04174370
_cell_length_c   7.49359603
_cell_angle_alpha   62.70096035
_cell_angle_beta   69.53204129
_cell_angle_gamma   76.39096294
_symmetry_Int_Tables_number   1
_chemical_formula_structural   Li4MnF7
_chemical_formula_sum   'Li8 Mn2 F14'
_cell_volume   249.44571166
_cell_formula_units_Z   2
loop_
 _symmetry_equiv_pos_site_id
 _symmetry_equiv_pos_as_xyz
  1  'x, y, z'
loop_
 _atom_site_type_symbol
 _atom_site_label
 _atom_site_symmetry_multiplicity
 _atom_site_fract_x
 _atom_site_fract_y
 _atom_site_fract_z
 _atom_site_occupancy
  Li  Li0  1  0.16788700  0.54457000  0.30736600  1
  Li  Li1  1  0.53380800  0.27567000  0.62429800  1
  Li  Li2  1  0.15404400  0.53105600  0.81334200  1
  Li  Li3  1  0.51649000  0.28936100  0.14828900  1
  Li  Li4  1  0.48351000  0.71063900  0.85171100  1
  Li  Li5  1  0.84595600  0.46894400  0.18665800  1
  Li  Li6  1  0.46619200  0.72433000  0.37570200  1
  Li  Li7  1  0.83211300  0.45543000  0.69263400  1
  Mn  Mn0  1  0.00000000  0.00000000  0.00000000  1
  Mn  Mn1  1  0.00000000  0.00000000  0.50000000  1
  F  F0  1  0.18271500  0.24184500  0.80715300  1
  F  F1  1  0.90044400  0.11579500  0.24556300  1
  F  F2  1  0.33990800  0.02517600  0.34722400  1
  F  F3  1  0.22498000  0.47773600  0.06602600  1
  F  F4  1  0.49226600  0.43304600  0.34590300  1
  F  F5  1  0.29182000  0.83798900  0.07088600  1
  F  F6  1  0.07734400  0.67580300  0.51801100  1
  F  F7  1  0.92265600  0.32419700  0.48198900  1
  F  F8  1  0.70818000  0.16201100  0.92911400  1
  F  F9  1  0.50773400  0.56695400  0.65409700  1
  F  F10  1  0.77502000  0.52226400  0.93397400  1
  F  F11  1  0.66009200  0.97482400  0.65277600  1
  F  F12  1  0.09955600  0.88420500  0.75443700  1
  F  F13  1  0.81728500  0.75815500  0.19284700  1
loop_
_geom_bond_atom_site_label_1
_geom_bond_atom_site_label_2
_geom_bond_distance
_geom_bond_site_symmetry_2
F0 Mn0 1.896934 1_556
F0 Li1 1.986913 1_555
F0 Li2 2.025113 1_555
F0 Li7 2.365386 1_455
F1 Mn1 1.932707 1_655
F1 Mn0 2.191176 1_655
F1 Li5 2.280553 1_555
F1 Li3 2.420068 1_555
F2 Mn1 1.876568 1_555
F2 Li3 1.996139 1_555
F2 Li6 2.006705 1_545
F3 Li2 1.924032 1_554
F3 Li3 1.957236 1_555
F3 Li0 1.973590 1_555
F3 Li5 2.033737 1_455
F3 Li4 2.123106 1_554
F4 Li0 1.897989 1_555
F4 Li1 1.933326 1_555
F4 Li5 1.958173 1_555
F4 Li3 2.097913 1_555
F4 Li6 2.128989 1_555
F5 Mn0 1.876367 1_565
F5 Li4 2.080998 1_554
F5 Li0 2.088408 1_555
F6 Li7 1.988487 1_455
F6 Li0 2.038563 1_555
F6 Li2 2.127407 1_555
F6 Li6 2.130175 1_555
F6 Mn1 2.170165 1_565
F7 Li0 1.988487 1_655
F7 Li7 2.038563 1_555
F7 Li5 2.127407 1_555
F7 Li1 2.130175 1_555
F7 Mn1 2.170165 1_655
F8 Mn0 1.876367 1_656
F8 Li3 2.080998 1_556
F8 Li7 2.088408 1_555
F9 Li7 1.897989 1_555
F9 Li6 1.933326 1_555
F9 Li2 1.958173 1_555
F9 Li4 2.097913 1_555
F9 Li1 2.128989 1_555
F10 Li5 1.924032 1_556
F10 Li4 1.957236 1_555
F10 Li7 1.973590 1_555
F10 Li2 2.033737 1_655
F10 Li3 2.123106 1_556
F11 Mn1 1.876568 1_665
F11 Li4 1.996139 1_555
F11 Li1 2.006705 1_565
F12 Mn1 1.932707 1_565
F12 Mn0 2.191176 1_566
F12 Li2 2.280553 1_555
F12 Li4 2.420068 1_555
F13 Mn0 1.896934 1_665
F13 Li6 1.986913 1_555
F13 Li5 2.025113 1_555
F13 Li0 2.365386 1_655
