# generated using pymatgen
data_Li3Bi2(PO4)3
_symmetry_space_group_name_H-M   'P 1'
_cell_length_a   9.44990200
_cell_length_b   8.81363600
_cell_length_c   12.85301105
_cell_angle_alpha   81.95434423
_cell_angle_beta   90.00000000
_cell_angle_gamma   90.00000000
_symmetry_Int_Tables_number   1
_chemical_formula_structural   Li3Bi2(PO4)3
_chemical_formula_sum   'Li12 Bi8 P12 O48'
_cell_volume   1059.96443713
_cell_formula_units_Z   4
loop_
 _symmetry_equiv_pos_site_id
 _symmetry_equiv_pos_as_xyz
  1  'x, y, z'
loop_
 _atom_site_type_symbol
 _atom_site_label
 _atom_site_symmetry_multiplicity
 _atom_site_fract_x
 _atom_site_fract_y
 _atom_site_fract_z
 _atom_site_occupancy
  Li  Li0  1  0.18408300  0.72025600  0.94291000  1
  Li  Li1  1  0.60970400  0.50000000  0.75000000  1
  Li  Li2  1  0.18408300  0.27974400  0.55709000  1
  Li  Li3  1  0.50000000  0.50000000  0.50000000  1
  Li  Li4  1  0.00000000  0.00000000  0.50000000  1
  Li  Li5  1  0.81591700  0.72025600  0.44291000  1
  Li  Li6  1  0.88836800  0.00000000  0.75000000  1
  Li  Li7  1  0.39029600  0.50000000  0.25000000  1
  Li  Li8  1  0.11163200  0.00000000  0.25000000  1
  Li  Li9  1  0.00000000  0.00000000  0.00000000  1
  Li  Li10  1  0.50000000  0.50000000  0.00000000  1
  Li  Li11  1  0.81591700  0.27974400  0.05709000  1
  Bi  Bi0  1  0.50494300  0.80937600  0.83893600  1
  Bi  Bi1  1  0.00266400  0.68596200  0.65999400  1
  Bi  Bi2  1  0.00266400  0.31403800  0.84000600  1
  Bi  Bi3  1  0.50494300  0.19062400  0.66106400  1
  Bi  Bi4  1  0.99733600  0.68596200  0.15999400  1
  Bi  Bi5  1  0.99733600  0.31403800  0.34000600  1
  Bi  Bi6  1  0.49505700  0.80937600  0.33893600  1
  Bi  Bi7  1  0.49505700  0.19062400  0.16106400  1
  P  P0  1  0.33127500  0.50000000  0.75000000  1
  P  P1  1  0.83557900  0.67758100  0.91750200  1
  P  P2  1  0.66150500  0.81433000  0.59014500  1
  P  P3  1  0.16166300  0.00000000  0.75000000  1
  P  P4  1  0.16442100  0.67758100  0.41750200  1
  P  P5  1  0.66150500  0.18567000  0.90985500  1
  P  P6  1  0.83557900  0.32241900  0.58249800  1
  P  P7  1  0.33849500  0.81433000  0.09014500  1
  P  P8  1  0.33849500  0.18567000  0.40985500  1
  P  P9  1  0.16442100  0.32241900  0.08249800  1
  P  P10  1  0.66872500  0.50000000  0.25000000  1
  P  P11  1  0.83833700  0.00000000  0.25000000  1
  O  O0  1  0.24778400  0.87383000  0.81582700  1
  O  O1  1  0.59564200  0.02953700  0.90110900  1
  O  O2  1  0.05858800  0.93451200  0.66967100  1
  O  O3  1  0.43289500  0.55962200  0.83358800  1
  O  O4  1  0.24147000  0.37049400  0.80821000  1
  O  O5  1  0.67194300  0.67909700  0.93677900  1
  O  O6  1  0.91901500  0.76383400  0.99803300  1
  O  O7  1  0.24147000  0.62950600  0.69179000  1
  O  O8  1  0.05858800  0.06548800  0.83032900  1
  O  O9  1  0.08098500  0.76383400  0.49803300  1
  O  O10  1  0.60519000  0.26558800  0.00449300  1
  O  O11  1  0.63672100  0.70408700  0.69173000  1
  O  O12  1  0.40435800  0.02953700  0.40110900  1
  O  O13  1  0.87941300  0.50719600  0.92890100  1
  O  O14  1  0.87458100  0.77050500  0.81034000  1
  O  O15  1  0.43289500  0.44037800  0.66641200  1
  O  O16  1  0.12541900  0.77050500  0.31034000  1
  O  O17  1  0.63672100  0.29591300  0.80827000  1
  O  O18  1  0.82539400  0.83442200  0.56661300  1
  O  O19  1  0.60519000  0.73441200  0.49550700  1
  O  O20  1  0.24778400  0.12617000  0.68417300  1
  O  O21  1  0.12058700  0.50719600  0.42890100  1
  O  O22  1  0.32805700  0.67909700  0.43677900  1
  O  O23  1  0.82539400  0.16557800  0.93338700  1
  O  O24  1  0.67194300  0.32090300  0.56322100  1
  O  O25  1  0.17460600  0.83442200  0.06661300  1
  O  O26  1  0.75221600  0.87383000  0.31582700  1
  O  O27  1  0.87941300  0.49280400  0.57109900  1
  O  O28  1  0.17460600  0.16557800  0.43338700  1
  O  O29  1  0.39481000  0.26558800  0.50449300  1
  O  O30  1  0.87458100  0.22949500  0.68966000  1
  O  O31  1  0.36327900  0.70408700  0.19173000  1
  O  O32  1  0.56710500  0.55962200  0.33358800  1
  O  O33  1  0.12541900  0.22949500  0.18966000  1
  O  O34  1  0.59564200  0.97046300  0.59889100  1
  O  O35  1  0.12058700  0.49280400  0.07109900  1
  O  O36  1  0.36327900  0.29591300  0.30827000  1
  O  O37  1  0.39481000  0.73441200  0.99550700  1
  O  O38  1  0.91901500  0.23616600  0.50196700  1
  O  O39  1  0.94141200  0.93451200  0.16967100  1
  O  O40  1  0.75853000  0.37049400  0.30821000  1
  O  O41  1  0.32805700  0.32090300  0.06322100  1
  O  O42  1  0.08098500  0.23616600  0.00196700  1
  O  O43  1  0.75853000  0.62950600  0.19179000  1
  O  O44  1  0.56710500  0.44037800  0.16641200  1
  O  O45  1  0.94141200  0.06548800  0.33032900  1
  O  O46  1  0.40435800  0.97046300  0.09889100  1
  O  O47  1  0.75221600  0.12617000  0.18417300  1
loop_
_geom_bond_atom_site_label_1
_geom_bond_atom_site_label_2
_geom_bond_distance
_geom_bond_site_symmetry_2
Li0 O25 1.999072 1_556
Li0 O0 2.059991 1_555
Li0 O37 2.112266 1_555
Li0 O35 2.483714 1_556
Li1 O11 1.866680 1_555
Li1 O17 1.866680 1_555
Li1 O15 2.092864 1_555
Li1 O3 2.092864 1_555
Li2 O28 1.999072 1_555
Li2 O20 2.059991 1_555
Li2 O29 2.112266 1_555
Li2 O21 2.483714 1_555
Li3 O15 2.222277 1_555
Li3 O32 2.222277 1_555
Li3 O19 2.286152 1_555
Li3 O29 2.286152 1_555
Li3 O24 2.330882 1_555
Li3 O22 2.330882 1_555
Li4 O9 2.221175 1_545
Li4 O38 2.221175 1_455
Li4 O2 2.245694 1_545
Li4 O45 2.245694 1_455
Li4 O28 2.288122 1_555
Li4 O18 2.288122 1_445
Li5 O18 1.999072 1_555
Li5 O26 2.059991 1_555
Li5 O19 2.112266 1_555
Li5 O27 2.483714 1_555
Li6 O8 2.037996 1_655
Li6 O2 2.037996 1_645
Li6 O30 2.066541 1_555
Li6 O14 2.066541 1_545
Li7 O36 1.866680 1_555
Li7 O31 1.866680 1_555
Li7 O32 2.092864 1_555
Li7 O44 2.092864 1_555
Li8 O45 2.037996 1_455
Li8 O39 2.037996 1_445
Li8 O33 2.066541 1_555
Li8 O16 2.066541 1_545
Li9 O42 2.221175 1_555
Li9 O6 2.221175 1_444
Li9 O8 2.245694 1_554
Li9 O39 2.245694 1_445
Li9 O25 2.288122 1_545
Li9 O23 2.288122 1_454
Li10 O3 2.222277 1_554
Li10 O44 2.222277 1_555
Li10 O37 2.286152 1_554
Li10 O10 2.286152 1_555
Li10 O41 2.330882 1_555
Li10 O5 2.330882 1_554
Li11 O23 1.999072 1_554
Li11 O47 2.059991 1_555
Li11 O10 2.112266 1_555
Li11 O13 2.483714 1_554
Bi0 O5 2.232988 1_555
Bi0 O37 2.279755 1_555
Bi0 O3 2.314323 1_555
Bi0 O1 2.360608 1_565
Bi0 O0 2.503840 1_555
Bi0 O11 2.546211 1_555
Bi1 O9 2.225382 1_555
Bi1 O2 2.273738 1_555
Bi1 O7 2.334597 1_555
Bi1 O18 2.349314 1_455
Bi1 O27 2.470779 1_455
Bi1 O14 2.481420 1_455
Bi2 O42 2.225382 1_556
Bi2 O8 2.273738 1_555
Bi2 O4 2.334597 1_555
Bi2 O23 2.349314 1_455
Bi2 O13 2.470779 1_455
Bi2 O30 2.481420 1_455
Bi3 O24 2.232988 1_555
Bi3 O29 2.279755 1_555
Bi3 O15 2.314323 1_555
Bi3 O34 2.360608 1_545
Bi3 O20 2.503840 1_555
Bi3 O17 2.546211 1_555
Bi4 O6 2.225382 1_554
Bi4 O39 2.273738 1_555
Bi4 O43 2.334597 1_555
Bi4 O25 2.349314 1_655
Bi4 O35 2.470779 1_655
Bi4 O16 2.481420 1_655
Bi5 O38 2.225382 1_555
Bi5 O45 2.273738 1_555
Bi5 O40 2.334597 1_555
Bi5 O28 2.349314 1_655
Bi5 O21 2.470779 1_655
Bi5 O33 2.481420 1_655
Bi6 O22 2.232988 1_555
Bi6 O19 2.279755 1_555
Bi6 O32 2.314323 1_555
Bi6 O12 2.360608 1_565
Bi6 O26 2.503840 1_555
Bi6 O31 2.546211 1_555
Bi7 O41 2.232988 1_555
Bi7 O10 2.279755 1_555
Bi7 O44 2.314323 1_555
Bi7 O46 2.360608 1_545
Bi7 O47 2.503840 1_555
Bi7 O36 2.546211 1_555
O0 P3 1.533422 1_565
O1 P5 1.528715 1_555
O2 P3 1.585788 1_565
O3 P0 1.584484 1_555
O4 P0 1.530933 1_555
O5 P1 1.566421 1_555
O6 P1 1.578354 1_555
O7 P0 1.530933 1_555
O8 P3 1.585788 1_555
O9 P4 1.578354 1_555
O10 P5 1.580748 1_554
O11 P2 1.532513 1_555
O12 P8 1.528715 1_555
O13 P1 1.544862 1_555
O14 P1 1.545294 1_555
O15 P0 1.584484 1_555
O16 P4 1.545294 1_555
O17 P5 1.532513 1_555
O18 P2 1.583170 1_555
O19 P2 1.580748 1_555
O20 P3 1.533422 1_555
O21 P4 1.544862 1_555
O22 P4 1.566421 1_555
O23 P5 1.583170 1_555
O24 P6 1.566421 1_555
O25 P7 1.583170 1_555
O26 P11 1.533422 1_565
O27 P6 1.544862 1_555
O28 P8 1.583170 1_555
O29 P8 1.580748 1_555
O30 P6 1.545294 1_555
O31 P7 1.532513 1_555
O32 P10 1.584484 1_555
O33 P9 1.545294 1_555
O34 P2 1.528715 1_555
O35 P9 1.544862 1_555
O36 P8 1.532513 1_555
O37 P7 1.580748 1_556
O38 P6 1.578354 1_555
O39 P11 1.585788 1_565
O40 P10 1.530933 1_555
O41 P9 1.566421 1_555
O42 P9 1.578354 1_555
O43 P10 1.530933 1_555
O44 P10 1.584484 1_555
O45 P11 1.585788 1_555
O46 P7 1.528715 1_555
O47 P11 1.533422 1_555
