# generated using pymatgen
data_Li2Mn3(PO4)3
_symmetry_space_group_name_H-M   'P 1'
_cell_length_a   8.60737661
_cell_length_b   8.60737661
_cell_length_c   8.53394979
_cell_angle_alpha   63.76681293
_cell_angle_beta   63.76681293
_cell_angle_gamma   62.55521581
_symmetry_Int_Tables_number   1
_chemical_formula_structural   Li2Mn3(PO4)3
_chemical_formula_sum   'Li4 Mn6 P6 O24'
_cell_volume   480.22557928
_cell_formula_units_Z   2
loop_
 _symmetry_equiv_pos_site_id
 _symmetry_equiv_pos_as_xyz
  1  'x, y, z'
loop_
 _atom_site_type_symbol
 _atom_site_label
 _atom_site_symmetry_multiplicity
 _atom_site_fract_x
 _atom_site_fract_y
 _atom_site_fract_z
 _atom_site_occupancy
  Li  Li0  1  0.35571200  0.64428800  0.50000000  1
  Li  Li1  1  0.65877000  0.34123000  0.00000000  1
  Li  Li2  1  0.24608900  0.15209000  0.60085700  1
  Li  Li3  1  0.84791000  0.75391100  0.39914300  1
  Mn  Mn0  1  0.49798800  0.00975100  0.24168400  1
  Mn  Mn1  1  0.14965400  0.64435700  0.89649200  1
  Mn  Mn2  1  0.65296500  0.15634900  0.40649600  1
  Mn  Mn3  1  0.99024900  0.50201200  0.75831600  1
  Mn  Mn4  1  0.35564300  0.85034600  0.10350800  1
  Mn  Mn5  1  0.84365100  0.34703500  0.59350400  1
  P  P0  1  0.74936700  0.56015300  0.18313500  1
  P  P1  1  0.43984700  0.25063300  0.81686500  1
  P  P2  1  0.05956100  0.94043900  0.50000000  1
  P  P3  1  0.96265500  0.03734500  0.00000000  1
  P  P4  1  0.54410000  0.74919800  0.69368500  1
  P  P5  1  0.25080200  0.45590000  0.30631500  1
  O  O0  1  0.59763500  0.30714900  0.78902400  1
  O  O1  1  0.02840500  0.09400800  0.56573400  1
  O  O2  1  0.80357800  0.53697600  0.34339900  1
  O  O3  1  0.58174800  0.74767400  0.17651800  1
  O  O4  1  0.69285100  0.40236500  0.21097600  1
  O  O5  1  0.90085200  0.58255800  0.99731600  1
  O  O6  1  0.41744200  0.09914800  0.00268400  1
  O  O7  1  0.25232600  0.41825200  0.82348200  1
  O  O8  1  0.11349500  0.99267500  0.07746600  1
  O  O9  1  0.08273200  0.74515500  0.64747000  1
  O  O10  1  0.76837700  0.05655100  0.14729400  1
  O  O11  1  0.48978000  0.81315000  0.85611800  1
  O  O12  1  0.46302400  0.19642200  0.65660100  1
  O  O13  1  0.25484500  0.91726800  0.35253000  1
  O  O14  1  0.94344900  0.23162300  0.85270600  1
  O  O15  1  0.90599100  0.97159500  0.43426600  1
  O  O16  1  0.73940300  0.59653200  0.68263700  1
  O  O17  1  0.57097500  0.90279200  0.50360800  1
  O  O18  1  0.09720800  0.42902500  0.49639200  1
  O  O19  1  0.31666600  0.60038800  0.29332800  1
  O  O20  1  0.40346800  0.26059700  0.31736300  1
  O  O21  1  0.18685000  0.51022000  0.14388200  1
  O  O22  1  0.00732500  0.88650500  0.92253400  1
  O  O23  1  0.39961200  0.68333400  0.70667200  1
loop_
_geom_bond_atom_site_label_1
_geom_bond_atom_site_label_2
_geom_bond_distance
_geom_bond_site_symmetry_2
Li0 O13 2.080813 1_555
Li0 O9 2.080813 1_555
Li0 O23 2.144000 1_555
Li0 O19 2.144000 1_555
Li1 O14 2.160740 1_554
Li1 O10 2.160740 1_555
Li1 O4 2.247529 1_555
Li1 O0 2.247529 1_554
Li2 O18 2.105824 1_555
Li2 O20 2.198132 1_555
Li2 O1 2.311474 1_555
Li2 O12 2.336887 1_555
Li2 O14 2.565361 1_455
Li3 O17 2.105824 1_555
Li3 O16 2.198132 1_555
Li3 O15 2.311468 1_555
Li3 O2 2.336887 1_555
Li3 O10 2.565361 1_565
Mn0 O6 2.145612 1_555
Mn0 O20 2.211306 1_555
Mn0 O13 2.242366 1_545
Mn0 O17 2.264423 1_545
Mn0 O10 2.268837 1_555
Mn0 O3 2.274451 1_545
Mn1 O22 1.926000 1_555
Mn1 O7 1.989122 1_555
Mn1 O21 1.998665 1_556
Mn1 O23 2.114081 1_555
Mn1 O9 2.142962 1_555
Mn1 O5 2.150788 1_455
Mn2 O15 2.063703 1_545
Mn2 O12 2.096088 1_555
Mn2 O4 2.103831 1_555
Mn2 O20 2.249451 1_555
Mn2 O17 2.291658 1_545
Mn2 O10 2.359731 1_555
Mn3 O5 2.145612 1_555
Mn3 O16 2.211306 1_555
Mn3 O9 2.242366 1_655
Mn3 O18 2.264423 1_655
Mn3 O14 2.268837 1_555
Mn3 O7 2.274451 1_655
Mn4 O8 1.926000 1_555
Mn4 O3 1.989122 1_555
Mn4 O11 1.998665 1_554
Mn4 O19 2.114081 1_555
Mn4 O13 2.142962 1_555
Mn4 O6 2.150788 1_565
Mn5 O1 2.063709 1_655
Mn5 O2 2.096088 1_555
Mn5 O0 2.103831 1_555
Mn5 O16 2.249451 1_555
Mn5 O18 2.291658 1_655
Mn5 O14 2.359731 1_555
O0 P1 1.535965 1_555
O1 P2 1.526307 1_545
O2 P0 1.537940 1_555
O3 P0 1.592113 1_555
O4 P0 1.535965 1_555
O5 P0 1.544503 1_556
O6 P1 1.544503 1_554
O7 P1 1.592113 1_555
O8 P3 1.531171 1_465
O9 P2 1.578522 1_555
O10 P3 1.573001 1_555
O11 P4 1.519048 1_555
O12 P1 1.537940 1_555
O13 P2 1.578522 1_555
O14 P3 1.573001 1_556
O15 P2 1.526315 1_655
O16 P4 1.579475 1_555
O17 P4 1.576982 1_555
O18 P5 1.576982 1_555
O19 P5 1.533911 1_555
O20 P5 1.579475 1_555
O21 P5 1.519048 1_555
O22 P3 1.531171 1_466
O23 P4 1.533911 1_555
