# generated using pymatgen
data_LiCoSbO4
_symmetry_space_group_name_H-M   'P 1'
_cell_length_a   6.13601900
_cell_length_b   6.13835300
_cell_length_c   8.58776000
_cell_angle_alpha   89.99930238
_cell_angle_beta   89.99988393
_cell_angle_gamma   90.00011203
_symmetry_Int_Tables_number   1
_chemical_formula_structural   LiCoSbO4
_chemical_formula_sum   'Li4 Co4 Sb4 O16'
_cell_volume   323.45841524
_cell_formula_units_Z   4
loop_
 _symmetry_equiv_pos_site_id
 _symmetry_equiv_pos_as_xyz
  1  'x, y, z'
loop_
 _atom_site_type_symbol
 _atom_site_label
 _atom_site_symmetry_multiplicity
 _atom_site_fract_x
 _atom_site_fract_y
 _atom_site_fract_z
 _atom_site_occupancy
  Li  Li0  1  0.00000100  0.20873900  0.00000100  1
  Li  Li1  1  0.00000100  0.79126200  0.50000000  1
  Li  Li2  1  0.20870800  0.00000000  0.25000000  1
  Li  Li3  1  0.79129700  0.00000000  0.75000100  1
  Co  Co0  1  0.74811800  0.25183200  0.37510600  1
  Co  Co1  1  0.74811800  0.74817300  0.12490700  1
  Co  Co2  1  0.25188600  0.25182700  0.62491900  1
  Co  Co3  1  0.25188700  0.74817400  0.87508500  1
  Sb  Sb0  1  0.22720200  0.49999800  0.25000100  1
  Sb  Sb1  1  0.50000300  0.22723900  0.99999900  1
  Sb  Sb2  1  0.50000100  0.77276100  0.50000200  1
  Sb  Sb3  1  0.77279100  0.50000200  0.75000000  1
  O  O0  1  0.01702100  0.26154100  0.25156400  1
  O  O1  1  0.01702000  0.73845400  0.24843400  1
  O  O2  1  0.26152700  0.01707800  0.99837800  1
  O  O3  1  0.26152300  0.98291900  0.50162100  1
  O  O4  1  0.73847800  0.01707100  0.00160500  1
  O  O5  1  0.73847800  0.98293300  0.49839500  1
  O  O6  1  0.98298200  0.26155700  0.74843200  1
  O  O7  1  0.98297900  0.73844600  0.75156600  1
  O  O8  1  0.26801000  0.47721600  0.01415400  1
  O  O9  1  0.26801100  0.52277700  0.48584500  1
  O  O10  1  0.47727400  0.26804200  0.23585800  1
  O  O11  1  0.47726500  0.73194800  0.26413700  1
  O  O12  1  0.52273900  0.26806700  0.76412500  1
  O  O13  1  0.52273100  0.73193100  0.73587300  1
  O  O14  1  0.73197300  0.52281600  0.51413800  1
  O  O15  1  0.73198000  0.47719600  0.98585500  1
loop_
_geom_bond_atom_site_label_1
_geom_bond_atom_site_label_2
_geom_bond_distance
_geom_bond_site_symmetry_2
Li0 O2 1.989841 1_554
Li0 O4 1.989847 1_455
Li0 O0 2.187040 1_555
Li0 O6 2.187097 1_454
Li0 O15 2.331295 1_454
Li0 O8 2.331330 1_555
Li1 O3 1.989803 1_555
Li1 O5 1.989861 1_455
Li1 O1 2.187070 1_555
Li1 O7 2.187070 1_455
Li1 O14 2.331269 1_455
Li1 O9 2.331374 1_555
Li2 O0 1.990234 1_555
Li2 O1 1.990259 1_545
Li2 O3 2.187541 1_545
Li2 O2 2.187550 1_554
Li2 O10 2.331850 1_555
Li2 O11 2.331857 1_545
Li3 O7 1.990280 1_545
Li3 O6 1.990302 1_555
Li3 O4 2.187398 1_556
Li3 O5 2.187415 1_545
Li3 O12 2.331922 1_555
Li3 O13 2.331963 1_545
Co0 O5 1.961870 1_545
Co0 O0 1.962558 1_655
Co0 O10 2.049838 1_555
Co0 O14 2.049956 1_555
Co1 O4 1.961925 1_565
Co1 O1 1.962489 1_655
Co1 O11 2.049793 1_555
Co1 O15 2.050019 1_554
Co2 O3 1.961979 1_545
Co2 O6 1.962434 1_455
Co2 O12 2.049683 1_555
Co2 O9 2.049967 1_555
Co3 O2 1.961936 1_565
Co3 O7 1.962485 1_455
Co3 O13 2.049665 1_555
Co3 O8 2.049982 1_556
O0 Sb0 1.950884 1_555
O1 Sb0 1.950887 1_555
O2 Sb1 1.950801 1_555
O3 Sb2 1.950801 1_555
O4 Sb1 1.950827 1_554
O5 Sb2 1.950849 1_555
O6 Sb3 1.950873 1_555
O7 Sb3 1.950853 1_555
O8 Sb0 2.045604 1_555
O8 Sb1 2.096594 1_554
O9 Sb0 2.045579 1_555
O9 Sb2 2.096610 1_555
O10 Sb1 2.045690 1_554
O10 Sb0 2.096801 1_555
O11 Sb2 2.045752 1_555
O11 Sb0 2.096729 1_555
O12 Sb1 2.045833 1_555
O12 Sb3 2.096609 1_555
O13 Sb2 2.045807 1_555
O13 Sb3 2.096625 1_555
O14 Sb3 2.045750 1_555
O14 Sb2 2.096352 1_555
O15 Sb3 2.045681 1_555
O15 Sb1 2.096426 1_555
