# generated using pymatgen
data_Li4Mn3Cr3(CoO8)2
_symmetry_space_group_name_H-M   'P 1'
_cell_length_a   5.84821025
_cell_length_b   5.84821025
_cell_length_c   9.64980139
_cell_angle_alpha   89.47989675
_cell_angle_beta   89.47989675
_cell_angle_gamma   60.05294796
_symmetry_Int_Tables_number   1
_chemical_formula_structural   Li4Mn3Cr3(CoO8)2
_chemical_formula_sum   'Li4 Mn3 Cr3 Co2 O16'
_cell_volume   285.95820160
_cell_formula_units_Z   1
loop_
 _symmetry_equiv_pos_site_id
 _symmetry_equiv_pos_as_xyz
  1  'x, y, z'
loop_
 _atom_site_type_symbol
 _atom_site_label
 _atom_site_symmetry_multiplicity
 _atom_site_fract_x
 _atom_site_fract_y
 _atom_site_fract_z
 _atom_site_occupancy
  Li  Li0  1  0.33226200  0.33226200  0.10444400  1
  Li  Li1  1  0.99632500  0.99632500  0.00288700  1
  Li  Li2  1  0.99712700  0.99712700  0.50324600  1
  Li  Li3  1  0.66787100  0.66787100  0.60385600  1
  Mn  Mn0  1  0.16970800  0.16970800  0.78497200  1
  Mn  Mn1  1  0.83122700  0.33550500  0.28562600  1
  Mn  Mn2  1  0.33550500  0.83122700  0.28562600  1
  Cr  Cr0  1  0.66357000  0.17055000  0.78554600  1
  Cr  Cr1  1  0.17055000  0.66357000  0.78554600  1
  Cr  Cr2  1  0.83009800  0.83009800  0.28559100  1
  Co  Co0  1  0.33205200  0.33205200  0.50563100  1
  Co  Co1  1  0.66590400  0.66590400  0.00662300  1
  O  O0  1  0.68213500  0.15433300  0.39425000  1
  O  O1  1  0.48451900  0.48451900  0.67502300  1
  O  O2  1  0.32839600  0.32839600  0.89412200  1
  O  O3  1  0.00626300  0.00626300  0.68657300  1
  O  O4  1  0.00400100  0.00400100  0.18772900  1
  O  O5  1  0.15433300  0.68213500  0.39425000  1
  O  O6  1  0.48498500  0.03769000  0.66962300  1
  O  O7  1  0.03769000  0.48498500  0.66962300  1
  O  O8  1  0.83923500  0.83923500  0.89137700  1
  O  O9  1  0.15669400  0.15669400  0.39451500  1
  O  O10  1  0.96725800  0.51751300  0.17329200  1
  O  O11  1  0.51751300  0.96725800  0.17329200  1
  O  O12  1  0.65982900  0.65982900  0.39240200  1
  O  O13  1  0.83876400  0.31422400  0.89464100  1
  O  O14  1  0.51907900  0.51907900  0.16786100  1
  O  O15  1  0.31422400  0.83876400  0.89464100  1
loop_
_geom_bond_atom_site_label_1
_geom_bond_atom_site_label_2
_geom_bond_distance
_geom_bond_site_symmetry_2
Li0 O10 1.962172 1_455
Li0 O11 1.962172 1_545
Li0 O14 1.994449 1_555
Li0 O2 2.030353 1_554
Li1 O4 1.786196 1_665
Li1 O13 1.915311 1_564
Li1 O15 1.915311 1_654
Li1 O8 1.929878 1_554
Li2 O3 1.772455 1_665
Li2 O0 1.916169 1_565
Li2 O5 1.916169 1_655
Li2 O9 1.917401 1_665
Li3 O1 1.972917 1_555
Li3 O6 1.981771 1_565
Li3 O7 1.981771 1_655
Li3 O12 2.042967 1_555
Mn0 O3 1.916797 1_555
Mn0 O2 1.930617 1_555
Mn0 O7 1.947246 1_555
Mn0 O6 1.947246 1_555
Mn0 O13 1.981432 1_455
Mn0 O15 1.981432 1_545
Mn1 O4 1.931867 1_655
Mn1 O10 1.936429 1_555
Mn1 O12 1.944863 1_555
Mn1 O14 1.958392 1_555
Mn1 O9 1.962059 1_655
Mn1 O0 1.966513 1_555
Mn2 O4 1.931867 1_565
Mn2 O11 1.936429 1_555
Mn2 O12 1.944863 1_555
Mn2 O14 1.958392 1_555
Mn2 O9 1.962059 1_565
Mn2 O5 1.966513 1_555
Cr0 O1 1.915864 1_555
Cr0 O13 1.938855 1_555
Cr0 O6 1.947568 1_555
Cr0 O8 1.961735 1_545
Cr0 O3 1.977698 1_655
Cr0 O2 1.991447 1_555
Cr1 O1 1.915864 1_555
Cr1 O15 1.938855 1_555
Cr1 O7 1.947568 1_555
Cr1 O8 1.961735 1_455
Cr1 O3 1.977698 1_565
Cr1 O2 1.991447 1_555
Cr2 O10 1.927625 1_555
Cr2 O11 1.927625 1_555
Cr2 O0 1.955812 1_565
Cr2 O5 1.955812 1_655
Cr2 O4 1.989538 1_665
Cr2 O12 1.999542 1_555
Co0 O0 2.069528 1_555
Co0 O5 2.069528 1_555
Co0 O9 2.084009 1_555
Co0 O6 2.169506 1_555
Co0 O7 2.169506 1_555
Co0 O1 2.260250 1_555
Co1 O8 2.068045 1_554
Co1 O15 2.089105 1_554
Co1 O13 2.089105 1_554
Co1 O14 2.140815 1_555
Co1 O10 2.223722 1_555
Co1 O11 2.223722 1_555
