# generated using pymatgen
data_Ti17(NO4)6
_symmetry_space_group_name_H-M   'P 1'
_cell_length_a   7.50170500
_cell_length_b   7.50170500
_cell_length_c   10.73655879
_cell_angle_alpha   74.21144249
_cell_angle_beta   74.21144249
_cell_angle_gamma   80.28099301
_symmetry_Int_Tables_number   1
_chemical_formula_structural   Ti17(NO4)6
_chemical_formula_sum   'Ti17 N6 O24'
_cell_volume   556.53667954
_cell_formula_units_Z   1
loop_
 _symmetry_equiv_pos_site_id
 _symmetry_equiv_pos_as_xyz
  1  'x, y, z'
loop_
 _atom_site_type_symbol
 _atom_site_label
 _atom_site_symmetry_multiplicity
 _atom_site_fract_x
 _atom_site_fract_y
 _atom_site_fract_z
 _atom_site_occupancy
  Ti  Ti0  1  0.71297400  0.49774800  0.67309200  1
  Ti  Ti1  1  0.94836800  0.17019900  0.82226500  1
  Ti  Ti2  1  0.82980100  0.05163200  0.17773500  1
  Ti  Ti3  1  0.78231400  0.88897200  0.50027400  1
  Ti  Ti4  1  0.50225200  0.28702600  0.32690800  1
  Ti  Ti5  1  0.55392900  0.44607100  0.00000000  1
  Ti  Ti6  1  0.38785400  0.17142300  0.67264200  1
  Ti  Ti7  1  0.82857600  0.61214600  0.32735800  1
  Ti  Ti8  1  0.16332600  0.38566000  0.17541100  1
  Ti  Ti9  1  0.11102800  0.21768600  0.49972600  1
  Ti  Ti10  1  0.88419900  0.77936000  0.00104600  1
  Ti  Ti11  1  0.22064000  0.11580100  0.99895400  1
  Ti  Ti12  1  0.61434000  0.83667400  0.82458900  1
  Ti  Ti13  1  0.05428300  0.82378700  0.68241900  1
  Ti  Ti14  1  0.49180400  0.71318500  0.19287600  1
  Ti  Ti15  1  0.17621300  0.94571700  0.31758100  1
  Ti  Ti16  1  0.28681500  0.50819600  0.80712400  1
  N  N0  1  0.98080800  0.01919200  0.00000000  1
  N  N1  1  0.34992200  0.29078300  0.49981700  1
  N  N2  1  0.31533800  0.35513100  0.99912000  1
  N  N3  1  0.70921700  0.65007800  0.50018300  1
  N  N4  1  0.02014300  0.97985700  0.50000000  1
  N  N5  1  0.64486900  0.68466200  0.00088000  1
  O  O0  1  0.91924900  0.32406500  0.63197900  1
  O  O1  1  0.63972500  0.49374100  0.29960100  1
  O  O2  1  0.50625900  0.36027500  0.70039900  1
  O  O3  1  0.95550300  0.83882200  0.31240600  1
  O  O4  1  0.67593500  0.08075100  0.36802100  1
  O  O5  1  0.65533600  0.25029600  0.12961900  1
  O  O6  1  0.74970400  0.34466400  0.87038100  1
  O  O7  1  0.58748100  0.99258600  0.63118800  1
  O  O8  1  0.83049700  0.71383300  0.68770800  1
  O  O9  1  0.28616700  0.16950300  0.31229200  1
  O  O10  1  0.70794900  0.83251000  0.18781000  1
  O  O11  1  0.82669700  0.95982400  0.81880600  1
  O  O12  1  0.00741400  0.41251900  0.36881200  1
  O  O13  1  0.16117800  0.04449700  0.68759400  1
  O  O14  1  0.99491200  0.59120600  0.13041200  1
  O  O15  1  0.40879400  0.00508800  0.86958800  1
  O  O16  1  0.16749000  0.29205100  0.81219000  1
  O  O17  1  0.34004000  0.75304300  0.35930600  1
  O  O18  1  0.24695700  0.65996000  0.64069400  1
  O  O19  1  0.32465000  0.92442500  0.12793900  1
  O  O20  1  0.04017600  0.17330300  0.18119400  1
  O  O21  1  0.50131400  0.62363700  0.81284100  1
  O  O22  1  0.37636300  0.49868600  0.18715900  1
  O  O23  1  0.07557500  0.67535000  0.87206100  1
loop_
_geom_bond_atom_site_label_1
_geom_bond_atom_site_label_2
_geom_bond_distance
_geom_bond_site_symmetry_2
N0 Ti1 1.991791 1_554
N0 Ti2 1.991791 1_555
N0 Ti11 2.046244 1_654
N0 Ti10 2.046244 1_545
N1 Ti4 1.901632 1_555
N1 Ti6 1.903403 1_555
N1 Ti9 1.960968 1_555
N2 Ti8 1.977003 1_556
N2 Ti5 2.023361 1_556
N2 Ti11 2.039884 1_555
N2 Ti16 2.117203 1_555
N3 Ti0 1.901632 1_555
N3 Ti7 1.903401 1_555
N3 Ti3 1.960968 1_555
N4 Ti3 2.013627 1_455
N4 Ti9 2.013627 1_565
N4 Ti13 2.048454 1_555
N4 Ti15 2.048454 1_555
N5 Ti12 1.977003 1_554
N5 Ti5 2.023361 1_555
N5 Ti10 2.039884 1_555
N5 Ti14 2.117203 1_555
O0 Ti0 1.883476 1_555
O0 Ti9 1.959640 1_655
O0 Ti1 2.104379 1_555
O1 Ti4 1.918913 1_555
O1 Ti7 1.919245 1_555
O1 Ti14 2.074368 1_555
O2 Ti0 1.918913 1_555
O2 Ti6 1.919251 1_555
O2 Ti16 2.074368 1_555
O3 Ti15 1.977385 1_655
O3 Ti7 2.034426 1_555
O3 Ti2 2.122740 1_565
O3 Ti3 2.172523 1_555
O4 Ti4 1.883476 1_555
O4 Ti3 1.959640 1_545
O4 Ti2 2.104379 1_555
O5 Ti2 1.868490 1_555
O5 Ti5 1.938819 1_555
O5 Ti4 2.183704 1_555
O6 Ti1 1.868490 1_555
O6 Ti5 1.938819 1_556
O6 Ti0 2.183704 1_555
O7 Ti6 1.877356 1_565
O7 Ti3 1.951672 1_555
O7 Ti12 2.132314 1_555
O8 Ti13 1.972826 1_655
O8 Ti0 2.031200 1_555
O8 Ti12 2.138706 1_555
O8 Ti3 2.168702 1_555
O9 Ti15 1.972826 1_545
O9 Ti4 2.031200 1_555
O9 Ti8 2.138706 1_555
O9 Ti9 2.168702 1_555
O10 Ti14 1.961866 1_555
O10 Ti2 1.976378 1_565
O10 Ti7 2.163638 1_555
O10 Ti10 2.177683 1_555
O11 Ti12 1.951143 1_555
O11 Ti1 1.965142 1_565
O11 Ti10 2.160531 1_556
O11 Ti13 2.228227 1_655
O12 Ti7 1.877361 1_455
O12 Ti9 1.951672 1_555
O12 Ti8 2.132314 1_555
O13 Ti13 1.977385 1_545
O13 Ti6 2.034421 1_555
O13 Ti1 2.122740 1_455
O13 Ti9 2.172523 1_555
O14 Ti8 1.864458 1_655
O14 Ti10 1.943279 1_555
O14 Ti7 2.175237 1_555
O15 Ti12 1.864458 1_545
O15 Ti11 1.943279 1_555
O15 Ti6 2.175235 1_555
O16 Ti16 1.961866 1_555
O16 Ti1 1.976378 1_455
O16 Ti6 2.163641 1_555
O16 Ti11 2.177683 1_555
O17 Ti15 1.774179 1_555
O17 Ti14 1.909787 1_555
O18 Ti13 1.774179 1_555
O18 Ti16 1.909787 1_555
O19 Ti11 1.927585 1_564
O19 Ti14 1.942479 1_555
O19 Ti15 2.072272 1_555
O20 Ti8 1.951143 1_555
O20 Ti2 1.965142 1_455
O20 Ti11 2.160531 1_554
O20 Ti15 2.228227 1_545
O21 Ti16 1.973860 1_555
O21 Ti12 1.978453 1_555
O21 Ti0 2.152356 1_555
O21 Ti5 2.183005 1_556
O22 Ti14 1.973860 1_555
O22 Ti8 1.978453 1_555
O22 Ti4 2.152356 1_555
O22 Ti5 2.183005 1_555
O23 Ti10 1.927585 1_456
O23 Ti16 1.942479 1_555
O23 Ti13 2.072272 1_555
