# generated using pymatgen
data_Li3MnCo3O8
_symmetry_space_group_name_H-M   'P 1'
_cell_length_a   5.81209180
_cell_length_b   5.81205132
_cell_length_c   5.91027049
_cell_angle_alpha   119.42899569
_cell_angle_beta   90.68756983
_cell_angle_gamma   59.16539419
_symmetry_Int_Tables_number   1
_chemical_formula_structural   Li3MnCo3O8
_chemical_formula_sum   'Li3 Mn1 Co3 O8'
_cell_volume   141.42230162
_cell_formula_units_Z   1
loop_
 _symmetry_equiv_pos_site_id
 _symmetry_equiv_pos_as_xyz
  1  'x, y, z'
loop_
 _atom_site_type_symbol
 _atom_site_label
 _atom_site_symmetry_multiplicity
 _atom_site_fract_x
 _atom_site_fract_y
 _atom_site_fract_z
 _atom_site_occupancy
  Li  Li0  1  0.00000000  0.00000000  0.49999900  1
  Li  Li1  1  0.50000000  0.00000000  0.50000000  1
  Li  Li2  1  0.50000100  0.49999900  0.50000000  1
  Mn  Mn0  1  0.99999900  0.99999800  0.00000100  1
  Co  Co0  1  0.99999700  0.50000800  0.00000400  1
  Co  Co1  1  0.50000400  0.99999900  0.00000300  1
  Co  Co2  1  0.50000200  0.49999400  0.99999800  1
  O  O0  1  0.23438900  0.00436900  0.76999000  1
  O  O1  1  0.24761700  0.52735400  0.78329800  1
  O  O2  1  0.26813200  0.47679900  0.20866000  1
  O  O3  1  0.74408200  0.03088900  0.78329700  1
  O  O4  1  0.25591300  0.96911600  0.21670500  1
  O  O5  1  0.73186900  0.52320100  0.79134100  1
  O  O6  1  0.75238100  0.47264700  0.21670300  1
  O  O7  1  0.76561300  0.99562600  0.23000100  1
loop_
_geom_bond_atom_site_label_1
_geom_bond_atom_site_label_2
_geom_bond_distance
_geom_bond_site_symmetry_2
Li0 O0 2.084772 1_555
Li0 O7 2.084794 1_445
Li0 O4 2.130425 1_545
Li0 O3 2.130443 1_455
Li0 O2 2.168285 1_545
Li0 O5 2.168287 1_455
Li1 O6 2.180914 1_545
Li1 O1 2.180918 1_555
Li1 O3 2.181033 1_555
Li1 O4 2.181043 1_545
Li1 O0 2.215682 1_555
Li1 O7 2.215708 1_545
Li2 O0 2.084711 1_565
Li2 O7 2.084727 1_545
Li2 O6 2.130436 1_555
Li2 O1 2.130444 1_555
Li2 O2 2.168337 1_555
Li2 O5 2.168338 1_555
Mn0 O4 1.947168 1_655
Mn0 O3 1.947182 1_564
Mn0 O1 1.947260 1_654
Mn0 O6 1.947281 1_565
Mn0 O7 1.954014 1_555
Mn0 O0 1.954073 1_664
Co0 O5 1.967115 1_554
Co0 O2 1.967116 1_655
Co0 O7 2.043302 1_555
Co0 O0 2.043388 1_654
Co0 O1 2.053222 1_654
Co0 O6 2.053242 1_555
Co1 O5 1.967124 1_554
Co1 O2 1.967133 1_565
Co1 O7 2.043279 1_555
Co1 O0 2.043365 1_564
Co1 O3 2.053230 1_564
Co1 O4 2.053240 1_555
Co2 O6 1.932169 1_556
Co2 O1 1.932175 1_555
Co2 O3 1.932240 1_555
Co2 O4 1.932310 1_556
Co2 O2 1.935134 1_556
Co2 O5 1.935152 1_555
