# generated using pymatgen
data_CoPO4
_symmetry_space_group_name_H-M   'P 1'
_cell_length_a   8.49567978
_cell_length_b   8.49567929
_cell_length_c   8.49568070
_cell_angle_alpha   107.85532416
_cell_angle_beta   107.85532533
_cell_angle_gamma   107.85532082
_symmetry_Int_Tables_number   1
_chemical_formula_structural   CoPO4
_chemical_formula_sum   'Co6 P6 O24'
_cell_volume   498.27470241
_cell_formula_units_Z   6
loop_
 _symmetry_equiv_pos_site_id
 _symmetry_equiv_pos_as_xyz
  1  'x, y, z'
loop_
 _atom_site_type_symbol
 _atom_site_label
 _atom_site_symmetry_multiplicity
 _atom_site_fract_x
 _atom_site_fract_y
 _atom_site_fract_z
 _atom_site_occupancy
  Co  Co0  1  0.24369910  0.05323528  0.46639113  1
  Co  Co1  1  0.76174112  0.95367557  0.54610121  1
  Co  Co2  1  0.95367557  0.54610121  0.76174112  1
  Co  Co3  1  0.05323528  0.46639113  0.24369910  1
  Co  Co4  1  0.46639113  0.24369910  0.05323528  1
  Co  Co5  1  0.54610121  0.76174112  0.95367557  1
  P  P0  1  0.20665714  0.42266985  0.61648031  1
  P  P1  1  0.61648031  0.20665714  0.42266985  1
  P  P2  1  0.91298799  0.71512083  0.12084743  1
  P  P3  1  0.71512083  0.12084743  0.91298799  1
  P  P4  1  0.12084743  0.91298799  0.71512083  1
  P  P5  1  0.42266985  0.61648031  0.20665714  1
  O  O0  1  0.09723334  0.37919528  0.41586963  1
  O  O1  1  0.28278385  0.62375826  0.28368420  1
  O  O2  1  0.08359191  0.41249051  0.71666694  1
  O  O3  1  0.26222633  0.01344064  0.91832715  1
  O  O4  1  0.61809136  0.71474642  0.36561692  1
  O  O5  1  0.41249051  0.71666694  0.08359191  1
  O  O6  1  0.41586963  0.09723334  0.37919528  1
  O  O7  1  0.62375826  0.28368420  0.28278385  1
  O  O8  1  0.59328395  0.22313902  0.91176452  1
  O  O9  1  0.91176452  0.59328395  0.22313902  1
  O  O10  1  0.37919528  0.41586963  0.09723334  1
  O  O11  1  0.91832715  0.26222633  0.01344064  1
  O  O12  1  0.66774463  -0.00505302  0.71715593  1
  O  O13  1  0.36561692  0.61809136  0.71474642  1
  O  O14  1  0.28368420  0.28278385  0.62375826  1
  O  O15  1  0.01344064  0.91832715  0.26222633  1
  O  O16  1  0.22313902  0.91176452  0.59328395  1
  O  O17  1  -0.00505302  0.71715593  0.66774463  1
  O  O18  1  0.67656403  0.00351254  0.01615372  1
  O  O19  1  0.71715593  0.66774463  -0.00505302  1
  O  O20  1  0.71474642  0.36561692  0.61809136  1
  O  O21  1  0.01615372  0.67656403  0.00351254  1
  O  O22  1  0.71666694  0.08359191  0.41249051  1
  O  O23  1  0.00351254  0.01615372  0.67656403  1
loop_
_geom_bond_atom_site_label_1
_geom_bond_atom_site_label_2
_geom_bond_distance
_geom_bond_site_symmetry_2
Co0 O6 1.824003 1_555
Co0 O16 1.848921 1_545
Co0 O14 1.849966 1_555
Co0 O15 1.863915 1_545
Co1 O23 1.817626 1_665
Co1 O4 1.839987 1_555
Co1 O22 1.847770 1_565
Co1 O12 1.855639 1_565
Co2 O21 1.817626 1_656
Co2 O20 1.839987 1_555
Co2 O2 1.847770 1_655
Co2 O17 1.855639 1_655
Co3 O0 1.824003 1_555
Co3 O9 1.848921 1_455
Co3 O1 1.849966 1_555
Co3 O11 1.863915 1_455
Co4 O10 1.824002 1_555
Co4 O8 1.848921 1_554
Co4 O7 1.849966 1_555
Co4 O3 1.863915 1_554
Co5 O18 1.817626 1_566
Co5 O13 1.839987 1_555
Co5 O5 1.847770 1_556
Co5 O19 1.855639 1_556
O0 P0 1.528784 1_555
O1 P5 1.530221 1_555
O2 P0 1.536380 1_555
O3 P4 1.532226 1_545
O4 P5 1.536513 1_555
O5 P5 1.536380 1_555
O6 P1 1.528784 1_555
O7 P1 1.530221 1_555
O8 P3 1.541848 1_555
O9 P2 1.541848 1_555
O10 P5 1.528784 1_555
O11 P3 1.532226 1_554
O12 P3 1.519258 1_555
O13 P0 1.536513 1_555
O14 P0 1.530221 1_555
O15 P2 1.532226 1_455
O16 P4 1.541849 1_555
O17 P4 1.519258 1_555
O18 P3 1.542974 1_554
O19 P2 1.519258 1_555
O20 P1 1.536513 1_555
O21 P2 1.542974 1_455
O22 P1 1.536380 1_555
O23 P4 1.542974 1_545
