# generated using pymatgen
data_Bi5O4F7
_symmetry_space_group_name_H-M   'P 1'
_cell_length_a   14.69083674
_cell_length_b   14.69083674
_cell_length_c   11.69791300
_cell_angle_alpha   90.00000000
_cell_angle_beta   90.00000000
_cell_angle_gamma   157.31747358
_symmetry_Int_Tables_number   1
_chemical_formula_structural   Bi5O4F7
_chemical_formula_sum   'Bi20 O16 F28'
_cell_volume   973.56795124
_cell_formula_units_Z   4
loop_
 _symmetry_equiv_pos_site_id
 _symmetry_equiv_pos_as_xyz
  1  'x, y, z'
loop_
 _atom_site_type_symbol
 _atom_site_label
 _atom_site_symmetry_multiplicity
 _atom_site_fract_x
 _atom_site_fract_y
 _atom_site_fract_z
 _atom_site_occupancy
  Bi  Bi0  1  0.80011400  0.70183400  0.60681400  1
  Bi  Bi1  1  0.20815200  0.30753700  0.60454700  1
  Bi  Bi2  1  0.02662800  0.52704700  0.61366500  1
  Bi  Bi3  1  0.32908600  0.03092500  0.60259200  1
  Bi  Bi4  1  0.56584600  0.86115700  0.60712500  1
  Bi  Bi5  1  0.86115700  0.56584600  0.39287500  1
  Bi  Bi6  1  0.03092500  0.32908600  0.39740800  1
  Bi  Bi7  1  0.52704700  0.02662800  0.38633500  1
  Bi  Bi8  1  0.70183400  0.80011400  0.39318600  1
  Bi  Bi9  1  0.30753700  0.20815200  0.39545300  1
  Bi  Bi10  1  0.20183400  0.30011400  0.10681400  1
  Bi  Bi11  1  0.80753700  0.70815200  0.10454700  1
  Bi  Bi12  1  0.02704700  0.52662800  0.11366500  1
  Bi  Bi13  1  0.36115700  0.06584600  0.10712500  1
  Bi  Bi14  1  0.53092500  0.82908600  0.10259200  1
  Bi  Bi15  1  0.82908600  0.53092500  0.89740800  1
  Bi  Bi16  1  0.06584600  0.36115700  0.89287500  1
  Bi  Bi17  1  0.52662800  0.02704700  0.88633500  1
  Bi  Bi18  1  0.70815200  0.80753700  0.89545300  1
  Bi  Bi19  1  0.30011400  0.20183400  0.89318600  1
  O  O0  1  0.86728200  0.06824400  0.51018600  1
  O  O1  1  0.57483400  0.36999300  0.50557400  1
  O  O2  1  0.78669100  0.19094300  0.51216300  1
  O  O3  1  0.50361200  0.50361200  0.50000000  1
  O  O4  1  0.00097400  0.00097400  0.50000000  1
  O  O5  1  0.19094300  0.78669100  0.48783700  1
  O  O6  1  0.36999300  0.57483400  0.49442600  1
  O  O7  1  0.06824400  0.86728200  0.48981400  1
  O  O8  1  0.56824400  0.36728200  0.01018600  1
  O  O9  1  0.86999300  0.07483400  0.00557400  1
  O  O10  1  0.69094300  0.28669100  0.01216300  1
  O  O11  1  0.50097400  0.50097400  0.00000000  1
  O  O12  1  0.00361200  0.00361200  0.00000000  1
  O  O13  1  0.28669100  0.69094300  0.98783700  1
  O  O14  1  0.36728200  0.56824400  0.98981400  1
  O  O15  1  0.07483400  0.86999300  0.99442600  1
  F  F0  1  0.91494600  0.91465800  0.75193700  1
  F  F1  1  0.41494600  0.41465800  0.74806300  1
  F  F2  1  0.51030500  0.68369400  0.72150300  1
  F  F3  1  0.16308200  0.99148500  0.71532300  1
  F  F4  1  0.17127700  0.51534200  0.69022100  1
  F  F5  1  0.99761600  0.65491100  0.69368400  1
  F  F6  1  0.39614600  0.89515000  0.68940600  1
  F  F7  1  0.69162200  0.28993000  0.51827100  1
  F  F8  1  0.28993000  0.69162200  0.48172900  1
  F  F9  1  0.89515000  0.39614600  0.31059400  1
  F  F10  1  0.65491100  0.99761600  0.30631600  1
  F  F11  1  0.51534200  0.17127700  0.30977900  1
  F  F12  1  0.99148500  0.16308200  0.28467700  1
  F  F13  1  0.68369400  0.51030500  0.27849700  1
  F  F14  1  0.91465800  0.91494600  0.24806300  1
  F  F15  1  0.41465800  0.41494600  0.25193700  1
  F  F16  1  0.18369400  0.01030500  0.22150300  1
  F  F17  1  0.49148500  0.66308200  0.21532300  1
  F  F18  1  0.15491100  0.49761600  0.19368400  1
  F  F19  1  0.01534200  0.67127700  0.19022100  1
  F  F20  1  0.39515000  0.89614600  0.18940600  1
  F  F21  1  0.78993000  0.19162200  0.01827100  1
  F  F22  1  0.19162200  0.78993000  0.98172900  1
  F  F23  1  0.89614600  0.39515000  0.81059400  1
  F  F24  1  0.67127700  0.01534200  0.80977900  1
  F  F25  1  0.49761600  0.15491100  0.80631600  1
  F  F26  1  0.66308200  0.49148500  0.78467700  1
  F  F27  1  0.01030500  0.18369400  0.77849700  1
loop_
_geom_bond_atom_site_label_1
_geom_bond_atom_site_label_2
_geom_bond_distance
_geom_bond_site_symmetry_2
Bi0 O3 2.368121 1_555
Bi0 O7 2.372710 1_655
Bi0 O4 2.377352 1_665
Bi0 F0 2.402138 1_555
Bi0 F3 2.506235 1_655
Bi0 O1 2.519727 1_555
Bi0 F26 2.539966 1_555
Bi1 O6 2.346013 1_555
Bi1 O3 2.358282 1_555
Bi1 F1 2.387918 1_555
Bi1 O4 2.397459 1_555
Bi1 F27 2.478020 1_555
Bi1 O0 2.483624 1_455
Bi1 F2 2.616908 1_555
Bi2 F6 2.307921 1_555
Bi2 O5 2.356306 1_555
Bi2 F23 2.425250 1_455
Bi2 F8 2.435629 1_555
Bi2 F7 2.442389 1_455
Bi2 F4 2.453885 1_555
Bi2 F5 2.462462 1_455
Bi2 O2 2.469423 1_455
Bi3 O7 2.281337 1_545
Bi3 O5 2.314634 1_545
Bi3 F3 2.326952 1_545
Bi3 F5 2.392638 1_445
Bi3 O1 2.439125 1_555
Bi3 F7 2.533981 1_555
Bi3 F25 2.608678 1_555
Bi4 O0 2.300240 1_565
Bi4 F2 2.308122 1_555
Bi4 O6 2.318754 1_555
Bi4 F4 2.452180 1_555
Bi4 F8 2.481089 1_555
Bi4 O2 2.495371 1_565
Bi4 F24 2.583714 1_565
Bi5 O7 2.300240 1_655
Bi5 F13 2.308122 1_555
Bi5 O1 2.318754 1_555
Bi5 F11 2.452180 1_555
Bi5 F7 2.481089 1_555
Bi5 O5 2.495371 1_655
Bi5 F19 2.583714 1_655
Bi6 O0 2.281337 1_455
Bi6 O2 2.314634 1_455
Bi6 F12 2.326952 1_455
Bi6 F10 2.392638 1_445
Bi6 O6 2.439125 1_555
Bi6 F8 2.533981 1_555
Bi6 F18 2.608678 1_555
Bi7 F9 2.307921 1_555
Bi7 O2 2.356306 1_555
Bi7 F20 2.425250 1_545
Bi7 F7 2.435629 1_555
Bi7 F8 2.442389 1_545
Bi7 F11 2.453885 1_555
Bi7 F10 2.462462 1_545
Bi7 O5 2.469423 1_545
Bi8 O3 2.368121 1_555
Bi8 O0 2.372710 1_565
Bi8 O4 2.377352 1_665
Bi8 F14 2.402138 1_555
Bi8 F12 2.506235 1_565
Bi8 O6 2.519727 1_555
Bi8 F17 2.539966 1_555
Bi9 O1 2.346013 1_555
Bi9 O3 2.358282 1_555
Bi9 F15 2.387918 1_555
Bi9 O4 2.397459 1_555
Bi9 F16 2.478020 1_555
Bi9 O7 2.483624 1_545
Bi9 F13 2.616908 1_555
Bi10 O12 2.368121 1_555
Bi10 O14 2.372710 1_554
Bi10 O11 2.377352 1_555
Bi10 F15 2.402138 1_555
Bi10 F17 2.506235 1_555
Bi10 O9 2.519727 1_455
Bi10 F12 2.539966 1_455
Bi11 O15 2.346013 1_654
Bi11 O12 2.358282 1_665
Bi11 F14 2.387918 1_555
Bi11 O11 2.397459 1_555
Bi11 F13 2.478020 1_555
Bi11 O8 2.483624 1_555
Bi11 F16 2.616908 1_665
Bi12 F20 2.307921 1_555
Bi12 O13 2.356306 1_554
Bi12 F9 2.425250 1_455
Bi12 F22 2.435629 1_554
Bi12 F21 2.442389 1_455
Bi12 F19 2.453885 1_555
Bi12 F18 2.462462 1_555
Bi12 O10 2.469423 1_455
Bi13 O8 2.300240 1_555
Bi13 F16 2.308122 1_555
Bi13 O15 2.318754 1_544
Bi13 F19 2.452180 1_545
Bi13 F22 2.481089 1_544
Bi13 O10 2.495371 1_555
Bi13 F11 2.583714 1_555
Bi14 O14 2.281337 1_554
Bi14 O13 2.314634 1_554
Bi14 F17 2.326952 1_555
Bi14 F18 2.392638 1_555
Bi14 O9 2.439125 1_565
Bi14 F21 2.533981 1_565
Bi14 F10 2.608678 1_555
Bi15 O8 2.281337 1_556
Bi15 O10 2.314634 1_556
Bi15 F26 2.326952 1_555
Bi15 F25 2.392638 1_555
Bi15 O15 2.439125 1_655
Bi15 F22 2.533981 1_655
Bi15 F5 2.608678 1_555
Bi16 O14 2.300240 1_555
Bi16 F27 2.308122 1_555
Bi16 O9 2.318754 1_456
Bi16 F24 2.452180 1_455
Bi16 F21 2.481089 1_456
Bi16 O13 2.495371 1_555
Bi16 F4 2.583714 1_555
Bi17 F23 2.307921 1_555
Bi17 O10 2.356306 1_556
Bi17 F6 2.425250 1_545
Bi17 F21 2.435629 1_556
Bi17 F22 2.442389 1_545
Bi17 F24 2.453885 1_555
Bi17 F25 2.462462 1_555
Bi17 O13 2.469423 1_545
Bi18 O9 2.346013 1_566
Bi18 O12 2.358282 1_666
Bi18 F0 2.387918 1_555
Bi18 O11 2.397459 1_556
Bi18 F2 2.478020 1_555
Bi18 O14 2.483624 1_555
Bi18 F27 2.616908 1_665
Bi19 O12 2.368121 1_556
Bi19 O8 2.372710 1_556
Bi19 O11 2.377352 1_556
Bi19 F1 2.402138 1_555
Bi19 F26 2.506235 1_555
Bi19 O15 2.519727 1_545
Bi19 F3 2.539966 1_545
