# generated using pymatgen
data_Li2Fe3WO8
_symmetry_space_group_name_H-M   'P 1'
_cell_length_a   6.12913739
_cell_length_b   6.12913669
_cell_length_c   6.12913766
_cell_angle_alpha   59.27161464
_cell_angle_beta   59.27162074
_cell_angle_gamma   59.27161790
_symmetry_Int_Tables_number   1
_chemical_formula_structural   Li2Fe3WO8
_chemical_formula_sum   'Li2 Fe3 W1 O8'
_cell_volume   160.11001008
_cell_formula_units_Z   1
loop_
 _symmetry_equiv_pos_site_id
 _symmetry_equiv_pos_as_xyz
  1  'x, y, z'
loop_
 _atom_site_type_symbol
 _atom_site_label
 _atom_site_symmetry_multiplicity
 _atom_site_fract_x
 _atom_site_fract_y
 _atom_site_fract_z
 _atom_site_occupancy
  Li  Li0  1  0.13253600  0.13253600  0.13253600  1
  Li  Li1  1  0.86746400  0.86746400  0.86746400  1
  Fe  Fe0  1  0.00000000  0.50000000  0.50000000  1
  Fe  Fe1  1  0.50000000  0.00000000  0.50000000  1
  Fe  Fe2  1  0.50000000  0.50000000  0.00000000  1
  W  W0  1  0.50000000  0.50000000  0.50000000  1
  O  O0  1  0.26762500  0.26762500  0.26762500  1
  O  O1  1  0.27049300  0.27049300  0.72059900  1
  O  O2  1  0.27049300  0.72059900  0.27049300  1
  O  O3  1  0.72059900  0.27049300  0.27049300  1
  O  O4  1  0.27940100  0.72950700  0.72950700  1
  O  O5  1  0.72950700  0.27940100  0.72950700  1
  O  O6  1  0.72950700  0.72950700  0.27940100  1
  O  O7  1  0.73237500  0.73237500  0.73237500  1
loop_
_geom_bond_atom_site_label_1
_geom_bond_atom_site_label_2
_geom_bond_distance
_geom_bond_site_symmetry_2
Li0 O0 2.039219 1_555
Li0 O2 2.042515 1_545
Li0 O3 2.042515 1_455
Li0 O1 2.042515 1_554
Li1 O7 2.039219 1_555
Li1 O5 2.042515 1_565
Li1 O4 2.042515 1_655
Li1 O6 2.042515 1_556
Fe0 O7 2.011393 1_455
Fe0 O0 2.011393 1_555
Fe0 O5 2.125863 1_455
Fe0 O2 2.125863 1_555
Fe0 O6 2.125863 1_455
Fe0 O1 2.125863 1_555
Fe1 O7 2.011393 1_545
Fe1 O0 2.011393 1_555
Fe1 O4 2.125863 1_545
Fe1 O3 2.125863 1_555
Fe1 O1 2.125863 1_555
Fe1 O6 2.125863 1_545
Fe2 O7 2.011393 1_554
Fe2 O0 2.011393 1_555
Fe2 O3 2.125863 1_555
Fe2 O4 2.125863 1_554
Fe2 O5 2.125863 1_554
Fe2 O2 2.125863 1_555
O1 W0 1.980010 1_555
O2 W0 1.980010 1_555
O3 W0 1.980010 1_555
O4 W0 1.980010 1_555
O5 W0 1.980010 1_555
O6 W0 1.980010 1_555
