# generated using pymatgen
data_Li2VO2F
_symmetry_space_group_name_H-M   'P 1'
_cell_length_a   3.03909800
_cell_length_b   7.89102562
_cell_length_c   10.32173830
_cell_angle_alpha   107.49461548
_cell_angle_beta   89.83706737
_cell_angle_gamma   101.02756412
_symmetry_Int_Tables_number   1
_chemical_formula_structural   Li2VO2F
_chemical_formula_sum   'Li8 V4 O8 F4'
_cell_volume   231.32775408
_cell_formula_units_Z   4
loop_
 _symmetry_equiv_pos_site_id
 _symmetry_equiv_pos_as_xyz
  1  'x, y, z'
loop_
 _atom_site_type_symbol
 _atom_site_label
 _atom_site_symmetry_multiplicity
 _atom_site_fract_x
 _atom_site_fract_y
 _atom_site_fract_z
 _atom_site_occupancy
  Li  Li0  1  0.58003000  0.16009100  0.11997900  1
  Li  Li1  1  0.92062600  0.84062200  0.12853900  1
  Li  Li2  1  0.93889000  0.87788400  0.64646100  1
  Li  Li3  1  0.57010700  0.13980800  0.62797600  1
  Li  Li4  1  0.07364900  0.14808300  0.36541700  1
  Li  Li5  1  0.43950600  0.87834100  0.88355700  1
  Li  Li6  1  0.42155300  0.84154700  0.38309800  1
  Li  Li7  1  0.06439900  0.13167800  0.85073400  1
  V  V0  1  0.75200500  0.49948700  0.37198900  1
  V  V1  1  0.74522300  0.49312300  0.88278100  1
  V  V2  1  0.25478900  0.50203100  0.12768000  1
  V  V3  1  0.22800700  0.48299600  0.61091600  1
  O  O0  1  0.69475000  0.35194500  0.01109600  1
  O  O1  1  0.67645000  0.34176100  0.50239500  1
  O  O2  1  0.81509000  0.65342600  0.24607300  1
  O  O3  1  0.16447800  0.34711200  0.25506800  1
  O  O4  1  0.17150400  0.36817100  0.75730700  1
  O  O5  1  0.33526700  0.64228200  0.49213100  1
  O  O6  1  0.34143300  0.65270100  0.99578600  1
  O  O7  1  0.49915300  0.99999600  0.75058600  1
  F  F0  1  0.81373400  0.65013700  0.74071800  1
  F  F1  1  0.00016200  0.99930100  0.01000700  1
  F  F2  1  0.00028800  0.99878000  0.49032400  1
  F  F3  1  0.49882900  0.99869600  0.24938200  1
loop_
_geom_bond_atom_site_label_1
_geom_bond_atom_site_label_2
_geom_bond_distance
_geom_bond_site_symmetry_2
Li0 O0 2.120235 1_555
Li0 O3 2.247470 1_655
Li0 O3 2.276597 1_555
Li1 O2 2.156527 1_555
Li1 O6 2.228992 1_554
Li1 O6 2.281649 1_654
Li2 O7 1.931682 1_555
Li2 O7 1.934645 1_655
Li2 O5 2.508086 1_555
Li2 O5 2.551536 1_655
Li3 O7 1.900576 1_545
Li3 O1 2.316628 1_555
Li3 O4 2.382725 1_655
Li3 O4 2.424125 1_555
Li4 O3 2.178985 1_555
Li4 O1 2.277895 1_455
Li4 O1 2.309831 1_555
Li5 O7 1.887416 1_555
Li5 O6 2.374049 1_555
Li6 O5 2.170781 1_555
Li6 O2 2.245369 1_555
Li6 O2 2.303655 1_455
Li7 O7 1.940534 1_545
Li7 O7 1.944394 1_445
Li7 O4 2.316526 1_555
Li7 O0 2.455515 1_456
Li7 O0 2.538741 1_556
O0 V1 1.959415 1_554
O0 V2 2.032532 1_655
O0 V2 2.092436 1_555
O1 V3 1.962644 1_655
O1 V3 2.043524 1_555
O1 V0 2.075983 1_555
O2 V0 2.014988 1_555
O2 V2 2.043519 1_555
O2 V2 2.104737 1_655
O3 V2 2.033380 1_555
O3 V0 2.041848 1_455
O3 V0 2.099729 1_555
O4 V3 1.973774 1_555
O4 V1 2.009781 1_455
O4 V1 2.068090 1_555
O5 V3 1.989196 1_555
O5 V0 2.026922 1_555
O5 V0 2.087538 1_455
O6 V1 2.037655 1_555
O6 V2 2.046364 1_556
O6 V1 2.117870 1_455
F0 V3 2.164007 1_655
F0 V1 2.172673 1_555
F0 V3 2.180877 1_555
F0 Li2 2.260218 1_555
F0 Li5 2.426450 1_555
F0 Li5 2.478464 1_655
F1 Li1 1.981592 1_455
F1 Li5 2.031254 1_554
F1 Li5 2.039426 1_454
F1 Li0 2.067413 1_465
F1 Li0 2.072196 1_565
F1 Li7 2.187367 1_564
F2 Li4 1.977638 1_565
F2 Li6 2.043876 1_555
F2 Li6 2.051448 1_455
F2 Li2 2.096844 1_455
F2 Li3 2.135820 1_465
F2 Li3 2.140594 1_565
F3 Li4 2.053976 1_565
F3 Li4 2.061811 1_665
F3 Li0 2.089858 1_565
F3 Li6 2.100853 1_555
F3 Li1 2.102882 1_555
F3 Li1 2.106659 1_455
