# generated using pymatgen
data_NbVO4
_symmetry_space_group_name_H-M   'P 1'
_cell_length_a   4.89200500
_cell_length_b   4.65376900
_cell_length_c   11.63078683
_cell_angle_alpha   89.85194238
_cell_angle_beta   90.00000000
_cell_angle_gamma   90.00000000
_symmetry_Int_Tables_number   1
_chemical_formula_structural   NbVO4
_chemical_formula_sum   'Nb4 V4 O16'
_cell_volume   264.78864712
_cell_formula_units_Z   4
loop_
 _symmetry_equiv_pos_site_id
 _symmetry_equiv_pos_as_xyz
  1  'x, y, z'
loop_
 _atom_site_type_symbol
 _atom_site_label
 _atom_site_symmetry_multiplicity
 _atom_site_fract_x
 _atom_site_fract_y
 _atom_site_fract_z
 _atom_site_occupancy
  Nb  Nb0  1  0.25755000  0.49885900  0.67599800  1
  Nb  Nb1  1  0.24245000  0.99885900  0.17599800  1
  Nb  Nb2  1  0.75755000  0.00114100  0.82400200  1
  Nb  Nb3  1  0.74245000  0.50114100  0.32400200  1
  V  V0  1  0.25298900  0.50008300  0.93934800  1
  V  V1  1  0.24701100  0.00008300  0.43934800  1
  V  V2  1  0.75298900  0.99991700  0.56065200  1
  V  V3  1  0.74701100  0.49991700  0.06065200  1
  O  O0  1  0.07819600  0.72657300  0.81259000  1
  O  O1  1  0.58173100  0.74289800  0.93773600  1
  O  O2  1  0.42180400  0.22657300  0.31259000  1
  O  O3  1  0.42699000  0.27228700  0.81256400  1
  O  O4  1  0.91826900  0.24289800  0.43773600  1
  O  O5  1  0.91932400  0.25765300  0.93875100  1
  O  O6  1  0.41932400  0.24234700  0.56124900  1
  O  O7  1  0.92699000  0.22771300  0.68743600  1
  O  O8  1  0.07301000  0.77228700  0.31256400  1
  O  O9  1  0.58067600  0.75765300  0.43875100  1
  O  O10  1  0.08067600  0.74234700  0.06124900  1
  O  O11  1  0.08173100  0.75710200  0.56226400  1
  O  O12  1  0.57301000  0.72771300  0.18743600  1
  O  O13  1  0.57819600  0.77342700  0.68741000  1
  O  O14  1  0.41826900  0.25710200  0.06226400  1
  O  O15  1  0.92180400  0.27342700  0.18741000  1
loop_
_geom_bond_atom_site_label_1
_geom_bond_atom_site_label_2
_geom_bond_distance
_geom_bond_site_symmetry_2
Nb0 O6 1.959794 1_555
Nb0 O11 1.981348 1_555
Nb0 O13 2.027737 1_555
Nb0 O7 2.055265 1_455
Nb0 O3 2.076808 1_555
Nb0 O0 2.103672 1_555
Nb1 O10 1.959794 1_555
Nb1 O14 1.981348 1_565
Nb1 O15 2.027737 1_465
Nb1 O12 2.055265 1_555
Nb1 O8 2.076808 1_555
Nb1 O2 2.103672 1_565
Nb2 O5 1.959794 1_555
Nb2 O1 1.981348 1_545
Nb2 O0 2.027737 1_645
Nb2 O3 2.055265 1_555
Nb2 O7 2.076808 1_555
Nb2 O13 2.103672 1_545
Nb3 O9 1.959794 1_555
Nb3 O4 1.981348 1_555
Nb3 O2 2.027737 1_555
Nb3 O8 2.055265 1_655
Nb3 O12 2.076808 1_555
Nb3 O15 2.103672 1_555
O0 V0 2.001918 1_555
O1 V0 1.965575 1_555
O1 V3 1.991944 1_556
O2 V1 2.001918 1_555
O3 V0 2.007714 1_555
O4 V1 1.965575 1_655
O4 V2 1.991944 1_545
O5 V0 1.984270 1_655
O5 V3 2.000032 1_556
O6 V2 1.984270 1_545
O6 V1 2.000032 1_555
O7 V2 2.007714 1_545
O8 V1 2.007714 1_565
O9 V1 1.984270 1_565
O9 V2 2.000032 1_555
O10 V3 1.984270 1_455
O10 V0 2.000032 1_554
O11 V2 1.965575 1_455
O11 V1 1.991944 1_565
O12 V3 2.007714 1_555
O13 V2 2.001918 1_555
O14 V3 1.965575 1_555
O14 V0 1.991944 1_554
O15 V3 2.001918 1_555
