# generated using pymatgen
data_Zn4P5C2(N3O10)2
_symmetry_space_group_name_H-M   'P 1'
_cell_length_a   15.11506475
_cell_length_b   15.11506475
_cell_length_c   17.85912234
_cell_angle_alpha   55.24093820
_cell_angle_beta   55.24093820
_cell_angle_gamma   20.33732885
_symmetry_Int_Tables_number   1
_chemical_formula_structural   Zn4P5C2(N3O10)2
_chemical_formula_sum   'Zn8 P10 C4 N12 O40'
_cell_volume   1155.95301457
_cell_formula_units_Z   2
loop_
 _symmetry_equiv_pos_site_id
 _symmetry_equiv_pos_as_xyz
  1  'x, y, z'
loop_
 _atom_site_type_symbol
 _atom_site_label
 _atom_site_symmetry_multiplicity
 _atom_site_fract_x
 _atom_site_fract_y
 _atom_site_fract_z
 _atom_site_occupancy
  Zn  Zn0  1  0.02743600  0.55151400  0.74243500  1
  Zn  Zn1  1  0.44848600  0.97256400  0.75756500  1
  Zn  Zn2  1  0.97256400  0.44848600  0.25756500  1
  Zn  Zn3  1  0.55151400  0.02743600  0.24243500  1
  Zn  Zn4  1  0.73770800  0.09581600  0.70862100  1
  Zn  Zn5  1  0.90418400  0.26229200  0.79137900  1
  Zn  Zn6  1  0.26229200  0.90418400  0.29137900  1
  Zn  Zn7  1  0.09581600  0.73770800  0.20862100  1
  P  P0  1  0.22656500  0.61869800  0.60576900  1
  P  P1  1  0.38130200  0.77343500  0.89423100  1
  P  P2  1  0.77343500  0.38130200  0.39423100  1
  P  P3  1  0.61869800  0.22656500  0.10576900  1
  P  P4  1  0.53560600  0.02659400  0.84416300  1
  P  P5  1  0.97340600  0.46439400  0.65583700  1
  P  P6  1  0.46439400  0.97340600  0.15583700  1
  P  P7  1  0.02659400  0.53560600  0.34416300  1
  P  P8  1  0.55495000  0.44505000  0.75000000  1
  P  P9  1  0.44505000  0.55495000  0.25000000  1
  C  C0  1  0.99140600  0.29615900  0.02193100  1
  C  C1  1  0.70384100  0.00859400  0.47806900  1
  C  C2  1  0.00859400  0.70384100  0.97806900  1
  C  C3  1  0.29615900  0.99140600  0.52193100  1
  N  N0  1  0.18020700  0.04963300  0.05156200  1
  N  N1  1  0.95036700  0.81979300  0.44843800  1
  N  N2  1  0.81979300  0.95036700  0.94843800  1
  N  N3  1  0.04963300  0.18020700  0.55156200  1
  N  N4  1  0.87337400  0.42672200  0.95089600  1
  N  N5  1  0.57327800  0.12662600  0.54910400  1
  N  N6  1  0.12662600  0.57327800  0.04910400  1
  N  N7  1  0.42672200  0.87337400  0.45089600  1
  N  N8  1  0.92404500  0.41014400  0.06277000  1
  N  N9  1  0.58985600  0.07595500  0.43723000  1
  N  N10  1  0.07595500  0.58985600  0.93723000  1
  N  N11  1  0.41014400  0.92404500  0.56277000  1
  O  O0  1  0.08259800  0.64655900  0.63712500  1
  O  O1  1  0.35344100  0.91740200  0.86287500  1
  O  O2  1  0.91740200  0.35344100  0.36287500  1
  O  O3  1  0.64655900  0.08259800  0.13712500  1
  O  O4  1  0.09834600  0.78510200  0.65756400  1
  O  O5  1  0.21489800  0.90165400  0.84243600  1
  O  O6  1  0.90165400  0.21489800  0.34243600  1
  O  O7  1  0.78510200  0.09834600  0.15756400  1
  O  O8  1  0.50999400  0.33765400  0.61884200  1
  O  O9  1  0.66234600  0.49000600  0.88115800  1
  O  O10  1  0.49000600  0.66234600  0.38115800  1
  O  O11  1  0.33765400  0.50999400  0.11884200  1
  O  O12  1  0.19179400  0.73451700  0.50364700  1
  O  O13  1  0.26548300  0.80820600  0.99635300  1
  O  O14  1  0.80820600  0.26548300  0.49635300  1
  O  O15  1  0.73451700  0.19179400  0.00364700  1
  O  O16  1  0.65159700  0.86854600  0.78992400  1
  O  O17  1  0.13145400  0.34840300  0.71007600  1
  O  O18  1  0.34840300  0.13145400  0.21007600  1
  O  O19  1  0.86854600  0.65159700  0.28992400  1
  O  O20  1  0.69861100  0.97728100  0.80879300  1
  O  O21  1  0.02271900  0.30138900  0.69120700  1
  O  O22  1  0.30138900  0.02271900  0.19120700  1
  O  O23  1  0.97728100  0.69861100  0.30879300  1
  O  O24  1  0.55700900  0.91732000  0.94637000  1
  O  O25  1  0.08268000  0.44299100  0.55363000  1
  O  O26  1  0.44299100  0.08268000  0.05363000  1
  O  O27  1  0.91732000  0.55700900  0.44637000  1
  O  O28  1  0.25054400  0.31161500  0.83174600  1
  O  O29  1  0.68838500  0.74945600  0.66825400  1
  O  O30  1  0.74945600  0.68838500  0.16825400  1
  O  O31  1  0.31161500  0.25054400  0.33174600  1
  O  O32  1  0.67219200  0.23641000  0.76184000  1
  O  O33  1  0.76359000  0.32780800  0.73816000  1
  O  O34  1  0.32780800  0.76359000  0.23816000  1
  O  O35  1  0.23641000  0.67219200  0.26184000  1
  O  O36  1  0.39116400  0.66009700  0.66868800  1
  O  O37  1  0.33990300  0.60883600  0.83131200  1
  O  O38  1  0.60883600  0.33990300  0.33131200  1
  O  O39  1  0.66009700  0.39116400  0.16868800  1
loop_
_geom_bond_atom_site_label_1
_geom_bond_atom_site_label_2
_geom_bond_distance
_geom_bond_site_symmetry_2
C0 N4 1.345453 1_554
C0 N8 1.354019 1_555
C0 N0 1.356688 1_655
C1 N5 1.345453 1_555
C1 N9 1.354019 1_555
C1 N1 1.356688 1_545
C2 N6 1.345453 1_556
C2 N10 1.354019 1_555
C2 N2 1.356688 1_455
C3 N7 1.345453 1_555
C3 N11 1.354019 1_555
C3 N3 1.356688 1_565
O0 P0 1.545024 1_555
O0 Zn0 1.916669 1_555
O1 P1 1.545024 1_555
O1 Zn1 1.916669 1_555
O2 P2 1.545024 1_555
O2 Zn2 1.916669 1_555
O3 P3 1.545024 1_555
O3 Zn3 1.916669 1_555
O4 P0 1.550895 1_555
O4 Zn4 1.951423 1_465
O5 P1 1.550895 1_555
O5 Zn5 1.951423 1_465
O6 P2 1.550895 1_555
O6 Zn6 1.951423 1_645
O7 P3 1.550895 1_555
O7 Zn7 1.951423 1_645
O8 P0 1.527846 1_555
O8 Zn4 1.947994 1_555
O9 P1 1.527846 1_555
O9 Zn5 1.947994 1_555
O10 P2 1.527846 1_555
O10 Zn6 1.947994 1_555
O11 P3 1.527846 1_555
O11 Zn7 1.947994 1_555
O12 P0 1.547293 1_555
O13 P1 1.547293 1_555
O14 P2 1.547293 1_555
O15 P3 1.547293 1_555
O16 P4 1.602098 1_565
O16 Zn0 2.010901 1_655
O16 Zn1 2.041111 1_555
O17 P5 1.602098 1_455
O17 Zn1 2.010901 1_545
O17 Zn0 2.041111 1_555
O18 P6 1.602098 1_545
O18 Zn2 2.010901 1_455
O18 Zn3 2.041111 1_555
O19 P7 1.602098 1_655
O19 Zn3 2.010901 1_565
O19 Zn2 2.041111 1_555
O20 P4 1.530793 1_565
O20 Zn4 1.971050 1_565
O21 P5 1.530793 1_455
O21 Zn5 1.971050 1_455
O22 P6 1.530793 1_545
O22 Zn6 1.971050 1_545
O23 P7 1.530793 1_655
O23 Zn7 1.971050 1_655
O24 P4 1.548583 1_565
O25 P5 1.548583 1_455
O26 P6 1.548583 1_545
O27 P7 1.548583 1_655
O28 P4 1.537402 1_555
O28 Zn0 1.916103 1_555
O29 P5 1.537402 1_555
O29 Zn1 1.916103 1_555
O30 P6 1.537402 1_555
O30 Zn2 1.916103 1_555
O31 P7 1.537402 1_555
O31 Zn3 1.916103 1_555
O32 P8 1.522131 1_555
O32 Zn4 1.919206 1_555
O33 P8 1.522131 1_555
O33 Zn5 1.919206 1_555
O34 P9 1.522131 1_555
O34 Zn6 1.919206 1_555
O35 P9 1.522131 1_555
O35 Zn7 1.919206 1_555
O36 P8 1.558651 1_555
O37 P8 1.558651 1_555
O38 P9 1.558651 1_555
O39 P9 1.558651 1_555
