# generated using pymatgen
data_LiCoS2
_symmetry_space_group_name_H-M   'P 1'
_cell_length_a   6.51510519
_cell_length_b   6.51510519
_cell_length_c   6.51510549
_cell_angle_alpha   30.41569294
_cell_angle_beta   30.41569294
_cell_angle_gamma   30.41569164
_symmetry_Int_Tables_number   1
_chemical_formula_structural   LiCoS2
_chemical_formula_sum   'Li1 Co1 S2'
_cell_volume   62.82389446
_cell_formula_units_Z   1
loop_
 _symmetry_equiv_pos_site_id
 _symmetry_equiv_pos_as_xyz
  1  'x, y, z'
loop_
 _atom_site_type_symbol
 _atom_site_label
 _atom_site_symmetry_multiplicity
 _atom_site_fract_x
 _atom_site_fract_y
 _atom_site_fract_z
 _atom_site_occupancy
  Li  Li0  1  0.85503600  0.85503600  0.85503600  1
  Co  Co0  1  0.99866500  0.99866500  0.99866500  1
  S  S0  1  0.72555200  0.72555200  0.72555200  1
  S  S1  1  0.26774700  0.26774700  0.26774700  1
loop_
_geom_bond_atom_site_label_1
_geom_bond_atom_site_label_2
_geom_bond_distance
_geom_bond_site_symmetry_2
Li0 S0 2.411912 1_555
Li0 S1 2.465900 1_665
Li0 S1 2.465900 1_566
Li0 S1 2.465900 1_656
Co0 S0 2.269968 1_655
Co0 S0 2.269968 1_565
Co0 S0 2.269968 1_556
Co0 S1 2.307996 1_656
Co0 S1 2.307996 1_566
Co0 S1 2.307996 1_665
Co0 Li0 2.675393 1_555
