# generated using pymatgen
data_Li2Ti3VO8
_symmetry_space_group_name_H-M   'P 1'
_cell_length_a   5.98740201
_cell_length_b   10.42126484
_cell_length_c   10.38727438
_cell_angle_alpha   80.16278224
_cell_angle_beta   73.25038698
_cell_angle_gamma   89.99906881
_symmetry_Int_Tables_number   1
_chemical_formula_structural   Li2Ti3VO8
_chemical_formula_sum   'Li8 Ti12 V4 O32'
_cell_volume   610.67187164
_cell_formula_units_Z   4
loop_
 _symmetry_equiv_pos_site_id
 _symmetry_equiv_pos_as_xyz
  1  'x, y, z'
loop_
 _atom_site_type_symbol
 _atom_site_label
 _atom_site_symmetry_multiplicity
 _atom_site_fract_x
 _atom_site_fract_y
 _atom_site_fract_z
 _atom_site_occupancy
  Li  Li0  1  0.96959900  0.15201700  0.06079000  1
  Li  Li1  1  0.71958000  0.40200000  0.56082900  1
  Li  Li2  1  0.46959900  0.65202100  0.06079200  1
  Li  Li3  1  0.21958500  0.90200200  0.56082000  1
  Li  Li4  1  0.78042100  0.09800100  0.43917100  1
  Li  Li5  1  0.53040200  0.34798300  0.93921000  1
  Li  Li6  1  0.28041500  0.59799800  0.43918100  1
  Li  Li7  1  0.03040200  0.84797900  0.93920800  1
  Ti  Ti0  1  0.62488500  0.37500800  0.25006300  1
  Ti  Ti1  1  0.37511400  0.62498800  0.74993500  1
  Ti  Ti2  1  0.12488800  0.87501500  0.25006500  1
  Ti  Ti3  1  0.87511200  0.12499000  0.74993800  1
  Ti  Ti4  1  0.12504600  0.37500500  0.25006500  1
  Ti  Ti5  1  0.87495500  0.62498900  0.74993400  1
  Ti  Ti6  1  0.62504700  0.87501200  0.25006600  1
  Ti  Ti7  1  0.37495100  0.12499200  0.74993700  1
  Ti  Ti8  1  0.00000100  0.49999400  0.99999700  1
  Ti  Ti9  1  0.74999900  0.74999700  0.49999900  1
  Ti  Ti10  1  0.49999800  0.00000500  0.00000400  1
  Ti  Ti11  1  0.25000100  0.25000200  0.50000100  1
  V  V0  1  0.37516900  0.12475400  0.24968200  1
  V  V1  1  0.12483300  0.37524800  0.75031500  1
  V  V2  1  0.87516000  0.62475600  0.24967400  1
  V  V3  1  0.62483500  0.87524600  0.75032300  1
  O  O0  1  0.93451100  0.32719900  0.13099600  1
  O  O1  1  0.68455200  0.57716700  0.63091700  1
  O  O2  1  0.43451000  0.82719300  0.13099900  1
  O  O3  1  0.18455400  0.07716400  0.63091700  1
  O  O4  1  0.81544600  0.92283400  0.36908300  1
  O  O5  1  0.56548800  0.17280200  0.86900300  1
  O  O6  1  0.31544900  0.42283600  0.36908200  1
  O  O7  1  0.06548600  0.67280700  0.86900400  1
  O  O8  1  0.82210300  0.43235500  0.35581100  1
  O  O9  1  0.57212800  0.68238400  0.85574300  1
  O  O10  1  0.32210500  0.93236800  0.35580800  1
  O  O11  1  0.07213200  0.18239700  0.85573500  1
  O  O12  1  0.70771200  0.54668100  0.12713100  1
  O  O13  1  0.45825200  0.79678600  0.62716800  1
  O  O14  1  0.20772900  0.04669100  0.12714000  1
  O  O15  1  0.95825000  0.29679000  0.62716700  1
  O  O16  1  0.16516900  0.54668600  0.12713200  1
  O  O17  1  0.91459500  0.79679100  0.62716600  1
  O  O18  1  0.66514500  0.04669400  0.12714300  1
  O  O19  1  0.41458600  0.29679300  0.62716900  1
  O  O20  1  0.58540400  0.70321200  0.37283400  1
  O  O21  1  0.33483400  0.95331200  0.87287000  1
  O  O22  1  0.08541800  0.20320400  0.37283100  1
  O  O23  1  0.83485500  0.45330800  0.87285500  1
  O  O24  1  0.04175400  0.70321400  0.37283300  1
  O  O25  1  0.79228600  0.95331600  0.87287100  1
  O  O26  1  0.54174600  0.20320900  0.37283100  1
  O  O27  1  0.29227200  0.45331100  0.87285900  1
  O  O28  1  0.92786900  0.81761800  0.14425800  1
  O  O29  1  0.67789800  0.06764300  0.64419000  1
  O  O30  1  0.42786800  0.31760100  0.14426600  1
  O  O31  1  0.17789700  0.56763400  0.64419100  1
loop_
_geom_bond_atom_site_label_1
_geom_bond_atom_site_label_2
_geom_bond_distance
_geom_bond_site_symmetry_2
Li0 O18 2.005018 1_555
Li0 O14 2.005110 1_655
Li0 O11 2.007428 1_654
Li0 O0 2.067709 1_555
Li1 O19 2.007050 1_555
Li1 O8 2.007071 1_555
Li1 O15 2.007084 1_555
Li1 O1 2.066980 1_555
Li2 O16 2.004964 1_555
Li2 O12 2.005047 1_555
Li2 O9 2.007373 1_554
Li2 O2 2.067615 1_555
Li3 O10 2.007009 1_555
Li3 O17 2.007050 1_455
Li3 O13 2.007147 1_555
Li3 O3 2.066975 1_565
Li4 O22 2.007044 1_655
Li4 O29 2.007080 1_555
Li4 O26 2.007107 1_555
Li4 O4 2.066980 1_545
Li5 O23 2.005023 1_555
Li5 O27 2.005125 1_555
Li5 O30 2.007437 1_556
Li5 O5 2.067704 1_555
Li6 O31 2.006990 1_555
Li6 O20 2.007060 1_555
Li6 O24 2.007118 1_555
Li6 O6 2.066985 1_555
Li7 O21 2.004964 1_555
Li7 O25 2.005037 1_455
Li7 O28 2.007384 1_456
Li7 O7 2.067600 1_555
O0 Ti4 2.025621 1_655
O0 Ti8 2.025639 1_654
O0 Ti0 2.025743 1_555
O1 Ti5 2.024655 1_555
O1 Ti1 2.024757 1_555
O1 Ti9 2.025531 1_555
O2 Ti6 2.025660 1_555
O2 Ti10 2.025757 1_565
O2 Ti2 2.025769 1_555
O3 Ti7 2.024676 1_555
O3 Ti3 2.024805 1_455
O3 Ti11 2.025586 1_555
O4 Ti6 2.024637 1_555
O4 Ti2 2.024768 1_655
O4 Ti9 2.025578 1_555
O5 Ti7 2.025619 1_555
O5 Ti10 2.025665 1_556
O5 Ti3 2.025737 1_555
O6 Ti4 2.024688 1_555
O6 Ti0 2.024778 1_555
O6 Ti11 2.025568 1_555
O7 Ti5 2.025655 1_455
O7 Ti8 2.025756 1_555
O7 Ti1 2.025797 1_555
O8 Ti4 1.982338 1_655
O8 Ti0 1.982420 1_555
O8 V2 2.092716 1_555
O9 Ti1 1.982185 1_555
O9 Ti5 1.982223 1_555
O9 V3 2.094528 1_555
O10 Ti6 1.982344 1_555
O10 Ti2 1.982400 1_555
O10 V0 2.092544 1_565
O11 Ti3 1.982168 1_455
O11 Ti7 1.982189 1_555
O11 V1 2.094428 1_555
O12 Ti8 1.982620 1_654
O12 Ti0 1.982828 1_555
O12 V2 2.092102 1_555
O13 Ti9 1.980927 1_555
O13 Ti1 1.983267 1_555
O13 V3 2.095872 1_555
O14 Ti10 1.982543 1_555
O14 Ti2 1.982828 1_545
O14 V0 2.092001 1_555
O15 Ti11 1.980926 1_655
O15 Ti3 1.983301 1_555
O15 V1 2.095802 1_655
O16 Ti8 1.982678 1_554
O16 Ti4 1.982885 1_555
O16 V2 2.092156 1_455
O17 Ti9 1.980979 1_555
O17 Ti5 1.983294 1_555
O17 V3 2.095955 1_555
O18 Ti10 1.982615 1_555
O18 Ti6 1.982856 1_545
O18 V0 2.091962 1_555
O19 Ti11 1.980932 1_555
O19 Ti7 1.983287 1_555
O19 V1 2.095877 1_555
O20 Ti9 1.980924 1_555
O20 Ti6 1.983276 1_555
O20 V2 2.095958 1_555
O21 Ti10 1.982656 1_566
O21 Ti7 1.982879 1_565
O21 V3 2.092127 1_555
O22 Ti11 1.980967 1_555
O22 Ti4 1.983281 1_555
O22 V0 2.095857 1_555
O23 Ti8 1.982626 1_655
O23 Ti5 1.982837 1_555
O23 V1 2.091974 1_655
O24 Ti9 1.980924 1_455
O24 Ti2 1.983295 1_555
O24 V2 2.095938 1_455
O25 Ti10 1.982618 1_566
O25 Ti3 1.982840 1_565
O25 V3 2.092130 1_555
O26 Ti11 1.980939 1_555
O26 Ti0 1.983280 1_555
O26 V0 2.095772 1_555
O27 Ti8 1.982549 1_555
O27 Ti1 1.982832 1_555
O27 V1 2.092014 1_555
O28 Ti6 1.982193 1_555
O28 Ti2 1.982203 1_655
O28 V2 2.094515 1_555
O29 Ti7 1.982355 1_555
O29 Ti3 1.982402 1_555
O29 V3 2.092666 1_545
O30 Ti0 1.982155 1_555
O30 Ti4 1.982202 1_555
O30 V0 2.094379 1_555
O31 Ti5 1.982343 1_455
O31 Ti1 1.982412 1_555
O31 V1 2.092537 1_555
