# generated using pymatgen
data_FeOF
_symmetry_space_group_name_H-M   'P 1'
_cell_length_a   3.11084700
_cell_length_b   9.48212800
_cell_length_c   14.17185013
_cell_angle_alpha   89.99234269
_cell_angle_beta   90.00000000
_cell_angle_gamma   90.00000000
_symmetry_Int_Tables_number   1
_chemical_formula_structural   FeOF
_chemical_formula_sum   'Fe12 O12 F12'
_cell_volume   418.03342888
_cell_formula_units_Z   12
loop_
 _symmetry_equiv_pos_site_id
 _symmetry_equiv_pos_as_xyz
  1  'x, y, z'
loop_
 _atom_site_type_symbol
 _atom_site_label
 _atom_site_symmetry_multiplicity
 _atom_site_fract_x
 _atom_site_fract_y
 _atom_site_fract_z
 _atom_site_occupancy
  Fe  Fe0  1  0.00000000  0.98986500  0.00757800  1
  Fe  Fe1  1  0.00000000  0.49423700  0.01075000  1
  Fe  Fe2  1  0.50000000  0.24239500  0.14920500  1
  Fe  Fe3  1  0.50000000  0.74479300  0.14963500  1
  Fe  Fe4  1  0.00000000  0.98973800  0.34129700  1
  Fe  Fe5  1  0.00000000  0.49308800  0.34339000  1
  Fe  Fe6  1  0.50000000  0.74394800  0.48742000  1
  Fe  Fe7  1  0.50000000  0.27458400  0.50562200  1
  Fe  Fe8  1  0.00000000  0.99467600  0.67962300  1
  Fe  Fe9  1  0.00000000  0.48631300  0.67418700  1
  Fe  Fe10  1  0.50000000  0.24545700  0.82076200  1
  Fe  Fe11  1  0.50000000  0.77427600  0.83969900  1
  O  O0  1  0.50000000  0.40177900  0.06303100  1
  O  O1  1  0.50000000  0.90417600  0.06742400  1
  O  O2  1  0.00000000  0.14801200  0.10104500  1
  O  O3  1  0.00000000  0.65161800  0.09941800  1
  O  O4  1  0.50000000  0.39751800  0.39486900  1
  O  O5  1  0.50000000  0.90601900  0.39902000  1
  O  O6  1  0.00000000  0.65113200  0.43379500  1
  O  O7  1  0.00000000  0.35270600  0.56732800  1
  O  O8  1  0.50000000  0.40923000  0.73614300  1
  O  O9  1  0.50000000  0.89930000  0.72896300  1
  O  O10  1  0.00000000  0.15387400  0.76613100  1
  O  O11  1  0.00000000  0.85227900  0.90089200  1
  F  F0  1  0.00000000  0.34630800  0.23046800  1
  F  F1  1  0.00000000  0.84933800  0.23276300  1
  F  F2  1  0.50000000  0.09831300  0.27101600  1
  F  F3  1  0.50000000  0.59833100  0.26651000  1
  F  F4  1  0.00000000  0.15423000  0.43498100  1
  F  F5  1  0.00000000  0.84844500  0.56321800  1
  F  F6  1  0.50000000  0.09512300  0.59617100  1
  F  F7  1  0.50000000  0.60598200  0.60487700  1
  F  F8  1  0.00000000  0.65550900  0.76978400  1
  F  F9  1  0.00000000  0.34796300  0.89838500  1
  F  F10  1  0.50000000  0.10513400  0.93379400  1
  F  F11  1  0.50000000  0.59430700  0.93080800  1
loop_
_geom_bond_atom_site_label_1
_geom_bond_atom_site_label_2
_geom_bond_distance
_geom_bond_site_symmetry_2
Fe0 O1 1.949015 1_555
Fe0 O1 1.949015 1_455
Fe0 O11 1.997119 1_554
Fe0 O2 2.000952 1_565
Fe1 O0 1.933062 1_455
Fe1 O0 1.933062 1_555
Fe1 O3 1.951025 1_555
Fe2 O2 1.919967 1_655
Fe2 O2 1.919967 1_555
Fe2 O0 1.942929 1_555
Fe3 O1 1.908125 1_555
Fe3 O3 1.925240 1_555
Fe3 O3 1.925240 1_655
Fe4 O5 1.928350 1_555
Fe4 O5 1.928350 1_455
Fe5 O4 1.942324 1_455
Fe5 O4 1.942324 1_555
Fe5 O6 1.971747 1_555
Fe6 O6 1.942069 1_555
Fe6 O6 1.942069 1_655
Fe6 O5 1.982589 1_555
Fe7 O7 1.932091 1_555
Fe7 O7 1.932091 1_655
Fe7 O4 1.954962 1_555
Fe8 O9 1.930282 1_455
Fe8 O9 1.930282 1_555
Fe8 O10 1.944792 1_565
Fe9 O8 1.929855 1_555
Fe9 O8 1.929855 1_455
Fe9 O7 1.974556 1_555
Fe10 O10 1.942438 1_555
Fe10 O10 1.942438 1_655
Fe10 O8 1.961925 1_555
Fe11 O11 1.928378 1_555
Fe11 O11 1.928378 1_655
Fe11 O9 1.966649 1_555
F0 Fe5 2.121007 1_555
F0 Fe2 2.171816 1_555
F0 Fe2 2.171816 1_455
F1 Fe4 2.034384 1_555
F1 Fe3 2.188656 1_455
F1 Fe3 2.188656 1_555
F2 Fe4 2.114479 1_545
F2 Fe4 2.114479 1_645
F2 Fe2 2.201352 1_555
F3 Fe5 2.145225 1_555
F3 Fe5 2.145225 1_655
F3 Fe3 2.161369 1_555
F4 Fe4 2.048425 1_545
F4 Fe7 2.173532 1_555
F4 Fe7 2.173532 1_455
F5 Fe6 2.134319 1_455
F5 Fe6 2.134319 1_555
F5 Fe8 2.155143 1_555
F6 Fe7 2.131156 1_555
F6 Fe8 2.173686 1_645
F6 Fe8 2.173686 1_545
F7 Fe6 2.116996 1_555
F7 Fe9 2.161352 1_655
F7 Fe9 2.161352 1_555
F8 Fe9 2.099983 1_555
F8 Fe11 2.160930 1_455
F8 Fe11 2.160930 1_555
F9 Fe1 2.111902 1_556
F9 Fe10 2.138808 1_555
F9 Fe10 2.138808 1_455
F10 Fe10 2.082263 1_555
F10 Fe0 2.169579 1_546
F10 Fe0 2.169579 1_646
F11 Fe11 2.139783 1_555
F11 Fe1 2.145447 1_556
F11 Fe1 2.145447 1_656
