# generated using pymatgen
data_Na4Ni7O16
_symmetry_space_group_name_H-M   'P 1'
_cell_length_a   7.09734000
_cell_length_b   7.14160964
_cell_length_c   7.51376525
_cell_angle_alpha   68.71668353
_cell_angle_beta   77.42330780
_cell_angle_gamma   63.50404840
_symmetry_Int_Tables_number   1
_chemical_formula_structural   Na4Ni7O16
_chemical_formula_sum   'Na4 Ni7 O16'
_cell_volume   316.88553229
_cell_formula_units_Z   1
loop_
 _symmetry_equiv_pos_site_id
 _symmetry_equiv_pos_as_xyz
  1  'x, y, z'
loop_
 _atom_site_type_symbol
 _atom_site_label
 _atom_site_symmetry_multiplicity
 _atom_site_fract_x
 _atom_site_fract_y
 _atom_site_fract_z
 _atom_site_occupancy
  Na  Na0  1  0.03731800  0.45979500  0.66851300  1
  Na  Na1  1  0.59820600  0.89681700  0.18669400  1
  Na  Na2  1  0.38227700  0.63258700  0.11920700  1
  Na  Na3  1  0.16232400  0.34762600  0.10269900  1
  Ni  Ni0  1  0.00062200  0.00434200  0.99698100  1
  Ni  Ni1  1  0.62400100  0.37156300  0.87527900  1
  Ni  Ni2  1  0.25258300  0.75508500  0.74342400  1
  Ni  Ni3  1  0.87217000  0.11989400  0.62708400  1
  Ni  Ni4  1  0.50083100  0.49463800  0.50447100  1
  Ni  Ni5  1  0.12467200  0.87583700  0.37501500  1
  Ni  Ni6  1  0.74999500  0.24442900  0.25320800  1
  O  O0  1  0.10585200  0.72247400  0.97948300  1
  O  O1  1  0.86709300  0.30363900  0.99360800  1
  O  O2  1  0.51054900  0.67214300  0.82811400  1
  O  O3  1  0.00526000  0.82558600  0.62868100  1
  O  O4  1  0.75642900  0.07190400  0.88135500  1
  O  O5  1  0.37226700  0.45410200  0.76312900  1
  O  O6  1  0.74729800  0.41317700  0.62342100  1
  O  O7  1  0.37403200  0.79671800  0.48500400  1
  O  O8  1  0.88448700  0.94673000  0.25208300  1
  O  O9  1  0.11629900  0.05566200  0.74028100  1
  O  O10  1  0.62890400  0.19662400  0.50706600  1
  O  O11  1  0.24667200  0.57494200  0.41188800  1
  O  O12  1  0.65189900  0.52445300  0.27193600  1
  O  O13  1  0.22212600  0.97151800  0.12043300  1
  O  O14  1  0.99164800  0.17138000  0.37429200  1
  O  O15  1  0.52593200  0.28528600  0.12964200  1
loop_
_geom_bond_atom_site_label_1
_geom_bond_atom_site_label_2
_geom_bond_distance
_geom_bond_site_symmetry_2
Na0 O11 2.300750 1_555
Na0 O6 2.336575 1_455
Na0 O3 2.428450 1_555
Na0 O9 2.548168 1_555
Na0 O1 2.570880 1_455
Na0 O5 2.605214 1_555
Na1 O12 2.364910 1_555
Na1 O8 2.388499 1_555
Na1 O15 2.471076 1_565
Na1 O4 2.477183 1_564
Na1 O7 2.522901 1_555
Na1 O13 2.602361 1_555
Na2 O12 2.137652 1_555
Na2 O2 2.146216 1_554
Na2 O0 2.155749 1_554
Na2 O11 2.169452 1_555
Na2 O13 2.169721 1_555
Na2 O15 2.198805 1_555
Na3 O0 2.364149 1_554
Na3 O14 2.373872 1_455
Na3 O15 2.456803 1_555
Na3 O13 2.481968 1_545
Na3 O1 2.585207 1_454
Na3 O5 2.693548 1_554
Ni0 O0 1.853411 1_545
Ni0 O13 1.880218 1_546
Ni0 O8 1.888052 1_446
Ni0 O9 1.895851 1_555
Ni0 O4 1.896463 1_455
Ni0 O1 1.905574 1_455
Ni1 O2 1.847075 1_555
Ni1 O15 1.861538 1_556
Ni1 O6 1.880921 1_555
Ni1 O5 1.898684 1_555
Ni1 O1 1.900172 1_555
Ni1 O4 1.902189 1_555
Ni2 O2 1.836835 1_555
Ni2 O0 1.843056 1_555
Ni2 O5 1.886371 1_555
Ni2 O3 1.906137 1_555
Ni2 O9 1.914305 1_565
Ni2 O7 1.918932 1_555
Ni3 O6 1.866994 1_555
Ni3 O3 1.877562 1_645
Ni3 O14 1.879313 1_555
Ni3 O4 1.880098 1_555
Ni3 O10 1.889332 1_555
Ni3 O9 1.893497 1_655
Ni4 O12 1.834521 1_555
Ni4 O11 1.844045 1_555
Ni4 O7 1.892438 1_555
Ni4 O6 1.895399 1_555
Ni4 O10 1.899397 1_555
Ni4 O5 1.936112 1_555
Ni5 O11 1.859092 1_555
Ni5 O13 1.871100 1_555
Ni5 O7 1.881519 1_555
Ni5 O3 1.884462 1_555
Ni5 O14 1.887359 1_465
Ni5 O8 1.895145 1_455
Ni6 O12 1.850167 1_555
Ni6 O15 1.873058 1_555
Ni6 O10 1.889076 1_555
Ni6 O14 1.891575 1_555
Ni6 O8 1.905274 1_545
Ni6 O1 1.919130 1_554
