# generated using pymatgen
data_V4O7F5
_symmetry_space_group_name_H-M   'P 1'
_cell_length_a   5.15185800
_cell_length_b   5.37351786
_cell_length_c   7.55434522
_cell_angle_alpha   88.01595716
_cell_angle_beta   89.90674878
_cell_angle_gamma   88.33165065
_symmetry_Int_Tables_number   1
_chemical_formula_structural   V4O7F5
_chemical_formula_sum   'V4 O7 F5'
_cell_volume   208.91746722
_cell_formula_units_Z   1
loop_
 _symmetry_equiv_pos_site_id
 _symmetry_equiv_pos_as_xyz
  1  'x, y, z'
loop_
 _atom_site_type_symbol
 _atom_site_label
 _atom_site_symmetry_multiplicity
 _atom_site_fract_x
 _atom_site_fract_y
 _atom_site_fract_z
 _atom_site_occupancy
  V  V0  1  0.51979300  0.54902200  0.50292800  1
  V  V1  1  0.49983300  0.44626000  0.00218700  1
  V  V2  1  0.03052600  0.03722400  0.49126900  1
  V  V3  1  0.97983500  0.94690000  0.99648100  1
  O  O0  1  0.78680300  0.70582800  0.53874400  1
  O  O1  1  0.78322600  0.29105900  0.96314700  1
  O  O2  1  0.71165300  0.79108200  0.96032400  1
  O  O3  1  0.29383900  0.78065000  0.46506000  1
  O  O4  1  0.29052200  0.22174500  0.03905800  1
  O  O5  1  0.21163600  0.72418000  0.03703900  1
  O  O6  1  0.21055300  0.28580700  0.46167200  1
  F  F0  1  0.90644700  0.00517700  0.24629700  1
  F  F1  1  0.69750100  0.21098800  0.54120700  1
  F  F2  1  0.58671400  0.49822300  0.25234300  1
  F  F3  1  0.41079000  0.50245300  0.75024900  1
  F  F4  1  0.08032800  0.00340300  0.75199300  1
loop_
_geom_bond_atom_site_label_1
_geom_bond_atom_site_label_2
_geom_bond_distance
_geom_bond_site_symmetry_2
O0 V0 1.661306 1_555
O0 V2 2.227295 1_665
O1 V1 1.690806 1_556
O1 V3 2.090208 1_545
O2 V3 1.664032 1_555
O2 V1 2.190931 1_556
O3 V0 1.696514 1_555
O3 V2 1.920777 1_565
O4 V1 1.657526 1_555
O4 V3 2.240273 1_444
O5 V3 1.686680 1_454
O5 V1 2.097835 1_555
O6 V2 1.656880 1_555
O6 V0 2.190694 1_555
F0 V3 1.958118 1_544
F0 V2 1.973661 1_655
F1 V2 1.971491 1_655
F1 V0 2.022101 1_555
F2 V0 1.950647 1_555
F2 V1 1.973851 1_555
F3 V0 1.959872 1_555
F3 V1 1.969485 1_556
F4 V3 1.933559 1_445
F4 V2 1.988045 1_555
