# generated using pymatgen
data_V6O7F5
_symmetry_space_group_name_H-M   'P 1'
_cell_length_a   4.72212000
_cell_length_b   5.63567813
_cell_length_c   7.76713380
_cell_angle_alpha   86.02193657
_cell_angle_beta   88.33060208
_cell_angle_gamma   87.53965470
_symmetry_Int_Tables_number   1
_chemical_formula_structural   V6O7F5
_chemical_formula_sum   'V6 O7 F5'
_cell_volume   205.94263193
_cell_formula_units_Z   1
loop_
 _symmetry_equiv_pos_site_id
 _symmetry_equiv_pos_as_xyz
  1  'x, y, z'
loop_
 _atom_site_type_symbol
 _atom_site_label
 _atom_site_symmetry_multiplicity
 _atom_site_fract_x
 _atom_site_fract_y
 _atom_site_fract_z
 _atom_site_occupancy
  V  V0  1  0.54897700  0.85452700  0.66380600  1
  V  V1  1  0.52357400  0.50375500  0.01072400  1
  V  V2  1  0.48951500  0.16515500  0.33382000  1
  V  V3  1  0.99613500  0.32821700  0.66867200  1
  V  V4  1  0.99409700  0.65959100  0.32099100  1
  V  V5  1  0.95918700  0.99798900  0.99967300  1
  O  O0  1  0.80464900  0.69949500  0.09925500  1
  O  O1  1  0.79279600  0.04067300  0.76391000  1
  O  O2  1  0.69700600  0.19461100  0.10858800  1
  O  O3  1  0.68857100  0.54376800  0.76103000  1
  O  O4  1  0.70520600  0.86644500  0.43838500  1
  O  O5  1  0.30227700  0.12291800  0.56855000  1
  O  O6  1  0.30406800  0.46199100  0.23748700  1
  F  F0  1  0.80311100  0.36335000  0.43453500  1
  F  F1  1  0.30292000  0.80984900  0.89567500  1
  F  F2  1  0.19695200  0.95976700  0.22393200  1
  F  F3  1  0.19385300  0.29981200  0.90377300  1
  F  F4  1  0.19710600  0.62808400  0.56719000  1
loop_
_geom_bond_atom_site_label_1
_geom_bond_atom_site_label_2
_geom_bond_distance
_geom_bond_site_symmetry_2
O0 V1 1.932745 1_555
O0 V4 1.958517 1_555
O0 V5 1.962807 1_554
O1 V0 1.816503 1_545
O1 V3 2.005264 1_555
O1 V5 2.008733 1_545
O2 V5 1.851365 1_544
O2 V2 1.980350 1_555
O2 V1 2.003472 1_555
O3 V0 1.954058 1_555
O3 V3 2.002086 1_555
O3 V1 2.070160 1_556
O4 V0 1.878031 1_555
O4 V4 1.997464 1_555
O4 V2 2.059669 1_565
O5 V0 1.983940 1_545
O5 V3 1.987212 1_455
O5 V2 2.006568 1_555
O6 V4 1.925675 1_455
O6 V2 1.965690 1_555
O6 V1 2.022135 1_555
F0 V3 2.051423 1_555
F0 V4 2.063262 1_555
F0 V2 2.093601 1_555
F1 V5 2.075093 1_455
F1 V0 2.120651 1_555
F1 V1 2.132142 1_556
F2 V4 2.065875 1_455
F2 V2 2.078451 1_565
F2 V5 2.093357 1_454
F3 V3 2.068277 1_455
F3 V5 2.148028 1_445
F3 V1 2.190150 1_556
F4 V3 2.070543 1_455
F4 V4 2.156926 1_455
F4 V0 2.310875 1_555
