# generated using pymatgen
data_Li3ZnFe2(PO4)3
_symmetry_space_group_name_H-M   'P 1'
_cell_length_a   6.05204900
_cell_length_b   10.35067100
_cell_length_c   14.26905808
_cell_angle_alpha   89.97768650
_cell_angle_beta   90.00000000
_cell_angle_gamma   90.00000000
_symmetry_Int_Tables_number   1
_chemical_formula_structural   Li3ZnFe2(PO4)3
_chemical_formula_sum   'Li12 Zn4 Fe8 P12 O48'
_cell_volume   893.85322830
_cell_formula_units_Z   4
loop_
 _symmetry_equiv_pos_site_id
 _symmetry_equiv_pos_as_xyz
  1  'x, y, z'
loop_
 _atom_site_type_symbol
 _atom_site_label
 _atom_site_symmetry_multiplicity
 _atom_site_fract_x
 _atom_site_fract_y
 _atom_site_fract_z
 _atom_site_occupancy
  Li  Li0  1  0.74918400  0.00045400  0.66649900  1
  Li  Li1  1  0.25063200  0.99960300  0.00026700  1
  Li  Li2  1  0.74936800  0.99960300  0.00026700  1
  Li  Li3  1  0.24968000  0.00092800  0.33347800  1
  Li  Li4  1  0.75032000  0.00092800  0.33347800  1
  Li  Li5  1  0.25081600  0.00045400  0.66649900  1
  Li  Li6  1  0.24965800  0.49903500  0.50020700  1
  Li  Li7  1  0.75034200  0.49903500  0.50020700  1
  Li  Li8  1  0.24995500  0.49983800  0.16665100  1
  Li  Li9  1  0.75004500  0.49983800  0.16665100  1
  Li  Li10  1  0.25053600  0.49943600  0.83306800  1
  Li  Li11  1  0.74946400  0.49943600  0.83306800  1
  Zn  Zn0  1  0.00000000  0.21890900  0.49231900  1
  Zn  Zn1  1  0.00000000  0.21891700  0.82590000  1
  Zn  Zn2  1  0.50000000  0.28096900  0.32617500  1
  Zn  Zn3  1  0.00000000  0.71854800  0.00739900  1
  Fe  Fe0  1  0.00000000  0.22036600  0.15816000  1
  Fe  Fe1  1  0.50000000  0.27940100  0.65842900  1
  Fe  Fe2  1  0.50000000  0.28066900  0.99123400  1
  Fe  Fe3  1  0.00000000  0.71965600  0.34215600  1
  Fe  Fe4  1  0.00000000  0.72052900  0.67522000  1
  Fe  Fe5  1  0.50000000  0.78016300  0.17531400  1
  Fe  Fe6  1  0.50000000  0.78007200  0.50751300  1
  Fe  Fe7  1  0.50000000  0.78019300  0.84223200  1
  P  P0  1  0.50000000  0.09407000  0.13920300  1
  P  P1  1  0.50000000  0.09396100  0.47217600  1
  P  P2  1  0.50000000  0.09356700  0.80594300  1
  P  P3  1  0.00000000  0.40555700  0.30580500  1
  P  P4  1  0.00000000  0.40608200  0.63915500  1
  P  P5  1  0.00000000  0.40749100  0.97264300  1
  P  P6  1  0.50000000  0.59383600  0.02771800  1
  P  P7  1  0.50000000  0.59184700  0.36045400  1
  P  P8  1  0.50000000  0.59317600  0.69422300  1
  P  P9  1  0.00000000  0.90773200  0.86063900  1
  P  P10  1  0.00000000  0.90609400  0.19415200  1
  P  P11  1  0.00000000  0.90801000  0.52760400  1
  O  O0  1  0.00000000  0.04468300  0.23574400  1
  O  O1  1  0.00000000  0.04723300  0.56923700  1
  O  O2  1  0.00000000  0.04672200  0.90271900  1
  O  O3  1  0.50000000  0.09717300  0.24696600  1
  O  O4  1  0.50000000  0.09460500  0.57998600  1
  O  O5  1  0.50000000  0.09454900  0.91365600  1
  O  O6  1  0.29582400  0.16488300  0.09452100  1
  O  O7  1  0.70417600  0.16488300  0.09452100  1
  O  O8  1  0.29552400  0.16551500  0.42768300  1
  O  O9  1  0.29523000  0.16482800  0.76140200  1
  O  O10  1  0.70447600  0.16551500  0.42768300  1
  O  O11  1  0.70477000  0.16482800  0.76140200  1
  O  O12  1  0.20402600  0.33499800  0.59449000  1
  O  O13  1  0.20493400  0.33501900  0.26097900  1
  O  O14  1  0.20340100  0.33560300  0.92798800  1
  O  O15  1  0.79597400  0.33499800  0.59449000  1
  O  O16  1  0.79659900  0.33560300  0.92798800  1
  O  O17  1  0.79506600  0.33501900  0.26097900  1
  O  O18  1  0.00000000  0.40599900  0.08010600  1
  O  O19  1  0.00000000  0.40251100  0.41378400  1
  O  O20  1  0.00000000  0.40261600  0.74696800  1
  O  O21  1  0.50000000  0.45298400  0.40261100  1
  O  O22  1  0.50000000  0.45502900  0.06965800  1
  O  O23  1  0.50000000  0.45486300  0.73675400  1
  O  O24  1  0.00000000  0.54473500  0.26448600  1
  O  O25  1  0.00000000  0.54653600  0.93032300  1
  O  O26  1  0.00000000  0.54503200  0.59749600  1
  O  O27  1  0.50000000  0.59386300  0.25292900  1
  O  O28  1  0.50000000  0.59496500  0.91987100  1
  O  O29  1  0.50000000  0.59437200  0.58650800  1
  O  O30  1  0.29504700  0.66492900  0.07210800  1
  O  O31  1  0.29633100  0.66337000  0.40517500  1
  O  O32  1  0.70495300  0.66492900  0.07210800  1
  O  O33  1  0.70366900  0.66337000  0.40517500  1
  O  O34  1  0.29595900  0.66479400  0.73844800  1
  O  O35  1  0.70404100  0.66479400  0.73844800  1
  O  O36  1  0.79661900  0.83578100  0.90521300  1
  O  O37  1  0.20338100  0.83578100  0.90521300  1
  O  O38  1  0.79596400  0.83503100  0.23873400  1
  O  O39  1  0.79578600  0.83690800  0.57217900  1
  O  O40  1  0.20403600  0.83503100  0.23873400  1
  O  O41  1  0.20421400  0.83690800  0.57217900  1
  O  O42  1  0.00000000  0.90618300  0.75298100  1
  O  O43  1  0.00000000  0.90276600  0.08617100  1
  O  O44  1  0.00000000  0.90551000  0.42002400  1
  O  O45  1  0.50000000  0.95485300  0.76371400  1
  O  O46  1  0.50000000  0.95527700  0.09745800  1
  O  O47  1  0.50000000  0.95522000  0.42990600  1
loop_
_geom_bond_atom_site_label_1
_geom_bond_atom_site_label_2
_geom_bond_distance
_geom_bond_site_symmetry_2
Li0 O45 2.102568 1_545
Li0 O1 2.112862 1_655
Li0 O4 2.178747 1_555
Li0 O39 2.181344 1_545
Li0 O42 2.185900 1_645
Li0 O11 2.191469 1_555
Li1 O46 2.100222 1_555
Li1 O2 2.115553 1_564
Li1 O5 2.183999 1_564
Li1 O37 2.190546 1_554
Li1 O43 2.192489 1_555
Li1 O6 2.193648 1_565
Li2 O46 2.100222 1_555
Li2 O2 2.115553 1_664
Li2 O5 2.183999 1_564
Li2 O36 2.190546 1_554
Li2 O43 2.192489 1_655
Li2 O7 2.193648 1_565
Li3 O47 2.100380 1_545
Li3 O0 2.105422 1_555
Li3 O44 2.186981 1_545
Li3 O8 2.188124 1_555
Li3 O3 2.193258 1_555
Li3 O40 2.203261 1_545
Li4 O47 2.100380 1_545
Li4 O0 2.105422 1_655
Li4 O44 2.186981 1_645
Li4 O10 2.188124 1_555
Li4 O3 2.193258 1_555
Li4 O38 2.203261 1_545
Li5 O45 2.102568 1_545
Li5 O1 2.112862 1_555
Li5 O4 2.178747 1_555
Li5 O41 2.181344 1_545
Li5 O42 2.185900 1_545
Li5 O9 2.191469 1_555
Li6 O26 2.106489 1_555
Li6 O21 2.112472 1_555
Li6 O12 2.183401 1_555
Li6 O29 2.187836 1_555
Li6 O19 2.191530 1_555
Li6 O31 2.193194 1_555
Li7 O26 2.106489 1_655
Li7 O21 2.112472 1_555
Li7 O15 2.183401 1_555
Li7 O29 2.187836 1_555
Li7 O19 2.191530 1_655
Li7 O33 2.193194 1_555
Li8 O22 2.102640 1_555
Li8 O24 2.110379 1_555
Li8 O27 2.180309 1_555
Li8 O18 2.181227 1_555
Li8 O13 2.189631 1_555
Li8 O30 2.193762 1_555
Li9 O22 2.102640 1_555
Li9 O24 2.110379 1_655
Li9 O27 2.180309 1_555
Li9 O18 2.181227 1_655
Li9 O17 2.189631 1_555
Li9 O32 2.193762 1_555
Li10 O23 2.093198 1_555
Li10 O25 2.112592 1_555
Li10 O14 2.188541 1_555
Li10 O28 2.189105 1_555
Li10 O20 2.194009 1_555
Li10 O34 2.196839 1_555
Li11 O23 2.093198 1_555
Li11 O25 2.112592 1_655
Li11 O16 2.188541 1_555
Li11 O28 2.189105 1_555
Li11 O20 2.194009 1_655
Li11 O35 2.196839 1_555
Fe0 O6 2.088090 1_555
Fe0 O7 2.088090 1_455
Fe0 O0 2.128545 1_555
Fe0 O18 2.220510 1_555
Fe0 O13 2.258415 1_555
Fe0 O17 2.258415 1_455
Fe1 O15 2.090863 1_555
Fe1 O12 2.090863 1_555
Fe1 O23 2.132853 1_555
Fe1 O4 2.216569 1_555
Fe1 O11 2.258263 1_555
Fe1 O9 2.258263 1_555
Fe2 O16 2.087938 1_555
Fe2 O14 2.087938 1_555
Fe2 O22 2.123891 1_556
Fe2 O5 2.222230 1_555
Fe2 O7 2.265825 1_556
Fe2 O6 2.265825 1_556
Fe3 O33 2.089002 1_455
Fe3 O31 2.089002 1_555
Fe3 O24 2.123189 1_555
Fe3 O44 2.221911 1_555
Fe3 O40 2.264370 1_555
Fe3 O38 2.264370 1_455
Fe4 O34 2.086773 1_555
Fe4 O35 2.086773 1_455
Fe4 O26 2.128678 1_555
Fe4 O42 2.219354 1_555
Fe4 O41 2.266923 1_555
Fe4 O39 2.266923 1_455
Fe5 O40 2.085717 1_555
Fe5 O38 2.085717 1_555
Fe5 O46 2.125542 1_555
Fe5 O27 2.223361 1_555
Fe5 O32 2.265233 1_555
Fe5 O30 2.265233 1_555
Fe6 O39 2.098196 1_555
Fe6 O41 2.098196 1_555
Fe6 O47 2.123989 1_555
Fe6 O29 2.227869 1_555
Fe6 O33 2.261022 1_555
Fe6 O31 2.261022 1_555
Fe7 O36 2.088458 1_555
Fe7 O37 2.088458 1_555
Fe7 O45 2.126496 1_555
Fe7 O28 2.213918 1_555
Fe7 O35 2.268494 1_555
Fe7 O34 2.268494 1_555
O0 P10 1.552623 1_545
O1 P11 1.558912 1_545
O1 Zn0 2.088225 1_555
O2 P9 1.559130 1_545
O2 Zn1 2.092057 1_555
O3 P0 1.538024 1_555
O3 Zn2 2.213207 1_555
O4 P1 1.538364 1_555
O5 P2 1.537001 1_555
O6 P0 1.571712 1_555
O7 P0 1.571712 1_555
O8 P1 1.575638 1_555
O8 Zn0 2.086932 1_555
O8 Zn2 2.248572 1_555
O9 P2 1.575891 1_555
O9 Zn1 2.086457 1_555
O10 P1 1.575638 1_555
O10 Zn0 2.086932 1_655
O10 Zn2 2.248572 1_555
O11 P2 1.575891 1_555
O11 Zn1 2.086457 1_655
O12 P4 1.572442 1_555
O12 Zn0 2.257277 1_555
O13 P3 1.575063 1_555
O13 Zn2 2.089720 1_555
O14 P5 1.573336 1_555
O14 Zn1 2.257746 1_555
O15 P4 1.572442 1_655
O15 Zn0 2.257277 1_655
O16 P5 1.573336 1_655
O16 Zn1 2.257746 1_655
O17 P3 1.575063 1_655
O17 Zn2 2.089720 1_555
O18 P5 1.533468 1_554
O19 P3 1.541069 1_555
O19 Zn0 2.205826 1_555
O20 P4 1.538794 1_555
O20 Zn1 2.209571 1_555
O21 P7 1.557909 1_555
O21 Zn2 2.088336 1_555
O22 P6 1.556182 1_555
O23 P8 1.554733 1_555
O24 P3 1.556353 1_555
O25 P5 1.560545 1_555
O25 Zn3 2.093097 1_556
O26 P4 1.556014 1_555
O27 P7 1.534414 1_555
O28 P6 1.538915 1_556
O29 P8 1.537037 1_555
O30 P6 1.575313 1_555
O30 Zn3 2.085348 1_555
O31 P7 1.573205 1_555
O32 P6 1.575313 1_555
O32 Zn3 2.085348 1_655
O33 P7 1.573205 1_555
O34 P8 1.572577 1_555
O35 P8 1.572577 1_555
O36 P9 1.572847 1_655
O36 Zn3 2.261007 1_656
O37 P9 1.572847 1_555
O37 Zn3 2.261007 1_556
O38 P10 1.571676 1_655
O39 P11 1.572671 1_655
O40 P10 1.571676 1_555
O41 P11 1.572671 1_555
O42 P9 1.536268 1_555
O43 P10 1.541186 1_555
O43 Zn3 2.213789 1_555
O44 P11 1.535293 1_555
O45 P2 1.557317 1_565
O46 P0 1.555410 1_565
O47 P1 1.557801 1_565
