# generated using pymatgen
data_Na2P2O7
_symmetry_space_group_name_H-M   'P 1'
_cell_length_a   13.66422900
_cell_length_b   7.04239700
_cell_length_c   7.15763723
_cell_angle_alpha   82.13166389
_cell_angle_beta   90.00000000
_cell_angle_gamma   90.00000000
_symmetry_Int_Tables_number   1
_chemical_formula_structural   Na2P2O7
_chemical_formula_sum   'Na8 P8 O28'
_cell_volume   682.28713773
_cell_formula_units_Z   4
loop_
 _symmetry_equiv_pos_site_id
 _symmetry_equiv_pos_as_xyz
  1  'x, y, z'
loop_
 _atom_site_type_symbol
 _atom_site_label
 _atom_site_symmetry_multiplicity
 _atom_site_fract_x
 _atom_site_fract_y
 _atom_site_fract_z
 _atom_site_occupancy
  Na  Na0  1  0.89818700  0.54292600  0.84893700  1
  Na  Na1  1  0.39818700  0.95707400  0.15106300  1
  Na  Na2  1  0.10181300  0.45707400  0.15106300  1
  Na  Na3  1  0.60181300  0.04292600  0.84893700  1
  Na  Na4  1  0.87072200  0.15963400  0.22584700  1
  Na  Na5  1  0.37072200  0.34036600  0.77415300  1
  Na  Na6  1  0.12927800  0.84036600  0.77415300  1
  Na  Na7  1  0.62927800  0.65963400  0.22584700  1
  P  P0  1  0.89488300  0.65894100  0.31250700  1
  P  P1  1  0.39488300  0.84105900  0.68749300  1
  P  P2  1  0.10511700  0.34105900  0.68749300  1
  P  P3  1  0.60511700  0.15894100  0.31250700  1
  P  P4  1  0.92334300  0.07870700  0.75053700  1
  P  P5  1  0.42334300  0.42129300  0.24946300  1
  P  P6  1  0.07665700  0.92129300  0.24946300  1
  P  P7  1  0.57665700  0.57870700  0.75053700  1
  O  O0  1  0.79169300  0.73957100  0.27314500  1
  O  O1  1  0.29169300  0.76042900  0.72685500  1
  O  O2  1  0.20830700  0.26042900  0.72685500  1
  O  O3  1  0.70830700  0.23957100  0.27314500  1
  O  O4  1  0.89832800  0.58212300  0.52170700  1
  O  O5  1  0.39832800  0.91787700  0.47829300  1
  O  O6  1  0.10167200  0.41787700  0.47829300  1
  O  O7  1  0.60167200  0.08212300  0.52170700  1
  O  O8  1  0.92684600  0.51660100  0.18309400  1
  O  O9  1  0.42684600  0.98339900  0.81690600  1
  O  O10  1  0.07315400  0.48339900  0.81690600  1
  O  O11  1  0.57315400  0.01660100  0.18309400  1
  O  O12  1  0.96323300  0.84858000  0.27382400  1
  O  O13  1  0.46323300  0.65142000  0.72617600  1
  O  O14  1  0.03676700  0.15142000  0.72617600  1
  O  O15  1  0.53676700  0.34858000  0.27382400  1
  O  O16  1  0.93658100  0.86653500  0.82391200  1
  O  O17  1  0.43658100  0.63346500  0.17608800  1
  O  O18  1  0.06341900  0.13346500  0.17608800  1
  O  O19  1  0.56341900  0.36653500  0.82391200  1
  O  O20  1  0.87094200  0.19639400  0.88214800  1
  O  O21  1  0.37094200  0.30360600  0.11785200  1
  O  O22  1  0.12905800  0.80360600  0.11785200  1
  O  O23  1  0.62905800  0.69639400  0.88214800  1
  O  O24  1  0.87602300  0.09292000  0.55626800  1
  O  O25  1  0.37602300  0.40708000  0.44373200  1
  O  O26  1  0.12397700  0.90708000  0.44373200  1
  O  O27  1  0.62397700  0.59292000  0.55626800  1
loop_
_geom_bond_atom_site_label_1
_geom_bond_atom_site_label_2
_geom_bond_distance
_geom_bond_site_symmetry_2
Na0 O4 2.320572 1_555
Na0 O16 2.321489 1_555
Na0 O8 2.405599 1_556
Na0 O10 2.443459 1_655
Na0 O20 2.447835 1_555
Na1 O5 2.320572 1_555
Na1 O17 2.321489 1_555
Na1 O9 2.405599 1_554
Na1 O11 2.443459 1_565
Na1 O21 2.447835 1_565
Na2 O6 2.320572 1_555
Na2 O18 2.321489 1_555
Na2 O10 2.405599 1_554
Na2 O8 2.443459 1_455
Na2 O22 2.447835 1_555
Na3 O7 2.320572 1_555
Na3 O19 2.321489 1_555
Na3 O11 2.405599 1_556
Na3 O9 2.443459 1_545
Na3 O23 2.447835 1_545
Na4 O3 2.325701 1_555
Na4 O24 2.348433 1_555
Na4 O20 2.438158 1_554
Na4 O12 2.511667 1_545
Na4 O8 2.605926 1_555
Na4 O18 2.666789 1_655
Na5 O2 2.325701 1_555
Na5 O25 2.348433 1_555
Na5 O21 2.438158 1_556
Na5 O13 2.511667 1_555
Na5 O9 2.605926 1_545
Na5 O19 2.666789 1_555
Na6 O1 2.325701 1_555
Na6 O26 2.348433 1_555
Na6 O22 2.438158 1_556
Na6 O14 2.511667 1_565
Na6 O10 2.605926 1_555
Na6 O16 2.666789 1_455
Na7 O0 2.325701 1_555
Na7 O27 2.348433 1_555
Na7 O23 2.438158 1_554
Na7 O15 2.511667 1_555
Na7 O11 2.605926 1_565
Na7 O17 2.666789 1_555
O0 P0 1.531711 1_555
O1 P1 1.531711 1_555
O2 P2 1.531711 1_555
O3 P3 1.531711 1_555
O4 P0 1.521588 1_555
O5 P1 1.521588 1_555
O6 P2 1.521588 1_555
O7 P3 1.521588 1_555
O8 P0 1.519153 1_555
O9 P1 1.519153 1_555
O10 P2 1.519153 1_555
O11 P3 1.519153 1_555
O12 P0 1.622121 1_555
O12 P6 1.634080 1_655
O13 P1 1.622121 1_555
O13 P7 1.634080 1_555
O14 P2 1.622121 1_555
O14 P4 1.634080 1_455
O15 P3 1.622121 1_555
O15 P5 1.634080 1_555
O16 P4 1.525228 1_565
O17 P5 1.525228 1_555
O18 P6 1.525228 1_545
O19 P7 1.525228 1_555
O20 P4 1.516827 1_555
O21 P5 1.516827 1_555
O22 P6 1.516827 1_555
O23 P7 1.516827 1_555
O24 P4 1.524304 1_555
O25 P5 1.524304 1_555
O26 P6 1.524304 1_555
O27 P7 1.524304 1_555
