# generated using pymatgen
data_Li4Ni3(SnO5)2
_symmetry_space_group_name_H-M   'P 1'
_cell_length_a   6.65236200
_cell_length_b   8.00240309
_cell_length_c   8.06080855
_cell_angle_alpha   94.94727294
_cell_angle_beta   113.83484389
_cell_angle_gamma   90.71843534
_symmetry_Int_Tables_number   1
_chemical_formula_structural   Li4Ni3(SnO5)2
_chemical_formula_sum   'Li8 Ni6 Sn4 O20'
_cell_volume   390.52722359
_cell_formula_units_Z   2
loop_
 _symmetry_equiv_pos_site_id
 _symmetry_equiv_pos_as_xyz
  1  'x, y, z'
loop_
 _atom_site_type_symbol
 _atom_site_label
 _atom_site_symmetry_multiplicity
 _atom_site_fract_x
 _atom_site_fract_y
 _atom_site_fract_z
 _atom_site_occupancy
  Li  Li0  1  0.12077300  0.69293600  0.81283800  1
  Li  Li1  1  0.81141800  0.60473300  0.39555600  1
  Li  Li2  1  0.24995400  0.75815800  0.47863600  1
  Li  Li3  1  0.75004600  0.24184200  0.52136400  1
  Li  Li4  1  0.18858200  0.39526700  0.60444400  1
  Li  Li5  1  0.87922700  0.30706400  0.18716200  1
  Li  Li6  1  0.33050400  0.09608500  0.41172400  1
  Li  Li7  1  0.66949600  0.90391500  0.58827600  1
  Ni  Ni0  1  0.94663700  0.65793100  0.09801500  1
  Ni  Ni1  1  0.05336300  0.34206900  0.90198500  1
  Ni  Ni2  1  0.50000000  0.50000000  0.00000000  1
  Ni  Ni3  1  0.00000000  0.00000000  0.00000000  1
  Ni  Ni4  1  0.45390700  0.15225200  0.09805600  1
  Ni  Ni5  1  0.54609300  0.84774800  0.90194400  1
  Sn  Sn0  1  0.34599300  0.45788200  0.29712100  1
  Sn  Sn1  1  0.65400700  0.54211800  0.70287900  1
  Sn  Sn2  1  0.82936200  0.94952100  0.30168800  1
  Sn  Sn3  1  0.17063800  0.05047900  0.69831200  1
  O  O0  1  0.78454900  0.45418200  0.96570200  1
  O  O1  1  0.93262400  0.45502000  0.67941100  1
  O  O2  1  0.06737600  0.54498000  0.32058900  1
  O  O3  1  0.39591400  0.61019800  0.77761000  1
  O  O4  1  0.54139700  0.66177100  0.46792700  1
  O  O5  1  0.21545100  0.54581800  0.03429800  1
  O  O6  1  0.91371800  0.13135400  0.77748400  1
  O  O7  1  0.67448500  0.72676000  0.13772200  1
  O  O8  1  0.32551500  0.27324000  0.86227800  1
  O  O9  1  0.03926200  0.16195900  0.45552700  1
  O  O10  1  0.45860300  0.33822900  0.53207300  1
  O  O11  1  0.17057000  0.23581400  0.12937400  1
  O  O12  1  0.82943000  0.76418600  0.87062600  1
  O  O13  1  0.60408600  0.38980200  0.22239000  1
  O  O14  1  0.26799100  0.93514500  0.94045200  1
  O  O15  1  0.96073800  0.83804100  0.54447300  1
  O  O16  1  0.08628200  0.86864600  0.22251600  1
  O  O17  1  0.42436500  0.94603100  0.65715200  1
  O  O18  1  0.57563500  0.05396900  0.34284800  1
  O  O19  1  0.73200900  0.06485500  0.05954800  1
loop_
_geom_bond_atom_site_label_1
_geom_bond_atom_site_label_2
_geom_bond_distance
_geom_bond_site_symmetry_2
Li0 O3 2.070551 1_555
Li0 O5 2.107570 1_556
Li0 O14 2.137385 1_555
Li0 O1 2.201651 1_455
Li0 O12 2.238291 1_455
Li0 O15 2.400898 1_455
Li1 O2 2.072503 1_655
Li1 O15 2.125248 1_555
Li1 O4 2.144018 1_555
Li1 O13 2.186198 1_555
Li1 O7 2.223768 1_555
Li1 O1 2.515326 1_555
Li2 O17 1.977604 1_555
Li2 O2 2.081121 1_555
Li2 O4 2.126632 1_555
Li2 O16 2.179862 1_555
Li2 O15 2.278046 1_455
Li2 O3 2.604319 1_555
Li3 O18 1.977604 1_555
Li3 O1 2.081121 1_555
Li3 O10 2.126632 1_555
Li3 O6 2.179862 1_555
Li3 O9 2.278046 1_655
Li3 O13 2.604319 1_555
Li4 O1 2.072503 1_455
Li4 O9 2.125248 1_555
Li4 O10 2.144018 1_555
Li4 O3 2.186198 1_555
Li4 O8 2.223768 1_555
Li4 O2 2.515326 1_555
Li5 O13 2.070551 1_555
Li5 O0 2.107570 1_554
Li5 O19 2.137385 1_555
Li5 O2 2.201651 1_655
Li5 O11 2.238291 1_655
Li5 O9 2.400898 1_655
Li6 O18 1.947880 1_555
Li6 O10 2.094835 1_555
Li6 O9 2.168560 1_555
Li6 O17 2.275043 1_545
Li6 O16 2.392215 1_545
Li6 O11 2.464552 1_555
Li7 O17 1.947880 1_555
Li7 O4 2.094835 1_555
Li7 O15 2.168560 1_555
Li7 O18 2.275043 1_565
Li7 O6 2.392215 1_565
Li7 O12 2.464552 1_555
Ni0 O16 1.904959 1_655
Ni0 O0 1.919682 1_554
Ni0 O2 1.953016 1_655
Ni0 O12 1.954738 1_554
Ni0 O7 2.036295 1_555
Ni0 O5 2.229262 1_655
Ni1 O6 1.904959 1_455
Ni1 O5 1.919682 1_556
Ni1 O1 1.953016 1_455
Ni1 O11 1.954738 1_556
Ni1 O8 2.036295 1_555
Ni1 O0 2.229262 1_455
Ni2 O3 1.937899 1_554
Ni2 O13 1.937899 1_555
Ni2 O0 2.053512 1_554
Ni2 O5 2.053512 1_555
Ni2 O7 2.104967 1_555
Ni2 O8 2.104967 1_554
Ni3 O6 2.039567 1_454
Ni3 O16 2.039567 1_545
Ni3 O19 2.085639 1_455
Ni3 O14 2.085639 1_544
Ni3 O11 2.141648 1_555
Ni3 O12 2.141648 1_444
Ni4 O18 2.039649 1_555
Ni4 O8 2.074899 1_554
Ni4 O13 2.104943 1_555
Ni4 O11 2.109655 1_555
Ni4 O14 2.111307 1_544
Ni4 O19 2.113586 1_555
Ni5 O17 2.039649 1_555
Ni5 O7 2.074899 1_556
Ni5 O3 2.104943 1_555
Ni5 O12 2.109655 1_555
Ni5 O19 2.111307 1_566
Ni5 O14 2.113586 1_555
O0 Sn1 2.126780 1_555
O1 Sn1 2.061536 1_555
O2 Sn0 2.061536 1_555
O3 Sn1 2.100066 1_555
O4 Sn1 2.061309 1_555
O4 Sn0 2.088159 1_555
O5 Sn0 2.126780 1_555
O6 Sn3 2.141331 1_655
O7 Sn2 2.105505 1_555
O8 Sn3 2.105505 1_555
O9 Sn3 2.080392 1_555
O9 Sn2 2.134240 1_445
O10 Sn0 2.061309 1_555
O10 Sn1 2.088159 1_555
O11 Sn0 2.146265 1_555
O12 Sn1 2.146265 1_555
O13 Sn0 2.100066 1_555
O14 Sn3 2.094046 1_565
O15 Sn2 2.080392 1_555
O15 Sn3 2.134240 1_665
O16 Sn2 2.141331 1_455
O17 Sn3 2.024303 1_565
O18 Sn2 2.024303 1_545
O19 Sn2 2.094046 1_545
