# generated using pymatgen
data_Li5BiS4
_symmetry_space_group_name_H-M   'P 1'
_cell_length_a   16.62000400
_cell_length_b   16.62000400
_cell_length_c   5.93908200
_cell_angle_alpha   90.00000000
_cell_angle_beta   90.00000000
_cell_angle_gamma   90.00000000
_symmetry_Int_Tables_number   1
_chemical_formula_structural   Li5BiS4
_chemical_formula_sum   'Li40 Bi8 S32'
_cell_volume   1640.52015166
_cell_formula_units_Z   8
loop_
 _symmetry_equiv_pos_site_id
 _symmetry_equiv_pos_as_xyz
  1  'x, y, z'
loop_
 _atom_site_type_symbol
 _atom_site_label
 _atom_site_symmetry_multiplicity
 _atom_site_fract_x
 _atom_site_fract_y
 _atom_site_fract_z
 _atom_site_occupancy
  Li  Li0  1  0.98962100  0.01037900  0.25000000  1
  Li  Li1  1  0.01037900  0.98962100  0.75000000  1
  Li  Li2  1  0.98962100  0.48962100  0.25000000  1
  Li  Li3  1  0.01037900  0.51037900  0.75000000  1
  Li  Li4  1  0.11164300  0.36312100  0.81307300  1
  Li  Li5  1  0.11164300  0.13687900  0.81307300  1
  Li  Li6  1  0.12223300  0.62223300  0.25000000  1
  Li  Li7  1  0.12223300  0.87776700  0.25000000  1
  Li  Li8  1  0.13687900  0.11164300  0.31307300  1
  Li  Li9  1  0.13687900  0.38835700  0.31307300  1
  Li  Li10  1  0.25000000  0.25000000  0.33640700  1
  Li  Li11  1  0.25000000  0.75000000  0.75000000  1
  Li  Li12  1  0.25000000  0.75000000  0.25000000  1
  Li  Li13  1  0.25000000  0.25000000  0.83640700  1
  Li  Li14  1  0.36312100  0.11164300  0.31307300  1
  Li  Li15  1  0.36312100  0.38835700  0.31307300  1
  Li  Li16  1  0.37776700  0.62223300  0.25000000  1
  Li  Li17  1  0.37776700  0.87776700  0.25000000  1
  Li  Li18  1  0.38835700  0.13687900  0.81307300  1
  Li  Li19  1  0.38835700  0.36312100  0.81307300  1
  Li  Li20  1  0.51037900  0.48962100  0.25000000  1
  Li  Li21  1  0.48962100  0.51037900  0.75000000  1
  Li  Li22  1  0.51037900  0.01037900  0.25000000  1
  Li  Li23  1  0.48962100  0.98962100  0.75000000  1
  Li  Li24  1  0.61164300  0.63687900  0.18692700  1
  Li  Li25  1  0.61164300  0.86312100  0.18692700  1
  Li  Li26  1  0.62223300  0.12223300  0.75000000  1
  Li  Li27  1  0.62223300  0.37776700  0.75000000  1
  Li  Li28  1  0.63687900  0.61164300  0.68692700  1
  Li  Li29  1  0.63687900  0.88835700  0.68692700  1
  Li  Li30  1  0.75000000  0.25000000  0.75000000  1
  Li  Li31  1  0.75000000  0.25000000  0.25000000  1
  Li  Li32  1  0.75000000  0.75000000  0.16359300  1
  Li  Li33  1  0.75000000  0.75000000  0.66359300  1
  Li  Li34  1  0.86312100  0.61164300  0.68692700  1
  Li  Li35  1  0.86312100  0.88835700  0.68692700  1
  Li  Li36  1  0.87776700  0.12223300  0.75000000  1
  Li  Li37  1  0.87776700  0.37776700  0.75000000  1
  Li  Li38  1  0.88835700  0.63687900  0.18692700  1
  Li  Li39  1  0.88835700  0.86312100  0.18692700  1
  Bi  Bi0  1  0.01759700  0.75000000  0.71421900  1
  Bi  Bi1  1  0.25000000  0.51759700  0.78578100  1
  Bi  Bi2  1  0.25000000  0.98240300  0.78578100  1
  Bi  Bi3  1  0.48240300  0.75000000  0.71421900  1
  Bi  Bi4  1  0.51759700  0.25000000  0.28578100  1
  Bi  Bi5  1  0.75000000  0.01759700  0.21421900  1
  Bi  Bi6  1  0.75000000  0.48240300  0.21421900  1
  Bi  Bi7  1  0.98240300  0.25000000  0.28578100  1
  S  S0  1  0.00908100  0.11486000  0.52901600  1
  S  S1  1  0.00908100  0.38514000  0.52901600  1
  S  S2  1  0.11486000  0.00908100  0.02901600  1
  S  S3  1  0.11486000  0.49091900  0.02901600  1
  S  S4  1  0.13201200  0.25000000  0.08711700  1
  S  S5  1  0.13183100  0.75000000  0.02429300  1
  S  S6  1  0.25000000  0.13201200  0.58711700  1
  S  S7  1  0.25000000  0.63183100  0.47570700  1
  S  S8  1  0.25000000  0.36798800  0.58711700  1
  S  S9  1  0.25000000  0.86816900  0.47570700  1
  S  S10  1  0.36816900  0.75000000  0.02429300  1
  S  S11  1  0.36798800  0.25000000  0.08711700  1
  S  S12  1  0.38514000  0.49091900  0.02901600  1
  S  S13  1  0.38514000  0.00908100  0.02901600  1
  S  S14  1  0.49091900  0.11486000  0.52901600  1
  S  S15  1  0.49091900  0.38514000  0.52901600  1
  S  S16  1  0.50908100  0.61486000  0.47098400  1
  S  S17  1  0.50908100  0.88514000  0.47098400  1
  S  S18  1  0.61486000  0.50908100  0.97098400  1
  S  S19  1  0.61486000  0.99091900  0.97098400  1
  S  S20  1  0.63201200  0.75000000  0.91288300  1
  S  S21  1  0.63183100  0.25000000  0.97570700  1
  S  S22  1  0.75000000  0.13183100  0.52429300  1
  S  S23  1  0.75000000  0.36816900  0.52429300  1
  S  S24  1  0.75000000  0.63201200  0.41288300  1
  S  S25  1  0.75000000  0.86798800  0.41288300  1
  S  S26  1  0.86816900  0.25000000  0.97570700  1
  S  S27  1  0.86798800  0.75000000  0.91288300  1
  S  S28  1  0.88514000  0.50908100  0.97098400  1
  S  S29  1  0.88514000  0.99091900  0.97098400  1
  S  S30  1  0.99091900  0.61486000  0.47098400  1
  S  S31  1  0.99091900  0.88514000  0.47098400  1
loop_
_geom_bond_atom_site_label_1
_geom_bond_atom_site_label_2
_geom_bond_distance
_geom_bond_site_symmetry_2
Li0 S29 2.421967 1_544
Li0 S0 2.421967 1_655
Li0 S31 2.460792 1_545
Li0 S2 2.460792 1_655
Li1 S31 2.421967 1_455
Li1 S2 2.421967 1_566
Li1 S29 2.460792 1_455
Li1 S0 2.460792 1_565
Li2 S28 2.421967 1_554
Li2 S1 2.421967 1_655
Li2 S30 2.460792 1_555
Li2 S3 2.460792 1_655
Li3 S30 2.421967 1_455
Li3 S3 2.421967 1_556
Li3 S28 2.460792 1_455
Li3 S1 2.460792 1_555
Li4 S1 2.426029 1_555
Li4 S3 2.481746 1_556
Li4 S4 2.509633 1_556
Li4 S8 2.663663 1_555
Li5 S0 2.426029 1_555
Li5 S2 2.481746 1_556
Li5 S4 2.509633 1_556
Li5 S6 2.663663 1_555
Li6 S5 2.516261 1_555
Li6 S7 2.516261 1_555
Li6 S30 2.549620 1_455
Li6 S3 2.549620 1_555
Li7 S5 2.516261 1_555
Li7 S9 2.516261 1_555
Li7 S2 2.549620 1_565
Li7 S31 2.549620 1_455
Li8 S2 2.426029 1_555
Li8 S0 2.481746 1_555
Li8 S6 2.509633 1_555
Li8 S4 2.663663 1_555
Li9 S3 2.426029 1_555
Li9 S1 2.481746 1_555
Li9 S8 2.509633 1_555
Li9 S4 2.663663 1_555
Li10 S11 2.457114 1_555
Li10 S4 2.457114 1_555
Li10 S8 2.462205 1_555
Li10 S6 2.462205 1_555
Li11 S9 2.551661 1_555
Li11 S7 2.551661 1_555
Li11 S5 2.551661 1_556
Li11 S10 2.551661 1_556
Li12 S9 2.377834 1_555
Li12 S7 2.377834 1_555
Li12 S5 2.377834 1_555
Li12 S10 2.377834 1_555
Li13 S8 2.457114 1_555
Li13 S6 2.457114 1_555
Li13 S11 2.462205 1_556
Li13 S4 2.462205 1_556
Li14 S13 2.426029 1_555
Li14 S14 2.481746 1_555
Li14 S6 2.509633 1_555
Li14 S11 2.663663 1_555
Li15 S12 2.426029 1_555
Li15 S15 2.481746 1_555
Li15 S8 2.509633 1_555
Li15 S11 2.663663 1_555
Li16 S10 2.516261 1_555
Li16 S7 2.516261 1_555
Li16 S16 2.549620 1_555
Li16 S12 2.549620 1_555
Li17 S10 2.516261 1_555
Li17 S9 2.516261 1_555
Li17 S13 2.549620 1_565
Li17 S17 2.549620 1_555
Li18 S14 2.426029 1_555
Li18 S13 2.481746 1_556
Li18 S11 2.509633 1_556
Li18 S6 2.663663 1_555
Li19 S15 2.426029 1_555
Li19 S12 2.481746 1_556
Li19 S11 2.509633 1_556
Li19 S8 2.663663 1_555
Li20 S18 2.421967 1_554
Li20 S15 2.421967 1_555
Li20 S16 2.460792 1_555
Li20 S12 2.460792 1_555
Li21 S16 2.421967 1_555
Li21 S12 2.421967 1_556
Li21 S18 2.460792 1_555
Li21 S15 2.460792 1_555
Li22 S19 2.421967 1_544
Li22 S14 2.421967 1_555
Li22 S17 2.460792 1_545
Li22 S13 2.460792 1_555
Li23 S17 2.421967 1_555
Li23 S13 2.421967 1_566
Li23 S14 2.460792 1_565
Li23 S19 2.460792 1_555
Li24 S16 2.426029 1_555
Li24 S18 2.481746 1_554
Li24 S20 2.509633 1_554
Li24 S24 2.663663 1_555
Li25 S17 2.426029 1_555
Li25 S19 2.481746 1_554
Li25 S20 2.509633 1_554
Li25 S25 2.663663 1_555
Li26 S22 2.516261 1_555
Li26 S21 2.516261 1_555
Li26 S19 2.549620 1_545
Li26 S14 2.549620 1_555
Li27 S23 2.516261 1_555
Li27 S21 2.516261 1_555
Li27 S18 2.549620 1_555
Li27 S15 2.549620 1_555
Li28 S18 2.426029 1_555
Li28 S16 2.481746 1_555
Li28 S24 2.509633 1_555
Li28 S20 2.663663 1_555
Li29 S19 2.426029 1_555
Li29 S17 2.481746 1_555
Li29 S25 2.509633 1_555
Li29 S20 2.663663 1_555
Li30 S21 2.377834 1_555
Li30 S26 2.377834 1_555
Li30 S22 2.377834 1_555
Li30 S23 2.377834 1_555
Li31 S21 2.551661 1_554
Li31 S22 2.551661 1_555
Li31 S26 2.551661 1_554
Li31 S23 2.551661 1_555
Li32 S24 2.457114 1_555
Li32 S25 2.457114 1_555
Li32 S20 2.462205 1_554
Li32 S27 2.462205 1_554
Li33 S20 2.457114 1_555
Li33 S27 2.457114 1_555
Li33 S25 2.462205 1_555
Li33 S24 2.462205 1_555
Li34 S28 2.426029 1_555
Li34 S30 2.481746 1_555
Li34 S24 2.509633 1_555
Li34 S27 2.663663 1_555
Li35 S29 2.426029 1_555
Li35 S31 2.481746 1_555
Li35 S25 2.509633 1_555
Li35 S27 2.663663 1_555
Li36 S22 2.516261 1_555
Li36 S26 2.516261 1_555
Li36 S0 2.549620 1_655
Li36 S29 2.549620 1_545
Li37 S23 2.516261 1_555
Li37 S26 2.516261 1_555
Li37 S1 2.549620 1_655
Li37 S28 2.549620 1_555
Li38 S30 2.426029 1_555
Li38 S28 2.481746 1_554
Li38 S27 2.509633 1_554
Li38 S24 2.663663 1_555
Li39 S31 2.426029 1_555
Li39 S29 2.481746 1_554
Li39 S27 2.509633 1_554
Li39 S25 2.663663 1_555
Bi0 S5 2.644975 1_556
Bi0 S30 2.707043 1_455
Bi0 S31 2.707043 1_455
Bi0 S27 2.752238 1_455
Bi1 S7 2.644975 1_555
Bi1 S12 2.707043 1_556
Bi1 S3 2.707043 1_556
Bi1 S8 2.752238 1_555
Bi2 S9 2.644975 1_555
Bi2 S2 2.707043 1_566
Bi2 S13 2.707043 1_566
Bi2 S6 2.752238 1_565
Bi3 S10 2.644975 1_556
Bi3 S16 2.707043 1_555
Bi3 S17 2.707043 1_555
Bi3 S20 2.752238 1_555
Bi4 S21 2.644975 1_554
Bi4 S14 2.707043 1_555
Bi4 S15 2.707043 1_555
Bi4 S11 2.752238 1_555
Bi5 S22 2.644975 1_555
Bi5 S29 2.707043 1_544
Bi5 S19 2.707043 1_544
Bi5 S25 2.752238 1_545
Bi6 S23 2.644975 1_555
Bi6 S18 2.707043 1_554
Bi6 S28 2.707043 1_554
Bi6 S24 2.752238 1_555
Bi7 S26 2.644975 1_554
Bi7 S0 2.707043 1_655
Bi7 S1 2.707043 1_655
Bi7 S4 2.752238 1_655
