# generated using pymatgen
data_V3OF11
_symmetry_space_group_name_H-M   'P 1'
_cell_length_a   5.27371000
_cell_length_b   5.45718893
_cell_length_c   14.75331022
_cell_angle_alpha   100.31944481
_cell_angle_beta   90.02307628
_cell_angle_gamma   90.07699020
_symmetry_Int_Tables_number   1
_chemical_formula_structural   V3OF11
_chemical_formula_sum   'V6 O2 F22'
_cell_volume   417.72625115
_cell_formula_units_Z   2
loop_
 _symmetry_equiv_pos_site_id
 _symmetry_equiv_pos_as_xyz
  1  'x, y, z'
loop_
 _atom_site_type_symbol
 _atom_site_label
 _atom_site_symmetry_multiplicity
 _atom_site_fract_x
 _atom_site_fract_y
 _atom_site_fract_z
 _atom_site_occupancy
  V  V0  1  0.99958300  0.00025600  0.00039600  1
  V  V1  1  0.49144100  0.84507600  0.66612700  1
  V  V2  1  0.99447500  0.66481200  0.33222800  1
  V  V3  1  0.49986200  0.50004800  0.00024200  1
  V  V4  1  0.97518900  0.37419600  0.67003900  1
  V  V5  1  0.48923100  0.16660900  0.33950800  1
  O  O0  1  0.79500400  0.62538000  0.68926500  1
  O  O1  1  0.42172400  0.21218300  0.44808100  1
  F  F0  1  0.79234800  0.96968700  0.35769200  1
  F  F1  1  0.69819800  0.80986100  0.02451800  1
  F  F2  1  0.29606600  0.86427400  0.30751800  1
  F  F3  1  0.91443800  0.95799800  0.88272500  1
  F  F4  1  0.58793600  0.78401800  0.54925500  1
  F  F5  1  0.91836400  0.62259600  0.21459400  1
  F  F6  1  0.42373500  0.87131700  0.78449900  1
  F  F7  1  0.08859100  0.70626700  0.44884800  1
  F  F8  1  0.41292400  0.54215000  0.11757900  1
  F  F9  1  0.70182400  0.46981900  0.35776000  1
  F  F10  1  0.80200600  0.31064600  0.02483300  1
  F  F11  1  0.19831700  0.68964300  0.97506500  1
  F  F12  1  0.28614300  0.53079800  0.64262200  1
  F  F13  1  0.20758800  0.36008900  0.30696900  1
  F  F14  1  0.58607200  0.45751800  0.88269200  1
  F  F15  1  0.92788500  0.27298700  0.55008900  1
  F  F16  1  0.59210300  0.12504100  0.21799000  1
  F  F17  1  0.09321800  0.36514300  0.78174100  1
  F  F18  1  0.08706200  0.04057300  0.11760100  1
  F  F19  1  0.70986900  0.14306900  0.69130400  1
  F  F20  1  0.30140100  0.18985200  0.97533200  1
  F  F21  1  0.20740600  0.02808900  0.64288900  1
loop_
_geom_bond_atom_site_label_1
_geom_bond_atom_site_label_2
_geom_bond_distance
_geom_bond_site_symmetry_2
O0 V4 1.651307 1_555
O0 V1 2.065958 1_555
O1 V5 1.616282 1_555
F0 V2 1.956184 1_555
F0 V5 1.972245 1_565
F1 V3 1.964386 1_555
F1 V0 1.964932 1_565
F2 V5 1.923218 1_565
F2 V2 1.996352 1_455
F3 V0 1.767567 1_566
F4 V1 1.771539 1_555
F5 V2 1.755580 1_555
F6 V1 1.763202 1_555
F7 V2 1.765593 1_455
F8 V3 1.765832 1_555
F9 V2 1.948291 1_555
F9 V5 1.975495 1_555
F10 V0 1.967505 1_555
F10 V3 1.969074 1_555
F11 V3 1.969530 1_556
F11 V0 1.972185 1_466
F12 V4 1.924524 1_455
F12 V1 2.003886 1_555
F13 V5 1.933043 1_555
F13 V2 1.987635 1_455
F14 V3 1.767742 1_556
F15 V4 1.774282 1_555
F16 V5 1.848053 1_555
F17 V4 1.770348 1_455
F18 V0 1.764659 1_455
F19 V4 1.945383 1_555
F19 V1 1.971713 1_545
F20 V3 1.966747 1_556
F20 V0 1.968220 1_456
F21 V1 1.866829 1_545
F21 V4 2.227827 1_455
