# generated using pymatgen
data_Zr2Bi2O7
_symmetry_space_group_name_H-M   'P 1'
_cell_length_a   5.71712100
_cell_length_b   8.09740200
_cell_length_c   13.97767824
_cell_angle_alpha   81.59839052
_cell_angle_beta   90.00000000
_cell_angle_gamma   90.00000000
_symmetry_Int_Tables_number   1
_chemical_formula_structural   Zr2Bi2O7
_chemical_formula_sum   'Zr8 Bi8 O28'
_cell_volume   640.13590195
_cell_formula_units_Z   4
loop_
 _symmetry_equiv_pos_site_id
 _symmetry_equiv_pos_as_xyz
  1  'x, y, z'
loop_
 _atom_site_type_symbol
 _atom_site_label
 _atom_site_symmetry_multiplicity
 _atom_site_fract_x
 _atom_site_fract_y
 _atom_site_fract_z
 _atom_site_occupancy
  Zr  Zr0  1  0.26180200  0.92624800  0.31691700  1
  Zr  Zr1  1  0.76441700  0.97190600  0.11427000  1
  Zr  Zr2  1  0.76565900  0.58857800  0.67684100  1
  Zr  Zr3  1  0.26311700  0.52912800  0.88240300  1
  Zr  Zr4  1  0.76311700  0.47087200  0.11759700  1
  Zr  Zr5  1  0.26565900  0.41142200  0.32315900  1
  Zr  Zr6  1  0.26441700  0.02809400  0.88573000  1
  Zr  Zr7  1  0.76180200  0.07375200  0.68308300  1
  Bi  Bi0  1  0.29692600  0.86368400  0.55947800  1
  Bi  Bi1  1  0.76869200  0.76915800  0.91391000  1
  Bi  Bi2  1  0.23815600  0.71335500  0.13024100  1
  Bi  Bi3  1  0.73165500  0.63260500  0.40171900  1
  Bi  Bi4  1  0.23165500  0.36739500  0.59828100  1
  Bi  Bi5  1  0.73815600  0.28664500  0.86975900  1
  Bi  Bi6  1  0.26869200  0.23084200  0.08609000  1
  Bi  Bi7  1  0.79692600  0.13631600  0.44052200  1
  O  O0  1  0.54552300  0.92271700  0.41369600  1
  O  O1  1  0.44173700  0.99391400  0.17867600  1
  O  O2  1  0.68104700  0.82606800  0.69172800  1
  O  O3  1  0.36471900  0.77741000  0.88556700  1
  O  O4  1  0.05599500  0.85947200  0.43707400  1
  O  O5  1  0.05580300  0.93756100  0.01959100  1
  O  O6  1  0.97906700  0.87283100  0.22434400  1
  O  O7  1  0.08985000  0.62562200  0.61622200  1
  O  O8  1  0.93301500  0.57740800  0.82332800  1
  O  O9  1  0.65931300  0.72846100  0.08407600  1
  O  O10  1  0.38583700  0.67337100  0.30565600  1
  O  O11  1  0.57593200  0.58605000  0.54860400  1
  O  O12  1  0.55353200  0.44851600  0.97980600  1
  O  O13  1  0.48069600  0.48446400  0.77307900  1
  O  O14  1  0.98069600  0.51553600  0.22692100  1
  O  O15  1  0.05353200  0.55148400  0.02019400  1
  O  O16  1  0.07593200  0.41395000  0.45139600  1
  O  O17  1  0.88583700  0.32662900  0.69434400  1
  O  O18  1  0.15931300  0.27153900  0.91592400  1
  O  O19  1  0.43301500  0.42259200  0.17667200  1
  O  O20  1  0.58985000  0.37437800  0.38377800  1
  O  O21  1  0.47906700  0.12716900  0.77565600  1
  O  O22  1  0.55580300  0.06243900  0.98040900  1
  O  O23  1  0.55599500  0.14052800  0.56292600  1
  O  O24  1  0.86471900  0.22259000  0.11443300  1
  O  O25  1  0.18104700  0.17393200  0.30827200  1
  O  O26  1  0.94173700  0.00608600  0.82132400  1
  O  O27  1  0.04552300  0.07728300  0.58630400  1
loop_
_geom_bond_atom_site_label_1
_geom_bond_atom_site_label_2
_geom_bond_distance
_geom_bond_site_symmetry_2
Bi0 O4 2.200635 1_555
Bi0 O7 2.302136 1_555
Bi0 O27 2.321090 1_565
Bi0 O0 2.473062 1_555
Bi0 O23 2.693127 1_565
Bi0 O11 2.778732 1_555
Bi0 O2 2.857985 1_555
Bi1 O8 2.339002 1_555
Bi1 O3 2.342597 1_555
Bi1 O26 2.368261 1_565
Bi1 O9 2.434743 1_556
Bi1 O15 2.683368 1_656
Bi1 O5 2.706382 1_656
Bi2 O15 2.405697 1_555
Bi2 O14 2.434344 1_455
Bi2 O5 2.440165 1_555
Bi2 O6 2.467412 1_455
Bi2 O9 2.491146 1_555
Bi2 O10 2.568559 1_555
Bi2 O19 2.599820 1_555
Bi2 O1 2.724613 1_555
Bi3 O11 2.218967 1_555
Bi3 O20 2.290311 1_555
Bi3 O10 2.385633 1_555
Bi3 O0 2.606504 1_555
Bi3 O16 2.670541 1_655
Bi3 O4 2.706028 1_655
Bi4 O16 2.218967 1_555
Bi4 O7 2.290311 1_555
Bi4 O17 2.385633 1_455
Bi4 O27 2.606504 1_555
Bi4 O11 2.670541 1_555
Bi4 O23 2.706028 1_555
Bi5 O12 2.405697 1_555
Bi5 O13 2.434344 1_555
Bi5 O22 2.440165 1_555
Bi5 O21 2.467412 1_555
Bi5 O18 2.491146 1_655
Bi5 O17 2.568559 1_555
Bi5 O8 2.599820 1_555
Bi5 O26 2.724613 1_555
Bi6 O19 2.339002 1_555
Bi6 O24 2.342597 1_455
Bi6 O1 2.368261 1_545
Bi6 O18 2.434743 1_554
Bi6 O12 2.683368 1_554
Bi6 O22 2.706382 1_554
Bi7 O23 2.200635 1_555
Bi7 O20 2.302136 1_555
Bi7 O0 2.321090 1_545
Bi7 O27 2.473062 1_655
Bi7 O4 2.693127 1_645
Bi7 O16 2.778732 1_655
Bi7 O25 2.857985 1_655
O0 Zr0 2.109630 1_555
O1 Zr1 2.071804 1_555
O1 Zr0 2.186964 1_555
O2 Zr2 2.022960 1_555
O2 Zr7 2.044347 1_565
O3 Zr3 2.099337 1_555
O3 Zr6 2.109654 1_565
O4 Zr0 2.057233 1_555
O5 Zr1 2.170587 1_455
O5 Zr6 2.249431 1_564
O6 Zr1 2.038653 1_555
O6 Zr0 2.153558 1_655
O7 Zr2 2.041784 1_455
O8 Zr3 2.074122 1_655
O8 Zr2 2.249883 1_555
O9 Zr4 2.153303 1_555
O9 Zr1 2.160607 1_555
O10 Zr0 2.194236 1_555
O10 Zr5 2.208930 1_555
O11 Zr2 2.097760 1_555
O12 Zr3 2.185566 1_555
O12 Zr4 2.297795 1_556
O13 Zr3 2.043214 1_555
O13 Zr2 2.200693 1_555
O14 Zr4 2.043214 1_555
O14 Zr5 2.200693 1_655
O15 Zr4 2.185566 1_455
O15 Zr3 2.297795 1_554
O16 Zr5 2.097760 1_555
O17 Zr7 2.194236 1_555
O17 Zr2 2.208930 1_555
O18 Zr3 2.153303 1_555
O18 Zr6 2.160607 1_555
O19 Zr4 2.074122 1_555
O19 Zr5 2.249883 1_555
O20 Zr5 2.041784 1_555
O21 Zr6 2.038653 1_555
O21 Zr7 2.153558 1_555
O22 Zr6 2.170587 1_555
O22 Zr1 2.249431 1_546
O23 Zr7 2.057233 1_555
O24 Zr4 2.099337 1_555
O24 Zr1 2.109654 1_545
O25 Zr5 2.022960 1_555
O25 Zr0 2.044347 1_545
O26 Zr6 2.071804 1_655
O26 Zr7 2.186964 1_555
O27 Zr7 2.109630 1_455
