# generated using pymatgen
data_VCrO3
_symmetry_space_group_name_H-M   'P 1'
_cell_length_a   4.99244899
_cell_length_b   5.40111903
_cell_length_c   8.96766442
_cell_angle_alpha   85.14506014
_cell_angle_beta   73.64565191
_cell_angle_gamma   117.58182459
_symmetry_Int_Tables_number   1
_chemical_formula_structural   VCrO3
_chemical_formula_sum   'V4 Cr4 O12'
_cell_volume   198.97723320
_cell_formula_units_Z   4
loop_
 _symmetry_equiv_pos_site_id
 _symmetry_equiv_pos_as_xyz
  1  'x, y, z'
loop_
 _atom_site_type_symbol
 _atom_site_label
 _atom_site_symmetry_multiplicity
 _atom_site_fract_x
 _atom_site_fract_y
 _atom_site_fract_z
 _atom_site_occupancy
  V  V0  1  0.15498927  0.88160698  0.57146583  1
  V  V1  1  0.35261125  0.87722192  0.17257727  1
  V  V2  1  0.34661076  0.37508502  0.67633578  1
  V  V3  1  0.84666867  0.12410186  0.42824425  1
  Cr  Cr0  1  0.15160843  0.37610842  0.07609187  1
  Cr  Cr1  1  0.65256961  0.62810280  0.32239034  1
  Cr  Cr2  1  0.64980295  0.12477779  0.82765485  1
  Cr  Cr3  1  0.84911276  0.62161656  0.92387586  1
  O  O0  1  0.05379266  0.52805948  0.72450556  1
  O  O1  1  0.05555136  0.02762565  0.22214343  1
  O  O2  1  0.44374498  0.87208895  0.37376564  1
  O  O3  1  0.55528432  0.62402920  0.12453677  1
  O  O4  1  0.25040579  0.77503132  0.97291581  1
  O  O5  1  0.25088549  0.28669456  0.46934942  1
  O  O6  1  0.75019231  0.71933614  0.52593964  1
  O  O7  1  0.75489911  0.22429128  0.02574342  1
  O  O8  1  0.44595721  0.37269685  0.87864897  1
  O  O9  1  0.55371397  0.12662132  0.62975514  1
  O  O10  1  0.94276680  0.96883672  0.77669865  1
  O  O11  1  0.93883330  0.46606919  0.27736149  1
loop_
_geom_bond_atom_site_label_1
_geom_bond_atom_site_label_2
_geom_bond_distance
_geom_bond_site_symmetry_2
Cr0 O8 1.964731 1_554
Cr0 O7 1.964990 1_455
Cr0 O1 1.970080 1_555
Cr0 O3 2.033684 1_555
Cr0 O4 2.040395 1_554
Cr0 O11 2.041789 1_455
Cr1 O5 1.958218 1_555
Cr1 O11 1.965835 1_555
Cr1 O3 1.966336 1_555
Cr1 O2 2.034765 1_555
Cr1 O1 2.035943 1_665
Cr1 O6 2.059892 1_555
Cr2 O9 1.964856 1_555
Cr2 O4 1.968224 1_545
Cr2 O10 1.971536 1_545
Cr2 O8 2.035026 1_555
Cr2 O7 2.035953 1_556
Cr2 O0 2.051359 1_655
Cr3 O10 1.974622 1_555
Cr3 O4 1.978466 1_655
Cr3 O3 1.981217 1_556
Cr3 O8 2.017248 1_555
Cr3 O0 2.024423 1_655
Cr3 O7 2.037778 1_556
O0 V2 1.956948 1_555
O0 V0 2.014372 1_555
O1 V1 1.965316 1_545
O1 V3 2.087061 1_455
O2 V0 1.966923 1_555
O2 V1 1.982011 1_555
O2 V3 2.065992 1_565
O3 V1 2.053077 1_555
O4 V1 2.047404 1_556
O5 V3 1.952470 1_455
O5 V0 2.073350 1_545
O5 V2 2.083269 1_555
O6 V0 1.975849 1_655
O6 V2 1.977828 1_555
O6 V3 2.059618 1_565
O7 V1 1.971804 1_545
O8 V2 2.011587 1_555
O9 V3 1.984694 1_555
O9 V2 2.044757 1_555
O9 V0 2.061718 1_545
O10 V2 2.058317 1_665
O10 V0 2.059783 1_655
O11 V3 1.973149 1_555
O11 V1 2.094601 1_655
