# generated using pymatgen
data_Li2V2Si4O11
_symmetry_space_group_name_H-M   'P 1'
_cell_length_a   7.00531900
_cell_length_b   7.52305442
_cell_length_c   8.96911414
_cell_angle_alpha   100.04274301
_cell_angle_beta   100.78569696
_cell_angle_gamma   103.72557034
_symmetry_Int_Tables_number   1
_chemical_formula_structural   Li2V2Si4O11
_chemical_formula_sum   'Li4 V4 Si8 O22'
_cell_volume   439.05957147
_cell_formula_units_Z   2
loop_
 _symmetry_equiv_pos_site_id
 _symmetry_equiv_pos_as_xyz
  1  'x, y, z'
loop_
 _atom_site_type_symbol
 _atom_site_label
 _atom_site_symmetry_multiplicity
 _atom_site_fract_x
 _atom_site_fract_y
 _atom_site_fract_z
 _atom_site_occupancy
  Li  Li0  1  0.39336900  0.21646600  0.80440500  1
  Li  Li1  1  0.87080700  0.25595200  0.84731700  1
  Li  Li2  1  0.12919300  0.74404800  0.15268300  1
  Li  Li3  1  0.60663100  0.78353400  0.19559500  1
  V  V0  1  0.11954200  0.37684600  0.61042000  1
  V  V1  1  0.62674100  0.38821000  0.60689800  1
  V  V2  1  0.37325900  0.61179000  0.39310200  1
  V  V3  1  0.88045800  0.62315400  0.38958000  1
  Si  Si0  1  0.75932600  0.61300300  0.96645700  1
  Si  Si1  1  0.03658400  0.76909400  0.76642900  1
  Si  Si2  1  0.47583400  0.77268200  0.76991500  1
  Si  Si3  1  0.23690900  0.02852700  0.40332800  1
  Si  Si4  1  0.76309100  0.97147300  0.59667200  1
  Si  Si5  1  0.52416600  0.22731800  0.23008500  1
  Si  Si6  1  0.96341600  0.23090600  0.23357100  1
  Si  Si7  1  0.24067400  0.38699700  0.03354300  1
  O  O0  1  0.18460700  0.36484300  0.84870400  1
  O  O1  1  0.60043700  0.74333700  0.93362700  1
  O  O2  1  0.67783500  0.40368400  0.85293100  1
  O  O3  1  0.97478500  0.73457500  0.92982100  1
  O  O4  1  0.28302300  0.83966200  0.81035400  1
  O  O5  1  0.60587400  0.95317000  0.71649500  1
  O  O6  1  0.32103700  0.18892500  0.56548400  1
  O  O7  1  0.41983100  0.58254000  0.63226700  1
  O  O8  1  0.81630900  0.19202000  0.59272000  1
  O  O9  1  0.96796300  0.94256900  0.70636400  1
  O  O10  1  0.93561400  0.57808100  0.62946900  1
  O  O11  1  0.06438600  0.42191900  0.37053100  1
  O  O12  1  0.03203700  0.05743100  0.29363600  1
  O  O13  1  0.18369100  0.80798000  0.40728000  1
  O  O14  1  0.58016900  0.41746000  0.36773300  1
  O  O15  1  0.67896300  0.81107500  0.43451600  1
  O  O16  1  0.39412600  0.04683000  0.28350500  1
  O  O17  1  0.71697700  0.16033800  0.18964600  1
  O  O18  1  0.02521500  0.26542500  0.07017900  1
  O  O19  1  0.32216500  0.59631600  0.14706900  1
  O  O20  1  0.39956300  0.25666300  0.06637300  1
  O  O21  1  0.81539300  0.63515700  0.15129600  1
loop_
_geom_bond_atom_site_label_1
_geom_bond_atom_site_label_2
_geom_bond_distance
_geom_bond_site_symmetry_2
Li0 O2 2.067363 1_555
Li0 O6 2.068980 1_555
Li0 O0 2.092865 1_555
Li0 O20 2.306914 1_556
Li1 O2 1.945277 1_555
Li1 O18 2.067635 1_656
Li1 O0 2.152967 1_655
Li1 O8 2.189755 1_555
Li1 O5 2.501301 1_545
Li2 O19 1.945277 1_555
Li2 O3 2.067635 1_454
Li2 O21 2.152967 1_455
Li2 O13 2.189755 1_555
Li2 O16 2.501301 1_565
Li3 O19 2.067363 1_555
Li3 O15 2.068980 1_555
Li3 O21 2.092865 1_555
Li3 O1 2.306914 1_554
O0 Si7 1.599796 1_556
O0 V0 2.122678 1_555
O1 Si2 1.640584 1_555
O1 Si0 1.668219 1_555
O2 Si0 1.624515 1_555
O2 V1 2.146206 1_555
O3 Si1 1.649038 1_655
O3 Si0 1.690554 1_555
O4 Si2 1.628636 1_555
O4 Si1 1.629424 1_555
O5 Si2 1.645111 1_555
O5 Si4 1.676181 1_555
O6 Si3 1.627366 1_555
O6 V1 2.226290 1_555
O6 V0 2.261572 1_555
O7 Si2 1.631189 1_555
O7 V2 2.166350 1_555
O7 V0 2.247983 1_555
O7 V1 2.302837 1_555
O8 Si4 1.620206 1_545
O8 V0 2.205932 1_655
O8 V1 2.210430 1_555
O9 Si1 1.634164 1_655
O9 Si4 1.664103 1_555
O10 Si1 1.628215 1_655
O10 V0 2.213390 1_655
O10 V3 2.213390 1_555
O10 V1 2.243142 1_555
O11 Si6 1.628215 1_455
O11 V3 2.213390 1_455
O11 V0 2.213390 1_555
O11 V2 2.243142 1_555
O12 Si6 1.634164 1_455
O12 Si3 1.664103 1_555
O13 Si3 1.620206 1_565
O13 V3 2.205932 1_455
O13 V2 2.210430 1_555
O14 Si5 1.631189 1_555
O14 V1 2.166350 1_555
O14 V3 2.247983 1_555
O14 V2 2.302837 1_555
O15 Si4 1.627366 1_555
O15 V2 2.226290 1_555
O15 V3 2.261572 1_555
O16 Si5 1.645111 1_555
O16 Si3 1.676181 1_555
O17 Si5 1.628636 1_555
O17 Si6 1.629424 1_555
O18 Si6 1.649038 1_455
O18 Si7 1.690554 1_555
O19 Si7 1.624515 1_555
O19 V2 2.146206 1_555
O20 Si5 1.640584 1_555
O20 Si7 1.668219 1_555
O21 Si0 1.599796 1_554
O21 V3 2.122678 1_555
