# generated using pymatgen
data_Li8(FeO2)5
_symmetry_space_group_name_H-M   'P 1'
_cell_length_a   5.45247549
_cell_length_b   5.45247549
_cell_length_c   14.46813103
_cell_angle_alpha   74.46992165
_cell_angle_beta   74.46992165
_cell_angle_gamma   38.71515346
_symmetry_Int_Tables_number   1
_chemical_formula_structural   Li8(FeO2)5
_chemical_formula_sum   'Li8 Fe5 O10'
_cell_volume   257.96415998
_cell_formula_units_Z   1
loop_
 _symmetry_equiv_pos_site_id
 _symmetry_equiv_pos_as_xyz
  1  'x, y, z'
loop_
 _atom_site_type_symbol
 _atom_site_label
 _atom_site_symmetry_multiplicity
 _atom_site_fract_x
 _atom_site_fract_y
 _atom_site_fract_z
 _atom_site_occupancy
  Li  Li0  1  0.78583500  0.78583500  0.53548500  1
  Li  Li1  1  0.21540100  0.21540100  0.66171400  1
  Li  Li2  1  0.77604000  0.77604000  0.75591200  1
  Li  Li3  1  0.77437500  0.77437500  0.92728900  1
  Li  Li4  1  0.21534900  0.21534900  0.05233000  1
  Li  Li5  1  0.22326300  0.22326300  0.26489400  1
  Li  Li6  1  0.78686100  0.78686100  0.14653300  1
  Li  Li7  1  0.22652500  0.22652500  0.44231300  1
  Fe  Fe0  1  0.50146300  0.50146300  0.19964700  1
  Fe  Fe1  1  0.50013600  0.50013600  0.59821900  1
  Fe  Fe2  1  0.50565100  0.50565100  0.39867100  1
  Fe  Fe3  1  0.49909900  0.49909900  0.99891300  1
  Fe  Fe4  1  0.49494100  0.49494100  0.80246200  1
  O  O0  1  0.62551200  0.62551200  0.86909900  1
  O  O1  1  0.37419500  0.37419500  0.31832800  1
  O  O2  1  0.36696100  0.36696100  0.73004000  1
  O  O3  1  0.35399100  0.35399100  0.52853300  1
  O  O4  1  0.35908300  0.35908300  0.92469600  1
  O  O5  1  0.64038300  0.64038300  0.07463000  1
  O  O6  1  0.64095600  0.64095600  0.47284700  1
  O  O7  1  0.63720500  0.63720500  0.26270700  1
  O  O8  1  0.63597400  0.63597400  0.68131100  1
  O  O9  1  0.36373000  0.36373000  0.13097100  1
loop_
_geom_bond_atom_site_label_1
_geom_bond_atom_site_label_2
_geom_bond_distance
_geom_bond_site_symmetry_2
Li0 O3 1.930829 1_655
Li0 O3 1.930829 1_565
Li0 O6 1.951883 1_555
Li0 O8 2.232112 1_555
Li1 O8 1.970527 1_455
Li1 O8 1.970527 1_545
Li1 O3 2.046116 1_555
Li1 O2 2.069688 1_555
Li2 O0 1.908080 1_555
Li2 O2 2.020576 1_565
Li2 O2 2.020576 1_655
Li2 O8 2.030872 1_555
Li3 O0 1.945858 1_555
Li3 O4 2.002173 1_565
Li3 O4 2.002173 1_655
Li3 O5 2.185600 1_556
Li4 O5 1.955516 1_455
Li4 O5 1.955516 1_545
Li4 O4 2.011705 1_554
Li4 O9 2.147317 1_555
Li5 O1 1.921046 1_555
Li5 O7 2.016718 1_545
Li5 O7 2.016718 1_455
Li5 O9 2.062425 1_555
Li6 O7 1.930555 1_555
Li6 O9 1.959949 1_655
Li6 O9 1.959949 1_565
Li6 O5 2.059906 1_555
Li7 O1 1.994806 1_555
Li7 O6 2.003942 1_545
Li7 O6 2.003942 1_455
Li7 O3 2.050482 1_555
Fe0 O1 1.840329 1_555
Fe0 O7 1.872438 1_555
Fe0 O9 1.947944 1_555
Fe0 O5 1.961414 1_555
Fe1 O6 1.974265 1_555
Fe1 O2 2.007886 1_555
Fe1 O3 2.034156 1_555
Fe1 O8 2.086155 1_555
Fe2 O6 1.984329 1_555
Fe2 O1 2.018098 1_555
Fe2 O7 2.047052 1_555
Fe2 O3 2.073852 1_555
Fe3 O0 1.957709 1_555
Fe3 O9 2.019881 1_556
Fe3 O4 2.026361 1_555
Fe3 O5 2.053492 1_556
Fe4 O0 1.862600 1_555
Fe4 O2 1.901243 1_555
Fe4 O4 1.917897 1_555
Fe4 O8 1.932432 1_555
