# generated using pymatgen
data_Li3V4CrO8
_symmetry_space_group_name_H-M   'P 1'
_cell_length_a   6.05679175
_cell_length_b   6.05679175
_cell_length_c   6.08788736
_cell_angle_alpha   59.94136968
_cell_angle_beta   59.94136968
_cell_angle_gamma   60.67686914
_symmetry_Int_Tables_number   1
_chemical_formula_structural   Li3V4CrO8
_chemical_formula_sum   'Li3 V4 Cr1 O8'
_cell_volume   158.56959395
_cell_formula_units_Z   1
loop_
 _symmetry_equiv_pos_site_id
 _symmetry_equiv_pos_as_xyz
  1  'x, y, z'
loop_
 _atom_site_type_symbol
 _atom_site_label
 _atom_site_symmetry_multiplicity
 _atom_site_fract_x
 _atom_site_fract_y
 _atom_site_fract_z
 _atom_site_occupancy
  Li  Li0  1  0.00000000  0.50000000  0.00000000  1
  Li  Li1  1  0.50000000  0.00000000  0.00000000  1
  Li  Li2  1  0.00000000  0.00000000  0.50000000  1
  V  V0  1  0.50000000  0.50000000  0.50000000  1
  V  V1  1  0.00000000  0.00000000  0.00000000  1
  V  V2  1  0.50000000  0.00000000  0.50000000  1
  V  V3  1  0.00000000  0.50000000  0.50000000  1
  Cr  Cr0  1  0.50000000  0.50000000  0.00000000  1
  O  O0  1  0.74099800  0.74099800  0.74893700  1
  O  O1  1  0.25447900  0.72885200  0.24566700  1
  O  O2  1  0.72885200  0.25447900  0.24566700  1
  O  O3  1  0.25900200  0.25900200  0.25106300  1
  O  O4  1  0.24987000  0.24987000  0.72748900  1
  O  O5  1  0.74552100  0.27114800  0.75433300  1
  O  O6  1  0.27114800  0.74552100  0.75433300  1
  O  O7  1  0.75013000  0.75013000  0.27251100  1
loop_
_geom_bond_atom_site_label_1
_geom_bond_atom_site_label_2
_geom_bond_distance
_geom_bond_site_symmetry_2
Li0 O2 2.201999 1_455
Li0 O6 2.201999 1_554
Li0 O3 2.202687 1_555
Li0 O0 2.202687 1_454
Li0 O4 2.257171 1_554
Li0 O7 2.257171 1_455
Li1 O1 2.201999 1_545
Li1 O5 2.201999 1_554
Li1 O3 2.202687 1_555
Li1 O0 2.202687 1_544
Li1 O4 2.257171 1_554
Li1 O7 2.257171 1_545
Li2 O0 2.205823 1_445
Li2 O3 2.205823 1_555
Li2 O1 2.268800 1_545
Li2 O5 2.268800 1_455
Li2 O6 2.268800 1_545
Li2 O2 2.268800 1_455
Cr0 O1 2.049216 1_555
Cr0 O5 2.049216 1_554
Cr0 O6 2.049216 1_554
Cr0 O2 2.049216 1_555
Cr0 O3 2.052895 1_555
Cr0 O0 2.052895 1_554
O0 V2 2.116581 1_565
O0 V3 2.116581 1_655
O1 V3 2.060638 1_555
O1 V0 2.160496 1_555
O1 V1 2.163099 1_565
O2 V2 2.060638 1_555
O2 V0 2.160496 1_555
O2 V1 2.163099 1_655
O3 V3 2.116581 1_555
O3 V2 2.116581 1_555
O4 V2 2.062937 1_555
O4 V3 2.062937 1_555
O4 V1 2.132159 1_556
O4 V0 2.133710 1_555
O5 V3 2.060638 1_655
O5 V0 2.160496 1_555
O5 V1 2.163099 1_656
O6 V2 2.060638 1_565
O6 V0 2.160496 1_555
O6 V1 2.163099 1_566
O7 V2 2.062937 1_565
O7 V3 2.062937 1_655
O7 V1 2.132159 1_665
O7 V0 2.133710 1_555
