# generated using pymatgen
data_Na5Mn2P2(CO7)2
_symmetry_space_group_name_H-M   'P 1'
_cell_length_a   6.61776600
_cell_length_b   9.07357000
_cell_length_c   10.59050275
_cell_angle_alpha   89.25064601
_cell_angle_beta   90.00000000
_cell_angle_gamma   90.00000000
_symmetry_Int_Tables_number   1
_chemical_formula_structural   Na5Mn2P2(CO7)2
_chemical_formula_sum   'Na10 Mn4 P4 C4 O28'
_cell_volume   635.87102180
_cell_formula_units_Z   2
loop_
 _symmetry_equiv_pos_site_id
 _symmetry_equiv_pos_as_xyz
  1  'x, y, z'
loop_
 _atom_site_type_symbol
 _atom_site_label
 _atom_site_symmetry_multiplicity
 _atom_site_fract_x
 _atom_site_fract_y
 _atom_site_fract_z
 _atom_site_occupancy
  Na  Na0  1  0.25000000  0.07850500  0.38088200  1
  Na  Na1  1  0.00650900  0.25580100  0.63145800  1
  Na  Na2  1  0.49349100  0.25580100  0.63145800  1
  Na  Na3  1  0.99937600  0.23758000  0.11381700  1
  Na  Na4  1  0.50062400  0.23758000  0.11381700  1
  Na  Na5  1  0.49937600  0.76242000  0.88618300  1
  Na  Na6  1  0.00062400  0.76242000  0.88618300  1
  Na  Na7  1  0.50650900  0.74419900  0.36854200  1
  Na  Na8  1  0.99349100  0.74419900  0.36854200  1
  Na  Na9  1  0.75000000  0.92149500  0.61911800  1
  Mn  Mn0  1  0.75000000  0.35802700  0.88931100  1
  Mn  Mn1  1  0.75000000  0.35510400  0.38805800  1
  Mn  Mn2  1  0.25000000  0.64489600  0.61194200  1
  Mn  Mn3  1  0.25000000  0.64197300  0.11068900  1
  P  P0  1  0.25000000  0.42392600  0.85153300  1
  P  P1  1  0.25000000  0.41950200  0.34993200  1
  P  P2  1  0.75000000  0.58049800  0.65006800  1
  P  P3  1  0.75000000  0.57607400  0.14846700  1
  C  C0  1  0.75000000  0.07017600  0.85876800  1
  C  C1  1  0.75000000  0.06586500  0.37008100  1
  C  C2  1  0.25000000  0.93413500  0.62991900  1
  C  C3  1  0.25000000  0.92982400  0.14123200  1
  O  O0  1  0.25000000  0.07547300  0.62522900  1
  O  O1  1  0.25000000  0.07010900  0.14550500  1
  O  O2  1  0.75000000  0.14210300  0.96592000  1
  O  O3  1  0.75000000  0.13748700  0.47806700  1
  O  O4  1  0.75000000  0.15096400  0.75603100  1
  O  O5  1  0.75000000  0.14404200  0.26699300  1
  O  O6  1  0.06041200  0.33291600  0.89069600  1
  O  O7  1  0.43958800  0.33291600  0.89069600  1
  O  O8  1  0.06506100  0.32371600  0.38654800  1
  O  O9  1  0.43493900  0.32371600  0.38654800  1
  O  O10  1  0.25000000  0.44236800  0.70440200  1
  O  O11  1  0.75000000  0.42990400  0.58418900  1
  O  O12  1  0.25000000  0.44510700  0.20205600  1
  O  O13  1  0.75000000  0.42222000  0.08691500  1
  O  O14  1  0.25000000  0.57778000  0.91308500  1
  O  O15  1  0.75000000  0.55489300  0.79794400  1
  O  O16  1  0.25000000  0.57009600  0.41581100  1
  O  O17  1  0.75000000  0.55763200  0.29559800  1
  O  O18  1  0.56506100  0.67628400  0.61345200  1
  O  O19  1  0.93493900  0.67628400  0.61345200  1
  O  O20  1  0.56041200  0.66708400  0.10930400  1
  O  O21  1  0.93958800  0.66708400  0.10930400  1
  O  O22  1  0.25000000  0.85595800  0.73300700  1
  O  O23  1  0.25000000  0.84903600  0.24396900  1
  O  O24  1  0.25000000  0.86251300  0.52193300  1
  O  O25  1  0.25000000  0.85789700  0.03408000  1
  O  O26  1  0.75000000  0.92989100  0.85449500  1
  O  O27  1  0.75000000  0.92452700  0.37477100  1
loop_
_geom_bond_atom_site_label_1
_geom_bond_atom_site_label_2
_geom_bond_distance
_geom_bond_site_symmetry_2
Na0 O24 2.448623 1_545
Na0 O1 2.494920 1_555
Na0 O9 2.540735 1_555
Na0 O8 2.540735 1_555
Na0 O23 2.552754 1_545
Na0 O0 2.587544 1_555
Na1 O0 2.298018 1_555
Na1 O4 2.343957 1_455
Na1 O11 2.367920 1_455
Na1 O10 2.468432 1_555
Na1 O3 2.592027 1_455
Na1 O8 2.686161 1_555
Na1 O6 2.864375 1_555
Na2 O0 2.298018 1_555
Na2 O4 2.343957 1_555
Na2 O11 2.367920 1_555
Na2 O10 2.468432 1_555
Na2 O3 2.592027 1_555
Na2 O9 2.686161 1_555
Na2 O7 2.864375 1_555
Na3 O1 2.271388 1_655
Na3 O13 2.366219 1_555
Na3 O2 2.441892 1_554
Na3 O5 2.457522 1_555
Na3 O6 2.538026 1_654
Na3 O12 2.686242 1_655
Na4 O1 2.271388 1_555
Na4 O13 2.366219 1_555
Na4 O2 2.441892 1_554
Na4 O5 2.457522 1_555
Na4 O7 2.538026 1_554
Na4 O12 2.686242 1_555
Na5 O26 2.271388 1_555
Na5 O14 2.366219 1_555
Na5 O25 2.441892 1_556
Na5 O22 2.457522 1_555
Na5 O20 2.538026 1_556
Na5 O15 2.686242 1_555
Na6 O26 2.271388 1_455
Na6 O14 2.366219 1_555
Na6 O25 2.441892 1_556
Na6 O22 2.457522 1_555
Na6 O21 2.538026 1_456
Na6 O15 2.686242 1_455
Na7 O27 2.298018 1_555
Na7 O23 2.343957 1_555
Na7 O16 2.367920 1_555
Na7 O17 2.468432 1_555
Na7 O24 2.592027 1_555
Na7 O18 2.686161 1_555
Na7 O20 2.864375 1_555
Na8 O27 2.298018 1_555
Na8 O23 2.343957 1_655
Na8 O16 2.367920 1_655
Na8 O17 2.468432 1_555
Na8 O24 2.592027 1_655
Na8 O19 2.686161 1_555
Na8 O21 2.864375 1_555
Na9 O3 2.448623 1_565
Na9 O26 2.494920 1_555
Na9 O19 2.540735 1_555
Na9 O18 2.540735 1_555
Na9 O4 2.552754 1_565
Na9 O27 2.587544 1_555
Mn0 O15 2.020364 1_555
Mn0 O6 2.066862 1_655
Mn0 O7 2.066862 1_555
Mn0 O2 2.110722 1_555
Mn0 O13 2.179597 1_556
Mn0 O4 2.364656 1_555
Mn1 O17 2.070924 1_555
Mn1 O8 2.104450 1_655
Mn1 O9 2.104450 1_555
Mn1 O3 2.181361 1_555
Mn1 O11 2.193619 1_555
Mn1 O5 2.318547 1_555
Mn2 O10 2.070924 1_555
Mn2 O18 2.104450 1_555
Mn2 O19 2.104450 1_455
Mn2 O24 2.181361 1_555
Mn2 O16 2.193619 1_555
Mn2 O22 2.318547 1_555
Mn3 O12 2.020364 1_555
Mn3 O21 2.066862 1_455
Mn3 O20 2.066862 1_555
Mn3 O25 2.110722 1_555
Mn3 O14 2.179597 1_554
Mn3 O23 2.364656 1_555
C0 O26 1.274281 1_545
C0 O4 1.303957 1_555
C0 O2 1.316457 1_555
C1 O27 1.282752 1_545
C1 O5 1.294156 1_555
C1 O3 1.322742 1_555
C2 O0 1.282752 1_565
C2 O22 1.294156 1_555
C2 O24 1.322742 1_555
C3 O1 1.274281 1_565
C3 O23 1.303957 1_555
C3 O25 1.316457 1_555
O6 P0 1.555355 1_555
O7 P0 1.555355 1_555
O8 P1 1.547521 1_555
O9 P1 1.547521 1_555
O10 P0 1.564973 1_555
O11 P2 1.542345 1_555
O12 P1 1.580212 1_555
O13 P3 1.548407 1_555
O14 P0 1.548407 1_555
O15 P2 1.580212 1_555
O16 P1 1.542345 1_555
O17 P3 1.564973 1_555
O18 P2 1.547521 1_555
O19 P2 1.547521 1_555
O20 P3 1.555355 1_555
O21 P3 1.555355 1_555
