# generated using pymatgen
data_Na3CoAsCO7
_symmetry_space_group_name_H-M   'P 1'
_cell_length_a   8.64793008
_cell_length_b   8.64878474
_cell_length_c   10.47551156
_cell_angle_alpha   107.21084240
_cell_angle_beta   107.20871460
_cell_angle_gamma   105.02355929
_symmetry_Int_Tables_number   1
_chemical_formula_structural   Na3CoAsCO7
_chemical_formula_sum   'Na12 Co4 As4 C4 O28'
_cell_volume   661.28311028
_cell_formula_units_Z   4
loop_
 _symmetry_equiv_pos_site_id
 _symmetry_equiv_pos_as_xyz
  1  'x, y, z'
loop_
 _atom_site_type_symbol
 _atom_site_label
 _atom_site_symmetry_multiplicity
 _atom_site_fract_x
 _atom_site_fract_y
 _atom_site_fract_z
 _atom_site_occupancy
  Na  Na0  1  0.54633300  0.29633900  0.08063000  1
  Na  Na1  1  0.04636400  0.79637400  0.08061900  1
  Na  Na2  1  0.95366500  0.20364700  0.91937300  1
  Na  Na3  1  0.45367300  0.70368100  0.91938000  1
  Na  Na4  1  0.25742000  0.25309000  0.25948600  1
  Na  Na5  1  0.75734700  0.75307000  0.25946700  1
  Na  Na6  1  0.50308900  0.00740700  0.25949200  1
  Na  Na7  1  0.00309100  0.50739000  0.25947400  1
  Na  Na8  1  0.99689800  0.49254600  0.74048800  1
  Na  Na9  1  0.49687600  0.99258200  0.74052900  1
  Na  Na10  1  0.24263100  0.24694000  0.74051100  1
  Na  Na11  1  0.74265500  0.74694500  0.74054900  1
  Co  Co0  1  0.43728500  0.68725000  0.34143200  1
  Co  Co1  1  0.06269900  0.81274800  0.65856800  1
  Co  Co2  1  0.93729000  0.18725300  0.34142700  1
  Co  Co3  1  0.56270800  0.31274700  0.65857600  1
  As  As0  1  0.68437700  0.43435600  0.41713500  1
  As  As1  1  0.18437200  0.93435500  0.41713000  1
  As  As2  1  0.81562200  0.06564000  0.58286800  1
  As  As3  1  0.31562800  0.56564300  0.58286700  1
  C  C0  1  0.76807100  0.01806900  0.05881900  1
  C  C1  1  0.26807000  0.51806700  0.05881400  1
  C  C2  1  0.73193100  0.48193200  0.94118100  1
  C  C3  1  0.23192900  0.98193400  0.94118400  1
  O  O0  1  0.31194100  0.06194400  0.08203100  1
  O  O1  1  0.81193900  0.56194600  0.08202800  1
  O  O2  1  0.18805900  0.43805100  0.91796800  1
  O  O3  1  0.68805900  0.93805600  0.91797300  1
  O  O4  1  0.90973100  0.15964700  0.11968200  1
  O  O5  1  0.40974000  0.65963500  0.11967900  1
  O  O6  1  0.59026300  0.34035900  0.88031900  1
  O  O7  1  0.09024200  0.84038100  0.88031700  1
  O  O8  1  0.70966800  0.95974300  0.14368500  1
  O  O9  1  0.20966400  0.45975400  0.14368500  1
  O  O10  1  0.79034000  0.54024900  0.85631600  1
  O  O11  1  0.29035600  0.04023400  0.85631900  1
  O  O12  1  0.53613000  0.28614200  0.44661000  1
  O  O13  1  0.03611900  0.78614900  0.44661000  1
  O  O14  1  0.96386400  0.21385000  0.55338400  1
  O  O15  1  0.46387900  0.71385600  0.55339100  1
  O  O16  1  0.66029700  0.91027200  0.41698100  1
  O  O17  1  0.16030100  0.41027200  0.41697600  1
  O  O18  1  0.83969200  0.58972900  0.58302300  1
  O  O19  1  0.33969500  0.08972500  0.58301900  1
  O  O20  1  0.56901700  0.51612000  0.30680300  1
  O  O21  1  0.06902600  0.01612800  0.30679700  1
  O  O22  1  0.76620000  0.31912900  0.30678000  1
  O  O23  1  0.26620700  0.81913000  0.30678400  1
  O  O24  1  0.73380000  0.18087200  0.69322000  1
  O  O25  1  0.23379000  0.68086900  0.69321400  1
  O  O26  1  0.93098200  0.98388000  0.69320300  1
  O  O27  1  0.43097700  0.48387400  0.69320300  1
loop_
_geom_bond_atom_site_label_1
_geom_bond_atom_site_label_2
_geom_bond_distance
_geom_bond_site_symmetry_2
Na0 O6 2.358360 1_554
Na0 O0 2.474570 1_555
Na0 O22 2.475991 1_555
Na0 O20 2.476223 1_555
Na0 O11 2.574506 1_554
Na0 O1 2.788883 1_555
Na1 O7 2.358052 1_554
Na1 O1 2.474959 1_455
Na1 O23 2.476124 1_555
Na1 O21 2.476228 1_565
Na1 O10 2.574685 1_454
Na1 O0 2.788465 1_565
Na2 O4 2.358286 1_556
Na2 O2 2.474649 1_655
Na2 O24 2.476058 1_555
Na2 O26 2.476148 1_545
Na2 O9 2.574587 1_656
Na2 O3 2.788789 1_545
Na3 O5 2.358332 1_556
Na3 O3 2.474464 1_555
Na3 O25 2.476097 1_555
Na3 O27 2.476315 1_555
Na3 O8 2.574401 1_556
Na3 O2 2.788976 1_555
Na4 O17 2.315132 1_555
Na4 O0 2.348411 1_555
Na4 O9 2.491236 1_555
Na4 O12 2.499829 1_555
Na4 O21 2.539286 1_555
Na4 O4 2.696842 1_455
Na4 O20 2.836621 1_555
Na5 O16 2.314943 1_555
Na5 O1 2.348583 1_555
Na5 O8 2.491039 1_555
Na5 O13 2.500213 1_655
Na5 O20 2.539106 1_555
Na5 O5 2.696210 1_555
Na5 O21 2.837185 1_665
Na6 O16 2.315384 1_545
Na6 O0 2.348549 1_555
Na6 O8 2.490257 1_545
Na6 O12 2.500106 1_555
Na6 O23 2.538117 1_545
Na6 O5 2.697835 1_545
Na6 O22 2.837892 1_555
Na7 O17 2.315374 1_555
Na7 O1 2.348568 1_455
Na7 O9 2.490038 1_555
Na7 O13 2.500380 1_555
Na7 O22 2.538195 1_455
Na7 O4 2.697573 1_455
Na7 O23 2.837943 1_555
Na8 O18 2.315515 1_555
Na8 O2 2.348511 1_655
Na8 O10 2.490306 1_555
Na8 O14 2.499823 1_555
Na8 O25 2.538255 1_655
Na8 O7 2.698340 1_655
Na8 O24 2.837621 1_555
Na9 O19 2.315467 1_565
Na9 O3 2.348534 1_555
Na9 O11 2.489659 1_565
Na9 O15 2.500288 1_555
Na9 O24 2.538537 1_565
Na9 O6 2.697794 1_565
Na9 O25 2.837633 1_555
Na10 O19 2.314935 1_555
Na10 O2 2.348539 1_555
Na10 O11 2.491556 1_555
Na10 O14 2.500069 1_455
Na10 O27 2.538894 1_555
Na10 O6 2.696446 1_555
Na10 O26 2.837094 1_445
Na11 O18 2.315000 1_555
Na11 O3 2.348445 1_555
Na11 O10 2.491127 1_555
Na11 O15 2.500278 1_555
Na11 O26 2.539068 1_555
Na11 O7 2.696031 1_655
Na11 O27 2.837179 1_555
Co0 O16 2.081171 1_555
Co0 O15 2.098566 1_555
Co0 O20 2.102598 1_555
Co0 O23 2.103246 1_555
Co0 O5 2.196534 1_555
Co0 O9 2.281351 1_555
Co1 O18 2.081138 1_455
Co1 O13 2.098597 1_555
Co1 O26 2.102519 1_455
Co1 O25 2.103326 1_555
Co1 O7 2.196461 1_555
Co1 O11 2.281451 1_565
Co2 O17 2.081151 1_655
Co2 O14 2.098603 1_555
Co2 O21 2.102591 1_655
Co2 O22 2.103300 1_555
Co2 O4 2.196441 1_555
Co2 O8 2.281378 1_545
Co3 O19 2.081161 1_555
Co3 O12 2.098672 1_555
Co3 O27 2.102568 1_555
Co3 O24 2.103303 1_555
Co3 O6 2.196416 1_555
Co3 O10 2.281376 1_555
As0 O18 1.711992 1_555
As0 O22 1.731499 1_555
As0 O20 1.731567 1_555
As0 O12 1.731643 1_555
As1 O19 1.712010 1_565
As1 O23 1.731510 1_555
As1 O21 1.731573 1_565
As1 O13 1.731665 1_555
As2 O16 1.711998 1_545
As2 O24 1.731494 1_555
As2 O26 1.731560 1_545
As2 O14 1.731655 1_555
As3 O17 1.712034 1_555
As3 O25 1.731541 1_555
As3 O27 1.731579 1_555
As3 O15 1.731665 1_555
C0 O3 1.295388 1_544
C0 O8 1.303416 1_545
C0 O4 1.305675 1_555
C1 O2 1.295389 1_554
C1 O9 1.303422 1_555
C1 O5 1.305674 1_555
C2 O1 1.295395 1_556
C2 O10 1.303394 1_555
C2 O6 1.305690 1_555
C3 O0 1.295395 1_566
C3 O11 1.303398 1_565
C3 O7 1.305682 1_555
