# generated using pymatgen
data_Li5Ni5O9F
_symmetry_space_group_name_H-M   'P 1'
_cell_length_a   4.98331200
_cell_length_b   5.78871756
_cell_length_c   6.56466390
_cell_angle_alpha   102.98214923
_cell_angle_beta   98.29176245
_cell_angle_gamma   106.48701818
_symmetry_Int_Tables_number   1
_chemical_formula_structural   Li5Ni5O9F
_chemical_formula_sum   'Li5 Ni5 O9 F1'
_cell_volume   172.50480547
_cell_formula_units_Z   1
loop_
 _symmetry_equiv_pos_site_id
 _symmetry_equiv_pos_as_xyz
  1  'x, y, z'
loop_
 _atom_site_type_symbol
 _atom_site_label
 _atom_site_symmetry_multiplicity
 _atom_site_fract_x
 _atom_site_fract_y
 _atom_site_fract_z
 _atom_site_occupancy
  Li  Li0  1  0.79454600  0.10130500  0.59827700  1
  Li  Li1  1  0.61678800  0.70240100  0.20489000  1
  Li  Li2  1  0.39818700  0.30222000  0.80081800  1
  Li  Li3  1  0.19532600  0.90238900  0.40300600  1
  Li  Li4  1  0.99369600  0.49047000  0.99863200  1
  Ni  Ni0  1  0.80224100  0.60228300  0.59937500  1
  Ni  Ni1  1  0.60607100  0.20860600  0.19951600  1
  Ni  Ni2  1  0.40197700  0.80272800  0.79215700  1
  Ni  Ni3  1  0.20361400  0.40136800  0.39635000  1
  Ni  Ni4  1  0.99045900  0.00249800  0.00053300  1
  O  O0  1  0.91135700  0.05709700  0.28272700  1
  O  O1  1  0.92437700  0.54305800  0.31222300  1
  O  O2  1  0.67241000  0.12850800  0.89626200  1
  O  O3  1  0.70099500  0.67762300  0.89784700  1
  O  O4  1  0.49276600  0.27211800  0.49172800  1
  O  O5  1  0.51798400  0.73439400  0.50292800  1
  O  O6  1  0.27602200  0.32109900  0.09848100  1
  O  O7  1  0.10182300  0.47767400  0.69177000  1
  O  O8  1  0.09947200  0.93688700  0.72440900  1
  F  F0  1  0.29988900  0.83527700  0.10807300  1
loop_
_geom_bond_atom_site_label_1
_geom_bond_atom_site_label_2
_geom_bond_distance
_geom_bond_site_symmetry_2
Li0 O5 2.072378 1_545
Li0 O2 2.116897 1_555
Li0 O4 2.140073 1_555
Li0 O7 2.168574 1_655
Li0 O8 2.170840 1_645
Li0 O0 2.211229 1_555
Li1 O0 2.057481 1_565
Li1 O5 2.066762 1_555
Li1 O3 2.099445 1_554
Li1 O1 2.116549 1_555
Li1 O6 2.254160 1_555
Li2 O2 2.021696 1_555
Li2 O8 2.112135 1_545
Li2 O6 2.117979 1_556
Li2 O4 2.129138 1_555
Li2 O7 2.144363 1_555
Li2 O3 2.155168 1_555
Li3 O1 2.030213 1_455
Li3 O0 2.035378 1_465
Li3 O4 2.123030 1_565
Li3 O5 2.198013 1_555
Li3 O8 2.207999 1_555
Li4 O6 2.043533 1_656
Li4 O1 2.105503 1_556
Li4 O2 2.134993 1_555
Li4 O7 2.150001 1_655
Li4 O3 2.163250 1_555
Ni0 O5 1.888399 1_555
Ni0 O7 1.914057 1_655
Ni0 O8 1.981405 1_655
Ni0 O4 1.984046 1_555
Ni0 O1 2.049491 1_555
Ni0 O3 2.076050 1_555
Ni1 O6 2.014063 1_555
Ni1 O1 2.021538 1_555
Ni1 O0 2.028533 1_555
Ni1 O2 2.037033 1_554
Ni1 O4 2.060853 1_555
Ni2 O2 1.884785 1_565
Ni2 O8 1.923463 1_555
Ni2 O3 1.940699 1_555
Ni2 O7 1.942484 1_555
Ni2 O5 2.050521 1_555
Ni3 O1 1.882486 1_455
Ni3 O4 1.894807 1_555
Ni3 O0 2.005109 1_455
Ni3 O5 2.005945 1_555
Ni3 O6 2.014988 1_555
Ni3 O7 2.058997 1_555
Ni4 O6 1.885082 1_655
Ni4 O3 1.918876 1_544
Ni4 O0 1.924926 1_555
Ni4 O8 1.953694 1_644
Ni4 O2 2.019969 1_554
F0 Li1 2.027090 1_555
F0 Li4 2.034509 1_454
F0 Li3 2.058883 1_555
F0 Ni1 2.154093 1_565
F0 Ni4 2.157172 1_465
F0 Ni2 2.185967 1_554
