# generated using pymatgen
data_Fe5O3F7
_symmetry_space_group_name_H-M   'P 1'
_cell_length_a   4.81551986
_cell_length_b   4.81551986
_cell_length_c   15.71467203
_cell_angle_alpha   89.92120847
_cell_angle_beta   89.92120847
_cell_angle_gamma   88.63875254
_symmetry_Int_Tables_number   1
_chemical_formula_structural   Fe5O3F7
_chemical_formula_sum   'Fe10 O6 F14'
_cell_volume   364.30765336
_cell_formula_units_Z   2
loop_
 _symmetry_equiv_pos_site_id
 _symmetry_equiv_pos_as_xyz
  1  'x, y, z'
loop_
 _atom_site_type_symbol
 _atom_site_label
 _atom_site_symmetry_multiplicity
 _atom_site_fract_x
 _atom_site_fract_y
 _atom_site_fract_z
 _atom_site_occupancy
  Fe  Fe0  1  0.96632500  0.98072200  0.39533000  1
  Fe  Fe1  1  0.01927800  0.03367500  0.60467000  1
  Fe  Fe2  1  0.97197100  0.02038600  0.79971700  1
  Fe  Fe3  1  0.97534600  0.02465400  0.00000000  1
  Fe  Fe4  1  0.97961400  0.02802900  0.20028300  1
  Fe  Fe5  1  0.49748100  0.50251900  0.50000000  1
  Fe  Fe6  1  0.51227500  0.48910900  0.89836100  1
  Fe  Fe7  1  0.50863200  0.47003200  0.69237800  1
  Fe  Fe8  1  0.51089100  0.48772500  0.10163900  1
  Fe  Fe9  1  0.52996800  0.49136800  0.30762200  1
  O  O0  1  0.80485300  0.20083600  0.70513700  1
  O  O1  1  0.81223700  0.18558100  0.90003000  1
  O  O2  1  0.81441900  0.18776300  0.09997000  1
  O  O3  1  0.79916400  0.19514700  0.29486300  1
  O  O4  1  0.32109200  0.32907600  0.59625200  1
  O  O5  1  0.67092400  0.67890800  0.40374800  1
  F  F0  1  0.79397800  0.20602200  0.50000000  1
  F  F1  1  0.29921800  0.29811700  0.40067300  1
  F  F2  1  0.30061000  0.29680600  0.79512700  1
  F  F3  1  0.29601200  0.29242200  0.99978800  1
  F  F4  1  0.30216900  0.30018100  0.20572700  1
  F  F5  1  0.70188300  0.70078200  0.59932700  1
  F  F6  1  0.69981900  0.69783100  0.79427300  1
  F  F7  1  0.70757800  0.70398800  0.00021200  1
  F  F8  1  0.70319400  0.69939000  0.20487300  1
  F  F9  1  0.19311800  0.80688200  0.50000000  1
  F  F10  1  0.19438900  0.80420600  0.90053100  1
  F  F11  1  0.21233800  0.79457300  0.71034300  1
  F  F12  1  0.20542700  0.78766200  0.28965700  1
  F  F13  1  0.19579400  0.80561100  0.09946900  1
loop_
_geom_bond_atom_site_label_1
_geom_bond_atom_site_label_2
_geom_bond_distance
_geom_bond_site_symmetry_2
Fe0 O3 2.041156 1_565
Fe0 O5 2.061689 1_555
Fe1 O0 2.041156 1_455
Fe1 O4 2.061689 1_555
Fe2 O0 1.891643 1_555
Fe2 O1 1.918470 1_555
Fe3 O1 1.912233 1_554
Fe3 O2 1.912233 1_555
Fe4 O3 1.891643 1_555
Fe4 O2 1.918470 1_555
Fe5 O5 1.932263 1_555
Fe5 O4 1.932263 1_555
Fe6 O1 2.030587 1_555
Fe7 O4 1.895760 1_555
Fe7 O0 1.915109 1_555
Fe8 O2 2.030587 1_555
Fe9 O5 1.895760 1_555
Fe9 O3 1.915109 1_555
F0 Fe5 1.995068 1_555
F0 Fe0 2.128335 1_545
F0 Fe1 2.128335 1_655
F1 Fe9 2.068789 1_555
F1 Fe5 2.090391 1_555
F1 Fe0 2.242774 1_445
F2 Fe7 2.082790 1_555
F2 Fe2 2.093102 1_455
F2 Fe6 2.140518 1_555
F3 Fe3 2.035122 1_456
F3 Fe6 2.135483 1_555
F3 Fe8 2.138209 1_556
F4 Fe4 2.057889 1_455
F4 Fe8 2.129777 1_555
F4 Fe9 2.161441 1_555
F5 Fe7 2.068789 1_555
F5 Fe5 2.090391 1_555
F5 Fe1 2.242774 1_665
F6 Fe2 2.057889 1_565
F6 Fe6 2.129777 1_555
F6 Fe7 2.161441 1_555
F7 Fe3 2.035122 1_565
F7 Fe8 2.135483 1_555
F7 Fe6 2.138209 1_554
F8 Fe9 2.082790 1_555
F8 Fe4 2.093102 1_565
F8 Fe8 2.140518 1_555
F9 Fe5 2.047997 1_555
F9 Fe0 2.134664 1_455
F9 Fe1 2.134664 1_565
F10 Fe6 2.129901 1_555
F10 Fe3 2.151681 1_466
F10 Fe2 2.165160 1_465
F11 Fe2 2.105883 1_465
F11 Fe7 2.109999 1_555
F11 Fe1 2.212648 1_565
F12 Fe4 2.105883 1_465
F12 Fe9 2.109999 1_555
F12 Fe0 2.212648 1_455
F13 Fe8 2.129901 1_555
F13 Fe3 2.151681 1_465
F13 Fe4 2.165160 1_465
