# generated using pymatgen
data_Sb4O5F2
_symmetry_space_group_name_H-M   'P 1'
_cell_length_a   7.87975300
_cell_length_b   9.59508900
_cell_length_c   9.96745600
_cell_angle_alpha   90.00000000
_cell_angle_beta   90.00000000
_cell_angle_gamma   90.00000000
_symmetry_Int_Tables_number   1
_chemical_formula_structural   Sb4O5F2
_chemical_formula_sum   'Sb16 O20 F8'
_cell_volume   753.60876136
_cell_formula_units_Z   4
loop_
 _symmetry_equiv_pos_site_id
 _symmetry_equiv_pos_as_xyz
  1  'x, y, z'
loop_
 _atom_site_type_symbol
 _atom_site_label
 _atom_site_symmetry_multiplicity
 _atom_site_fract_x
 _atom_site_fract_y
 _atom_site_fract_z
 _atom_site_occupancy
  Sb  Sb0  1  0.75000000  0.02985500  0.44669200  1
  Sb  Sb1  1  0.25000000  0.04642000  0.02121800  1
  Sb  Sb2  1  0.97373800  0.22747600  0.81726600  1
  Sb  Sb3  1  0.52626200  0.22747600  0.81726600  1
  Sb  Sb4  1  0.02626200  0.27252400  0.31726600  1
  Sb  Sb5  1  0.47373800  0.27252400  0.31726600  1
  Sb  Sb6  1  0.75000000  0.45358000  0.52121800  1
  Sb  Sb7  1  0.25000000  0.47014500  0.94669200  1
  Sb  Sb8  1  0.75000000  0.52985500  0.05330800  1
  Sb  Sb9  1  0.25000000  0.54642000  0.47878200  1
  Sb  Sb10  1  0.52626200  0.72747600  0.68273400  1
  Sb  Sb11  1  0.97373800  0.72747600  0.68273400  1
  Sb  Sb12  1  0.02626200  0.77252400  0.18273400  1
  Sb  Sb13  1  0.47373800  0.77252400  0.18273400  1
  Sb  Sb14  1  0.75000000  0.95358000  0.97878200  1
  Sb  Sb15  1  0.25000000  0.97014500  0.55330800  1
  O  O0  1  0.06853000  0.04531200  0.87438600  1
  O  O1  1  0.43147000  0.04531200  0.87438600  1
  O  O2  1  0.55573900  0.16322400  0.47649100  1
  O  O3  1  0.94426100  0.16322400  0.47649100  1
  O  O4  1  0.75000000  0.16474600  0.93345900  1
  O  O5  1  0.25000000  0.33525400  0.43345900  1
  O  O6  1  0.05573900  0.33677600  0.97649100  1
  O  O7  1  0.44426100  0.33677600  0.97649100  1
  O  O8  1  0.56853000  0.45468800  0.37438600  1
  O  O9  1  0.93147000  0.45468800  0.37438600  1
  O  O10  1  0.06853000  0.54531200  0.62561400  1
  O  O11  1  0.43147000  0.54531200  0.62561400  1
  O  O12  1  0.55573900  0.66322400  0.02350900  1
  O  O13  1  0.94426100  0.66322400  0.02350900  1
  O  O14  1  0.75000000  0.66474600  0.56654100  1
  O  O15  1  0.25000000  0.83525400  0.06654100  1
  O  O16  1  0.05573900  0.83677600  0.52350900  1
  O  O17  1  0.44426100  0.83677600  0.52350900  1
  O  O18  1  0.56853000  0.95468800  0.12561400  1
  O  O19  1  0.93147000  0.95468800  0.12561400  1
  F  F0  1  0.25000000  0.00025900  0.35250600  1
  F  F1  1  0.75000000  0.21365700  0.25931500  1
  F  F2  1  0.25000000  0.28634300  0.75931500  1
  F  F3  1  0.75000000  0.49974100  0.85250600  1
  F  F4  1  0.25000000  0.50025900  0.14749400  1
  F  F5  1  0.75000000  0.71365700  0.24068500  1
  F  F6  1  0.25000000  0.78634300  0.74068500  1
  F  F7  1  0.75000000  0.99974100  0.64749400  1
loop_
_geom_bond_atom_site_label_1
_geom_bond_atom_site_label_2
_geom_bond_distance
_geom_bond_site_symmetry_2
O0 Sb2 1.984225 1_455
O0 Sb1 2.046165 1_556
O1 Sb3 1.984225 1_555
O1 Sb1 2.046165 1_556
O2 Sb5 2.009018 1_555
O2 Sb0 2.017164 1_555
O3 Sb4 2.009018 1_655
O3 Sb0 2.017164 1_555
O4 Sb14 2.075908 1_545
O4 Sb2 2.193573 1_555
O4 Sb3 2.193573 1_555
O5 Sb9 2.075908 1_555
O5 Sb5 2.193573 1_555
O5 Sb4 2.193573 1_555
O6 Sb2 2.009018 1_455
O6 Sb7 2.017164 1_555
O7 Sb3 2.009018 1_555
O7 Sb7 2.017164 1_555
O8 Sb5 1.984225 1_555
O8 Sb6 2.046165 1_555
O9 Sb4 1.984225 1_655
O9 Sb6 2.046165 1_555
O10 Sb11 1.984225 1_455
O10 Sb9 2.046165 1_555
O11 Sb10 1.984225 1_555
O11 Sb9 2.046165 1_555
O12 Sb13 2.009018 1_555
O12 Sb8 2.017164 1_555
O13 Sb12 2.009018 1_655
O13 Sb8 2.017164 1_555
O14 Sb6 2.075908 1_555
O14 Sb10 2.193573 1_555
O14 Sb11 2.193573 1_555
O15 Sb1 2.075908 1_565
O15 Sb13 2.193573 1_555
O15 Sb12 2.193573 1_555
O16 Sb11 2.009018 1_455
O16 Sb15 2.017164 1_555
O17 Sb10 2.009018 1_555
O17 Sb15 2.017164 1_555
O18 Sb13 1.984225 1_555
O18 Sb14 2.046165 1_554
O19 Sb12 1.984225 1_655
O19 Sb14 2.046165 1_554
F0 Sb15 2.022235 1_545
F1 Sb4 2.321956 1_655
F1 Sb5 2.321956 1_555
F1 Sb0 2.568749 1_555
F2 Sb2 2.321956 1_455
F2 Sb3 2.321956 1_555
F2 Sb7 2.568749 1_555
F3 Sb8 2.022235 1_556
F4 Sb7 2.022235 1_554
F5 Sb12 2.321956 1_655
F5 Sb13 2.321956 1_555
F5 Sb8 2.568749 1_555
F6 Sb10 2.321956 1_555
F6 Sb11 2.321956 1_455
F6 Sb15 2.568749 1_555
F7 Sb0 2.022235 1_565
