# generated using pymatgen
data_K2Mo2H12C4N(OF3)3
_symmetry_space_group_name_H-M   'P 1'
_cell_length_a   12.43339558
_cell_length_b   12.43339558
_cell_length_c   6.47606200
_cell_angle_alpha   90.00000000
_cell_angle_beta   90.00000000
_cell_angle_gamma   117.84525740
_symmetry_Int_Tables_number   1
_chemical_formula_structural   K2Mo2H12C4N(OF3)3
_chemical_formula_sum   'K4 Mo4 H24 C8 N2 O6 F18'
_cell_volume   885.21151604
_cell_formula_units_Z   2
loop_
 _symmetry_equiv_pos_site_id
 _symmetry_equiv_pos_as_xyz
  1  'x, y, z'
loop_
 _atom_site_type_symbol
 _atom_site_label
 _atom_site_symmetry_multiplicity
 _atom_site_fract_x
 _atom_site_fract_y
 _atom_site_fract_z
 _atom_site_occupancy
  K  K0  1  0.28227200  0.78227200  0.07045000  1
  K  K1  1  0.78227200  0.28227200  0.92955000  1
  K  K2  1  0.99781300  0.49781300  0.41585800  1
  K  K3  1  0.49781300  0.99781300  0.58414200  1
  Mo  Mo0  1  0.14810900  0.85500700  0.56494600  1
  Mo  Mo1  1  0.85500700  0.14810900  0.43505400  1
  Mo  Mo2  1  0.64810900  0.35500700  0.43505400  1
  Mo  Mo3  1  0.35500700  0.64810900  0.56494600  1
  H  H0  1  0.35028600  0.38213100  0.23220300  1
  H  H1  1  0.38213100  0.35028600  0.76779700  1
  H  H2  1  0.85028600  0.88213100  0.76779700  1
  H  H3  1  0.88213100  0.85028600  0.23220300  1
  H  H4  1  0.19142700  0.34183600  0.21421300  1
  H  H5  1  0.34183600  0.19142700  0.78578700  1
  H  H6  1  0.69142700  0.84183600  0.78578700  1
  H  H7  1  0.84183600  0.69142700  0.21421300  1
  H  H8  1  0.29395200  0.43720000  0.02246800  1
  H  H9  1  0.43720000  0.29395200  0.97753200  1
  H  H10  1  0.79395200  0.93720000  0.97753200  1
  H  H11  1  0.93720000  0.79395200  0.02246800  1
  H  H12  1  0.14281100  0.12457600  0.23453300  1
  H  H13  1  0.12457600  0.14281100  0.76546700  1
  H  H14  1  0.64281100  0.62457600  0.76546700  1
  H  H15  1  0.62457600  0.64281100  0.23453300  1
  H  H16  1  0.30209000  0.16405600  0.23536300  1
  H  H17  1  0.16405600  0.30209000  0.76463700  1
  H  H18  1  0.80209000  0.66405600  0.76463700  1
  H  H19  1  0.66405600  0.80209000  0.23536300  1
  H  H20  1  0.20469200  0.06415500  0.04227900  1
  H  H21  1  0.06415500  0.20469200  0.95772100  1
  H  H22  1  0.70469200  0.56415500  0.95772100  1
  H  H23  1  0.56415500  0.70469200  0.04227900  1
  C  C0  1  0.27391100  0.36084600  0.12702600  1
  C  C1  1  0.36084600  0.27391100  0.87297400  1
  C  C2  1  0.77391100  0.86084600  0.87297400  1
  C  C3  1  0.86084600  0.77391100  0.12702600  1
  C  C4  1  0.22232500  0.14304600  0.13897700  1
  C  C5  1  0.14304600  0.22232500  0.86102300  1
  C  C6  1  0.72232500  0.64304600  0.86102300  1
  C  C7  1  0.64304600  0.72232500  0.13897700  1
  N  N0  1  0.25018200  0.25018200  0.00000000  1
  N  N1  1  0.75018200  0.75018200  0.00000000  1
  O  O0  1  0.06506900  0.93269300  0.55384000  1
  O  O1  1  0.93269300  0.06506900  0.44616000  1
  O  O2  1  0.56506900  0.43269300  0.44616000  1
  O  O3  1  0.43269300  0.56506900  0.55384000  1
  O  O4  1  0.01269200  0.51269200  0.96876500  1
  O  O5  1  0.51269200  0.01269200  0.03123500  1
  F  F0  1  0.25857000  0.94585600  0.79787200  1
  F  F1  1  0.94585600  0.25857000  0.20212800  1
  F  F2  1  0.75857000  0.44585600  0.20212800  1
  F  F3  1  0.44585600  0.75857000  0.79787200  1
  F  F4  1  0.04419600  0.72575100  0.75809300  1
  F  F5  1  0.72575100  0.04419600  0.24190700  1
  F  F6  1  0.54419600  0.22575100  0.24190700  1
  F  F7  1  0.22575100  0.54419600  0.75809300  1
  F  F8  1  0.07602100  0.73935600  0.33170800  1
  F  F9  1  0.73935600  0.07602100  0.66829200  1
  F  F10  1  0.57602100  0.23935600  0.66829200  1
  F  F11  1  0.23935600  0.57602100  0.33170800  1
  F  F12  1  0.28412700  0.95329000  0.37427100  1
  F  F13  1  0.95329000  0.28412700  0.62572900  1
  F  F14  1  0.78412700  0.45329000  0.62572900  1
  F  F15  1  0.45329000  0.78412700  0.37427100  1
  F  F16  1  0.25845700  0.75845700  0.59233500  1
  F  F17  1  0.75845700  0.25845700  0.40766500  1
loop_
_geom_bond_atom_site_label_1
_geom_bond_atom_site_label_2
_geom_bond_distance
_geom_bond_site_symmetry_2
K0 O5 2.968581 1_565
K1 O4 2.968581 1_655
K2 O4 2.901694 1_654
K3 O5 2.901694 1_566
Mo0 O0 1.713401 1_555
Mo1 O1 1.713401 1_555
Mo2 O2 1.713401 1_555
Mo3 O3 1.713401 1_555
C0 H4 1.095442 1_555
C0 H8 1.095833 1_555
C0 H0 1.095882 1_555
C0 N0 1.509213 1_555
C1 H5 1.095442 1_555
C1 H9 1.095833 1_555
C1 H1 1.095882 1_555
C1 N0 1.509213 1_556
C2 H6 1.095442 1_555
C2 H10 1.095833 1_555
C2 H2 1.095882 1_555
C2 N1 1.509213 1_556
C3 H7 1.095442 1_555
C3 H11 1.095833 1_555
C3 H3 1.095882 1_555
C3 N1 1.509213 1_555
C4 H16 1.095180 1_555
C4 H12 1.095893 1_555
C4 H20 1.096112 1_555
C4 N0 1.507781 1_555
C5 H17 1.095180 1_555
C5 H13 1.095893 1_555
C5 H21 1.096112 1_555
C5 N0 1.507781 1_556
C6 H18 1.095180 1_555
C6 H14 1.095893 1_555
C6 H22 1.096112 1_555
C6 N1 1.507781 1_556
C7 H19 1.095180 1_555
C7 H15 1.095893 1_555
C7 H23 1.096112 1_555
C7 N1 1.507781 1_555
F0 Mo0 1.997081 1_555
F0 K0 2.810620 1_556
F0 K3 3.063706 1_555
F1 Mo1 1.997081 1_555
F1 K1 2.810620 1_554
F1 K2 3.063706 1_555
F2 Mo2 1.997081 1_555
F2 K1 2.810620 1_554
F2 K2 3.063706 1_555
F3 Mo3 1.997081 1_555
F3 K0 2.810620 1_556
F3 K3 3.063706 1_555
F4 Mo0 1.968985 1_555
F5 Mo1 1.968985 1_555
F6 Mo2 1.968985 1_555
F7 Mo3 1.968985 1_555
F8 Mo0 1.987091 1_555
F8 K2 2.744757 1_455
F8 K0 2.906064 1_555
F9 Mo1 1.987091 1_555
F9 K3 2.744757 1_545
F9 K1 2.906064 1_555
F10 Mo2 1.987091 1_555
F10 K3 2.744757 1_545
F10 K1 2.906064 1_555
F11 Mo3 1.987091 1_555
F11 K2 2.744757 1_455
F11 K0 2.906064 1_555
F12 Mo0 1.986843 1_555
F12 K3 2.799745 1_555
F12 K0 2.889173 1_555
F13 Mo1 1.986843 1_555
F13 K2 2.799745 1_555
F13 K1 2.889173 1_555
F14 Mo2 1.986843 1_555
F14 K2 2.799745 1_555
F14 K1 2.889173 1_555
F15 Mo3 1.986843 1_555
F15 K3 2.799745 1_555
F15 K0 2.889173 1_555
F16 Mo0 2.212126 1_555
F16 Mo3 2.212126 1_555
F16 K3 3.072859 1_555
F16 K0 3.111356 1_556
F17 Mo1 2.212126 1_555
F17 Mo2 2.212126 1_555
F17 K2 3.072859 1_555
F17 K1 3.111356 1_554
