# generated using pymatgen
data_CoH4SeO5
_symmetry_space_group_name_H-M   'P 1'
_cell_length_a   11.71126200
_cell_length_b   5.71633100
_cell_length_c   8.74091623
_cell_angle_alpha   61.57704152
_cell_angle_beta   90.00000000
_cell_angle_gamma   90.00000000
_symmetry_Int_Tables_number   1
_chemical_formula_structural   CoH4SeO5
_chemical_formula_sum   'Co4 H16 Se4 O20'
_cell_volume   514.62761568
_cell_formula_units_Z   4
loop_
 _symmetry_equiv_pos_site_id
 _symmetry_equiv_pos_as_xyz
  1  'x, y, z'
loop_
 _atom_site_type_symbol
 _atom_site_label
 _atom_site_symmetry_multiplicity
 _atom_site_fract_x
 _atom_site_fract_y
 _atom_site_fract_z
 _atom_site_occupancy
  Co  Co0  1  0.06553600  0.29124800  0.93555900  1
  Co  Co1  1  0.56553600  0.70875200  0.56444100  1
  Co  Co2  1  0.43446400  0.29124800  0.43555900  1
  Co  Co3  1  0.93446400  0.70875200  0.06444100  1
  H  H0  1  0.89882200  0.22609500  0.68141400  1
  H  H1  1  0.18623900  0.39683000  0.63543700  1
  H  H2  1  0.08465500  0.58929800  0.59149800  1
  H  H3  1  0.56244100  0.97177100  0.17570900  1
  H  H4  1  0.58465500  0.41070200  0.90850200  1
  H  H5  1  0.68623900  0.60317000  0.86456300  1
  H  H6  1  0.39882200  0.77390500  0.81858600  1
  H  H7  1  0.06244100  0.02822900  0.32429100  1
  H  H8  1  0.93755900  0.97177100  0.67570900  1
  H  H9  1  0.60117800  0.22609500  0.18141400  1
  H  H10  1  0.31376100  0.39683000  0.13543700  1
  H  H11  1  0.41534500  0.58929800  0.09149800  1
  H  H12  1  0.43755900  0.02822900  0.82429100  1
  H  H13  1  0.91534500  0.41070200  0.40850200  1
  H  H14  1  0.81376100  0.60317000  0.36456300  1
  H  H15  1  0.10117800  0.77390500  0.31858600  1
  Se  Se0  1  0.34680400  0.80572800  0.36763400  1
  Se  Se1  1  0.84680400  0.19427200  0.13236600  1
  Se  Se2  1  0.15319600  0.80572800  0.86763400  1
  Se  Se3  1  0.65319600  0.19427200  0.63236600  1
  O  O0  1  0.48396300  0.72300400  0.32659000  1
  O  O1  1  0.70003200  0.52022100  0.51910500  1
  O  O2  1  0.10907600  0.40550400  0.68010000  1
  O  O3  1  0.10738600  0.86157300  0.39184900  1
  O  O4  1  0.89265600  0.11878100  0.96886300  1
  O  O5  1  0.60907600  0.59449600  0.81990000  1
  O  O6  1  0.39265600  0.88121900  0.53113700  1
  O  O7  1  0.20003200  0.47977900  0.98089500  1
  O  O8  1  0.60738600  0.13842700  0.10815100  1
  O  O9  1  0.98396300  0.27699600  0.17341000  1
  O  O10  1  0.01603700  0.72300400  0.82659000  1
  O  O11  1  0.39261400  0.86157300  0.89184900  1
  O  O12  1  0.79996800  0.52022100  0.01910500  1
  O  O13  1  0.60734400  0.11878100  0.46886300  1
  O  O14  1  0.39092400  0.40550400  0.18010000  1
  O  O15  1  0.10734400  0.88121900  0.03113700  1
  O  O16  1  0.89261400  0.13842700  0.60815100  1
  O  O17  1  0.89092400  0.59449600  0.31990000  1
  O  O18  1  0.29996800  0.47977900  0.48089500  1
  O  O19  1  0.51603700  0.27699600  0.67341000  1
loop_
_geom_bond_atom_site_label_1
_geom_bond_atom_site_label_2
_geom_bond_distance
_geom_bond_site_symmetry_2
Co0 O7 2.050862 1_555
Co0 O2 2.069856 1_555
Co0 O15 2.137126 1_546
Co0 O4 2.209677 1_455
Co0 O9 2.253981 1_456
Co0 O10 2.257599 1_555
Co1 O1 2.050862 1_555
Co1 O5 2.069856 1_555
Co1 O13 2.137126 1_565
Co1 O6 2.209677 1_555
Co1 O0 2.253981 1_555
Co1 O19 2.257599 1_555
Co2 O18 2.050862 1_555
Co2 O14 2.069856 1_555
Co2 O6 2.137126 1_545
Co2 O13 2.209677 1_555
Co2 O19 2.253981 1_555
Co2 O0 2.257599 1_555
Co3 O12 2.050862 1_555
Co3 O17 2.069856 1_555
Co3 O4 2.137126 1_564
Co3 O15 2.209677 1_655
Co3 O10 2.253981 1_654
Co3 O9 2.257599 1_555
H0 O16 0.985913 1_555
H1 O2 0.994950 1_555
H2 O2 1.005400 1_555
H3 O8 0.998898 1_565
H3 O0 1.679551 1_555
H4 O5 1.005400 1_555
H5 O5 0.994950 1_555
H6 O11 0.985913 1_555
H7 O3 0.998898 1_545
H7 O9 1.679551 1_455
H8 O16 0.998898 1_565
H8 O10 1.679551 1_655
H9 O8 0.985913 1_555
H10 O14 0.994950 1_555
H11 O14 1.005400 1_555
H12 O11 0.998898 1_545
H12 O19 1.679551 1_555
H13 O17 1.005400 1_555
H14 O17 0.994950 1_555
H15 O3 0.985913 1_555
O0 Se0 1.758988 1_555
O1 Se3 1.731076 1_555
O4 Se1 1.761870 1_556
O6 Se0 1.761870 1_555
O7 Se2 1.731076 1_555
O9 Se1 1.758988 1_555
O10 Se2 1.758988 1_555
O12 Se1 1.731076 1_555
O13 Se3 1.761870 1_555
O15 Se2 1.761870 1_554
O18 Se0 1.731076 1_555
O19 Se3 1.758988 1_555
