# generated using pymatgen
data_Na2SnBPO7
_symmetry_space_group_name_H-M   'P 1'
_cell_length_a   6.76520700
_cell_length_b   5.41579000
_cell_length_c   9.40690245
_cell_angle_alpha   88.01858312
_cell_angle_beta   90.00000000
_cell_angle_gamma   90.00000000
_symmetry_Int_Tables_number   1
_chemical_formula_structural   Na2SnBPO7
_chemical_formula_sum   'Na4 Sn2 B2 P2 O14'
_cell_volume   344.45286450
_cell_formula_units_Z   2
loop_
 _symmetry_equiv_pos_site_id
 _symmetry_equiv_pos_as_xyz
  1  'x, y, z'
loop_
 _atom_site_type_symbol
 _atom_site_label
 _atom_site_symmetry_multiplicity
 _atom_site_fract_x
 _atom_site_fract_y
 _atom_site_fract_z
 _atom_site_occupancy
  Na  Na0  1  0.49181300  0.76488500  0.80920900  1
  Na  Na1  1  0.00818700  0.76488500  0.80920900  1
  Na  Na2  1  0.50818700  0.23511500  0.19079100  1
  Na  Na3  1  0.99181300  0.23511500  0.19079100  1
  Sn  Sn0  1  0.25000000  0.22644900  0.65593700  1
  Sn  Sn1  1  0.75000000  0.77355100  0.34406300  1
  B  B0  1  0.25000000  0.27600000  0.92368900  1
  B  B1  1  0.75000000  0.72400000  0.07631100  1
  P  P0  1  0.75000000  0.27321500  0.56624100  1
  P  P1  1  0.25000000  0.72678500  0.43375900  1
  O  O0  1  0.75000000  0.69329900  0.93823400  1
  O  O1  1  0.25000000  0.04666900  0.85263900  1
  O  O2  1  0.25000000  0.47343800  0.81525900  1
  O  O3  1  0.93416800  0.20328100  0.65560600  1
  O  O4  1  0.56583200  0.20328100  0.65560600  1
  O  O5  1  0.25000000  0.86294100  0.57721700  1
  O  O6  1  0.75000000  0.56032900  0.53218100  1
  O  O7  1  0.25000000  0.43967100  0.46781900  1
  O  O8  1  0.75000000  0.13705900  0.42278300  1
  O  O9  1  0.43416800  0.79671900  0.34439400  1
  O  O10  1  0.06583200  0.79671900  0.34439400  1
  O  O11  1  0.75000000  0.52656200  0.18474100  1
  O  O12  1  0.75000000  0.95333100  0.14736100  1
  O  O13  1  0.25000000  0.30670100  0.06176600  1
loop_
_geom_bond_atom_site_label_1
_geom_bond_atom_site_label_2
_geom_bond_distance
_geom_bond_site_symmetry_2
Na0 O0 2.154488 1_555
Na0 O2 2.272585 1_555
Na0 O1 2.283674 1_565
Na0 O5 2.764171 1_555
Na0 O4 2.781808 1_565
Na1 O0 2.154488 1_455
Na1 O2 2.272585 1_555
Na1 O1 2.283674 1_565
Na1 O5 2.764171 1_555
Na1 O3 2.781808 1_465
Na2 O13 2.154488 1_555
Na2 O11 2.272585 1_555
Na2 O12 2.283674 1_545
Na2 O8 2.764171 1_555
Na2 O9 2.781808 1_545
Na3 O13 2.154488 1_655
Na3 O11 2.272585 1_555
Na3 O12 2.283674 1_545
Na3 O8 2.764171 1_555
Na3 O10 2.781808 1_645
B0 O13 1.315166 1_556
B0 O1 1.430627 1_555
B0 O2 1.452008 1_555
B1 O0 1.315166 1_554
B1 O12 1.430627 1_555
B1 O11 1.452008 1_555
O1 Sn0 2.060882 1_555
O2 Sn0 2.043060 1_555
O3 P0 1.542879 1_555
O3 Sn0 2.140358 1_655
O4 P0 1.542879 1_555
O4 Sn0 2.140358 1_555
O5 P1 1.560031 1_555
O5 Sn0 2.127177 1_565
O6 P0 1.576728 1_555
O6 Sn1 2.079348 1_555
O7 P1 1.576728 1_555
O7 Sn0 2.079348 1_555
O8 P0 1.560031 1_555
O8 Sn1 2.127177 1_545
O9 P1 1.542879 1_555
O9 Sn1 2.140358 1_555
O10 P1 1.542879 1_555
O10 Sn1 2.140358 1_455
O11 Sn1 2.043060 1_555
O12 Sn1 2.060882 1_555
