# generated using pymatgen
data_K2Li3CrO4
_symmetry_space_group_name_H-M   'P 1'
_cell_length_a   8.97562400
_cell_length_b   5.58478800
_cell_length_c   11.06204087
_cell_angle_alpha   70.21853251
_cell_angle_beta   90.00000000
_cell_angle_gamma   90.00000000
_symmetry_Int_Tables_number   1
_chemical_formula_structural   K2Li3CrO4
_chemical_formula_sum   'K8 Li12 Cr4 O16'
_cell_volume   521.78518223
_cell_formula_units_Z   4
loop_
 _symmetry_equiv_pos_site_id
 _symmetry_equiv_pos_as_xyz
  1  'x, y, z'
loop_
 _atom_site_type_symbol
 _atom_site_label
 _atom_site_symmetry_multiplicity
 _atom_site_fract_x
 _atom_site_fract_y
 _atom_site_fract_z
 _atom_site_occupancy
  K  K0  1  0.22667500  0.71638100  0.89221500  1
  K  K1  1  0.49311700  0.70532100  0.63770900  1
  K  K2  1  0.27332500  0.71638100  0.39221500  1
  K  K3  1  0.99311700  0.29467900  0.86229100  1
  K  K4  1  0.00688300  0.70532100  0.13770900  1
  K  K5  1  0.72667500  0.28361900  0.60778500  1
  K  K6  1  0.50688300  0.29467900  0.36229100  1
  K  K7  1  0.77332500  0.28361900  0.10778500  1
  Li  Li0  1  0.96323400  0.89688100  0.70563000  1
  Li  Li1  1  0.73372500  0.61680200  0.80064800  1
  Li  Li2  1  0.53676600  0.89688100  0.20563000  1
  Li  Li3  1  0.50254000  0.37798400  0.92767400  1
  Li  Li4  1  0.00254000  0.62201600  0.57232600  1
  Li  Li5  1  0.23372500  0.38319800  0.69935200  1
  Li  Li6  1  0.76627500  0.61680200  0.30064800  1
  Li  Li7  1  0.99746000  0.37798400  0.42767400  1
  Li  Li8  1  0.49746000  0.62201600  0.07232600  1
  Li  Li9  1  0.46323400  0.10311900  0.79437000  1
  Li  Li10  1  0.26627500  0.38319800  0.19935200  1
  Li  Li11  1  0.03676600  0.10311900  0.29437000  1
  Cr  Cr0  1  0.70874700  0.90589000  0.93703200  1
  Cr  Cr1  1  0.79125300  0.90589000  0.43703200  1
  Cr  Cr2  1  0.20874700  0.09411000  0.56296800  1
  Cr  Cr3  1  0.29125300  0.09411000  0.06296800  1
  O  O0  1  0.89028500  0.77140300  0.89323300  1
  O  O1  1  0.54361900  0.75259800  0.87641500  1
  O  O2  1  0.80238900  0.75086200  0.62297300  1
  O  O3  1  0.16197100  0.74468100  0.65153100  1
  O  O4  1  0.60971500  0.77140300  0.39323300  1
  O  O5  1  0.95638100  0.75259800  0.37641500  1
  O  O6  1  0.66197100  0.25531900  0.84846900  1
  O  O7  1  0.30238900  0.24913800  0.87702700  1
  O  O8  1  0.69761100  0.75086200  0.12297300  1
  O  O9  1  0.33802900  0.74468100  0.15153100  1
  O  O10  1  0.04361900  0.24740200  0.62358500  1
  O  O11  1  0.39028500  0.22859700  0.60676700  1
  O  O12  1  0.83802900  0.25531900  0.34846900  1
  O  O13  1  0.19761100  0.24913800  0.37702700  1
  O  O14  1  0.45638100  0.24740200  0.12358500  1
  O  O15  1  0.10971500  0.22859700  0.10676700  1
loop_
_geom_bond_atom_site_label_1
_geom_bond_atom_site_label_2
_geom_bond_distance
_geom_bond_site_symmetry_2
K0 O3 2.676959 1_555
K0 O7 2.756093 1_555
K0 O1 2.853112 1_555
K0 O7 3.000720 1_565
K0 O0 3.035313 1_455
K0 O9 3.091837 1_556
K0 O15 3.127271 1_556
K1 O1 2.778440 1_555
K1 O2 2.787269 1_555
K1 O4 2.805296 1_555
K1 O11 2.945210 1_555
K1 O11 2.971924 1_565
K1 O3 2.988088 1_555
K2 O9 2.676959 1_555
K2 O13 2.756093 1_555
K2 O5 2.853112 1_455
K2 O13 3.000720 1_565
K2 O4 3.035313 1_555
K2 O3 3.091837 1_555
K2 O11 3.127271 1_555
K3 O10 2.778440 1_655
K3 O7 2.787269 1_655
K3 O15 2.805296 1_656
K3 O0 2.945210 1_555
K3 O0 2.971924 1_545
K3 O6 2.988088 1_555
K4 O5 2.778440 1_455
K4 O8 2.787269 1_455
K4 O0 2.805296 1_454
K4 O15 2.945210 1_555
K4 O15 2.971924 1_565
K4 O9 2.988088 1_555
K5 O6 2.676959 1_555
K5 O2 2.756093 1_555
K5 O10 2.853112 1_655
K5 O2 3.000720 1_545
K5 O11 3.035313 1_555
K5 O12 3.091837 1_555
K5 O4 3.127271 1_555
K6 O14 2.778440 1_555
K6 O13 2.787269 1_555
K6 O11 2.805296 1_555
K6 O4 2.945210 1_555
K6 O4 2.971924 1_545
K6 O12 2.988088 1_555
K7 O12 2.676959 1_555
K7 O8 2.756093 1_555
K7 O14 2.853112 1_555
K7 O8 3.000720 1_545
K7 O15 3.035313 1_655
K7 O6 3.091837 1_554
K7 O0 3.127271 1_554
Li0 O10 1.993451 1_665
Li0 O2 2.022372 1_555
Li0 O0 2.059657 1_555
Li0 O3 2.146359 1_655
Li1 O2 1.951239 1_555
Li1 O6 2.011801 1_555
Li1 O0 2.089887 1_555
Li1 O1 2.149280 1_555
Li2 O14 1.993451 1_565
Li2 O8 2.022372 1_555
Li2 O4 2.059657 1_555
Li2 O9 2.146359 1_555
Li3 O6 1.921195 1_555
Li3 O1 2.007871 1_555
Li3 O14 2.080955 1_556
Li3 O7 2.081322 1_555
Li4 O3 1.921195 1_555
Li4 O10 2.007871 1_555
Li4 O5 2.080955 1_455
Li4 O2 2.081322 1_455
Li5 O7 1.951239 1_555
Li5 O3 2.011801 1_555
Li5 O11 2.089887 1_555
Li5 O10 2.149280 1_555
Li6 O8 1.951239 1_555
Li6 O12 2.011801 1_555
Li6 O4 2.089887 1_555
Li6 O5 2.149280 1_555
Li7 O12 1.921195 1_555
Li7 O5 2.007871 1_555
Li7 O10 2.080955 1_655
Li7 O13 2.081322 1_655
Li8 O9 1.921195 1_555
Li8 O14 2.007871 1_555
Li8 O1 2.080955 1_554
Li8 O8 2.081322 1_555
Li9 O1 1.993451 1_545
Li9 O7 2.022372 1_555
Li9 O11 2.059657 1_555
Li9 O6 2.146359 1_555
Li10 O13 1.951239 1_555
Li10 O9 2.011801 1_555
Li10 O15 2.089887 1_555
Li10 O14 2.149280 1_555
Li11 O5 1.993451 1_445
Li11 O13 2.022372 1_555
Li11 O15 2.059657 1_555
Li11 O12 2.146359 1_455
Cr0 O6 1.910573 1_565
Cr0 O0 1.923586 1_555
Cr0 O1 1.941084 1_555
Cr0 O8 1.945503 1_556
Cr1 O12 1.910573 1_565
Cr1 O4 1.923586 1_555
Cr1 O5 1.941084 1_555
Cr1 O2 1.945503 1_555
Cr2 O3 1.910573 1_545
Cr2 O11 1.923586 1_555
Cr2 O10 1.941084 1_555
Cr2 O13 1.945503 1_555
Cr3 O9 1.910573 1_545
Cr3 O15 1.923586 1_555
Cr3 O14 1.941084 1_555
Cr3 O7 1.945503 1_554
