# generated using pymatgen
data_NiSn(PO4)2
_symmetry_space_group_name_H-M   'P 1'
_cell_length_a   4.93795698
_cell_length_b   11.65331578
_cell_length_c   11.65268295
_cell_angle_alpha   118.58075487
_cell_angle_beta   90.30968742
_cell_angle_gamma   89.69520131
_symmetry_Int_Tables_number   1
_chemical_formula_structural   NiSn(PO4)2
_chemical_formula_sum   'Ni4 Sn4 P8 O32'
_cell_volume   588.81639655
_cell_formula_units_Z   4
loop_
 _symmetry_equiv_pos_site_id
 _symmetry_equiv_pos_as_xyz
  1  'x, y, z'
loop_
 _atom_site_type_symbol
 _atom_site_label
 _atom_site_symmetry_multiplicity
 _atom_site_fract_x
 _atom_site_fract_y
 _atom_site_fract_z
 _atom_site_occupancy
  Ni  Ni0  1  0.44027200  0.98738900  0.76286900  1
  Ni  Ni1  1  0.56005500  0.01285600  0.23755900  1
  Ni  Ni2  1  0.43902500  0.48699800  0.26255200  1
  Ni  Ni3  1  0.56010100  0.51292300  0.73727600  1
  Sn  Sn0  1  0.95190600  0.26269200  0.98732200  1
  Sn  Sn1  1  0.95195400  0.76269400  0.48731300  1
  Sn  Sn2  1  0.04804400  0.73731900  0.01268300  1
  Sn  Sn3  1  0.04811600  0.23732200  0.51268400  1
  P  P0  1  0.39038500  0.16996400  0.07983100  1
  P  P1  1  0.39039000  0.67010300  0.57983500  1
  P  P2  1  0.60964700  0.83000700  0.92025400  1
  P  P3  1  0.60967400  0.32997700  0.42012700  1
  P  P4  1  0.90167300  0.57768200  0.17225400  1
  P  P5  1  0.90203900  0.07771900  0.67224300  1
  P  P6  1  0.09804500  0.42228600  0.82767000  1
  P  P7  1  0.09820100  0.92224100  0.32776000  1
  O  O0  1  0.65973500  0.40381800  0.34622400  1
  O  O1  1  0.66004800  0.90392300  0.84641700  1
  O  O2  1  0.33997900  0.59617600  0.65365500  1
  O  O3  1  0.34019800  0.09610800  0.15370800  1
  O  O4  1  0.69755400  0.18398600  0.06596300  1
  O  O5  1  0.69762500  0.68399400  0.56598000  1
  O  O6  1  0.30244600  0.81602500  0.93404100  1
  O  O7  1  0.30247000  0.31595300  0.43399300  1
  O  O8  1  0.20453600  0.56832300  0.18154900  1
  O  O9  1  0.20490000  0.06846400  0.68163200  1
  O  O10  1  0.79524700  0.43160900  0.81828000  1
  O  O11  1  0.79537200  0.93160700  0.31851200  1
  O  O12  1  0.17872900  0.34737700  0.90267200  1
  O  O13  1  0.17905600  0.84736700  0.40274300  1
  O  O14  1  0.82110400  0.65258700  0.09726300  1
  O  O15  1  0.82120400  0.15261800  0.59726700  1
  O  O16  1  0.24212400  0.10794200  0.94101300  1
  O  O17  1  0.24204000  0.60801800  0.44103400  1
  O  O18  1  0.24191500  0.30872800  0.14194100  1
  O  O19  1  0.24227900  0.80890700  0.64192800  1
  O  O20  1  0.75787400  0.69117200  0.85804300  1
  O  O21  1  0.75800400  0.19116800  0.35803700  1
  O  O22  1  0.75788400  0.89199400  0.05903900  1
  O  O23  1  0.75798700  0.39204300  0.55891000  1
  O  O24  1  0.75341800  0.64446800  0.30960500  1
  O  O25  1  0.75357700  0.14447900  0.80958500  1
  O  O26  1  0.75338400  0.44032000  0.10551900  1
  O  O27  1  0.75371700  0.94038700  0.60554200  1
  O  O28  1  0.24652400  0.35552300  0.69037000  1
  O  O29  1  0.24652700  0.85549200  0.19041100  1
  O  O30  1  0.24643600  0.55964000  0.89442700  1
  O  O31  1  0.24658000  0.05961200  0.39446300  1
loop_
_geom_bond_atom_site_label_1
_geom_bond_atom_site_label_2
_geom_bond_distance
_geom_bond_site_symmetry_2
Ni0 O1 1.988719 1_555
Ni0 O9 1.992920 1_565
Ni0 O16 2.111208 1_565
Ni0 O19 2.114276 1_555
Ni0 O25 2.260207 1_565
Ni0 O27 2.262177 1_555
Ni1 O3 1.989685 1_555
Ni1 O11 1.991868 1_545
Ni1 O21 2.111814 1_555
Ni1 O22 2.114095 1_545
Ni1 O31 2.259267 1_555
Ni1 O29 2.262441 1_545
Ni2 O0 1.989859 1_555
Ni2 O8 1.990534 1_555
Ni2 O18 2.109863 1_555
Ni2 O17 2.112226 1_555
Ni2 O26 2.263457 1_555
Ni2 O24 2.266405 1_555
Ni3 O2 1.988469 1_555
Ni3 O10 1.992325 1_555
Ni3 O20 2.111568 1_555
Ni3 O23 2.113068 1_555
Ni3 O30 2.261989 1_555
Ni3 O28 2.263321 1_555
O0 P3 1.502246 1_555
O1 P2 1.502622 1_555
O2 P1 1.502571 1_555
O3 P0 1.502243 1_555
O4 P0 1.544024 1_555
O4 Sn0 2.021716 1_554
O5 P1 1.544075 1_555
O5 Sn1 2.021802 1_555
O6 P2 1.543953 1_555
O6 Sn2 2.021879 1_556
O7 P3 1.544194 1_555
O7 Sn3 2.021526 1_555
O8 P4 1.506000 1_455
O9 P5 1.505978 1_455
O10 P6 1.505751 1_655
O11 P7 1.505786 1_655
O12 P6 1.551478 1_555
O12 Sn0 2.038739 1_455
O13 P7 1.551167 1_555
O13 Sn1 2.038734 1_455
O14 P4 1.551191 1_555
O14 Sn2 2.038867 1_655
O15 P5 1.551317 1_555
O15 Sn3 2.038581 1_655
O16 P0 1.596622 1_556
O16 Sn0 2.155638 1_455
O17 P1 1.596644 1_555
O17 Sn1 2.154643 1_455
O18 P0 1.596726 1_555
O18 Sn0 2.154126 1_454
O19 P1 1.596293 1_555
O19 Sn1 2.154823 1_455
O20 P2 1.596802 1_555
O20 Sn2 2.154637 1_656
O21 P3 1.596833 1_555
O21 Sn3 2.154493 1_655
O22 P2 1.596275 1_554
O22 Sn2 2.154745 1_655
O23 P3 1.596400 1_555
O23 Sn3 2.155248 1_655
O24 P4 1.586840 1_555
O24 Sn1 2.100018 1_555
O25 P5 1.587232 1_555
O25 Sn0 2.099741 1_555
O26 P4 1.586988 1_555
O26 Sn0 2.099497 1_554
O27 P5 1.586790 1_565
O27 Sn1 2.099420 1_555
O28 P6 1.586891 1_555
O28 Sn3 2.099498 1_555
O29 P7 1.586982 1_555
O29 Sn2 2.099937 1_555
O30 P6 1.587151 1_555
O30 Sn2 2.099725 1_556
O31 P7 1.587274 1_545
O31 Sn3 2.100056 1_555
