# generated using pymatgen
data_EuY2O4
_symmetry_space_group_name_H-M   'P 1'
_cell_length_a   6.88307196
_cell_length_b   6.88307340
_cell_length_c   6.88307124
_cell_angle_alpha   59.99999653
_cell_angle_beta   59.99998960
_cell_angle_gamma   59.99998613
_symmetry_Int_Tables_number   1
_chemical_formula_structural   EuY2O4
_chemical_formula_sum   'Eu2 Y4 O8'
_cell_volume   230.58544325
_cell_formula_units_Z   2
loop_
 _symmetry_equiv_pos_site_id
 _symmetry_equiv_pos_as_xyz
  1  'x, y, z'
loop_
 _atom_site_type_symbol
 _atom_site_label
 _atom_site_symmetry_multiplicity
 _atom_site_fract_x
 _atom_site_fract_y
 _atom_site_fract_z
 _atom_site_occupancy
  Eu  Eu0  1  0.75000000  0.75000000  0.75000000  1
  Eu  Eu1  1  0.50000000  0.50000000  0.50000000  1
  Y  Y0  1  0.12500000  0.12500000  0.62500000  1
  Y  Y1  1  0.12500000  0.62500000  0.12500000  1
  Y  Y2  1  0.62500000  0.12500000  0.12500000  1
  Y  Y3  1  0.12500000  0.12500000  0.12500000  1
  O  O0  1  0.89090139  0.89090139  0.89090139  1
  O  O1  1  0.89090139  0.32729582  0.89090139  1
  O  O2  1  0.32729582  0.89090139  0.89090139  1
  O  O3  1  0.35909861  0.35909861  0.92270418  1
  O  O4  1  0.89090139  0.89090139  0.32729582  1
  O  O5  1  0.92270418  0.35909861  0.35909861  1
  O  O6  1  0.35909861  0.92270418  0.35909861  1
  O  O7  1  0.35909861  0.35909861  0.35909861  1
loop_
_geom_bond_atom_site_label_1
_geom_bond_atom_site_label_2
_geom_bond_distance
_geom_bond_site_symmetry_2
Eu0 O4 2.375599 1_555
Eu0 O2 2.375599 1_555
Eu0 O0 2.375600 1_555
Eu0 O1 2.375600 1_555
Eu1 O3 2.375599 1_555
Eu1 O5 2.375599 1_555
Eu1 O7 2.375600 1_555
Eu1 O6 2.375600 1_555
O0 Y2 2.289237 1_566
O0 Y1 2.289237 1_656
O0 Y0 2.289237 1_665
O1 Y0 2.289237 1_655
O1 Y3 2.289237 1_656
O1 Y2 2.289237 1_556
O2 Y0 2.289237 1_565
O2 Y3 2.289237 1_566
O2 Y1 2.289237 1_556
O3 Y2 2.289237 1_556
O3 Y1 2.289237 1_556
O3 Y3 2.289237 1_556
O4 Y2 2.289237 1_565
O4 Y1 2.289237 1_655
O4 Y3 2.289237 1_665
O5 Y0 2.289237 1_655
O5 Y3 2.289237 1_655
O5 Y1 2.289237 1_655
O6 Y0 2.289237 1_565
O6 Y3 2.289237 1_565
O6 Y2 2.289237 1_565
O7 Y2 2.289237 1_555
O7 Y1 2.289237 1_555
O7 Y0 2.289237 1_555
