# generated using pymatgen
data_NaH3(CO2)2
_symmetry_space_group_name_H-M   'P 1'
_cell_length_a   9.16149800
_cell_length_b   9.43160161
_cell_length_c   9.72465022
_cell_angle_alpha   83.23565371
_cell_angle_beta   111.57869400
_cell_angle_gamma   109.82031941
_symmetry_Int_Tables_number   1
_chemical_formula_structural   NaH3(CO2)2
_chemical_formula_sum   'Na6 H18 C12 O24'
_cell_volume   735.07885097
_cell_formula_units_Z   6
loop_
 _symmetry_equiv_pos_site_id
 _symmetry_equiv_pos_as_xyz
  1  'x, y, z'
loop_
 _atom_site_type_symbol
 _atom_site_label
 _atom_site_symmetry_multiplicity
 _atom_site_fract_x
 _atom_site_fract_y
 _atom_site_fract_z
 _atom_site_occupancy
  Na  Na0  1  0.67192900  0.65870200  0.80267500  1
  Na  Na1  1  0.32807100  0.34129800  0.19732500  1
  Na  Na2  1  0.30755400  0.54220000  0.47563000  1
  Na  Na3  1  0.69244600  0.45780000  0.52437000  1
  Na  Na4  1  0.69687600  0.06648300  0.64981500  1
  Na  Na5  1  0.30312400  0.93351700  0.35018500  1
  H  H0  1  0.70656000  0.77809900  0.38368800  1
  H  H1  1  0.29344000  0.22190100  0.61631200  1
  H  H2  1  0.45639100  0.79996800  0.95025500  1
  H  H3  1  0.54360900  0.20003200  0.04974500  1
  H  H4  1  0.39345500  0.01469900  0.71191200  1
  H  H5  1  0.60654500  0.98530100  0.28808800  1
  H  H6  1  0.15866800  0.01405400  0.90156500  1
  H  H7  1  0.84133200  0.98594600  0.09843500  1
  H  H8  1  0.15132600  0.59708000  0.00394900  1
  H  H9  1  0.84867400  0.40292000  0.99605100  1
  H  H10  1  0.06252800  0.79891500  0.00398600  1
  H  H11  1  0.93747200  0.20108500  0.99601400  1
  H  H12  1  0.15659100  0.37375900  0.76593900  1
  H  H13  1  0.84340900  0.62624100  0.23406100  1
  H  H14  1  0.06618500  0.82786400  0.56885300  1
  H  H15  1  0.93381500  0.17213600  0.43114700  1
  H  H16  1  0.50000000  0.50000000  0.00000000  1
  H  H17  1  0.00000000  0.50000000  0.50000000  1
  C  C0  1  0.63064600  0.78333300  0.44853600  1
  C  C1  1  0.36935400  0.21666700  0.55146400  1
  C  C2  1  0.47782500  0.87326600  0.85747100  1
  C  C3  1  0.52217500  0.12673400  0.14252900  1
  C  C4  1  0.02680000  0.95120300  0.84249000  1
  C  C5  1  0.97320000  0.04879700  0.15751000  1
  C  C6  1  0.19778300  0.63950500  0.11955700  1
  C  C7  1  0.80221700  0.36049500  0.88044300  1
  C  C8  1  0.29140200  0.43457200  0.81414900  1
  C  C9  1  0.70859800  0.56542800  0.18585100  1
  C  C10  1  0.08650700  0.72818300  0.53875600  1
  C  C11  1  0.91349300  0.27181700  0.46124400  1
  O  O0  1  0.60643900  0.67999900  0.53994400  1
  O  O1  1  0.39356100  0.32000100  0.46005600  1
  O  O2  1  0.57582400  0.89586300  0.42197000  1
  O  O3  1  0.42417600  0.10413700  0.57803000  1
  O  O4  1  0.58581600  0.87495400  0.80902000  1
  O  O5  1  0.41418400  0.12504600  0.19098000  1
  O  O6  1  0.37786300  0.95501800  0.80774500  1
  O  O7  1  0.62213700  0.04498200  0.19225500  1
  O  O8  1  0.94304100  0.99880800  0.72810900  1
  O  O9  1  0.05695900  0.00119200  0.27189100  1
  O  O10  1  0.96835900  0.82259100  0.90412900  1
  O  O11  1  0.03164100  0.17740900  0.09587100  1
  O  O12  1  0.26984900  0.56648300  0.22199000  1
  O  O13  1  0.73015100  0.43351700  0.77801000  1
  O  O14  1  0.17137200  0.76157800  0.13388700  1
  O  O15  1  0.82862800  0.23842200  0.86611300  1
  O  O16  1  0.37195700  0.50661700  0.73513800  1
  O  O17  1  0.62804300  0.49338300  0.26486200  1
  O  O18  1  0.35368400  0.42300400  0.95694700  1
  O  O19  1  0.64631600  0.57699600  0.04305300  1
  O  O20  1  0.20483100  0.74189000  0.49863900  1
  O  O21  1  0.79516900  0.25811000  0.50136100  1
  O  O22  1  0.97721100  0.60080400  0.54922700  1
  O  O23  1  0.02278900  0.39919600  0.45077300  1
loop_
_geom_bond_atom_site_label_1
_geom_bond_atom_site_label_2
_geom_bond_distance
_geom_bond_site_symmetry_2
Na0 O0 2.400302 1_555
Na0 O13 2.415609 1_555
Na0 O4 2.437793 1_555
Na0 O19 2.443305 1_556
Na0 O16 2.502492 1_555
Na0 O10 2.505923 1_555
Na1 O1 2.400302 1_555
Na1 O12 2.415609 1_555
Na1 O5 2.437793 1_555
Na1 O18 2.443305 1_554
Na1 O17 2.502492 1_555
Na1 O11 2.505923 1_555
Na2 O12 2.355749 1_555
Na2 O16 2.380958 1_555
Na2 O23 2.431158 1_555
Na2 O20 2.437018 1_555
Na2 O0 2.469137 1_555
Na2 O1 2.513584 1_555
Na3 O13 2.355749 1_555
Na3 O17 2.380958 1_555
Na3 O22 2.431158 1_555
Na3 O21 2.437018 1_555
Na3 O1 2.469137 1_555
Na3 O0 2.513584 1_555
Na4 O21 2.323680 1_555
Na4 O8 2.381572 1_545
Na4 O4 2.439024 1_545
Na4 O3 2.472970 1_555
Na4 O15 2.473810 1_555
Na4 O2 2.559518 1_545
Na5 O20 2.323680 1_555
Na5 O9 2.381572 1_565
Na5 O5 2.439024 1_565
Na5 O2 2.472970 1_555
Na5 O14 2.473810 1_555
Na5 O3 2.559518 1_565
H4 O6 1.060934 1_545
H4 O3 1.528294 1_555
H5 O7 1.060934 1_565
H5 O2 1.528294 1_555
H10 O10 1.095665 1_454
H10 O14 1.385973 1_555
H11 O11 1.095665 1_656
H11 O15 1.385973 1_555
H16 O18 1.224008 1_554
H16 O19 1.224008 1_555
H17 O22 1.221480 1_455
H17 O23 1.221480 1_555
C0 H0 1.112227 1_555
C0 O0 1.258390 1_555
C0 O2 1.283314 1_555
C1 H1 1.112227 1_555
C1 O1 1.258390 1_555
C1 O3 1.283314 1_555
C2 H2 1.105412 1_555
C2 O4 1.237546 1_555
C2 O6 1.316181 1_555
C3 H3 1.105412 1_555
C3 O5 1.237546 1_555
C3 O7 1.316181 1_555
C4 H6 1.106805 1_565
C4 O8 1.231195 1_455
C4 O10 1.319745 1_455
C5 H7 1.106805 1_545
C5 O9 1.231195 1_655
C5 O11 1.319745 1_655
C6 H8 1.115217 1_555
C6 O12 1.251195 1_555
C6 O14 1.286498 1_555
C7 H9 1.115217 1_555
C7 O13 1.251195 1_555
C7 O15 1.286498 1_555
C8 H12 1.109601 1_555
C8 O16 1.245301 1_555
C8 O18 1.299830 1_555
C9 H13 1.109601 1_555
C9 O17 1.245301 1_555
C9 O19 1.299830 1_555
C10 H14 1.108068 1_555
C10 O20 1.244256 1_555
C10 O22 1.298741 1_455
C11 H15 1.108068 1_555
C11 O21 1.244256 1_555
C11 O23 1.298741 1_655
