# generated using pymatgen
data_Li2Cr3(NiO6)2
_symmetry_space_group_name_H-M   'P 1'
_cell_length_a   9.09328400
_cell_length_b   9.10285500
_cell_length_c   12.57156100
_cell_angle_alpha   90.00000000
_cell_angle_beta   90.00000000
_cell_angle_gamma   90.00000000
_symmetry_Int_Tables_number   1
_chemical_formula_structural   Li2Cr3(NiO6)2
_chemical_formula_sum   'Li8 Cr12 Ni8 O48'
_cell_volume   1040.60902231
_cell_formula_units_Z   4
loop_
 _symmetry_equiv_pos_site_id
 _symmetry_equiv_pos_as_xyz
  1  'x, y, z'
loop_
 _atom_site_type_symbol
 _atom_site_label
 _atom_site_symmetry_multiplicity
 _atom_site_fract_x
 _atom_site_fract_y
 _atom_site_fract_z
 _atom_site_occupancy
  Li  Li0  1  0.27164500  0.22029600  0.18712700  1
  Li  Li1  1  0.77164500  0.77970400  0.18712700  1
  Li  Li2  1  0.77164500  0.27970400  0.31287300  1
  Li  Li3  1  0.27164500  0.72029600  0.31287300  1
  Li  Li4  1  0.72835500  0.27970400  0.68712700  1
  Li  Li5  1  0.22835500  0.72029600  0.68712700  1
  Li  Li6  1  0.22835500  0.22029600  0.81287300  1
  Li  Li7  1  0.72835500  0.77970400  0.81287300  1
  Cr  Cr0  1  0.25000000  0.46229200  0.00000000  1
  Cr  Cr1  1  0.75000000  0.53770800  0.00000000  1
  Cr  Cr2  1  0.60561800  0.10069500  0.14350800  1
  Cr  Cr3  1  0.10561800  0.89930500  0.14350800  1
  Cr  Cr4  1  0.10561800  0.39930500  0.35649200  1
  Cr  Cr5  1  0.60561800  0.60069500  0.35649200  1
  Cr  Cr6  1  0.75000000  0.03770800  0.50000000  1
  Cr  Cr7  1  0.25000000  0.96229200  0.50000000  1
  Cr  Cr8  1  0.39438200  0.39930500  0.64350800  1
  Cr  Cr9  1  0.89438200  0.60069500  0.64350800  1
  Cr  Cr10  1  0.89438200  0.10069500  0.85649200  1
  Cr  Cr11  1  0.39438200  0.89930500  0.85649200  1
  Ni  Ni0  1  0.96754400  0.25283000  0.11903200  1
  Ni  Ni1  1  0.46754400  0.74717000  0.11903200  1
  Ni  Ni2  1  0.46754400  0.24717000  0.38096800  1
  Ni  Ni3  1  0.96754400  0.75283000  0.38096800  1
  Ni  Ni4  1  0.03245600  0.24717000  0.61903200  1
  Ni  Ni5  1  0.53245600  0.75283000  0.61903200  1
  Ni  Ni6  1  0.53245600  0.25283000  0.88096800  1
  Ni  Ni7  1  0.03245600  0.74717000  0.88096800  1
  O  O0  1  0.56722200  0.14365000  0.02036500  1
  O  O1  1  0.06722200  0.85635000  0.02036500  1
  O  O2  1  0.36834700  0.56432500  0.06488000  1
  O  O3  1  0.86834700  0.43567500  0.06488000  1
  O  O4  1  0.16448100  0.35338500  0.08874900  1
  O  O5  1  0.66448100  0.64661500  0.08874900  1
  O  O6  1  0.10675900  0.08219300  0.16032400  1
  O  O7  1  0.60675900  0.91780700  0.16032400  1
  O  O8  1  0.77050400  0.16682900  0.17566000  1
  O  O9  1  0.27050400  0.83317100  0.17566000  1
  O  O10  1  0.47644600  0.17266500  0.22283900  1
  O  O11  1  0.97644600  0.82733500  0.22283900  1
  O  O12  1  0.97644600  0.32733500  0.27716100  1
  O  O13  1  0.47644600  0.67266500  0.27716100  1
  O  O14  1  0.77050400  0.66682900  0.32434000  1
  O  O15  1  0.27050400  0.33317100  0.32434000  1
  O  O16  1  0.60675900  0.41780700  0.33967600  1
  O  O17  1  0.10675900  0.58219300  0.33967600  1
  O  O18  1  0.66448100  0.14661500  0.41125100  1
  O  O19  1  0.16448100  0.85338500  0.41125100  1
  O  O20  1  0.36834700  0.06432500  0.43512000  1
  O  O21  1  0.86834700  0.93567500  0.43512000  1
  O  O22  1  0.56722200  0.64365000  0.47963500  1
  O  O23  1  0.06722200  0.35635000  0.47963500  1
  O  O24  1  0.43277800  0.35635000  0.52036500  1
  O  O25  1  0.93277800  0.64365000  0.52036500  1
  O  O26  1  0.13165300  0.06432500  0.56488000  1
  O  O27  1  0.63165300  0.93567500  0.56488000  1
  O  O28  1  0.83551900  0.14661500  0.58874900  1
  O  O29  1  0.33551900  0.85338500  0.58874900  1
  O  O30  1  0.89324100  0.41780700  0.66032400  1
  O  O31  1  0.39324100  0.58219300  0.66032400  1
  O  O32  1  0.22949600  0.33317100  0.67566000  1
  O  O33  1  0.72949600  0.66682900  0.67566000  1
  O  O34  1  0.52355400  0.32733500  0.72283900  1
  O  O35  1  0.02355400  0.67266500  0.72283900  1
  O  O36  1  0.02355400  0.17266500  0.77716100  1
  O  O37  1  0.52355400  0.82733500  0.77716100  1
  O  O38  1  0.72949600  0.16682900  0.82434000  1
  O  O39  1  0.22949600  0.83317100  0.82434000  1
  O  O40  1  0.39324100  0.08219300  0.83967600  1
  O  O41  1  0.89324100  0.91780700  0.83967600  1
  O  O42  1  0.33551900  0.35338500  0.91125100  1
  O  O43  1  0.83551900  0.64661500  0.91125100  1
  O  O44  1  0.63165300  0.43567500  0.93512000  1
  O  O45  1  0.13165300  0.56432500  0.93512000  1
  O  O46  1  0.93277800  0.14365000  0.97963500  1
  O  O47  1  0.43277800  0.85635000  0.97963500  1
loop_
_geom_bond_atom_site_label_1
_geom_bond_atom_site_label_2
_geom_bond_distance
_geom_bond_site_symmetry_2
Li0 O10 1.964119 1_555
Li0 O6 1.985443 1_555
Li0 O4 1.986679 1_555
Li0 O15 2.007833 1_555
Li1 O11 1.964119 1_555
Li1 O7 1.985443 1_555
Li1 O5 1.986679 1_555
Li1 O14 2.007833 1_555
Li2 O12 1.964119 1_555
Li2 O16 1.985443 1_555
Li2 O18 1.986679 1_555
Li2 O8 2.007833 1_555
Li3 O13 1.964119 1_555
Li3 O17 1.985443 1_555
Li3 O19 1.986679 1_555
Li3 O9 2.007833 1_555
Li4 O34 1.964119 1_555
Li4 O30 1.985443 1_555
Li4 O28 1.986679 1_555
Li4 O38 2.007833 1_555
Li5 O35 1.964119 1_555
Li5 O31 1.985443 1_555
Li5 O29 1.986679 1_555
Li5 O39 2.007833 1_555
Li6 O36 1.964119 1_555
Li6 O40 1.985443 1_555
Li6 O42 1.986679 1_555
Li6 O32 2.007833 1_555
Li7 O37 1.964119 1_555
Li7 O41 1.985443 1_555
Li7 O43 1.986679 1_555
Li7 O33 2.007833 1_555
Cr0 O45 1.638918 1_554
Cr0 O2 1.638918 1_555
Cr0 O4 1.682961 1_555
Cr0 O42 1.682961 1_554
Cr1 O44 1.638918 1_554
Cr1 O3 1.638918 1_555
Cr1 O5 1.682961 1_555
Cr1 O43 1.682961 1_554
Cr2 O0 1.634444 1_555
Cr2 O8 1.665490 1_555
Cr2 O10 1.674370 1_555
Cr2 O7 1.678204 1_545
Cr3 O1 1.634444 1_555
Cr3 O9 1.665490 1_555
Cr3 O11 1.674370 1_455
Cr3 O6 1.678204 1_565
Cr4 O23 1.634444 1_555
Cr4 O15 1.665490 1_555
Cr4 O12 1.674370 1_455
Cr4 O17 1.678204 1_555
Cr5 O22 1.634444 1_555
Cr5 O14 1.665490 1_555
Cr5 O13 1.674370 1_555
Cr5 O16 1.678204 1_555
Cr6 O21 1.638918 1_545
Cr6 O27 1.638918 1_545
Cr6 O28 1.682961 1_555
Cr6 O18 1.682961 1_555
Cr7 O20 1.638918 1_565
Cr7 O26 1.638918 1_565
Cr7 O29 1.682961 1_555
Cr7 O19 1.682961 1_555
Cr8 O24 1.634444 1_555
Cr8 O32 1.665490 1_555
Cr8 O34 1.674370 1_555
Cr8 O31 1.678204 1_555
Cr9 O25 1.634444 1_555
Cr9 O33 1.665490 1_555
Cr9 O35 1.674370 1_655
Cr9 O30 1.678204 1_555
Cr10 O46 1.634444 1_555
Cr10 O38 1.665490 1_555
Cr10 O36 1.674370 1_655
Cr10 O41 1.678204 1_545
Cr11 O47 1.634444 1_555
Cr11 O39 1.665490 1_555
Cr11 O37 1.674370 1_555
Cr11 O40 1.678204 1_565
Ni0 O3 2.011808 1_555
Ni0 O46 2.039294 1_554
Ni0 O4 2.046890 1_655
Ni0 O6 2.069956 1_655
Ni0 O8 2.080865 1_555
Ni0 O12 2.101994 1_555
Ni1 O2 2.011808 1_555
Ni1 O47 2.039294 1_554
Ni1 O5 2.046890 1_555
Ni1 O7 2.069956 1_555
Ni1 O9 2.080865 1_555
Ni1 O13 2.101994 1_555
Ni2 O20 2.011808 1_555
Ni2 O24 2.039294 1_555
Ni2 O18 2.046890 1_555
Ni2 O16 2.069956 1_555
Ni2 O15 2.080865 1_555
Ni2 O10 2.101994 1_555
Ni3 O21 2.011808 1_555
Ni3 O25 2.039294 1_555
Ni3 O19 2.046890 1_655
Ni3 O17 2.069956 1_655
Ni3 O14 2.080865 1_555
Ni3 O11 2.101994 1_555
Ni4 O26 2.011808 1_555
Ni4 O23 2.039294 1_555
Ni4 O28 2.046890 1_455
Ni4 O30 2.069956 1_455
Ni4 O32 2.080865 1_555
Ni4 O36 2.101994 1_555
Ni5 O27 2.011808 1_555
Ni5 O22 2.039294 1_555
Ni5 O29 2.046890 1_555
Ni5 O31 2.069956 1_555
Ni5 O33 2.080865 1_555
Ni5 O37 2.101994 1_555
Ni6 O44 2.011808 1_555
Ni6 O0 2.039294 1_556
Ni6 O42 2.046890 1_555
Ni6 O40 2.069956 1_555
Ni6 O38 2.080865 1_555
Ni6 O34 2.101994 1_555
Ni7 O45 2.011808 1_555
Ni7 O1 2.039294 1_556
Ni7 O43 2.046890 1_455
Ni7 O41 2.069956 1_455
Ni7 O39 2.080865 1_555
Ni7 O35 2.101994 1_555
