# generated using pymatgen
data_Ba5La2Cl16
_symmetry_space_group_name_H-M   'P 1'
_cell_length_a   9.56317265
_cell_length_b   9.56317265
_cell_length_c   19.33272000
_cell_angle_alpha   90.00000000
_cell_angle_beta   90.00000000
_cell_angle_gamma   115.46742040
_symmetry_Int_Tables_number   1
_chemical_formula_structural   Ba5La2Cl16
_chemical_formula_sum   'Ba10 La4 Cl32'
_cell_volume   1596.25733303
_cell_formula_units_Z   2
loop_
 _symmetry_equiv_pos_site_id
 _symmetry_equiv_pos_as_xyz
  1  'x, y, z'
loop_
 _atom_site_type_symbol
 _atom_site_label
 _atom_site_symmetry_multiplicity
 _atom_site_fract_x
 _atom_site_fract_y
 _atom_site_fract_z
 _atom_site_occupancy
  Ba  Ba0  1  0.00000000  0.50000000  0.13340700  1
  Ba  Ba1  1  0.00000000  0.50000000  0.63340700  1
  Ba  Ba2  1  0.50000000  0.50000000  0.22354900  1
  Ba  Ba3  1  0.50000000  0.50000000  0.77645100  1
  Ba  Ba4  1  0.00000000  0.00000000  0.27645100  1
  Ba  Ba5  1  0.00000000  0.00000000  0.00000000  1
  Ba  Ba6  1  0.50000000  0.50000000  0.50000000  1
  Ba  Ba7  1  0.00000000  0.00000000  0.72354900  1
  Ba  Ba8  1  0.50000000  0.00000000  0.86659300  1
  Ba  Ba9  1  0.50000000  0.00000000  0.36659300  1
  La  La0  1  0.00000000  0.50000000  0.88208300  1
  La  La1  1  0.00000000  0.50000000  0.38208300  1
  La  La2  1  0.50000000  0.00000000  0.11791700  1
  La  La3  1  0.50000000  0.00000000  0.61791700  1
  Cl  Cl0  1  0.97160600  0.30107800  0.77429400  1
  Cl  Cl1  1  0.80107800  0.47160600  0.27429400  1
  Cl  Cl2  1  0.82764400  0.51888700  0.49258300  1
  Cl  Cl3  1  0.01888700  0.32764400  0.99258300  1
  Cl  Cl4  1  0.37772400  0.27415400  0.34948600  1
  Cl  Cl5  1  0.27415400  0.37772400  0.65051400  1
  Cl  Cl6  1  0.77415400  0.87772400  0.84948600  1
  Cl  Cl7  1  0.87772400  0.77415400  0.15051400  1
  Cl  Cl8  1  0.98111300  0.67235600  0.99258300  1
  Cl  Cl9  1  0.17235600  0.48111300  0.49258300  1
  Cl  Cl10  1  0.02839400  0.69892200  0.77429400  1
  Cl  Cl11  1  0.19892200  0.52839400  0.27429400  1
  Cl  Cl12  1  0.62914200  0.32588300  0.11496300  1
  Cl  Cl13  1  0.12914200  0.82588300  0.38503700  1
  Cl  Cl14  1  0.32588300  0.62914200  0.88503700  1
  Cl  Cl15  1  0.82588300  0.12914200  0.61496300  1
  Cl  Cl16  1  0.67411700  0.37085800  0.88503700  1
  Cl  Cl17  1  0.37085800  0.67411700  0.11496300  1
  Cl  Cl18  1  0.87085800  0.17411700  0.38503700  1
  Cl  Cl19  1  0.17411700  0.87085800  0.61496300  1
  Cl  Cl20  1  0.47160600  0.80107800  0.72570600  1
  Cl  Cl21  1  0.30107800  0.97160600  0.22570600  1
  Cl  Cl22  1  0.51888700  0.82764400  0.50741700  1
  Cl  Cl23  1  0.32764400  0.01888700  0.00741700  1
  Cl  Cl24  1  0.72584600  0.62227600  0.65051400  1
  Cl  Cl25  1  0.62227600  0.72584600  0.34948600  1
  Cl  Cl26  1  0.12227600  0.22584600  0.15051400  1
  Cl  Cl27  1  0.22584600  0.12227600  0.84948600  1
  Cl  Cl28  1  0.48111300  0.17235600  0.50741700  1
  Cl  Cl29  1  0.67235600  0.98111300  0.00741700  1
  Cl  Cl30  1  0.69892200  0.02839400  0.22570600  1
  Cl  Cl31  1  0.52839400  0.19892200  0.72570600  1
loop_
_geom_bond_atom_site_label_1
_geom_bond_atom_site_label_2
_geom_bond_distance
_geom_bond_site_symmetry_2
Ba0 Cl17 3.224795 1_555
Ba0 Cl12 3.224795 1_455
Ba0 Cl8 3.227617 1_454
Ba0 Cl3 3.227617 1_554
Ba0 Cl11 3.266044 1_555
Ba0 Cl1 3.266044 1_455
Ba0 Cl26 3.314671 1_555
Ba0 Cl7 3.314671 1_455
Ba1 Cl15 3.224795 1_455
Ba1 Cl19 3.224795 1_555
Ba1 Cl2 3.227617 1_455
Ba1 Cl9 3.227617 1_555
Ba1 Cl0 3.266044 1_455
Ba1 Cl10 3.266044 1_555
Ba1 Cl5 3.314671 1_555
Ba1 Cl24 3.314671 1_455
Ba2 Cl4 3.128569 1_555
Ba2 Cl25 3.128569 1_555
Ba2 Cl1 3.162069 1_555
Ba2 Cl11 3.162069 1_555
Ba2 Cl17 3.236241 1_555
Ba2 Cl12 3.236241 1_555
Ba2 Cl26 3.710939 1_555
Ba2 Cl7 3.710939 1_555
Ba3 Cl5 3.128569 1_555
Ba3 Cl24 3.128569 1_555
Ba3 Cl20 3.162069 1_555
Ba3 Cl31 3.162069 1_555
Ba3 Cl16 3.236241 1_555
Ba3 Cl14 3.236241 1_555
Ba3 Cl6 3.710939 1_555
Ba3 Cl27 3.710939 1_555
Ba4 Cl26 3.128569 1_555
Ba4 Cl7 3.128569 1_445
Ba4 Cl30 3.162069 1_455
Ba4 Cl21 3.162069 1_545
Ba4 Cl13 3.236241 1_545
Ba4 Cl18 3.236241 1_455
Ba4 Cl25 3.710939 1_445
Ba4 Cl4 3.710939 1_555
Ba5 Cl3 3.063356 1_554
Ba5 Cl23 3.063356 1_555
Ba5 Cl8 3.063356 1_444
Ba5 Cl29 3.063356 1_445
Ba5 Cl26 3.511033 1_555
Ba5 Cl7 3.511033 1_445
Ba5 Cl6 3.511033 1_444
Ba5 Cl27 3.511033 1_554
Ba6 Cl9 3.063356 1_555
Ba6 Cl28 3.063356 1_555
Ba6 Cl22 3.063356 1_555
Ba6 Cl2 3.063356 1_555
Ba6 Cl25 3.511033 1_555
Ba6 Cl4 3.511033 1_555
Ba6 Cl5 3.511033 1_555
Ba6 Cl24 3.511033 1_555
Ba7 Cl27 3.128569 1_555
Ba7 Cl6 3.128569 1_445
Ba7 Cl10 3.162069 1_545
Ba7 Cl0 3.162069 1_455
Ba7 Cl19 3.236241 1_545
Ba7 Cl15 3.236241 1_455
Ba7 Cl24 3.710939 1_445
Ba7 Cl5 3.710939 1_555
Ba8 Cl16 3.224795 1_555
Ba8 Cl14 3.224795 1_545
Ba8 Cl29 3.227617 1_546
Ba8 Cl23 3.227617 1_556
Ba8 Cl31 3.266044 1_555
Ba8 Cl20 3.266044 1_545
Ba8 Cl27 3.314671 1_555
Ba8 Cl6 3.314671 1_545
Ba9 Cl13 3.224795 1_545
Ba9 Cl18 3.224795 1_555
Ba9 Cl22 3.227617 1_545
Ba9 Cl28 3.227617 1_555
Ba9 Cl21 3.266044 1_545
Ba9 Cl30 3.266044 1_555
Ba9 Cl4 3.314671 1_555
Ba9 Cl25 3.314671 1_545
Cl0 La0 2.755139 1_655
Cl1 La1 2.755139 1_655
Cl2 La1 2.751196 1_655
Cl3 La0 2.751196 1_555
Cl8 La0 2.751196 1_655
Cl9 La1 2.751196 1_555
Cl10 La0 2.755139 1_555
Cl11 La1 2.755139 1_555
Cl12 La2 2.816188 1_555
Cl13 La1 2.816188 1_555
Cl14 La0 2.816188 1_555
Cl15 La3 2.816188 1_555
Cl16 La0 2.816188 1_655
Cl17 La2 2.816188 1_565
Cl18 La1 2.816188 1_655
Cl19 La3 2.816188 1_565
Cl20 La3 2.755139 1_565
Cl21 La2 2.755139 1_565
Cl22 La3 2.751196 1_565
Cl23 La2 2.751196 1_555
Cl28 La3 2.751196 1_555
Cl29 La2 2.751196 1_565
Cl30 La2 2.755139 1_555
Cl31 La3 2.755139 1_555
