# generated using pymatgen
data_Li4Mn3V2Cu3O16
_symmetry_space_group_name_H-M   'P 1'
_cell_length_a   5.87680885
_cell_length_b   5.87680885
_cell_length_c   9.60741332
_cell_angle_alpha   88.51540551
_cell_angle_beta   88.51540551
_cell_angle_gamma   59.35111698
_symmetry_Int_Tables_number   1
_chemical_formula_structural   Li4Mn3V2Cu3O16
_chemical_formula_sum   'Li4 Mn3 V2 Cu3 O16'
_cell_volume   285.33175104
_cell_formula_units_Z   1
loop_
 _symmetry_equiv_pos_site_id
 _symmetry_equiv_pos_as_xyz
  1  'x, y, z'
loop_
 _atom_site_type_symbol
 _atom_site_label
 _atom_site_symmetry_multiplicity
 _atom_site_fract_x
 _atom_site_fract_y
 _atom_site_fract_z
 _atom_site_occupancy
  Li  Li0  1  0.67178500  0.67178500  0.90173000  1
  Li  Li1  1  0.99766800  0.99766800  0.99466600  1
  Li  Li2  1  0.00065600  0.00065600  0.48698900  1
  Li  Li3  1  0.32431800  0.32431800  0.40541500  1
  Mn  Mn0  1  0.82449300  0.82449300  0.21877600  1
  Mn  Mn1  1  0.66428200  0.16780300  0.71712100  1
  Mn  Mn2  1  0.16780300  0.66428200  0.71712100  1
  V  V0  1  0.63902300  0.63902300  0.48062200  1
  V  V1  1  0.33382200  0.33382200  0.99318800  1
  Cu  Cu0  1  0.82700700  0.33485600  0.20740900  1
  Cu  Cu1  1  0.33485600  0.82700700  0.20740900  1
  Cu  Cu2  1  0.17109700  0.17109700  0.71292800  1
  O  O0  1  0.82118500  0.34306200  0.58959400  1
  O  O1  1  0.51025100  0.51025100  0.37093500  1
  O  O2  1  0.66754100  0.66754100  0.11378900  1
  O  O3  1  0.99620100  0.99620100  0.29626300  1
  O  O4  1  0.00253300  0.00253300  0.80602400  1
  O  O5  1  0.34306200  0.82118500  0.58959400  1
  O  O6  1  0.95653100  0.53078800  0.34656600  1
  O  O7  1  0.53078800  0.95653100  0.34656600  1
  O  O8  1  0.17810500  0.17810500  0.06380200  1
  O  O9  1  0.84351300  0.84351300  0.60879100  1
  O  O10  1  0.50695700  0.04588500  0.84909300  1
  O  O11  1  0.04588500  0.50695700  0.84909300  1
  O  O12  1  0.33777700  0.33777700  0.61567300  1
  O  O13  1  0.65476600  0.16207600  0.09291600  1
  O  O14  1  0.48593500  0.48593500  0.83319700  1
  O  O15  1  0.16207600  0.65476600  0.09291600  1
loop_
_geom_bond_atom_site_label_1
_geom_bond_atom_site_label_2
_geom_bond_distance
_geom_bond_site_symmetry_2
Li0 O11 1.955512 1_655
Li0 O10 1.955512 1_565
Li0 O14 2.027340 1_555
Li0 O2 2.036507 1_556
Li1 O4 1.811561 1_665
Li1 O13 1.961892 1_566
Li1 O15 1.961892 1_656
Li1 O8 1.977237 1_666
Li2 O3 1.834304 1_445
Li2 O9 1.957704 1_445
Li2 O0 2.004593 1_455
Li2 O5 2.004593 1_545
Li3 O1 1.917681 1_555
Li3 O6 1.953854 1_455
Li3 O7 1.953854 1_545
Li3 O12 2.028791 1_555
Mn0 O6 1.913820 1_555
Mn0 O7 1.913820 1_555
Mn0 O2 1.919054 1_555
Mn0 O3 1.925301 1_555
Mn0 O13 2.076920 1_565
Mn0 O15 2.076920 1_655
Mn1 O10 1.882381 1_555
Mn1 O4 1.923775 1_655
Mn1 O12 1.929212 1_555
Mn1 O9 1.955516 1_545
Mn1 O14 1.971599 1_555
Mn1 O0 2.063143 1_555
Mn2 O11 1.882381 1_555
Mn2 O4 1.923775 1_565
Mn2 O12 1.929212 1_555
Mn2 O9 1.955516 1_455
Mn2 O14 1.971599 1_555
Mn2 O5 2.063143 1_555
Cu0 O2 1.895853 1_555
Cu0 O3 1.901761 1_545
Cu0 O13 2.104534 1_555
Cu0 O6 2.172273 1_555
Cu0 O1 2.229803 1_555
Cu0 O8 2.233821 1_655
Cu1 O2 1.895853 1_555
Cu1 O3 1.901761 1_455
Cu1 O15 2.104534 1_555
Cu1 O7 2.172273 1_555
Cu1 O1 2.229803 1_555
Cu1 O8 2.233821 1_565
Cu2 O4 1.916067 1_555
Cu2 O12 1.917156 1_555
Cu2 O0 2.144622 1_455
Cu2 O5 2.144622 1_545
Cu2 O10 2.179858 1_555
Cu2 O11 2.179858 1_555
O0 V0 1.825552 1_555
O1 V0 1.709518 1_555
O5 V0 1.825552 1_555
O6 V0 2.062259 1_555
O7 V0 2.062259 1_555
O8 V1 1.710150 1_554
O9 V0 2.455701 1_555
O10 V1 2.026858 1_555
O11 V1 2.026858 1_555
O13 V1 1.896527 1_554
O14 V1 2.152506 1_555
O15 V1 1.896527 1_554
