# generated using pymatgen
data_Li5MnCr3O8
_symmetry_space_group_name_H-M   'P 1'
_cell_length_a   6.01291240
_cell_length_b   6.01291240
_cell_length_c   9.94109600
_cell_angle_alpha   90.00000000
_cell_angle_beta   90.00000000
_cell_angle_gamma   120.00000436
_symmetry_Int_Tables_number   1
_chemical_formula_structural   Li5MnCr3O8
_chemical_formula_sum   'Li10 Mn2 Cr6 O16'
_cell_volume   311.26811340
_cell_formula_units_Z   2
loop_
 _symmetry_equiv_pos_site_id
 _symmetry_equiv_pos_as_xyz
  1  'x, y, z'
loop_
 _atom_site_type_symbol
 _atom_site_label
 _atom_site_symmetry_multiplicity
 _atom_site_fract_x
 _atom_site_fract_y
 _atom_site_fract_z
 _atom_site_occupancy
  Li  Li0  1  0.38849600  0.19424800  0.43706000  1
  Li  Li1  1  0.66666700  0.33333300  0.22441900  1
  Li  Li2  1  0.80575200  0.19424800  0.43706000  1
  Li  Li3  1  0.80575200  0.61150400  0.43706000  1
  Li  Li4  1  0.00000000  0.00000000  0.51573000  1
  Li  Li5  1  0.19424800  0.80575200  0.93706000  1
  Li  Li6  1  0.33333300  0.66666700  0.72441900  1
  Li  Li7  1  0.19424800  0.38849600  0.93706000  1
  Li  Li8  1  0.00000000  0.00000000  0.01573000  1
  Li  Li9  1  0.61150400  0.80575200  0.93706000  1
  Mn  Mn0  1  0.33333300  0.66666700  0.47548600  1
  Mn  Mn1  1  0.66666700  0.33333300  0.97548600  1
  Cr  Cr0  1  0.17054300  0.82945700  0.21458900  1
  Cr  Cr1  1  0.34108700  0.17054300  0.71458900  1
  Cr  Cr2  1  0.17054300  0.34108700  0.21458900  1
  Cr  Cr3  1  0.82945700  0.65891300  0.71458900  1
  Cr  Cr4  1  0.65891300  0.82945700  0.21458900  1
  Cr  Cr5  1  0.82945700  0.17054300  0.71458900  1
  O  O0  1  0.32137000  0.16068500  0.10066300  1
  O  O1  1  0.16068500  0.83931500  0.60066300  1
  O  O2  1  0.01355800  0.50677900  0.32946000  1
  O  O3  1  0.50677900  0.49322100  0.82946000  1
  O  O4  1  0.00000000  0.00000000  0.32570900  1
  O  O5  1  0.33333300  0.66666700  0.09993700  1
  O  O6  1  0.83931500  0.67863000  0.10066300  1
  O  O7  1  0.49322100  0.98644200  0.32946000  1
  O  O8  1  0.00000000  0.00000000  0.82570900  1
  O  O9  1  0.16068500  0.32137000  0.60066300  1
  O  O10  1  0.66666700  0.33333300  0.59993700  1
  O  O11  1  0.50677900  0.01355800  0.82946000  1
  O  O12  1  0.49322100  0.50677900  0.32946000  1
  O  O13  1  0.98644200  0.49322100  0.82946000  1
  O  O14  1  0.83931500  0.16068500  0.10066300  1
  O  O15  1  0.67863000  0.83931500  0.60066300  1
loop_
_geom_bond_atom_site_label_1
_geom_bond_atom_site_label_2
_geom_bond_distance
_geom_bond_site_symmetry_2
Li0 O12 1.972010 1_555
Li0 O7 1.972010 1_545
Li0 O10 2.172549 1_555
Li0 O4 2.306076 1_555
Li0 O1 2.480492 1_545
Li0 O9 2.480492 1_555
Li1 O2 2.086480 1_655
Li1 O7 2.086480 1_545
Li1 O12 2.086485 1_555
Li1 O14 2.178676 1_555
Li1 O0 2.178680 1_555
Li1 O6 2.178680 1_555
Li2 O2 1.972010 1_655
Li2 O7 1.972010 1_545
Li2 O10 2.172545 1_555
Li2 O4 2.306076 1_655
Li2 O9 2.480492 1_655
Li2 O15 2.480492 1_545
Li3 O12 1.972010 1_555
Li3 O2 1.972010 1_655
Li3 O10 2.172549 1_555
Li3 O4 2.306076 1_665
Li3 O1 2.480492 1_655
Li3 O15 2.480492 1_555
Li4 O15 1.874414 1_445
Li4 O9 1.874414 1_555
Li4 O1 1.874414 1_545
Li4 O4 1.889017 1_555
Li5 O11 1.972010 1_565
Li5 O13 1.972010 1_455
Li5 O5 2.172545 1_556
Li5 O8 2.306076 1_565
Li5 O0 2.480492 1_566
Li5 O6 2.480492 1_456
Li6 O11 2.086480 1_565
Li6 O13 2.086480 1_455
Li6 O3 2.086485 1_555
Li6 O1 2.178676 1_555
Li6 O9 2.178680 1_555
Li6 O15 2.178680 1_555
Li7 O3 1.972010 1_555
Li7 O13 1.972010 1_455
Li7 O5 2.172549 1_556
Li7 O8 2.306076 1_555
Li7 O14 2.480492 1_456
Li7 O0 2.480492 1_556
Li8 O6 1.874414 1_445
Li8 O0 1.874414 1_555
Li8 O14 1.874414 1_455
Li8 O8 1.889017 1_554
Li9 O3 1.972010 1_555
Li9 O11 1.972010 1_565
Li9 O5 2.172549 1_556
Li9 O8 2.306076 1_665
Li9 O14 2.480492 1_566
Li9 O6 2.480492 1_556
Mn0 O1 2.186684 1_555
Mn0 O9 2.186688 1_555
Mn0 O15 2.186688 1_555
Mn0 O7 2.209100 1_555
Mn0 O2 2.209100 1_555
Mn0 O12 2.209104 1_555
Mn1 O14 2.186684 1_556
Mn1 O0 2.186688 1_556
Mn1 O6 2.186688 1_556
Mn1 O13 2.209100 1_555
Mn1 O11 2.209100 1_555
Mn1 O3 2.209104 1_555
Cr0 O7 2.031773 1_555
Cr0 O2 2.031773 1_555
Cr0 O5 2.042906 1_555
Cr0 O0 2.065323 1_565
Cr0 O6 2.065323 1_455
Cr0 O4 2.091642 1_565
Cr1 O11 2.031769 1_555
Cr1 O3 2.031773 1_555
Cr1 O10 2.042905 1_555
Cr1 O1 2.065324 1_545
Cr1 O9 2.065328 1_555
Cr1 O8 2.091647 1_555
Cr2 O2 2.031769 1_555
Cr2 O12 2.031773 1_555
Cr2 O5 2.042905 1_555
Cr2 O14 2.065324 1_455
Cr2 O0 2.065328 1_555
Cr2 O4 2.091647 1_555
Cr3 O13 2.031769 1_555
Cr3 O3 2.031773 1_555
Cr3 O10 2.042905 1_555
Cr3 O1 2.065324 1_655
Cr3 O15 2.065328 1_555
Cr3 O8 2.091647 1_665
Cr4 O7 2.031769 1_555
Cr4 O12 2.031773 1_555
Cr4 O5 2.042905 1_555
Cr4 O14 2.065324 1_565
Cr4 O6 2.065328 1_555
Cr4 O4 2.091647 1_665
Cr5 O13 2.031773 1_555
Cr5 O11 2.031773 1_555
Cr5 O10 2.042906 1_555
Cr5 O9 2.065323 1_655
Cr5 O15 2.065323 1_545
Cr5 O8 2.091642 1_655
