# generated using pymatgen
data_Cr4(OF3)3
_symmetry_space_group_name_H-M   'P 1'
_cell_length_a   5.03302269
_cell_length_b   5.30604853
_cell_length_c   8.82358695
_cell_angle_alpha   72.63456896
_cell_angle_beta   89.54830480
_cell_angle_gamma   62.14917659
_symmetry_Int_Tables_number   1
_chemical_formula_structural   Cr4(OF3)3
_chemical_formula_sum   'Cr4 O3 F9'
_cell_volume   196.41610136
_cell_formula_units_Z   1
loop_
 _symmetry_equiv_pos_site_id
 _symmetry_equiv_pos_as_xyz
  1  'x, y, z'
loop_
 _atom_site_type_symbol
 _atom_site_label
 _atom_site_symmetry_multiplicity
 _atom_site_fract_x
 _atom_site_fract_y
 _atom_site_fract_z
 _atom_site_occupancy
  Cr  Cr0  1  0.74462400  0.50367500  0.24934500  1
  Cr  Cr1  1  0.51027900  0.00880200  0.49850700  1
  Cr  Cr2  1  0.26971000  0.48789700  0.75604100  1
  Cr  Cr3  1  0.96845600  0.00428900  0.99353300  1
  O  O0  1  0.82144600  0.73935700  0.08776200  1
  O  O1  1  0.68868800  0.24092200  0.81642400  1
  O  O2  1  0.67900300  0.26558900  0.41063500  1
  F  F0  1  0.82419700  0.74731700  0.68443500  1
  F  F1  1  0.74876800  0.74339900  0.37801300  1
  F  F2  1  0.74552800  0.25755700  0.12141700  1
  F  F3  1  0.31996400  0.75418200  0.56685900  1
  F  F4  1  0.31206600  0.75800100  0.18074100  1
  F  F5  1  0.23927600  0.74897900  0.87753100  1
  F  F6  1  0.26309900  0.24970800  0.62563300  1
  F  F7  1  0.18124200  0.24245800  0.93836500  1
  F  F8  1  0.18365600  0.24786800  0.31476000  1
loop_
_geom_bond_atom_site_label_1
_geom_bond_atom_site_label_2
_geom_bond_distance
_geom_bond_site_symmetry_2
Cr0 O2 1.743443 1_555
Cr0 O0 1.767730 1_555
Cr0 F4 1.927513 1_555
Cr0 F1 1.947951 1_555
Cr0 F8 1.951467 1_655
Cr0 F2 1.963131 1_555
Cr1 O2 1.902325 1_555
Cr1 F0 1.935628 1_545
Cr1 F6 1.946262 1_555
Cr1 F8 1.950930 1_555
Cr1 F3 1.954517 1_545
Cr1 F1 1.961771 1_545
Cr2 O1 1.861954 1_555
Cr2 F7 1.939647 1_555
Cr2 F3 1.940651 1_555
Cr2 F5 1.943527 1_555
Cr2 F6 1.957147 1_555
Cr2 F0 1.985220 1_455
Cr3 O1 1.792449 1_555
Cr3 O0 1.865288 1_546
Cr3 F2 1.953079 1_556
Cr3 F5 1.954781 1_645
Cr3 F7 1.967244 1_655
Cr3 F4 2.017928 1_646
