# generated using pymatgen
data_Li2MnP3O10
_symmetry_space_group_name_H-M   'P 1'
_cell_length_a   8.06054200
_cell_length_b   9.95099000
_cell_length_c   11.85031679
_cell_angle_alpha   86.15716235
_cell_angle_beta   90.00000000
_cell_angle_gamma   90.00000000
_symmetry_Int_Tables_number   1
_chemical_formula_structural   Li2MnP3O10
_chemical_formula_sum   'Li8 Mn4 P12 O40'
_cell_volume   948.38121963
_cell_formula_units_Z   4
loop_
 _symmetry_equiv_pos_site_id
 _symmetry_equiv_pos_as_xyz
  1  'x, y, z'
loop_
 _atom_site_type_symbol
 _atom_site_label
 _atom_site_symmetry_multiplicity
 _atom_site_fract_x
 _atom_site_fract_y
 _atom_site_fract_z
 _atom_site_occupancy
  Li  Li0  1  0.54248400  0.60667400  0.14325700  1
  Li  Li1  1  0.95751600  0.10667400  0.14325700  1
  Li  Li2  1  0.89387500  0.09263500  0.43977300  1
  Li  Li3  1  0.60612500  0.59263500  0.43977300  1
  Li  Li4  1  0.39387500  0.40736500  0.56022700  1
  Li  Li5  1  0.10612500  0.90736500  0.56022700  1
  Li  Li6  1  0.04248400  0.89332600  0.85674300  1
  Li  Li7  1  0.45751600  0.39332600  0.85674300  1
  Mn  Mn0  1  0.13759700  0.36788200  0.16823600  1
  Mn  Mn1  1  0.36240300  0.86788200  0.16823600  1
  Mn  Mn2  1  0.63759700  0.13211800  0.83176400  1
  Mn  Mn3  1  0.86240300  0.63211800  0.83176400  1
  P  P0  1  0.42488000  0.19394900  0.06026300  1
  P  P1  1  0.07512000  0.69394900  0.06026300  1
  P  P2  1  0.56886800  0.09036300  0.27154500  1
  P  P3  1  0.93113200  0.59036300  0.27154500  1
  P  P4  1  0.21238600  0.06393800  0.33534200  1
  P  P5  1  0.28761400  0.56393800  0.33534200  1
  P  P6  1  0.71238600  0.43606200  0.66465800  1
  P  P7  1  0.78761400  0.93606200  0.66465800  1
  P  P8  1  0.06886800  0.40963700  0.72845500  1
  P  P9  1  0.43113200  0.90963700  0.72845500  1
  P  P10  1  0.92488000  0.30605100  0.93973700  1
  P  P11  1  0.57512000  0.80605100  0.93973700  1
  O  O0  1  0.33007000  0.06357200  0.07091100  1
  O  O1  1  0.00552600  0.27342800  0.05627900  1
  O  O2  1  0.33471900  0.32481700  0.08385200  1
  O  O3  1  0.16993000  0.56357200  0.07091100  1
  O  O4  1  0.49447400  0.77342800  0.05627900  1
  O  O5  1  0.16528100  0.82481700  0.08385200  1
  O  O6  1  0.57528800  0.18492000  0.15409200  1
  O  O7  1  0.92471200  0.68492000  0.15409200  1
  O  O8  1  0.10639500  0.15460400  0.25496100  1
  O  O9  1  0.94196700  0.44365300  0.23985300  1
  O  O10  1  0.26699100  0.42004600  0.29545400  1
  O  O11  1  0.39360500  0.65460400  0.25496100  1
  O  O12  1  0.55803300  0.94365300  0.23985300  1
  O  O13  1  0.23300900  0.92004600  0.29545400  1
  O  O14  1  0.40038200  0.13059400  0.33394800  1
  O  O15  1  0.71696400  0.12665500  0.33683600  1
  O  O16  1  0.09961800  0.63059400  0.33394800  1
  O  O17  1  0.78303600  0.62665500  0.33683600  1
  O  O18  1  0.14553200  0.05894700  0.45445100  1
  O  O19  1  0.35446800  0.55894700  0.45445100  1
  O  O20  1  0.64553200  0.44105300  0.54554900  1
  O  O21  1  0.85446800  0.94105300  0.54554900  1
  O  O22  1  0.21696400  0.37334500  0.66316400  1
  O  O23  1  0.90038200  0.36940600  0.66605200  1
  O  O24  1  0.28303600  0.87334500  0.66316400  1
  O  O25  1  0.59961800  0.86940600  0.66605200  1
  O  O26  1  0.76699100  0.07995400  0.70454600  1
  O  O27  1  0.44196700  0.05634700  0.76014700  1
  O  O28  1  0.60639500  0.34539600  0.74503900  1
  O  O29  1  0.73300900  0.57995400  0.70454600  1
  O  O30  1  0.05803300  0.55634700  0.76014700  1
  O  O31  1  0.89360500  0.84539600  0.74503900  1
  O  O32  1  0.07528800  0.31508000  0.84590800  1
  O  O33  1  0.42471200  0.81508000  0.84590800  1
  O  O34  1  0.83471900  0.17518300  0.91614800  1
  O  O35  1  0.50552600  0.22657200  0.94372100  1
  O  O36  1  0.83007000  0.43642800  0.92908800  1
  O  O37  1  0.66528100  0.67518300  0.91614800  1
  O  O38  1  0.99447400  0.72657200  0.94372100  1
  O  O39  1  0.66993000  0.93642800  0.92908800  1
loop_
_geom_bond_atom_site_label_1
_geom_bond_atom_site_label_2
_geom_bond_distance
_geom_bond_site_symmetry_2
Li0 O11 1.872024 1_555
Li0 O4 1.932972 1_555
Li1 O8 1.872024 1_655
Li1 O1 1.932972 1_655
Li2 O15 1.892280 1_555
Li2 O21 1.921956 1_545
Li2 O18 2.061455 1_655
Li3 O17 1.892280 1_555
Li3 O20 1.921956 1_555
Li3 O19 2.061455 1_555
Li4 O22 1.892280 1_555
Li4 O19 1.921956 1_555
Li4 O20 2.061455 1_555
Li5 O24 1.892280 1_555
Li5 O18 1.921956 1_565
Li5 O21 2.061455 1_455
Li6 O31 1.872024 1_455
Li6 O38 1.932972 1_455
Li7 O28 1.872024 1_555
Li7 O35 1.932972 1_555
Mn0 O10 1.932599 1_555
Mn0 O2 1.940535 1_555
Mn0 O9 1.964971 1_455
Mn0 O1 1.985970 1_555
Mn0 O3 2.211125 1_555
Mn0 O8 2.308976 1_555
Mn1 O13 1.932599 1_555
Mn1 O5 1.940535 1_555
Mn1 O12 1.964971 1_555
Mn1 O4 1.985970 1_555
Mn1 O0 2.211125 1_565
Mn1 O11 2.308976 1_555
Mn2 O26 1.932599 1_555
Mn2 O34 1.940535 1_555
Mn2 O27 1.964971 1_555
Mn2 O35 1.985970 1_555
Mn2 O39 2.211119 1_545
Mn2 O28 2.308976 1_555
Mn3 O29 1.932599 1_555
Mn3 O37 1.940535 1_555
Mn3 O30 1.964971 1_655
Mn3 O38 1.985970 1_555
Mn3 O36 2.211119 1_555
Mn3 O31 2.308976 1_555
O0 P0 1.503731 1_555
O1 P10 1.541163 1_454
O2 P0 1.533295 1_555
O3 P1 1.503731 1_555
O4 P11 1.541163 1_554
O5 P1 1.533295 1_555
O6 P2 1.627807 1_555
O6 P0 1.643427 1_555
O7 P3 1.627807 1_555
O7 P1 1.643427 1_655
O8 P4 1.528411 1_555
O9 P3 1.534113 1_555
O10 P5 1.546619 1_555
O11 P5 1.528411 1_555
O12 P2 1.534113 1_565
O13 P4 1.546619 1_565
O14 P2 1.609724 1_555
O14 P4 1.653798 1_555
O15 P2 1.480378 1_555
O16 P3 1.609724 1_455
O16 P5 1.653798 1_555
O17 P3 1.480378 1_555
O18 P4 1.508554 1_555
O19 P5 1.508554 1_555
O20 P6 1.508554 1_555
O21 P7 1.508554 1_555
O22 P8 1.480378 1_555
O23 P8 1.609724 1_655
O23 P6 1.653798 1_555
O24 P9 1.480378 1_555
O25 P9 1.609724 1_555
O25 P7 1.653798 1_555
O26 P7 1.546619 1_545
O27 P9 1.534113 1_545
O28 P6 1.528411 1_555
O29 P6 1.546619 1_555
O30 P8 1.534113 1_555
O31 P7 1.528411 1_555
O32 P8 1.627807 1_555
O32 P10 1.643427 1_455
O33 P9 1.627807 1_555
O33 P11 1.643427 1_555
O34 P10 1.533295 1_555
O35 P0 1.541163 1_556
O36 P10 1.503731 1_555
O37 P11 1.533295 1_555
O38 P1 1.541163 1_656
O39 P11 1.503731 1_555
