# generated using pymatgen
data_ZnNi4O5
_symmetry_space_group_name_H-M   'P 1'
_cell_length_a   6.71433092
_cell_length_b   6.71433092
_cell_length_c   9.96149026
_cell_angle_alpha   78.29798320
_cell_angle_beta   78.29798320
_cell_angle_gamma   25.86628924
_symmetry_Int_Tables_number   1
_chemical_formula_structural   ZnNi4O5
_chemical_formula_sum   'Zn2 Ni8 O10'
_cell_volume   191.63468295
_cell_formula_units_Z   2
loop_
 _symmetry_equiv_pos_site_id
 _symmetry_equiv_pos_as_xyz
  1  'x, y, z'
loop_
 _atom_site_type_symbol
 _atom_site_label
 _atom_site_symmetry_multiplicity
 _atom_site_fract_x
 _atom_site_fract_y
 _atom_site_fract_z
 _atom_site_occupancy
  Zn  Zn0  1  0.10006000  0.10006000  0.70007800  1
  Zn  Zn1  1  0.89994000  0.89994000  0.29992200  1
  Ni  Ni0  1  0.39968200  0.39968200  0.80059800  1
  Ni  Ni1  1  0.70032900  0.70032900  0.90086700  1
  Ni  Ni2  1  0.60031800  0.60031800  0.19940200  1
  Ni  Ni3  1  0.29967100  0.29967100  0.09913300  1
  Ni  Ni4  1  0.20018000  0.20018000  0.39919400  1
  Ni  Ni5  1  0.00000000  0.00000000  0.00000000  1
  Ni  Ni6  1  0.79982000  0.79982000  0.60080600  1
  Ni  Ni7  1  0.50000000  0.50000000  0.50000000  1
  O  O0  1  0.25152300  0.25152300  0.75137000  1
  O  O1  1  0.15058300  0.15058300  0.04991000  1
  O  O2  1  0.54891900  0.54891900  0.85305800  1
  O  O3  1  0.84941700  0.84941700  0.95009000  1
  O  O4  1  0.74847700  0.74847700  0.24863000  1
  O  O5  1  0.45108100  0.45108100  0.14694200  1
  O  O6  1  0.34899100  0.34899100  0.45337500  1
  O  O7  1  0.65100900  0.65100900  0.54662500  1
  O  O8  1  0.05134100  0.05134100  0.35053000  1
  O  O9  1  0.94865900  0.94865900  0.64947000  1
loop_
_geom_bond_atom_site_label_1
_geom_bond_atom_site_label_2
_geom_bond_distance
_geom_bond_site_symmetry_2
Ni0 O0 2.096753 1_555
Ni0 O3 2.121543 1_455
Ni0 O3 2.121543 1_545
Ni0 O2 2.124372 1_555
Ni0 O9 2.129308 1_545
Ni0 O9 2.129308 1_455
Ni1 O3 2.108570 1_555
Ni1 O1 2.117587 1_566
Ni1 O1 2.117587 1_656
Ni1 O0 2.123603 1_655
Ni1 O0 2.123603 1_565
Ni1 O2 2.132267 1_555
Ni2 O4 2.096753 1_555
Ni2 O1 2.121543 1_655
Ni2 O1 2.121543 1_565
Ni2 O5 2.124372 1_555
Ni2 O8 2.129308 1_655
Ni2 O8 2.129308 1_565
Ni3 O1 2.108570 1_555
Ni3 O3 2.117587 1_544
Ni3 O3 2.117587 1_454
Ni3 O4 2.123603 1_545
Ni3 O4 2.123603 1_455
Ni3 O5 2.132267 1_555
Ni4 O8 2.103034 1_555
Ni4 O7 2.106172 1_545
Ni4 O7 2.106172 1_455
Ni4 O4 2.124334 1_545
Ni4 O4 2.124334 1_455
Ni4 O6 2.126524 1_555
Ni5 O5 2.102559 1_455
Ni5 O5 2.102559 1_545
Ni5 O2 2.102559 1_454
Ni5 O2 2.102559 1_544
Ni5 O1 2.130534 1_555
Ni5 O3 2.130534 1_444
Ni6 O9 2.103034 1_555
Ni6 O6 2.106172 1_655
Ni6 O6 2.106172 1_565
Ni6 O0 2.124334 1_655
Ni6 O0 2.124334 1_565
Ni6 O7 2.126524 1_555
Ni7 O7 2.122252 1_555
Ni7 O6 2.122252 1_555
Ni7 O9 2.123759 1_545
Ni7 O9 2.123759 1_455
Ni7 O8 2.123759 1_565
Ni7 O8 2.123759 1_655
O0 Zn0 2.147633 1_555
O2 Zn0 2.145709 1_655
O2 Zn0 2.145709 1_565
O4 Zn1 2.147633 1_555
O5 Zn1 2.145709 1_455
O5 Zn1 2.145709 1_545
O6 Zn1 2.148344 1_455
O6 Zn1 2.148344 1_545
O7 Zn0 2.148344 1_565
O7 Zn0 2.148344 1_655
O8 Zn1 2.143922 1_445
O9 Zn0 2.143922 1_665
