# generated using pymatgen
data_C2N2O5
_symmetry_space_group_name_H-M   'P 1'
_cell_length_a   4.01762000
_cell_length_b   9.13959610
_cell_length_c   10.21360428
_cell_angle_alpha   88.98519127
_cell_angle_beta   89.72633846
_cell_angle_gamma   87.11571146
_symmetry_Int_Tables_number   1
_chemical_formula_structural   C2N2O5
_chemical_formula_sum   'C4 N4 O10'
_cell_volume   374.50098273
_cell_formula_units_Z   2
loop_
 _symmetry_equiv_pos_site_id
 _symmetry_equiv_pos_as_xyz
  1  'x, y, z'
loop_
 _atom_site_type_symbol
 _atom_site_label
 _atom_site_symmetry_multiplicity
 _atom_site_fract_x
 _atom_site_fract_y
 _atom_site_fract_z
 _atom_site_occupancy
  C  C0  1  0.93029600  0.54395400  0.67920900  1
  C  C1  1  0.93221400  0.45613500  0.31852200  1
  C  C2  1  0.05837600  0.95575200  0.18081400  1
  C  C3  1  0.06420600  0.04420600  0.81710800  1
  N  N0  1  0.44516600  0.61876200  0.94877000  1
  N  N1  1  0.43869300  0.38276100  0.05561500  1
  N  N2  1  0.56534900  0.88328200  0.44898800  1
  N  N3  1  0.58062600  0.11500400  0.55527800  1
  O  O0  1  0.79141400  0.44421200  0.72388300  1
  O  O1  1  0.79241800  0.55896700  0.26917500  1
  O  O2  1  0.17851900  0.05484900  0.23145800  1
  O  O3  1  0.18909100  0.94204300  0.76401100  1
  O  O4  1  0.06884000  0.64335800  0.63394300  1
  O  O5  1  0.07090700  0.35390900  0.36894300  1
  O  O6  1  0.93978700  0.85696200  0.12912700  1
  O  O7  1  0.94079100  0.14582700  0.87108300  1
  O  O8  1  0.57228300  0.99924300  0.50195600  1
  O  O9  1  0.44102200  0.50077300  0.00211900  1
loop_
_geom_bond_atom_site_label_1
_geom_bond_atom_site_label_2
_geom_bond_distance
_geom_bond_site_symmetry_2
C0 O4 1.175807 1_655
C0 O0 1.176678 1_555
C1 O5 1.175552 1_655
C1 O1 1.177107 1_555
C2 O6 1.176222 1_455
C2 O2 1.176361 1_565
C3 O7 1.175399 1_455
C3 O3 1.177236 1_545
N0 O9 1.200404 1_556
N1 O9 1.200857 1_555
N2 O8 1.200054 1_555
N3 O8 1.200525 1_545
