# generated using pymatgen
data_Li3VO3F
_symmetry_space_group_name_H-M   'P 1'
_cell_length_a   5.86081026
_cell_length_b   5.86081026
_cell_length_c   9.44597265
_cell_angle_alpha   71.05569485
_cell_angle_beta   71.05569485
_cell_angle_gamma   87.22891177
_symmetry_Int_Tables_number   1
_chemical_formula_structural   Li3VO3F
_chemical_formula_sum   'Li12 V4 O12 F4'
_cell_volume   289.67263844
_cell_formula_units_Z   4
loop_
 _symmetry_equiv_pos_site_id
 _symmetry_equiv_pos_as_xyz
  1  'x, y, z'
loop_
 _atom_site_type_symbol
 _atom_site_label
 _atom_site_symmetry_multiplicity
 _atom_site_fract_x
 _atom_site_fract_y
 _atom_site_fract_z
 _atom_site_occupancy
  Li  Li0  1  0.55271600  0.30600800  0.13840900  1
  Li  Li1  1  0.30600800  0.55271600  0.63840900  1
  Li  Li2  1  0.18791700  0.93622900  0.37543000  1
  Li  Li3  1  0.56210600  0.82574200  0.12194600  1
  Li  Li4  1  0.17425800  0.43789400  0.37805400  1
  Li  Li5  1  0.06377100  0.81208300  0.12457000  1
  Li  Li6  1  0.93622900  0.18791700  0.87543000  1
  Li  Li7  1  0.82574200  0.56210600  0.62194600  1
  Li  Li8  1  0.43789400  0.17425800  0.87805400  1
  Li  Li9  1  0.81208300  0.06377100  0.62457000  1
  Li  Li10  1  0.69399200  0.44728400  0.36159100  1
  Li  Li11  1  0.44728400  0.69399200  0.86159100  1
  V  V0  1  0.06009500  0.29360000  0.12192400  1
  V  V1  1  0.29360000  0.06009500  0.62192400  1
  V  V2  1  0.70640000  0.93990500  0.37807600  1
  V  V3  1  0.93990500  0.70640000  0.87807600  1
  O  O0  1  0.81436700  0.07032400  0.13991000  1
  O  O1  1  0.07032400  0.81436700  0.63991000  1
  O  O2  1  0.30031600  0.08922300  0.11840500  1
  O  O3  1  0.84061400  0.55810700  0.11401700  1
  O  O4  1  0.08922300  0.30031600  0.61840500  1
  O  O5  1  0.55810700  0.84061400  0.61401700  1
  O  O6  1  0.44189300  0.15938600  0.38598300  1
  O  O7  1  0.91077700  0.69968400  0.38159500  1
  O  O8  1  0.15938600  0.44189300  0.88598300  1
  O  O9  1  0.69968400  0.91077700  0.88159500  1
  O  O10  1  0.92967600  0.18563300  0.36009000  1
  O  O11  1  0.18563300  0.92967600  0.86009000  1
  F  F0  1  0.44499300  0.69376800  0.36738400  1
  F  F1  1  0.69376800  0.44499300  0.86738400  1
  F  F2  1  0.30623200  0.55500700  0.13261600  1
  F  F3  1  0.55500700  0.30623200  0.63261600  1
loop_
_geom_bond_atom_site_label_1
_geom_bond_atom_site_label_2
_geom_bond_distance
_geom_bond_site_symmetry_2
Li0 O0 2.014041 1_555
Li0 O2 2.087415 1_555
Li0 O6 2.095745 1_555
Li0 O3 2.202437 1_555
Li1 O1 2.014041 1_555
Li1 O4 2.087415 1_555
Li1 O8 2.095745 1_555
Li1 O5 2.202437 1_555
Li2 O10 2.058941 1_465
Li2 O6 2.074938 1_565
Li2 O7 2.160434 1_455
Li2 O2 2.176599 1_565
Li2 O1 2.235519 1_555
Li3 O9 2.041709 1_554
Li3 O2 2.123790 1_565
Li3 O0 2.189781 1_565
Li3 O3 2.208997 1_555
Li4 O4 2.041709 1_555
Li4 O7 2.123790 1_455
Li4 O10 2.189781 1_455
Li4 O6 2.208997 1_555
Li5 O0 2.058941 1_465
Li5 O3 2.074938 1_455
Li5 O2 2.160434 1_565
Li5 O7 2.176599 1_455
Li5 O11 2.235519 1_554
Li6 O11 2.058941 1_645
Li6 O8 2.074938 1_655
Li6 O9 2.160434 1_545
Li6 O4 2.176599 1_655
Li6 O0 2.235519 1_556
Li7 O7 2.041709 1_555
Li7 O4 2.123790 1_655
Li7 O1 2.189781 1_655
Li7 O5 2.208997 1_555
Li8 O2 2.041709 1_556
Li8 O9 2.123790 1_545
Li8 O11 2.189781 1_545
Li8 O8 2.208997 1_555
Li9 O1 2.058941 1_645
Li9 O5 2.074938 1_545
Li9 O4 2.160434 1_655
Li9 O9 2.176599 1_545
Li9 O10 2.235519 1_555
Li10 O10 2.014041 1_555
Li10 O7 2.087415 1_555
Li10 O3 2.095745 1_555
Li10 O6 2.202437 1_555
Li11 O11 2.014041 1_555
Li11 O9 2.087415 1_555
Li11 O5 2.095745 1_555
Li11 O8 2.202437 1_555
O0 V0 1.922061 1_655
O0 V2 2.012901 1_545
O1 V1 1.922061 1_565
O1 V3 2.012901 1_455
O2 V0 1.802893 1_555
O3 V0 1.964135 1_655
O3 V3 2.002546 1_554
O4 V1 1.802893 1_555
O5 V1 1.964135 1_565
O5 V2 2.002546 1_555
O6 V2 1.964135 1_545
O6 V1 2.002546 1_555
O7 V2 1.802893 1_555
O8 V3 1.964135 1_455
O8 V0 2.002546 1_556
O9 V3 1.802893 1_555
O10 V2 1.922061 1_545
O10 V0 2.012901 1_655
O11 V3 1.922061 1_455
O11 V1 2.012901 1_565
F0 Li10 2.003784 1_555
F0 Li2 2.020864 1_555
F0 Li3 2.073193 1_555
F0 Li4 2.191996 1_555
F0 V2 2.201624 1_555
F0 Li1 2.288652 1_555
F1 Li11 2.003784 1_555
F1 Li6 2.020864 1_555
F1 Li7 2.073193 1_555
F1 Li8 2.191996 1_555
F1 V3 2.201624 1_555
F1 Li0 2.288652 1_556
F2 Li0 2.003784 1_555
F2 Li5 2.020864 1_555
F2 Li4 2.073193 1_555
F2 Li3 2.191996 1_555
F2 V0 2.201624 1_555
F2 Li11 2.288652 1_554
F3 Li1 2.003784 1_555
F3 Li9 2.020864 1_555
F3 Li8 2.073193 1_555
F3 Li7 2.191996 1_555
F3 V1 2.201624 1_555
F3 Li10 2.288652 1_555
