# generated using pymatgen
data_Li5TiMn3O8
_symmetry_space_group_name_H-M   'P 1'
_cell_length_a   8.54998000
_cell_length_b   8.67323472
_cell_length_c   8.81588192
_cell_angle_alpha   89.91506859
_cell_angle_beta   89.87403328
_cell_angle_gamma   89.85779152
_symmetry_Int_Tables_number   1
_chemical_formula_structural   Li5TiMn3O8
_chemical_formula_sum   'Li20 Ti4 Mn12 O32'
_cell_volume   653.74608631
_cell_formula_units_Z   4
loop_
 _symmetry_equiv_pos_site_id
 _symmetry_equiv_pos_as_xyz
  1  'x, y, z'
loop_
 _atom_site_type_symbol
 _atom_site_label
 _atom_site_symmetry_multiplicity
 _atom_site_fract_x
 _atom_site_fract_y
 _atom_site_fract_z
 _atom_site_occupancy
  Li  Li0  1  0.99298400  0.00378900  0.00836600  1
  Li  Li1  1  0.63612600  0.15285800  0.36392800  1
  Li  Li2  1  0.13706200  0.14316500  0.86303000  1
  Li  Li3  1  0.34116600  0.16594700  0.66468100  1
  Li  Li4  1  0.84637100  0.17520500  0.16614800  1
  Li  Li5  1  0.13162600  0.36267600  0.67067200  1
  Li  Li6  1  0.84065800  0.36548600  0.37549800  1
  Li  Li7  1  0.36207400  0.36068000  0.86916600  1
  Li  Li8  1  0.63590300  0.37102500  0.15651000  1
  Li  Li9  1  0.01109700  0.49682400  0.49157800  1
  Li  Li10  1  0.50702300  0.51885700  0.00212100  1
  Li  Li11  1  0.34706100  0.64272400  0.15047200  1
  Li  Li12  1  0.64535200  0.65163000  0.83680500  1
  Li  Li13  1  0.15995400  0.68096000  0.37827100  1
  Li  Li14  1  0.85463600  0.66123500  0.63578900  1
  Li  Li15  1  0.36360700  0.87113200  0.32929400  1
  Li  Li16  1  0.63899100  0.87110300  0.64958200  1
  Li  Li17  1  0.84492300  0.86077400  0.85263000  1
  Li  Li18  1  0.13627200  0.84608400  0.14173200  1
  Li  Li19  1  0.48420600  0.99939100  0.50578200  1
  Ti  Ti0  1  0.87176000  0.13176900  0.63248100  1
  Ti  Ti1  1  0.12858100  0.38295900  0.11963800  1
  Ti  Ti2  1  0.62123500  0.63484500  0.38161900  1
  Ti  Ti3  1  0.37326000  0.87012900  0.88708100  1
  Mn  Mn0  1  0.37383800  0.13129800  0.12421800  1
  Mn  Mn1  1  0.62397400  0.13473100  0.88066100  1
  Mn  Mn2  1  0.36800600  0.38413900  0.38304100  1
  Mn  Mn3  1  0.86300700  0.38913000  0.87564900  1
  Mn  Mn4  1  0.61872700  0.37963000  0.63212600  1
  Mn  Mn5  1  0.11407300  0.63651400  0.87006800  1
  Mn  Mn6  1  0.12441400  0.88903500  0.62978000  1
  Mn  Mn7  1  0.87157500  0.88161700  0.37766400  1
  Mn  Mn8  1  0.12126800  0.13018200  0.37330400  1
  Mn  Mn9  1  0.87375000  0.62578600  0.12937700  1
  Mn  Mn10  1  0.36982500  0.63071900  0.62693700  1
  Mn  Mn11  1  0.62846400  0.88250800  0.12623200  1
  O  O0  1  0.60968700  0.13619300  0.13408700  1
  O  O1  1  0.37071100  0.12063300  0.89648200  1
  O  O2  1  0.11333000  0.13639300  0.62486400  1
  O  O3  1  0.87843700  0.12408300  0.85362600  1
  O  O4  1  0.63948200  0.12607100  0.61585900  1
  O  O5  1  0.36593400  0.12685800  0.35107400  1
  O  O6  1  0.87973300  0.13307900  0.38708900  1
  O  O7  1  0.12955300  0.15164500  0.12174600  1
  O  O8  1  0.12055700  0.35630200  0.35440100  1
  O  O9  1  0.88116500  0.35854300  0.62227400  1
  O  O10  1  0.61452200  0.38333800  0.87710400  1
  O  O11  1  0.12108800  0.38308700  0.90076600  1
  O  O12  1  0.35238500  0.39827100  0.12167700  1
  O  O13  1  0.61541000  0.39979700  0.38129600  1
  O  O14  1  0.88349800  0.39653400  0.13173100  1
  O  O15  1  0.36292900  0.39693700  0.63361900  1
  O  O16  1  0.10618800  0.61442400  0.14219600  1
  O  O17  1  0.84865600  0.62707000  0.40044900  1
  O  O18  1  0.86999900  0.63539600  0.86631900  1
  O  O19  1  0.38578400  0.63744100  0.37370200  1
  O  O20  1  0.14123000  0.63290700  0.61470600  1
  O  O21  1  0.60240600  0.63517700  0.61324500  1
  O  O22  1  0.37335300  0.64962500  0.88604800  1
  O  O23  1  0.63969000  0.62299500  0.15182600  1
  O  O24  1  0.87998400  0.85414800  0.12815200  1
  O  O25  1  0.37608400  0.87162000  0.65437900  1
  O  O26  1  0.61178300  0.86155500  0.37808100  1
  O  O27  1  0.37099400  0.87561000  0.10984400  1
  O  O28  1  0.60568800  0.88113100  0.87877300  1
  O  O29  1  0.14249100  0.88684400  0.88660500  1
  O  O30  1  0.87313600  0.89982500  0.62619900  1
  O  O31  1  0.12878300  0.90425300  0.37209100  1
loop_
_geom_bond_atom_site_label_1
_geom_bond_atom_site_label_2
_geom_bond_distance
_geom_bond_site_symmetry_2
Li0 O24 1.931518 1_545
Li0 O29 1.950847 1_644
Li0 O3 1.976176 1_554
Li0 O7 2.005845 1_655
Li1 O0 2.044683 1_555
Li1 O6 2.099837 1_555
Li1 O13 2.154280 1_555
Li1 O4 2.233010 1_555
Li1 O5 2.324701 1_555
Li1 O26 2.538474 1_545
Li2 O1 2.028898 1_555
Li2 O2 2.110787 1_555
Li2 O11 2.111851 1_555
Li2 O3 2.219573 1_455
Li2 O29 2.232897 1_545
Li2 O7 2.282861 1_556
Li3 O2 1.997336 1_555
Li3 O15 2.030602 1_555
Li3 O1 2.096112 1_555
Li3 O25 2.571145 1_545
Li4 O14 1.969445 1_555
Li4 O6 2.002139 1_555
Li4 O0 2.072609 1_555
Li4 O7 2.459839 1_655
Li5 O2 2.010852 1_555
Li5 O15 2.026286 1_555
Li5 O11 2.038229 1_555
Li5 O9 2.184840 1_455
Li5 O20 2.396000 1_555
Li6 O13 1.948563 1_555
Li6 O6 2.044843 1_555
Li6 O14 2.195514 1_555
Li6 O9 2.204406 1_555
Li6 O17 2.280951 1_555
Li6 O8 2.401073 1_655
Li7 O11 2.087194 1_555
Li7 O1 2.096648 1_555
Li7 O15 2.099769 1_555
Li7 O10 2.169131 1_555
Li7 O12 2.251649 1_556
Li7 O22 2.512826 1_555
Li8 O13 2.004939 1_555
Li8 O0 2.059450 1_555
Li8 O14 2.139678 1_555
Li8 O23 2.186043 1_555
Li8 O12 2.454891 1_555
Li8 O10 2.472515 1_554
Li9 O8 1.953848 1_555
Li9 O20 1.955739 1_555
Li9 O17 1.960847 1_455
Li9 O9 1.999253 1_455
Li10 O10 1.853384 1_554
Li10 O22 1.906545 1_554
Li10 O23 1.964550 1_555
Li10 O12 1.987536 1_555
Li11 O19 1.996782 1_555
Li11 O27 2.061465 1_555
Li11 O16 2.076094 1_555
Li11 O12 2.136076 1_555
Li11 O22 2.342143 1_554
Li11 O23 2.507446 1_555
Li12 O18 1.943570 1_555
Li12 O21 2.010927 1_555
Li12 O28 2.052396 1_555
Li12 O22 2.364921 1_555
Li12 O10 2.368675 1_555
Li13 O31 1.954965 1_555
Li13 O19 1.966806 1_555
Li13 O20 2.130791 1_555
Li13 O16 2.210173 1_555
Li14 O18 2.048780 1_555
Li14 O30 2.077357 1_555
Li14 O17 2.096971 1_555
Li14 O21 2.178480 1_555
Li14 O20 2.468681 1_655
Li15 O27 1.935872 1_555
Li15 O31 2.061558 1_555
Li15 O19 2.072061 1_555
Li15 O26 2.167343 1_555
Li15 O5 2.226693 1_565
Li16 O30 2.028005 1_555
Li16 O28 2.041816 1_555
Li16 O21 2.095979 1_555
Li16 O4 2.230868 1_565
Li16 O25 2.248148 1_555
Li16 O26 2.406875 1_555
Li17 O18 1.969502 1_555
Li17 O30 2.038126 1_555
Li17 O28 2.065050 1_555
Li17 O3 2.302385 1_565
Li17 O24 2.448624 1_556
Li17 O29 2.572975 1_655
Li18 O16 2.026269 1_555
Li18 O27 2.042544 1_555
Li18 O31 2.094077 1_555
Li18 O24 2.195723 1_455
Li18 O29 2.276791 1_554
Li19 O25 1.947887 1_555
Li19 O26 1.969396 1_555
Li19 O4 1.981800 1_565
Li19 O5 2.025105 1_565
Mn0 O5 2.001245 1_555
Mn0 O1 2.010200 1_554
Mn0 O0 2.019126 1_555
Mn0 O7 2.095796 1_555
Mn0 O27 2.221643 1_545
Mn0 O12 2.322398 1_555
Mn1 O10 2.157724 1_555
Mn1 O1 2.173309 1_555
Mn1 O3 2.189884 1_555
Mn1 O28 2.205559 1_545
Mn1 O0 2.237295 1_556
Mn1 O4 2.339241 1_555
Mn2 O13 2.120011 1_555
Mn2 O8 2.145513 1_555
Mn2 O19 2.203980 1_555
Mn2 O15 2.212343 1_555
Mn2 O5 2.249717 1_555
Mn2 O12 2.311368 1_555
Mn3 O10 2.125270 1_555
Mn3 O18 2.138363 1_555
Mn3 O11 2.218636 1_655
Mn3 O9 2.254780 1_555
Mn3 O14 2.265778 1_556
Mn3 O3 2.310704 1_555
Mn4 O10 2.160203 1_555
Mn4 O15 2.191853 1_555
Mn4 O4 2.210728 1_555
Mn4 O13 2.218174 1_555
Mn4 O21 2.226469 1_555
Mn4 O9 2.252324 1_555
Mn5 O18 2.087209 1_455
Mn5 O29 2.190431 1_555
Mn5 O11 2.214912 1_555
Mn5 O22 2.224820 1_555
Mn5 O20 2.262930 1_555
Mn5 O16 2.407213 1_556
Mn6 O2 2.147628 1_565
Mn6 O30 2.150526 1_455
Mn6 O25 2.168021 1_555
Mn6 O20 2.229891 1_555
Mn6 O29 2.269795 1_555
Mn6 O31 2.275622 1_555
Mn7 O6 2.183987 1_565
Mn7 O30 2.197045 1_555
Mn7 O31 2.208787 1_655
Mn7 O24 2.213875 1_555
Mn7 O17 2.225657 1_555
Mn7 O26 2.228446 1_555
Mn8 O31 1.960473 1_545
Mn8 O8 1.968009 1_555
Mn8 O6 2.068518 1_455
Mn8 O5 2.100751 1_555
Mn8 O2 2.219342 1_555
Mn8 O7 2.226217 1_555
Mn9 O24 1.981499 1_555
Mn9 O14 1.989975 1_555
Mn9 O16 1.992984 1_655
Mn9 O23 2.010739 1_555
Mn9 O18 2.320751 1_554
Mn9 O17 2.398921 1_555
Mn10 O20 1.957735 1_555
Mn10 O21 1.992426 1_555
Mn10 O15 2.029414 1_555
Mn10 O25 2.104532 1_555
Mn10 O19 2.237039 1_555
Mn10 O22 2.290682 1_555
Mn11 O24 2.164006 1_555
Mn11 O28 2.190723 1_554
Mn11 O0 2.206899 1_565
Mn11 O27 2.207381 1_555
Mn11 O26 2.231706 1_555
Mn11 O23 2.263585 1_555
O1 Ti3 2.174436 1_545
O2 Ti0 2.066849 1_455
O3 Ti0 1.951585 1_555
O4 Ti0 1.992433 1_555
O6 Ti0 2.164285 1_555
O7 Ti1 2.006296 1_555
O8 Ti1 2.083175 1_555
O9 Ti0 1.970621 1_555
O11 Ti1 1.930752 1_556
O12 Ti1 1.918577 1_555
O13 Ti2 2.039365 1_555
O14 Ti1 2.100950 1_655
O16 Ti1 2.026221 1_555
O17 Ti2 1.952871 1_555
O19 Ti2 2.014533 1_555
O21 Ti2 2.047977 1_555
O22 Ti3 1.912516 1_555
O23 Ti2 2.034348 1_555
O25 Ti3 2.051584 1_555
O26 Ti2 1.967972 1_555
O27 Ti3 1.964550 1_554
O28 Ti3 1.990963 1_555
O29 Ti3 1.978043 1_555
O30 Ti0 2.012553 1_565
