# generated using pymatgen
data_Li2Ti4Co(PO5)4
_symmetry_space_group_name_H-M   'P 1'
_cell_length_a   7.26931300
_cell_length_b   7.39010000
_cell_length_c   14.86906998
_cell_angle_alpha   60.65383660
_cell_angle_beta   90.00000000
_cell_angle_gamma   90.00000000
_symmetry_Int_Tables_number   1
_chemical_formula_structural   Li2Ti4Co(PO5)4
_chemical_formula_sum   'Li4 Ti8 Co2 P8 O40'
_cell_volume   696.27680320
_cell_formula_units_Z   2
loop_
 _symmetry_equiv_pos_site_id
 _symmetry_equiv_pos_as_xyz
  1  'x, y, z'
loop_
 _atom_site_type_symbol
 _atom_site_label
 _atom_site_symmetry_multiplicity
 _atom_site_fract_x
 _atom_site_fract_y
 _atom_site_fract_z
 _atom_site_occupancy
  Li  Li0  1  0.99742500  0.24652600  0.74819000  1
  Li  Li1  1  0.50257500  0.24652600  0.24819000  1
  Li  Li2  1  0.00257500  0.75347400  0.25181000  1
  Li  Li3  1  0.49742500  0.75347400  0.75181000  1
  Ti  Ti0  1  0.21652000  0.71166900  0.62756600  1
  Ti  Ti1  1  0.26730800  0.22649800  0.61795400  1
  Ti  Ti2  1  0.73269200  0.77350200  0.38204600  1
  Ti  Ti3  1  0.78348000  0.28833100  0.37243400  1
  Ti  Ti4  1  0.23269200  0.22649800  0.11795400  1
  Ti  Ti5  1  0.28348000  0.71166900  0.12756600  1
  Ti  Ti6  1  0.71652000  0.28833100  0.87243400  1
  Ti  Ti7  1  0.76730800  0.77350200  0.88204600  1
  Co  Co0  1  0.50000000  0.00000000  0.50000000  1
  Co  Co1  1  0.00000000  0.00000000  0.00000000  1
  P  P0  1  0.62969500  0.50000000  0.62462400  1
  P  P1  1  0.86572400  0.99890500  0.62862400  1
  P  P2  1  0.13427600  0.00109500  0.37137600  1
  P  P3  1  0.37030500  0.50000000  0.37537600  1
  P  P4  1  0.63427600  0.99890500  0.12862400  1
  P  P5  1  0.87030500  0.50000000  0.12462400  1
  P  P6  1  0.12969500  0.50000000  0.87537600  1
  P  P7  1  0.36572400  0.00109500  0.87137600  1
  O  O0  1  0.75295100  0.40036300  0.72147400  1
  O  O1  1  0.74036300  0.90908800  0.72325100  1
  O  O2  1  0.16645000  0.47915500  0.63313500  1
  O  O3  1  0.34631100  0.99603200  0.61594000  1
  O  O4  1  0.97882600  0.82346800  0.62555700  1
  O  O5  1  0.50875600  0.32863700  0.62388500  1
  O  O6  1  0.50688600  0.67418000  0.62474300  1
  O  O7  1  0.99536000  0.16378700  0.62968500  1
  O  O8  1  0.75409800  0.59750500  0.52885500  1
  O  O9  1  0.74191000  0.10134900  0.52994900  1
  O  O10  1  0.25809000  0.89865100  0.47005100  1
  O  O11  1  0.24590200  0.40249500  0.47114500  1
  O  O12  1  0.00464000  0.83621300  0.37031500  1
  O  O13  1  0.49311400  0.32582000  0.37525700  1
  O  O14  1  0.49124400  0.67136300  0.37611500  1
  O  O15  1  0.02117400  0.17653200  0.37444300  1
  O  O16  1  0.65368900  0.00396800  0.38406000  1
  O  O17  1  0.83355000  0.52084500  0.36686500  1
  O  O18  1  0.25963700  0.09091200  0.27674900  1
  O  O19  1  0.24704900  0.59963700  0.27852600  1
  O  O20  1  0.75963700  0.90908800  0.22325100  1
  O  O21  1  0.74704900  0.40036300  0.22147400  1
  O  O22  1  0.15368900  0.99603200  0.11594000  1
  O  O23  1  0.33355000  0.47915500  0.13313500  1
  O  O24  1  0.99124400  0.32863700  0.12388500  1
  O  O25  1  0.52117400  0.82346800  0.12555700  1
  O  O26  1  0.50464000  0.16378700  0.12968500  1
  O  O27  1  0.99311400  0.67418000  0.12474300  1
  O  O28  1  0.75809000  0.10134900  0.02994900  1
  O  O29  1  0.74590200  0.59750500  0.02885500  1
  O  O30  1  0.25409800  0.40249500  0.97114500  1
  O  O31  1  0.24191000  0.89865100  0.97005100  1
  O  O32  1  0.00688600  0.32582000  0.87525700  1
  O  O33  1  0.49536000  0.83621300  0.87031500  1
  O  O34  1  0.47882600  0.17653200  0.87444300  1
  O  O35  1  0.00875600  0.67136300  0.87611500  1
  O  O36  1  0.66645000  0.52084500  0.86686500  1
  O  O37  1  0.84631100  0.00396800  0.88406000  1
  O  O38  1  0.25295100  0.59963700  0.77852600  1
  O  O39  1  0.24036300  0.09091200  0.77674900  1
loop_
_geom_bond_atom_site_label_1
_geom_bond_atom_site_label_2
_geom_bond_distance
_geom_bond_site_symmetry_2
Li0 O39 2.035412 1_655
Li0 O0 2.041056 1_555
Li0 O2 2.123474 1_655
Li0 O7 2.129552 1_555
Li0 O37 2.225250 1_555
Li0 O32 2.236744 1_655
Li1 O18 2.035412 1_555
Li1 O21 2.041056 1_555
Li1 O23 2.123474 1_555
Li1 O26 2.129552 1_555
Li1 O16 2.225250 1_555
Li1 O13 2.236744 1_555
Li2 O20 2.035412 1_455
Li2 O19 2.041056 1_555
Li2 O17 2.123474 1_455
Li2 O12 2.129552 1_555
Li2 O22 2.225250 1_555
Li2 O27 2.236744 1_455
Li3 O1 2.035412 1_555
Li3 O38 2.041056 1_555
Li3 O36 2.123474 1_555
Li3 O33 2.129552 1_555
Li3 O3 2.225250 1_555
Li3 O6 2.236744 1_555
Co0 O16 2.042395 1_555
Co0 O3 2.042395 1_545
Co0 O9 2.044158 1_555
Co0 O10 2.044158 1_545
Co0 O13 2.205223 1_555
Co0 O6 2.205223 1_545
Co1 O22 2.042395 1_545
Co1 O37 2.042395 1_454
Co1 O28 2.044158 1_455
Co1 O31 2.044158 1_544
Co1 O27 2.205223 1_445
Co1 O32 2.205223 1_554
O0 P0 1.542542 1_555
O0 Ti6 1.993098 1_555
O1 P1 1.528174 1_555
O1 Ti7 2.073254 1_555
O2 Ti0 1.718264 1_555
O2 Ti1 2.118464 1_555
O3 Ti1 1.811487 1_565
O3 Ti0 2.231629 1_555
O4 P1 1.554640 1_555
O4 Ti0 1.909151 1_655
O5 P0 1.546091 1_555
O5 Ti1 1.929602 1_555
O6 P0 1.567201 1_555
O6 Ti0 2.131954 1_555
O7 P1 1.546567 1_545
O7 Ti1 2.018416 1_655
O8 P0 1.535919 1_555
O8 Ti2 1.923045 1_555
O9 P1 1.564344 1_545
O9 Ti3 2.077016 1_555
O10 P2 1.564344 1_565
O10 Ti0 2.077016 1_555
O11 P3 1.535919 1_555
O11 Ti1 1.923045 1_555
O12 P2 1.546567 1_565
O12 Ti2 2.018416 1_455
O13 P3 1.567201 1_555
O13 Ti3 2.131954 1_555
O14 P3 1.546091 1_555
O14 Ti2 1.929602 1_555
O15 P2 1.554640 1_555
O15 Ti3 1.909151 1_455
O16 Ti2 1.811487 1_545
O16 Ti3 2.231629 1_555
O17 Ti3 1.718264 1_555
O17 Ti2 2.118464 1_555
O18 P2 1.528174 1_555
O18 Ti4 2.073254 1_555
O19 P3 1.542542 1_555
O19 Ti5 1.993098 1_555
O20 P4 1.528174 1_555
O20 Ti2 2.073254 1_555
O21 P5 1.542542 1_555
O21 Ti3 1.993098 1_555
O22 Ti4 1.811487 1_565
O22 Ti5 2.231629 1_555
O23 Ti5 1.718264 1_555
O23 Ti4 2.118464 1_555
O24 P5 1.546091 1_555
O24 Ti4 1.929602 1_655
O25 P4 1.554640 1_555
O25 Ti5 1.909151 1_555
O26 P4 1.546567 1_545
O26 Ti4 2.018416 1_555
O27 P5 1.567201 1_555
O27 Ti5 2.131954 1_655
O28 P4 1.564344 1_545
O28 Ti6 2.077016 1_554
O29 P5 1.535919 1_555
O29 Ti7 1.923045 1_554
O30 P6 1.535919 1_555
O30 Ti4 1.923045 1_556
O31 P7 1.564344 1_565
O31 Ti5 2.077016 1_556
O32 P6 1.567201 1_555
O32 Ti6 2.131954 1_455
O33 P7 1.546567 1_565
O33 Ti7 2.018416 1_555
O34 P7 1.554640 1_555
O34 Ti6 1.909151 1_555
O35 P6 1.546091 1_555
O35 Ti7 1.929602 1_455
O36 Ti6 1.718264 1_555
O36 Ti7 2.118464 1_555
O37 Ti7 1.811487 1_545
O37 Ti6 2.231629 1_555
O38 P6 1.542542 1_555
O38 Ti0 1.993098 1_555
O39 P7 1.528174 1_555
O39 Ti1 2.073254 1_555
