# generated using pymatgen
data_V4(AgO4)3
_symmetry_space_group_name_H-M   'P 1'
_cell_length_a   7.21798300
_cell_length_b   8.91939166
_cell_length_c   9.06192233
_cell_angle_alpha   73.11798994
_cell_angle_beta   78.47875032
_cell_angle_gamma   66.37557352
_symmetry_Int_Tables_number   1
_chemical_formula_structural   V4(AgO4)3
_chemical_formula_sum   'V8 Ag6 O24'
_cell_volume   509.16053830
_cell_formula_units_Z   2
loop_
 _symmetry_equiv_pos_site_id
 _symmetry_equiv_pos_as_xyz
  1  'x, y, z'
loop_
 _atom_site_type_symbol
 _atom_site_label
 _atom_site_symmetry_multiplicity
 _atom_site_fract_x
 _atom_site_fract_y
 _atom_site_fract_z
 _atom_site_occupancy
  V  V0  1  0.34263500  0.29145600  0.03990400  1
  V  V1  1  0.84461100  0.29208100  0.04261400  1
  V  V2  1  0.94234600  0.83576700  0.56411000  1
  V  V3  1  0.43616800  0.84269500  0.56857100  1
  V  V4  1  0.83448600  0.49615100  0.66470200  1
  V  V5  1  0.33615600  0.49780400  0.66252400  1
  V  V6  1  0.95314300  0.62608500  0.93778500  1
  V  V7  1  0.45205400  0.62943700  0.93470200  1
  Ag  Ag0  1  0.72069800  0.94272700  0.22299700  1
  Ag  Ag1  1  0.23508900  0.93295800  0.20231000  1
  Ag  Ag2  1  0.63738700  0.56238000  0.30358300  1
  Ag  Ag3  1  0.14892000  0.56129100  0.30205900  1
  Ag  Ag4  1  0.05418000  0.19392400  0.39344900  1
  Ag  Ag5  1  0.73881600  0.10360900  0.80372200  1
  O  O0  1  0.45751700  0.07547200  0.06720800  1
  O  O1  1  0.92824300  0.07709300  0.06958000  1
  O  O2  1  0.26670400  0.31549800  0.22858100  1
  O  O3  1  0.80021200  0.31708400  0.23118500  1
  O  O4  1  0.89157900  0.65670600  0.11967400  1
  O  O5  1  0.38828600  0.66777100  0.11544000  1
  O  O6  1  0.86518500  0.04630200  0.54525200  1
  O  O7  1  0.32120800  0.05015600  0.53570400  1
  O  O8  1  0.99646000  0.81975500  0.36638000  1
  O  O9  1  0.50723200  0.81426300  0.36949400  1
  O  O10  1  0.39503900  0.47085100  0.48035700  1
  O  O11  1  0.89413000  0.46913800  0.48033600  1
  O  O12  1  0.21667100  0.76957500  0.59861400  1
  O  O13  1  0.71016600  0.78275500  0.60080700  1
  O  O14  1  0.54928500  0.56135300  0.68610000  1
  O  O15  1  0.04601200  0.56360100  0.68495700  1
  O  O16  1  0.89461200  0.29898300  0.77999500  1
  O  O17  1  0.41359300  0.30024100  0.78268400  1
  O  O18  1  0.38734400  0.82122900  0.81164600  1
  O  O19  1  0.88501900  0.82374700  0.81962500  1
  O  O20  1  0.24009600  0.56036700  0.91811900  1
  O  O21  1  0.74151100  0.55993100  0.91728800  1
  O  O22  1  0.57092900  0.35518700  0.00617800  1
  O  O23  1  0.07827600  0.34657700  0.98976100  1
loop_
_geom_bond_atom_site_label_1
_geom_bond_atom_site_label_2
_geom_bond_distance
_geom_bond_site_symmetry_2
Ag0 O9 2.272389 1_555
Ag0 O1 2.291849 1_565
Ag0 O0 2.302456 1_565
Ag0 O8 2.304075 1_555
Ag0 O4 2.703762 1_555
Ag1 O0 2.374626 1_565
Ag1 O8 2.386580 1_455
Ag1 O9 2.421797 1_555
Ag1 O1 2.426684 1_465
Ag1 O5 2.464665 1_555
Ag2 O3 2.250185 1_555
Ag2 O9 2.269433 1_555
Ag2 O10 2.357578 1_555
Ag2 O11 2.422433 1_555
Ag2 O5 2.441793 1_555
Ag2 O4 2.460281 1_555
Ag3 O2 2.258385 1_555
Ag3 O8 2.314359 1_455
Ag3 O10 2.378698 1_555
Ag3 O11 2.433348 1_455
Ag3 O5 2.441749 1_555
Ag3 O4 2.459380 1_455
Ag4 O7 2.252231 1_555
Ag4 O6 2.263840 1_455
Ag4 O2 2.288633 1_555
Ag4 O3 2.292138 1_455
Ag4 O11 2.542959 1_455
Ag5 O19 2.259638 1_545
Ag5 O17 2.303839 1_555
Ag5 O16 2.367260 1_555
Ag5 O6 2.459180 1_555
O0 V0 1.727661 1_555
O1 V1 1.720517 1_555
O2 V0 1.736123 1_555
O3 V1 1.737178 1_555
O4 V6 1.691284 1_554
O5 V7 1.705649 1_554
O6 V2 1.696789 1_545
O7 V3 1.658106 1_545
O8 V2 1.791062 1_555
O9 V3 1.836769 1_555
O10 V5 1.682812 1_555
O11 V4 1.702354 1_555
O12 V3 1.887399 1_555
O12 V2 1.889489 1_455
O12 V5 2.159569 1_555
O13 V2 1.861144 1_555
O13 V3 1.890806 1_555
O13 V4 2.276988 1_555
O14 V4 1.886814 1_555
O14 V5 1.906298 1_555
O14 V3 2.291508 1_555
O14 V7 2.399562 1_555
O15 V4 1.907614 1_455
O15 V5 1.919846 1_555
O15 V2 2.231510 1_455
O15 V6 2.416158 1_455
O16 V4 1.695558 1_555
O16 V1 2.321049 1_556
O17 V5 1.715375 1_555
O17 V0 2.269535 1_556
O18 V7 1.687533 1_555
O18 V3 2.124123 1_555
O19 V6 1.707527 1_555
O19 V2 2.247822 1_555
O20 V6 1.898809 1_455
O20 V7 1.908862 1_555
O20 V0 2.210143 1_556
O20 V5 2.440471 1_555
O21 V6 1.901445 1_555
O21 V7 1.913476 1_555
O21 V1 2.210886 1_556
O21 V4 2.418637 1_555
O22 V0 1.892224 1_555
O22 V1 1.894626 1_555
O22 V7 2.181501 1_554
O23 V1 1.873340 1_456
O23 V0 1.885177 1_556
O23 V6 2.221735 1_455
