# generated using pymatgen
data_Li3(CoO2)4
_symmetry_space_group_name_H-M   'P 1'
_cell_length_a   5.74708760
_cell_length_b   5.74708760
_cell_length_c   5.74708825
_cell_angle_alpha   60.29554548
_cell_angle_beta   60.29554548
_cell_angle_gamma   60.29554934
_symmetry_Int_Tables_number   1
_chemical_formula_structural   Li3(CoO2)4
_chemical_formula_sum   'Li3 Co4 O8'
_cell_volume   135.12119376
_cell_formula_units_Z   1
loop_
 _symmetry_equiv_pos_site_id
 _symmetry_equiv_pos_as_xyz
  1  'x, y, z'
loop_
 _atom_site_type_symbol
 _atom_site_label
 _atom_site_symmetry_multiplicity
 _atom_site_fract_x
 _atom_site_fract_y
 _atom_site_fract_z
 _atom_site_occupancy
  Li  Li0  1  0.00000000  0.00000000  0.50000000  1
  Li  Li1  1  0.50000000  0.00000000  0.00000000  1
  Li  Li2  1  0.00000000  0.50000000  0.00000000  1
  Co  Co0  1  0.50000000  0.00000000  0.50000000  1
  Co  Co1  1  0.00000000  0.50000000  0.50000000  1
  Co  Co2  1  0.50000000  0.50000000  0.00000000  1
  Co  Co3  1  0.50000000  0.50000000  0.50000000  1
  O  O0  1  0.73731300  0.73731300  0.73731300  1
  O  O1  1  0.26654100  0.26654100  0.71872000  1
  O  O2  1  0.26654100  0.71872000  0.26654100  1
  O  O3  1  0.28128000  0.73345900  0.73345900  1
  O  O4  1  0.71872000  0.26654100  0.26654100  1
  O  O5  1  0.73345900  0.28128000  0.73345900  1
  O  O6  1  0.73345900  0.73345900  0.28128000  1
  O  O7  1  0.26268700  0.26268700  0.26268700  1
loop_
_geom_bond_atom_site_label_1
_geom_bond_atom_site_label_2
_geom_bond_distance
_geom_bond_site_symmetry_2
Li0 O4 2.102005 1_455
Li0 O2 2.102005 1_545
Li0 O3 2.102005 1_545
Li0 O5 2.102005 1_455
Li0 O0 2.143832 1_445
Li0 O7 2.143832 1_555
Li1 O5 2.102004 1_554
Li1 O2 2.102004 1_545
Li1 O6 2.102005 1_545
Li1 O1 2.102005 1_554
Li1 O7 2.143833 1_555
Li1 O0 2.143833 1_544
Li2 O3 2.102004 1_554
Li2 O4 2.102004 1_455
Li2 O6 2.102005 1_455
Li2 O1 2.102005 1_554
Li2 O7 2.143833 1_555
Li2 O0 2.143833 1_454
Co0 O7 1.939507 1_555
Co0 O0 1.939507 1_545
Co0 O4 1.981595 1_555
Co0 O3 1.981595 1_545
Co0 O1 1.981595 1_555
Co0 O6 1.981595 1_545
Co1 O7 1.939507 1_555
Co1 O0 1.939507 1_455
Co1 O2 1.981595 1_555
Co1 O5 1.981595 1_455
Co1 O1 1.981595 1_555
Co1 O6 1.981595 1_455
Co2 O7 1.939507 1_555
Co2 O0 1.939507 1_554
Co2 O4 1.981596 1_555
Co2 O2 1.981596 1_555
Co2 O3 1.981596 1_554
Co2 O5 1.981596 1_554
Co3 O6 1.903054 1_555
Co3 O1 1.903054 1_555
Co3 O5 1.903055 1_555
Co3 O3 1.903055 1_555
Co3 O2 1.903055 1_555
Co3 O4 1.903055 1_555
