# generated using pymatgen
data_BeAlSiHO5
_symmetry_space_group_name_H-M   'P 1'
_cell_length_a   14.49403700
_cell_length_b   4.67872400
_cell_length_c   4.82858314
_cell_angle_alpha   79.68615881
_cell_angle_beta   90.00000000
_cell_angle_gamma   90.00000000
_symmetry_Int_Tables_number   1
_chemical_formula_structural   BeAlSiHO5
_chemical_formula_sum   'Be4 Al4 Si4 H4 O20'
_cell_volume   322.15270539
_cell_formula_units_Z   4
loop_
 _symmetry_equiv_pos_site_id
 _symmetry_equiv_pos_as_xyz
  1  'x, y, z'
loop_
 _atom_site_type_symbol
 _atom_site_label
 _atom_site_symmetry_multiplicity
 _atom_site_fract_x
 _atom_site_fract_y
 _atom_site_fract_z
 _atom_site_occupancy
  Be  Be0  1  0.30089900  0.54272500  0.17505500  1
  Be  Be1  1  0.80089900  0.45727500  0.32494500  1
  Be  Be2  1  0.19910100  0.54272500  0.67505500  1
  Be  Be3  1  0.69910100  0.45727500  0.82494500  1
  Al  Al0  1  0.44474600  0.04183100  0.24940900  1
  Al  Al1  1  0.94474600  0.95816900  0.25059100  1
  Al  Al2  1  0.05525400  0.04183100  0.74940900  1
  Al  Al3  1  0.55525400  0.95816900  0.75059100  1
  Si  Si0  1  0.10045800  0.46250000  0.17721700  1
  Si  Si1  1  0.60045800  0.53750000  0.32278300  1
  Si  Si2  1  0.39954200  0.46250000  0.67721700  1
  Si  Si3  1  0.89954200  0.53750000  0.82278300  1
  H  H0  1  0.29488600  0.01405000  0.03262200  1
  H  H1  1  0.79488600  0.98595000  0.46737800  1
  H  H2  1  0.20511400  0.01405000  0.53262200  1
  H  H3  1  0.70511400  0.98595000  0.96737800  1
  O  O0  1  0.87601900  0.65380500  0.11983600  1
  O  O1  1  0.05234100  0.78664100  0.10026700  1
  O  O2  1  0.70012400  0.52608900  0.15523000  1
  O  O3  1  0.53302900  0.76528100  0.11752900  1
  O  O4  1  0.33215500  0.87626300  0.16189100  1
  O  O5  1  0.83215500  0.12373700  0.33810900  1
  O  O6  1  0.03302900  0.23471900  0.38247100  1
  O  O7  1  0.20012400  0.47391100  0.34477000  1
  O  O8  1  0.55234100  0.21335900  0.39973300  1
  O  O9  1  0.37601900  0.34619500  0.38016400  1
  O  O10  1  0.62398100  0.65380500  0.61983600  1
  O  O11  1  0.44765900  0.78664100  0.60026700  1
  O  O12  1  0.79987600  0.52608900  0.65523000  1
  O  O13  1  0.96697100  0.76528100  0.61752900  1
  O  O14  1  0.16784500  0.87626300  0.66189100  1
  O  O15  1  0.66784500  0.12373700  0.83810900  1
  O  O16  1  0.46697100  0.23471900  0.88247100  1
  O  O17  1  0.29987600  0.47391100  0.84477000  1
  O  O18  1  0.94765900  0.21335900  0.89973300  1
  O  O19  1  0.12398100  0.34619500  0.88016400  1
loop_
_geom_bond_atom_site_label_1
_geom_bond_atom_site_label_2
_geom_bond_distance
_geom_bond_site_symmetry_2
Be0 O4 1.615244 1_555
Be0 O9 1.638822 1_555
Be0 O7 1.677556 1_555
Be0 O17 1.682604 1_554
Be1 O5 1.615244 1_555
Be1 O0 1.638822 1_555
Be1 O2 1.677556 1_555
Be1 O12 1.682604 1_555
Be2 O14 1.615244 1_555
Be2 O19 1.638822 1_555
Be2 O17 1.677556 1_555
Be2 O7 1.682604 1_555
Be3 O15 1.615244 1_555
Be3 O10 1.638822 1_555
Be3 O12 1.677556 1_555
Be3 O2 1.682604 1_556
Al0 O16 1.866788 1_554
Al0 O4 1.886523 1_545
Al0 O11 1.890280 1_545
Al0 O9 1.934093 1_555
Al0 O8 1.952307 1_555
Al0 O3 2.003008 1_545
Al1 O13 1.866788 1_555
Al1 O5 1.886523 1_565
Al1 O18 1.890280 1_564
Al1 O0 1.934093 1_555
Al1 O1 1.952307 1_655
Al1 O6 2.003008 1_665
Al2 O6 1.866788 1_555
Al2 O14 1.886523 1_545
Al2 O1 1.890280 1_546
Al2 O19 1.934093 1_555
Al2 O18 1.952307 1_455
Al2 O13 2.003008 1_445
Al3 O3 1.866788 1_556
Al3 O15 1.886523 1_565
Al3 O8 1.890280 1_565
Al3 O10 1.934093 1_555
Al3 O11 1.952307 1_555
Al3 O16 2.003008 1_565
H0 O4 0.976170 1_545
H1 O5 0.976170 1_565
H2 O14 0.976170 1_545
H3 O15 0.976170 1_565
O0 Si3 1.658066 1_554
O1 Si0 1.650041 1_555
O2 Si1 1.661213 1_555
O3 Si1 1.641633 1_555
O6 Si0 1.641633 1_555
O7 Si0 1.661213 1_555
O8 Si1 1.650041 1_555
O9 Si2 1.658066 1_555
O10 Si1 1.658066 1_555
O11 Si2 1.650041 1_555
O12 Si3 1.661213 1_555
O13 Si3 1.641633 1_555
O16 Si2 1.641633 1_555
O17 Si2 1.661213 1_555
O18 Si3 1.650041 1_555
O19 Si0 1.658066 1_556
