# generated using pymatgen
data_KTiPCO7
_symmetry_space_group_name_H-M   'P 1'
_cell_length_a   6.41377600
_cell_length_b   5.63453800
_cell_length_c   9.85624559
_cell_angle_alpha   88.72022284
_cell_angle_beta   90.00000000
_cell_angle_gamma   90.00000000
_symmetry_Int_Tables_number   1
_chemical_formula_structural   KTiPCO7
_chemical_formula_sum   'K2 Ti2 P2 C2 O14'
_cell_volume   356.10270339
_cell_formula_units_Z   2
loop_
 _symmetry_equiv_pos_site_id
 _symmetry_equiv_pos_as_xyz
  1  'x, y, z'
loop_
 _atom_site_type_symbol
 _atom_site_label
 _atom_site_symmetry_multiplicity
 _atom_site_fract_x
 _atom_site_fract_y
 _atom_site_fract_z
 _atom_site_occupancy
  K  K0  1  0.56850200  0.75008100  0.77084200  1
  K  K1  1  0.06850200  0.24991900  0.22915800  1
  Ti  Ti0  1  0.22369400  0.22786000  0.65347100  1
  Ti  Ti1  1  0.72369400  0.77214000  0.34652900  1
  P  P0  1  0.72999900  0.26351600  0.54908900  1
  P  P1  1  0.22999900  0.73648400  0.45091100  1
  C  C0  1  0.26406600  0.28166000  0.89727000  1
  C  C1  1  0.76406600  0.71834000  0.10273000  1
  O  O0  1  0.79597100  0.69419900  0.98130100  1
  O  O1  1  0.25059300  0.07323300  0.83366000  1
  O  O2  1  0.24114800  0.45729400  0.80441600  1
  O  O3  1  0.92403100  0.22704100  0.64119900  1
  O  O4  1  0.53918600  0.22743200  0.64168600  1
  O  O5  1  0.23412100  0.91965400  0.56491300  1
  O  O6  1  0.73083700  0.51794200  0.48629700  1
  O  O7  1  0.23083700  0.48205800  0.51370300  1
  O  O8  1  0.73412100  0.08034600  0.43508700  1
  O  O9  1  0.03918600  0.77256800  0.35831400  1
  O  O10  1  0.42403100  0.77295900  0.35880100  1
  O  O11  1  0.74114800  0.54270600  0.19558400  1
  O  O12  1  0.75059300  0.92676700  0.16634000  1
  O  O13  1  0.29597100  0.30580100  0.01869900  1
loop_
_geom_bond_atom_site_label_1
_geom_bond_atom_site_label_2
_geom_bond_distance
_geom_bond_site_symmetry_2
K0 O0 2.549770 1_555
K0 O2 2.686058 1_555
K0 O1 2.811862 1_565
K0 O4 2.955868 1_565
K0 O5 3.089566 1_555
K0 O4 3.239703 1_555
K0 O6 3.290022 1_555
K1 O13 2.549770 1_555
K1 O11 2.686058 1_455
K1 O12 2.811862 1_445
K1 O9 2.955868 1_545
K1 O8 3.089566 1_455
K1 O9 3.239703 1_555
K1 O7 3.290022 1_555
C0 O13 1.224769 1_556
C0 O2 1.340920 1_555
C0 O1 1.346336 1_555
C1 O0 1.224769 1_554
C1 O11 1.340920 1_555
C1 O12 1.346336 1_555
O1 Ti0 1.968211 1_555
O2 Ti0 1.995761 1_555
O3 P0 1.551398 1_555
O3 Ti0 1.925786 1_655
O4 P0 1.537452 1_555
O4 Ti0 2.026831 1_555
O5 P1 1.542801 1_555
O5 Ti0 1.962096 1_565
O6 P0 1.548728 1_555
O6 Ti1 1.965492 1_555
O7 P1 1.548728 1_555
O7 Ti0 1.965492 1_555
O8 P0 1.542801 1_555
O8 Ti1 1.962096 1_545
O9 P1 1.537452 1_555
O9 Ti1 2.026831 1_455
O10 P1 1.551398 1_555
O10 Ti1 1.925786 1_555
O11 Ti1 1.995761 1_555
O12 Ti1 1.968211 1_555
