# generated using pymatgen
data_BaYCl5
_symmetry_space_group_name_H-M   'P 1'
_cell_length_a   7.63655940
_cell_length_b   7.63655940
_cell_length_c   10.47655978
_cell_angle_alpha   69.79841075
_cell_angle_beta   69.79841075
_cell_angle_gamma   70.61901104
_symmetry_Int_Tables_number   1
_chemical_formula_structural   BaYCl5
_chemical_formula_sum   'Ba2 Y2 Cl10'
_cell_volume   522.19349375
_cell_formula_units_Z   2
loop_
 _symmetry_equiv_pos_site_id
 _symmetry_equiv_pos_as_xyz
  1  'x, y, z'
loop_
 _atom_site_type_symbol
 _atom_site_label
 _atom_site_symmetry_multiplicity
 _atom_site_fract_x
 _atom_site_fract_y
 _atom_site_fract_z
 _atom_site_occupancy
  Ba  Ba0  1  0.55175700  0.44824300  0.25000000  1
  Ba  Ba1  1  0.44824300  0.55175700  0.75000000  1
  Y  Y0  1  0.00000000  0.00000000  0.00000000  1
  Y  Y1  1  0.00000000  0.00000000  0.50000000  1
  Cl  Cl0  1  0.79011100  0.74930700  0.11928700  1
  Cl  Cl1  1  0.28697500  0.68859300  0.47238300  1
  Cl  Cl2  1  0.74930700  0.79011100  0.61928700  1
  Cl  Cl3  1  0.92323300  0.07676700  0.25000000  1
  Cl  Cl4  1  0.31140700  0.71302500  0.02761700  1
  Cl  Cl5  1  0.68859300  0.28697500  0.97238300  1
  Cl  Cl6  1  0.07676700  0.92323300  0.75000000  1
  Cl  Cl7  1  0.25069300  0.20988900  0.38071300  1
  Cl  Cl8  1  0.71302500  0.31140700  0.52761700  1
  Cl  Cl9  1  0.20988900  0.25069300  0.88071300  1
loop_
_geom_bond_atom_site_label_1
_geom_bond_atom_site_label_2
_geom_bond_distance
_geom_bond_site_symmetry_2
Ba0 Cl0 3.058717 1_555
Ba0 Cl7 3.058717 1_555
Ba0 Cl4 3.181517 1_555
Ba0 Cl1 3.181517 1_555
Ba0 Cl8 3.253995 1_555
Ba0 Cl5 3.253995 1_554
Ba0 Cl3 3.279299 1_555
Ba1 Cl2 3.058717 1_555
Ba1 Cl9 3.058717 1_555
Ba1 Cl8 3.181517 1_555
Ba1 Cl5 3.181517 1_555
Ba1 Cl4 3.253995 1_556
Ba1 Cl1 3.253995 1_555
Ba1 Cl6 3.279299 1_555
Cl0 Y0 2.607041 1_665
Cl1 Y1 2.668339 1_565
Cl2 Y1 2.607041 1_665
Cl3 Y0 2.705392 1_655
Cl3 Y1 2.705392 1_655
Cl4 Y0 2.668339 1_565
Cl5 Y0 2.668339 1_656
Cl6 Y1 2.705392 1_565
Cl6 Y0 2.705392 1_566
Cl7 Y1 2.607041 1_555
Cl8 Y1 2.668339 1_655
Cl9 Y0 2.607041 1_556
