# generated using pymatgen
data_Li6Mn(OF2)2
_symmetry_space_group_name_H-M   'P 1'
_cell_length_a   5.49739971
_cell_length_b   5.49739971
_cell_length_c   11.04768801
_cell_angle_alpha   78.27846372
_cell_angle_beta   78.27846372
_cell_angle_gamma   99.93330141
_symmetry_Int_Tables_number   1
_chemical_formula_structural   Li6Mn(OF2)2
_chemical_formula_sum   'Li12 Mn2 O4 F8'
_cell_volume   312.03803779
_cell_formula_units_Z   2
loop_
 _symmetry_equiv_pos_site_id
 _symmetry_equiv_pos_as_xyz
  1  'x, y, z'
loop_
 _atom_site_type_symbol
 _atom_site_label
 _atom_site_symmetry_multiplicity
 _atom_site_fract_x
 _atom_site_fract_y
 _atom_site_fract_z
 _atom_site_occupancy
  Li  Li0  1  0.31946200  0.00328300  0.18679000  1
  Li  Li1  1  0.40217200  0.97517100  0.66620500  1
  Li  Li2  1  0.35716800  0.66837900  0.00739000  1
  Li  Li3  1  0.33162100  0.64283200  0.49261000  1
  Li  Li4  1  0.00328300  0.31946200  0.68679000  1
  Li  Li5  1  0.97517100  0.40217200  0.16620500  1
  Li  Li6  1  0.02482900  0.59782800  0.83379500  1
  Li  Li7  1  0.99671700  0.68053800  0.31321000  1
  Li  Li8  1  0.66837900  0.35716800  0.50739000  1
  Li  Li9  1  0.64283200  0.33162100  0.99261000  1
  Li  Li10  1  0.59782800  0.02482900  0.33379500  1
  Li  Li11  1  0.68053800  0.99671700  0.81321000  1
  Mn  Mn0  1  0.00000000  0.00000000  0.00000000  1
  Mn  Mn1  1  0.00000000  0.00000000  0.50000000  1
  O  O0  1  0.23798100  0.89126700  0.37051600  1
  O  O1  1  0.10873300  0.76201900  0.12948400  1
  O  O2  1  0.89126700  0.23798100  0.87051600  1
  O  O3  1  0.76201900  0.10873300  0.62948400  1
  F  F0  1  0.30370500  0.85713800  0.84976100  1
  F  F1  1  0.14286200  0.69629500  0.65023900  1
  F  F2  1  0.71932700  0.69484100  0.93340600  1
  F  F3  1  0.69484100  0.71932700  0.43340600  1
  F  F4  1  0.30515900  0.28067300  0.56659400  1
  F  F5  1  0.28067300  0.30515900  0.06659400  1
  F  F6  1  0.85713800  0.30370500  0.34976100  1
  F  F7  1  0.69629500  0.14286200  0.15023900  1
loop_
_geom_bond_atom_site_label_1
_geom_bond_atom_site_label_2
_geom_bond_distance
_geom_bond_site_symmetry_2
Li0 O1 1.900279 1_545
Li0 O0 1.930620 1_545
Li1 O3 1.915421 1_565
Li2 O1 1.930246 1_555
Li3 O0 1.930246 1_555
Li4 O3 1.900279 1_455
Li4 O2 1.930620 1_455
Li5 O1 1.915421 1_655
Li6 O2 1.915421 1_455
Li7 O0 1.900279 1_655
Li7 O1 1.930620 1_655
Li8 O3 1.930246 1_555
Li9 O2 1.930246 1_555
Li10 O0 1.915421 1_545
Li11 O2 1.900279 1_565
Li11 O3 1.930620 1_565
Mn0 O1 1.992998 1_545
Mn0 O2 1.992998 1_454
Mn1 O3 1.992998 1_455
Mn1 O0 1.992998 1_545
F0 Li1 1.929892 1_555
F0 Li2 1.942864 1_556
F0 Li6 1.967656 1_555
F0 Li11 2.007282 1_555
F0 Mn0 2.452614 1_566
F1 Li6 1.929892 1_555
F1 Li3 1.942864 1_555
F1 Li1 1.967656 1_555
F1 Li4 2.007282 1_555
F1 Mn1 2.452614 1_565
F2 Li9 1.913012 1_555
F2 Li2 1.960515 1_556
F2 Li11 1.975998 1_555
F2 Li6 2.027957 1_655
F2 Mn0 2.409562 1_666
F3 Li3 1.913012 1_555
F3 Li8 1.960515 1_555
F3 Li7 1.975998 1_555
F3 Li10 2.027957 1_565
F3 Mn1 2.409562 1_665
F4 Li8 1.913012 1_555
F4 Li3 1.960515 1_555
F4 Li4 1.975998 1_555
F4 Li1 2.027957 1_545
F4 Mn1 2.409562 1_555
F5 Li2 1.913012 1_555
F5 Li9 1.960515 1_554
F5 Li0 1.975998 1_555
F5 Li5 2.027957 1_455
F5 Mn0 2.409562 1_555
F6 Li5 1.929892 1_555
F6 Li8 1.942864 1_555
F6 Li10 1.967656 1_555
F6 Li7 2.007282 1_555
F6 Mn1 2.452614 1_655
F7 Li10 1.929892 1_555
F7 Li9 1.942864 1_554
F7 Li5 1.967656 1_555
F7 Li0 2.007282 1_555
F7 Mn0 2.452614 1_655
