# generated using pymatgen
data_Li24Ti11CrO36
_symmetry_space_group_name_H-M   'P 1'
_cell_length_a   8.84540164
_cell_length_b   8.84540164
_cell_length_c   9.82405431
_cell_angle_alpha   81.70565643
_cell_angle_beta   81.70565643
_cell_angle_gamma   59.78515705
_symmetry_Int_Tables_number   1
_chemical_formula_structural   Li24Ti11CrO36
_chemical_formula_sum   'Li24 Ti11 Cr1 O36'
_cell_volume   654.96057645
_cell_formula_units_Z   1
loop_
 _symmetry_equiv_pos_site_id
 _symmetry_equiv_pos_as_xyz
  1  'x, y, z'
loop_
 _atom_site_type_symbol
 _atom_site_label
 _atom_site_symmetry_multiplicity
 _atom_site_fract_x
 _atom_site_fract_y
 _atom_site_fract_z
 _atom_site_occupancy
  Li  Li0  1  0.82881800  0.00502800  0.24893400  1
  Li  Li1  1  0.74997200  0.25002800  0.00000000  1
  Li  Li2  1  0.66531900  0.16816100  0.74870900  1
  Li  Li3  1  0.58314800  0.08438600  0.50048300  1
  Li  Li4  1  0.50549500  0.32782500  0.25107800  1
  Li  Li5  1  0.49984300  0.00017100  0.24991100  1
  Li  Li6  1  0.33944700  0.16095000  0.75009200  1
  Li  Li7  1  0.32911700  0.50387300  0.74950200  1
  Li  Li8  1  0.25016900  0.74983100  0.50000000  1
  Li  Li9  1  0.16200900  0.33913100  0.24997500  1
  Li  Li10  1  0.16538600  0.66761800  0.24906800  1
  Li  Li11  1  0.08333800  0.58334200  0.99987500  1
  Li  Li12  1  0.00563600  0.82893700  0.74932600  1
  Li  Li13  1  0.99982900  0.50015700  0.75008900  1
  Li  Li14  1  0.99497200  0.17118200  0.75106600  1
  Li  Li15  1  0.91561400  0.41685200  0.49951700  1
  Li  Li16  1  0.83905000  0.66055300  0.24990800  1
  Li  Li17  1  0.83183900  0.33468100  0.25129100  1
  Li  Li18  1  0.67217500  0.49450500  0.74892200  1
  Li  Li19  1  0.66086900  0.83799100  0.75002500  1
  Li  Li20  1  0.49612700  0.67088300  0.25049800  1
  Li  Li21  1  0.41665800  0.91666200  0.00012500  1
  Li  Li22  1  0.33238200  0.83461400  0.75093200  1
  Li  Li23  1  0.17106300  0.99436400  0.25067400  1
  Ti  Ti0  1  0.91426900  0.08573100  0.50000000  1
  Ti  Ti1  1  0.41771900  0.58228100  0.00000000  1
  Ti  Ti2  1  0.41595300  0.25086600  0.00007700  1
  Ti  Ti3  1  0.25261800  0.41282400  0.50260000  1
  Ti  Ti4  1  0.24949400  0.08279400  0.49982000  1
  Ti  Ti5  1  0.08262600  0.91737400  0.00000000  1
  Ti  Ti6  1  0.08433100  0.24902100  0.00034700  1
  Ti  Ti7  1  0.91720600  0.75050600  0.50018000  1
  Ti  Ti8  1  0.75097900  0.91566900  0.99965300  1
  Ti  Ti9  1  0.74913400  0.58404700  0.99992300  1
  Ti  Ti10  1  0.58717600  0.74738200  0.49740000  1
  Cr  Cr0  1  0.57969000  0.42031000  0.50000000  1
  O  O0  1  0.88114600  0.02481800  0.88677800  1
  O  O1  1  0.71186300  0.21797700  0.38640100  1
  O  O2  1  0.61842200  0.11809000  0.11554100  1
  O  O3  1  0.54855300  0.04851700  0.88460100  1
  O  O4  1  0.52464800  0.38093300  0.88715200  1
  O  O5  1  0.45226400  0.30749900  0.61293600  1
  O  O6  1  0.30862900  0.45237900  0.11347800  1
  O  O7  1  0.38636200  0.52345200  0.38833100  1
  O  O8  1  0.28576000  0.14193400  0.11309000  1
  O  O9  1  0.35809700  0.21425400  0.38690000  1
  O  O10  1  0.21532000  0.71520200  0.88442600  1
  O  O11  1  0.21451000  0.35787700  0.88690600  1
  O  O12  1  0.19152400  0.04753500  0.88697500  1
  O  O13  1  0.14274500  0.28600100  0.61347400  1
  O  O14  1  0.11843300  0.61884500  0.61539600  1
  O  O15  1  0.97518200  0.11885400  0.11322200  1
  O  O16  1  0.05022700  0.54921100  0.38432500  1
  O  O17  1  0.04756800  0.19143800  0.38692600  1
  O  O18  1  0.95246500  0.80847600  0.11302500  1
  O  O19  1  0.95148300  0.45144700  0.11539900  1
  O  O20  1  0.02315800  0.88273500  0.38654100  1
  O  O21  1  0.88191000  0.38157800  0.88445900  1
  O  O22  1  0.85806600  0.71424000  0.88691000  1
  O  O23  1  0.80856200  0.95243200  0.61307400  1
  O  O24  1  0.78574600  0.64190300  0.61310000  1
  O  O25  1  0.78202300  0.28813700  0.61359900  1
  O  O26  1  0.64212300  0.78549000  0.11309400  1
  O  O27  1  0.71399900  0.85725500  0.38652600  1
  O  O28  1  0.61906700  0.47535200  0.11284800  1
  O  O29  1  0.69250100  0.54773600  0.38706400  1
  O  O30  1  0.54762100  0.69137100  0.88652200  1
  O  O31  1  0.47654800  0.61363800  0.61166900  1
  O  O32  1  0.45078900  0.94977300  0.61567500  1
  O  O33  1  0.38115500  0.88156700  0.38460400  1
  O  O34  1  0.28479800  0.78468000  0.11557400  1
  O  O35  1  0.11726500  0.97684200  0.61345900  1
loop_
_geom_bond_atom_site_label_1
_geom_bond_atom_site_label_2
_geom_bond_distance
_geom_bond_site_symmetry_2
Li0 O20 2.080785 1_645
Li0 O18 2.082341 1_545
Li0 O2 2.152483 1_555
Li0 O1 2.193540 1_555
Li0 O15 2.212245 1_555
Li0 O27 2.235496 1_545
Li1 O28 2.118144 1_555
Li1 O4 2.118144 1_554
Li1 O15 2.119526 1_555
Li1 O0 2.119526 1_554
Li1 O2 2.146608 1_555
Li1 O21 2.146608 1_554
Li2 O25 2.062652 1_555
Li2 O3 2.064875 1_555
Li2 O5 2.182405 1_555
Li2 O4 2.198505 1_555
Li2 O23 2.198910 1_545
Li2 O0 2.215099 1_555
Li3 O5 2.101426 1_555
Li3 O23 2.117268 1_545
Li3 O9 2.120595 1_555
Li3 O1 2.133664 1_555
Li3 O27 2.136341 1_545
Li3 O32 2.168220 1_545
Li4 O7 2.085857 1_555
Li4 O6 2.095707 1_555
Li4 O1 2.141467 1_555
Li4 O2 2.162470 1_555
Li4 O9 2.217900 1_555
Li4 O28 2.229512 1_555
Li5 O2 2.057919 1_555
Li5 O33 2.064203 1_545
Li5 O27 2.195791 1_545
Li5 O8 2.196164 1_555
Li5 O9 2.197237 1_555
Li5 O26 2.199872 1_545
Li6 O13 2.088186 1_555
Li6 O11 2.090803 1_555
Li6 O3 2.151961 1_555
Li6 O32 2.165130 1_545
Li6 O5 2.214008 1_555
Li6 O12 2.225092 1_555
Li7 O5 2.085680 1_555
Li7 O4 2.088079 1_555
Li7 O14 2.158052 1_555
Li7 O10 2.168070 1_555
Li7 O31 2.205093 1_555
Li7 O11 2.222024 1_555
Li8 O7 2.118724 1_555
Li8 O31 2.118724 1_555
Li8 O35 2.132669 1_555
Li8 O20 2.132669 1_555
Li8 O14 2.141068 1_555
Li8 O33 2.141068 1_555
Li9 O9 2.086654 1_555
Li9 O8 2.092718 1_555
Li9 O16 2.157445 1_555
Li9 O19 2.161471 1_455
Li9 O6 2.214013 1_555
Li9 O17 2.229911 1_555
Li10 O16 2.044979 1_555
Li10 O34 2.053555 1_555
Li10 O18 2.183959 1_455
Li10 O6 2.195742 1_555
Li10 O20 2.206621 1_555
Li10 O7 2.253428 1_555
Li11 O22 2.118470 1_455
Li11 O18 2.118622 1_456
Li11 O11 2.119753 1_555
Li11 O6 2.122239 1_556
Li11 O19 2.148260 1_456
Li11 O10 2.148589 1_555
Li12 O23 2.087701 1_455
Li12 O0 2.088959 1_465
Li12 O14 2.154211 1_555
Li12 O10 2.158856 1_555
Li12 O35 2.210037 1_555
Li12 O22 2.233443 1_455
Li13 O21 2.057919 1_555
Li13 O14 2.064203 1_655
Li13 O13 2.195791 1_655
Li13 O22 2.196164 1_555
Li13 O24 2.197237 1_555
Li13 O11 2.199872 1_655
Li14 O35 2.080785 1_645
Li14 O12 2.082341 1_655
Li14 O21 2.152483 1_555
Li14 O25 2.193540 1_555
Li14 O0 2.212245 1_555
Li14 O13 2.235496 1_655
Li15 O29 2.101426 1_555
Li15 O17 2.117268 1_655
Li15 O24 2.120595 1_555
Li15 O25 2.133664 1_555
Li15 O13 2.136341 1_655
Li15 O16 2.168220 1_655
Li16 O27 2.088186 1_555
Li16 O26 2.090803 1_555
Li16 O19 2.151961 1_555
Li16 O16 2.165130 1_655
Li16 O29 2.214008 1_555
Li16 O18 2.225092 1_555
Li17 O1 2.062652 1_555
Li17 O19 2.064875 1_555
Li17 O29 2.182405 1_555
Li17 O28 2.198505 1_555
Li17 O17 2.198910 1_655
Li17 O15 2.215099 1_555
Li18 O31 2.085857 1_555
Li18 O30 2.095707 1_555
Li18 O25 2.141467 1_555
Li18 O21 2.162470 1_555
Li18 O24 2.217900 1_555
Li18 O4 2.229512 1_555
Li19 O24 2.086654 1_555
Li19 O22 2.092718 1_555
Li19 O32 2.157445 1_555
Li19 O3 2.161471 1_565
Li19 O30 2.214013 1_555
Li19 O23 2.229911 1_555
Li20 O29 2.085680 1_555
Li20 O28 2.088079 1_555
Li20 O33 2.158052 1_555
Li20 O34 2.168070 1_555
Li20 O7 2.205093 1_555
Li20 O26 2.222024 1_555
Li21 O8 2.118470 1_565
Li21 O12 2.118622 1_564
Li21 O26 2.119753 1_555
Li21 O30 2.122239 1_554
Li21 O3 2.148260 1_564
Li21 O34 2.148589 1_555
Li22 O32 2.044979 1_555
Li22 O10 2.053555 1_555
Li22 O12 2.183959 1_565
Li22 O30 2.195742 1_555
Li22 O35 2.206621 1_555
Li22 O31 2.253428 1_555
Li23 O17 2.087701 1_565
Li23 O15 2.088959 1_465
Li23 O33 2.154211 1_555
Li23 O34 2.158856 1_555
Li23 O20 2.210037 1_555
Li23 O8 2.233443 1_565
Cr0 O31 1.908506 1_555
Cr0 O7 1.908506 1_555
Cr0 O25 1.977181 1_555
Cr0 O1 1.977181 1_555
Cr0 O29 1.987187 1_555
Cr0 O5 1.987187 1_555
O0 Ti5 1.969460 1_646
O0 Ti8 1.982175 1_545
O1 Ti0 1.977661 1_555
O2 Ti2 1.989518 1_555
O2 Ti8 1.991686 1_544
O3 Ti8 1.986806 1_545
O3 Ti2 1.988778 1_556
O4 Ti1 1.966545 1_556
O4 Ti2 1.978912 1_556
O5 Ti3 1.940744 1_555
O6 Ti2 1.970836 1_555
O6 Ti1 1.982477 1_555
O7 Ti3 2.020481 1_555
O8 Ti6 1.966356 1_555
O8 Ti2 1.981556 1_555
O9 Ti3 1.966762 1_555
O9 Ti4 1.987521 1_555
O10 Ti5 1.988343 1_556
O10 Ti1 1.989829 1_556
O11 Ti2 1.969115 1_556
O11 Ti6 1.982708 1_556
O12 Ti6 1.970544 1_556
O12 Ti5 1.981183 1_546
O13 Ti3 1.956720 1_555
O13 Ti4 1.983859 1_555
O14 Ti7 1.979954 1_455
O14 Ti3 1.995936 1_555
O15 Ti5 1.969460 1_645
O15 Ti6 1.982175 1_655
O16 Ti7 1.984911 1_455
O16 Ti3 2.008085 1_555
O17 Ti4 1.969827 1_555
O17 Ti0 1.982557 1_455
O18 Ti8 1.970544 1_554
O18 Ti5 1.981183 1_655
O19 Ti6 1.986806 1_655
O19 Ti9 1.988778 1_554
O20 Ti7 1.979225 1_455
O20 Ti0 1.980209 1_465
O21 Ti9 1.989518 1_555
O21 Ti6 1.991686 1_656
O22 Ti8 1.966356 1_555
O22 Ti9 1.981556 1_555
O23 Ti7 1.969827 1_555
O23 Ti0 1.982557 1_565
O24 Ti10 1.966762 1_555
O24 Ti7 1.987521 1_555
O25 Ti0 1.977661 1_555
O26 Ti9 1.969115 1_554
O26 Ti8 1.982708 1_554
O27 Ti10 1.956720 1_555
O27 Ti7 1.983859 1_555
O28 Ti1 1.966545 1_555
O28 Ti9 1.978912 1_554
O29 Ti10 1.940744 1_555
O30 Ti9 1.970836 1_555
O30 Ti1 1.982477 1_556
O31 Ti10 2.020481 1_555
O32 Ti4 1.984911 1_565
O32 Ti10 2.008085 1_555
O33 Ti4 1.979954 1_565
O33 Ti10 1.995936 1_555
O34 Ti5 1.988343 1_555
O34 Ti1 1.989829 1_555
O35 Ti4 1.979225 1_565
O35 Ti0 1.980209 1_465
