# generated using pymatgen
data_Sr5U5O19
_symmetry_space_group_name_H-M   'P 1'
_cell_length_a   6.82430696
_cell_length_b   7.70948946
_cell_length_c   8.70107565
_cell_angle_alpha   99.96522426
_cell_angle_beta   97.20257188
_cell_angle_gamma   107.07858977
_symmetry_Int_Tables_number   1
_chemical_formula_structural   Sr5U5O19
_chemical_formula_sum   'Sr5 U5 O19'
_cell_volume   423.37633593
_cell_formula_units_Z   1
loop_
 _symmetry_equiv_pos_site_id
 _symmetry_equiv_pos_as_xyz
  1  'x, y, z'
loop_
 _atom_site_type_symbol
 _atom_site_label
 _atom_site_symmetry_multiplicity
 _atom_site_fract_x
 _atom_site_fract_y
 _atom_site_fract_z
 _atom_site_occupancy
  Sr  Sr0  1  0.80376380  0.10553142  0.60469810  1
  Sr  Sr1  1  0.38432078  0.29418457  0.79659906  1
  Sr  Sr2  1  0.61003560  0.70383347  0.20622544  1
  Sr  Sr3  1  0.99774745  0.49914925  0.99429549  1
  Sr  Sr4  1  0.20146355  0.90173686  0.38939059  1
  U  U0  1  0.78181420  0.59989867  0.60209293  1
  U  U1  1  0.59569573  0.19838469  0.19188544  1
  U  U2  1  0.99778403  0.00215221  0.99901881  1
  U  U3  1  0.41232087  0.80749231  0.81309085  1
  U  U4  1  0.20346982  0.38594208  0.38895086  1
  O  O0  1  0.33926317  0.04191546  0.96353773  1
  O  O1  1  0.43175582  0.97689781  0.66458803  1
  O  O2  1  0.03375646  0.19869713  0.87090971  1
  O  O3  1  0.72895733  0.40338642  0.73007465  1
  O  O4  1  0.16128616  0.19643904  0.52001534  1
  O  O5  1  0.37039628  0.61348179  0.93945763  1
  O  O6  1  0.93686390  0.25444819  0.17907984  1
  O  O7  1  0.93008789  0.41858725  0.46877720  1
  O  O8  1  0.73976557  0.83976645  0.77804392  1
  O  O9  1  0.54605058  0.43258136  0.36877423  1
  O  O10  1  0.39785998  0.57211500  0.61612125  1
  O  O11  1  0.25667853  0.14796743  0.22520548  1
  O  O12  1  0.07743004  0.72891702  0.78269770  1
  O  O13  1  0.63211637  0.38780588  0.06705495  1
  O  O14  1  0.85436448  0.79564646  0.47372433  1
  O  O15  1  0.24682370  0.59522816  0.27864845  1
  O  O16  1  0.96064725  0.79882940  0.11909843  1
  O  O17  1  0.57441939  0.02614145  0.33496266  1
  O  O18  1  0.65697728  0.96048375  0.04122189  1
loop_
_geom_bond_atom_site_label_1
_geom_bond_atom_site_label_2
_geom_bond_distance
_geom_bond_site_symmetry_2
O0 U3 2.258881 1_545
O0 U2 2.326674 1_455
O0 U1 2.350299 1_556
O0 Sr1 2.593341 1_555
O1 U3 1.979448 1_555
O1 Sr4 2.565267 1_555
O1 Sr0 2.594576 1_565
O1 Sr1 2.644532 1_565
O2 U2 2.008361 1_455
O2 Sr3 2.473496 1_455
O2 Sr0 2.488998 1_455
O2 Sr1 2.490293 1_555
O3 U0 2.007252 1_555
O3 Sr1 2.433579 1_555
O3 Sr0 2.585524 1_555
O3 Sr3 2.599007 1_555
O4 U4 1.982360 1_555
O4 Sr4 2.465620 1_545
O4 Sr1 2.540919 1_555
O4 Sr0 2.571399 1_455
O5 U3 1.981091 1_555
O5 Sr2 2.523275 1_556
O5 Sr3 2.570025 1_455
O5 Sr1 2.592624 1_555
O6 U1 2.260654 1_555
O6 U4 2.261724 1_655
O6 U2 2.448339 1_554
O6 Sr3 2.659622 1_554
O7 U4 2.136966 1_655
O7 U0 2.210714 1_555
O7 Sr0 2.826358 1_555
O8 U3 2.240272 1_555
O8 U0 2.299550 1_555
O8 U2 2.321151 1_565
O8 Sr0 2.715308 1_565
O9 U4 2.292769 1_555
O9 U1 2.296062 1_555
O9 U0 2.330140 1_555
O9 Sr2 2.684476 1_555
O10 U4 2.229160 1_555
O10 U3 2.239632 1_555
O10 U0 2.585717 1_555
O10 Sr1 2.854885 1_555
O11 U4 2.268064 1_555
O11 U1 2.294926 1_555
O11 U2 2.335444 1_454
O11 Sr4 2.537689 1_545
O12 U3 2.154013 1_555
O12 U0 2.239215 1_455
O12 Sr3 2.763568 1_455
O12 U2 2.798631 1_465
O13 U1 1.943602 1_555
O13 Sr1 2.572108 1_554
O13 Sr2 2.581753 1_555
O13 Sr3 2.586446 1_554
O14 U0 2.013285 1_555
O14 Sr4 2.514723 1_655
O14 Sr2 2.542043 1_555
O14 Sr0 2.601248 1_565
O15 U4 1.984632 1_555
O15 Sr4 2.514871 1_555
O15 Sr2 2.568509 1_555
O15 Sr3 2.670406 1_454
O16 U2 2.003218 1_564
O16 Sr3 2.474950 1_554
O16 Sr2 2.540423 1_555
O16 Sr4 2.545693 1_655
O17 U1 1.959207 1_555
O17 Sr0 2.520243 1_555
O17 Sr4 2.578306 1_545
O17 Sr2 2.635882 1_545
O18 U1 2.239015 1_565
O18 U3 2.306709 1_554
O18 U2 2.337390 1_564
O18 Sr2 2.608663 1_555
