# generated using pymatgen
data_Li3Mn(PO4)2
_symmetry_space_group_name_H-M   'P 1'
_cell_length_a   5.89996500
_cell_length_b   9.59068625
_cell_length_c   11.03797807
_cell_angle_alpha   66.86702294
_cell_angle_beta   90.00142530
_cell_angle_gamma   89.99806939
_symmetry_Int_Tables_number   1
_chemical_formula_structural   Li3Mn(PO4)2
_chemical_formula_sum   'Li12 Mn4 P8 O32'
_cell_volume   574.36173407
_cell_formula_units_Z   4
loop_
 _symmetry_equiv_pos_site_id
 _symmetry_equiv_pos_as_xyz
  1  'x, y, z'
loop_
 _atom_site_type_symbol
 _atom_site_label
 _atom_site_symmetry_multiplicity
 _atom_site_fract_x
 _atom_site_fract_y
 _atom_site_fract_z
 _atom_site_occupancy
  Li  Li0  1  0.75000000  0.98277100  0.93524600  1
  Li  Li1  1  0.74999900  0.48277900  0.93524100  1
  Li  Li2  1  0.25000200  0.01724500  0.06474900  1
  Li  Li3  1  0.25000400  0.51724000  0.06474400  1
  Li  Li4  1  0.74999900  0.85954700  0.77373400  1
  Li  Li5  1  0.74999600  0.35954700  0.77372900  1
  Li  Li6  1  0.25000200  0.14046800  0.22628000  1
  Li  Li7  1  0.25000600  0.64044400  0.22628300  1
  Li  Li8  1  0.99999600  0.00001500  0.50000500  1
  Li  Li9  1  0.99999500  0.49998200  0.50000500  1
  Li  Li10  1  0.50000900  0.00001300  0.50000800  1
  Li  Li11  1  0.50000900  0.49998000  0.50000800  1
  Mn  Mn0  1  0.25000300  0.65794800  0.72184600  1
  Mn  Mn1  1  0.74997600  0.84209900  0.27810000  1
  Mn  Mn2  1  0.25001900  0.15787200  0.72195100  1
  Mn  Mn3  1  0.74999000  0.34199600  0.27817200  1
  P  P0  1  0.24997500  0.85546000  0.89958200  1
  P  P1  1  0.24997900  0.35552100  0.89957600  1
  P  P2  1  0.75001400  0.14451200  0.10041500  1
  P  P3  1  0.75000800  0.64450000  0.10042800  1
  P  P4  1  0.75000700  0.74170800  0.58628000  1
  P  P5  1  0.75001600  0.24169500  0.58631800  1
  P  P6  1  0.24999800  0.25829100  0.41373300  1
  P  P7  1  0.24998900  0.75831600  0.41366800  1
  O  O0  1  0.74999000  0.68104800  0.95301800  1
  O  O1  1  0.74998500  0.18104200  0.95301300  1
  O  O2  1  0.25001400  0.31896200  0.04698000  1
  O  O3  1  0.25001700  0.81893900  0.04697700  1
  O  O4  1  0.25000600  0.70080300  0.88011600  1
  O  O5  1  0.25000400  0.20078700  0.88023500  1
  O  O6  1  0.74999300  0.29922000  0.11979900  1
  O  O7  1  0.74999800  0.79923500  0.11978200  1
  O  O8  1  0.75000500  0.08542300  0.58313800  1
  O  O9  1  0.75000600  0.58542000  0.58313500  1
  O  O10  1  0.25000000  0.91457700  0.41687900  1
  O  O11  1  0.25000000  0.41458000  0.41687100  1
  O  O12  1  0.25000000  0.12473900  0.55685800  1
  O  O13  1  0.24999700  0.62473900  0.55677900  1
  O  O14  1  0.75000200  0.87525700  0.44314900  1
  O  O15  1  0.75000600  0.37523100  0.44317800  1
  O  O16  1  0.04043600  0.95612200  0.82962700  1
  O  O17  1  0.04043200  0.45615700  0.82958800  1
  O  O18  1  0.45949000  0.95614600  0.82960600  1
  O  O19  1  0.45950300  0.45617700  0.82956900  1
  O  O20  1  0.54048700  0.04385300  0.17041700  1
  O  O21  1  0.54047300  0.54385200  0.17041800  1
  O  O22  1  0.95955900  0.04386500  0.17040500  1
  O  O23  1  0.95955600  0.54385500  0.17041000  1
  O  O24  1  0.54250900  0.77857700  0.65666000  1
  O  O25  1  0.54250100  0.27856700  0.65668200  1
  O  O26  1  0.95752100  0.77856600  0.65666800  1
  O  O27  1  0.95754900  0.27854900  0.65669300  1
  O  O28  1  0.04251100  0.22143300  0.34332400  1
  O  O29  1  0.04245400  0.72145700  0.34329600  1
  O  O30  1  0.45748000  0.22142200  0.34333300  1
  O  O31  1  0.45751800  0.72144200  0.34330600  1
loop_
_geom_bond_atom_site_label_1
_geom_bond_atom_site_label_2
_geom_bond_distance
_geom_bond_site_symmetry_2
Li0 O1 1.986803 1_565
Li0 O7 2.104808 1_556
Li0 O16 2.143582 1_655
Li0 O18 2.143959 1_555
Li1 O0 1.986836 1_555
Li1 O6 2.105064 1_556
Li1 O17 2.143703 1_655
Li1 O19 2.144028 1_555
Li2 O3 1.987163 1_545
Li2 O5 2.104679 1_554
Li2 O22 2.143764 1_455
Li2 O20 2.143969 1_555
Li3 O2 1.986854 1_555
Li3 O4 2.105576 1_554
Li3 O23 2.143837 1_455
Li3 O21 2.143946 1_555
Li4 O0 2.045721 1_555
Li4 O24 2.135435 1_555
Li4 O26 2.135548 1_555
Li4 O16 2.150318 1_655
Li4 O18 2.150650 1_555
Li4 O8 2.353271 1_565
Li5 O1 2.045747 1_555
Li5 O25 2.135287 1_555
Li5 O27 2.135503 1_555
Li5 O17 2.150324 1_655
Li5 O19 2.150576 1_555
Li5 O9 2.353243 1_555
Li6 O2 2.045812 1_555
Li6 O30 2.135129 1_555
Li6 O28 2.135169 1_555
Li6 O22 2.150401 1_455
Li6 O20 2.150576 1_555
Li6 O10 2.353370 1_545
Li7 O3 2.045858 1_555
Li7 O31 2.135250 1_555
Li7 O29 2.135396 1_555
Li7 O23 2.150351 1_455
Li7 O21 2.150381 1_555
Li7 O11 2.353158 1_555
Li8 O8 2.068576 1_555
Li8 O10 2.068748 1_645
Li8 O12 2.142484 1_655
Li8 O14 2.142680 1_545
Li8 O28 2.162814 1_655
Li8 O26 2.162903 1_545
Li9 O11 2.068608 1_655
Li9 O9 2.068711 1_555
Li9 O13 2.142242 1_655
Li9 O15 2.142450 1_555
Li9 O27 2.162895 1_555
Li9 O29 2.163268 1_655
Li10 O8 2.068595 1_555
Li10 O10 2.068785 1_545
Li10 O12 2.142466 1_555
Li10 O14 2.142645 1_545
Li10 O30 2.162712 1_555
Li10 O24 2.162760 1_545
Li11 O11 2.068641 1_555
Li11 O9 2.068743 1_555
Li11 O13 2.142245 1_555
Li11 O15 2.142453 1_555
Li11 O25 2.162707 1_555
Li11 O31 2.163148 1_555
Mn0 O4 1.945519 1_555
Mn0 O13 1.969038 1_555
Mn0 O26 2.044378 1_455
Mn0 O24 2.044651 1_555
Mn0 O19 2.208656 1_555
Mn0 O17 2.209165 1_555
Mn1 O7 1.946088 1_555
Mn1 O14 1.968584 1_555
Mn1 O29 2.044483 1_655
Mn1 O31 2.044555 1_555
Mn1 O20 2.208426 1_565
Mn1 O22 2.208945 1_565
Mn2 O5 1.945996 1_555
Mn2 O12 1.968939 1_555
Mn2 O27 2.044675 1_455
Mn2 O25 2.044921 1_555
Mn2 O18 2.208128 1_545
Mn2 O16 2.208802 1_545
Mn3 O6 1.946207 1_555
Mn3 O15 1.968503 1_555
Mn3 O28 2.044310 1_655
Mn3 O30 2.044409 1_555
Mn3 O21 2.209321 1_555
Mn3 O23 2.209625 1_555
O0 P3 1.523882 1_556
O1 P2 1.523828 1_556
O2 P1 1.523797 1_554
O3 P0 1.523769 1_554
O4 P0 1.580083 1_555
O5 P1 1.580120 1_555
O6 P2 1.580112 1_555
O7 P3 1.580202 1_555
O8 P5 1.512890 1_555
O9 P4 1.512884 1_555
O10 P7 1.512926 1_555
O11 P6 1.512862 1_555
O12 P6 1.595761 1_555
O13 P7 1.595756 1_555
O14 P4 1.595794 1_555
O15 P5 1.595810 1_555
O16 P0 1.571870 1_555
O17 P1 1.571893 1_555
O18 P0 1.571995 1_555
O19 P1 1.572001 1_555
O20 P2 1.572014 1_555
O21 P3 1.571973 1_555
O22 P2 1.571934 1_555
O23 P3 1.571918 1_555
O24 P4 1.563051 1_555
O25 P5 1.563038 1_555
O26 P4 1.563121 1_555
O27 P5 1.563108 1_555
O28 P6 1.563132 1_555
O29 P7 1.563118 1_555
O30 P6 1.563107 1_555
O31 P7 1.563098 1_555
