# generated using pymatgen
data_Li3Ni5O8
_symmetry_space_group_name_H-M   'P 1'
_cell_length_a   5.84059931
_cell_length_b   5.84059908
_cell_length_c   5.85781659
_cell_angle_alpha   90.00000317
_cell_angle_beta   60.09718121
_cell_angle_gamma   60.00000400
_symmetry_Int_Tables_number   1
_chemical_formula_structural   Li3Ni5O8
_chemical_formula_sum   'Li3 Ni5 O8'
_cell_volume   141.50505913
_cell_formula_units_Z   1
loop_
 _symmetry_equiv_pos_site_id
 _symmetry_equiv_pos_as_xyz
  1  'x, y, z'
loop_
 _atom_site_type_symbol
 _atom_site_label
 _atom_site_symmetry_multiplicity
 _atom_site_fract_x
 _atom_site_fract_y
 _atom_site_fract_z
 _atom_site_occupancy
  Li  Li0  1  0.00000000  0.00000000  0.50000000  1
  Li  Li1  1  0.50000000  0.00000000  0.50000000  1
  Li  Li2  1  0.50000000  0.50000000  0.50000000  1
  Ni  Ni0  1  0.00000000  0.50000000  0.50000000  1
  Ni  Ni1  1  0.00000000  0.00000000  0.00000000  1
  Ni  Ni2  1  0.50000000  0.00000000  0.00000000  1
  Ni  Ni3  1  0.00000000  0.50000000  0.00000000  1
  Ni  Ni4  1  0.50000000  0.50000000  0.00000000  1
  O  O0  1  0.47642700  0.26178700  0.78536000  1
  O  O1  1  0.99248400  0.25746300  0.75756900  1
  O  O2  1  0.49989400  0.75005300  0.75756900  1
  O  O3  1  0.99248400  0.75005300  0.75756900  1
  O  O4  1  0.00751600  0.24994700  0.24243100  1
  O  O5  1  0.50010600  0.24994700  0.24243100  1
  O  O6  1  0.00751600  0.74253700  0.24243100  1
  O  O7  1  0.52357300  0.73821300  0.21464000  1
loop_
_geom_bond_atom_site_label_1
_geom_bond_atom_site_label_2
_geom_bond_distance
_geom_bond_site_symmetry_2
Li0 O1 2.099419 1_455
Li0 O6 2.099419 1_545
Li0 O3 2.099419 1_445
Li0 O4 2.099419 1_555
Li0 O7 2.170479 1_545
Li0 O0 2.170479 1_455
Li1 O2 2.099419 1_545
Li1 O5 2.099419 1_555
Li1 O6 2.099419 1_645
Li1 O1 2.099419 1_455
Li1 O7 2.170483 1_545
Li1 O0 2.170483 1_555
Li2 O2 2.099419 1_555
Li2 O5 2.099419 1_555
Li2 O4 2.099419 1_655
Li2 O3 2.099419 1_455
Li2 O7 2.170479 1_555
Li2 O0 2.170479 1_555
Ni0 O3 2.069099 1_455
Ni0 O4 2.069099 1_555
Ni0 O1 2.069099 1_455
Ni0 O6 2.069099 1_555
Ni0 O5 2.069100 1_555
Ni0 O2 2.069100 1_455
Ni1 O4 2.067857 1_555
Ni1 O3 2.067857 1_444
Ni1 O6 2.067857 1_545
Ni1 O1 2.067857 1_454
Ni1 O2 2.067857 1_544
Ni1 O5 2.067857 1_455
Ni2 O0 1.974771 1_554
Ni2 O7 1.974771 1_545
Ni2 O5 2.037068 1_555
Ni2 O2 2.037068 1_544
Ni2 O3 2.037068 1_544
Ni2 O4 2.037068 1_555
Ni3 O0 1.974771 1_554
Ni3 O7 1.974771 1_455
Ni3 O6 2.037068 1_555
Ni3 O1 2.037068 1_454
Ni3 O4 2.037068 1_555
Ni3 O3 2.037068 1_454
Ni4 O7 1.974767 1_555
Ni4 O0 1.974767 1_554
Ni4 O5 2.037068 1_555
Ni4 O2 2.037068 1_554
Ni4 O1 2.037068 1_554
Ni4 O6 2.037068 1_555
