# generated using pymatgen
data_SnP2Cl8O3
_symmetry_space_group_name_H-M   'P 1'
_cell_length_a   8.98035500
_cell_length_b   9.24278107
_cell_length_c   11.04151360
_cell_angle_alpha   69.90646677
_cell_angle_beta   71.26402932
_cell_angle_gamma   65.38708799
_symmetry_Int_Tables_number   1
_chemical_formula_structural   SnP2Cl8O3
_chemical_formula_sum   'Sn2 P4 Cl16 O6'
_cell_volume   765.28114167
_cell_formula_units_Z   2
loop_
 _symmetry_equiv_pos_site_id
 _symmetry_equiv_pos_as_xyz
  1  'x, y, z'
loop_
 _atom_site_type_symbol
 _atom_site_label
 _atom_site_symmetry_multiplicity
 _atom_site_fract_x
 _atom_site_fract_y
 _atom_site_fract_z
 _atom_site_occupancy
  Sn  Sn0  1  0.90723700  0.79997100  0.23351400  1
  Sn  Sn1  1  0.08639000  0.20737400  0.77219200  1
  P  P0  1  0.79208300  0.20268800  0.06891800  1
  P  P1  1  0.22669700  0.80892500  0.36328900  1
  P  P2  1  0.20904200  0.79359200  0.93177200  1
  P  P3  1  0.77332100  0.19850800  0.63506800  1
  Cl  Cl0  1  0.53919100  0.26633800  0.09307500  1
  Cl  Cl1  1  0.78479500  0.21251700  0.44807300  1
  Cl  Cl2  1  0.04063900  0.50101800  0.29265000  1
  Cl  Cl3  1  0.45540000  0.73420100  0.91574200  1
  Cl  Cl4  1  0.23756700  0.18538800  0.92439400  1
  Cl  Cl5  1  0.27946300  0.00194600  0.25832800  1
  Cl  Cl6  1  0.31791100  0.16433700  0.58555100  1
  Cl  Cl7  1  0.81213500  0.40062900  0.09084200  1
  Cl  Cl8  1  0.41294900  0.61824100  0.31428700  1
  Cl  Cl9  1  0.19006600  0.59877900  0.90322100  1
  Cl  Cl10  1  0.71280000  0.99563500  0.74777800  1
  Cl  Cl11  1  0.58491900  0.39255100  0.68431300  1
  Cl  Cl12  1  0.68641600  0.83516800  0.41268100  1
  Cl  Cl13  1  0.76539300  0.80918700  0.07822300  1
  Cl  Cl14  1  0.20862000  0.78927100  0.54994800  1
  Cl  Cl15  1  0.95885000  0.48845800  0.71032800  1
  O  O0  1  0.94603800  0.17808700  0.65401900  1
  O  O1  1  0.85842700  0.05202600  0.17500300  1
  O  O2  1  0.14899600  0.94215700  0.82444200  1
  O  O3  1  0.05784600  0.82364800  0.34686500  1
  O  O4  1  0.12624100  0.80776800  0.07805600  1
  O  O5  1  0.87352000  0.18985200  0.92203200  1
loop_
_geom_bond_atom_site_label_1
_geom_bond_atom_site_label_2
_geom_bond_distance
_geom_bond_site_symmetry_2
Cl0 P0 2.044681 1_555
Cl1 P3 1.995282 1_555
Cl2 Sn0 2.449912 1_455
Cl3 P2 2.007707 1_555
Cl4 Sn1 2.389538 1_555
Cl5 P1 1.918653 1_545
Cl6 Sn1 2.418626 1_555
Cl7 P0 2.011199 1_555
Cl8 P1 1.953185 1_555
Cl9 P2 2.012651 1_555
Cl10 P3 2.042343 1_565
Cl11 P3 1.981496 1_555
Cl12 Sn0 2.310091 1_555
Cl13 Sn0 2.404630 1_555
Cl14 P1 1.964546 1_555
Cl15 Sn1 2.309253 1_655
O0 P3 1.556503 1_555
O0 Sn1 2.224373 1_655
O1 P0 1.517445 1_555
O1 Sn0 2.081854 1_545
O2 P2 1.502123 1_555
O2 Sn1 2.178682 1_565
O3 P1 1.529220 1_555
O3 Sn0 2.228415 1_455
O4 P2 1.572145 1_554
O4 Sn0 2.164238 1_455
O5 P0 1.573933 1_556
O5 Sn1 2.111835 1_655
