# generated using pymatgen
data_Zr2Bi2O7
_symmetry_space_group_name_H-M   'P 1'
_cell_length_a   7.65539823
_cell_length_b   7.65539823
_cell_length_c   7.65539823
_cell_angle_alpha   60.00000000
_cell_angle_beta   60.00000000
_cell_angle_gamma   60.00000000
_symmetry_Int_Tables_number   1
_chemical_formula_structural   Zr2Bi2O7
_chemical_formula_sum   'Zr4 Bi4 O14'
_cell_volume   317.24030892
_cell_formula_units_Z   2
loop_
 _symmetry_equiv_pos_site_id
 _symmetry_equiv_pos_as_xyz
  1  'x, y, z'
loop_
 _atom_site_type_symbol
 _atom_site_label
 _atom_site_symmetry_multiplicity
 _atom_site_fract_x
 _atom_site_fract_y
 _atom_site_fract_z
 _atom_site_occupancy
  Zr  Zr0  1  0.12500000  0.12500000  0.12500000  1
  Zr  Zr1  1  0.12500000  0.12500000  0.62500000  1
  Zr  Zr2  1  0.62500000  0.12500000  0.12500000  1
  Zr  Zr3  1  0.12500000  0.62500000  0.12500000  1
  Bi  Bi0  1  0.62500000  0.62500000  0.12500000  1
  Bi  Bi1  1  0.62500000  0.12500000  0.62500000  1
  Bi  Bi2  1  0.62500000  0.62500000  0.62500000  1
  Bi  Bi3  1  0.12500000  0.62500000  0.62500000  1
  O  O0  1  0.04061800  0.04061800  0.45938200  1
  O  O1  1  0.20938200  0.20938200  0.79061800  1
  O  O2  1  0.20938200  0.79061800  0.79061800  1
  O  O3  1  0.20938200  0.79061800  0.20938200  1
  O  O4  1  0.50000000  0.50000000  0.50000000  1
  O  O5  1  0.79061800  0.20938200  0.79061800  1
  O  O6  1  0.79061800  0.79061800  0.20938200  1
  O  O7  1  0.79061800  0.20938200  0.20938200  1
  O  O8  1  0.45938200  0.45938200  0.04061800  1
  O  O9  1  0.45938200  0.04061800  0.04061800  1
  O  O10  1  0.04061800  0.45938200  0.04061800  1
  O  O11  1  0.45938200  0.04061800  0.45938200  1
  O  O12  1  0.04061800  0.45938200  0.45938200  1
  O  O13  1  0.75000000  0.75000000  0.75000000  1
loop_
_geom_bond_atom_site_label_1
_geom_bond_atom_site_label_2
_geom_bond_distance
_geom_bond_site_symmetry_2
Bi0 O4 2.343977 1_555
Bi0 O13 2.343977 1_554
Bi0 O8 2.622559 1_555
Bi0 O3 2.622559 1_555
Bi0 O9 2.622559 1_565
Bi0 O7 2.622559 1_555
Bi0 O10 2.622559 1_655
Bi0 O6 2.622559 1_555
Bi1 O4 2.343977 1_555
Bi1 O13 2.343977 1_545
Bi1 O1 2.622559 1_555
Bi1 O11 2.622559 1_555
Bi1 O0 2.622559 1_655
Bi1 O7 2.622559 1_555
Bi1 O5 2.622559 1_555
Bi1 O9 2.622559 1_556
Bi2 O13 2.343977 1_555
Bi2 O4 2.343977 1_555
Bi2 O2 2.622559 1_555
Bi2 O8 2.622559 1_556
Bi2 O11 2.622559 1_565
Bi2 O5 2.622559 1_555
Bi2 O6 2.622559 1_555
Bi2 O12 2.622559 1_655
Bi3 O13 2.343977 1_455
Bi3 O4 2.343977 1_555
Bi3 O3 2.622559 1_555
Bi3 O1 2.622559 1_555
Bi3 O12 2.622559 1_555
Bi3 O10 2.622559 1_556
Bi3 O0 2.622559 1_565
Bi3 O2 2.622559 1_555
O0 Zr0 2.120706 1_555
O0 Zr1 2.120706 1_555
O1 Zr0 2.120706 1_556
O1 Zr1 2.120706 1_555
O2 Zr3 2.120706 1_556
O2 Zr1 2.120706 1_565
O3 Zr0 2.120706 1_565
O3 Zr3 2.120706 1_555
O5 Zr1 2.120706 1_655
O5 Zr2 2.120706 1_556
O6 Zr2 2.120706 1_565
O6 Zr3 2.120706 1_655
O7 Zr0 2.120706 1_655
O7 Zr2 2.120706 1_555
O8 Zr2 2.120706 1_555
O8 Zr3 2.120706 1_555
O9 Zr0 2.120706 1_555
O9 Zr2 2.120706 1_555
O10 Zr0 2.120706 1_555
O10 Zr3 2.120706 1_555
O11 Zr2 2.120706 1_555
O11 Zr1 2.120706 1_555
O12 Zr1 2.120706 1_555
O12 Zr3 2.120706 1_555
