# generated using pymatgen
data_LiFe2O2F3
_symmetry_space_group_name_H-M   'P 1'
_cell_length_a   5.35896664
_cell_length_b   5.35896664
_cell_length_c   10.09602733
_cell_angle_alpha   89.49538923
_cell_angle_beta   89.49538923
_cell_angle_gamma   42.35954472
_symmetry_Int_Tables_number   1
_chemical_formula_structural   LiFe2O2F3
_chemical_formula_sum   'Li2 Fe4 O4 F6'
_cell_volume   195.34931444
_cell_formula_units_Z   2
loop_
 _symmetry_equiv_pos_site_id
 _symmetry_equiv_pos_as_xyz
  1  'x, y, z'
loop_
 _atom_site_type_symbol
 _atom_site_label
 _atom_site_symmetry_multiplicity
 _atom_site_fract_x
 _atom_site_fract_y
 _atom_site_fract_z
 _atom_site_occupancy
  Li  Li0  1  0.69115700  0.69115700  0.73720700  1
  Li  Li1  1  0.36447800  0.36447800  0.57366700  1
  Fe  Fe0  1  0.64661200  0.64661200  0.44025500  1
  Fe  Fe1  1  0.62958800  0.62958800  0.08010800  1
  Fe  Fe2  1  0.29996200  0.29996200  0.25370200  1
  Fe  Fe3  1  0.35632400  0.35632400  0.94519800  1
  O  O0  1  0.73942200  0.73942200  0.24457900  1
  O  O1  1  0.44415600  0.44415600  0.11579600  1
  O  O2  1  0.18805100  0.18805100  0.06209700  1
  O  O3  1  0.17822500  0.17822500  0.41127100  1
  F  F0  1  0.55078100  0.55078100  0.88770800  1
  F  F1  1  0.80601000  0.80601000  0.56142400  1
  F  F2  1  0.55214500  0.55214500  0.61114300  1
  F  F3  1  0.82492700  0.82492700  0.92928100  1
  F  F4  1  0.27458300  0.27458300  0.76742400  1
  F  F5  1  0.45358500  0.45358500  0.37914200  1
loop_
_geom_bond_atom_site_label_1
_geom_bond_atom_site_label_2
_geom_bond_distance
_geom_bond_site_symmetry_2
Li1 O3 2.492110 1_555
Fe0 O3 1.983041 1_655
Fe0 O3 1.983041 1_565
Fe0 O0 2.174514 1_555
Fe1 O1 1.884556 1_555
Fe1 O0 1.999149 1_555
Fe1 O2 2.030072 1_655
Fe1 O2 2.030072 1_565
Fe2 O3 1.993577 1_555
Fe2 O1 1.994313 1_555
Fe2 O0 2.030851 1_455
Fe2 O0 2.030851 1_545
Fe2 O2 2.243626 1_555
Fe3 O1 1.940516 1_556
Fe3 O2 2.045378 1_556
F0 Fe3 2.022958 1_555
F0 Li0 2.058314 1_555
F0 Fe1 2.102954 1_556
F1 Fe0 2.017681 1_555
F1 Li1 2.026533 1_655
F1 Li1 2.026533 1_565
F1 Li0 2.104434 1_555
F2 Li0 1.892982 1_555
F2 Li1 1.916818 1_555
F2 Fe0 1.958872 1_555
F3 Fe3 1.968245 1_565
F3 Fe3 1.968245 1_655
F3 Li0 2.365731 1_555
F3 Fe1 2.464496 1_556
F4 Fe3 1.978988 1_555
F4 Li0 2.131144 1_545
F4 Li0 2.131144 1_455
F4 Li1 2.144892 1_555
F5 Fe2 1.999441 1_555
F5 Fe0 2.030913 1_555
F5 Li1 2.148727 1_555
