# generated using pymatgen
data_Li2Cr(PO3)4
_symmetry_space_group_name_H-M   'P 1'
_cell_length_a   11.15171900
_cell_length_b   7.93545700
_cell_length_c   12.57598176
_cell_angle_alpha   81.60424844
_cell_angle_beta   90.00000000
_cell_angle_gamma   90.00000000
_symmetry_Int_Tables_number   1
_chemical_formula_structural   Li2Cr(PO3)4
_chemical_formula_sum   'Li8 Cr4 P16 O48'
_cell_volume   1100.97200555
_cell_formula_units_Z   4
loop_
 _symmetry_equiv_pos_site_id
 _symmetry_equiv_pos_as_xyz
  1  'x, y, z'
loop_
 _atom_site_type_symbol
 _atom_site_label
 _atom_site_symmetry_multiplicity
 _atom_site_fract_x
 _atom_site_fract_y
 _atom_site_fract_z
 _atom_site_occupancy
  Li  Li0  1  0.87580700  0.54335500  0.21697100  1
  Li  Li1  1  0.37580700  0.45664500  0.28302900  1
  Li  Li2  1  0.03894500  0.41396900  0.42856600  1
  Li  Li3  1  0.53894500  0.58603100  0.07143400  1
  Li  Li4  1  0.46105500  0.41396900  0.92856600  1
  Li  Li5  1  0.96105500  0.58603100  0.57143400  1
  Li  Li6  1  0.62419300  0.54335500  0.71697100  1
  Li  Li7  1  0.12419300  0.45664500  0.78302900  1
  Cr  Cr0  1  0.73944600  0.02221800  0.68201500  1
  Cr  Cr1  1  0.23944600  0.97778200  0.81798500  1
  Cr  Cr2  1  0.76055400  0.02221800  0.18201500  1
  Cr  Cr3  1  0.26055400  0.97778200  0.31798500  1
  P  P0  1  0.26017000  0.93516700  0.06755400  1
  P  P1  1  0.62227400  0.63193400  0.29119700  1
  P  P2  1  0.23507100  0.57375400  0.01106300  1
  P  P3  1  0.73507100  0.42624600  0.48893700  1
  P  P4  1  0.73983000  0.06483300  0.93244600  1
  P  P5  1  0.12227400  0.36806600  0.20880300  1
  P  P6  1  0.95671400  0.97887900  0.82532200  1
  P  P7  1  0.45671400  0.02112100  0.67467800  1
  P  P8  1  0.76017000  0.06483300  0.43244600  1
  P  P9  1  0.23983000  0.93516700  0.56755400  1
  P  P10  1  0.54328600  0.97887900  0.32532200  1
  P  P11  1  0.04328600  0.02112100  0.17467800  1
  P  P12  1  0.87772600  0.63193400  0.79119700  1
  P  P13  1  0.26492900  0.57375400  0.51106300  1
  P  P14  1  0.76492900  0.42624600  0.98893700  1
  P  P15  1  0.37772600  0.36806600  0.70880300  1
  O  O0  1  0.20665100  0.75008400  0.05569000  1
  O  O1  1  0.63938000  0.54276800  0.41390000  1
  O  O2  1  0.54622300  0.52331900  0.22812500  1
  O  O3  1  0.86479700  0.47716900  0.46296000  1
  O  O4  1  0.69363800  0.42171600  0.60229600  1
  O  O5  1  0.36479700  0.52283100  0.03704000  1
  O  O6  1  0.25869900  0.30233000  0.75382800  1
  O  O7  1  0.46822700  0.21692400  0.69082600  1
  O  O8  1  0.04622300  0.47668100  0.27187500  1
  O  O9  1  0.67080500  0.07383200  0.82909900  1
  O  O10  1  0.31887100  0.01145500  0.96417700  1
  O  O11  1  0.13938000  0.45723200  0.08610000  1
  O  O12  1  0.70665100  0.24991600  0.44431000  1
  O  O13  1  0.07384900  0.03479300  0.86480600  1
  O  O14  1  0.86229200  0.96109700  0.92312700  1
  O  O15  1  0.90500500  0.08580000  0.72726300  1
  O  O16  1  0.40500500  0.91420000  0.77273700  1
  O  O17  1  0.80636200  0.42171600  0.10229600  1
  O  O18  1  0.36229200  0.03890300  0.57687300  1
  O  O19  1  0.57384900  0.96520700  0.63519400  1
  O  O20  1  0.24130100  0.30233000  0.25382800  1
  O  O21  1  0.03177300  0.21692400  0.19082600  1
  O  O22  1  0.81887100  0.98854500  0.53582300  1
  O  O23  1  0.17080500  0.92616800  0.67090100  1
  O  O24  1  0.82919500  0.07383200  0.32909900  1
  O  O25  1  0.18112900  0.01145500  0.46417700  1
  O  O26  1  0.96822700  0.78307600  0.80917400  1
  O  O27  1  0.75869900  0.69767000  0.74617200  1
  O  O28  1  0.42615100  0.03479300  0.36480600  1
  O  O29  1  0.63770800  0.96109700  0.42312700  1
  O  O30  1  0.19363800  0.57828400  0.89770400  1
  O  O31  1  0.59499500  0.08580000  0.22726300  1
  O  O32  1  0.09499500  0.91420000  0.27273700  1
  O  O33  1  0.13770800  0.03890300  0.07687300  1
  O  O34  1  0.92615100  0.96520700  0.13519400  1
  O  O35  1  0.29334900  0.75008400  0.55569000  1
  O  O36  1  0.86062000  0.54276800  0.91390000  1
  O  O37  1  0.68112900  0.98854500  0.03582300  1
  O  O38  1  0.32919500  0.92616800  0.17090100  1
  O  O39  1  0.95377700  0.52331900  0.72812500  1
  O  O40  1  0.53177300  0.78307600  0.30917400  1
  O  O41  1  0.74130100  0.69767000  0.24617200  1
  O  O42  1  0.63520300  0.47716900  0.96296000  1
  O  O43  1  0.30636200  0.57828400  0.39770400  1
  O  O44  1  0.13520300  0.52283100  0.53704000  1
  O  O45  1  0.45377700  0.47668100  0.77187500  1
  O  O46  1  0.36062000  0.45723200  0.58610000  1
  O  O47  1  0.79334900  0.24991600  0.94431000  1
loop_
_geom_bond_atom_site_label_1
_geom_bond_atom_site_label_2
_geom_bond_distance
_geom_bond_site_symmetry_2
Li0 O41 2.003908 1_555
Li0 O17 2.004439 1_555
Li0 O8 2.064375 1_655
Li1 O20 2.003908 1_555
Li1 O43 2.004439 1_555
Li1 O2 2.064375 1_555
Li2 O8 1.962375 1_555
Li2 O44 2.025743 1_555
Li2 O3 2.067248 1_455
Li3 O2 1.962375 1_555
Li3 O42 2.025743 1_554
Li3 O5 2.067248 1_555
Li4 O45 1.962375 1_555
Li4 O5 2.025743 1_556
Li4 O42 2.067248 1_555
Li5 O39 1.962375 1_555
Li5 O3 2.025743 1_555
Li5 O44 2.067248 1_655
Li6 O27 2.003908 1_555
Li6 O4 2.004439 1_555
Li6 O45 2.064375 1_555
Li7 O6 2.003908 1_555
Li7 O30 2.004439 1_555
Li7 O39 2.064375 1_455
Cr0 O19 2.009836 1_545
Cr0 O15 2.017653 1_555
Cr0 O22 2.092721 1_545
Cr0 O9 2.096763 1_555
Cr0 O27 2.592905 1_545
Cr1 O13 2.009836 1_565
Cr1 O16 2.017653 1_555
Cr1 O10 2.092721 1_565
Cr1 O23 2.096763 1_555
Cr1 O6 2.592905 1_565
Cr2 O34 2.009836 1_545
Cr2 O31 2.017653 1_555
Cr2 O37 2.092721 1_545
Cr2 O24 2.096763 1_555
Cr2 O41 2.592905 1_545
Cr3 O28 2.009836 1_565
Cr3 O32 2.017653 1_555
Cr3 O25 2.092721 1_565
Cr3 O38 2.096763 1_555
Cr3 O20 2.592905 1_565
O0 P0 1.612325 1_555
O0 P2 1.613280 1_555
O1 P1 1.612264 1_555
O1 P3 1.621551 1_555
O2 P1 1.513591 1_555
O3 P3 1.524571 1_555
O4 P3 1.494039 1_555
O5 P2 1.524571 1_555
O6 P15 1.506105 1_555
O7 P7 1.601287 1_555
O7 P15 1.608533 1_555
O8 P5 1.513591 1_555
O9 P4 1.503230 1_555
O10 P0 1.501784 1_546
O11 P5 1.612264 1_555
O11 P2 1.621551 1_555
O12 P8 1.612325 1_555
O12 P3 1.613280 1_555
O13 P6 1.487978 1_445
O14 P4 1.607665 1_565
O14 P6 1.609613 1_555
O15 P6 1.505863 1_545
O16 P7 1.505863 1_565
O17 P14 1.494039 1_554
O18 P9 1.607665 1_545
O18 P7 1.609613 1_555
O19 P7 1.487978 1_565
O20 P5 1.506105 1_555
O21 P11 1.601287 1_555
O21 P5 1.608533 1_555
O22 P8 1.501784 1_565
O23 P9 1.503230 1_555
O24 P8 1.503230 1_555
O25 P9 1.501784 1_545
O26 P6 1.601287 1_555
O26 P12 1.608533 1_555
O27 P12 1.506105 1_555
O28 P10 1.487978 1_545
O29 P8 1.607665 1_565
O29 P10 1.609613 1_555
O30 P2 1.494039 1_556
O31 P10 1.505863 1_545
O32 P11 1.505863 1_565
O33 P0 1.607665 1_545
O33 P11 1.609613 1_555
O34 P11 1.487978 1_665
O35 P9 1.612325 1_555
O35 P13 1.613280 1_555
O36 P12 1.612264 1_555
O36 P14 1.621551 1_555
O37 P4 1.501784 1_564
O38 P0 1.503230 1_555
O39 P12 1.513591 1_555
O40 P10 1.601287 1_555
O40 P1 1.608533 1_555
O41 P1 1.506105 1_555
O42 P14 1.524571 1_555
O43 P13 1.494039 1_555
O44 P13 1.524571 1_555
O45 P15 1.513591 1_555
O46 P15 1.612264 1_555
O46 P13 1.621551 1_555
O47 P4 1.612325 1_555
O47 P14 1.613280 1_555
