# generated using pymatgen
data_LiCu2(CO3)3
_symmetry_space_group_name_H-M   'P 1'
_cell_length_a   7.59941300
_cell_length_b   7.64927716
_cell_length_c   7.75039386
_cell_angle_alpha   109.16305599
_cell_angle_beta   111.18824259
_cell_angle_gamma   107.29050094
_symmetry_Int_Tables_number   1
_chemical_formula_structural   LiCu2(CO3)3
_chemical_formula_sum   'Li2 Cu4 C6 O18'
_cell_volume   349.77820230
_cell_formula_units_Z   2
loop_
 _symmetry_equiv_pos_site_id
 _symmetry_equiv_pos_as_xyz
  1  'x, y, z'
loop_
 _atom_site_type_symbol
 _atom_site_label
 _atom_site_symmetry_multiplicity
 _atom_site_fract_x
 _atom_site_fract_y
 _atom_site_fract_z
 _atom_site_occupancy
  Li  Li0  1  0.53390000  0.25388800  0.73285300  1
  Li  Li1  1  0.00002400  0.83751200  0.99332300  1
  Cu  Cu0  1  0.87004100  0.01751600  0.45780800  1
  Cu  Cu1  1  0.60087500  0.16075900  0.13576300  1
  Cu  Cu2  1  0.03464500  0.47192000  0.04137000  1
  Cu  Cu3  1  0.54623100  0.56571900  0.40796900  1
  C  C0  1  0.18461200  0.15536400  0.87551700  1
  C  C1  1  0.13205700  0.26997000  0.31260900  1
  C  C2  1  0.81434900  0.38643200  0.58835700  1
  C  C3  1  0.77254500  0.57842600  0.17701500  1
  C  C4  1  0.40389700  0.80641700  0.21230500  1
  C  C5  1  0.66858900  0.95479900  0.79540400  1
  O  O0  1  0.13919200  0.06815000  0.67902700  1
  O  O1  1  0.23646100  0.06822600  0.98630200  1
  O  O2  1  0.03752300  0.07903600  0.26903600  1
  O  O3  1  0.70171800  0.09265900  0.73742900  1
  O  O4  1  0.68480500  0.38260600  0.41445200  1
  O  O5  1  0.94281200  0.31415900  0.57883600  1
  O  O6  1  0.63283200  0.38225600  0.04577600  1
  O  O7  1  0.80290500  0.46579700  0.75438700  1
  O  O8  1  0.33615300  0.38160400  0.44541900  1
  O  O9  1  0.19460800  0.33553500  0.96358100  1
  O  O10  1  0.01546400  0.34540200  0.22572300  1
  O  O11  1  0.74043400  0.69661700  0.31582900  1
  O  O12  1  0.94108700  0.66360800  0.17238700  1
  O  O13  1  0.22818000  0.73908700  0.04542000  1
  O  O14  1  0.40428000  0.72598200  0.33406900  1
  O  O15  1  0.57951600  0.96123000  0.25987300  1
  O  O16  1  0.55692200  0.93982700  0.88872800  1
  O  O17  1  0.73825800  0.82002000  0.76029500  1
loop_
_geom_bond_atom_site_label_1
_geom_bond_atom_site_label_2
_geom_bond_distance
_geom_bond_site_symmetry_2
Li0 O3 2.019814 1_555
Li0 O6 2.022631 1_556
Li0 O7 2.107230 1_555
Li1 O13 2.050750 1_556
Li1 O17 2.079183 1_455
Li1 O1 2.143524 1_565
Li1 O2 2.171567 1_566
Li1 O12 2.281085 1_456
Li1 O7 2.400826 1_455
Cu0 O5 1.953527 1_555
Cu0 O0 1.957387 1_655
Cu0 O15 1.991539 1_545
Cu0 O11 2.052402 1_545
Cu0 O2 2.328940 1_655
Cu1 O16 1.926460 1_544
Cu1 O4 1.976431 1_555
Cu1 O6 2.017335 1_555
Cu1 O15 2.051946 1_545
Cu1 O1 2.343002 1_554
Cu2 O9 1.949437 1_554
Cu2 O12 1.962309 1_455
Cu2 O10 1.993444 1_555
Cu2 O13 2.116218 1_555
Cu2 O7 2.258736 1_454
Cu2 O14 2.463299 1_555
Cu2 O3 2.684889 1_454
Cu3 O14 1.948073 1_555
Cu3 O8 1.970588 1_555
Cu3 O4 1.989517 1_555
Cu3 O11 2.010837 1_555
Cu3 O17 2.305388 1_555
C0 O1 1.274388 1_555
C0 O9 1.285975 1_555
C0 O0 1.303652 1_555
C1 O2 1.280760 1_555
C1 O8 1.294577 1_555
C1 O10 1.303514 1_555
C2 O5 1.268950 1_555
C2 O7 1.277254 1_555
C2 O4 1.335845 1_555
C3 O12 1.272324 1_555
C3 O6 1.297619 1_555
C3 O11 1.310243 1_555
C4 O13 1.275416 1_555
C4 O14 1.284309 1_555
C4 O15 1.318205 1_555
C5 O3 1.269782 1_565
C5 O17 1.289056 1_555
C5 O16 1.302577 1_555
