# generated using pymatgen
data_Be2BO4
_symmetry_space_group_name_H-M   'P 1'
_cell_length_a   4.47113100
_cell_length_b   9.59405800
_cell_length_c   12.71096500
_cell_angle_alpha   90.00000000
_cell_angle_beta   90.00000000
_cell_angle_gamma   90.00000000
_symmetry_Int_Tables_number   1
_chemical_formula_structural   Be2BO4
_chemical_formula_sum   'Be16 B8 O32'
_cell_volume   545.25324259
_cell_formula_units_Z   8
loop_
 _symmetry_equiv_pos_site_id
 _symmetry_equiv_pos_as_xyz
  1  'x, y, z'
loop_
 _atom_site_type_symbol
 _atom_site_label
 _atom_site_symmetry_multiplicity
 _atom_site_fract_x
 _atom_site_fract_y
 _atom_site_fract_z
 _atom_site_occupancy
  Be  Be0  1  0.22852300  0.50651000  0.19260700  1
  Be  Be1  1  0.77147700  0.00651000  0.30739300  1
  Be  Be2  1  0.27147700  0.49349000  0.69260700  1
  Be  Be3  1  0.72852300  0.99349000  0.80739300  1
  Be  Be4  1  0.77147700  0.49349000  0.80739300  1
  Be  Be5  1  0.22852300  0.99349000  0.69260700  1
  Be  Be6  1  0.72852300  0.50651000  0.30739300  1
  Be  Be7  1  0.27147700  0.00651000  0.19260700  1
  Be  Be8  1  0.21418700  0.74007700  0.06569700  1
  Be  Be9  1  0.78581300  0.24007700  0.43430300  1
  Be  Be10  1  0.28581300  0.25992300  0.56569700  1
  Be  Be11  1  0.71418700  0.75992300  0.93430300  1
  Be  Be12  1  0.78581300  0.25992300  0.93430300  1
  Be  Be13  1  0.21418700  0.75992300  0.56569700  1
  Be  Be14  1  0.71418700  0.74007700  0.43430300  1
  Be  Be15  1  0.28581300  0.24007700  0.06569700  1
  B  B0  1  0.71919800  0.61427700  0.11309100  1
  B  B1  1  0.28080200  0.11427700  0.38690900  1
  B  B2  1  0.78080200  0.38572300  0.61309100  1
  B  B3  1  0.21919800  0.88572300  0.88690900  1
  B  B4  1  0.28080200  0.38572300  0.88690900  1
  B  B5  1  0.71919800  0.88572300  0.61309100  1
  B  B6  1  0.21919800  0.61427700  0.38690900  1
  B  B7  1  0.78080200  0.11427700  0.11309100  1
  O  O0  1  0.87099000  0.54039300  0.18921300  1
  O  O1  1  0.12901000  0.04039300  0.31078700  1
  O  O2  1  0.62901000  0.45960700  0.68921300  1
  O  O3  1  0.37099000  0.95960700  0.81078700  1
  O  O4  1  0.12901000  0.45960700  0.81078700  1
  O  O5  1  0.87099000  0.95960700  0.68921300  1
  O  O6  1  0.37099000  0.54039300  0.31078700  1
  O  O7  1  0.62901000  0.04039300  0.18921300  1
  O  O8  1  0.41057000  0.60902100  0.11003600  1
  O  O9  1  0.58943000  0.10902100  0.38996400  1
  O  O10  1  0.08943000  0.39097900  0.61003600  1
  O  O11  1  0.91057000  0.89097900  0.88996400  1
  O  O12  1  0.58943000  0.39097900  0.88996400  1
  O  O13  1  0.41057000  0.89097900  0.61003600  1
  O  O14  1  0.91057000  0.60902100  0.38996400  1
  O  O15  1  0.08943000  0.10902100  0.11003600  1
  O  O16  1  0.87069700  0.69400300  0.03989500  1
  O  O17  1  0.12930300  0.19400300  0.46010500  1
  O  O18  1  0.62930300  0.30599700  0.53989500  1
  O  O19  1  0.37069700  0.80599700  0.96010500  1
  O  O20  1  0.12930300  0.30599700  0.96010500  1
  O  O21  1  0.87069700  0.80599700  0.53989500  1
  O  O22  1  0.37069700  0.69400300  0.46010500  1
  O  O23  1  0.62930300  0.19400300  0.03989500  1
  O  O24  1  0.30513900  0.34864500  0.16172600  1
  O  O25  1  0.69486100  0.84864500  0.33827400  1
  O  O26  1  0.19486100  0.65135500  0.66172600  1
  O  O27  1  0.80513900  0.15135500  0.83827400  1
  O  O28  1  0.69486100  0.65135500  0.83827400  1
  O  O29  1  0.30513900  0.15135500  0.66172600  1
  O  O30  1  0.80513900  0.34864500  0.33827400  1
  O  O31  1  0.19486100  0.84864500  0.16172600  1
loop_
_geom_bond_atom_site_label_1
_geom_bond_atom_site_label_2
_geom_bond_distance
_geom_bond_site_symmetry_2
Be0 O24 1.601666 1_555
Be0 O0 1.631865 1_455
Be0 O8 1.652683 1_555
Be0 O6 1.663724 1_555
Be1 O25 1.601666 1_545
Be1 O1 1.631865 1_655
Be1 O9 1.652683 1_555
Be1 O7 1.663724 1_555
Be2 O26 1.601666 1_555
Be2 O2 1.631865 1_555
Be2 O10 1.652683 1_555
Be2 O4 1.663724 1_555
Be3 O27 1.601666 1_565
Be3 O3 1.631865 1_555
Be3 O11 1.652683 1_555
Be3 O5 1.663724 1_555
Be4 O28 1.601666 1_555
Be4 O4 1.631865 1_655
Be4 O12 1.652683 1_555
Be4 O2 1.663724 1_555
Be5 O29 1.601666 1_565
Be5 O5 1.631865 1_455
Be5 O13 1.652683 1_555
Be5 O3 1.663724 1_555
Be6 O30 1.601666 1_555
Be6 O6 1.631865 1_555
Be6 O14 1.652683 1_555
Be6 O0 1.663724 1_555
Be7 O31 1.601666 1_545
Be7 O7 1.631865 1_555
Be7 O15 1.652683 1_555
Be7 O1 1.663724 1_555
Be8 O31 1.606963 1_555
Be8 O16 1.631443 1_455
Be8 O8 1.633881 1_555
Be8 O19 1.640459 1_554
Be9 O30 1.606963 1_555
Be9 O17 1.631443 1_655
Be9 O9 1.633881 1_555
Be9 O18 1.640459 1_555
Be10 O29 1.606963 1_555
Be10 O18 1.631443 1_555
Be10 O10 1.633881 1_555
Be10 O17 1.640459 1_555
Be11 O28 1.606963 1_555
Be11 O19 1.631443 1_555
Be11 O11 1.633881 1_555
Be11 O16 1.640459 1_556
Be12 O27 1.606963 1_555
Be12 O20 1.631443 1_655
Be12 O12 1.633881 1_555
Be12 O23 1.640459 1_556
Be13 O26 1.606963 1_555
Be13 O21 1.631443 1_455
Be13 O13 1.633881 1_555
Be13 O22 1.640459 1_555
Be14 O25 1.606963 1_555
Be14 O22 1.631443 1_555
Be14 O14 1.633881 1_555
Be14 O21 1.640459 1_555
Be15 O24 1.606963 1_555
Be15 O23 1.631443 1_555
Be15 O15 1.633881 1_555
Be15 O20 1.640459 1_554
B0 O0 1.378148 1_555
B0 O8 1.381383 1_555
B0 O16 1.381856 1_555
B1 O1 1.378148 1_555
B1 O9 1.381383 1_555
B1 O17 1.381856 1_555
B2 O2 1.378148 1_555
B2 O10 1.381383 1_655
B2 O18 1.381856 1_555
B3 O3 1.378148 1_555
B3 O11 1.381383 1_455
B3 O19 1.381856 1_555
B4 O4 1.378148 1_555
B4 O12 1.381383 1_555
B4 O20 1.381856 1_555
B5 O5 1.378148 1_555
B5 O13 1.381383 1_555
B5 O21 1.381856 1_555
B6 O6 1.378148 1_555
B6 O14 1.381383 1_455
B6 O22 1.381856 1_555
B7 O7 1.378148 1_555
B7 O15 1.381383 1_655
B7 O23 1.381856 1_555
