# generated using pymatgen
data_K2Cd2O3
_symmetry_space_group_name_H-M   'P 1'
_cell_length_a   6.44818589
_cell_length_b   6.81051201
_cell_length_c   6.63929494
_cell_angle_alpha   90.00000000
_cell_angle_beta   90.00000000
_cell_angle_gamma   118.18064931
_symmetry_Int_Tables_number   1
_chemical_formula_structural   K2Cd2O3
_chemical_formula_sum   'K4 Cd4 O6'
_cell_volume   257.00605812
_cell_formula_units_Z   2
loop_
 _symmetry_equiv_pos_site_id
 _symmetry_equiv_pos_as_xyz
  1  'x, y, z'
loop_
 _atom_site_type_symbol
 _atom_site_label
 _atom_site_symmetry_multiplicity
 _atom_site_fract_x
 _atom_site_fract_y
 _atom_site_fract_z
 _atom_site_occupancy
  K  K0  1  0.84409083  0.08886264  0.34607576  1
  K  K1  1  0.84409083  0.58886264  0.15392424  1
  K  K2  1  0.15590917  0.91113736  0.65392424  1
  K  K3  1  0.15590917  0.41113736  0.84607576  1
  Cd  Cd0  1  0.33990275  0.07869673  0.12562608  1
  Cd  Cd1  1  0.33990275  0.57869673  0.37437392  1
  Cd  Cd2  1  0.66009725  0.92130327  0.87437392  1
  Cd  Cd3  1  0.66009725  0.42130327  0.62562608  1
  O  O0  1  -0.00000000  0.50000000  0.50000000  1
  O  O1  1  0.63292794  0.73778201  0.59800683  1
  O  O2  1  0.36707206  0.76221799  0.09800683  1
  O  O3  1  0.36707206  0.26221799  0.40199317  1
  O  O4  1  -0.00000000  -0.00000000  -0.00000000  1
  O  O5  1  0.63292794  0.23778201  0.90199317  1
loop_
_geom_bond_atom_site_label_1
_geom_bond_atom_site_label_2
_geom_bond_distance
_geom_bond_site_symmetry_2
K0 O4 2.689060 1_655
K0 O0 2.690095 1_655
K0 O1 2.700703 1_545
K0 O3 3.023824 1_655
K0 O2 3.264927 1_545
K1 O0 2.689060 1_655
K1 O4 2.690095 1_665
K1 O5 2.700703 1_554
K1 O2 3.023824 1_655
K1 O3 3.264927 1_555
K2 O4 2.689060 1_566
K2 O0 2.690095 1_555
K2 O3 2.700703 1_565
K2 O1 3.023824 1_455
K2 O5 3.264927 1_565
K3 O0 2.689060 1_555
K3 O4 2.690095 1_556
K3 O2 2.700703 1_556
K3 O5 3.023824 1_455
K3 O1 3.264927 1_555
Cd0 O4 2.162685 1_555
Cd0 O3 2.180104 1_555
Cd0 O5 2.239414 1_554
Cd0 O2 2.250921 1_545
Cd1 O0 2.162685 1_555
Cd1 O2 2.180104 1_555
Cd1 O1 2.239414 1_555
Cd1 O3 2.250921 1_555
Cd2 O4 2.162685 1_666
Cd2 O1 2.180104 1_555
Cd2 O2 2.239414 1_556
Cd2 O5 2.250921 1_565
Cd3 O0 2.162685 1_655
Cd3 O5 2.180104 1_555
Cd3 O3 2.239414 1_555
Cd3 O1 2.250921 1_555
