# generated using pymatgen
data_Ba2SrI6
_symmetry_space_group_name_H-M   'P 1'
_cell_length_a   8.29727900
_cell_length_b   8.29727900
_cell_length_c   24.89701100
_cell_angle_alpha   90.00000000
_cell_angle_beta   90.00000000
_cell_angle_gamma   90.00000000
_symmetry_Int_Tables_number   1
_chemical_formula_structural   Ba2SrI6
_chemical_formula_sum   'Ba8 Sr4 I24'
_cell_volume   1714.03070899
_cell_formula_units_Z   4
loop_
 _symmetry_equiv_pos_site_id
 _symmetry_equiv_pos_as_xyz
  1  'x, y, z'
loop_
 _atom_site_type_symbol
 _atom_site_label
 _atom_site_symmetry_multiplicity
 _atom_site_fract_x
 _atom_site_fract_y
 _atom_site_fract_z
 _atom_site_occupancy
  Ba  Ba0  1  0.00000000  0.50000000  0.16516200  1
  Ba  Ba1  1  0.00000000  0.00000000  0.33441000  1
  Ba  Ba2  1  0.00000000  0.00000000  0.66559000  1
  Ba  Ba3  1  0.00000000  0.50000000  0.83483800  1
  Ba  Ba4  1  0.50000000  0.50000000  0.33441000  1
  Ba  Ba5  1  0.50000000  0.00000000  0.16516200  1
  Ba  Ba6  1  0.50000000  0.00000000  0.83483800  1
  Ba  Ba7  1  0.50000000  0.50000000  0.66559000  1
  Sr  Sr0  1  0.00000000  0.00000000  0.00000000  1
  Sr  Sr1  1  0.00000000  0.50000000  0.50000000  1
  Sr  Sr2  1  0.50000000  0.00000000  0.50000000  1
  Sr  Sr3  1  0.50000000  0.50000000  0.00000000  1
  I  I0  1  0.23557700  0.73824300  0.58081400  1
  I  I1  1  0.22551900  0.76987400  0.08087700  1
  I  I2  1  0.23012600  0.22551900  0.91912300  1
  I  I3  1  0.23824300  0.73557700  0.41918600  1
  I  I4  1  0.24680600  0.24821700  0.24982000  1
  I  I5  1  0.25178300  0.25319400  0.75018000  1
  I  I6  1  0.24821700  0.75319400  0.75018000  1
  I  I7  1  0.25319400  0.74821700  0.24982000  1
  I  I8  1  0.26987400  0.72551900  0.91912300  1
  I  I9  1  0.26175700  0.23557700  0.41918600  1
  I  I10  1  0.27448100  0.26987400  0.08087700  1
  I  I11  1  0.26442300  0.23824300  0.58081400  1
  I  I12  1  0.73557700  0.76175700  0.58081400  1
  I  I13  1  0.72551900  0.73012600  0.08087700  1
  I  I14  1  0.73824300  0.76442300  0.41918600  1
  I  I15  1  0.73012600  0.27448100  0.91912300  1
  I  I16  1  0.74680600  0.25178300  0.24982000  1
  I  I17  1  0.75178300  0.24680600  0.75018000  1
  I  I18  1  0.74821700  0.74680600  0.75018000  1
  I  I19  1  0.75319400  0.75178300  0.24982000  1
  I  I20  1  0.76175700  0.26442300  0.41918600  1
  I  I21  1  0.76987400  0.77448100  0.91912300  1
  I  I22  1  0.77448100  0.23012600  0.08087700  1
  I  I23  1  0.76442300  0.26175700  0.58081400  1
loop_
_geom_bond_atom_site_label_1
_geom_bond_atom_site_label_2
_geom_bond_distance
_geom_bond_site_symmetry_2
Ba0 I1 3.594293 1_555
Ba0 I22 3.594293 1_455
Ba0 I19 3.605619 1_455
Ba0 I4 3.605619 1_555
Ba0 I16 3.619064 1_455
Ba0 I7 3.619064 1_555
Ba0 I10 3.638147 1_555
Ba0 I13 3.638147 1_455
Ba1 I19 3.587562 1_445
Ba1 I4 3.587562 1_555
Ba1 I9 3.604524 1_555
Ba1 I14 3.604524 1_445
Ba1 I3 3.629895 1_545
Ba1 I20 3.629895 1_455
Ba1 I7 3.635002 1_545
Ba1 I16 3.635002 1_455
Ba2 I17 3.587562 1_455
Ba2 I6 3.587562 1_545
Ba2 I0 3.604524 1_545
Ba2 I23 3.604524 1_455
Ba2 I12 3.629895 1_445
Ba2 I11 3.629895 1_555
Ba2 I5 3.635002 1_555
Ba2 I18 3.635002 1_445
Ba3 I8 3.594293 1_555
Ba3 I15 3.594293 1_455
Ba3 I18 3.605619 1_455
Ba3 I5 3.605619 1_555
Ba3 I17 3.619064 1_455
Ba3 I6 3.619064 1_555
Ba3 I2 3.638147 1_555
Ba3 I21 3.638147 1_455
Ba4 I16 3.587562 1_555
Ba4 I7 3.587562 1_555
Ba4 I3 3.604524 1_555
Ba4 I20 3.604524 1_555
Ba4 I9 3.629895 1_555
Ba4 I14 3.629895 1_555
Ba4 I19 3.635002 1_555
Ba4 I4 3.635002 1_555
Ba5 I13 3.594293 1_545
Ba5 I10 3.594293 1_555
Ba5 I16 3.605619 1_555
Ba5 I7 3.605619 1_545
Ba5 I4 3.619064 1_555
Ba5 I19 3.619064 1_545
Ba5 I22 3.638147 1_555
Ba5 I1 3.638147 1_545
Ba6 I21 3.594293 1_545
Ba6 I2 3.594293 1_555
Ba6 I6 3.605619 1_545
Ba6 I17 3.605619 1_555
Ba6 I5 3.619064 1_555
Ba6 I18 3.619064 1_545
Ba6 I15 3.638147 1_555
Ba6 I8 3.638147 1_545
Ba7 I18 3.587562 1_555
Ba7 I5 3.587562 1_555
Ba7 I11 3.604524 1_555
Ba7 I12 3.604524 1_555
Ba7 I23 3.629895 1_555
Ba7 I0 3.629895 1_555
Ba7 I6 3.635002 1_555
Ba7 I17 3.635002 1_555
I0 Sr1 3.431693 1_555
I0 Sr2 3.684952 1_565
I1 Sr0 3.346912 1_565
I1 Sr3 3.775636 1_555
I2 Sr0 3.346912 1_556
I2 Sr3 3.775636 1_556
I3 Sr1 3.431693 1_555
I3 Sr2 3.684952 1_565
I8 Sr3 3.346912 1_556
I8 Sr0 3.775636 1_566
I9 Sr2 3.431693 1_555
I9 Sr1 3.684952 1_555
I10 Sr3 3.346912 1_555
I10 Sr0 3.775636 1_555
I11 Sr2 3.431693 1_555
I11 Sr1 3.684952 1_555
I12 Sr2 3.431693 1_565
I12 Sr1 3.684952 1_655
I13 Sr3 3.346912 1_555
I13 Sr0 3.775636 1_665
I14 Sr2 3.431693 1_565
I14 Sr1 3.684952 1_655
I15 Sr3 3.346912 1_556
I15 Sr0 3.775636 1_656
I20 Sr1 3.431693 1_655
I20 Sr2 3.684952 1_555
I21 Sr0 3.346912 1_666
I21 Sr3 3.775636 1_556
I22 Sr0 3.346912 1_655
I22 Sr3 3.775636 1_555
I23 Sr1 3.431693 1_655
I23 Sr2 3.684952 1_555
