# generated using pymatgen
data_Li2VCrP2(O4F)2
_symmetry_space_group_name_H-M   'P 1'
_cell_length_a   5.37081200
_cell_length_b   7.40905343
_cell_length_c   14.55085536
_cell_angle_alpha   94.23449403
_cell_angle_beta   92.70382709
_cell_angle_gamma   109.78129152
_symmetry_Int_Tables_number   1
_chemical_formula_structural   Li2VCrP2(O4F)2
_chemical_formula_sum   'Li6 V3 Cr3 P6 O24 F6'
_cell_volume   541.75360471
_cell_formula_units_Z   3
loop_
 _symmetry_equiv_pos_site_id
 _symmetry_equiv_pos_as_xyz
  1  'x, y, z'
loop_
 _atom_site_type_symbol
 _atom_site_label
 _atom_site_symmetry_multiplicity
 _atom_site_fract_x
 _atom_site_fract_y
 _atom_site_fract_z
 _atom_site_occupancy
  Li  Li0  1  0.60050800  0.21552500  0.02680500  1
  Li  Li1  1  0.73179600  0.11773500  0.30674600  1
  Li  Li2  1  0.93409100  0.54934600  0.36101100  1
  Li  Li3  1  0.06659900  0.45032400  0.63919400  1
  Li  Li4  1  0.26679300  0.88297800  0.69383300  1
  Li  Li5  1  0.40014900  0.78386500  0.97246600  1
  V  V0  1  0.00005800  0.99947000  0.99933000  1
  V  V1  1  0.66598000  0.66654100  0.16690900  1
  V  V2  1  0.66632800  0.66676700  0.66644500  1
  Cr  Cr0  1  0.33366300  0.33376900  0.33400700  1
  Cr  Cr1  1  0.00054500  0.00020600  0.49993500  1
  Cr  Cr2  1  0.33349600  0.33329800  0.83327800  1
  P  P0  1  0.02571900  0.38355800  0.14708400  1
  P  P1  1  0.30871800  0.95057400  0.18726000  1
  P  P2  1  0.63959800  0.28062800  0.51997800  1
  P  P3  1  0.35942800  0.71867100  0.47928600  1
  P  P4  1  0.69238200  0.05292700  0.81288500  1
  P  P5  1  0.97405900  0.61347600  0.85343800  1
  O  O0  1  0.93247800  0.17940200  0.09416300  1
  O  O1  1  0.29623700  0.51006600  0.11889800  1
  O  O2  1  0.80197700  0.45997900  0.11655900  1
  O  O3  1  0.30405400  0.96818100  0.08024200  1
  O  O4  1  0.40228400  0.15503100  0.23886900  1
  O  O5  1  0.03212500  0.36551600  0.25385000  1
  O  O6  1  0.03702400  0.82351500  0.21454300  1
  O  O7  1  0.53169400  0.87300400  0.21773900  1
  O  O8  1  0.63363100  0.30009200  0.41303800  1
  O  O9  1  0.26387100  0.51313900  0.42778900  1
  O  O10  1  0.13286300  0.79307300  0.44958100  1
  O  O11  1  0.36891800  0.15631200  0.54803800  1
  O  O12  1  0.63095800  0.84381800  0.45186000  1
  O  O13  1  0.86699600  0.20754200  0.54982200  1
  O  O14  1  0.73398600  0.48623800  0.57247900  1
  O  O15  1  0.36441700  0.69853700  0.58643600  1
  O  O16  1  0.46553400  0.12598700  0.78254400  1
  O  O17  1  0.96392700  0.17712400  0.78547700  1
  O  O18  1  0.96945600  0.63521000  0.74670300  1
  O  O19  1  0.59908900  0.84707200  0.76084200  1
  O  O20  1  0.69643200  0.03256600  0.91973700  1
  O  O21  1  0.20076000  0.54029300  0.88382400  1
  O  O22  1  0.70286200  0.48926600  0.88119400  1
  O  O23  1  0.06853800  0.81909500  0.90580700  1
  F  F0  1  0.70834900  0.78107400  0.04414300  1
  F  F1  1  0.04582200  0.11592600  0.37890600  1
  F  F2  1  0.62005300  0.54843100  0.29001700  1
  F  F3  1  0.37366800  0.44552800  0.71308700  1
  F  F4  1  0.95940600  0.88811500  0.62003100  1
  F  F5  1  0.29267900  0.22120700  0.95389700  1
loop_
_geom_bond_atom_site_label_1
_geom_bond_atom_site_label_2
_geom_bond_distance
_geom_bond_site_symmetry_2
Li0 O2 2.085107 1_555
Li0 O0 2.099528 1_555
Li0 O20 2.183264 1_554
Li0 O3 2.202343 1_545
Li1 O7 2.079190 1_545
Li1 O4 2.095292 1_555
Li1 O8 2.178532 1_555
Li1 O5 2.210415 1_655
Li2 O10 2.069578 1_655
Li2 O9 2.085892 1_655
Li2 O5 2.193827 1_655
Li2 O8 2.211835 1_555
Li3 O13 2.072152 1_455
Li3 O14 2.097781 1_455
Li3 O18 2.200028 1_455
Li3 O15 2.205247 1_555
Li4 O16 2.067180 1_565
Li4 O19 2.098122 1_555
Li4 O15 2.198027 1_555
Li4 O18 2.202760 1_455
Li5 O21 2.070025 1_555
Li5 O23 2.090461 1_555
Li5 O3 2.197215 1_556
Li5 O20 2.203514 1_565
Cr0 O9 1.971401 1_555
Cr0 F2 1.972947 1_555
Cr0 O4 1.978307 1_555
Cr0 F1 1.995975 1_555
Cr0 O8 2.029755 1_555
Cr0 O5 2.039274 1_555
Cr1 F4 1.979604 1_445
Cr1 O11 1.985672 1_555
Cr1 O12 1.991128 1_445
Cr1 F1 2.004464 1_555
Cr1 O10 2.004574 1_545
Cr1 O13 2.007844 1_455
Cr2 F3 1.981284 1_555
Cr2 F5 1.986581 1_555
Cr2 O22 1.988915 1_555
Cr2 O17 1.989667 1_455
Cr2 O21 2.006025 1_555
Cr2 O16 2.006565 1_555
O0 P0 1.552616 1_655
O0 V0 1.978938 1_644
O1 P0 1.532612 1_555
O1 V1 1.991682 1_555
O2 P0 1.552165 1_655
O2 V1 2.013456 1_555
O3 P1 1.571960 1_555
O3 V0 2.054442 1_554
O4 P1 1.546716 1_545
O5 P0 1.568842 1_555
O6 P1 1.534006 1_555
O6 V1 1.996550 1_455
O7 P1 1.553878 1_555
O7 V1 2.009270 1_555
O8 P2 1.573129 1_555
O9 P3 1.552422 1_555
O10 P3 1.552735 1_555
O11 P2 1.527654 1_555
O12 P3 1.529720 1_555
O13 P2 1.551040 1_555
O14 P2 1.558892 1_555
O14 V2 1.973913 1_555
O15 P3 1.577007 1_555
O15 V2 2.039795 1_555
O16 P4 1.550244 1_555
O17 P4 1.527573 1_555
O18 P5 1.573093 1_555
O18 V2 2.046361 1_555
O19 P4 1.557914 1_565
O19 V2 1.975862 1_555
O20 P4 1.572979 1_555
O20 V0 2.048190 1_645
O21 P5 1.550300 1_455
O22 P5 1.527960 1_555
O23 P5 1.558162 1_455
O23 V0 1.970910 1_555
F0 Li5 1.921363 1_554
F0 V0 2.008566 1_654
F0 V1 2.023469 1_555
F1 Li1 1.948716 1_455
F2 Li2 1.933592 1_555
F2 V1 2.040231 1_555
F3 Li3 1.937843 1_555
F3 V2 2.034484 1_555
F4 Li4 1.939459 1_655
F4 V2 2.034679 1_555
F5 Li0 1.936189 1_556
F5 V0 2.028988 1_545
