# generated using pymatgen
data_LiFeF4
_symmetry_space_group_name_H-M   'P 1'
_cell_length_a   3.05628400
_cell_length_b   6.43283700
_cell_length_c   15.49608900
_cell_angle_alpha   90.00000000
_cell_angle_beta   90.00000000
_cell_angle_gamma   90.00000000
_symmetry_Int_Tables_number   1
_chemical_formula_structural   LiFeF4
_chemical_formula_sum   'Li4 Fe4 F16'
_cell_volume   304.66204785
_cell_formula_units_Z   4
loop_
 _symmetry_equiv_pos_site_id
 _symmetry_equiv_pos_as_xyz
  1  'x, y, z'
loop_
 _atom_site_type_symbol
 _atom_site_label
 _atom_site_symmetry_multiplicity
 _atom_site_fract_x
 _atom_site_fract_y
 _atom_site_fract_z
 _atom_site_occupancy
  Li  Li0  1  0.75000000  0.34331400  0.84956600  1
  Li  Li1  1  0.25000000  0.15668600  0.34956600  1
  Li  Li2  1  0.75000000  0.84331400  0.65043400  1
  Li  Li3  1  0.25000000  0.65668600  0.15043400  1
  Fe  Fe0  1  0.25000000  0.34326900  0.63087600  1
  Fe  Fe1  1  0.75000000  0.15673100  0.13087600  1
  Fe  Fe2  1  0.25000000  0.84326900  0.86912400  1
  Fe  Fe3  1  0.75000000  0.65673100  0.36912400  1
  F  F0  1  0.25000000  0.04541000  0.62985300  1
  F  F1  1  0.25000000  0.16307000  0.21721300  1
  F  F2  1  0.25000000  0.13916600  0.86044000  1
  F  F3  1  0.25000000  0.15388100  0.05031700  1
  F  F4  1  0.75000000  0.34611900  0.55031700  1
  F  F5  1  0.75000000  0.36083400  0.36044000  1
  F  F6  1  0.75000000  0.33693000  0.71721300  1
  F  F7  1  0.75000000  0.45459000  0.12985300  1
  F  F8  1  0.25000000  0.54541000  0.87014700  1
  F  F9  1  0.25000000  0.66307000  0.28278700  1
  F  F10  1  0.25000000  0.63916600  0.63956000  1
  F  F11  1  0.25000000  0.65388100  0.44968300  1
  F  F12  1  0.75000000  0.84611900  0.94968300  1
  F  F13  1  0.75000000  0.86083400  0.13956000  1
  F  F14  1  0.75000000  0.83693000  0.78278700  1
  F  F15  1  0.75000000  0.95459000  0.37014700  1
loop_
_geom_bond_atom_site_label_1
_geom_bond_atom_site_label_2
_geom_bond_distance
_geom_bond_site_symmetry_2
F0 Fe0 1.916144 1_555
F0 Li2 2.031517 1_445
F0 Li2 2.031517 1_545
F1 Fe1 2.031457 1_455
F1 Fe1 2.031457 1_555
F1 Li1 2.051365 1_555
F2 Fe2 1.908208 1_545
F2 Li0 2.021940 1_555
F2 Li0 2.021940 1_455
F3 Fe1 1.973304 1_555
F3 Fe1 1.973304 1_455
F4 Fe0 1.973304 1_655
F4 Fe0 1.973304 1_555
F5 Fe3 1.908208 1_555
F5 Li1 2.021940 1_555
F5 Li1 2.021940 1_655
F6 Fe0 2.031457 1_655
F6 Fe0 2.031457 1_555
F6 Li0 2.051365 1_555
F7 Fe1 1.916144 1_555
F7 Li3 2.031517 1_555
F7 Li3 2.031517 1_655
F8 Fe2 1.916144 1_555
F8 Li0 2.031517 1_555
F8 Li0 2.031517 1_455
F9 Fe3 2.031457 1_455
F9 Fe3 2.031457 1_555
F9 Li3 2.051365 1_555
F10 Fe0 1.908208 1_555
F10 Li2 2.021940 1_555
F10 Li2 2.021940 1_455
F11 Fe3 1.973304 1_555
F11 Fe3 1.973304 1_455
F12 Fe2 1.973304 1_555
F12 Fe2 1.973304 1_655
F13 Fe1 1.908208 1_565
F13 Li3 2.021940 1_655
F13 Li3 2.021940 1_555
F14 Fe2 2.031457 1_555
F14 Fe2 2.031457 1_655
F14 Li2 2.051365 1_555
F15 Fe3 1.916144 1_555
F15 Li1 2.031517 1_565
F15 Li1 2.031517 1_665
