# generated using pymatgen
data_Li2Mn4O3F8
_symmetry_space_group_name_H-M   'P 1'
_cell_length_a   5.12418400
_cell_length_b   6.58573968
_cell_length_c   6.94206266
_cell_angle_alpha   108.40418671
_cell_angle_beta   105.91491509
_cell_angle_gamma   96.94823695
_symmetry_Int_Tables_number   1
_chemical_formula_structural   Li2Mn4O3F8
_chemical_formula_sum   'Li2 Mn4 O3 F8'
_cell_volume   208.16505537
_cell_formula_units_Z   1
loop_
 _symmetry_equiv_pos_site_id
 _symmetry_equiv_pos_as_xyz
  1  'x, y, z'
loop_
 _atom_site_type_symbol
 _atom_site_label
 _atom_site_symmetry_multiplicity
 _atom_site_fract_x
 _atom_site_fract_y
 _atom_site_fract_z
 _atom_site_occupancy
  Li  Li0  1  0.66800000  0.18177400  0.39820600  1
  Li  Li1  1  0.33200000  0.81822600  0.60179400  1
  Mn  Mn0  1  0.89450900  0.24778900  0.97392100  1
  Mn  Mn1  1  0.33541400  0.37716700  0.76382900  1
  Mn  Mn2  1  0.66458600  0.62283300  0.23617100  1
  Mn  Mn3  1  0.10549100  0.75221100  0.02607900  1
  O  O0  1  0.00000000  0.00000000  0.00000000  1
  O  O1  1  0.73909700  0.52200900  0.96173600  1
  O  O2  1  0.26090300  0.47799100  0.03826400  1
  F  F0  1  0.49497000  0.10352000  0.80827700  1
  F  F1  1  0.95142100  0.20466600  0.65601100  1
  F  F2  1  0.39215300  0.29259500  0.50088400  1
  F  F3  1  0.80086100  0.34637500  0.25762000  1
  F  F4  1  0.19913900  0.65362500  0.74238000  1
  F  F5  1  0.60784700  0.70740500  0.49911600  1
  F  F6  1  0.04857900  0.79533400  0.34398900  1
  F  F7  1  0.50503000  0.89648000  0.19172300  1
loop_
_geom_bond_atom_site_label_1
_geom_bond_atom_site_label_2
_geom_bond_distance
_geom_bond_site_symmetry_2
Mn0 O0 1.826005 1_656
Mn0 O1 2.076113 1_555
Mn0 O2 2.108709 1_656
Mn1 O2 1.969196 1_556
Mn1 O1 2.052524 1_555
Mn2 O1 1.969196 1_554
Mn2 O2 2.052524 1_555
Mn3 O0 1.826005 1_565
Mn3 O2 2.076113 1_555
Mn3 O1 2.108709 1_454
F0 Li1 1.882959 1_545
F0 Mn0 1.991204 1_555
F0 Mn1 2.140268 1_555
F1 Li0 1.919933 1_555
F1 Mn1 1.958838 1_655
F1 Mn0 2.239101 1_555
F2 Mn1 1.847978 1_555
F2 Li0 1.874128 1_555
F3 Li0 1.856057 1_555
F3 Mn2 2.060687 1_555
F3 Mn0 2.077701 1_554
F4 Li1 1.856057 1_555
F4 Mn1 2.060687 1_555
F4 Mn3 2.077701 1_556
F5 Mn2 1.847978 1_555
F5 Li1 1.874128 1_555
F6 Li1 1.919933 1_555
F6 Mn2 1.958838 1_455
F6 Mn3 2.239101 1_555
F7 Li0 1.882959 1_565
F7 Mn3 1.991204 1_555
F7 Mn2 2.140268 1_555
