# generated using pymatgen
data_Mg3P2(HO)16
_symmetry_space_group_name_H-M   'P 1'
_cell_length_a   14.12049540
_cell_length_b   14.12049540
_cell_length_c   10.00757931
_cell_angle_alpha   88.11858000
_cell_angle_beta   88.11858000
_cell_angle_gamma   160.91290782
_symmetry_Int_Tables_number   1
_chemical_formula_structural   Mg3P2(HO)16
_chemical_formula_sum   'Mg6 P4 H32 O32'
_cell_volume   639.58336427
_cell_formula_units_Z   2
loop_
 _symmetry_equiv_pos_site_id
 _symmetry_equiv_pos_as_xyz
  1  'x, y, z'
loop_
 _atom_site_type_symbol
 _atom_site_label
 _atom_site_symmetry_multiplicity
 _atom_site_fract_x
 _atom_site_fract_y
 _atom_site_fract_z
 _atom_site_occupancy
  Mg  Mg0  1  0.18298500  0.81701500  0.75000000  1
  Mg  Mg1  1  0.07606400  0.92393600  0.75000000  1
  Mg  Mg2  1  0.62725700  0.37274300  0.25000000  1
  Mg  Mg3  1  0.37274300  0.62725700  0.75000000  1
  Mg  Mg4  1  0.81701500  0.18298500  0.25000000  1
  Mg  Mg5  1  0.92393600  0.07606400  0.25000000  1
  P  P0  1  0.44224400  0.70357500  0.06273100  1
  P  P1  1  0.29642500  0.55775600  0.43726900  1
  P  P2  1  0.70357500  0.44224400  0.56273100  1
  P  P3  1  0.55775600  0.29642500  0.93726900  1
  H  H0  1  0.08292100  0.90465800  0.12571300  1
  H  H1  1  0.15361400  0.81528100  0.12934700  1
  H  H2  1  0.18471900  0.84638600  0.37065300  1
  H  H3  1  0.09534200  0.91707900  0.37428700  1
  H  H4  1  0.19601600  0.17522700  0.34946600  1
  H  H5  1  0.50440000  0.03678200  0.20742700  1
  H  H6  1  0.33711200  0.18708000  0.45012400  1
  H  H7  1  0.46207800  0.08265600  0.43624800  1
  H  H8  1  0.13560400  0.58506800  0.37535300  1
  H  H9  1  0.32669400  0.40169700  0.37675100  1
  H  H10  1  0.17522700  0.19601600  0.84946600  1
  H  H11  1  0.03678200  0.50440000  0.70742700  1
  H  H12  1  0.18708000  0.33711200  0.95012400  1
  H  H13  1  0.08265600  0.46207800  0.93624800  1
  H  H14  1  0.59830300  0.67330600  0.12324900  1
  H  H15  1  0.41493200  0.86439600  0.12464700  1
  H  H16  1  0.58506800  0.13560400  0.87535300  1
  H  H17  1  0.40169700  0.32669400  0.87675100  1
  H  H18  1  0.91734400  0.53792200  0.06375200  1
  H  H19  1  0.81292000  0.66288800  0.04987600  1
  H  H20  1  0.96321800  0.49560000  0.29257300  1
  H  H21  1  0.82477300  0.80398400  0.15053400  1
  H  H22  1  0.67330600  0.59830300  0.62324900  1
  H  H23  1  0.86439600  0.41493200  0.62464700  1
  H  H24  1  0.53792200  0.91734400  0.56375200  1
  H  H25  1  0.66288800  0.81292000  0.54987600  1
  H  H26  1  0.49560000  0.96321800  0.79257300  1
  H  H27  1  0.80398400  0.82477300  0.65053400  1
  H  H28  1  0.90465800  0.08292100  0.62571300  1
  H  H29  1  0.81528100  0.15361400  0.62934700  1
  H  H30  1  0.84638600  0.18471900  0.87065300  1
  H  H31  1  0.91707900  0.09534200  0.87428700  1
  O  O0  1  0.05639300  0.58221000  0.65179400  1
  O  O1  1  0.40778500  0.14780900  0.09251100  1
  O  O2  1  0.05462600  0.31485200  0.35168300  1
  O  O3  1  0.15728300  0.20764700  0.35250600  1
  O  O4  1  0.39884500  0.03138200  0.34615600  1
  O  O5  1  0.28033000  0.13159300  0.35694000  1
  O  O6  1  0.29966000  0.46799300  0.09059200  1
  O  O7  1  0.20981400  0.56438400  0.09046700  1
  O  O8  1  0.14780900  0.40778500  0.59251100  1
  O  O9  1  0.41779000  0.94360700  0.84820600  1
  O  O10  1  0.31485200  0.05462600  0.85168300  1
  O  O11  1  0.20764700  0.15728300  0.85250600  1
  O  O12  1  0.03138200  0.39884500  0.84615600  1
  O  O13  1  0.13159300  0.28033000  0.85694000  1
  O  O14  1  0.46799300  0.29966000  0.59059200  1
  O  O15  1  0.56438400  0.20981400  0.59046700  1
  O  O16  1  0.43561600  0.79018600  0.40953300  1
  O  O17  1  0.53200700  0.70034000  0.40940800  1
  O  O18  1  0.86840700  0.71967000  0.14306000  1
  O  O19  1  0.96861800  0.60115500  0.15384400  1
  O  O20  1  0.79235300  0.84271700  0.14749400  1
  O  O21  1  0.68514800  0.94537400  0.14831700  1
  O  O22  1  0.58221000  0.05639300  0.15179400  1
  O  O23  1  0.85219100  0.59221500  0.40748900  1
  O  O24  1  0.79018600  0.43561600  0.90953300  1
  O  O25  1  0.70034000  0.53200700  0.90940800  1
  O  O26  1  0.71967000  0.86840700  0.64306000  1
  O  O27  1  0.60115500  0.96861800  0.65384400  1
  O  O28  1  0.84271700  0.79235300  0.64749400  1
  O  O29  1  0.94537400  0.68514800  0.64831700  1
  O  O30  1  0.59221500  0.85219100  0.90748900  1
  O  O31  1  0.94360700  0.41779000  0.34820600  1
loop_
_geom_bond_atom_site_label_1
_geom_bond_atom_site_label_2
_geom_bond_distance
_geom_bond_site_symmetry_2
Mg0 O0 2.069237 1_555
Mg0 O9 2.069237 1_555
Mg0 O29 2.073782 1_455
Mg0 O10 2.073782 1_565
Mg0 O15 2.171008 1_565
Mg0 O24 2.171008 1_455
Mg1 O28 2.034071 1_455
Mg1 O11 2.034071 1_565
Mg1 O10 2.097184 1_565
Mg1 O29 2.097184 1_455
Mg1 O25 2.165704 1_455
Mg1 O14 2.165704 1_565
Mg2 O1 2.054679 1_555
Mg2 O23 2.054679 1_555
Mg2 O5 2.151022 1_555
Mg2 O18 2.151022 1_555
Mg2 O19 2.161190 1_555
Mg2 O4 2.161190 1_555
Mg3 O8 2.054679 1_555
Mg3 O30 2.054679 1_555
Mg3 O13 2.151022 1_555
Mg3 O26 2.151022 1_555
Mg3 O27 2.161190 1_555
Mg3 O12 2.161190 1_555
Mg4 O22 2.069237 1_555
Mg4 O31 2.069237 1_555
Mg4 O21 2.073782 1_545
Mg4 O2 2.073782 1_655
Mg4 O16 2.171008 1_545
Mg4 O7 2.171008 1_655
Mg5 O20 2.034071 1_545
Mg5 O3 2.034071 1_655
Mg5 O2 2.097184 1_655
Mg5 O21 2.097184 1_545
Mg5 O17 2.165704 1_545
Mg5 O6 2.165704 1_655
H0 O18 1.004811 1_455
H0 O1 1.731620 1_565
H1 O19 1.003506 1_455
H1 O1 1.735668 1_565
H2 O4 1.003506 1_565
H2 O23 1.735668 1_455
H3 O5 1.004811 1_565
H3 O23 1.731620 1_455
H4 O3 0.991298 1_555
H5 O22 0.984119 1_555
H6 O5 1.017901 1_555
H6 O14 1.638065 1_555
H7 O4 1.004095 1_555
H8 O31 0.995118 1_455
H9 O3 0.991164 1_555
H10 O11 0.991298 1_555
H11 O0 0.984119 1_555
H12 O13 1.017901 1_555
H12 O6 1.638065 1_556
H13 O12 1.004095 1_555
H14 O20 0.991164 1_555
H15 O22 0.995118 1_565
H16 O9 0.995118 1_545
H17 O11 0.991164 1_555
H18 O19 1.004095 1_555
H19 O18 1.017901 1_555
H19 O25 1.638065 1_554
H20 O31 0.984119 1_555
H21 O20 0.991298 1_555
H22 O28 0.991164 1_555
H23 O0 0.995118 1_655
H24 O27 1.004095 1_555
H25 O26 1.017901 1_555
H25 O17 1.638065 1_555
H26 O9 0.984119 1_555
H27 O28 0.991298 1_555
H28 O26 1.004811 1_545
H28 O8 1.731620 1_655
H29 O27 1.003506 1_545
H29 O8 1.735668 1_655
H30 O12 1.003506 1_655
H30 O30 1.735668 1_545
H31 O13 1.004811 1_655
H31 O30 1.731620 1_545
O1 P3 1.572438 1_554
O2 P1 1.551270 1_555
O6 P0 1.562318 1_555
O7 P0 1.556943 1_555
O8 P1 1.572438 1_555
O10 P3 1.551270 1_555
O14 P2 1.562318 1_555
O15 P2 1.556943 1_555
O16 P1 1.556943 1_555
O17 P1 1.562318 1_555
O21 P0 1.551270 1_555
O23 P2 1.572438 1_555
O24 P3 1.556943 1_555
O25 P3 1.562318 1_555
O29 P2 1.551270 1_555
O30 P0 1.572438 1_556
