# generated using pymatgen
data_Li4Nb2Fe3Sb3O16
_symmetry_space_group_name_H-M   'P 1'
_cell_length_a   6.32426403
_cell_length_b   6.32426403
_cell_length_c   9.99205836
_cell_angle_alpha   89.26079048
_cell_angle_beta   89.26079048
_cell_angle_gamma   59.14430978
_symmetry_Int_Tables_number   1
_chemical_formula_structural   Li4Nb2Fe3Sb3O16
_chemical_formula_sum   'Li4 Nb2 Fe3 Sb3 O16'
_cell_volume   343.04266360
_cell_formula_units_Z   1
loop_
 _symmetry_equiv_pos_site_id
 _symmetry_equiv_pos_as_xyz
  1  'x, y, z'
loop_
 _atom_site_type_symbol
 _atom_site_label
 _atom_site_symmetry_multiplicity
 _atom_site_fract_x
 _atom_site_fract_y
 _atom_site_fract_z
 _atom_site_occupancy
  Li  Li0  1  0.32988200  0.32988200  0.10582400  1
  Li  Li1  1  0.01455900  0.01455900  0.01757800  1
  Li  Li2  1  0.01024400  0.01024400  0.50411900  1
  Li  Li3  1  0.66591800  0.66591800  0.58569400  1
  Nb  Nb0  1  0.33103700  0.33103700  0.50166400  1
  Nb  Nb1  1  0.65721500  0.65721500  0.02120400  1
  Fe  Fe0  1  0.16795600  0.16795600  0.78828600  1
  Fe  Fe1  1  0.83799900  0.33879900  0.28964900  1
  Fe  Fe2  1  0.33879900  0.83799900  0.28964900  1
  Sb  Sb0  1  0.65093400  0.17140800  0.78629400  1
  Sb  Sb1  1  0.17140800  0.65093400  0.78629400  1
  Sb  Sb2  1  0.82950300  0.82950300  0.28400100  1
  O  O0  1  0.66317100  0.14136600  0.40366300  1
  O  O1  1  0.47962800  0.47962800  0.60475300  1
  O  O2  1  0.30511100  0.30511100  0.90700400  1
  O  O3  1  0.01268300  0.01268300  0.69060600  1
  O  O4  1  0.99455600  0.99455600  0.20015500  1
  O  O5  1  0.14136600  0.66317100  0.40366300  1
  O  O6  1  0.47220800  0.04716800  0.65629400  1
  O  O7  1  0.04716800  0.47220800  0.65629400  1
  O  O8  1  0.83561500  0.83561500  0.90307300  1
  O  O9  1  0.17009900  0.17009900  0.40625800  1
  O  O10  1  0.96397300  0.54294800  0.15617400  1
  O  O11  1  0.54294800  0.96397300  0.15617400  1
  O  O12  1  0.67542000  0.67542000  0.39014400  1
  O  O13  1  0.84776800  0.35644000  0.91976100  1
  O  O14  1  0.52791100  0.52791100  0.15242800  1
  O  O15  1  0.35644000  0.84776800  0.91976100  1
loop_
_geom_bond_atom_site_label_1
_geom_bond_atom_site_label_2
_geom_bond_distance
_geom_bond_site_symmetry_2
Li0 O2 2.009224 1_554
Li0 O10 2.052518 1_455
Li0 O11 2.052518 1_545
Li0 O14 2.234450 1_555
Li1 O4 1.834300 1_445
Li1 O15 2.091764 1_544
Li1 O13 2.091764 1_454
Li1 O8 2.291511 1_444
Li2 O3 1.863980 1_555
Li2 O9 1.999404 1_555
Li2 O5 2.163664 1_545
Li2 O0 2.163664 1_455
Li3 O12 1.955192 1_555
Li3 O1 2.055366 1_555
Li3 O7 2.191731 1_655
Li3 O6 2.191731 1_565
Nb0 O1 1.944997 1_555
Nb0 O9 2.023209 1_555
Nb0 O5 2.050026 1_555
Nb0 O0 2.050026 1_555
Nb0 O6 2.174221 1_555
Nb0 O7 2.174221 1_555
Nb1 O14 1.920231 1_555
Nb1 O15 1.940327 1_554
Nb1 O13 1.940327 1_554
Nb1 O10 2.170021 1_555
Nb1 O11 2.170021 1_555
Nb1 O8 2.275120 1_554
Fe0 O2 1.933082 1_555
Fe0 O3 1.979853 1_555
Fe0 O7 2.116172 1_555
Fe0 O6 2.116172 1_555
Fe0 O15 2.177840 1_545
Fe0 O13 2.177840 1_455
Fe1 O4 2.082301 1_545
Fe1 O12 2.093054 1_555
Fe1 O9 2.153985 1_655
Fe1 O14 2.185732 1_555
Fe1 O10 2.250248 1_555
Fe1 O0 2.329438 1_555
Fe2 O4 2.082301 1_455
Fe2 O12 2.093054 1_555
Fe2 O9 2.153985 1_565
Fe2 O14 2.185732 1_555
Fe2 O11 2.250248 1_555
Fe2 O5 2.329438 1_555
O0 Sb2 2.080000 1_545
O1 Sb0 2.461121 1_555
O1 Sb1 2.461121 1_555
O2 Sb1 2.239277 1_555
O2 Sb0 2.239277 1_555
O3 Sb0 2.183683 1_455
O3 Sb1 2.183683 1_545
O4 Sb2 1.988374 1_555
O5 Sb2 2.080000 1_455
O6 Sb0 2.134828 1_555
O7 Sb1 2.134828 1_555
O8 Sb1 2.159300 1_655
O8 Sb0 2.159300 1_565
O10 Sb2 2.022294 1_555
O11 Sb2 2.022294 1_555
O12 Sb2 1.986125 1_555
O13 Sb0 2.504950 1_555
O15 Sb1 2.504950 1_555
