# generated using pymatgen
data_CoPO4
_symmetry_space_group_name_H-M   'P 1'
_cell_length_a   4.75901400
_cell_length_b   6.62282700
_cell_length_c   8.64480900
_cell_angle_alpha   90.00000000
_cell_angle_beta   90.00000000
_cell_angle_gamma   90.00000000
_symmetry_Int_Tables_number   1
_chemical_formula_structural   CoPO4
_chemical_formula_sum   'Co4 P4 O16'
_cell_volume   272.46818287
_cell_formula_units_Z   4
loop_
 _symmetry_equiv_pos_site_id
 _symmetry_equiv_pos_as_xyz
  1  'x, y, z'
loop_
 _atom_site_type_symbol
 _atom_site_label
 _atom_site_symmetry_multiplicity
 _atom_site_fract_x
 _atom_site_fract_y
 _atom_site_fract_z
 _atom_site_occupancy
  Co  Co0  1  0.00000000  0.50000000  0.00000000  1
  Co  Co1  1  0.00000000  0.00000000  0.00000000  1
  Co  Co2  1  0.50000000  0.50000000  0.50000000  1
  Co  Co3  1  0.50000000  0.00000000  0.50000000  1
  P  P0  1  0.46326100  0.25000000  0.17616600  1
  P  P1  1  0.96326100  0.75000000  0.32383400  1
  P  P2  1  0.03673900  0.25000000  0.67616600  1
  P  P3  1  0.53673900  0.75000000  0.82383400  1
  O  O0  1  0.76846400  0.25000000  0.11448200  1
  O  O1  1  0.31101000  0.44199500  0.11953600  1
  O  O2  1  0.31101000  0.05800500  0.11953600  1
  O  O3  1  0.93668800  0.75000000  0.14373800  1
  O  O4  1  0.43668800  0.25000000  0.35626200  1
  O  O5  1  0.81101000  0.55800500  0.38046400  1
  O  O6  1  0.81101000  0.94199500  0.38046400  1
  O  O7  1  0.26846400  0.75000000  0.38551800  1
  O  O8  1  0.73153600  0.25000000  0.61448200  1
  O  O9  1  0.18899000  0.05800500  0.61953600  1
  O  O10  1  0.18899000  0.44199500  0.61953600  1
  O  O11  1  0.56331200  0.75000000  0.64373800  1
  O  O12  1  0.06331200  0.25000000  0.85626200  1
  O  O13  1  0.68899000  0.94199500  0.88046400  1
  O  O14  1  0.68899000  0.55800500  0.88046400  1
  O  O15  1  0.23153600  0.75000000  0.88551800  1
loop_
_geom_bond_atom_site_label_1
_geom_bond_atom_site_label_2
_geom_bond_distance
_geom_bond_site_symmetry_2
Co0 O14 1.845568 1_454
Co0 O1 1.845568 1_555
Co0 O3 2.091930 1_455
Co0 O12 2.091930 1_554
Co0 O15 2.221479 1_554
Co0 O0 2.221479 1_455
Co1 O13 1.845568 1_444
Co1 O2 1.845568 1_555
Co1 O3 2.091930 1_445
Co1 O12 2.091930 1_554
Co1 O15 2.221479 1_544
Co1 O0 2.221479 1_455
Co2 O5 1.845568 1_555
Co2 O10 1.845568 1_555
Co2 O4 2.091930 1_555
Co2 O11 2.091930 1_555
Co2 O7 2.221479 1_555
Co2 O8 2.221479 1_555
Co3 O6 1.845568 1_545
Co3 O9 1.845568 1_555
Co3 O4 2.091930 1_555
Co3 O11 2.091930 1_545
Co3 O8 2.221479 1_555
Co3 O7 2.221479 1_545
O0 P0 1.547258 1_555
O1 P0 1.543210 1_555
O2 P0 1.543210 1_555
O3 P1 1.562023 1_555
O4 P0 1.562023 1_555
O5 P1 1.543210 1_555
O6 P1 1.543210 1_555
O7 P1 1.547258 1_455
O8 P2 1.547258 1_655
O9 P2 1.543210 1_555
O10 P2 1.543210 1_555
O11 P3 1.562023 1_555
O12 P2 1.562023 1_555
O13 P3 1.543210 1_555
O14 P3 1.543210 1_555
O15 P3 1.547258 1_555
