# generated using pymatgen
data_Li4TiFe3O8
_symmetry_space_group_name_H-M   'P 1'
_cell_length_a   5.98554540
_cell_length_b   5.98554540
_cell_length_c   5.99717323
_cell_angle_alpha   59.88474243
_cell_angle_beta   59.88474243
_cell_angle_gamma   60.29579010
_symmetry_Int_Tables_number   1
_chemical_formula_structural   Li4TiFe3O8
_chemical_formula_sum   'Li4 Ti1 Fe3 O8'
_cell_volume   151.99814321
_cell_formula_units_Z   1
loop_
 _symmetry_equiv_pos_site_id
 _symmetry_equiv_pos_as_xyz
  1  'x, y, z'
loop_
 _atom_site_type_symbol
 _atom_site_label
 _atom_site_symmetry_multiplicity
 _atom_site_fract_x
 _atom_site_fract_y
 _atom_site_fract_z
 _atom_site_occupancy
  Li  Li0  1  0.50000000  0.50000000  0.50000000  1
  Li  Li1  1  0.00000000  0.00000000  0.50000000  1
  Li  Li2  1  0.00000000  0.50000000  0.50000000  1
  Li  Li3  1  0.50000000  0.00000000  0.50000000  1
  Ti  Ti0  1  0.00000000  0.00000000  0.00000000  1
  Fe  Fe0  1  0.50000000  0.50000000  0.00000000  1
  Fe  Fe1  1  0.50000000  0.00000000  0.00000000  1
  Fe  Fe2  1  0.00000000  0.50000000  0.00000000  1
  O  O0  1  0.25464000  0.25464000  0.22451500  1
  O  O1  1  0.76054600  0.76054600  0.23178600  1
  O  O2  1  0.77682600  0.23819700  0.23050800  1
  O  O3  1  0.74536000  0.74536000  0.77548500  1
  O  O4  1  0.23819700  0.77682600  0.23050800  1
  O  O5  1  0.23945400  0.23945400  0.76821400  1
  O  O6  1  0.22317400  0.76180300  0.76949200  1
  O  O7  1  0.76180300  0.22317400  0.76949200  1
loop_
_geom_bond_atom_site_label_1
_geom_bond_atom_site_label_2
_geom_bond_distance
_geom_bond_site_symmetry_2
Li0 O5 2.197111 1_555
Li0 O1 2.197111 1_555
Li0 O2 2.257006 1_555
Li0 O6 2.257006 1_555
Li0 O7 2.257006 1_555
Li0 O4 2.257006 1_555
Li1 O6 2.096641 1_545
Li1 O2 2.096641 1_455
Li1 O4 2.096641 1_545
Li1 O7 2.096641 1_455
Li1 O0 2.150386 1_555
Li1 O3 2.150386 1_445
Li2 O1 2.157480 1_455
Li2 O5 2.157480 1_555
Li2 O7 2.175307 1_455
Li2 O4 2.175307 1_555
Li2 O3 2.213364 1_455
Li2 O0 2.213364 1_555
Li3 O5 2.157480 1_555
Li3 O1 2.157480 1_545
Li3 O6 2.175307 1_545
Li3 O2 2.175307 1_555
Li3 O0 2.213364 1_555
Li3 O3 2.213364 1_545
Fe0 O0 2.072556 1_555
Fe0 O3 2.072556 1_554
Fe0 O4 2.159537 1_555
Fe0 O2 2.159537 1_555
Fe0 O6 2.159537 1_554
Fe0 O7 2.159537 1_554
Fe1 O0 2.037038 1_555
Fe1 O3 2.037038 1_544
Fe1 O7 2.049069 1_554
Fe1 O4 2.049069 1_545
Fe1 O5 2.092729 1_554
Fe1 O1 2.092729 1_545
Fe2 O0 2.037038 1_555
Fe2 O3 2.037038 1_454
Fe2 O6 2.049069 1_554
Fe2 O2 2.049069 1_455
Fe2 O5 2.092729 1_554
Fe2 O1 2.092729 1_455
O1 Ti0 2.019426 1_665
O2 Ti0 1.991338 1_655
O4 Ti0 1.991338 1_565
O5 Ti0 2.019426 1_556
O6 Ti0 1.991338 1_566
O7 Ti0 1.991338 1_656
