# generated using pymatgen
data_Co25Cu11O48
_symmetry_space_group_name_H-M   'P 1'
_cell_length_a   9.95099650
_cell_length_b   9.95099650
_cell_length_c   9.92570129
_cell_angle_alpha   80.54132318
_cell_angle_beta   80.54132318
_cell_angle_gamma   120.17730687
_symmetry_Int_Tables_number   1
_chemical_formula_structural   Co25Cu11O48
_chemical_formula_sum   'Co25 Cu11 O48'
_cell_volume   802.19662022
_cell_formula_units_Z   1
loop_
 _symmetry_equiv_pos_site_id
 _symmetry_equiv_pos_as_xyz
  1  'x, y, z'
loop_
 _atom_site_type_symbol
 _atom_site_label
 _atom_site_symmetry_multiplicity
 _atom_site_fract_x
 _atom_site_fract_y
 _atom_site_fract_z
 _atom_site_occupancy
  Co  Co0  1  0.14617700  0.14617700  0.06231800  1
  Co  Co1  1  0.25103000  0.41782000  0.24869300  1
  Co  Co2  1  0.08475200  0.58470600  0.24982500  1
  Co  Co3  1  0.41782000  0.25103000  0.24869300  1
  Co  Co4  1  0.25165300  0.91729500  0.25032500  1
  Co  Co5  1  0.00078100  0.66683100  0.50028300  1
  Co  Co6  1  0.33205700  0.33205700  0.49932400  1
  Co  Co7  1  0.08141100  0.08141100  0.75017700  1
  Co  Co8  1  0.58373800  0.58373800  0.25068600  1
  Co  Co9  1  0.91743700  0.75057900  0.25173000  1
  Co  Co10  1  0.58470600  0.08475200  0.24982500  1
  Co  Co11  1  0.08290100  0.58339900  0.74994700  1
  Co  Co12  1  0.75057900  0.91743700  0.25173000  1
  Co  Co13  1  0.41618600  0.24890600  0.74895700  1
  Co  Co14  1  0.24890600  0.41618600  0.74895700  1
  Co  Co15  1  0.16672100  0.50148200  0.99923600  1
  Co  Co16  1  0.66683100  0.00078100  0.50028300  1
  Co  Co17  1  0.41548300  0.75007300  0.74931400  1
  Co  Co18  1  0.91729500  0.25165300  0.25032500  1
  Co  Co19  1  0.91453500  0.74815700  0.75100300  1
  Co  Co20  1  0.74815700  0.91453500  0.75100300  1
  Co  Co21  1  0.58339900  0.08290100  0.74994700  1
  Co  Co22  1  0.75007300  0.41548300  0.74931400  1
  Co  Co23  1  0.50148200  0.16672100  0.99923600  1
  Co  Co24  1  0.83200300  0.83200300  0.00169900  1
  Cu  Cu0  1  0.02080800  0.02080800  0.43957700  1
  Cu  Cu1  1  0.48127900  0.81357000  0.06229600  1
  Cu  Cu2  1  0.35520800  0.68727700  0.43707500  1
  Cu  Cu3  1  0.31169700  0.97874600  0.56172800  1
  Cu  Cu4  1  0.81357000  0.48127900  0.06229600  1
  Cu  Cu5  1  0.64467900  0.64467900  0.56413300  1
  Cu  Cu6  1  0.68727700  0.35520800  0.43707500  1
  Cu  Cu7  1  0.18699000  0.85419700  0.93775600  1
  Cu  Cu8  1  0.51948900  0.51948900  0.93479500  1
  Cu  Cu9  1  0.97874600  0.31169700  0.56172800  1
  Cu  Cu10  1  0.85419700  0.18699000  0.93775600  1
  O  O0  1  0.04664500  0.85983900  0.36987400  1
  O  O1  1  0.30921400  0.12230700  0.13070300  1
  O  O2  1  0.12230700  0.30921400  0.13070300  1
  O  O3  1  0.05086100  0.38393800  0.35338500  1
  O  O4  1  0.27201200  0.60529000  0.13130900  1
  O  O5  1  0.11838300  0.78516700  0.14639900  1
  O  O6  1  0.22911900  0.22911900  0.36545500  1
  O  O7  1  0.45248200  0.45248200  0.14429600  1
  O  O8  1  0.52503100  0.37791500  0.36768100  1
  O  O9  1  0.19318200  0.71188600  0.36874700  1
  O  O10  1  0.02309100  0.87542100  0.86946200  1
  O  O11  1  0.37791500  0.52503100  0.36768100  1
  O  O12  1  0.45719000  0.97549600  0.13151400  1
  O  O13  1  0.78987700  0.64185900  0.13388300  1
  O  O14  1  0.13943400  0.28670500  0.63177100  1
  O  O15  1  0.28670500  0.13943400  0.63177100  1
  O  O16  1  0.64185900  0.78987700  0.13388300  1
  O  O17  1  0.93733100  0.93733100  0.13372500  1
  O  O18  1  0.60529000  0.27201200  0.13130900  1
  O  O19  1  0.10285100  0.77061100  0.63347000  1
  O  O20  1  0.38393800  0.05086100  0.35338500  1
  O  O21  1  0.43608000  0.43608000  0.63256600  1
  O  O22  1  0.71689800  0.71689800  0.35570700  1
  O  O23  1  0.21518200  0.21518200  0.85314600  1
  O  O24  1  0.06190100  0.39645700  0.86698100  1
  O  O25  1  0.28298800  0.61729700  0.64558800  1
  O  O26  1  0.56332500  0.89724000  0.36781700  1
  O  O27  1  0.78516700  0.11838300  0.14639900  1
  O  O28  1  0.21076000  0.69295700  0.86768800  1
  O  O29  1  0.71188600  0.19318200  0.36874700  1
  O  O30  1  0.35812800  0.54479200  0.86686800  1
  O  O31  1  0.85983900  0.04664500  0.36987400  1
  O  O32  1  0.54479200  0.35812800  0.86686800  1
  O  O33  1  0.62064400  0.80740100  0.63141300  1
  O  O34  1  0.80740100  0.62064400  0.63141300  1
  O  O35  1  0.47424800  0.95603300  0.63133400  1
  O  O36  1  0.97549600  0.45719000  0.13151400  1
  O  O37  1  0.77061100  0.10285100  0.63347000  1
  O  O38  1  0.54783500  0.88154600  0.85392300  1
  O  O39  1  0.89724000  0.56332500  0.36781700  1
  O  O40  1  0.39645700  0.06190100  0.86698100  1
  O  O41  1  0.61729700  0.28298800  0.64558800  1
  O  O42  1  0.72725200  0.72725200  0.86907800  1
  O  O43  1  0.94786200  0.94786200  0.64736200  1
  O  O44  1  0.69295700  0.21076000  0.86768800  1
  O  O45  1  0.87542100  0.02309100  0.86946200  1
  O  O46  1  0.95603300  0.47424800  0.63133400  1
  O  O47  1  0.88154600  0.54783500  0.85392300  1
loop_
_geom_bond_atom_site_label_1
_geom_bond_atom_site_label_2
_geom_bond_distance
_geom_bond_site_symmetry_2
Co0 O17 1.957036 1_445
Co0 O23 1.960195 1_554
Co0 O1 1.961032 1_555
Co0 O2 1.961032 1_555
Co1 O11 1.917620 1_555
Co1 O3 1.921054 1_555
Co1 O4 1.922318 1_555
Co1 O2 1.922915 1_555
Co1 O6 1.925294 1_555
Co1 O7 1.927685 1_555
Co2 O5 1.920391 1_555
Co2 O36 1.921876 1_455
Co2 O3 1.922348 1_555
Co2 O9 1.922480 1_555
Co2 O39 1.923356 1_455
Co2 O4 1.927361 1_555
Co3 O8 1.917620 1_555
Co3 O20 1.921054 1_555
Co3 O18 1.922318 1_555
Co3 O1 1.922915 1_555
Co3 O6 1.925294 1_555
Co3 O7 1.927685 1_555
Co4 O20 1.917356 1_565
Co4 O9 1.920435 1_555
Co4 O5 1.921954 1_555
Co4 O12 1.923863 1_555
Co4 O1 1.924916 1_565
Co4 O0 1.924951 1_555
Co5 O39 1.916939 1_455
Co5 O0 1.918344 1_555
Co5 O19 1.918657 1_555
Co5 O9 1.922044 1_555
Co5 O46 1.922304 1_455
Co5 O34 1.923364 1_455
Co6 O8 1.923907 1_555
Co6 O11 1.923907 1_555
Co6 O6 1.924553 1_555
Co6 O14 1.926946 1_555
Co6 O15 1.926946 1_555
Co6 O21 1.927360 1_555
Co7 O43 1.920827 1_445
Co7 O15 1.920932 1_555
Co7 O14 1.920932 1_555
Co7 O23 1.923892 1_555
Co7 O45 1.928953 1_455
Co7 O10 1.928953 1_545
Co8 O11 1.917572 1_555
Co8 O8 1.917572 1_555
Co8 O13 1.921360 1_555
Co8 O16 1.921360 1_555
Co8 O7 1.928371 1_555
Co8 O22 1.934167 1_555
Co9 O13 1.916568 1_555
Co9 O39 1.918825 1_555
Co9 O22 1.922684 1_555
Co9 O17 1.924355 1_555
Co9 O5 1.926824 1_655
Co9 O0 1.928622 1_655
Co10 O27 1.920391 1_555
Co10 O12 1.921876 1_545
Co10 O20 1.922348 1_555
Co10 O29 1.922480 1_555
Co10 O26 1.923356 1_545
Co10 O18 1.927361 1_555
Co11 O24 1.916454 1_555
Co11 O25 1.919156 1_555
Co11 O28 1.919916 1_555
Co11 O46 1.920900 1_455
Co11 O19 1.921313 1_555
Co11 O47 1.921586 1_455
Co12 O16 1.916568 1_555
Co12 O26 1.918825 1_555
Co12 O22 1.922684 1_555
Co12 O17 1.924355 1_555
Co12 O27 1.926824 1_565
Co12 O31 1.928622 1_565
Co13 O21 1.920909 1_555
Co13 O15 1.922936 1_555
Co13 O32 1.923734 1_555
Co13 O41 1.923836 1_555
Co13 O23 1.927197 1_555
Co13 O40 1.927279 1_555
Co14 O21 1.920909 1_555
Co14 O14 1.922936 1_555
Co14 O30 1.923734 1_555
Co14 O25 1.923836 1_555
Co14 O23 1.927197 1_555
Co14 O24 1.927279 1_555
Co15 O28 1.918885 1_555
Co15 O36 1.919510 1_456
Co15 O4 1.921395 1_556
Co15 O2 1.923128 1_556
Co15 O30 1.925072 1_555
Co15 O24 1.925739 1_555
Co16 O26 1.916939 1_545
Co16 O31 1.918344 1_555
Co16 O37 1.918657 1_555
Co16 O29 1.922044 1_555
Co16 O35 1.922304 1_545
Co16 O33 1.923364 1_545
Co17 O28 1.919231 1_555
Co17 O30 1.919797 1_555
Co17 O25 1.919874 1_555
Co17 O33 1.920242 1_555
Co17 O38 1.920403 1_555
Co17 O35 1.922225 1_555
Co18 O3 1.917356 1_655
Co18 O29 1.920435 1_555
Co18 O27 1.921954 1_555
Co18 O36 1.923863 1_555
Co18 O2 1.924916 1_655
Co18 O31 1.924951 1_555
Co19 O43 1.915940 1_555
Co19 O10 1.919554 1_655
Co19 O47 1.920309 1_555
Co19 O19 1.922850 1_655
Co19 O42 1.924120 1_555
Co19 O34 1.925250 1_555
Co20 O43 1.915940 1_555
Co20 O45 1.919554 1_565
Co20 O38 1.920309 1_555
Co20 O37 1.922850 1_565
Co20 O42 1.924120 1_555
Co20 O33 1.925250 1_555
Co21 O40 1.916454 1_555
Co21 O41 1.919156 1_555
Co21 O44 1.919916 1_555
Co21 O35 1.920900 1_545
Co21 O37 1.921313 1_555
Co21 O38 1.921586 1_545
Co22 O44 1.919231 1_555
Co22 O32 1.919797 1_555
Co22 O41 1.919874 1_555
Co22 O34 1.920242 1_555
Co22 O47 1.920403 1_555
Co22 O46 1.922225 1_555
Co23 O44 1.918885 1_555
Co23 O12 1.919510 1_546
Co23 O18 1.921395 1_556
Co23 O1 1.923128 1_556
Co23 O32 1.925072 1_555
Co23 O40 1.925739 1_555
Co24 O13 1.919149 1_555
Co24 O16 1.919149 1_555
Co24 O45 1.921603 1_564
Co24 O10 1.921603 1_654
Co24 O17 1.926868 1_555
Co24 O42 1.927562 1_554
Cu0 O43 1.947700 1_445
Cu0 O6 1.952612 1_555
Cu0 O31 1.957125 1_455
Cu0 O0 1.957125 1_545
Cu1 O16 1.952109 1_555
Cu1 O38 1.952796 1_554
Cu1 O12 1.955478 1_555
Cu1 O4 1.956207 1_555
Cu2 O11 1.952750 1_555
Cu2 O25 1.954257 1_555
Cu2 O9 1.954805 1_555
Cu2 O26 1.958753 1_555
Cu3 O15 1.952012 1_565
Cu3 O20 1.952737 1_565
Cu3 O19 1.953779 1_555
Cu3 O35 1.956628 1_555
Cu4 O13 1.952109 1_555
Cu4 O47 1.952796 1_554
Cu4 O36 1.955478 1_555
Cu4 O18 1.956207 1_555
Cu5 O22 1.953517 1_555
Cu5 O33 1.953812 1_555
Cu5 O34 1.953812 1_555
Cu5 O21 1.954555 1_555
Cu6 O8 1.952750 1_555
Cu6 O41 1.954257 1_555
Cu6 O29 1.954805 1_555
Cu6 O39 1.958753 1_555
Cu7 O28 1.951485 1_555
Cu7 O40 1.954591 1_565
Cu7 O5 1.955241 1_556
Cu7 O10 1.956209 1_555
Cu8 O42 1.946910 1_555
Cu8 O32 1.950063 1_555
Cu8 O30 1.950063 1_555
Cu8 O7 1.963383 1_556
Cu9 O14 1.952012 1_655
Cu9 O3 1.952737 1_655
Cu9 O37 1.953779 1_555
Cu9 O46 1.956628 1_555
Cu10 O44 1.951485 1_555
Cu10 O24 1.954591 1_655
Cu10 O27 1.955241 1_556
Cu10 O45 1.956209 1_555
