# generated using pymatgen
data_Ca2WO5
_symmetry_space_group_name_H-M   'P 1'
_cell_length_a   5.29882837
_cell_length_b   7.44777813
_cell_length_c   11.09571831
_cell_angle_alpha   70.88768156
_cell_angle_beta   90.00000000
_cell_angle_gamma   90.00000000
_symmetry_Int_Tables_number   1
_chemical_formula_structural   Ca2WO5
_chemical_formula_sum   'Ca8 W4 O20'
_cell_volume   413.74998509
_cell_formula_units_Z   4
loop_
 _symmetry_equiv_pos_site_id
 _symmetry_equiv_pos_as_xyz
  1  'x, y, z'
loop_
 _atom_site_type_symbol
 _atom_site_label
 _atom_site_symmetry_multiplicity
 _atom_site_fract_x
 _atom_site_fract_y
 _atom_site_fract_z
 _atom_site_occupancy
  Ca  Ca0  1  0.58248510  0.84567399  0.81361624  1
  Ca  Ca1  1  0.91751490  0.84567399  0.31361624  1
  Ca  Ca2  1  0.01046999  0.65950312  0.62859378  1
  Ca  Ca3  1  0.51046999  0.34049688  0.87140622  1
  Ca  Ca4  1  0.48953001  0.65950312  0.12859378  1
  Ca  Ca5  1  0.98953001  0.34049688  0.37140622  1
  Ca  Ca6  1  0.08248510  0.15432601  0.68638376  1
  Ca  Ca7  1  0.41751490  0.15432601  0.18638376  1
  W  W0  1  0.50000000  0.00000000  0.50000000  1
  W  W1  1  0.00000000  0.00000000  -0.00000000  1
  W  W2  1  0.50000000  0.50000000  0.50000000  1
  W  W3  1  0.00000000  0.50000000  -0.00000000  1
  O  O0  1  0.77182183  0.99495580  0.61221774  1
  O  O1  1  0.87125123  0.74904378  0.00007891  1
  O  O2  1  0.29740272  0.88562984  0.64604713  1
  O  O3  1  0.30805781  0.60749461  0.92798316  1
  O  O4  1  0.72817817  0.99495580  0.11221774  1
  O  O5  1  0.62874877  0.74904378  0.50007891  1
  O  O6  1  0.20259728  0.88562984  0.14604713  1
  O  O7  1  0.84709920  0.55632386  0.83297609  1
  O  O8  1  0.19194219  0.60749461  0.42798316  1
  O  O9  1  0.34709920  0.44367614  0.66702391  1
  O  O10  1  0.65290080  0.55632386  0.33297609  1
  O  O11  1  0.80805781  0.39250539  0.57201684  1
  O  O12  1  0.15290080  0.44367614  0.16702391  1
  O  O13  1  0.79740272  0.11437016  0.85395287  1
  O  O14  1  0.37125123  0.25095622  0.49992109  1
  O  O15  1  0.27182183  0.00504420  0.88778226  1
  O  O16  1  0.69194219  0.39250539  0.07201684  1
  O  O17  1  0.70259728  0.11437016  0.35395287  1
  O  O18  1  0.12874877  0.25095622  -0.00007891  1
  O  O19  1  0.22817817  0.00504420  0.38778226  1
loop_
_geom_bond_atom_site_label_1
_geom_bond_atom_site_label_2
_geom_bond_distance
_geom_bond_site_symmetry_2
Ca0 O3 2.323254 1_555
Ca0 O15 2.331419 1_565
Ca0 O2 2.337766 1_555
Ca0 O0 2.368419 1_555
Ca0 O13 2.467485 1_565
Ca0 O1 2.482876 1_556
Ca0 O7 2.520537 1_555
Ca1 O8 2.323254 1_655
Ca1 O19 2.331419 1_665
Ca1 O6 2.337766 1_655
Ca1 O4 2.368419 1_555
Ca1 O17 2.467485 1_565
Ca1 O5 2.482876 1_555
Ca1 O10 2.520537 1_555
Ca2 O7 2.311171 1_455
Ca2 O2 2.323585 1_555
Ca2 O9 2.344898 1_555
Ca2 O5 2.438565 1_455
Ca2 O11 2.513204 1_455
Ca2 O8 2.567882 1_555
Ca2 O0 2.752586 1_455
Ca3 O9 2.311171 1_555
Ca3 O13 2.323585 1_555
Ca3 O7 2.344898 1_555
Ca3 O18 2.438565 1_556
Ca3 O3 2.513204 1_555
Ca3 O16 2.567882 1_556
Ca3 O15 2.752586 1_555
Ca4 O10 2.311171 1_555
Ca4 O6 2.323585 1_555
Ca4 O12 2.344898 1_555
Ca4 O1 2.438565 1_555
Ca4 O16 2.513204 1_555
Ca4 O3 2.567882 1_554
Ca4 O4 2.752586 1_555
Ca5 O12 2.311171 1_655
Ca5 O17 2.323585 1_555
Ca5 O10 2.344898 1_555
Ca5 O14 2.438565 1_655
Ca5 O8 2.513204 1_655
Ca5 O11 2.567882 1_555
Ca5 O19 2.752586 1_655
Ca6 O11 2.323254 1_455
Ca6 O0 2.331419 1_445
Ca6 O13 2.337766 1_455
Ca6 O15 2.368419 1_555
Ca6 O2 2.467485 1_545
Ca6 O14 2.482876 1_555
Ca6 O9 2.520537 1_555
Ca7 O16 2.323254 1_555
Ca7 O4 2.331419 1_545
Ca7 O17 2.337766 1_555
Ca7 O19 2.368419 1_555
Ca7 O6 2.467485 1_545
Ca7 O18 2.482876 1_555
Ca7 O12 2.520537 1_555
O0 W0 1.896237 1_565
O1 W3 1.976576 1_655
O1 W1 1.989412 1_665
O2 W0 1.897403 1_565
O3 W3 1.877526 1_556
O4 W1 1.896237 1_665
O5 W2 1.976576 1_555
O5 W0 1.989412 1_565
O6 W1 1.897403 1_565
O7 W3 1.938514 1_656
O8 W2 1.877526 1_555
O9 W2 1.938514 1_555
O10 W2 1.938514 1_555
O11 W2 1.877526 1_555
O12 W3 1.938514 1_555
O13 W1 1.897403 1_656
O14 W2 1.976576 1_555
O14 W0 1.989412 1_555
O15 W1 1.896237 1_556
O16 W3 1.877526 1_655
O17 W0 1.897403 1_555
O18 W3 1.976576 1_555
O18 W1 1.989412 1_555
O19 W0 1.896237 1_555
