# generated using pymatgen
data_Bi12BO20
_symmetry_space_group_name_H-M   'P 1'
_cell_length_a   8.78572553
_cell_length_b   8.78572553
_cell_length_c   8.78572553
_cell_angle_alpha   109.47122063
_cell_angle_beta   109.47122063
_cell_angle_gamma   109.47122063
_symmetry_Int_Tables_number   1
_chemical_formula_structural   Bi12BO20
_chemical_formula_sum   'Bi12 B1 O20'
_cell_volume   522.04868250
_cell_formula_units_Z   1
loop_
 _symmetry_equiv_pos_site_id
 _symmetry_equiv_pos_as_xyz
  1  'x, y, z'
loop_
 _atom_site_type_symbol
 _atom_site_label
 _atom_site_symmetry_multiplicity
 _atom_site_fract_x
 _atom_site_fract_y
 _atom_site_fract_z
 _atom_site_occupancy
  Bi  Bi0  1  0.83925600  0.32855000  0.14102200  1
  Bi  Bi1  1  0.48929400  0.16074400  0.30176600  1
  Bi  Bi2  1  0.85897800  0.18752800  0.69823400  1
  Bi  Bi3  1  0.69823400  0.85897800  0.18752800  1
  Bi  Bi4  1  0.30176600  0.48929400  0.16074400  1
  Bi  Bi5  1  0.81247200  0.67145000  0.51070600  1
  Bi  Bi6  1  0.16074400  0.30176600  0.48929400  1
  Bi  Bi7  1  0.67145000  0.51070600  0.81247200  1
  Bi  Bi8  1  0.32855000  0.14102200  0.83925600  1
  Bi  Bi9  1  0.51070600  0.81247200  0.67145000  1
  Bi  Bi10  1  0.14102200  0.83925600  0.32855000  1
  Bi  Bi11  1  0.18752800  0.69823400  0.85897800  1
  B  B0  1  0.00000000  0.00000000  0.00000000  1
  O  O0  1  0.39958100  0.00000000  0.00000000  1
  O  O1  1  0.74048500  0.12294000  0.35489100  1
  O  O2  1  0.87706000  0.61754500  0.23195100  1
  O  O3  1  0.61440600  0.38245500  0.25951500  1
  O  O4  1  0.17230400  0.17230400  0.17230400  1
  O  O5  1  0.82769600  0.00000000  0.00000000  1
  O  O6  1  0.76804900  0.38559400  0.64510900  1
  O  O7  1  0.00000000  0.39958100  0.00000000  1
  O  O8  1  0.38245500  0.25951500  0.61440600  1
  O  O9  1  0.61754500  0.23195100  0.87706000  1
  O  O10  1  0.35489100  0.74048500  0.12294000  1
  O  O11  1  0.64510900  0.76804900  0.38559400  1
  O  O12  1  0.60041900  0.60041900  0.60041900  1
  O  O13  1  0.25951500  0.61440600  0.38245500  1
  O  O14  1  0.00000000  0.00000000  0.82769600  1
  O  O15  1  0.00000000  0.82769600  0.00000000  1
  O  O16  1  0.12294000  0.35489100  0.74048500  1
  O  O17  1  0.38559400  0.64510900  0.76804900  1
  O  O18  1  0.23195100  0.87706000  0.61754500  1
  O  O19  1  0.00000000  0.00000000  0.39958100  1
loop_
_geom_bond_atom_site_label_1
_geom_bond_atom_site_label_2
_geom_bond_distance
_geom_bond_site_symmetry_2
Bi0 O9 2.113520 1_554
Bi0 O7 2.239061 1_655
Bi0 O2 2.259171 1_555
Bi0 O3 2.622331 1_555
Bi0 O5 2.685884 1_555
Bi1 O3 2.113520 1_555
Bi1 O0 2.239061 1_555
Bi1 O1 2.259171 1_555
Bi1 O6 2.622331 1_555
Bi1 O4 2.685884 1_555
Bi2 O16 2.113520 1_655
Bi2 O7 2.239061 1_656
Bi2 O6 2.259171 1_555
Bi2 O1 2.622331 1_555
Bi2 O14 2.685884 1_655
Bi3 O1 2.113520 1_565
Bi3 O19 2.239061 1_665
Bi3 O11 2.259171 1_555
Bi3 O10 2.622331 1_555
Bi3 O5 2.685884 1_565
Bi4 O13 2.113520 1_555
Bi4 O7 2.239061 1_555
Bi4 O10 2.259171 1_555
Bi4 O11 2.622331 1_555
Bi4 O4 2.685884 1_555
Bi5 O11 2.113520 1_555
Bi5 O12 2.239061 1_555
Bi5 O3 2.259171 1_555
Bi5 O2 2.622331 1_555
Bi5 O14 2.685884 1_665
Bi6 O8 2.113520 1_555
Bi6 O19 2.239061 1_555
Bi6 O16 2.259171 1_555
Bi6 O17 2.622331 1_555
Bi6 O4 2.685884 1_555
Bi7 O6 2.113520 1_555
Bi7 O12 2.239061 1_555
Bi7 O8 2.259171 1_555
Bi7 O9 2.622331 1_555
Bi7 O15 2.685884 1_656
Bi8 O18 2.113520 1_545
Bi8 O0 2.239061 1_556
Bi8 O9 2.259171 1_555
Bi8 O8 2.622331 1_555
Bi8 O14 2.685884 1_555
Bi9 O17 2.113520 1_555
Bi9 O12 2.239061 1_555
Bi9 O13 2.259171 1_555
Bi9 O18 2.622331 1_555
Bi9 O5 2.685884 1_566
Bi10 O2 2.113520 1_455
Bi10 O19 2.239061 1_565
Bi10 O18 2.259171 1_555
Bi10 O13 2.622331 1_555
Bi10 O15 2.685884 1_555
Bi11 O10 2.113520 1_556
Bi11 O0 2.239061 1_566
Bi11 O17 2.259171 1_555
Bi11 O16 2.622331 1_555
Bi11 O15 2.685884 1_556
B0 O5 1.513816 1_455
B0 O15 1.513816 1_545
B0 O14 1.513816 1_554
B0 O4 1.513816 1_555
