# generated using pymatgen
data_Li5Mn6(BO3)6
_symmetry_space_group_name_H-M   'P 1'
_cell_length_a   6.22687500
_cell_length_b   7.86907814
_cell_length_c   9.07476732
_cell_angle_alpha   109.22003392
_cell_angle_beta   106.86466209
_cell_angle_gamma   101.29718947
_symmetry_Int_Tables_number   1
_chemical_formula_structural   Li5Mn6(BO3)6
_chemical_formula_sum   'Li5 Mn6 B6 O18'
_cell_volume   380.35333717
_cell_formula_units_Z   1
loop_
 _symmetry_equiv_pos_site_id
 _symmetry_equiv_pos_as_xyz
  1  'x, y, z'
loop_
 _atom_site_type_symbol
 _atom_site_label
 _atom_site_symmetry_multiplicity
 _atom_site_fract_x
 _atom_site_fract_y
 _atom_site_fract_z
 _atom_site_occupancy
  Li  Li0  1  0.01648100  0.33512600  0.28662700  1
  Li  Li1  1  0.31711400  0.00166800  0.38504600  1
  Li  Li2  1  0.65667500  0.33271700  0.04560500  1
  Li  Li3  1  0.68230700  0.00106100  0.62018000  1
  Li  Li4  1  0.00122800  0.65434800  0.72017700  1
  Mn  Mn0  1  0.39843800  0.62834700  0.62756500  1
  Mn  Mn1  1  0.27529900  0.03456100  0.71824700  1
  Mn  Mn2  1  0.06373400  0.30992200  0.94394800  1
  Mn  Mn3  1  0.96567800  0.71614500  0.05847300  1
  Mn  Mn4  1  0.70285900  0.94913200  0.26660000  1
  Mn  Mn5  1  0.60900000  0.36556300  0.38392700  1
  B  B0  1  0.73419400  0.97443100  0.94976500  1
  B  B1  1  0.62795500  0.36563700  0.71914100  1
  B  B2  1  0.95540200  0.68943000  0.38248200  1
  B  B3  1  0.03550100  0.29277500  0.60634500  1
  B  B4  1  0.35971200  0.64479300  0.29241800  1
  B  B5  1  0.28165900  0.03234500  0.04797800  1
  O  O0  1  0.59243200  0.91369200  0.78100300  1
  O  O1  1  0.33810200  0.51151400  0.36108000  1
  O  O2  1  0.86784000  0.16231400  0.04791600  1
  O  O3  1  0.33104900  0.16377300  0.97914100  1
  O  O4  1  0.75280000  0.43011700  0.89225200  1
  O  O5  1  0.07951900  0.75155200  0.55458400  1
  O  O6  1  0.47903900  0.18026900  0.62140200  1
  O  O7  1  0.80489800  0.50668000  0.28322200  1
  O  O8  1  0.99237800  0.81682000  0.30597600  1
  O  O9  1  0.99826400  0.16730500  0.68411900  1
  O  O10  1  0.18338200  0.47485900  0.70394500  1
  O  O11  1  0.51886600  0.82494700  0.38488000  1
  O  O12  1  0.91058100  0.22963500  0.43287400  1
  O  O13  1  0.20672200  0.59164400  0.12433200  1
  O  O14  1  0.72419500  0.84352800  0.02604800  1
  O  O15  1  0.11850300  0.85416100  0.94521100  1
  O  O16  1  0.66779900  0.49021600  0.64285600  1
  O  O17  1  0.40380200  0.08089800  0.21870400  1
loop_
_geom_bond_atom_site_label_1
_geom_bond_atom_site_label_2
_geom_bond_distance
_geom_bond_site_symmetry_2
Li0 O2 1.950014 1_455
Li0 O1 1.975400 1_555
Li0 O12 1.975843 1_455
Li0 O7 2.063946 1_455
Li1 O6 1.948750 1_555
Li1 O17 1.979719 1_555
Li1 O8 2.009500 1_445
Li1 O11 2.048489 1_545
Li2 O7 1.944807 1_555
Li2 O4 1.971856 1_554
Li2 O3 1.987166 1_554
Li2 O2 2.054450 1_555
Li3 O9 1.936047 1_555
Li3 O11 1.937526 1_545
Li3 O0 1.974737 1_545
Li3 O6 2.070755 1_555
Li4 O15 1.935624 1_555
Li4 O10 1.972502 1_555
Li4 O16 1.994641 1_455
Li4 O5 2.028954 1_555
Mn0 O10 2.046593 1_555
Mn0 O0 2.083920 1_555
Mn0 O16 2.166233 1_555
Mn0 O1 2.169841 1_555
Mn0 O5 2.395039 1_555
Mn1 O5 2.087987 1_545
Mn1 O6 2.106417 1_555
Mn1 O3 2.135309 1_555
Mn1 O9 2.184466 1_455
Mn1 O0 2.359785 1_545
Mn2 O13 2.092528 1_556
Mn2 O9 2.122756 1_455
Mn2 O2 2.135753 1_456
Mn2 O3 2.208780 1_555
Mn2 O4 2.312126 1_455
Mn3 O14 1.969884 1_555
Mn3 O13 2.002754 1_655
Mn3 O15 2.009745 1_654
Mn3 O8 2.064008 1_555
Mn3 O4 2.129323 1_554
Mn4 O12 2.092396 1_565
Mn4 O11 2.094081 1_555
Mn4 O14 2.119123 1_555
Mn4 O8 2.251309 1_555
Mn4 O17 2.305511 1_565
Mn5 O7 2.083395 1_555
Mn5 O17 2.110505 1_555
Mn5 O16 2.111878 1_555
Mn5 O1 2.218195 1_555
Mn5 O12 2.341741 1_555
B0 O2 1.375718 1_566
B0 O0 1.386164 1_555
B0 O14 1.418989 1_556
B1 O6 1.383945 1_555
B1 O4 1.393455 1_555
B1 O16 1.397498 1_555
B2 O7 1.373689 1_555
B2 O5 1.387233 1_655
B2 O8 1.414377 1_555
B3 O10 1.363713 1_555
B3 O12 1.397564 1_455
B3 O9 1.410947 1_455
B4 O11 1.371062 1_555
B4 O1 1.389210 1_555
B4 O13 1.410627 1_555
B5 O15 1.378077 1_544
B5 O17 1.391935 1_555
B5 O3 1.402364 1_554
