# generated using pymatgen
data_Na3Bi(BO3)2
_symmetry_space_group_name_H-M   'P 1'
_cell_length_a   7.33233300
_cell_length_b   9.01002100
_cell_length_c   10.87965854
_cell_angle_alpha   66.51242478
_cell_angle_beta   90.00000000
_cell_angle_gamma   90.00000000
_symmetry_Int_Tables_number   1
_chemical_formula_structural   Na3Bi(BO3)2
_chemical_formula_sum   'Na12 Bi4 B8 O24'
_cell_volume   659.20724619
_cell_formula_units_Z   4
loop_
 _symmetry_equiv_pos_site_id
 _symmetry_equiv_pos_as_xyz
  1  'x, y, z'
loop_
 _atom_site_type_symbol
 _atom_site_label
 _atom_site_symmetry_multiplicity
 _atom_site_fract_x
 _atom_site_fract_y
 _atom_site_fract_z
 _atom_site_occupancy
  Na  Na0  1  0.95834400  0.28070100  0.17887500  1
  Na  Na1  1  0.24500000  0.40874700  0.97284400  1
  Na  Na2  1  0.74500000  0.59125300  0.52715600  1
  Na  Na3  1  0.70537400  0.16442300  0.02998700  1
  Na  Na4  1  0.54165600  0.28070100  0.67887500  1
  Na  Na5  1  0.20537400  0.83557700  0.47001300  1
  Na  Na6  1  0.79462600  0.16442300  0.52998700  1
  Na  Na7  1  0.45834400  0.71929900  0.32112500  1
  Na  Na8  1  0.29462600  0.83557700  0.97001300  1
  Na  Na9  1  0.25500000  0.40874700  0.47284400  1
  Na  Na10  1  0.75500000  0.59125300  0.02715600  1
  Na  Na11  1  0.04165600  0.71929900  0.82112500  1
  Bi  Bi0  1  0.47100700  0.18516700  0.30303400  1
  Bi  Bi1  1  0.02899300  0.18516700  0.80303400  1
  Bi  Bi2  1  0.97100700  0.81483300  0.19696600  1
  Bi  Bi3  1  0.52899300  0.81483300  0.69696600  1
  B  B0  1  0.33210200  0.54227500  0.68147500  1
  B  B1  1  0.83210200  0.45772500  0.81852500  1
  B  B2  1  0.80460600  0.94239500  0.37624200  1
  B  B3  1  0.30460600  0.05760500  0.12375800  1
  B  B4  1  0.69539400  0.94239500  0.87624200  1
  B  B5  1  0.19539400  0.05760500  0.62375800  1
  B  B6  1  0.16789800  0.54227500  0.18147500  1
  B  B7  1  0.66789800  0.45772500  0.31852500  1
  O  O0  1  0.76720500  0.61146600  0.79363400  1
  O  O1  1  0.30706600  0.61481000  0.77356100  1
  O  O2  1  0.42859900  0.63201400  0.56499500  1
  O  O3  1  0.92859900  0.36798600  0.93500500  1
  O  O4  1  0.80706600  0.38519000  0.72643900  1
  O  O5  1  0.68977900  0.97296100  0.46469000  1
  O  O6  1  0.42092900  0.19160600  0.08401500  1
  O  O7  1  0.26720500  0.38853400  0.70636600  1
  O  O8  1  0.80081600  0.04353500  0.24178900  1
  O  O9  1  0.30081600  0.95646500  0.25821100  1
  O  O10  1  0.92092900  0.80839400  0.41598500  1
  O  O11  1  0.18977900  0.02703900  0.03531000  1
  O  O12  1  0.81022100  0.97296100  0.96469000  1
  O  O13  1  0.07907100  0.19160600  0.58401500  1
  O  O14  1  0.69918400  0.04353500  0.74178900  1
  O  O15  1  0.19918400  0.95646500  0.75821100  1
  O  O16  1  0.73279500  0.61146600  0.29363400  1
  O  O17  1  0.57907100  0.80839400  0.91598500  1
  O  O18  1  0.31022100  0.02703900  0.53531000  1
  O  O19  1  0.19293400  0.61481000  0.27356100  1
  O  O20  1  0.07140100  0.63201400  0.06499500  1
  O  O21  1  0.57140100  0.36798600  0.43500500  1
  O  O22  1  0.69293400  0.38519000  0.22643900  1
  O  O23  1  0.23279500  0.38853400  0.20636600  1
loop_
_geom_bond_atom_site_label_1
_geom_bond_atom_site_label_2
_geom_bond_distance
_geom_bond_site_symmetry_2
Na0 O8 2.281006 1_555
Na0 O23 2.305356 1_655
Na0 O22 2.308603 1_555
Na0 O3 2.458132 1_554
Na1 O6 2.251310 1_556
Na1 O1 2.268549 1_555
Na1 O3 2.409787 1_455
Na1 O23 2.475320 1_556
Na2 O10 2.251310 1_555
Na2 O4 2.268549 1_555
Na2 O2 2.409787 1_555
Na2 O16 2.475320 1_555
Na3 O6 2.206847 1_555
Na3 O8 2.232806 1_555
Na3 O12 2.246873 1_544
Na3 O3 2.366439 1_554
Na4 O14 2.281006 1_555
Na4 O7 2.305356 1_555
Na4 O4 2.308603 1_555
Na4 O21 2.458132 1_555
Na5 O10 2.206847 1_455
Na5 O9 2.232806 1_555
Na5 O18 2.246873 1_565
Na5 O2 2.366439 1_555
Na6 O13 2.206847 1_655
Na6 O14 2.232806 1_555
Na6 O5 2.246873 1_545
Na6 O21 2.366439 1_555
Na7 O9 2.281006 1_555
Na7 O16 2.305356 1_555
Na7 O19 2.308603 1_555
Na7 O2 2.458132 1_555
Na8 O17 2.206847 1_555
Na8 O15 2.232806 1_555
Na8 O11 2.246873 1_566
Na8 O20 2.366439 1_556
Na9 O13 2.251310 1_555
Na9 O19 2.268549 1_555
Na9 O21 2.409787 1_555
Na9 O7 2.475320 1_555
Na10 O17 2.251310 1_554
Na10 O22 2.268549 1_555
Na10 O20 2.409787 1_655
Na10 O0 2.475320 1_554
Na11 O15 2.281006 1_555
Na11 O0 2.305356 1_455
Na11 O1 2.308603 1_555
Na11 O20 2.458132 1_556
Bi0 O22 2.322328 1_555
Bi0 O6 2.388720 1_555
Bi0 O23 2.445050 1_555
Bi0 O5 2.577141 1_545
Bi0 O9 2.615752 1_545
Bi0 O18 2.633631 1_555
Bi0 O21 2.683628 1_555
Bi1 O4 2.322328 1_455
Bi1 O13 2.388720 1_555
Bi1 O7 2.445050 1_555
Bi1 O12 2.577141 1_445
Bi1 O15 2.615752 1_545
Bi1 O11 2.633631 1_556
Bi1 O3 2.683628 1_455
Bi2 O19 2.322328 1_655
Bi2 O10 2.388720 1_555
Bi2 O16 2.445050 1_555
Bi2 O11 2.577141 1_665
Bi2 O8 2.615752 1_565
Bi2 O12 2.633631 1_554
Bi2 O20 2.683628 1_655
Bi3 O1 2.322328 1_555
Bi3 O17 2.388720 1_555
Bi3 O0 2.445050 1_555
Bi3 O18 2.577141 1_565
Bi3 O14 2.615752 1_565
Bi3 O5 2.633631 1_555
Bi3 O2 2.683628 1_555
B0 O7 1.385482 1_555
B0 O2 1.394126 1_555
B0 O1 1.409417 1_555
B1 O0 1.385482 1_555
B1 O3 1.394126 1_555
B1 O4 1.409417 1_555
B2 O8 1.381462 1_565
B2 O5 1.386347 1_555
B2 O10 1.398573 1_555
B3 O9 1.381462 1_545
B3 O11 1.386347 1_555
B3 O6 1.398573 1_555
B4 O14 1.381462 1_565
B4 O12 1.386347 1_555
B4 O17 1.398573 1_555
B5 O15 1.381462 1_545
B5 O18 1.386347 1_555
B5 O13 1.398573 1_555
B6 O23 1.385482 1_555
B6 O20 1.394126 1_555
B6 O19 1.409417 1_555
B7 O16 1.385482 1_555
B7 O21 1.394126 1_555
B7 O22 1.409417 1_555
