# generated using pymatgen
data_K2SnPCO7
_symmetry_space_group_name_H-M   'P 1'
_cell_length_a   7.06317500
_cell_length_b   5.82614500
_cell_length_c   9.92127942
_cell_angle_alpha   86.53486835
_cell_angle_beta   90.00000000
_cell_angle_gamma   90.00000000
_symmetry_Int_Tables_number   1
_chemical_formula_structural   K2SnPCO7
_chemical_formula_sum   'K4 Sn2 P2 C2 O14'
_cell_volume   407.52496448
_cell_formula_units_Z   2
loop_
 _symmetry_equiv_pos_site_id
 _symmetry_equiv_pos_as_xyz
  1  'x, y, z'
loop_
 _atom_site_type_symbol
 _atom_site_label
 _atom_site_symmetry_multiplicity
 _atom_site_fract_x
 _atom_site_fract_y
 _atom_site_fract_z
 _atom_site_occupancy
  K  K0  1  0.01435300  0.24688900  0.77153000  1
  K  K1  1  0.48564700  0.24688900  0.77153000  1
  K  K2  1  0.51435300  0.75311100  0.22847000  1
  K  K3  1  0.98564700  0.75311100  0.22847000  1
  Sn  Sn0  1  0.75000000  0.78109400  0.63161900  1
  Sn  Sn1  1  0.25000000  0.21890600  0.36838100  1
  P  P0  1  0.25000000  0.71669000  0.57564300  1
  P  P1  1  0.75000000  0.28331000  0.42435700  1
  C  C0  1  0.75000000  0.72538400  0.90444900  1
  C  C1  1  0.25000000  0.27461600  0.09555100  1
  O  O0  1  0.25000000  0.28979900  0.96930600  1
  O  O1  1  0.75000000  0.92664500  0.83334500  1
  O  O2  1  0.75000000  0.54507700  0.82924600  1
  O  O3  1  0.07164200  0.78743000  0.65679700  1
  O  O4  1  0.42835800  0.78743000  0.65679700  1
  O  O5  1  0.75000000  0.15862200  0.56910000  1
  O  O6  1  0.25000000  0.45119100  0.56087100  1
  O  O7  1  0.75000000  0.54880900  0.43912900  1
  O  O8  1  0.25000000  0.84137800  0.43090000  1
  O  O9  1  0.57164200  0.21257000  0.34320300  1
  O  O10  1  0.92835800  0.21257000  0.34320300  1
  O  O11  1  0.25000000  0.45492300  0.17075400  1
  O  O12  1  0.25000000  0.07335500  0.16665500  1
  O  O13  1  0.75000000  0.71020100  0.03069400  1
loop_
_geom_bond_atom_site_label_1
_geom_bond_atom_site_label_2
_geom_bond_distance
_geom_bond_site_symmetry_2
K0 O0 2.596589 1_555
K0 O2 2.636785 1_455
K0 O1 2.684267 1_445
K0 O5 2.812324 1_455
K0 O6 2.873062 1_555
K0 O3 2.998909 1_545
K1 O0 2.596589 1_555
K1 O2 2.636785 1_555
K1 O1 2.684267 1_545
K1 O5 2.812324 1_555
K1 O6 2.873062 1_555
K1 O4 2.998909 1_545
K2 O13 2.596589 1_555
K2 O11 2.636785 1_555
K2 O12 2.684267 1_565
K2 O8 2.812324 1_555
K2 O7 2.873062 1_555
K2 O9 2.998909 1_565
K3 O13 2.596589 1_555
K3 O11 2.636785 1_655
K3 O12 2.684267 1_665
K3 O8 2.812324 1_655
K3 O7 2.873062 1_555
K3 O10 2.998909 1_565
C0 O13 1.250287 1_556
C0 O2 1.324751 1_555
C0 O1 1.331387 1_555
C1 O0 1.250287 1_554
C1 O11 1.324751 1_555
C1 O12 1.331387 1_555
O1 Sn0 2.220312 1_555
O2 Sn0 2.325790 1_555
O3 P0 1.563737 1_555
O3 Sn0 2.286048 1_455
O4 P0 1.563737 1_555
O4 Sn0 2.286048 1_555
O5 P1 1.569657 1_555
O5 Sn0 2.248946 1_545
O6 P0 1.562557 1_555
O6 Sn1 2.406459 1_555
O7 P1 1.562557 1_555
O7 Sn0 2.406459 1_555
O8 P0 1.569657 1_555
O8 Sn1 2.248946 1_565
O9 P1 1.563737 1_555
O9 Sn1 2.286048 1_555
O10 P1 1.563737 1_555
O10 Sn1 2.286048 1_655
O11 Sn1 2.325790 1_555
O12 Sn1 2.220312 1_555
