# generated using pymatgen
data_Li2FeBPO7
_symmetry_space_group_name_H-M   'P 1'
_cell_length_a   6.42832100
_cell_length_b   5.12861300
_cell_length_c   8.52342048
_cell_angle_alpha   86.33302022
_cell_angle_beta   90.00000000
_cell_angle_gamma   90.00000000
_symmetry_Int_Tables_number   1
_chemical_formula_structural   Li2FeBPO7
_chemical_formula_sum   'Li4 Fe2 B2 P2 O14'
_cell_volume   280.42797169
_cell_formula_units_Z   2
loop_
 _symmetry_equiv_pos_site_id
 _symmetry_equiv_pos_as_xyz
  1  'x, y, z'
loop_
 _atom_site_type_symbol
 _atom_site_label
 _atom_site_symmetry_multiplicity
 _atom_site_fract_x
 _atom_site_fract_y
 _atom_site_fract_z
 _atom_site_occupancy
  Li  Li0  1  0.48167200  0.77257800  0.78272900  1
  Li  Li1  1  0.01832800  0.77257800  0.78272900  1
  Li  Li2  1  0.98167200  0.22742200  0.21727100  1
  Li  Li3  1  0.51832800  0.22742200  0.21727100  1
  Fe  Fe0  1  0.25000000  0.21901800  0.65842500  1
  Fe  Fe1  1  0.75000000  0.78098200  0.34157500  1
  B  B0  1  0.25000000  0.26710700  0.94473100  1
  B  B1  1  0.75000000  0.73289300  0.05526900  1
  P  P0  1  0.75000000  0.26779600  0.57513100  1
  P  P1  1  0.25000000  0.73220400  0.42486900  1
  O  O0  1  0.75000000  0.71007000  0.89950300  1
  O  O1  1  0.25000000  0.02804300  0.87742900  1
  O  O2  1  0.25000000  0.47356300  0.83050800  1
  O  O3  1  0.94173700  0.18128500  0.67268900  1
  O  O4  1  0.55826300  0.18128500  0.67268900  1
  O  O5  1  0.25000000  0.85367600  0.58817900  1
  O  O6  1  0.75000000  0.57147400  0.53957500  1
  O  O7  1  0.25000000  0.42852600  0.46042500  1
  O  O8  1  0.75000000  0.14632400  0.41182100  1
  O  O9  1  0.44173700  0.81871500  0.32731100  1
  O  O10  1  0.05826300  0.81871500  0.32731100  1
  O  O11  1  0.75000000  0.52643700  0.16949200  1
  O  O12  1  0.75000000  0.97195700  0.12257100  1
  O  O13  1  0.25000000  0.28993000  0.10049700  1
loop_
_geom_bond_atom_site_label_1
_geom_bond_atom_site_label_2
_geom_bond_distance
_geom_bond_site_symmetry_2
Li0 O0 2.006958 1_555
Li0 O2 2.157680 1_555
Li0 O1 2.172848 1_565
Li0 O5 2.247755 1_555
Li0 O4 2.294397 1_565
Li1 O0 2.006958 1_455
Li1 O2 2.157680 1_555
Li1 O1 2.172848 1_565
Li1 O5 2.247755 1_555
Li1 O3 2.294397 1_465
Li2 O13 2.006958 1_655
Li2 O11 2.157680 1_555
Li2 O12 2.172848 1_545
Li2 O8 2.247755 1_555
Li2 O10 2.294397 1_645
Li3 O13 2.006958 1_555
Li3 O11 2.157680 1_555
Li3 O12 2.172848 1_545
Li3 O8 2.247755 1_555
Li3 O9 2.294397 1_545
Fe0 O7 1.941825 1_555
Fe0 O4 1.993994 1_555
Fe0 O3 1.993994 1_455
Fe0 O5 2.003180 1_545
Fe0 O2 2.024963 1_555
Fe0 O1 2.051796 1_555
Fe1 O6 1.941825 1_555
Fe1 O10 1.993994 1_655
Fe1 O9 1.993994 1_555
Fe1 O8 2.003180 1_565
Fe1 O11 2.024963 1_555
Fe1 O12 2.051796 1_555
B0 O13 1.340245 1_556
B0 O1 1.386460 1_555
B0 O2 1.391800 1_555
B1 O0 1.340245 1_554
B1 O12 1.386460 1_555
B1 O11 1.391800 1_555
O3 P0 1.536318 1_555
O4 P0 1.536318 1_555
O5 P1 1.560956 1_555
O6 P0 1.567517 1_555
O7 P1 1.567517 1_555
O8 P0 1.560956 1_555
O9 P1 1.536318 1_555
O10 P1 1.536318 1_555
