# generated using pymatgen
data_Li4V3O8
_symmetry_space_group_name_H-M   'P 1'
_cell_length_a   5.85549591
_cell_length_b   5.85388460
_cell_length_c   10.83095362
_cell_angle_alpha   74.03455827
_cell_angle_beta   105.86124424
_cell_angle_gamma   120.03313071
_symmetry_Int_Tables_number   1
_chemical_formula_structural   Li4V3O8
_chemical_formula_sum   'Li8 V6 O16'
_cell_volume   304.88210115
_cell_formula_units_Z   2
loop_
 _symmetry_equiv_pos_site_id
 _symmetry_equiv_pos_as_xyz
  1  'x, y, z'
loop_
 _atom_site_type_symbol
 _atom_site_label
 _atom_site_symmetry_multiplicity
 _atom_site_fract_x
 _atom_site_fract_y
 _atom_site_fract_z
 _atom_site_occupancy
  Li  Li0  1  0.00038200  0.00027200  0.99996600  1
  Li  Li1  1  0.50027200  0.49982100  0.50004500  1
  Li  Li2  1  0.74966500  0.24977000  0.24998300  1
  Li  Li3  1  0.25014800  0.75012300  0.74998600  1
  Li  Li4  1  0.67862900  0.32262900  0.03686500  1
  Li  Li5  1  0.17854700  0.82293300  0.53693700  1
  Li  Li6  1  0.82109900  0.17748800  0.46313300  1
  Li  Li7  1  0.32169900  0.67749900  0.96303600  1
  V  V0  1  0.25013100  0.25018100  0.74999300  1
  V  V1  1  0.24978800  0.74956000  0.25007300  1
  V  V2  1  0.75017800  0.25020500  0.75003700  1
  V  V3  1  0.24969000  0.24966600  0.24988500  1
  V  V4  1  0.75015500  0.75018100  0.75000300  1
  V  V5  1  0.74977700  0.74966800  0.25005400  1
  O  O0  1  0.11790500  0.88069500  0.35387200  1
  O  O1  1  0.61810600  0.38090400  0.85386300  1
  O  O2  1  0.38170100  0.61878100  0.14611000  1
  O  O3  1  0.88212300  0.11938500  0.64616400  1
  O  O4  1  0.62313300  0.86454200  0.35310800  1
  O  O5  1  0.12348400  0.36451000  0.85342600  1
  O  O6  1  0.13441200  0.40345900  0.35283800  1
  O  O7  1  0.63556000  0.90423800  0.85323800  1
  O  O8  1  0.59515500  0.37605700  0.35321900  1
  O  O9  1  0.09511300  0.87593100  0.85336800  1
  O  O10  1  0.87677100  0.63531500  0.14688300  1
  O  O11  1  0.37661200  0.13588900  0.64661300  1
  O  O12  1  0.36526200  0.09604400  0.14715900  1
  O  O13  1  0.86476600  0.59608800  0.64671300  1
  O  O14  1  0.90466900  0.12383600  0.14677200  1
  O  O15  1  0.40507100  0.62432800  0.64665800  1
loop_
_geom_bond_atom_site_label_1
_geom_bond_atom_site_label_2
_geom_bond_distance
_geom_bond_site_symmetry_2
Li0 O5 2.193216 1_555
Li0 O10 2.198127 1_446
Li0 O7 2.199698 1_445
Li0 O12 2.202625 1_556
Li0 O9 2.209063 1_545
Li0 O14 2.211599 1_456
Li1 O11 2.192426 1_555
Li1 O4 2.197230 1_555
Li1 O13 2.198073 1_555
Li1 O6 2.206298 1_555
Li1 O8 2.209574 1_555
Li1 O15 2.211527 1_555
Li2 O12 2.066405 1_555
Li2 O4 2.067883 1_545
Li2 O6 2.067976 1_655
Li2 O10 2.069074 1_555
Li2 O8 2.071839 1_555
Li2 O14 2.072347 1_555
Li3 O5 2.070725 1_555
Li3 O11 2.071209 1_565
Li3 O15 2.072356 1_555
Li3 O13 2.072381 1_455
Li3 O7 2.072444 1_555
Li3 O9 2.073354 1_555
Li4 O1 1.880351 1_554
Li4 O10 2.105903 1_555
Li4 O14 2.107516 1_555
Li4 O12 2.107972 1_555
Li5 O0 1.881040 1_555
Li5 O11 2.104684 1_565
Li5 O13 2.106216 1_455
Li5 O15 2.108376 1_555
Li6 O3 1.880640 1_555
Li6 O8 2.106181 1_555
Li6 O4 2.107134 1_545
Li6 O6 2.107622 1_655
Li7 O2 1.881086 1_556
Li7 O5 2.104328 1_555
Li7 O7 2.106675 1_555
Li7 O9 2.107790 1_555
O0 V1 1.998072 1_555
O0 V5 1.998431 1_455
O0 V3 1.999406 1_565
O1 V2 1.997241 1_555
O1 V0 1.997987 1_555
O1 V4 2.000206 1_555
O2 V1 1.998050 1_555
O2 V5 1.998719 1_555
O2 V3 1.999170 1_555
O3 V2 1.997608 1_555
O3 V0 1.997962 1_655
O3 V4 1.999809 1_545
O4 V5 1.900652 1_555
O4 V1 2.020963 1_555
O5 V0 1.901651 1_555
O5 V2 2.022353 1_455
O6 V1 1.897487 1_555
O6 V3 2.020286 1_555
O7 V2 1.898846 1_565
O7 V4 2.020979 1_555
O8 V3 1.900489 1_555
O8 V5 2.019418 1_555
O9 V4 1.898453 1_455
O9 V0 2.023053 1_565
O10 V5 1.900981 1_555
O10 V1 2.020328 1_655
O11 V0 1.900335 1_555
O11 V2 2.023644 1_555
O12 V1 1.899739 1_545
O12 V3 2.018858 1_555
O13 V2 1.899014 1_555
O13 V4 2.021663 1_555
O14 V3 1.897618 1_655
O14 V5 2.022291 1_545
O15 V4 1.898899 1_555
O15 V0 2.022437 1_555
