# generated using pymatgen
data_Li3Fe4SnO8
_symmetry_space_group_name_H-M   'P 1'
_cell_length_a   6.05050213
_cell_length_b   6.05050213
_cell_length_c   6.24686139
_cell_angle_alpha   59.84325928
_cell_angle_beta   59.84325928
_cell_angle_gamma   61.27620876
_symmetry_Int_Tables_number   1
_chemical_formula_structural   Li3Fe4SnO8
_chemical_formula_sum   'Li3 Fe4 Sn1 O8'
_cell_volume   162.81355958
_cell_formula_units_Z   1
loop_
 _symmetry_equiv_pos_site_id
 _symmetry_equiv_pos_as_xyz
  1  'x, y, z'
loop_
 _atom_site_type_symbol
 _atom_site_label
 _atom_site_symmetry_multiplicity
 _atom_site_fract_x
 _atom_site_fract_y
 _atom_site_fract_z
 _atom_site_occupancy
  Li  Li0  1  0.00000000  0.50000000  0.00000000  1
  Li  Li1  1  0.00000000  0.00000000  0.50000000  1
  Li  Li2  1  0.50000000  0.00000000  0.00000000  1
  Fe  Fe0  1  0.50000000  0.50000000  0.50000000  1
  Fe  Fe1  1  0.00000000  0.00000000  0.00000000  1
  Fe  Fe2  1  0.00000000  0.50000000  0.50000000  1
  Fe  Fe3  1  0.50000000  0.00000000  0.50000000  1
  Sn  Sn0  1  0.50000000  0.50000000  0.00000000  1
  O  O0  1  0.25611000  0.25611000  0.26307000  1
  O  O1  1  0.24248800  0.74427800  0.77533500  1
  O  O2  1  0.74427800  0.24248800  0.77533500  1
  O  O3  1  0.75337000  0.75337000  0.24706100  1
  O  O4  1  0.24663000  0.24663000  0.75293900  1
  O  O5  1  0.25572200  0.75751200  0.22466500  1
  O  O6  1  0.75751200  0.25572200  0.22466500  1
  O  O7  1  0.74389000  0.74389000  0.73693000  1
loop_
_geom_bond_atom_site_label_1
_geom_bond_atom_site_label_2
_geom_bond_distance
_geom_bond_site_symmetry_2
Li0 O1 2.058662 1_554
Li0 O6 2.058662 1_455
Li0 O3 2.196197 1_455
Li0 O4 2.196197 1_554
Li0 O7 2.281148 1_454
Li0 O0 2.281148 1_555
Li1 O7 2.166189 1_445
Li1 O0 2.166189 1_555
Li1 O2 2.276968 1_455
Li1 O1 2.276968 1_545
Li1 O5 2.276968 1_545
Li1 O6 2.276968 1_455
Li2 O2 2.058662 1_554
Li2 O5 2.058662 1_545
Li2 O3 2.196197 1_545
Li2 O4 2.196197 1_554
Li2 O7 2.281148 1_544
Li2 O0 2.281148 1_555
Fe0 O4 2.142034 1_555
Fe0 O3 2.142034 1_555
Fe0 O2 2.284430 1_555
Fe0 O6 2.284430 1_555
Fe0 O1 2.284430 1_555
Fe0 O5 2.284430 1_555
Fe1 O3 2.085158 1_445
Fe1 O4 2.085158 1_554
Fe1 O6 2.108841 1_455
Fe1 O1 2.108841 1_544
Fe1 O5 2.108841 1_545
Fe1 O2 2.108841 1_454
Fe2 O0 2.112243 1_555
Fe2 O7 2.112243 1_455
Fe2 O5 2.175008 1_555
Fe2 O2 2.175008 1_455
Fe2 O4 2.193170 1_555
Fe2 O3 2.193170 1_455
Fe3 O0 2.112243 1_555
Fe3 O7 2.112243 1_545
Fe3 O6 2.175008 1_555
Fe3 O1 2.175008 1_545
Fe3 O4 2.193170 1_555
Fe3 O3 2.193170 1_545
O0 Sn0 2.067788 1_555
O1 Sn0 2.116896 1_556
O2 Sn0 2.116896 1_556
O5 Sn0 2.116896 1_555
O6 Sn0 2.116896 1_555
O7 Sn0 2.067788 1_556
