# generated using pymatgen
data_Ba6YI15
_symmetry_space_group_name_H-M   'P 1'
_cell_length_a   12.01637460
_cell_length_b   12.01637460
_cell_length_c   34.38486203
_cell_angle_alpha   89.96809024
_cell_angle_beta   89.96809024
_cell_angle_gamma   91.90164801
_symmetry_Int_Tables_number   1
_chemical_formula_structural   Ba6YI15
_chemical_formula_sum   'Ba24 Y4 I60'
_cell_volume   4962.20629985
_cell_formula_units_Z   4
loop_
 _symmetry_equiv_pos_site_id
 _symmetry_equiv_pos_as_xyz
  1  'x, y, z'
loop_
 _atom_site_type_symbol
 _atom_site_label
 _atom_site_symmetry_multiplicity
 _atom_site_fract_x
 _atom_site_fract_y
 _atom_site_fract_z
 _atom_site_occupancy
  Ba  Ba0  1  0.00519500  0.02660900  0.61612600  1
  Ba  Ba1  1  0.02660900  0.00519500  0.11612600  1
  Ba  Ba2  1  0.94463100  0.45408200  0.63512500  1
  Ba  Ba3  1  0.18185300  0.24877000  0.74253700  1
  Ba  Ba4  1  0.45408200  0.94463100  0.13512500  1
  Ba  Ba5  1  0.24877000  0.18185300  0.24253700  1
  Ba  Ba6  1  0.43622200  0.07982200  0.62916600  1
  Ba  Ba7  1  0.22422600  0.32124600  0.52341000  1
  Ba  Ba8  1  0.07982200  0.43622200  0.12916600  1
  Ba  Ba9  1  0.32124600  0.22422600  0.02341000  1
  Ba  Ba10  1  0.39375700  0.54220100  0.64271600  1
  Ba  Ba11  1  0.54220100  0.39375700  0.14271600  1
  Ba  Ba12  1  0.45779900  0.60624300  0.85728400  1
  Ba  Ba13  1  0.60624300  0.45779900  0.35728400  1
  Ba  Ba14  1  0.67875400  0.77577400  0.97659000  1
  Ba  Ba15  1  0.92017800  0.56377800  0.87083400  1
  Ba  Ba16  1  0.77577400  0.67875400  0.47659000  1
  Ba  Ba17  1  0.56377800  0.92017800  0.37083400  1
  Ba  Ba18  1  0.75123000  0.81814700  0.75746300  1
  Ba  Ba19  1  0.54591800  0.05536900  0.86487500  1
  Ba  Ba20  1  0.81814700  0.75123000  0.25746300  1
  Ba  Ba21  1  0.05536900  0.54591800  0.36487500  1
  Ba  Ba22  1  0.97339100  0.99480500  0.88387400  1
  Ba  Ba23  1  0.99480500  0.97339100  0.38387400  1
  Y  Y0  1  0.25235800  0.29294500  0.88689000  1
  Y  Y1  1  0.29294500  0.25235800  0.38689000  1
  Y  Y2  1  0.70705500  0.74764200  0.61311000  1
  Y  Y3  1  0.74764200  0.70705500  0.11311000  1
  I  I0  1  0.17783400  0.10152500  0.94575200  1
  I  I1  1  0.10152500  0.17783400  0.44575200  1
  I  I2  1  0.21591700  0.08985000  0.82843200  1
  I  I3  1  0.24316500  0.04283700  0.55655500  1
  I  I4  1  0.08985000  0.21591700  0.32843200  1
  I  I5  1  0.04283700  0.24316500  0.05655500  1
  I  I6  1  0.46932000  0.24063100  0.93648500  1
  I  I7  1  0.15480800  0.51226000  0.70247100  1
  I  I8  1  0.24063100  0.46932000  0.43648500  1
  I  I9  1  0.70798500  0.01341700  0.61268200  1
  I  I10  1  0.51226000  0.15480800  0.20247100  1
  I  I11  1  0.45836600  0.31926200  0.82827400  1
  I  I12  1  0.01341700  0.70798500  0.11268200  1
  I  I13  1  0.16968900  0.55881400  0.57879700  1
  I  I14  1  0.43449900  0.29200300  0.69881200  1
  I  I15  1  0.26406500  0.49361200  0.93834500  1
  I  I16  1  0.74030700  0.03878800  0.93891100  1
  I  I17  1  0.99743200  0.78894900  0.81261600  1
  I  I18  1  0.31926200  0.45836600  0.32827400  1
  I  I19  1  0.55881400  0.16968900  0.07879700  1
  I  I20  1  0.29200300  0.43449900  0.19881200  1
  I  I21  1  0.49361200  0.26406500  0.43834500  1
  I  I22  1  0.03878800  0.74030700  0.43891100  1
  I  I23  1  0.78894900  0.99743200  0.31261600  1
  I  I24  1  0.18773900  0.47936100  0.82327300  1
  I  I25  1  0.46367500  0.33415500  0.57757000  1
  I  I26  1  0.78796300  0.06951900  0.80821100  1
  I  I27  1  0.47936100  0.18773900  0.32327300  1
  I  I28  1  0.33415500  0.46367500  0.07757000  1
  I  I29  1  0.06951900  0.78796300  0.30821100  1
  I  I30  1  0.93048100  0.21203700  0.69178900  1
  I  I31  1  0.66584500  0.53632500  0.92243000  1
  I  I32  1  0.52063900  0.81226100  0.67672700  1
  I  I33  1  0.21203700  0.93048100  0.19178900  1
  I  I34  1  0.53632500  0.66584500  0.42243000  1
  I  I35  1  0.81226100  0.52063900  0.17672700  1
  I  I36  1  0.21105100  0.00256800  0.68738400  1
  I  I37  1  0.96121200  0.25969300  0.56108900  1
  I  I38  1  0.50638800  0.73593500  0.56165500  1
  I  I39  1  0.70799700  0.56550100  0.80118800  1
  I  I40  1  0.44118600  0.83031100  0.92120300  1
  I  I41  1  0.68073800  0.54163400  0.67172600  1
  I  I42  1  0.00256800  0.21105100  0.18738400  1
  I  I43  1  0.25969300  0.96121200  0.06108900  1
  I  I44  1  0.73593500  0.50638800  0.06165500  1
  I  I45  1  0.56550100  0.70799700  0.30118800  1
  I  I46  1  0.83031100  0.44118600  0.42120300  1
  I  I47  1  0.98658300  0.29201500  0.88731800  1
  I  I48  1  0.54163400  0.68073800  0.17172600  1
  I  I49  1  0.48774000  0.84519200  0.79752900  1
  I  I50  1  0.29201500  0.98658300  0.38731800  1
  I  I51  1  0.75936900  0.53068000  0.56351500  1
  I  I52  1  0.84519200  0.48774000  0.29752900  1
  I  I53  1  0.53068000  0.75936900  0.06351500  1
  I  I54  1  0.95716300  0.75683500  0.94344500  1
  I  I55  1  0.91015000  0.78408300  0.67156800  1
  I  I56  1  0.75683500  0.95716300  0.44344500  1
  I  I57  1  0.78408300  0.91015000  0.17156800  1
  I  I58  1  0.89847500  0.82216600  0.55424800  1
  I  I59  1  0.82216600  0.89847500  0.05424800  1
loop_
_geom_bond_atom_site_label_1
_geom_bond_atom_site_label_2
_geom_bond_distance
_geom_bond_site_symmetry_2
Ba0 I37 3.434928 1_455
Ba0 I58 3.465033 1_445
Ba0 I36 3.501316 1_555
Ba0 I3 3.516632 1_555
Ba0 I30 3.560343 1_455
Ba0 I9 3.571677 1_455
Ba0 I55 3.633476 1_445
Ba1 I43 3.434928 1_545
Ba1 I59 3.465033 1_445
Ba1 I42 3.501316 1_555
Ba1 I5 3.516632 1_555
Ba1 I33 3.560343 1_545
Ba1 I12 3.571677 1_545
Ba1 I57 3.633476 1_445
Ba2 I51 3.464903 1_555
Ba2 I37 3.466053 1_555
Ba2 I7 3.481484 1_655
Ba2 I30 3.499286 1_555
Ba2 I13 3.523405 1_655
Ba2 I41 3.600641 1_555
Ba2 I55 4.192902 1_555
Ba3 I14 3.411206 1_555
Ba3 I7 3.477397 1_555
Ba3 I30 3.504550 1_455
Ba3 I36 3.542089 1_555
Ba3 I2 3.547437 1_555
Ba3 I24 3.922397 1_555
Ba4 I53 3.464903 1_555
Ba4 I43 3.466053 1_555
Ba4 I10 3.481484 1_565
Ba4 I33 3.499286 1_555
Ba4 I19 3.523405 1_565
Ba4 I48 3.600641 1_555
Ba4 I57 4.192902 1_555
Ba5 I20 3.411206 1_555
Ba5 I10 3.477397 1_555
Ba5 I33 3.504550 1_545
Ba5 I42 3.542089 1_555
Ba5 I4 3.547437 1_555
Ba5 I27 3.922397 1_555
Ba6 I3 3.428129 1_555
Ba6 I9 3.434173 1_555
Ba6 I36 3.466303 1_555
Ba6 I14 3.499470 1_555
Ba6 I25 3.538763 1_555
Ba6 I32 3.775293 1_545
Ba7 I25 3.427498 1_555
Ba7 I37 3.471808 1_455
Ba7 I8 3.479727 1_555
Ba7 I1 3.480635 1_555
Ba7 I13 3.512074 1_555
Ba7 I3 3.548154 1_555
Ba8 I5 3.428129 1_555
Ba8 I12 3.434173 1_555
Ba8 I42 3.466303 1_555
Ba8 I20 3.499470 1_555
Ba8 I28 3.538763 1_555
Ba8 I35 3.775293 1_455
Ba9 I28 3.427498 1_555
Ba9 I43 3.471808 1_545
Ba9 I6 3.479727 1_554
Ba9 I0 3.480635 1_554
Ba9 I19 3.512074 1_555
Ba9 I5 3.548154 1_555
Ba10 I25 3.480943 1_555
Ba10 I13 3.487353 1_555
Ba10 I7 3.538292 1_555
Ba10 I41 3.590599 1_555
Ba10 I14 3.618192 1_555
Ba10 I32 3.728408 1_555
Ba10 I38 3.847021 1_555
Ba11 I28 3.480943 1_555
Ba11 I19 3.487353 1_555
Ba11 I10 3.538292 1_555
Ba11 I48 3.590599 1_555
Ba11 I20 3.618192 1_555
Ba11 I35 3.728408 1_555
Ba11 I44 3.847021 1_555
Ba12 I31 3.480943 1_555
Ba12 I40 3.487353 1_555
Ba12 I49 3.538292 1_555
Ba12 I11 3.590599 1_555
Ba12 I39 3.618192 1_555
Ba12 I24 3.728408 1_555
Ba12 I15 3.847021 1_555
Ba13 I34 3.480943 1_555
Ba13 I46 3.487353 1_555
Ba13 I52 3.538292 1_555
Ba13 I18 3.590599 1_555
Ba13 I45 3.618192 1_555
Ba13 I27 3.728408 1_555
Ba13 I21 3.847021 1_555
Ba14 I31 3.427498 1_555
Ba14 I16 3.471808 1_565
Ba14 I53 3.479727 1_556
Ba14 I59 3.480635 1_556
Ba14 I40 3.512074 1_555
Ba14 I54 3.548154 1_555
Ba15 I54 3.428129 1_555
Ba15 I47 3.434173 1_555
Ba15 I17 3.466303 1_555
Ba15 I39 3.499470 1_555
Ba15 I31 3.538763 1_555
Ba15 I24 3.775293 1_655
Ba16 I34 3.427498 1_555
Ba16 I22 3.471808 1_655
Ba16 I51 3.479727 1_555
Ba16 I58 3.480635 1_555
Ba16 I46 3.512074 1_555
Ba16 I56 3.548154 1_555
Ba17 I56 3.428129 1_555
Ba17 I50 3.434173 1_555
Ba17 I23 3.466303 1_555
Ba17 I45 3.499470 1_555
Ba17 I34 3.538763 1_555
Ba17 I27 3.775293 1_565
Ba18 I39 3.411206 1_555
Ba18 I49 3.477397 1_555
Ba18 I26 3.504550 1_565
Ba18 I17 3.542089 1_555
Ba18 I55 3.547437 1_555
Ba18 I32 3.922397 1_555
Ba19 I6 3.464903 1_555
Ba19 I16 3.466053 1_555
Ba19 I49 3.481484 1_545
Ba19 I26 3.499286 1_555
Ba19 I40 3.523405 1_545
Ba19 I11 3.600641 1_555
Ba19 I2 4.192902 1_555
Ba20 I45 3.411206 1_555
Ba20 I52 3.477397 1_555
Ba20 I29 3.504550 1_655
Ba20 I23 3.542089 1_555
Ba20 I57 3.547437 1_555
Ba20 I35 3.922397 1_555
Ba21 I8 3.464903 1_555
Ba21 I22 3.466053 1_555
Ba21 I52 3.481484 1_455
Ba21 I29 3.499286 1_555
Ba21 I46 3.523405 1_455
Ba21 I18 3.600641 1_555
Ba21 I4 4.192902 1_555
Ba22 I16 3.434928 1_565
Ba22 I0 3.465033 1_665
Ba22 I17 3.501316 1_555
Ba22 I54 3.516632 1_555
Ba22 I26 3.560343 1_565
Ba22 I47 3.571677 1_565
Ba22 I2 3.633476 1_665
Ba23 I22 3.434928 1_655
Ba23 I1 3.465033 1_665
Ba23 I23 3.501316 1_555
Ba23 I56 3.516632 1_555
Ba23 I29 3.560343 1_655
Ba23 I50 3.571677 1_655
Ba23 I4 3.633476 1_665
I0 Y0 3.169424 1_555
I1 Y1 3.169424 1_555
I2 Y0 3.181748 1_555
I4 Y1 3.181748 1_555
I6 Y0 3.195740 1_555
I8 Y1 3.195740 1_555
I9 Y2 3.193326 1_545
I11 Y0 3.198747 1_555
I12 Y3 3.193326 1_455
I15 Y0 2.991146 1_555
I18 Y1 3.198747 1_555
I21 Y1 2.991146 1_555
I24 Y0 3.243084 1_555
I27 Y1 3.243084 1_555
I32 Y2 3.243084 1_555
I35 Y3 3.243084 1_555
I38 Y2 2.991146 1_555
I41 Y2 3.198747 1_555
I44 Y3 2.991146 1_555
I47 Y0 3.193326 1_655
I48 Y3 3.198747 1_555
I50 Y1 3.193326 1_565
I51 Y2 3.195740 1_555
I53 Y3 3.195740 1_555
I55 Y2 3.181748 1_555
I57 Y3 3.181748 1_555
I58 Y2 3.169424 1_555
I59 Y3 3.169424 1_555
