# generated using pymatgen
data_Gd2HgO4
_symmetry_space_group_name_H-M   'P 1'
_cell_length_a   3.68424970
_cell_length_b   7.09982030
_cell_length_c   8.92097762
_cell_angle_alpha   102.12081870
_cell_angle_beta   101.93986914
_cell_angle_gamma   74.96208285
_symmetry_Int_Tables_number   1
_chemical_formula_structural   Gd2HgO4
_chemical_formula_sum   'Gd4 Hg2 O8'
_cell_volume   217.44629311
_cell_formula_units_Z   2
loop_
 _symmetry_equiv_pos_site_id
 _symmetry_equiv_pos_as_xyz
  1  'x, y, z'
loop_
 _atom_site_type_symbol
 _atom_site_label
 _atom_site_symmetry_multiplicity
 _atom_site_fract_x
 _atom_site_fract_y
 _atom_site_fract_z
 _atom_site_occupancy
  Gd  Gd0  1  0.38192172  0.77725701  0.53805987  1
  Gd  Gd1  1  0.84044492  0.51998209  0.19837861  1
  Gd  Gd2  1  0.16182717  0.47849198  0.79878118  1
  Gd  Gd3  1  0.62031111  0.22122826  0.45907315  1
  Hg  Hg0  1  0.11417285  0.93379263  0.15984223  1
  Hg  Hg1  1  0.88825210  0.06472473  0.83730585  1
  O  O0  1  0.76878867  0.85073132  0.38536461  1
  O  O1  1  0.20313705  0.65037828  0.05385270  1
  O  O2  1  0.96652678  0.78866785  0.71777869  1
  O  O3  1  0.41884618  0.51040039  0.34538959  1
  O  O4  1  0.58341146  0.48810475  0.65172948  1
  O  O5  1  0.03589634  0.20982300  0.27934670  1
  O  O6  1  0.79937010  0.34811593  0.94331517  1
  O  O7  1  0.23354455  0.14775880  0.61176217  1
loop_
_geom_bond_atom_site_label_1
_geom_bond_atom_site_label_2
_geom_bond_distance
_geom_bond_site_symmetry_2
Gd0 O3 2.271097 1_555
Gd0 O4 2.359198 1_555
Gd0 O0 2.375751 1_455
Gd0 O0 2.376300 1_555
Gd0 O2 2.411552 1_455
Gd0 O2 2.413131 1_555
Gd0 O7 2.515324 1_565
Gd1 O3 2.252006 1_655
Gd1 O3 2.252213 1_555
Gd1 O6 2.340236 1_554
Gd1 O5 2.349320 1_655
Gd1 O1 2.480560 1_555
Gd1 O1 2.482144 1_655
Gd1 O0 2.565561 1_555
Gd2 O4 2.252171 1_455
Gd2 O4 2.252508 1_555
Gd2 O1 2.340345 1_556
Gd2 O2 2.349566 1_455
Gd2 O6 2.481198 1_555
Gd2 O6 2.481463 1_455
Gd2 O7 2.565616 1_555
Gd3 O4 2.271116 1_555
Gd3 O3 2.359390 1_555
Gd3 O7 2.375955 1_555
Gd3 O7 2.376011 1_655
Gd3 O5 2.412151 1_655
Gd3 O5 2.412623 1_555
Gd3 O0 2.515297 1_545
Hg0 O5 2.004233 1_565
Hg0 O1 2.009322 1_555
Hg1 O2 2.004462 1_545
Hg1 O6 2.009233 1_555
