# generated using pymatgen
data_Ba3LiTi5Nb3O21
_symmetry_space_group_name_H-M   'P 1'
_cell_length_a   9.24076164
_cell_length_b   9.24076164
_cell_length_c   11.74593300
_cell_angle_alpha   90.00000000
_cell_angle_beta   90.00000000
_cell_angle_gamma   120.28878902
_symmetry_Int_Tables_number   1
_chemical_formula_structural   Ba3LiTi5Nb3O21
_chemical_formula_sum   'Ba6 Li2 Ti10 Nb6 O42'
_cell_volume   866.08896894
_cell_formula_units_Z   2
loop_
 _symmetry_equiv_pos_site_id
 _symmetry_equiv_pos_as_xyz
  1  'x, y, z'
loop_
 _atom_site_type_symbol
 _atom_site_label
 _atom_site_symmetry_multiplicity
 _atom_site_fract_x
 _atom_site_fract_y
 _atom_site_fract_z
 _atom_site_occupancy
  Ba  Ba0  1  0.40487600  0.99676300  0.75012700  1
  Ba  Ba1  1  0.59512400  0.00323700  0.25012700  1
  Ba  Ba2  1  0.99676300  0.40487600  0.75012700  1
  Ba  Ba3  1  0.00323700  0.59512400  0.25012700  1
  Ba  Ba4  1  0.40279800  0.40279800  0.25122200  1
  Ba  Ba5  1  0.59720200  0.59720200  0.75122200  1
  Li  Li0  1  0.99477800  0.99477800  0.75405600  1
  Li  Li1  1  0.00522200  0.00522200  0.25405600  1
  Ti  Ti0  1  0.25141500  0.99995000  0.08939000  1
  Ti  Ti1  1  0.24593500  0.99532700  0.40668000  1
  Ti  Ti2  1  0.74858500  0.00005000  0.58939000  1
  Ti  Ti3  1  0.75406500  0.00467300  0.90668000  1
  Ti  Ti4  1  0.99532700  0.24593500  0.40668000  1
  Ti  Ti5  1  0.99995000  0.25141500  0.08939000  1
  Ti  Ti6  1  0.24807400  0.24807400  0.91554000  1
  Ti  Ti7  1  0.00005000  0.74858500  0.58939000  1
  Ti  Ti8  1  0.00467300  0.75406500  0.90668000  1
  Ti  Ti9  1  0.75192600  0.75192600  0.41554000  1
  Nb  Nb0  1  0.66649300  0.33059600  0.99723700  1
  Nb  Nb1  1  0.66940400  0.33350700  0.49723700  1
  Nb  Nb2  1  0.24591700  0.24591700  0.59074300  1
  Nb  Nb3  1  0.33059600  0.66649300  0.99723700  1
  Nb  Nb4  1  0.33350700  0.66940400  0.49723700  1
  Nb  Nb5  1  0.75408300  0.75408300  0.09074300  1
  O  O0  1  0.20209500  0.99863700  0.92682000  1
  O  O1  1  0.20482200  0.00114600  0.57363200  1
  O  O2  1  0.20241100  0.99853500  0.24936700  1
  O  O3  1  0.48066000  0.16645000  0.10094900  1
  O  O4  1  0.47880500  0.16704100  0.40135700  1
  O  O5  1  0.79758900  0.00146500  0.74936700  1
  O  O6  1  0.79790500  0.00136300  0.42682000  1
  O  O7  1  0.79517800  0.99885400  0.07363200  1
  O  O8  1  0.47951200  0.31295200  0.89974200  1
  O  O9  1  0.48493700  0.31630100  0.60384000  1
  O  O10  1  0.68647400  0.16852700  0.89589100  1
  O  O11  1  0.68815700  0.16852000  0.59974700  1
  O  O12  1  0.83148000  0.31184300  0.09974700  1
  O  O13  1  0.83147300  0.31352600  0.39589100  1
  O  O14  1  0.68704800  0.52048800  0.39974200  1
  O  O15  1  0.68369900  0.51506300  0.10384000  1
  O  O16  1  0.99863700  0.20209500  0.92682000  1
  O  O17  1  0.00114600  0.20482200  0.57363200  1
  O  O18  1  0.99853500  0.20241100  0.24936700  1
  O  O19  1  0.83295900  0.52119500  0.90135700  1
  O  O20  1  0.83355000  0.51934000  0.60094900  1
  O  O21  1  0.19997500  0.19997500  0.42253000  1
  O  O22  1  0.20362500  0.20362500  0.07425400  1
  O  O23  1  0.19678700  0.19678700  0.75210700  1
  O  O24  1  0.16645000  0.48066000  0.10094900  1
  O  O25  1  0.16704100  0.47880500  0.40135700  1
  O  O26  1  0.00146500  0.79758900  0.74936700  1
  O  O27  1  0.00136300  0.79790500  0.42682000  1
  O  O28  1  0.99885400  0.79517800  0.07363200  1
  O  O29  1  0.31295200  0.47951200  0.89974200  1
  O  O30  1  0.31630100  0.48493700  0.60384000  1
  O  O31  1  0.16852000  0.68815700  0.59974700  1
  O  O32  1  0.16852700  0.68647400  0.89589100  1
  O  O33  1  0.31352600  0.83147300  0.39589100  1
  O  O34  1  0.31184300  0.83148000  0.09974700  1
  O  O35  1  0.52048800  0.68704800  0.39974200  1
  O  O36  1  0.51506300  0.68369900  0.10384000  1
  O  O37  1  0.51934000  0.83355000  0.60094900  1
  O  O38  1  0.52119500  0.83295900  0.90135700  1
  O  O39  1  0.80321300  0.80321300  0.25210700  1
  O  O40  1  0.79637500  0.79637500  0.57425400  1
  O  O41  1  0.80002500  0.80002500  0.92253000  1
loop_
_geom_bond_atom_site_label_1
_geom_bond_atom_site_label_2
_geom_bond_distance
_geom_bond_site_symmetry_2
Ba0 O1 2.791490 1_565
Ba0 O0 2.802095 1_555
Ba0 O10 2.838271 1_565
Ba0 O37 2.841308 1_555
Ba0 O38 2.871086 1_555
Ba0 O11 2.881081 1_565
Ba0 O32 3.099352 1_555
Ba0 O31 3.120898 1_555
Ba0 O9 3.164667 1_565
Ba0 O8 3.173068 1_565
Ba0 O26 3.219212 1_555
Ba0 O23 3.271055 1_565
Ba1 O7 2.791490 1_545
Ba1 O6 2.802095 1_555
Ba1 O33 2.838271 1_545
Ba1 O3 2.841308 1_555
Ba1 O4 2.871086 1_555
Ba1 O34 2.881081 1_545
Ba1 O13 3.099352 1_555
Ba1 O12 3.120898 1_555
Ba1 O36 3.164667 1_545
Ba1 O35 3.173068 1_545
Ba1 O18 3.219212 1_555
Ba1 O39 3.271055 1_545
Ba2 O17 2.791490 1_655
Ba2 O16 2.802095 1_555
Ba2 O32 2.838271 1_655
Ba2 O20 2.841308 1_555
Ba2 O19 2.871086 1_555
Ba2 O31 2.881081 1_655
Ba2 O10 3.099352 1_555
Ba2 O11 3.120898 1_555
Ba2 O30 3.164667 1_655
Ba2 O29 3.173068 1_655
Ba2 O5 3.219212 1_555
Ba2 O23 3.271055 1_655
Ba3 O28 2.791490 1_455
Ba3 O27 2.802095 1_555
Ba3 O13 2.838271 1_455
Ba3 O24 2.841308 1_555
Ba3 O25 2.871086 1_555
Ba3 O12 2.881081 1_455
Ba3 O33 3.099352 1_555
Ba3 O34 3.120898 1_555
Ba3 O15 3.164667 1_455
Ba3 O14 3.173068 1_455
Ba3 O2 3.219212 1_555
Ba3 O39 3.271055 1_455
Ba4 O21 2.744264 1_555
Ba4 O22 2.771056 1_555
Ba4 O15 2.845101 1_555
Ba4 O36 2.845101 1_555
Ba4 O35 2.871236 1_555
Ba4 O14 2.871236 1_555
Ba4 O4 3.145287 1_555
Ba4 O25 3.145287 1_555
Ba4 O24 3.160441 1_555
Ba4 O3 3.160441 1_555
Ba4 O2 3.225990 1_545
Ba4 O18 3.225990 1_455
Ba5 O41 2.744264 1_555
Ba5 O40 2.771056 1_555
Ba5 O30 2.845101 1_555
Ba5 O9 2.845101 1_555
Ba5 O29 2.871236 1_555
Ba5 O8 2.871236 1_555
Ba5 O38 3.145287 1_555
Ba5 O19 3.145287 1_555
Ba5 O20 3.160441 1_555
Ba5 O37 3.160441 1_555
Ba5 O5 3.225990 1_565
Ba5 O26 3.225990 1_655
Li0 O26 1.854928 1_655
Li0 O5 1.854928 1_565
Li0 O23 1.858704 1_665
Li1 O2 1.854928 1_545
Li1 O18 1.854928 1_455
Li1 O39 1.858704 1_445
Nb0 O10 1.993242 1_555
Nb0 O19 2.000942 1_555
Nb0 O8 2.009796 1_555
Nb0 O12 2.017611 1_556
Nb0 O3 2.026381 1_556
Nb0 O15 2.055599 1_556
Nb1 O13 1.993242 1_555
Nb1 O4 2.000942 1_555
Nb1 O14 2.009796 1_555
Nb1 O11 2.017611 1_555
Nb1 O20 2.026381 1_555
Nb1 O9 2.055599 1_555
Nb2 O23 1.948525 1_555
Nb2 O9 1.968776 1_555
Nb2 O30 1.968776 1_555
Nb2 O21 2.020525 1_555
Nb2 O1 2.105761 1_555
Nb2 O17 2.105761 1_555
Nb3 O32 1.993242 1_555
Nb3 O38 2.000942 1_555
Nb3 O29 2.009796 1_555
Nb3 O34 2.017611 1_556
Nb3 O24 2.026381 1_556
Nb3 O36 2.055599 1_556
Nb4 O33 1.993242 1_555
Nb4 O25 2.000942 1_555
Nb4 O35 2.009796 1_555
Nb4 O31 2.017611 1_555
Nb4 O37 2.026381 1_555
Nb4 O30 2.055599 1_555
Nb5 O39 1.948525 1_555
Nb5 O15 1.968776 1_555
Nb5 O36 1.968776 1_555
Nb5 O41 2.020525 1_554
Nb5 O7 2.105761 1_555
Nb5 O28 2.105761 1_555
O0 Ti0 1.961788 1_556
O0 Ti8 2.081562 1_555
O0 Ti6 2.126773 1_565
O1 Ti1 2.003343 1_545
O1 Ti7 2.146396 1_545
O2 Ti1 1.894462 1_555
O2 Ti0 1.931371 1_555
O3 Ti0 1.893553 1_545
O4 Ti1 1.925636 1_545
O5 Ti3 1.894462 1_555
O5 Ti2 1.931371 1_555
O6 Ti2 1.961788 1_555
O6 Ti4 2.081562 1_555
O6 Ti9 2.126773 1_545
O7 Ti3 2.003343 1_564
O7 Ti5 2.146396 1_565
O8 Ti6 1.916869 1_555
O10 Ti3 1.911215 1_555
O11 Ti2 1.904495 1_555
O12 Ti5 1.904495 1_555
O13 Ti4 1.911215 1_555
O14 Ti9 1.916869 1_555
O16 Ti5 1.961788 1_556
O16 Ti3 2.081562 1_555
O16 Ti6 2.126773 1_655
O17 Ti4 2.003343 1_455
O17 Ti2 2.146396 1_455
O18 Ti4 1.894462 1_555
O18 Ti5 1.931371 1_555
O19 Ti8 1.925636 1_655
O20 Ti7 1.893553 1_655
O21 Ti1 2.145104 1_545
O21 Ti4 2.145104 1_455
O22 Ti6 1.908571 1_554
O22 Ti0 2.146484 1_545
O22 Ti5 2.146484 1_455
O23 Ti6 1.976815 1_555
O24 Ti5 1.893553 1_455
O25 Ti4 1.925636 1_455
O26 Ti8 1.894462 1_555
O26 Ti7 1.931371 1_555
O27 Ti7 1.961788 1_555
O27 Ti1 2.081562 1_555
O27 Ti9 2.126773 1_455
O28 Ti8 2.003343 1_654
O28 Ti0 2.146396 1_655
O29 Ti6 1.916869 1_555
O31 Ti7 1.904495 1_555
O32 Ti8 1.911215 1_555
O33 Ti1 1.911215 1_555
O34 Ti0 1.904495 1_555
O35 Ti9 1.916869 1_555
O37 Ti2 1.893553 1_565
O38 Ti3 1.925636 1_565
O39 Ti9 1.976815 1_555
O40 Ti9 1.908571 1_555
O40 Ti2 2.146484 1_565
O40 Ti7 2.146484 1_655
O41 Ti8 2.145104 1_655
O41 Ti3 2.145104 1_565
