# generated using pymatgen
data_P3W2O13
_symmetry_space_group_name_H-M   'P 1'
_cell_length_a   22.74262600
_cell_length_b   6.47593700
_cell_length_c   8.76891328
_cell_angle_alpha   52.97803588
_cell_angle_beta   90.00000000
_cell_angle_gamma   90.00000000
_symmetry_Int_Tables_number   1
_chemical_formula_structural   P3W2O13
_chemical_formula_sum   'P12 W8 O52'
_cell_volume   1031.12688588
_cell_formula_units_Z   4
loop_
 _symmetry_equiv_pos_site_id
 _symmetry_equiv_pos_as_xyz
  1  'x, y, z'
loop_
 _atom_site_type_symbol
 _atom_site_label
 _atom_site_symmetry_multiplicity
 _atom_site_fract_x
 _atom_site_fract_y
 _atom_site_fract_z
 _atom_site_occupancy
  P  P0  1  0.41631500  0.53108600  0.85247500  1
  P  P1  1  0.70317400  0.63962000  0.58598100  1
  P  P2  1  0.20317400  0.36038000  0.91401900  1
  P  P3  1  0.90121000  0.98054400  0.29759800  1
  P  P4  1  0.40121000  0.01945600  0.20240200  1
  P  P5  1  0.91631500  0.46891400  0.64752500  1
  P  P6  1  0.08368500  0.53108600  0.35247500  1
  P  P7  1  0.59879000  0.98054400  0.79759800  1
  P  P8  1  0.09879000  0.01945600  0.70240200  1
  P  P9  1  0.79682600  0.63962000  0.08598100  1
  P  P10  1  0.29682600  0.36038000  0.41401900  1
  P  P11  1  0.58368500  0.46891400  0.14752500  1
  W  W0  1  0.29395800  0.74449200  0.54481600  1
  W  W1  1  0.56245300  0.55049200  0.72558800  1
  W  W2  1  0.06245300  0.44950800  0.77441200  1
  W  W3  1  0.79395800  0.25550800  0.95518400  1
  W  W4  1  0.20604200  0.74449200  0.04481600  1
  W  W5  1  0.93754700  0.55049200  0.22558800  1
  W  W6  1  0.43754700  0.44950800  0.27441200  1
  W  W7  1  0.70604200  0.25550800  0.45518400  1
  O  O0  1  0.19311000  0.43171100  0.05241800  1
  O  O1  1  0.93202100  0.18999200  0.29270900  1
  O  O2  1  0.37347200  0.68042800  0.68368500  1
  O  O3  1  0.57873100  0.37198000  0.02827800  1
  O  O4  1  0.88575400  0.75537000  0.51492500  1
  O  O5  1  0.44010500  0.12361500  0.28227100  1
  O  O6  1  0.26200900  0.49671800  0.80606400  1
  O  O7  1  0.47507100  0.49118300  0.79058100  1
  O  O8  1  0.65428300  0.54680800  0.73103300  1
  O  O9  1  0.70972600  0.93693700  0.46490400  1
  O  O10  1  0.05787500  0.27105600  0.02075600  1
  O  O11  1  0.15428300  0.45319200  0.76896700  1
  O  O12  1  0.97507100  0.50881700  0.70941900  1
  O  O13  1  0.76200900  0.50328200  0.69393600  1
  O  O14  1  0.83945000  0.06425600  0.19823100  1
  O  O15  1  0.38575400  0.24463000  0.98507500  1
  O  O16  1  0.72570800  0.18386300  0.06226900  1
  O  O17  1  0.22570800  0.81613700  0.43773100  1
  O  O18  1  0.33945000  0.93574400  0.30176900  1
  O  O19  1  0.87347200  0.31957200  0.81631500  1
  O  O20  1  0.55787500  0.72894400  0.47924400  1
  O  O21  1  0.20972600  0.06306300  0.03509600  1
  O  O22  1  0.30689000  0.43171100  0.55241800  1
  O  O23  1  0.94010500  0.87638500  0.21772900  1
  O  O24  1  0.07873100  0.62802000  0.47172200  1
  O  O25  1  0.56797900  0.18999200  0.79270900  1
  O  O26  1  0.43202100  0.81000800  0.20729100  1
  O  O27  1  0.92126900  0.37198000  0.52827800  1
  O  O28  1  0.05989500  0.12361500  0.78227100  1
  O  O29  1  0.69311000  0.56828900  0.44758200  1
  O  O30  1  0.79027400  0.93693700  0.96490400  1
  O  O31  1  0.44212500  0.27105600  0.52075600  1
  O  O32  1  0.12652800  0.68042800  0.18368500  1
  O  O33  1  0.66055000  0.06425600  0.69823100  1
  O  O34  1  0.77429200  0.18386300  0.56226900  1
  O  O35  1  0.27429200  0.81613700  0.93773100  1
  O  O36  1  0.61424600  0.75537000  0.01492500  1
  O  O37  1  0.16055000  0.93574400  0.80176900  1
  O  O38  1  0.23799100  0.49671800  0.30606400  1
  O  O39  1  0.02492900  0.49118300  0.29058100  1
  O  O40  1  0.84571700  0.54680800  0.23103300  1
  O  O41  1  0.94212500  0.72894400  0.97924400  1
  O  O42  1  0.29027400  0.06306300  0.53509600  1
  O  O43  1  0.34571700  0.45319200  0.26896700  1
  O  O44  1  0.52492900  0.50881700  0.20941900  1
  O  O45  1  0.73799100  0.50328200  0.19393600  1
  O  O46  1  0.55989500  0.87638500  0.71772900  1
  O  O47  1  0.11424600  0.24463000  0.48507500  1
  O  O48  1  0.42126900  0.62802000  0.97172200  1
  O  O49  1  0.62652800  0.31957200  0.31631500  1
  O  O50  1  0.06797900  0.81000800  0.70729100  1
  O  O51  1  0.80689000  0.56828900  0.94758200  1
loop_
_geom_bond_atom_site_label_1
_geom_bond_atom_site_label_2
_geom_bond_distance
_geom_bond_site_symmetry_2
O0 P2 1.553617 1_554
O0 W4 2.007783 1_555
O1 P3 1.504184 1_545
O1 W5 2.039052 1_555
O2 P0 1.533498 1_555
O2 W0 2.077680 1_555
O3 P11 1.513486 1_555
O3 W1 2.196237 1_554
O4 P3 1.592229 1_555
O4 P5 1.636711 1_555
O5 P4 1.515543 1_555
O5 W6 2.070516 1_555
O6 P2 1.568303 1_555
O6 W0 1.980917 1_555
O7 P0 1.521791 1_555
O7 W1 2.039134 1_555
O8 P1 1.514863 1_555
O8 W1 2.088809 1_555
O9 P1 1.547540 1_555
O9 W7 2.014618 1_565
O10 W2 1.733906 1_554
O11 P2 1.514863 1_555
O11 W2 2.088809 1_555
O12 P5 1.521791 1_555
O12 W2 2.039134 1_655
O13 P1 1.568303 1_555
O13 W3 1.980917 1_555
O14 P3 1.567526 1_545
O14 W3 1.991954 1_554
O15 P4 1.592229 1_556
O15 P0 1.636711 1_555
O16 W3 1.726743 1_554
O17 W0 1.726743 1_555
O18 P4 1.567526 1_565
O18 W0 1.991954 1_555
O19 P5 1.533498 1_555
O19 W3 2.077680 1_555
O20 W1 1.733906 1_555
O21 P2 1.547540 1_554
O21 W4 2.014618 1_545
O22 P10 1.553617 1_555
O22 W0 2.007783 1_555
O23 P3 1.515543 1_555
O23 W5 2.070516 1_555
O24 P6 1.513486 1_555
O24 W2 2.196237 1_555
O25 P7 1.504184 1_545
O25 W1 2.039052 1_555
O26 P4 1.504184 1_565
O26 W6 2.039052 1_555
O27 P5 1.513486 1_555
O27 W5 2.196237 1_555
O28 P8 1.515543 1_555
O28 W2 2.070516 1_555
O29 P1 1.553617 1_555
O29 W7 2.007783 1_555
O30 P9 1.547540 1_556
O30 W3 2.014618 1_565
O31 W6 1.733906 1_555
O32 P6 1.533498 1_555
O32 W4 2.077680 1_555
O33 P7 1.567526 1_545
O33 W7 1.991954 1_555
O34 W7 1.726743 1_555
O35 W4 1.726743 1_556
O36 P7 1.592229 1_554
O36 P11 1.636711 1_555
O37 P8 1.567526 1_565
O37 W4 1.991954 1_556
O38 P10 1.568303 1_555
O38 W4 1.980917 1_555
O39 P6 1.521791 1_555
O39 W5 2.039134 1_455
O40 P9 1.514863 1_555
O40 W5 2.088809 1_555
O41 W5 1.733906 1_556
O42 P10 1.547540 1_555
O42 W0 2.014618 1_545
O43 P10 1.514863 1_555
O43 W6 2.088809 1_555
O44 P11 1.521791 1_555
O44 W6 2.039134 1_555
O45 P9 1.568303 1_555
O45 W7 1.980917 1_555
O46 P7 1.515543 1_555
O46 W1 2.070516 1_555
O47 P8 1.592229 1_555
O47 P6 1.636711 1_555
O48 P0 1.513486 1_555
O48 W6 2.196237 1_556
O49 P11 1.533498 1_555
O49 W7 2.077680 1_555
O50 P8 1.504184 1_565
O50 W2 2.039052 1_555
O51 P9 1.553617 1_556
O51 W3 2.007783 1_555
