# generated using pymatgen
data_V3Sb2(PO4)6
_symmetry_space_group_name_H-M   'P 1'
_cell_length_a   8.98041835
_cell_length_b   8.62670656
_cell_length_c   8.62670626
_cell_angle_alpha   60.00000333
_cell_angle_beta   61.29458502
_cell_angle_gamma   61.29457810
_symmetry_Int_Tables_number   1
_chemical_formula_structural   V3Sb2(PO4)6
_chemical_formula_sum   'V3 Sb2 P6 O24'
_cell_volume   481.61296344
_cell_formula_units_Z   1
loop_
 _symmetry_equiv_pos_site_id
 _symmetry_equiv_pos_as_xyz
  1  'x, y, z'
loop_
 _atom_site_type_symbol
 _atom_site_label
 _atom_site_symmetry_multiplicity
 _atom_site_fract_x
 _atom_site_fract_y
 _atom_site_fract_z
 _atom_site_occupancy
  V  V0  1  0.05214300  0.64928500  0.64928500  1
  V  V1  1  0.42431200  0.85856300  0.85856300  1
  V  V2  1  0.00270800  0.33243100  0.33243100  1
  Sb  Sb0  1  0.89575600  0.03474800  0.03474800  1
  Sb  Sb1  1  0.55348000  0.48217300  0.48217300  1
  P  P0  1  0.26985900  0.25643300  0.54980600  1
  P  P1  1  0.26985900  0.92390100  0.25643300  1
  P  P2  1  0.26985900  0.54980600  0.92390100  1
  P  P3  1  0.74035700  0.47810200  0.04167900  1
  P  P4  1  0.74035700  0.04167900  0.73986200  1
  P  P5  1  0.74035700  0.73986200  0.47810200  1
  O  O0  1  0.10925800  0.10928000  0.29336800  1
  O  O1  1  0.10925800  0.48809500  0.10928000  1
  O  O2  1  0.10925800  0.29336800  0.48809500  1
  O  O3  1  0.27170700  0.06234800  0.71257800  1
  O  O4  1  0.44145400  0.27396200  0.39538400  1
  O  O5  1  0.19518600  0.40095900  0.64796900  1
  O  O6  1  0.27170700  0.95336700  0.06234800  1
  O  O7  1  0.19518600  0.75588600  0.40095900  1
  O  O8  1  0.56554000  0.63488500  0.02102700  1
  O  O9  1  0.19518600  0.64796900  0.75588600  1
  O  O10  1  0.74414900  0.29742300  0.03887100  1
  O  O11  1  0.56554000  0.02102700  0.77854800  1
  O  O12  1  0.44145400  0.88919900  0.27396200  1
  O  O13  1  0.27170700  0.71257800  0.95336700  1
  O  O14  1  0.75597000  0.42752000  0.23864000  1
  O  O15  1  0.44145400  0.39538400  0.88919900  1
  O  O16  1  0.75597000  0.23864000  0.57787000  1
  O  O17  1  0.74414900  0.03887100  0.91955800  1
  O  O18  1  0.75597000  0.57787000  0.42752000  1
  O  O19  1  0.56554000  0.77854800  0.63488500  1
  O  O20  1  0.74414900  0.91955800  0.29742300  1
  O  O21  1  0.90633000  0.66151400  0.53386600  1
  O  O22  1  0.90633000  0.53386600  0.89828800  1
  O  O23  1  0.90633000  0.89828800  0.66151400  1
loop_
_geom_bond_atom_site_label_1
_geom_bond_atom_site_label_2
_geom_bond_distance
_geom_bond_site_symmetry_2
O0 P1 1.609842 1_545
O0 V2 1.817827 1_555
O1 P2 1.609838 1_554
O1 V2 1.817828 1_555
O2 P0 1.609831 1_555
O2 V2 1.817827 1_555
O3 P0 1.555631 1_555
O3 V1 1.919457 1_545
O4 P0 1.490832 1_555
O5 P0 1.558338 1_555
O5 V0 1.899020 1_555
O6 P1 1.555628 1_555
O6 V1 1.919452 1_554
O7 P1 1.558332 1_555
O7 V0 1.899024 1_555
O8 P3 1.521092 1_555
O8 V1 1.987068 1_554
O9 P2 1.558331 1_555
O9 V0 1.899034 1_555
O10 P3 1.554721 1_555
O10 Sb0 2.014994 1_555
O11 P4 1.521092 1_555
O11 V1 1.987066 1_545
O12 P1 1.490832 1_555
O13 P2 1.555636 1_555
O13 V1 1.919459 1_555
O14 P3 1.589260 1_555
O14 Sb1 2.107087 1_555
O14 V2 2.355806 1_655
O15 P2 1.490832 1_555
O16 P4 1.589260 1_555
O16 Sb1 2.107090 1_555
O16 V2 2.355804 1_655
O17 P4 1.554730 1_555
O17 Sb0 2.014987 1_556
O18 P5 1.589260 1_555
O18 Sb1 2.107093 1_555
O18 V2 2.355801 1_655
O19 P5 1.521092 1_555
O19 V1 1.987073 1_555
O20 P5 1.554726 1_555
O20 Sb0 2.014992 1_565
O21 P5 1.518472 1_555
O21 V0 1.931819 1_655
O22 P3 1.518476 1_556
O22 V0 1.931820 1_655
O23 P4 1.518482 1_565
O23 V0 1.931819 1_655
