# generated using pymatgen
data_FeOF
_symmetry_space_group_name_H-M   'P 1'
_cell_length_a   3.11483700
_cell_length_b   14.34313400
_cell_length_c   14.38940913
_cell_angle_alpha   89.89507547
_cell_angle_beta   90.00000000
_cell_angle_gamma   90.00000000
_symmetry_Int_Tables_number   1
_chemical_formula_structural   FeOF
_chemical_formula_sum   'Fe18 O18 F18'
_cell_volume   642.86771119
_cell_formula_units_Z   18
loop_
 _symmetry_equiv_pos_site_id
 _symmetry_equiv_pos_as_xyz
  1  'x, y, z'
loop_
 _atom_site_type_symbol
 _atom_site_label
 _atom_site_symmetry_multiplicity
 _atom_site_fract_x
 _atom_site_fract_y
 _atom_site_fract_z
 _atom_site_occupancy
  Fe  Fe0  1  0.00000000  0.99592800  0.98774500  1
  Fe  Fe1  1  0.00000000  0.99522500  0.33585400  1
  Fe  Fe2  1  0.00000000  0.98595500  0.66427400  1
  Fe  Fe3  1  0.50000000  0.81528600  0.16390800  1
  Fe  Fe4  1  0.50000000  0.84732200  0.49649900  1
  Fe  Fe5  1  0.50000000  0.84640600  0.83217300  1
  Fe  Fe6  1  0.00000000  0.66098000  0.00387500  1
  Fe  Fe7  1  0.00000000  0.66381200  0.32026000  1
  Fe  Fe8  1  0.00000000  0.65397400  0.66440700  1
  Fe  Fe9  1  0.50000000  0.49842500  0.51367000  1
  Fe  Fe10  1  0.50000000  0.51399400  0.16389200  1
  Fe  Fe11  1  0.50000000  0.51669500  0.83553000  1
  Fe  Fe12  1  0.00000000  0.32055900  0.99719900  1
  Fe  Fe13  1  0.00000000  0.32049600  0.32975900  1
  Fe  Fe14  1  0.00000000  0.33223300  0.65674800  1
  Fe  Fe15  1  0.50000000  0.18035300  0.16379200  1
  Fe  Fe16  1  0.50000000  0.18336300  0.50044200  1
  Fe  Fe17  1  0.50000000  0.16427900  0.84776800  1
  O  O0  1  0.50000000  0.93531000  0.60167200  1
  O  O1  1  0.50000000  0.93175500  0.93937100  1
  O  O2  1  0.00000000  0.89627600  0.43273900  1
  O  O3  1  0.00000000  0.89951100  0.77021900  1
  O  O4  1  0.00000000  0.76960100  0.23116900  1
  O  O5  1  0.50000000  0.72773200  0.06047600  1
  O  O6  1  0.50000000  0.60037500  0.27100400  1
  O  O7  1  0.50000000  0.60461900  0.60075600  1
  O  O8  1  0.50000000  0.60498800  0.93708300  1
  O  O9  1  0.00000000  0.56241100  0.10214300  1
  O  O10  1  0.00000000  0.56649800  0.77172100  1
  O  O11  1  0.00000000  0.43577800  0.56590900  1
  O  O12  1  0.50000000  0.26747200  0.26873400  1
  O  O13  1  0.50000000  0.26833400  0.60775000  1
  O  O14  1  0.50000000  0.27144500  0.93313700  1
  O  O15  1  0.00000000  0.23054400  0.10104700  1
  O  O16  1  0.00000000  0.23376900  0.43670800  1
  O  O17  1  0.00000000  0.10113900  0.89940500  1
  F  F0  1  0.50000000  0.93662000  0.26093600  1
  F  F1  1  0.00000000  0.89808600  0.10283900  1
  F  F2  1  0.00000000  0.76942700  0.56619400  1
  F  F3  1  0.00000000  0.76817900  0.89444700  1
  F  F4  1  0.50000000  0.73248300  0.73143300  1
  F  F5  1  0.50000000  0.72876500  0.40201800  1
  F  F6  1  0.00000000  0.56486300  0.43572200  1
  F  F7  1  0.00000000  0.43333300  0.23142900  1
  F  F8  1  0.00000000  0.43777000  0.90213900  1
  F  F9  1  0.50000000  0.39730900  0.06551900  1
  F  F10  1  0.50000000  0.40168300  0.39549800  1
  F  F11  1  0.50000000  0.39789500  0.73746700  1
  F  F12  1  0.00000000  0.23173000  0.76997300  1
  F  F13  1  0.00000000  0.09943000  0.23316800  1
  F  F14  1  0.00000000  0.10169800  0.56412200  1
  F  F15  1  0.50000000  0.06222600  0.06973900  1
  F  F16  1  0.50000000  0.06729000  0.39930400  1
  F  F17  1  0.50000000  0.06836800  0.72921200  1
loop_
_geom_bond_atom_site_label_1
_geom_bond_atom_site_label_2
_geom_bond_distance
_geom_bond_site_symmetry_2
Fe0 O1 1.938977 1_455
Fe0 O1 1.938977 1_555
Fe0 O17 1.971312 1_565
Fe1 O2 1.987601 1_555
Fe2 O0 1.940894 1_555
Fe2 O0 1.940894 1_455
Fe2 O3 1.963271 1_555
Fe3 O4 1.946620 1_555
Fe3 O4 1.946620 1_655
Fe3 O5 1.949099 1_555
Fe4 O2 1.938546 1_555
Fe4 O2 1.938546 1_655
Fe4 O0 1.972311 1_555
Fe5 O3 1.948841 1_655
Fe5 O3 1.948841 1_555
Fe5 O1 1.971007 1_555
Fe6 O9 1.997730 1_555
Fe6 O8 1.999264 1_554
Fe6 O8 1.999264 1_454
Fe6 O5 2.002105 1_555
Fe6 O5 2.002105 1_455
Fe7 O6 1.938596 1_455
Fe7 O6 1.938596 1_555
Fe7 O4 1.984604 1_555
Fe8 O7 1.941116 1_555
Fe8 O7 1.941116 1_455
Fe8 O10 1.987872 1_555
Fe9 O11 1.948208 1_655
Fe9 O11 1.948208 1_555
Fe9 O7 1.974156 1_555
Fe10 O9 1.922250 1_655
Fe10 O9 1.922250 1_555
Fe10 O6 1.979290 1_555
Fe11 O8 1.935434 1_555
Fe11 O10 1.943312 1_655
Fe11 O10 1.943312 1_555
Fe12 O14 1.942658 1_455
Fe12 O14 1.942658 1_555
Fe12 O15 1.973026 1_556
Fe13 O12 1.943576 1_555
Fe13 O12 1.943576 1_455
Fe13 O16 1.977039 1_555
Fe14 O13 1.940364 1_455
Fe14 O13 1.940364 1_555
Fe14 O11 1.976651 1_555
Fe15 O15 1.938191 1_555
Fe15 O15 1.938191 1_655
Fe15 O12 1.961778 1_555
Fe16 O16 1.945992 1_555
Fe16 O16 1.945992 1_655
Fe16 O13 1.968879 1_555
Fe17 O17 1.948161 1_555
Fe17 O17 1.948161 1_655
Fe17 O14 1.969409 1_555
F0 Fe1 2.073062 1_655
F0 Fe1 2.073062 1_555
F0 Fe3 2.233133 1_555
F1 Fe3 2.145774 1_455
F1 Fe3 2.145774 1_555
F1 Fe0 2.168800 1_554
F2 Fe4 2.162282 1_455
F2 Fe4 2.162282 1_555
F2 Fe8 2.175048 1_555
F3 Fe5 2.117491 1_455
F3 Fe5 2.117491 1_555
F3 Fe6 2.198780 1_556
F4 Fe8 2.151219 1_655
F4 Fe8 2.151219 1_555
F4 Fe5 2.186317 1_555
F5 Fe7 2.163685 1_655
F5 Fe7 2.163685 1_555
F5 Fe4 2.179084 1_555
F6 Fe9 2.141905 1_555
F6 Fe9 2.141905 1_455
F6 Fe7 2.183106 1_555
F7 Fe13 2.147771 1_555
F7 Fe10 2.168952 1_455
F7 Fe10 2.168952 1_555
F8 Fe11 2.149820 1_455
F8 Fe11 2.149820 1_555
F8 Fe12 2.165399 1_555
F9 Fe12 2.146581 1_554
F9 Fe12 2.146581 1_654
F9 Fe10 2.193954 1_555
F10 Fe13 2.163424 1_555
F10 Fe13 2.163424 1_655
F10 Fe9 2.196697 1_555
F11 Fe14 2.160005 1_555
F11 Fe14 2.160005 1_655
F11 Fe11 2.214366 1_555
F12 Fe17 2.147248 1_455
F12 Fe17 2.147248 1_555
F12 Fe14 2.173437 1_555
F13 Fe1 2.099784 1_545
F13 Fe15 2.182904 1_455
F13 Fe15 2.182904 1_555
F14 Fe16 2.152505 1_455
F14 Fe16 2.152505 1_555
F14 Fe2 2.196378 1_545
F15 Fe15 2.170413 1_555
F15 Fe0 2.173924 1_644
F15 Fe0 2.173924 1_544
F16 Fe1 2.081105 1_545
F16 Fe1 2.081105 1_645
F16 Fe16 2.213266 1_555
F17 Fe2 2.167950 1_645
F17 Fe2 2.167950 1_545
F17 Fe17 2.193471 1_555
