# generated using pymatgen
data_Li3V5O8
_symmetry_space_group_name_H-M   'P 1'
_cell_length_a   6.07204913
_cell_length_b   6.07204913
_cell_length_c   6.07204930
_cell_angle_alpha   60.00776054
_cell_angle_beta   60.00776054
_cell_angle_gamma   60.00776736
_symmetry_Int_Tables_number   1
_chemical_formula_structural   Li3V5O8
_chemical_formula_sum   'Li3 V5 O8'
_cell_volume   158.33148015
_cell_formula_units_Z   1
loop_
 _symmetry_equiv_pos_site_id
 _symmetry_equiv_pos_as_xyz
  1  'x, y, z'
loop_
 _atom_site_type_symbol
 _atom_site_label
 _atom_site_symmetry_multiplicity
 _atom_site_fract_x
 _atom_site_fract_y
 _atom_site_fract_z
 _atom_site_occupancy
  Li  Li0  1  0.00000000  0.50000000  0.00000000  1
  Li  Li1  1  0.00000000  0.00000000  0.50000000  1
  Li  Li2  1  0.50000000  0.00000000  0.00000000  1
  V  V0  1  0.00000000  0.00000000  0.00000000  1
  V  V1  1  0.50000000  0.00000000  0.50000000  1
  V  V2  1  0.50000000  0.50000000  0.00000000  1
  V  V3  1  0.00000000  0.50000000  0.50000000  1
  V  V4  1  0.50000000  0.50000000  0.50000000  1
  O  O0  1  0.25721100  0.25721100  0.25721100  1
  O  O1  1  0.75022300  0.26980200  0.75022300  1
  O  O2  1  0.75022300  0.75022300  0.26980200  1
  O  O3  1  0.74278900  0.74278900  0.74278900  1
  O  O4  1  0.26980200  0.75022300  0.75022300  1
  O  O5  1  0.24977700  0.73019800  0.24977700  1
  O  O6  1  0.24977700  0.24977700  0.73019800  1
  O  O7  1  0.73019800  0.24977700  0.24977700  1
loop_
_geom_bond_atom_site_label_1
_geom_bond_atom_site_label_2
_geom_bond_distance
_geom_bond_site_symmetry_2
Li0 O3 2.210566 1_454
Li0 O0 2.210566 1_555
Li0 O7 2.234549 1_455
Li0 O4 2.234549 1_554
Li0 O6 2.234549 1_554
Li0 O2 2.234549 1_455
Li1 O3 2.210566 1_445
Li1 O0 2.210566 1_555
Li1 O4 2.234549 1_545
Li1 O7 2.234549 1_455
Li1 O5 2.234549 1_545
Li1 O1 2.234549 1_455
Li2 O3 2.210566 1_544
Li2 O0 2.210566 1_555
Li2 O5 2.234549 1_545
Li2 O1 2.234549 1_554
Li2 O2 2.234549 1_545
Li2 O6 2.234549 1_554
O0 V2 2.086846 1_555
O0 V3 2.086847 1_555
O0 V1 2.086847 1_555
O1 V3 2.062739 1_655
O1 V2 2.062740 1_556
O1 V0 2.148468 1_656
O1 V4 2.152252 1_555
O2 V3 2.062740 1_655
O2 V1 2.062740 1_565
O2 V0 2.148468 1_665
O2 V4 2.152252 1_555
O3 V2 2.086846 1_556
O3 V1 2.086847 1_565
O3 V3 2.086847 1_655
O4 V1 2.062739 1_565
O4 V2 2.062740 1_556
O4 V0 2.148468 1_566
O4 V4 2.152252 1_555
O5 V3 2.062739 1_555
O5 V2 2.062740 1_555
O5 V0 2.148468 1_565
O5 V4 2.152252 1_555
O6 V1 2.062740 1_555
O6 V3 2.062740 1_555
O6 V0 2.148468 1_556
O6 V4 2.152252 1_555
O7 V1 2.062739 1_555
O7 V2 2.062740 1_555
O7 V0 2.148468 1_655
O7 V4 2.152252 1_555
