# generated using pymatgen
data_Li3Ti2(PO4)3
_symmetry_space_group_name_H-M   'P 1'
_cell_length_a   8.46079300
_cell_length_b   8.46620486
_cell_length_c   9.12672386
_cell_angle_alpha   62.59731439
_cell_angle_beta   62.39181052
_cell_angle_gamma   60.07407318
_symmetry_Int_Tables_number   1
_chemical_formula_structural   Li3Ti2(PO4)3
_chemical_formula_sum   'Li6 Ti4 P6 O24'
_cell_volume   479.22689868
_cell_formula_units_Z   2
loop_
 _symmetry_equiv_pos_site_id
 _symmetry_equiv_pos_as_xyz
  1  'x, y, z'
loop_
 _atom_site_type_symbol
 _atom_site_label
 _atom_site_symmetry_multiplicity
 _atom_site_fract_x
 _atom_site_fract_y
 _atom_site_fract_z
 _atom_site_occupancy
  Li  Li0  1  0.24264100  0.57434100  0.35025800  1
  Li  Li1  1  0.43238200  0.16160100  0.65021300  1
  Li  Li2  1  0.07747200  0.73133300  0.86606300  1
  Li  Li3  1  0.92810100  0.26796000  0.13544800  1
  Li  Li4  1  0.66964300  0.92236700  0.13829800  1
  Li  Li5  1  0.73014600  0.33310900  0.86072600  1
  Ti  Ti0  1  0.14222300  0.13840400  0.56310600  1
  Ti  Ti1  1  0.34320100  0.34605800  0.95865900  1
  Ti  Ti2  1  0.64177200  0.65794200  0.04054200  1
  Ti  Ti3  1  0.84810900  0.85365500  0.43589600  1
  P  P0  1  0.04428400  0.45749500  0.74889900  1
  P  P1  1  0.54489400  0.25171000  0.24909200  1
  P  P2  1  0.25072700  0.95919300  0.24995000  1
  P  P3  1  0.74839100  0.04328800  0.75097300  1
  P  P4  1  0.45982300  0.74597700  0.75198600  1
  P  P5  1  0.95690000  0.53954200  0.24843100  1
  O  O0  1  0.20145200  0.15679000  0.10960400  1
  O  O1  1  0.15083200  0.53357700  0.09849600  1
  O  O2  1  0.01641500  0.60797200  0.57591100  1
  O  O3  1  0.14857800  0.25687000  0.72281300  1
  O  O4  1  0.12739400  0.85488900  0.27810100  1
  O  O5  1  0.53927100  0.20638900  0.10355600  1
  O  O6  1  0.39255900  0.20586200  0.42390200  1
  O  O7  1  0.16562200  0.49646900  0.80485000  1
  O  O8  1  0.50296200  0.46742700  0.19937800  1
  O  O9  1  0.20208100  0.99480100  0.42051400  1
  O  O10  1  0.74932500  0.12987400  0.26521900  1
  O  O11  1  0.46594500  0.83705000  0.19425600  1
  O  O12  1  0.53221200  0.17060500  0.80381700  1
  O  O13  1  0.25617400  0.86849000  0.73325100  1
  O  O14  1  0.79159200  0.00955200  0.58355300  1
  O  O15  1  0.49506400  0.53076900  0.80795500  1
  O  O16  1  0.82902500  0.50897100  0.19095100  1
  O  O17  1  0.61124900  0.80203800  0.57947400  1
  O  O18  1  0.47947100  0.78825200  0.89105200  1
  O  O19  1  0.87083000  0.14330500  0.73311800  1
  O  O20  1  0.85630200  0.74433400  0.26779500  1
  O  O21  1  0.99674500  0.38953500  0.41614200  1
  O  O22  1  0.84932100  0.45738000  0.89713700  1
  O  O23  1  0.79187100  0.85082400  0.90061400  1
loop_
_geom_bond_atom_site_label_1
_geom_bond_atom_site_label_2
_geom_bond_distance
_geom_bond_site_symmetry_2
Li0 O4 1.967360 1_555
Li0 O8 1.978314 1_555
Li0 O2 2.080510 1_555
Li1 O3 1.985013 1_555
Li1 O12 1.986114 1_555
Li1 O6 2.080084 1_555
Li1 O14 2.523405 1_555
Li2 O13 1.964993 1_555
Li2 O7 1.994694 1_555
Li2 O23 2.027371 1_455
Li2 O1 2.145402 1_556
Li3 O0 1.953772 1_655
Li3 O10 1.971496 1_555
Li3 O16 1.993482 1_555
Li3 O22 2.193897 1_554
Li4 O11 1.959477 1_555
Li4 O20 1.969261 1_555
Li4 O5 2.018716 1_565
Li4 O23 2.155764 1_554
Li5 O15 1.952792 1_555
Li5 O19 1.970984 1_555
Li5 O22 1.981141 1_555
Li5 O5 2.212145 1_556
O0 P2 1.561968 1_545
O0 Ti1 2.063489 1_554
O1 P5 1.570753 1_455
O1 Ti1 2.039586 1_554
O2 P0 1.537903 1_555
O2 Ti3 2.066838 1_455
O3 P0 1.549972 1_555
O3 Ti0 2.146050 1_555
O4 P2 1.548148 1_555
O4 Ti3 2.124730 1_455
O5 P1 1.568339 1_555
O5 Ti1 2.129729 1_554
O6 P1 1.542897 1_555
O6 Ti0 2.114557 1_555
O7 P0 1.550016 1_555
O7 Ti1 2.061542 1_555
O8 P1 1.551479 1_555
O8 Ti2 2.059656 1_555
O9 P2 1.548516 1_555
O9 Ti0 1.912956 1_565
O10 P1 1.547064 1_555
O10 Ti3 2.120657 1_545
O11 P2 1.546169 1_555
O11 Ti2 2.062436 1_555
O12 P3 1.560028 1_555
O12 Ti1 2.056330 1_555
O13 P4 1.549374 1_555
O13 Ti0 2.117985 1_565
O14 P3 1.526387 1_555
O14 Ti3 2.048664 1_545
O15 P4 1.553039 1_555
O15 Ti1 2.091687 1_555
O16 P5 1.563072 1_555
O16 Ti2 2.100841 1_555
O17 P4 1.547545 1_555
O17 Ti3 1.958813 1_555
O18 P4 1.561957 1_555
O18 Ti2 1.950294 1_556
O19 P3 1.551923 1_555
O19 Ti0 2.084183 1_655
O20 P5 1.559486 1_555
O20 Ti3 2.087988 1_555
O21 P5 1.526816 1_555
O21 Ti0 2.031891 1_655
O22 P0 1.575862 1_655
O22 Ti2 2.149477 1_556
O23 P3 1.573145 1_565
O23 Ti2 2.134643 1_556
