# generated using pymatgen
data_Li6V3P8O29
_symmetry_space_group_name_H-M   'P 1'
_cell_length_a   9.83442332
_cell_length_b   9.83442332
_cell_length_c   14.02305779
_cell_angle_alpha   89.15072988
_cell_angle_beta   89.15072988
_cell_angle_gamma   59.50360822
_symmetry_Int_Tables_number   1
_chemical_formula_structural   Li6V3P8O29
_chemical_formula_sum   'Li12 V6 P16 O58'
_cell_volume   1168.45964319
_cell_formula_units_Z   2
loop_
 _symmetry_equiv_pos_site_id
 _symmetry_equiv_pos_as_xyz
  1  'x, y, z'
loop_
 _atom_site_type_symbol
 _atom_site_label
 _atom_site_symmetry_multiplicity
 _atom_site_fract_x
 _atom_site_fract_y
 _atom_site_fract_z
 _atom_site_occupancy
  Li  Li0  1  0.75936800  0.89815100  0.06341400  1
  Li  Li1  1  0.89815100  0.75936800  0.56341400  1
  Li  Li2  1  0.33395500  0.89693000  0.55694100  1
  Li  Li3  1  0.33334500  0.76530100  0.06070400  1
  Li  Li4  1  0.89693000  0.33395500  0.05694100  1
  Li  Li5  1  0.76530100  0.33334500  0.56070400  1
  Li  Li6  1  0.34727900  0.34010100  0.60764900  1
  Li  Li7  1  0.34010100  0.34727900  0.10764900  1
  Li  Li8  1  0.08977500  0.22989800  0.43639300  1
  Li  Li9  1  0.22989800  0.08977500  0.93639300  1
  Li  Li10  1  0.96673300  0.98124700  0.99622800  1
  Li  Li11  1  0.98124700  0.96673300  0.49622800  1
  V  V0  1  0.43563400  0.56284900  0.25408600  1
  V  V1  1  0.56284900  0.43563400  0.75408600  1
  V  V2  1  0.99910700  0.56794900  0.75204000  1
  V  V3  1  0.99759600  0.43792100  0.24851700  1
  V  V4  1  0.56794900  0.99910700  0.25204000  1
  V  V5  1  0.43792100  0.99759600  0.74851700  1
  P  P0  1  0.77018900  0.91494900  0.84493300  1
  P  P1  1  0.91494900  0.77018900  0.34493300  1
  P  P2  1  0.31210500  0.91233400  0.34045300  1
  P  P3  1  0.66249200  0.66856500  0.12968800  1
  P  P4  1  0.66856500  0.66249200  0.62968800  1
  P  P5  1  0.30907200  0.77401600  0.84653400  1
  P  P6  1  0.21819400  0.69561800  0.66188400  1
  P  P7  1  0.91233400  0.31210500  0.84045300  1
  P  P8  1  0.08794300  0.69530400  0.16008300  1
  P  P9  1  0.77401600  0.30907200  0.34653400  1
  P  P10  1  0.69561800  0.21819400  0.16188400  1
  P  P11  1  0.33300200  0.32936200  0.36836300  1
  P  P12  1  0.32936200  0.33300200  0.86836300  1
  P  P13  1  0.69530400  0.08794300  0.66008300  1
  P  P14  1  0.09365200  0.22913200  0.65688300  1
  P  P15  1  0.22913200  0.09365200  0.15688300  1
  O  O0  1  0.80351400  0.98554200  0.58228700  1
  O  O1  1  0.74551000  0.90956400  0.33212000  1
  O  O2  1  0.98554200  0.80351400  0.08228700  1
  O  O3  1  0.90956400  0.74551000  0.83212000  1
  O  O4  1  0.61278800  0.91795900  0.82932100  1
  O  O5  1  0.66734900  0.81459900  0.16774300  1
  O  O6  1  0.46815800  0.90954400  0.32514600  1
  O  O7  1  0.23691400  0.00224800  0.06935700  1
  O  O8  1  0.33115000  0.91925900  0.83270700  1
  O  O9  1  0.81459900  0.66734900  0.66774300  1
  O  O10  1  0.91795900  0.61278800  0.32932100  1
  O  O11  1  0.51464000  0.81314800  0.66741100  1
  O  O12  1  0.65723000  0.66915600  0.02320800  1
  O  O13  1  0.66915600  0.65723000  0.52320800  1
  O  O14  1  0.51361500  0.66953400  0.17430500  1
  O  O15  1  0.90954400  0.46815800  0.82514600  1
  O  O16  1  0.81314800  0.51464000  0.16741100  1
  O  O17  1  0.33427100  0.74806700  0.33705400  1
  O  O18  1  0.19494500  0.78542600  0.76160200  1
  O  O19  1  0.20421400  0.80530400  0.58196400  1
  O  O20  1  0.22527200  0.79052300  0.93976400  1
  O  O21  1  0.46741500  0.61944900  0.83406200  1
  O  O22  1  0.66953400  0.51361500  0.67430500  1
  O  O23  1  0.25776600  0.66445700  0.15560100  1
  O  O24  1  0.61944900  0.46741500  0.33406200  1
  O  O25  1  0.91925900  0.33115000  0.33270700  1
  O  O26  1  0.01783000  0.78601900  0.26037900  1
  O  O27  1  0.98119500  0.77960500  0.43832000  1
  O  O28  1  0.00224800  0.23691400  0.56935700  1
  O  O29  1  0.07931800  0.66313500  0.65841100  1
  O  O30  1  0.37388800  0.53343500  0.66641600  1
  O  O31  1  0.74806700  0.33427100  0.83705400  1
  O  O32  1  0.33057900  0.47825400  0.32252300  1
  O  O33  1  0.53343500  0.37388800  0.16641600  1
  O  O34  1  0.80530400  0.20421400  0.08196400  1
  O  O35  1  0.79052300  0.22527200  0.43976400  1
  O  O36  1  0.78542600  0.19494500  0.26160200  1
  O  O37  1  0.66445700  0.25776600  0.65560100  1
  O  O38  1  0.18799100  0.48330000  0.82539400  1
  O  O39  1  0.09869900  0.53205800  0.16774300  1
  O  O40  1  0.47825400  0.33057900  0.82252300  1
  O  O41  1  0.33191700  0.32999000  0.97470500  1
  O  O42  1  0.32999000  0.33191700  0.47470500  1
  O  O43  1  0.48330000  0.18799100  0.32539400  1
  O  O44  1  0.10775200  0.37735700  0.67015600  1
  O  O45  1  0.18515000  0.32526200  0.32998000  1
  O  O46  1  0.66313500  0.07931800  0.15841100  1
  O  O47  1  0.78601900  0.01783000  0.76037900  1
  O  O48  1  0.77960500  0.98119500  0.93832000  1
  O  O49  1  0.53205800  0.09869900  0.66774300  1
  O  O50  1  0.32526200  0.18515000  0.82998000  1
  O  O51  1  0.37735700  0.10775200  0.17015600  1
  O  O52  1  0.08366100  0.26311500  0.15410400  1
  O  O53  1  0.00088700  0.22155000  0.93030400  1
  O  O54  1  0.01142900  0.20199100  0.74918500  1
  O  O55  1  0.26311500  0.08366100  0.65410400  1
  O  O56  1  0.22155000  0.00088700  0.43030400  1
  O  O57  1  0.20199100  0.01142900  0.24918500  1
loop_
_geom_bond_atom_site_label_1
_geom_bond_atom_site_label_2
_geom_bond_distance
_geom_bond_site_symmetry_2
Li0 O2 1.947493 1_555
Li0 O48 1.973819 1_554
Li0 O46 2.041132 1_565
Li0 O5 2.077100 1_555
Li1 O0 1.947493 1_555
Li1 O27 1.973819 1_555
Li1 O29 2.041132 1_655
Li1 O9 2.077100 1_555
Li2 O19 1.925454 1_555
Li2 O56 2.068360 1_565
Li2 O55 2.112268 1_565
Li2 O11 2.189503 1_555
Li3 O20 1.959789 1_554
Li3 O23 1.996654 1_555
Li3 O7 2.026354 1_565
Li3 O14 2.216377 1_555
Li4 O34 1.925454 1_555
Li4 O53 2.068360 1_654
Li4 O52 2.112268 1_655
Li4 O16 2.189503 1_555
Li5 O35 1.959789 1_555
Li5 O37 1.996654 1_555
Li5 O28 2.026354 1_655
Li5 O22 2.216377 1_555
Li6 O42 1.881134 1_555
Li6 O30 2.218219 1_555
Li6 O49 2.292566 1_555
Li6 O44 2.350272 1_555
Li7 O41 1.881134 1_554
Li7 O33 2.218219 1_555
Li7 O39 2.292566 1_555
Li7 O51 2.350272 1_555
Li8 O56 1.949139 1_555
Li8 O28 2.029346 1_555
Li8 O25 2.062103 1_455
Li8 O45 2.189965 1_555
Li9 O53 1.949139 1_555
Li9 O7 2.029346 1_556
Li9 O8 2.062103 1_545
Li9 O50 2.189965 1_555
Li10 O48 2.022715 1_555
Li10 O2 2.040023 1_556
Li10 O34 2.293976 1_566
Li10 O20 2.398689 1_655
Li11 O27 2.022715 1_555
Li11 O0 2.040023 1_555
Li11 O19 2.293976 1_655
Li11 O35 2.398689 1_565
O0 P13 1.499070 1_565
O1 P1 1.539834 1_555
O1 V4 1.885165 1_555
O2 P8 1.499070 1_655
O3 P0 1.539834 1_555
O3 V2 1.885165 1_555
O4 P0 1.551868 1_555
O4 V5 1.875954 1_555
O5 P3 1.562920 1_555
O5 V4 1.968368 1_555
O6 P2 1.532898 1_555
O6 V4 1.900172 1_555
O7 P15 1.510117 1_555
O8 P5 1.558952 1_555
O8 V5 1.961438 1_555
O9 P4 1.562920 1_555
O9 V2 1.968368 1_555
O10 P1 1.551868 1_555
O10 V3 1.875954 1_555
O11 P4 1.577848 1_555
O11 V5 1.949319 1_555
O12 P3 1.494661 1_555
O13 P4 1.494661 1_555
O14 P3 1.579258 1_555
O14 V0 1.922761 1_555
O15 P7 1.532898 1_555
O15 V2 1.900172 1_555
O16 P3 1.577848 1_555
O16 V3 1.949319 1_555
O17 P2 1.517922 1_555
O17 V0 1.962334 1_555
O18 P5 1.612032 1_555
O18 P6 1.615517 1_555
O19 P6 1.502238 1_555
O20 P5 1.501104 1_555
O21 P5 1.537344 1_555
O21 V1 1.927008 1_555
O22 P4 1.579258 1_555
O22 V1 1.922761 1_555
O23 P8 1.538984 1_555
O23 V0 2.054813 1_555
O24 P9 1.537344 1_555
O24 V0 1.927008 1_555
O25 P9 1.558952 1_555
O25 V3 1.961438 1_555
O26 P1 1.603951 1_455
O26 P8 1.622822 1_555
O27 P1 1.496032 1_555
O28 P14 1.510117 1_555
O29 P6 1.554026 1_555
O29 V2 1.976044 1_455
O30 P6 1.553577 1_555
O30 V1 2.026928 1_555
O31 P7 1.517922 1_555
O31 V1 1.962334 1_555
O32 P11 1.579556 1_555
O32 V0 1.870798 1_555
O33 P10 1.553577 1_555
O33 V0 2.026928 1_555
O34 P10 1.502238 1_555
O35 P9 1.501104 1_555
O36 P9 1.612032 1_555
O36 P10 1.615517 1_555
O37 P13 1.538984 1_555
O37 V1 2.054813 1_555
O38 P12 1.547079 1_555
O38 V2 1.914005 1_455
O39 P8 1.556598 1_555
O39 V3 1.999624 1_455
O40 P12 1.579556 1_555
O40 V1 1.870798 1_555
O41 P12 1.491426 1_555
O42 P11 1.491426 1_555
O43 P11 1.547079 1_555
O43 V4 1.914005 1_545
O44 P14 1.546852 1_555
O44 V2 1.992016 1_455
O45 P11 1.577630 1_555
O45 V3 1.971146 1_455
O46 P10 1.554026 1_555
O46 V4 1.976044 1_545
O47 P0 1.603951 1_545
O47 P13 1.622822 1_555
O48 P0 1.496032 1_555
O49 P13 1.556598 1_555
O49 V5 1.999624 1_545
O50 P12 1.577630 1_555
O50 V5 1.971146 1_545
O51 P15 1.546852 1_555
O51 V4 1.992016 1_545
O52 P15 1.550956 1_555
O52 V3 1.995503 1_455
O53 P7 1.533351 1_455
O54 P14 1.605695 1_555
O54 P7 1.641167 1_455
O55 P14 1.550956 1_555
O55 V5 1.995503 1_545
O56 P2 1.533351 1_545
O57 P15 1.605695 1_555
O57 P2 1.641167 1_545
