# generated using pymatgen
data_Li4Co3Ni2Sn3O16
_symmetry_space_group_name_H-M   'P 1'
_cell_length_a   5.96144855
_cell_length_b   5.98356673
_cell_length_c   9.64326811
_cell_angle_alpha   89.97242061
_cell_angle_beta   89.65553439
_cell_angle_gamma   120.12657683
_symmetry_Int_Tables_number   1
_chemical_formula_structural   Li4Co3Ni2Sn3O16
_chemical_formula_sum   'Li4 Co3 Ni2 Sn3 O16'
_cell_volume   297.50897038
_cell_formula_units_Z   1
loop_
 _symmetry_equiv_pos_site_id
 _symmetry_equiv_pos_as_xyz
  1  'x, y, z'
loop_
 _atom_site_type_symbol
 _atom_site_label
 _atom_site_symmetry_multiplicity
 _atom_site_fract_x
 _atom_site_fract_y
 _atom_site_fract_z
 _atom_site_occupancy
  Li  Li0  1  0.35776300  0.67893700  0.88515300  1
  Li  Li1  1  0.95001000  0.97510000  0.99229100  1
  Li  Li2  1  0.96411200  0.98202600  0.50282100  1
  Li  Li3  1  0.68493200  0.34252200  0.39896700  1
  Co  Co0  1  0.66412700  0.83206100  0.21507000  1
  Co  Co1  1  0.83547200  0.66411400  0.71415800  1
  Co  Co2  1  0.83551800  0.17146900  0.71418000  1
  Ni  Ni0  1  0.32900800  0.66450600  0.49429400  1
  Ni  Ni1  1  0.66707500  0.33359100  0.98699300  1
  Sn  Sn0  1  0.17248700  0.83386400  0.21419900  1
  Sn  Sn1  1  0.17240300  0.33863800  0.21417900  1
  Sn  Sn2  1  0.34113900  0.17061500  0.71499600  1
  O  O0  1  0.13955400  0.82744300  0.60183700  1
  O  O1  1  0.03802100  0.51878200  0.34447600  1
  O  O2  1  0.35727600  0.67890600  0.09822900  1
  O  O3  1  0.97656200  0.98806900  0.31871700  1
  O  O4  1  0.98040700  0.99014600  0.81034600  1
  O  O5  1  0.13932800  0.31203400  0.60181400  1
  O  O6  1  0.50535100  0.96919100  0.33445000  1
  O  O7  1  0.50525100  0.53589900  0.33441300  1
  O  O8  1  0.31143300  0.15596800  0.08764900  1
  O  O9  1  0.67793500  0.83890000  0.61958300  1
  O  O10  1  0.54457500  0.50220200  0.83445100  1
  O  O11  1  0.54474800  0.04238300  0.83437100  1
  O  O12  1  0.69258000  0.34640000  0.60799300  1
  O  O13  1  0.82170100  0.67882000  0.10615100  1
  O  O14  1  0.96943400  0.48464500  0.82002500  1
  O  O15  1  0.82179800  0.14306900  0.10603200  1
loop_
_geom_bond_atom_site_label_1
_geom_bond_atom_site_label_2
_geom_bond_distance
_geom_bond_site_symmetry_2
Li0 O11 1.941829 1_565
Li0 O10 1.942627 1_555
Li0 O2 2.054733 1_556
Li0 O14 2.102806 1_455
Li1 O4 1.760402 1_555
Li1 O15 1.886661 1_566
Li1 O13 1.886879 1_556
Li1 O8 2.084041 1_666
Li2 O3 1.776061 1_555
Li2 O9 1.849623 1_555
Li2 O0 1.960460 1_655
Li2 O5 1.960827 1_665
Li3 O1 1.891250 1_655
Li3 O12 2.016365 1_555
Li3 O7 2.031066 1_555
Li3 O6 2.032731 1_545
Co0 O3 1.901971 1_555
Co0 O6 1.913614 1_555
Co0 O7 1.913630 1_555
Co0 O13 1.918350 1_555
Co0 O15 1.919001 1_565
Co0 O2 1.948994 1_555
Co1 O10 1.892035 1_555
Co1 O0 1.900374 1_655
Co1 O14 1.924273 1_555
Co1 O4 1.931848 1_555
Co1 O12 1.942822 1_555
Co1 O9 1.950101 1_555
Co2 O11 1.890939 1_555
Co2 O5 1.899523 1_655
Co2 O14 1.923694 1_555
Co2 O4 1.931983 1_545
Co2 O12 1.942950 1_555
Co2 O9 1.951939 1_545
Ni0 O1 2.090393 1_555
Ni0 O5 2.095608 1_555
Ni0 O0 2.096148 1_555
Ni0 O9 2.174402 1_555
Ni0 O6 2.204257 1_555
Ni0 O7 2.205994 1_555
Ni1 O8 2.068591 1_556
Ni1 O10 2.113316 1_555
Ni1 O11 2.115166 1_555
Ni1 O15 2.129579 1_556
Ni1 O13 2.130911 1_556
Ni1 O14 2.233093 1_555
O0 Sn2 2.095760 1_565
O1 Sn1 2.058748 1_555
O1 Sn0 2.060052 1_555
O2 Sn0 2.082166 1_555
O2 Sn1 2.083443 1_555
O3 Sn0 2.073645 1_655
O3 Sn1 2.074821 1_665
O4 Sn2 2.068889 1_665
O5 Sn2 2.095599 1_555
O6 Sn0 2.086541 1_555
O7 Sn1 2.086317 1_555
O8 Sn1 2.066139 1_555
O8 Sn0 2.067127 1_545
O10 Sn2 2.082760 1_555
O11 Sn2 2.082804 1_555
O12 Sn2 2.078788 1_555
O13 Sn0 2.097392 1_655
O15 Sn1 2.097080 1_655
