# generated using pymatgen
data_LiCrP2O7
_symmetry_space_group_name_H-M   'P 1'
_cell_length_a   10.02668000
_cell_length_b   7.04307300
_cell_length_c   8.09974918
_cell_angle_alpha   69.08418371
_cell_angle_beta   90.00000000
_cell_angle_gamma   90.00000000
_symmetry_Int_Tables_number   1
_chemical_formula_structural   LiCrP2O7
_chemical_formula_sum   'Li4 Cr4 P8 O28'
_cell_volume   534.30231894
_cell_formula_units_Z   4
loop_
 _symmetry_equiv_pos_site_id
 _symmetry_equiv_pos_as_xyz
  1  'x, y, z'
loop_
 _atom_site_type_symbol
 _atom_site_label
 _atom_site_symmetry_multiplicity
 _atom_site_fract_x
 _atom_site_fract_y
 _atom_site_fract_z
 _atom_site_occupancy
  Li  Li0  1  0.83809900  0.60239900  0.95013400  1
  Li  Li1  1  0.66190100  0.60239900  0.45013400  1
  Li  Li2  1  0.33809900  0.39760100  0.54986600  1
  Li  Li3  1  0.16190100  0.39760100  0.04986600  1
  Cr  Cr0  1  0.39203100  0.73093200  0.74357300  1
  Cr  Cr1  1  0.10796900  0.73093200  0.24357300  1
  Cr  Cr2  1  0.89203100  0.26906800  0.75642700  1
  Cr  Cr3  1  0.60796900  0.26906800  0.25642700  1
  P  P0  1  0.14614100  0.96861600  0.79574000  1
  P  P1  1  0.35385900  0.96861600  0.29574000  1
  P  P2  1  0.09098900  0.63878300  0.68167800  1
  P  P3  1  0.40901100  0.63878300  0.18167800  1
  P  P4  1  0.59098900  0.36121700  0.81832200  1
  P  P5  1  0.90901100  0.36121700  0.31832200  1
  P  P6  1  0.64614100  0.03138400  0.70426000  1
  P  P7  1  0.85385900  0.03138400  0.20426000  1
  O  O0  1  0.29402100  0.98860400  0.74024000  1
  O  O1  1  0.11958300  0.82045600  0.98181600  1
  O  O2  1  0.58194200  0.82419900  0.74575700  1
  O  O3  1  0.07164200  0.87156900  0.66381800  1
  O  O4  1  0.20597900  0.98860400  0.24024000  1
  O  O5  1  0.38041700  0.82045600  0.48181600  1
  O  O6  1  0.39521900  0.62321200  0.00296000  1
  O  O7  1  0.91805800  0.82419900  0.24575700  1
  O  O8  1  0.42835800  0.87156900  0.16381800  1
  O  O9  1  0.21857900  0.56140200  0.79275000  1
  O  O10  1  0.10478100  0.62321200  0.50296000  1
  O  O11  1  0.46909500  0.47473500  0.71267900  1
  O  O12  1  0.96909500  0.52526500  0.78732100  1
  O  O13  1  0.28142100  0.56140200  0.29275000  1
  O  O14  1  0.71857900  0.43859800  0.70725000  1
  O  O15  1  0.03090500  0.47473500  0.21267900  1
  O  O16  1  0.53090500  0.52526500  0.28732100  1
  O  O17  1  0.89521900  0.37678800  0.49704000  1
  O  O18  1  0.78142100  0.43859800  0.20725000  1
  O  O19  1  0.57164200  0.12843100  0.83618200  1
  O  O20  1  0.08194200  0.17580100  0.75424300  1
  O  O21  1  0.60478100  0.37678800  0.99704000  1
  O  O22  1  0.61958300  0.17954400  0.51818400  1
  O  O23  1  0.79402100  0.01139600  0.75976000  1
  O  O24  1  0.92835800  0.12843100  0.33618200  1
  O  O25  1  0.41805800  0.17580100  0.25424300  1
  O  O26  1  0.88041700  0.17954400  0.01818400  1
  O  O27  1  0.70597900  0.01139600  0.25976000  1
loop_
_geom_bond_atom_site_label_1
_geom_bond_atom_site_label_2
_geom_bond_distance
_geom_bond_site_symmetry_2
Li0 O12 2.066616 1_555
Li0 O18 2.067748 1_556
Li1 O16 2.066616 1_555
Li1 O14 2.067748 1_555
Li2 O11 2.066616 1_555
Li2 O13 2.067748 1_555
Li3 O15 2.066616 1_555
Li3 O9 2.067748 1_554
Cr0 O6 1.962808 1_556
Cr0 O5 1.987901 1_555
Cr0 O2 2.016432 1_555
Cr0 O0 2.055477 1_555
Cr0 O11 2.058633 1_555
Cr0 O9 2.066249 1_555
Cr1 O10 1.962808 1_555
Cr1 O1 1.987901 1_554
Cr1 O7 2.016432 1_455
Cr1 O4 2.055477 1_555
Cr1 O15 2.058633 1_555
Cr1 O13 2.066249 1_555
Cr2 O17 1.962808 1_555
Cr2 O26 1.987901 1_556
Cr2 O20 2.016432 1_655
Cr2 O23 2.055477 1_555
Cr2 O12 2.058633 1_555
Cr2 O14 2.066249 1_555
Cr3 O21 1.962808 1_554
Cr3 O22 1.987901 1_555
Cr3 O25 2.016432 1_555
Cr3 O27 2.055477 1_555
Cr3 O16 2.058633 1_555
Cr3 O18 2.066249 1_555
O0 P0 1.541185 1_555
O1 P0 1.519357 1_555
O2 P6 1.518703 1_565
O3 P2 1.605388 1_555
O3 P0 1.639632 1_555
O4 P1 1.541185 1_555
O5 P1 1.519357 1_555
O6 P3 1.496650 1_555
O7 P7 1.518703 1_565
O8 P3 1.605388 1_555
O8 P1 1.639632 1_555
O9 P2 1.546915 1_555
O10 P2 1.496650 1_555
O11 P4 1.541657 1_555
O12 P2 1.541657 1_655
O13 P3 1.546915 1_555
O14 P4 1.546915 1_555
O15 P5 1.541657 1_455
O16 P3 1.541657 1_555
O17 P5 1.496650 1_555
O18 P5 1.546915 1_555
O19 P4 1.605388 1_555
O19 P6 1.639632 1_555
O20 P0 1.518703 1_545
O21 P4 1.496650 1_555
O22 P6 1.519357 1_555
O23 P6 1.541185 1_555
O24 P5 1.605388 1_555
O24 P7 1.639632 1_555
O25 P1 1.518703 1_545
O26 P7 1.519357 1_555
O27 P7 1.541185 1_555
