# generated using pymatgen
data_Li4Mn(BO3)2
_symmetry_space_group_name_H-M   'P 1'
_cell_length_a   6.74571400
_cell_length_b   9.33399700
_cell_length_c   8.65438905
_cell_angle_alpha   89.99894463
_cell_angle_beta   112.93739933
_cell_angle_gamma   90.00000000
_symmetry_Int_Tables_number   1
_chemical_formula_structural   Li4Mn(BO3)2
_chemical_formula_sum   'Li16 Mn4 B8 O24'
_cell_volume   501.83296719
_cell_formula_units_Z   4
loop_
 _symmetry_equiv_pos_site_id
 _symmetry_equiv_pos_as_xyz
  1  'x, y, z'
loop_
 _atom_site_type_symbol
 _atom_site_label
 _atom_site_symmetry_multiplicity
 _atom_site_fract_x
 _atom_site_fract_y
 _atom_site_fract_z
 _atom_site_occupancy
  Li  Li0  1  0.33653400  0.05375600  0.17304500  1
  Li  Li1  1  0.83645600  0.05375100  0.17301000  1
  Li  Li2  1  0.33647900  0.44629300  0.67307800  1
  Li  Li3  1  0.83645100  0.44627800  0.67297400  1
  Li  Li4  1  0.16351300  0.55377100  0.32705200  1
  Li  Li5  1  0.66347200  0.55375500  0.32693300  1
  Li  Li6  1  0.66348800  0.94627900  0.82697600  1
  Li  Li7  1  0.16355900  0.94627200  0.82700600  1
  Li  Li8  1  0.00440900  0.20067000  0.00898100  1
  Li  Li9  1  0.50441900  0.20071900  0.00897700  1
  Li  Li10  1  0.50443600  0.29928000  0.50896700  1
  Li  Li11  1  0.00441300  0.29929000  0.50898000  1
  Li  Li12  1  0.49553500  0.70071700  0.49100200  1
  Li  Li13  1  0.99555800  0.70071200  0.49100800  1
  Li  Li14  1  0.49553100  0.79926000  0.99102000  1
  Li  Li15  1  0.99554500  0.79931200  0.99099600  1
  Mn  Mn0  1  0.25017400  0.99999300  0.50001800  1
  Mn  Mn1  1  0.75000400  0.49998600  0.99998400  1
  Mn  Mn2  1  0.75020500  0.99989700  0.50007200  1
  Mn  Mn3  1  0.24996000  0.49988600  0.00011300  1
  B  B0  1  0.63484800  0.20267700  0.76974000  1
  B  B1  1  0.13483700  0.20267400  0.76974200  1
  B  B2  1  0.13480600  0.29732100  0.26976000  1
  B  B3  1  0.63483500  0.29733800  0.26974600  1
  B  B4  1  0.36514800  0.70266300  0.73025500  1
  B  B5  1  0.86515600  0.70267500  0.73024300  1
  B  B6  1  0.36515800  0.79735000  0.23024200  1
  B  B7  1  0.86518900  0.79733900  0.23022900  1
  O  O0  1  0.56221700  0.11530800  0.62420800  1
  O  O1  1  0.06220300  0.11531600  0.62420400  1
  O  O2  1  0.06205700  0.38465000  0.12421300  1
  O  O3  1  0.56208100  0.38468900  0.12420100  1
  O  O4  1  0.43782300  0.61529200  0.87578500  1
  O  O5  1  0.93785800  0.61533100  0.87578000  1
  O  O6  1  0.43797500  0.88468800  0.37579200  1
  O  O7  1  0.93798400  0.88467800  0.37577600  1
  O  O8  1  0.12634200  0.14878600  0.25279500  1
  O  O9  1  0.62636300  0.14881800  0.25277200  1
  O  O10  1  0.62631100  0.35119600  0.75273900  1
  O  O11  1  0.12627500  0.35119500  0.75275700  1
  O  O12  1  0.37359300  0.64882400  0.24721400  1
  O  O13  1  0.87364900  0.64881400  0.24720900  1
  O  O14  1  0.37367300  0.85117900  0.74724700  1
  O  O15  1  0.87367600  0.85120700  0.74721600  1
  O  O16  1  0.71207900  0.13834000  0.92435200  1
  O  O17  1  0.21210700  0.13833800  0.92435800  1
  O  O18  1  0.21210800  0.36166700  0.42437500  1
  O  O19  1  0.71211500  0.36169400  0.42435100  1
  O  O20  1  0.28786500  0.63833600  0.57563700  1
  O  O21  1  0.78784500  0.63835200  0.57561800  1
  O  O22  1  0.28784400  0.86170300  0.07563600  1
  O  O23  1  0.78783900  0.86168400  0.07561500  1
loop_
_geom_bond_atom_site_label_1
_geom_bond_atom_site_label_2
_geom_bond_distance
_geom_bond_site_symmetry_2
Li0 O22 1.953531 1_545
Li0 O9 2.008575 1_555
Li0 O8 2.009073 1_555
Li0 O17 2.133492 1_554
Li0 O6 2.258630 1_545
Li1 O23 1.953607 1_545
Li1 O9 2.008729 1_555
Li1 O8 2.008769 1_655
Li1 O16 2.133302 1_554
Li1 O7 2.258771 1_545
Li2 O20 1.953518 1_555
Li2 O10 2.008746 1_555
Li2 O11 2.009030 1_555
Li2 O18 2.133792 1_555
Li2 O4 2.257997 1_555
Li3 O21 1.953515 1_555
Li3 O11 2.008605 1_655
Li3 O10 2.009062 1_555
Li3 O19 2.133055 1_555
Li3 O5 2.258914 1_555
Li4 O18 1.953667 1_555
Li4 O13 2.008648 1_455
Li4 O12 2.008994 1_555
Li4 O20 2.132708 1_555
Li4 O2 2.259546 1_555
Li5 O19 1.953600 1_555
Li5 O12 2.008879 1_555
Li5 O13 2.008957 1_555
Li5 O21 2.133559 1_555
Li5 O3 2.258577 1_555
Li6 O16 1.953495 1_565
Li6 O14 2.008652 1_555
Li6 O15 2.009277 1_555
Li6 O23 2.133182 1_556
Li6 O0 2.258496 1_565
Li7 O17 1.953462 1_565
Li7 O15 2.008874 1_455
Li7 O14 2.008939 1_555
Li7 O22 2.133025 1_556
Li7 O1 2.258787 1_565
Li8 O17 1.907263 1_554
Li8 O16 1.907314 1_454
Li8 O2 1.947448 1_555
Li8 O8 2.002649 1_555
Li9 O16 1.907182 1_554
Li9 O17 1.907353 1_554
Li9 O3 1.947335 1_555
Li9 O9 2.002541 1_555
Li10 O19 1.907335 1_555
Li10 O18 1.907462 1_555
Li10 O0 1.947384 1_555
Li10 O10 2.002415 1_555
Li11 O18 1.907261 1_555
Li11 O19 1.907325 1_455
Li11 O1 1.947336 1_555
Li11 O11 2.002429 1_555
Li12 O21 1.907288 1_555
Li12 O20 1.907297 1_555
Li12 O6 1.947259 1_555
Li12 O12 2.002487 1_555
Li13 O20 1.907299 1_655
Li13 O21 1.907349 1_555
Li13 O7 1.947300 1_555
Li13 O13 2.002583 1_555
Li14 O23 1.907456 1_556
Li14 O22 1.907473 1_556
Li14 O4 1.947360 1_555
Li14 O14 2.002411 1_555
Li15 O22 1.907301 1_656
Li15 O23 1.907402 1_556
Li15 O5 1.947396 1_555
Li15 O15 2.002411 1_555
Mn0 O6 2.231755 1_555
Mn0 O0 2.231850 1_565
Mn0 O1 2.232459 1_565
Mn0 O7 2.232651 1_455
Mn0 O8 2.410642 1_565
Mn0 O14 2.410793 1_555
Mn1 O2 2.232015 1_656
Mn1 O5 2.232052 1_555
Mn1 O3 2.232267 1_556
Mn1 O4 2.232503 1_555
Mn1 O10 2.410814 1_555
Mn1 O13 2.410888 1_556
Mn2 O7 2.231682 1_555
Mn2 O1 2.232032 1_665
Mn2 O6 2.232416 1_555
Mn2 O0 2.232638 1_565
Mn2 O15 2.409573 1_555
Mn2 O9 2.411831 1_565
Mn3 O2 2.231179 1_555
Mn3 O3 2.231598 1_555
Mn3 O5 2.232859 1_454
Mn3 O4 2.233127 1_554
Mn3 O12 2.410672 1_555
Mn3 O11 2.411005 1_554
B0 O16 1.370800 1_555
B0 O10 1.392880 1_555
B0 O0 1.417907 1_555
B1 O17 1.370824 1_555
B1 O11 1.392886 1_555
B1 O1 1.417887 1_555
B2 O18 1.370880 1_555
B2 O8 1.393006 1_555
B2 O2 1.417763 1_555
B3 O19 1.370849 1_555
B3 O9 1.392873 1_555
B3 O3 1.417868 1_555
B4 O20 1.370824 1_555
B4 O14 1.392850 1_555
B4 O4 1.417878 1_555
B5 O21 1.370857 1_555
B5 O15 1.392984 1_555
B5 O5 1.417778 1_555
B6 O22 1.370822 1_555
B6 O12 1.392922 1_555
B6 O6 1.417858 1_555
B7 O23 1.370847 1_555
B7 O13 1.392919 1_555
B7 O7 1.417843 1_555
