# generated using pymatgen
data_V3Ni(PO4)6
_symmetry_space_group_name_H-M   'P 1'
_cell_length_a   8.76018424
_cell_length_b   8.76018424
_cell_length_c   8.76018419
_cell_angle_alpha   58.48845909
_cell_angle_beta   58.48845909
_cell_angle_gamma   58.48845454
_symmetry_Int_Tables_number   1
_chemical_formula_structural   V3Ni(PO4)6
_chemical_formula_sum   'V3 Ni1 P6 O24'
_cell_volume   458.92422239
_cell_formula_units_Z   1
loop_
 _symmetry_equiv_pos_site_id
 _symmetry_equiv_pos_as_xyz
  1  'x, y, z'
loop_
 _atom_site_type_symbol
 _atom_site_label
 _atom_site_symmetry_multiplicity
 _atom_site_fract_x
 _atom_site_fract_y
 _atom_site_fract_z
 _atom_site_occupancy
  V  V0  1  0.86059900  0.86059900  0.86059900  1
  V  V1  1  0.64105000  0.64105000  0.64105000  1
  V  V2  1  0.36084100  0.36084100  0.36084100  1
  Ni  Ni0  1  0.14180600  0.14180600  0.14180600  1
  P  P0  1  0.96782700  0.25033500  0.53098600  1
  P  P1  1  0.53098600  0.96782700  0.25033500  1
  P  P2  1  0.25033500  0.53098600  0.96782700  1
  P  P3  1  0.75077700  0.46782300  0.03242300  1
  P  P4  1  0.46782300  0.03242300  0.75077700  1
  P  P5  1  0.03242300  0.75077700  0.46782300  1
  O  O0  1  0.86191000  0.70833900  0.50678000  1
  O  O1  1  0.70833900  0.50678000  0.86191000  1
  O  O2  1  0.94172400  0.07070300  0.71468400  1
  O  O3  1  0.50678000  0.86191000  0.70833900  1
  O  O4  1  0.78356500  0.42229200  0.57646500  1
  O  O5  1  0.97622400  0.23805500  0.36199000  1
  O  O6  1  0.71468400  0.94172400  0.07070300  1
  O  O7  1  0.57646500  0.78356500  0.42229200  1
  O  O8  1  0.42229200  0.57646500  0.78356500  1
  O  O9  1  0.77620600  0.64420000  0.00471500  1
  O  O10  1  0.91973000  0.28739400  0.04967700  1
  O  O11  1  0.64420000  0.00471500  0.77620600  1
  O  O12  1  0.36199000  0.97622400  0.23805500  1
  O  O13  1  0.07070300  0.71468400  0.94172400  1
  O  O14  1  0.23805500  0.36199000  0.97622400  1
  O  O15  1  0.56873400  0.44386300  0.21484300  1
  O  O16  1  0.44386300  0.21484300  0.56873400  1
  O  O17  1  0.28739400  0.04967700  0.91973000  1
  O  O18  1  0.00471500  0.77620600  0.64420000  1
  O  O19  1  0.21484300  0.56873400  0.44386300  1
  O  O20  1  0.50428900  0.14340900  0.27574000  1
  O  O21  1  0.04967700  0.91973000  0.28739400  1
  O  O22  1  0.27574000  0.50428900  0.14340900  1
  O  O23  1  0.14340900  0.27574000  0.50428900  1
loop_
_geom_bond_atom_site_label_1
_geom_bond_atom_site_label_2
_geom_bond_distance
_geom_bond_site_symmetry_2
Ni0 O12 2.008058 1_545
Ni0 O5 2.008058 1_455
Ni0 O14 2.008059 1_554
Ni0 O10 2.008550 1_455
Ni0 O17 2.008550 1_554
Ni0 O21 2.008550 1_545
O0 P5 1.549477 1_655
O0 V1 1.887544 1_555
O1 P3 1.549477 1_556
O1 V1 1.887544 1_555
O2 P0 1.569243 1_555
O2 V0 1.866808 1_545
O3 P4 1.549477 1_565
O3 V1 1.887544 1_555
O4 P0 1.564209 1_555
O4 V1 1.856133 1_555
O5 P0 1.501014 1_555
O6 P1 1.569243 1_555
O6 V0 1.866808 1_554
O7 P1 1.564209 1_555
O7 V1 1.856134 1_555
O8 P2 1.564209 1_555
O8 V1 1.856134 1_555
O9 P3 1.551480 1_555
O9 V0 1.929157 1_554
O10 P3 1.500123 1_555
O11 P4 1.551480 1_555
O11 V0 1.929157 1_545
O12 P1 1.501014 1_555
O13 P2 1.569243 1_555
O13 V0 1.866808 1_455
O14 P2 1.501014 1_555
O15 P3 1.573603 1_555
O15 V2 1.859783 1_555
O16 P4 1.573603 1_555
O16 V2 1.859782 1_555
O17 P4 1.500123 1_555
O18 P5 1.551480 1_555
O18 V0 1.929157 1_455
O19 P5 1.573603 1_555
O19 V2 1.859782 1_555
O20 P1 1.548375 1_545
O20 V2 1.940601 1_555
O21 P5 1.500123 1_555
O22 P2 1.548375 1_554
O22 V2 1.940601 1_555
O23 P0 1.548375 1_455
O23 V2 1.940601 1_555
