# generated using pymatgen
data_CoP2H17N4O9
_symmetry_space_group_name_H-M   'P 1'
_cell_length_a   14.28027200
_cell_length_b   7.63771600
_cell_length_c   11.54677851
_cell_angle_alpha   87.70465776
_cell_angle_beta   90.00000000
_cell_angle_gamma   90.00000000
_symmetry_Int_Tables_number   1
_chemical_formula_structural   CoP2H17N4O9
_chemical_formula_sum   'Co4 P8 H68 N16 O36'
_cell_volume   1258.38121408
_cell_formula_units_Z   4
loop_
 _symmetry_equiv_pos_site_id
 _symmetry_equiv_pos_as_xyz
  1  'x, y, z'
loop_
 _atom_site_type_symbol
 _atom_site_label
 _atom_site_symmetry_multiplicity
 _atom_site_fract_x
 _atom_site_fract_y
 _atom_site_fract_z
 _atom_site_occupancy
  Co  Co0  1  0.95981100  0.90293000  0.72151000  1
  Co  Co1  1  0.45981100  0.09707000  0.77849000  1
  Co  Co2  1  0.04018900  0.09707000  0.27849000  1
  Co  Co3  1  0.54018900  0.90293000  0.22151000  1
  P  P0  1  0.81414100  0.16123200  0.60053400  1
  P  P1  1  0.31414100  0.83876800  0.89946600  1
  P  P2  1  0.18585900  0.83876800  0.39946600  1
  P  P3  1  0.68585900  0.16123200  0.10053400  1
  P  P4  1  0.91532100  0.28089900  0.80945000  1
  P  P5  1  0.41532100  0.71910100  0.69055000  1
  P  P6  1  0.08467900  0.71910100  0.19055000  1
  P  P7  1  0.58467900  0.28089900  0.30945000  1
  H  H0  1  0.99048200  0.80169200  0.93578700  1
  H  H1  1  0.49048200  0.19830800  0.56421300  1
  H  H2  1  0.00951800  0.19830800  0.06421300  1
  H  H3  1  0.50951800  0.80169200  0.43578700  1
  H  H4  1  0.09557700  0.80301700  0.87284900  1
  H  H5  1  0.59557700  0.19698300  0.62715100  1
  H  H6  1  0.90442300  0.19698300  0.12715100  1
  H  H7  1  0.40442300  0.80301700  0.37284900  1
  H  H8  1  0.02249300  0.63442300  0.85709700  1
  H  H9  1  0.52249300  0.36557700  0.64290300  1
  H  H10  1  0.97750700  0.36557700  0.14290300  1
  H  H11  1  0.47750700  0.63442300  0.35709700  1
  H  H12  1  0.00065900  0.58023700  0.66637300  1
  H  H13  1  0.50065900  0.41976300  0.83362700  1
  H  H14  1  0.99934100  0.41976300  0.33362700  1
  H  H15  1  0.49934100  0.58023700  0.16637300  1
  H  H16  1  0.94024900  0.68105400  0.55947400  1
  H  H17  1  0.44024900  0.31894600  0.94052600  1
  H  H18  1  0.05975100  0.31894600  0.44052600  1
  H  H19  1  0.55975100  0.68105400  0.05947400  1
  H  H20  1  0.05678900  0.71526800  0.57413100  1
  H  H21  1  0.55678900  0.28473200  0.92586900  1
  H  H22  1  0.94321100  0.28473200  0.42586900  1
  H  H23  1  0.44321100  0.71526800  0.07413100  1
  H  H24  1  0.08869500  0.03205300  0.58485900  1
  H  H25  1  0.58869500  0.96794700  0.91514100  1
  H  H26  1  0.91130500  0.96794700  0.41514100  1
  H  H27  1  0.41130500  0.03205300  0.08485900  1
  H  H28  1  0.14207800  0.97998100  0.70936800  1
  H  H29  1  0.64207800  0.02001900  0.79063200  1
  H  H30  1  0.85792200  0.02001900  0.29063200  1
  H  H31  1  0.35792200  0.97998100  0.20936800  1
  H  H32  1  0.08099500  0.16533400  0.69376300  1
  H  H33  1  0.58099500  0.83466600  0.80623700  1
  H  H34  1  0.91900500  0.83466600  0.30623700  1
  H  H35  1  0.41900500  0.16533400  0.19376300  1
  H  H36  1  0.83083800  0.75023400  0.85760600  1
  H  H37  1  0.33083800  0.24976600  0.64239400  1
  H  H38  1  0.16916200  0.24976600  0.14239400  1
  H  H39  1  0.66916200  0.75023400  0.35760600  1
  H  H40  1  0.78270200  0.84019900  0.73776200  1
  H  H41  1  0.28270200  0.15980100  0.76223800  1
  H  H42  1  0.21729800  0.15980100  0.26223800  1
  H  H43  1  0.71729800  0.84019900  0.23776200  1
  H  H44  1  0.83216900  0.64333600  0.73593300  1
  H  H45  1  0.33216900  0.35666400  0.76406700  1
  H  H46  1  0.16783100  0.35666400  0.26406700  1
  H  H47  1  0.66783100  0.64333600  0.23593300  1
  H  H48  1  0.89021100  0.70370300  0.10056100  1
  H  H49  1  0.39021100  0.29629700  0.39943900  1
  H  H50  1  0.10978900  0.29629700  0.89943900  1
  H  H51  1  0.60978900  0.70370300  0.60056100  1
  H  H52  1  0.82969700  0.87545400  0.07826700  1
  H  H53  1  0.32969700  0.12454600  0.42173300  1
  H  H54  1  0.17030300  0.12454600  0.92173300  1
  H  H55  1  0.67030300  0.87545400  0.57826700  1
  H  H56  1  0.82640400  0.50827600  0.46959000  1
  H  H57  1  0.32640400  0.49172400  0.03041000  1
  H  H58  1  0.17359600  0.49172400  0.53041000  1
  H  H59  1  0.67359600  0.50827600  0.96959000  1
  H  H60  1  0.77079800  0.67465500  0.50025800  1
  H  H61  1  0.27079800  0.32534500  0.99974200  1
  H  H62  1  0.22920200  0.32534500  0.49974200  1
  H  H63  1  0.72920200  0.67465500  0.00025800  1
  H  H64  1  0.79478700  0.31599600  0.93326000  1
  H  H65  1  0.29478700  0.68400400  0.56674000  1
  H  H66  1  0.20521300  0.68400400  0.06674000  1
  H  H67  1  0.70521300  0.31599600  0.43326000  1
  N  N0  1  0.02629500  0.76876100  0.86311200  1
  N  N1  1  0.52629500  0.23123900  0.63688800  1
  N  N2  1  0.97370500  0.23123900  0.13688800  1
  N  N3  1  0.47370500  0.76876100  0.36311200  1
  N  N4  1  0.99475700  0.69551600  0.61767300  1
  N  N5  1  0.49475700  0.30448400  0.88232700  1
  N  N6  1  0.00524300  0.30448400  0.38232700  1
  N  N7  1  0.50524300  0.69551600  0.11767300  1
  N  N8  1  0.08300200  0.03595700  0.67326700  1
  N  N9  1  0.58300200  0.96404300  0.82673300  1
  N  N10  1  0.91699800  0.96404300  0.32673300  1
  N  N11  1  0.41699800  0.03595700  0.17326700  1
  N  N12  1  0.83703200  0.76478700  0.76948300  1
  N  N13  1  0.33703200  0.23521300  0.73051700  1
  N  N14  1  0.16296800  0.23521300  0.23051700  1
  N  N15  1  0.66296800  0.76478700  0.26948300  1
  O  O0  1  0.89558100  0.02536000  0.59180400  1
  O  O1  1  0.39558100  0.97464000  0.90819600  1
  O  O2  1  0.10441900  0.97464000  0.40819600  1
  O  O3  1  0.60441900  0.02536000  0.09180400  1
  O  O4  1  0.80276800  0.26485700  0.48599300  1
  O  O5  1  0.30276800  0.73514300  0.01400700  1
  O  O6  1  0.19723200  0.73514300  0.51400700  1
  O  O7  1  0.69723200  0.26485700  0.98599300  1
  O  O8  1  0.72545200  0.07698700  0.64987200  1
  O  O9  1  0.22545200  0.92301300  0.85012800  1
  O  O10  1  0.27454800  0.92301300  0.35012800  1
  O  O11  1  0.77454800  0.07698700  0.14987200  1
  O  O12  1  0.85367000  0.30674600  0.69063500  1
  O  O13  1  0.35367000  0.69325400  0.80936500  1
  O  O14  1  0.14633000  0.69325400  0.30936500  1
  O  O15  1  0.64633000  0.30674600  0.19063500  1
  O  O16  1  0.92343100  0.08396400  0.83765300  1
  O  O17  1  0.42343100  0.91603600  0.66234700  1
  O  O18  1  0.07656900  0.91603600  0.16234700  1
  O  O19  1  0.57656900  0.08396400  0.33765300  1
  O  O20  1  0.00577900  0.38083000  0.79329100  1
  O  O21  1  0.50577900  0.61917000  0.70670900  1
  O  O22  1  0.99422100  0.61917000  0.20670900  1
  O  O23  1  0.49422100  0.38083000  0.29329100  1
  O  O24  1  0.85580900  0.37340300  0.90373200  1
  O  O25  1  0.35580900  0.62659700  0.59626800  1
  O  O26  1  0.14419100  0.62659700  0.09626800  1
  O  O27  1  0.64419100  0.37340300  0.40373200  1
  O  O28  1  0.84713500  0.76320700  0.04464500  1
  O  O29  1  0.34713500  0.23679300  0.45535500  1
  O  O30  1  0.15286500  0.23679300  0.95535500  1
  O  O31  1  0.65286500  0.76320700  0.54464500  1
  O  O32  1  0.83232900  0.63717300  0.47086500  1
  O  O33  1  0.33232900  0.36282700  0.02913500  1
  O  O34  1  0.16767100  0.36282700  0.52913500  1
  O  O35  1  0.66767100  0.63717300  0.97086500  1
loop_
_geom_bond_atom_site_label_1
_geom_bond_atom_site_label_2
_geom_bond_distance
_geom_bond_site_symmetry_2
Co0 O0 1.961267 1_565
Co0 O16 2.031930 1_565
Co0 N4 2.085266 1_555
Co0 N8 2.095724 1_665
Co0 N12 2.108881 1_555
Co0 N0 2.119115 1_655
Co1 O1 1.961267 1_545
Co1 O17 2.031930 1_545
Co1 N5 2.085266 1_555
Co1 N9 2.095724 1_545
Co1 N13 2.108881 1_555
Co1 N1 2.119115 1_555
Co2 O2 1.961267 1_545
Co2 O18 2.031930 1_545
Co2 N6 2.085266 1_555
Co2 N10 2.095724 1_445
Co2 N14 2.108881 1_555
Co2 N2 2.119115 1_455
Co3 O3 1.961267 1_565
Co3 O19 2.031930 1_565
Co3 N7 2.085266 1_555
Co3 N11 2.095724 1_565
Co3 N15 2.108881 1_555
Co3 N3 2.119115 1_555
H0 N0 1.022698 1_655
H1 N1 1.022698 1_555
H2 N2 1.022698 1_455
H3 N3 1.022698 1_555
H4 N0 1.030677 1_555
H5 N1 1.030677 1_555
H6 N2 1.030677 1_555
H7 N3 1.030677 1_555
H8 N0 1.032583 1_555
H9 N1 1.032583 1_555
H10 N2 1.032583 1_555
H11 N3 1.032583 1_555
H12 N4 1.029020 1_455
H13 N5 1.029020 1_555
H14 N6 1.029020 1_655
H15 N7 1.029020 1_555
H16 N4 1.037128 1_555
H17 N5 1.037128 1_555
H18 N6 1.037128 1_555
H19 N7 1.037128 1_555
H20 N4 1.026724 1_455
H21 N5 1.026724 1_555
H22 N6 1.026724 1_655
H23 N7 1.026724 1_555
H24 N8 1.025683 1_555
H25 N9 1.025683 1_555
H26 N10 1.025683 1_555
H27 N11 1.025683 1_555
H28 N8 1.026629 1_565
H29 N9 1.026629 1_545
H30 N10 1.026629 1_545
H31 N11 1.026629 1_565
H32 N8 1.025667 1_555
H33 N9 1.025667 1_555
H34 N10 1.025667 1_555
H35 N11 1.025667 1_555
H36 N12 1.022986 1_555
H37 N13 1.022986 1_555
H38 N14 1.022986 1_555
H39 N15 1.022986 1_555
H40 N12 1.025156 1_555
H41 N13 1.025156 1_555
H42 N14 1.025156 1_555
H43 N15 1.025156 1_555
H44 N12 1.021831 1_555
H45 N13 1.021831 1_555
H46 N14 1.021831 1_555
H47 N15 1.021831 1_555
H48 O28 0.989091 1_555
H49 O29 0.989091 1_555
H50 O30 0.989091 1_555
H51 O31 0.989091 1_555
H52 O28 0.987103 1_555
H53 O29 0.987103 1_555
H54 O30 0.987103 1_555
H55 O31 0.987103 1_555
H56 O32 0.988805 1_555
H57 O33 0.988805 1_555
H58 O34 0.988805 1_555
H59 O35 0.988805 1_555
H60 O32 0.988435 1_555
H61 O33 0.988435 1_556
H62 O34 0.988435 1_555
H63 O35 0.988435 1_554
H64 O24 1.027559 1_555
H64 O7 1.563657 1_555
H65 O25 1.027559 1_555
H65 O6 1.563657 1_555
H66 O26 1.027559 1_555
H66 O5 1.563657 1_555
H67 O27 1.027559 1_555
H67 O4 1.563657 1_555
O0 P0 1.564610 1_555
O1 P1 1.564610 1_555
O2 P2 1.564610 1_555
O3 P3 1.564610 1_555
O4 P0 1.522548 1_555
O5 P1 1.522548 1_554
O6 P2 1.522548 1_555
O7 P3 1.522548 1_556
O8 P0 1.520932 1_555
O9 P1 1.520932 1_555
O10 P2 1.520932 1_555
O11 P3 1.520932 1_555
O12 P4 1.635409 1_555
O12 P0 1.651921 1_555
O13 P5 1.635409 1_555
O13 P1 1.651921 1_555
O14 P6 1.635409 1_555
O14 P2 1.651921 1_555
O15 P7 1.635409 1_555
O15 P3 1.651921 1_555
O16 P4 1.530570 1_555
O17 P5 1.530570 1_555
O18 P6 1.530570 1_555
O19 P7 1.530570 1_555
O20 P4 1.508179 1_455
O21 P5 1.508179 1_555
O22 P6 1.508179 1_655
O23 P7 1.508179 1_555
O24 P4 1.571046 1_555
O25 P5 1.571046 1_555
O26 P6 1.571046 1_555
O27 P7 1.571046 1_555
