# generated using pymatgen
data_LiCr2(SO4)3
_symmetry_space_group_name_H-M   'P 1'
_cell_length_a   8.74596300
_cell_length_b   8.42075600
_cell_length_c   14.94388685
_cell_angle_alpha   56.23482186
_cell_angle_beta   90.00000000
_cell_angle_gamma   90.00000000
_symmetry_Int_Tables_number   1
_chemical_formula_structural   LiCr2(SO4)3
_chemical_formula_sum   'Li4 Cr8 S12 O48'
_cell_volume   914.93823408
_cell_formula_units_Z   4
loop_
 _symmetry_equiv_pos_site_id
 _symmetry_equiv_pos_as_xyz
  1  'x, y, z'
loop_
 _atom_site_type_symbol
 _atom_site_label
 _atom_site_symmetry_multiplicity
 _atom_site_fract_x
 _atom_site_fract_y
 _atom_site_fract_z
 _atom_site_occupancy
  Li  Li0  1  0.71827400  0.61800200  0.18442800  1
  Li  Li1  1  0.21827400  0.38199800  0.31557200  1
  Li  Li2  1  0.78172600  0.61800200  0.68442800  1
  Li  Li3  1  0.28172600  0.38199800  0.81557200  1
  Cr  Cr0  1  0.96397800  0.13870300  0.61419200  1
  Cr  Cr1  1  0.53716000  0.35577600  0.39308100  1
  Cr  Cr2  1  0.46397800  0.86129700  0.88580800  1
  Cr  Cr3  1  0.03716000  0.64422400  0.10691900  1
  Cr  Cr4  1  0.96284000  0.35577600  0.89308100  1
  Cr  Cr5  1  0.53602200  0.13870300  0.11419200  1
  Cr  Cr6  1  0.46284000  0.64422400  0.60691900  1
  Cr  Cr7  1  0.03602200  0.86129700  0.38580800  1
  S  S0  1  0.24479200  0.46996100  0.49292000  1
  S  S1  1  0.11975900  0.05262600  0.84430200  1
  S  S2  1  0.39214100  0.75227300  0.14240600  1
  S  S3  1  0.89214100  0.24772700  0.35759400  1
  S  S4  1  0.61975900  0.94737400  0.65569800  1
  S  S5  1  0.74479200  0.53003900  0.00708000  1
  S  S6  1  0.25520800  0.46996100  0.99292000  1
  S  S7  1  0.38024100  0.05262600  0.34430200  1
  S  S8  1  0.10785900  0.75227300  0.64240600  1
  S  S9  1  0.60785900  0.24772700  0.85759400  1
  S  S10  1  0.88024100  0.94737400  0.15569800  1
  S  S11  1  0.75520800  0.53003900  0.50708000  1
  O  O0  1  0.63761400  0.51208400  0.44378100  1
  O  O1  1  0.61933400  0.05389600  0.87782100  1
  O  O2  1  0.90927600  0.75164300  0.17986700  1
  O  O3  1  0.81561400  0.33921600  0.59566700  1
  O  O4  1  0.12272800  0.34466200  0.56789900  1
  O  O5  1  0.28831900  0.05248500  0.82359400  1
  O  O6  1  0.08271300  0.90649100  0.95530800  1
  O  O7  1  0.50951400  0.63621900  0.22384400  1
  O  O8  1  0.31115500  0.38208300  0.43826200  1
  O  O9  1  0.24128200  0.65443300  0.18250100  1
  O  O10  1  0.43360000  0.76454100  0.04211000  1
  O  O11  1  0.02432500  0.02551900  0.77125000  1
  O  O12  1  0.52432500  0.97448100  0.72875000  1
  O  O13  1  0.93360000  0.23545900  0.45789000  1
  O  O14  1  0.74128200  0.34556700  0.31749900  1
  O  O15  1  0.81115500  0.61791700  0.06173800  1
  O  O16  1  0.58271300  0.09350900  0.54469200  1
  O  O17  1  0.00951400  0.36378100  0.27615600  1
  O  O18  1  0.78831900  0.94751500  0.67640600  1
  O  O19  1  0.62272800  0.65533800  0.93210100  1
  O  O20  1  0.31561400  0.66078400  0.90433300  1
  O  O21  1  0.11933400  0.94610400  0.62217900  1
  O  O22  1  0.40927600  0.24835700  0.32013300  1
  O  O23  1  0.13761400  0.48791600  0.05621900  1
  O  O24  1  0.86238600  0.51208400  0.94378100  1
  O  O25  1  0.59072400  0.75164300  0.67986700  1
  O  O26  1  0.88066600  0.05389600  0.37782100  1
  O  O27  1  0.68438600  0.33921600  0.09566700  1
  O  O28  1  0.37727200  0.34466200  0.06789900  1
  O  O29  1  0.21168100  0.05248500  0.32359400  1
  O  O30  1  0.99048600  0.63621900  0.72384400  1
  O  O31  1  0.41728700  0.90649100  0.45530800  1
  O  O32  1  0.18884500  0.38208300  0.93826200  1
  O  O33  1  0.25871800  0.65443300  0.68250100  1
  O  O34  1  0.06640000  0.76454100  0.54211000  1
  O  O35  1  0.47567500  0.02551900  0.27125000  1
  O  O36  1  0.97567500  0.97448100  0.22875000  1
  O  O37  1  0.56640000  0.23545900  0.95789000  1
  O  O38  1  0.75871800  0.34556700  0.81749900  1
  O  O39  1  0.68884500  0.61791700  0.56173800  1
  O  O40  1  0.49048600  0.36378100  0.77615600  1
  O  O41  1  0.91728700  0.09350900  0.04469200  1
  O  O42  1  0.71168100  0.94751500  0.17640600  1
  O  O43  1  0.87727200  0.65533800  0.43210100  1
  O  O44  1  0.18438600  0.66078400  0.40433300  1
  O  O45  1  0.09072400  0.24835700  0.82013300  1
  O  O46  1  0.38066600  0.94610400  0.12217900  1
  O  O47  1  0.36238600  0.48791600  0.55621900  1
loop_
_geom_bond_atom_site_label_1
_geom_bond_atom_site_label_2
_geom_bond_distance
_geom_bond_site_symmetry_2
Li0 O7 1.950512 1_555
Li0 O2 1.994085 1_555
Li0 O15 2.005727 1_555
Li0 O14 2.046179 1_555
Li1 O17 1.950512 1_555
Li1 O22 1.994085 1_555
Li1 O8 2.005727 1_555
Li1 O9 2.046179 1_555
Li2 O30 1.950512 1_555
Li2 O25 1.994085 1_555
Li2 O39 2.005727 1_555
Li2 O38 2.046179 1_555
Li3 O40 1.950512 1_555
Li3 O45 1.994085 1_555
Li3 O32 2.005727 1_555
Li3 O33 2.046179 1_555
Cr0 O13 2.018605 1_555
Cr0 O4 2.020030 1_655
Cr0 O3 2.022799 1_555
Cr0 O18 2.037826 1_545
Cr0 O11 2.051599 1_655
Cr0 O21 2.067745 1_645
Cr1 O0 2.046194 1_555
Cr1 O22 2.086542 1_555
Cr1 O14 2.139664 1_555
Cr1 O8 2.139689 1_555
Cr1 O16 2.146475 1_555
Cr1 O7 2.322195 1_555
Cr2 O10 2.018605 1_556
Cr2 O19 2.020030 1_555
Cr2 O20 2.022799 1_555
Cr2 O5 2.037826 1_565
Cr2 O12 2.051599 1_555
Cr2 O1 2.067745 1_565
Cr3 O23 2.046194 1_555
Cr3 O2 2.086542 1_455
Cr3 O9 2.139664 1_555
Cr3 O15 2.139689 1_455
Cr3 O6 2.146475 1_554
Cr3 O17 2.322195 1_555
Cr4 O24 2.046194 1_555
Cr4 O45 2.086542 1_655
Cr4 O38 2.139664 1_555
Cr4 O32 2.139689 1_655
Cr4 O41 2.146475 1_556
Cr4 O30 2.322195 1_555
Cr5 O37 2.018605 1_554
Cr5 O28 2.020030 1_555
Cr5 O27 2.022799 1_555
Cr5 O42 2.037826 1_545
Cr5 O35 2.051599 1_555
Cr5 O46 2.067745 1_545
Cr6 O47 2.046194 1_555
Cr6 O25 2.086542 1_555
Cr6 O33 2.139664 1_555
Cr6 O39 2.139689 1_555
Cr6 O31 2.146475 1_555
Cr6 O40 2.322195 1_555
Cr7 O34 2.018605 1_555
Cr7 O43 2.020030 1_455
Cr7 O44 2.022799 1_555
Cr7 O29 2.037826 1_565
Cr7 O36 2.051599 1_455
Cr7 O26 2.067745 1_465
O0 S11 1.460953 1_555
O1 S9 1.488997 1_555
O2 S10 1.499930 1_555
O3 S11 1.499699 1_555
O4 S0 1.481313 1_555
O5 S1 1.506485 1_555
O6 S1 1.449820 1_565
O7 S2 1.472372 1_555
O8 S0 1.491146 1_555
O9 S2 1.493285 1_555
O10 S2 1.488783 1_555
O11 S1 1.489136 1_555
O12 S4 1.489136 1_555
O13 S3 1.488783 1_555
O14 S3 1.493285 1_555
O15 S5 1.491146 1_555
O16 S4 1.449820 1_545
O17 S3 1.472372 1_455
O18 S4 1.506485 1_555
O19 S5 1.481313 1_556
O20 S6 1.499699 1_555
O21 S8 1.488997 1_555
O22 S7 1.499930 1_555
O23 S6 1.460953 1_554
O24 S5 1.460953 1_556
O25 S4 1.499930 1_555
O26 S3 1.488997 1_555
O27 S5 1.499699 1_555
O28 S6 1.481313 1_554
O29 S7 1.506485 1_555
O30 S8 1.472372 1_655
O31 S7 1.449820 1_565
O32 S6 1.491146 1_555
O33 S8 1.493285 1_555
O34 S8 1.488783 1_555
O35 S7 1.489136 1_555
O36 S10 1.489136 1_555
O37 S9 1.488783 1_555
O38 S9 1.493285 1_555
O39 S11 1.491146 1_555
O40 S9 1.472372 1_555
O41 S10 1.449820 1_545
O42 S10 1.506485 1_555
O43 S11 1.481313 1_555
O44 S0 1.499699 1_555
O45 S1 1.499930 1_555
O46 S2 1.488997 1_555
O47 S0 1.460953 1_555
