# generated using pymatgen
data_Zr3N4
_symmetry_space_group_name_H-M   'P 1'
_cell_length_a   6.46496179
_cell_length_b   6.46496179
_cell_length_c   6.46496179
_cell_angle_alpha   60.00000000
_cell_angle_beta   90.00000000
_cell_angle_gamma   120.00000000
_symmetry_Int_Tables_number   1
_chemical_formula_structural   Zr3N4
_chemical_formula_sum   'Zr6 N8'
_cell_volume   191.06576999
_cell_formula_units_Z   2
loop_
 _symmetry_equiv_pos_site_id
 _symmetry_equiv_pos_as_xyz
  1  'x, y, z'
loop_
 _atom_site_type_symbol
 _atom_site_label
 _atom_site_symmetry_multiplicity
 _atom_site_fract_x
 _atom_site_fract_y
 _atom_site_fract_z
 _atom_site_occupancy
  Zr  Zr0  1  0.50000000  -0.00000000  0.00000000  1
  Zr  Zr1  1  0.50000000  -0.00000000  0.50000000  1
  Zr  Zr2  1  0.12500000  0.25000000  0.12500000  1
  Zr  Zr3  1  0.50000000  0.50000000  0.50000000  1
  Zr  Zr4  1  0.87500000  0.75000000  0.87500000  1
  Zr  Zr5  1  0.00000000  0.50000000  0.50000000  1
  N  N0  1  0.74210329  0.48420659  0.27369112  1
  N  N1  1  0.74210329  0.01579341  0.74210329  1
  N  N2  1  0.74210329  0.48420659  0.74210329  1
  N  N3  1  0.27369112  0.01579341  0.74210329  1
  N  N4  1  0.25789671  0.51579341  0.25789671  1
  N  N5  1  0.72630888  0.98420659  0.25789671  1
  N  N6  1  0.25789671  0.51579341  0.72630888  1
  N  N7  1  0.25789671  0.98420659  0.25789671  1
loop_
_geom_bond_atom_site_label_1
_geom_bond_atom_site_label_2
_geom_bond_distance
_geom_bond_site_symmetry_2
N0 Zr4 2.104539 1_554
N0 Zr3 2.215860 1_555
N0 Zr5 2.215860 1_655
N0 Zr1 2.215865 1_555
N1 Zr4 2.104533 1_545
N1 Zr1 2.215864 1_555
N1 Zr5 2.215865 1_655
N1 Zr0 2.215865 1_556
N2 Zr4 2.104533 1_555
N2 Zr3 2.215864 1_555
N2 Zr0 2.215865 1_556
N2 Zr5 2.215865 1_655
N3 Zr4 2.104539 1_445
N3 Zr1 2.215860 1_555
N3 Zr0 2.215860 1_556
N3 Zr3 2.215865 1_555
N4 Zr2 2.104533 1_555
N4 Zr3 2.215864 1_555
N4 Zr0 2.215865 1_565
N4 Zr5 2.215865 1_555
N5 Zr2 2.104539 1_665
N5 Zr1 2.215860 1_565
N5 Zr0 2.215860 1_565
N5 Zr3 2.215865 1_555
N6 Zr2 2.104539 1_556
N6 Zr3 2.215860 1_555
N6 Zr5 2.215860 1_555
N6 Zr1 2.215865 1_565
N7 Zr2 2.104533 1_565
N7 Zr1 2.215864 1_565
N7 Zr5 2.215865 1_555
N7 Zr0 2.215865 1_565
