# generated using pymatgen
data_Li5SbS4
_symmetry_space_group_name_H-M   'P 1'
_cell_length_a   16.50530500
_cell_length_b   16.50530500
_cell_length_c   5.93388600
_cell_angle_alpha   90.00000000
_cell_angle_beta   90.00000000
_cell_angle_gamma   90.00000000
_symmetry_Int_Tables_number   1
_chemical_formula_structural   Li5SbS4
_chemical_formula_sum   'Li40 Sb8 S32'
_cell_volume   1616.53944625
_cell_formula_units_Z   8
loop_
 _symmetry_equiv_pos_site_id
 _symmetry_equiv_pos_as_xyz
  1  'x, y, z'
loop_
 _atom_site_type_symbol
 _atom_site_label
 _atom_site_symmetry_multiplicity
 _atom_site_fract_x
 _atom_site_fract_y
 _atom_site_fract_z
 _atom_site_occupancy
  Li  Li0  1  0.98869300  0.01130700  0.25000000  1
  Li  Li1  1  0.01130700  0.98869300  0.75000000  1
  Li  Li2  1  0.98869300  0.48869300  0.25000000  1
  Li  Li3  1  0.01130700  0.51130700  0.75000000  1
  Li  Li4  1  0.11157100  0.36319400  0.81269900  1
  Li  Li5  1  0.11157100  0.13680600  0.81269900  1
  Li  Li6  1  0.12192600  0.62192600  0.25000000  1
  Li  Li7  1  0.12192600  0.87807400  0.25000000  1
  Li  Li8  1  0.13680600  0.11157100  0.31269900  1
  Li  Li9  1  0.13680600  0.38842900  0.31269900  1
  Li  Li10  1  0.25000000  0.25000000  0.33976200  1
  Li  Li11  1  0.25000000  0.75000000  0.75000000  1
  Li  Li12  1  0.25000000  0.75000000  0.25000000  1
  Li  Li13  1  0.25000000  0.25000000  0.83976200  1
  Li  Li14  1  0.36319400  0.11157100  0.31269900  1
  Li  Li15  1  0.36319400  0.38842900  0.31269900  1
  Li  Li16  1  0.37807400  0.62192600  0.25000000  1
  Li  Li17  1  0.37807400  0.87807400  0.25000000  1
  Li  Li18  1  0.38842900  0.13680600  0.81269900  1
  Li  Li19  1  0.38842900  0.36319400  0.81269900  1
  Li  Li20  1  0.51130700  0.48869300  0.25000000  1
  Li  Li21  1  0.48869300  0.51130700  0.75000000  1
  Li  Li22  1  0.51130700  0.01130700  0.25000000  1
  Li  Li23  1  0.48869300  0.98869300  0.75000000  1
  Li  Li24  1  0.61157100  0.63680600  0.18730100  1
  Li  Li25  1  0.61157100  0.86319400  0.18730100  1
  Li  Li26  1  0.62192600  0.12192600  0.75000000  1
  Li  Li27  1  0.62192600  0.37807400  0.75000000  1
  Li  Li28  1  0.63680600  0.61157100  0.68730100  1
  Li  Li29  1  0.63680600  0.88842900  0.68730100  1
  Li  Li30  1  0.75000000  0.25000000  0.75000000  1
  Li  Li31  1  0.75000000  0.25000000  0.25000000  1
  Li  Li32  1  0.75000000  0.75000000  0.16023800  1
  Li  Li33  1  0.75000000  0.75000000  0.66023800  1
  Li  Li34  1  0.86319400  0.61157100  0.68730100  1
  Li  Li35  1  0.86319400  0.88842900  0.68730100  1
  Li  Li36  1  0.87807400  0.12192600  0.75000000  1
  Li  Li37  1  0.87807400  0.37807400  0.75000000  1
  Li  Li38  1  0.88842900  0.63680600  0.18730100  1
  Li  Li39  1  0.88842900  0.86319400  0.18730100  1
  Sb  Sb0  1  0.01818000  0.75000000  0.71435000  1
  Sb  Sb1  1  0.25000000  0.51818000  0.78565000  1
  Sb  Sb2  1  0.25000000  0.98182000  0.78565000  1
  Sb  Sb3  1  0.48182000  0.75000000  0.71435000  1
  Sb  Sb4  1  0.51818000  0.25000000  0.28565000  1
  Sb  Sb5  1  0.75000000  0.01818000  0.21435000  1
  Sb  Sb6  1  0.75000000  0.48182000  0.21435000  1
  Sb  Sb7  1  0.98182000  0.25000000  0.28565000  1
  S  S0  1  0.00872000  0.11626200  0.52692000  1
  S  S1  1  0.00872000  0.38373800  0.52692000  1
  S  S2  1  0.11626200  0.00872000  0.02692000  1
  S  S3  1  0.11626200  0.49128000  0.02692000  1
  S  S4  1  0.13042800  0.25000000  0.09189000  1
  S  S5  1  0.12982100  0.75000000  0.02147800  1
  S  S6  1  0.25000000  0.13042800  0.59189000  1
  S  S7  1  0.25000000  0.62982100  0.47852200  1
  S  S8  1  0.25000000  0.36957200  0.59189000  1
  S  S9  1  0.25000000  0.87017900  0.47852200  1
  S  S10  1  0.37017900  0.75000000  0.02147800  1
  S  S11  1  0.36957200  0.25000000  0.09189000  1
  S  S12  1  0.38373800  0.49128000  0.02692000  1
  S  S13  1  0.38373800  0.00872000  0.02692000  1
  S  S14  1  0.49128000  0.11626200  0.52692000  1
  S  S15  1  0.49128000  0.38373800  0.52692000  1
  S  S16  1  0.50872000  0.61626200  0.47308000  1
  S  S17  1  0.50872000  0.88373800  0.47308000  1
  S  S18  1  0.61626200  0.50872000  0.97308000  1
  S  S19  1  0.61626200  0.99128000  0.97308000  1
  S  S20  1  0.63042800  0.75000000  0.90811000  1
  S  S21  1  0.62982100  0.25000000  0.97852200  1
  S  S22  1  0.75000000  0.12982100  0.52147800  1
  S  S23  1  0.75000000  0.37017900  0.52147800  1
  S  S24  1  0.75000000  0.63042800  0.40811000  1
  S  S25  1  0.75000000  0.86957200  0.40811000  1
  S  S26  1  0.87017900  0.25000000  0.97852200  1
  S  S27  1  0.86957200  0.75000000  0.90811000  1
  S  S28  1  0.88373800  0.50872000  0.97308000  1
  S  S29  1  0.88373800  0.99128000  0.97308000  1
  S  S30  1  0.99128000  0.61626200  0.47308000  1
  S  S31  1  0.99128000  0.88373800  0.47308000  1
loop_
_geom_bond_atom_site_label_1
_geom_bond_atom_site_label_2
_geom_bond_distance
_geom_bond_site_symmetry_2
Li0 S0 2.410461 1_655
Li0 S29 2.410461 1_544
Li0 S31 2.487467 1_545
Li0 S2 2.487467 1_655
Li1 S31 2.410461 1_455
Li1 S2 2.410461 1_566
Li1 S29 2.487467 1_455
Li1 S0 2.487467 1_565
Li2 S1 2.410461 1_655
Li2 S28 2.410461 1_554
Li2 S30 2.487467 1_555
Li2 S3 2.487467 1_655
Li3 S30 2.410461 1_455
Li3 S3 2.410461 1_556
Li3 S1 2.487467 1_555
Li3 S28 2.487467 1_455
Li4 S1 2.423314 1_555
Li4 S3 2.468048 1_556
Li4 S4 2.516353 1_556
Li4 S8 2.635948 1_555
Li5 S0 2.423314 1_555
Li5 S2 2.468048 1_556
Li5 S4 2.516353 1_556
Li5 S6 2.635948 1_555
Li6 S7 2.514827 1_555
Li6 S5 2.514827 1_555
Li6 S30 2.531967 1_455
Li6 S3 2.531967 1_555
Li7 S9 2.514827 1_555
Li7 S5 2.514827 1_555
Li7 S31 2.531967 1_455
Li7 S2 2.531967 1_565
Li8 S2 2.423314 1_555
Li8 S0 2.468048 1_555
Li8 S6 2.516353 1_555
Li8 S4 2.635948 1_555
Li9 S3 2.423314 1_555
Li9 S1 2.468048 1_555
Li9 S8 2.516353 1_555
Li9 S4 2.635948 1_555
Li10 S4 2.461376 1_555
Li10 S11 2.461376 1_555
Li10 S8 2.476550 1_555
Li10 S6 2.476550 1_555
Li11 S10 2.555327 1_556
Li11 S5 2.555327 1_556
Li11 S9 2.555327 1_555
Li11 S7 2.555327 1_555
Li12 S10 2.402797 1_555
Li12 S5 2.402797 1_555
Li12 S7 2.402797 1_555
Li12 S9 2.402797 1_555
Li13 S8 2.461376 1_555
Li13 S6 2.461376 1_555
Li13 S4 2.476550 1_556
Li13 S11 2.476550 1_556
Li14 S13 2.423314 1_555
Li14 S14 2.468048 1_555
Li14 S6 2.516353 1_555
Li14 S11 2.635948 1_555
Li15 S12 2.423314 1_555
Li15 S15 2.468048 1_555
Li15 S8 2.516353 1_555
Li15 S11 2.635948 1_555
Li16 S7 2.514827 1_555
Li16 S10 2.514827 1_555
Li16 S16 2.531967 1_555
Li16 S12 2.531967 1_555
Li17 S10 2.514827 1_555
Li17 S9 2.514827 1_555
Li17 S17 2.531967 1_555
Li17 S13 2.531967 1_565
Li18 S14 2.423314 1_555
Li18 S13 2.468048 1_556
Li18 S11 2.516353 1_556
Li18 S6 2.635948 1_555
Li19 S15 2.423314 1_555
Li19 S12 2.468048 1_556
Li19 S11 2.516353 1_556
Li19 S8 2.635948 1_555
Li20 S15 2.410461 1_555
Li20 S18 2.410461 1_554
Li20 S12 2.487467 1_555
Li20 S16 2.487467 1_555
Li21 S12 2.410461 1_556
Li21 S16 2.410461 1_555
Li21 S15 2.487467 1_555
Li21 S18 2.487467 1_555
Li22 S14 2.410461 1_555
Li22 S19 2.410461 1_544
Li22 S13 2.487467 1_555
Li22 S17 2.487467 1_545
Li23 S13 2.410461 1_566
Li23 S17 2.410461 1_555
Li23 S19 2.487467 1_555
Li23 S14 2.487467 1_565
Li24 S16 2.423314 1_555
Li24 S18 2.468048 1_554
Li24 S20 2.516353 1_554
Li24 S24 2.635948 1_555
Li25 S17 2.423314 1_555
Li25 S19 2.468048 1_554
Li25 S20 2.516353 1_554
Li25 S25 2.635948 1_555
Li26 S21 2.514827 1_555
Li26 S22 2.514827 1_555
Li26 S19 2.531967 1_545
Li26 S14 2.531967 1_555
Li27 S21 2.514827 1_555
Li27 S23 2.514827 1_555
Li27 S18 2.531967 1_555
Li27 S15 2.531967 1_555
Li28 S18 2.423314 1_555
Li28 S16 2.468048 1_555
Li28 S24 2.516353 1_555
Li28 S20 2.635948 1_555
Li29 S19 2.423314 1_555
Li29 S17 2.468048 1_555
Li29 S25 2.516353 1_555
Li29 S20 2.635948 1_555
Li30 S23 2.402797 1_555
Li30 S22 2.402797 1_555
Li30 S26 2.402797 1_555
Li30 S21 2.402797 1_555
Li31 S23 2.555327 1_555
Li31 S22 2.555327 1_555
Li31 S26 2.555327 1_554
Li31 S21 2.555327 1_554
Li32 S24 2.461376 1_555
Li32 S25 2.461376 1_555
Li32 S27 2.476550 1_554
Li32 S20 2.476550 1_554
Li33 S20 2.461376 1_555
Li33 S27 2.461376 1_555
Li33 S25 2.476550 1_555
Li33 S24 2.476550 1_555
Li34 S28 2.423314 1_555
Li34 S30 2.468048 1_555
Li34 S24 2.516353 1_555
Li34 S27 2.635948 1_555
Li35 S29 2.423314 1_555
Li35 S31 2.468048 1_555
Li35 S25 2.516353 1_555
Li35 S27 2.635948 1_555
Li36 S26 2.514827 1_555
Li36 S22 2.514827 1_555
Li36 S29 2.531967 1_545
Li36 S0 2.531967 1_655
Li37 S26 2.514827 1_555
Li37 S23 2.514827 1_555
Li37 S28 2.531967 1_555
Li37 S1 2.531967 1_655
Li38 S30 2.423314 1_555
Li38 S28 2.468048 1_554
Li38 S27 2.516353 1_554
Li38 S24 2.635948 1_555
Li39 S31 2.423314 1_555
Li39 S29 2.468048 1_554
Li39 S27 2.516353 1_554
Li39 S25 2.635948 1_555
S0 Sb7 2.668213 1_455
S1 Sb7 2.668213 1_455
S2 Sb2 2.668213 1_544
S3 Sb1 2.668213 1_554
S4 Sb7 2.708921 1_455
S5 Sb0 2.591679 1_554
S6 Sb2 2.708921 1_545
S7 Sb1 2.591679 1_555
S8 Sb1 2.708921 1_555
S9 Sb2 2.591679 1_555
S10 Sb3 2.591679 1_554
S11 Sb4 2.708921 1_555
S12 Sb1 2.668213 1_554
S13 Sb2 2.668213 1_544
S14 Sb4 2.668213 1_555
S15 Sb4 2.668213 1_555
S16 Sb3 2.668213 1_555
S17 Sb3 2.668213 1_555
S18 Sb6 2.668213 1_556
S19 Sb5 2.668213 1_566
S20 Sb3 2.708921 1_555
S21 Sb4 2.591679 1_556
S22 Sb5 2.591679 1_555
S23 Sb6 2.591679 1_555
S24 Sb6 2.708921 1_555
S25 Sb5 2.708921 1_565
S26 Sb7 2.591679 1_556
S27 Sb0 2.708921 1_655
S28 Sb6 2.668213 1_556
S29 Sb5 2.668213 1_566
S30 Sb0 2.668213 1_655
S31 Sb0 2.668213 1_655
