# generated using pymatgen
data_LiCrSiO4
_symmetry_space_group_name_H-M   'P 1'
_cell_length_a   5.69923500
_cell_length_b   8.04846200
_cell_length_c   5.69923700
_cell_angle_alpha   89.99998283
_cell_angle_beta   90.00006032
_cell_angle_gamma   90.00001717
_symmetry_Int_Tables_number   1
_chemical_formula_structural   LiCrSiO4
_chemical_formula_sum   'Li4 Cr4 Si4 O16'
_cell_volume   261.42443619
_cell_formula_units_Z   4
loop_
 _symmetry_equiv_pos_site_id
 _symmetry_equiv_pos_as_xyz
  1  'x, y, z'
loop_
 _atom_site_type_symbol
 _atom_site_label
 _atom_site_symmetry_multiplicity
 _atom_site_fract_x
 _atom_site_fract_y
 _atom_site_fract_z
 _atom_site_occupancy
  Li  Li0  1  0.22007400  0.00000000  0.00000000  1
  Li  Li1  1  0.77992700  0.50000000  0.00000000  1
  Li  Li2  1  0.00000100  0.25000000  0.22007200  1
  Li  Li3  1  0.00000000  0.75000000  0.77992800  1
  Cr  Cr0  1  0.23508500  0.00000000  0.50000100  1
  Cr  Cr1  1  0.76491100  0.50000000  0.50000000  1
  Cr  Cr2  1  0.50000300  0.25000000  0.23509600  1
  Cr  Cr3  1  0.50000100  0.75000000  0.76490400  1
  Si  Si0  1  0.25517500  0.62500100  0.25517600  1
  Si  Si1  1  0.74482400  0.87500000  0.25517700  1
  Si  Si2  1  0.25517500  0.37499900  0.74482400  1
  Si  Si3  1  0.74482400  0.12500000  0.74482300  1
  O  O0  1  0.26024700  0.26093400  0.98441700  1
  O  O1  1  0.73975400  0.23906600  0.98441500  1
  O  O2  1  0.98441800  0.98906800  0.26024900  1
  O  O3  1  0.01558200  0.51093200  0.26024700  1
  O  O4  1  0.01558200  0.48906800  0.73975100  1
  O  O5  1  0.98441700  0.01093200  0.73975100  1
  O  O6  1  0.26024600  0.73906600  0.01558300  1
  O  O7  1  0.73975400  0.76093400  0.01558400  1
  O  O8  1  0.49565700  0.50090800  0.25978600  1
  O  O9  1  0.50434300  0.99909200  0.25978700  1
  O  O10  1  0.25978000  0.25090300  0.50434600  1
  O  O11  1  0.74022000  0.24909800  0.50434700  1
  O  O12  1  0.25978000  0.74909800  0.49565300  1
  O  O13  1  0.74022100  0.75090300  0.49565300  1
  O  O14  1  0.49565700  0.49909200  0.74021400  1
  O  O15  1  0.50434300  0.00090800  0.74021300  1
loop_
_geom_bond_atom_site_label_1
_geom_bond_atom_site_label_2
_geom_bond_distance
_geom_bond_site_symmetry_2
Li0 O2 2.002872 1_445
Li0 O5 2.002874 1_454
Li0 O6 2.114426 1_545
Li0 O0 2.114427 1_554
Li0 O9 2.194758 1_545
Li0 O15 2.194760 1_554
Li1 O3 2.002858 1_655
Li1 O4 2.002868 1_654
Li1 O7 2.114427 1_555
Li1 O1 2.114427 1_554
Li1 O14 2.194759 1_554
Li1 O8 2.194761 1_555
Li2 O0 2.002856 1_554
Li2 O1 2.002866 1_454
Li2 O3 2.114412 1_555
Li2 O2 2.114413 1_445
Li2 O10 2.194748 1_555
Li2 O11 2.194763 1_455
Li3 O6 2.002854 1_556
Li3 O7 2.002860 1_456
Li3 O4 2.114413 1_555
Li3 O5 2.114413 1_465
Li3 O13 2.194753 1_455
Li3 O12 2.194759 1_555
Cr0 O5 1.978817 1_455
Cr0 O2 1.978819 1_445
Cr0 O12 2.024426 1_545
Cr0 O10 2.024433 1_555
Cr0 O15 2.056494 1_555
Cr0 O9 2.056504 1_545
Cr1 O4 1.978831 1_655
Cr1 O3 1.978841 1_655
Cr1 O11 2.024424 1_555
Cr1 O13 2.024432 1_555
Cr1 O8 2.056485 1_555
Cr1 O14 2.056487 1_555
Cr2 O1 1.978875 1_554
Cr2 O0 1.978884 1_554
Cr2 O9 2.024472 1_545
Cr2 O8 2.024472 1_555
Cr2 O11 2.056483 1_555
Cr2 O10 2.056504 1_555
Cr3 O7 1.978877 1_556
Cr3 O6 1.978882 1_556
Cr3 O14 2.024471 1_555
Cr3 O15 2.024472 1_565
Cr3 O13 2.056497 1_555
Cr3 O12 2.056498 1_555
O0 Si2 1.645670 1_555
O1 Si3 1.645670 1_555
O2 Si1 1.645688 1_555
O3 Si0 1.645687 1_555
O4 Si2 1.645688 1_555
O5 Si3 1.645683 1_555
O6 Si0 1.645670 1_555
O7 Si1 1.645675 1_555
O8 Si0 1.696070 1_555
O9 Si1 1.696060 1_555
O10 Si2 1.696065 1_555
O11 Si3 1.696065 1_555
O12 Si0 1.696066 1_555
O13 Si1 1.696060 1_555
O14 Si2 1.696069 1_555
O15 Si3 1.696060 1_555
