# generated using pymatgen
data_LiFe2(PO4)2
_symmetry_space_group_name_H-M   'P 1'
_cell_length_a   6.88829800
_cell_length_b   5.19353600
_cell_length_c   10.40377457
_cell_angle_alpha   89.05783348
_cell_angle_beta   90.00000000
_cell_angle_gamma   90.00000000
_symmetry_Int_Tables_number   1
_chemical_formula_structural   LiFe2(PO4)2
_chemical_formula_sum   'Li2 Fe4 P4 O16'
_cell_volume   372.14080018
_cell_formula_units_Z   2
loop_
 _symmetry_equiv_pos_site_id
 _symmetry_equiv_pos_as_xyz
  1  'x, y, z'
loop_
 _atom_site_type_symbol
 _atom_site_label
 _atom_site_symmetry_multiplicity
 _atom_site_fract_x
 _atom_site_fract_y
 _atom_site_fract_z
 _atom_site_occupancy
  Li  Li0  1  0.75100300  0.26195900  0.64017400  1
  Li  Li1  1  0.24899700  0.26195900  0.14017400  1
  Fe  Fe0  1  0.77275600  0.75811300  0.83579400  1
  Fe  Fe1  1  0.24672300  0.24635900  0.67386000  1
  Fe  Fe2  1  0.22724400  0.75811300  0.33579400  1
  Fe  Fe3  1  0.75327700  0.24635900  0.17386000  1
  P  P0  1  0.51349800  0.25224000  0.90951300  1
  P  P1  1  0.01963800  0.74565700  0.59627600  1
  P  P2  1  0.48650200  0.25224000  0.40951300  1
  P  P3  1  0.98036200  0.74565700  0.09627700  1
  O  O0  1  0.98941200  0.79682800  0.94793700  1
  O  O1  1  0.56224900  0.96529400  0.87936100  1
  O  O2  1  0.68147200  0.40803600  0.83683300  1
  O  O3  1  0.31690100  0.32294200  0.85260700  1
  O  O4  1  0.83621100  0.87853100  0.66091100  1
  O  O5  1  0.20504400  0.86260800  0.64964900  1
  O  O6  1  0.00344700  0.45162400  0.62653500  1
  O  O7  1  0.48624700  0.30427600  0.55520900  1
  O  O8  1  0.01058800  0.79682800  0.44793700  1
  O  O9  1  0.43775100  0.96529400  0.37936100  1
  O  O10  1  0.31852800  0.40803600  0.33683300  1
  O  O11  1  0.68309900  0.32294200  0.35260700  1
  O  O12  1  0.16378900  0.87853100  0.16091100  1
  O  O13  1  0.79495600  0.86260800  0.14964900  1
  O  O14  1  0.99655300  0.45162400  0.12653500  1
  O  O15  1  0.51375300  0.30427600  0.05520900  1
loop_
_geom_bond_atom_site_label_1
_geom_bond_atom_site_label_2
_geom_bond_distance
_geom_bond_site_symmetry_2
Li0 O6 2.002407 1_655
Li0 O7 2.036968 1_555
Li0 O4 2.083837 1_545
Li0 O2 2.245462 1_555
Li1 O14 2.002407 1_455
Li1 O15 2.036968 1_555
Li1 O12 2.083837 1_545
Li1 O10 2.245462 1_555
Fe0 O1 1.865976 1_555
Fe0 O0 1.906984 1_555
Fe0 O2 1.923661 1_555
Fe0 O4 1.963448 1_555
Fe1 O3 1.968369 1_555
Fe1 O5 2.033354 1_545
Fe1 O6 2.042005 1_555
Fe1 O7 2.079487 1_555
Fe2 O9 1.865976 1_555
Fe2 O8 1.906984 1_555
Fe2 O10 1.923661 1_555
Fe2 O12 1.963448 1_555
Fe3 O11 1.968369 1_555
Fe3 O13 2.033354 1_545
Fe3 O14 2.042005 1_555
Fe3 O15 2.079487 1_555
O0 P3 1.562942 1_556
O1 P0 1.564428 1_565
O2 P0 1.595339 1_555
O3 P0 1.520558 1_555
O4 P1 1.593768 1_655
O5 P1 1.522963 1_555
O6 P1 1.558101 1_555
O7 P2 1.544061 1_555
O8 P1 1.562932 1_555
O9 P2 1.564428 1_565
O10 P2 1.595339 1_555
O11 P2 1.520558 1_555
O12 P3 1.593764 1_455
O13 P3 1.522959 1_555
O14 P3 1.558099 1_555
O15 P0 1.544061 1_554
