# generated using pymatgen
data_Li2Ni4P4O15
_symmetry_space_group_name_H-M   'P 1'
_cell_length_a   8.58090074
_cell_length_b   8.58090074
_cell_length_c   17.93278848
_cell_angle_alpha   82.89800150
_cell_angle_beta   82.89800150
_cell_angle_gamma   106.65037681
_symmetry_Int_Tables_number   1
_chemical_formula_structural   Li2Ni4P4O15
_chemical_formula_sum   'Li8 Ni16 P16 O60'
_cell_volume   1237.66015375
_cell_formula_units_Z   4
loop_
 _symmetry_equiv_pos_site_id
 _symmetry_equiv_pos_as_xyz
  1  'x, y, z'
loop_
 _atom_site_type_symbol
 _atom_site_label
 _atom_site_symmetry_multiplicity
 _atom_site_fract_x
 _atom_site_fract_y
 _atom_site_fract_z
 _atom_site_occupancy
  Li  Li0  1  0.70503000  0.53922900  0.54684500  1
  Li  Li1  1  0.00404900  0.52768600  0.25543100  1
  Li  Li2  1  0.53922900  0.70503000  0.04684500  1
  Li  Li3  1  0.29497000  0.46077100  0.45315500  1
  Li  Li4  1  0.99595100  0.47231400  0.74456900  1
  Li  Li5  1  0.46077100  0.29497000  0.95315500  1
  Li  Li6  1  0.47231400  0.99595100  0.24456900  1
  Li  Li7  1  0.52768600  0.00404900  0.75543100  1
  Ni  Ni0  1  0.04096000  0.14625500  0.93102800  1
  Ni  Ni1  1  0.95904000  0.85374500  0.06897200  1
  Ni  Ni2  1  0.26399400  0.90491500  0.93674000  1
  Ni  Ni3  1  0.95123900  0.04876100  0.75000000  1
  Ni  Ni4  1  0.14625500  0.04096000  0.43102800  1
  Ni  Ni5  1  0.52391000  0.47609000  0.25000000  1
  Ni  Ni6  1  0.90491500  0.26399400  0.43674000  1
  Ni  Ni7  1  0.47609000  0.52391000  0.75000000  1
  Ni  Ni8  1  0.17642800  0.82357200  0.75000000  1
  Ni  Ni9  1  0.50000000  0.00000000  0.50000000  1
  Ni  Ni10  1  0.09508500  0.73600600  0.56326000  1
  Ni  Ni11  1  0.73600600  0.09508500  0.06326000  1
  Ni  Ni12  1  0.85374500  0.95904000  0.56897200  1
  Ni  Ni13  1  0.00000000  0.50000000  0.00000000  1
  Ni  Ni14  1  0.82357200  0.17642800  0.25000000  1
  Ni  Ni15  1  0.04876100  0.95123900  0.25000000  1
  P  P0  1  0.77824100  0.45426500  0.12407600  1
  P  P1  1  0.98080000  0.68013700  0.39947400  1
  P  P2  1  0.28919800  0.15483800  0.82110400  1
  P  P3  1  0.22175900  0.54573500  0.87592400  1
  P  P4  1  0.31986300  0.01920000  0.10052600  1
  P  P5  1  0.15483800  0.28919800  0.32110400  1
  P  P6  1  0.68013700  0.98080000  0.89947400  1
  P  P7  1  0.54573500  0.22175900  0.37592400  1
  P  P8  1  0.89397800  0.76909300  0.90128600  1
  P  P9  1  0.76909300  0.89397800  0.40128600  1
  P  P10  1  0.23090700  0.10602200  0.59871400  1
  P  P11  1  0.45426500  0.77824100  0.62407600  1
  P  P12  1  0.84516200  0.71080200  0.67889600  1
  P  P13  1  0.01920000  0.31986300  0.60052600  1
  P  P14  1  0.10602200  0.23090700  0.09871400  1
  P  P15  1  0.71080200  0.84516200  0.17889600  1
  O  O0  1  0.38529100  0.09116500  0.42079900  1
  O  O1  1  0.41122900  0.13849300  0.57233500  1
  O  O2  1  0.33424800  0.78368600  0.56576200  1
  O  O3  1  0.59404400  0.16094600  0.30152400  1
  O  O4  1  0.21631400  0.66575200  0.93423800  1
  O  O5  1  0.71893900  0.57044600  0.73385700  1
  O  O6  1  0.50196600  0.93608400  0.93336300  1
  O  O7  1  0.52755600  0.39587300  0.35833100  1
  O  O8  1  0.39587300  0.52755600  0.85833100  1
  O  O9  1  0.78368600  0.33424800  0.06576200  1
  O  O10  1  0.42955400  0.28106100  0.76614300  1
  O  O11  1  0.16094600  0.59404400  0.80152400  1
  O  O12  1  0.69526600  0.02131600  0.18405800  1
  O  O13  1  0.40595600  0.83905400  0.69847600  1
  O  O14  1  0.10124700  0.79072200  0.44286400  1
  O  O15  1  0.13849300  0.41122900  0.07233500  1
  O  O16  1  0.93608400  0.50196600  0.43336300  1
  O  O17  1  0.83905400  0.40595600  0.19847600  1
  O  O18  1  0.29773400  0.16191600  0.90896700  1
  O  O19  1  0.71728800  0.80264500  0.91984700  1
  O  O20  1  0.28271200  0.19735500  0.08015300  1
  O  O21  1  0.83123900  0.88597300  0.68477800  1
  O  O22  1  0.83223700  0.95898900  0.31650000  1
  O  O23  1  0.90883500  0.61470900  0.07920100  1
  O  O24  1  0.83808400  0.70226600  0.59103300  1
  O  O25  1  0.02131600  0.69526600  0.68405800  1
  O  O26  1  0.99327900  0.11516700  0.05096900  1
  O  O27  1  0.66575200  0.21631400  0.43423800  1
  O  O28  1  0.80264500  0.71728800  0.41984700  1
  O  O29  1  0.96524600  0.27769600  0.68704900  1
  O  O30  1  0.88483300  0.00672100  0.44903100  1
  O  O31  1  0.70226600  0.83808400  0.09103300  1
  O  O32  1  0.19735500  0.28271200  0.58015300  1
  O  O33  1  0.58877100  0.86150700  0.42766500  1
  O  O34  1  0.30473400  0.97868400  0.81594200  1
  O  O35  1  0.97868400  0.30473400  0.31594200  1
  O  O36  1  0.49803400  0.06391600  0.06663700  1
  O  O37  1  0.16876100  0.11402700  0.31522200  1
  O  O38  1  0.09116500  0.38529100  0.92079900  1
  O  O39  1  0.06391600  0.49803400  0.56663700  1
  O  O40  1  0.89875300  0.20927800  0.55713600  1
  O  O41  1  0.20927800  0.89875300  0.05713600  1
  O  O42  1  0.60412700  0.47244400  0.14166900  1
  O  O43  1  0.61470900  0.90883500  0.57920100  1
  O  O44  1  0.03475400  0.72230400  0.31295100  1
  O  O45  1  0.72230400  0.03475400  0.81295100  1
  O  O46  1  0.95898900  0.83223700  0.81650000  1
  O  O47  1  0.47244400  0.60412700  0.64166900  1
  O  O48  1  0.16776300  0.04101100  0.68350000  1
  O  O49  1  0.00672100  0.88483300  0.94903100  1
  O  O50  1  0.27769600  0.96524600  0.18704900  1
  O  O51  1  0.28106100  0.42955400  0.26614300  1
  O  O52  1  0.57044600  0.71893900  0.23385700  1
  O  O53  1  0.11516700  0.99327900  0.55096900  1
  O  O54  1  0.16191600  0.29773400  0.40896700  1
  O  O55  1  0.04101100  0.16776300  0.18350000  1
  O  O56  1  0.79072200  0.10124700  0.94286400  1
  O  O57  1  0.88597300  0.83123900  0.18477800  1
  O  O58  1  0.11402700  0.16876100  0.81522200  1
  O  O59  1  0.86150700  0.58877100  0.92766500  1
loop_
_geom_bond_atom_site_label_1
_geom_bond_atom_site_label_2
_geom_bond_distance
_geom_bond_site_symmetry_2
Li0 O24 1.863106 1_555
Li0 O28 2.481380 1_555
Li1 O17 1.978044 1_455
Li1 O35 2.018560 1_455
Li1 O44 2.040415 1_555
Li2 O31 1.863106 1_555
Li2 O19 2.481380 1_554
Li3 O54 1.863106 1_555
Li3 O32 2.481380 1_555
Li4 O11 1.978044 1_655
Li4 O25 2.018560 1_655
Li4 O29 2.040415 1_555
Li5 O18 1.863106 1_555
Li5 O20 2.481380 1_556
Li6 O3 1.978044 1_565
Li6 O12 2.018560 1_565
Li6 O50 2.040415 1_555
Li7 O13 1.978044 1_545
Li7 O34 2.018560 1_545
Li7 O45 2.040415 1_555
Ni0 O38 1.951275 1_555
Ni0 O56 2.048600 1_455
Ni0 O58 2.062198 1_555
Ni0 O26 2.107796 1_456
Ni0 O18 2.151967 1_555
Ni0 O49 2.154632 1_545
Ni1 O23 1.951275 1_555
Ni1 O41 2.048600 1_655
Ni1 O57 2.062198 1_555
Ni1 O49 2.107796 1_654
Ni1 O31 2.151967 1_555
Ni1 O26 2.154632 1_565
Ni2 O6 1.974199 1_555
Ni2 O4 1.981719 1_555
Ni2 O18 2.126520 1_565
Ni2 O34 2.135974 1_555
Ni2 O41 2.142793 1_556
Ni2 O49 2.145742 1_555
Ni3 O21 2.063263 1_545
Ni3 O58 2.063263 1_655
Ni3 O48 2.102652 1_655
Ni3 O46 2.102652 1_545
Ni3 O29 2.104933 1_555
Ni3 O45 2.104933 1_555
Ni4 O0 1.951275 1_555
Ni4 O14 2.048600 1_545
Ni4 O37 2.062198 1_555
Ni4 O53 2.107796 1_545
Ni4 O54 2.151967 1_555
Ni4 O30 2.154632 1_455
Ni5 O52 1.982708 1_555
Ni5 O51 1.982708 1_555
Ni5 O7 1.986326 1_555
Ni5 O42 1.986326 1_555
Ni6 O16 1.974199 1_555
Ni6 O27 1.981719 1_555
Ni6 O54 2.126520 1_655
Ni6 O35 2.135974 1_555
Ni6 O40 2.142793 1_555
Ni6 O30 2.145742 1_555
Ni7 O10 1.982708 1_555
Ni7 O5 1.982708 1_555
Ni7 O47 1.986326 1_555
Ni7 O8 1.986326 1_555
Ni8 O11 2.029837 1_555
Ni8 O13 2.029837 1_555
Ni8 O25 2.062387 1_555
Ni8 O34 2.062387 1_555
Ni8 O48 2.111915 1_565
Ni8 O46 2.111915 1_455
Ni9 O43 2.027379 1_545
Ni9 O0 2.027379 1_555
Ni9 O33 2.081053 1_545
Ni9 O1 2.081053 1_555
Ni9 O2 2.095261 1_545
Ni9 O27 2.095261 1_555
Ni10 O39 1.974199 1_555
Ni10 O2 1.981719 1_555
Ni10 O24 2.126520 1_455
Ni10 O25 2.135974 1_555
Ni10 O14 2.142793 1_555
Ni10 O53 2.145742 1_555
Ni11 O36 1.974199 1_555
Ni11 O9 1.981719 1_555
Ni11 O31 2.126520 1_545
Ni11 O12 2.135974 1_555
Ni11 O56 2.142793 1_554
Ni11 O26 2.145742 1_555
Ni12 O43 1.951275 1_555
Ni12 O40 2.048600 1_565
Ni12 O21 2.062198 1_555
Ni12 O30 2.107796 1_565
Ni12 O24 2.151967 1_555
Ni12 O53 2.154632 1_655
Ni13 O38 2.027379 1_554
Ni13 O23 2.027379 1_455
Ni13 O15 2.081053 1_555
Ni13 O59 2.081053 1_454
Ni13 O4 2.095261 1_554
Ni13 O9 2.095261 1_455
Ni14 O17 2.029837 1_555
Ni14 O3 2.029837 1_555
Ni14 O12 2.062387 1_555
Ni14 O35 2.062387 1_555
Ni14 O55 2.111915 1_655
Ni14 O22 2.111915 1_545
Ni15 O57 2.063263 1_455
Ni15 O37 2.063263 1_565
Ni15 O55 2.102652 1_565
Ni15 O22 2.102652 1_455
Ni15 O50 2.104933 1_555
Ni15 O44 2.104933 1_555
O0 P7 1.554912 1_555
O1 P10 1.494983 1_555
O2 P11 1.561452 1_555
O3 P7 1.543890 1_555
O4 P3 1.561452 1_555
O5 P12 1.513287 1_555
O6 P6 1.493455 1_555
O7 P7 1.544423 1_555
O8 P3 1.544423 1_555
O9 P0 1.561452 1_555
O10 P2 1.513287 1_555
O11 P3 1.543890 1_555
O12 P15 1.567859 1_545
O13 P11 1.543890 1_555
O14 P1 1.547097 1_455
O15 P14 1.494983 1_555
O16 P1 1.493455 1_555
O17 P0 1.543890 1_555
O18 P2 1.594149 1_555
O19 P8 1.625262 1_555
O19 P6 1.655926 1_555
O20 P14 1.625262 1_555
O20 P4 1.655926 1_555
O21 P12 1.556851 1_555
O22 P9 1.526398 1_555
O23 P0 1.554912 1_555
O24 P12 1.594149 1_555
O25 P12 1.567859 1_455
O26 P14 1.587403 1_655
O27 P7 1.561452 1_555
O28 P9 1.625262 1_555
O28 P1 1.655926 1_555
O29 P13 1.529796 1_655
O30 P9 1.587403 1_545
O31 P15 1.594149 1_555
O32 P10 1.625262 1_555
O32 P13 1.655926 1_555
O33 P9 1.494983 1_555
O34 P2 1.567859 1_565
O35 P5 1.567859 1_655
O36 P4 1.493455 1_555
O37 P5 1.556851 1_555
O38 P3 1.554912 1_555
O39 P13 1.493455 1_555
O40 P13 1.547097 1_655
O41 P4 1.547097 1_565
O42 P0 1.544423 1_555
O43 P11 1.554912 1_555
O44 P1 1.529796 1_455
O45 P6 1.529796 1_545
O46 P8 1.526398 1_555
O47 P11 1.544423 1_555
O48 P10 1.526398 1_555
O49 P8 1.587403 1_455
O50 P4 1.529796 1_565
O51 P5 1.513287 1_555
O52 P15 1.513287 1_555
O53 P10 1.587403 1_565
O54 P5 1.594149 1_555
O55 P14 1.526398 1_555
O56 P6 1.547097 1_545
O57 P15 1.556851 1_555
O58 P2 1.556851 1_555
O59 P8 1.494983 1_555
