# generated using pymatgen
data_LiFePO4
_symmetry_space_group_name_H-M   'P 1'
_cell_length_a   6.29964009
_cell_length_b   10.00911136
_cell_length_c   6.06375865
_cell_angle_alpha   101.40069227
_cell_angle_beta   99.85489874
_cell_angle_gamma   71.39626523
_symmetry_Int_Tables_number   1
_chemical_formula_structural   LiFePO4
_chemical_formula_sum   'Li4 Fe4 P4 O16'
_cell_volume   352.80234615
_cell_formula_units_Z   4
loop_
 _symmetry_equiv_pos_site_id
 _symmetry_equiv_pos_as_xyz
  1  'x, y, z'
loop_
 _atom_site_type_symbol
 _atom_site_label
 _atom_site_symmetry_multiplicity
 _atom_site_fract_x
 _atom_site_fract_y
 _atom_site_fract_z
 _atom_site_occupancy
  Li  Li0  1  0.23106200  0.74021100  0.00021500  1
  Li  Li1  1  0.32783600  0.01297500  0.82531000  1
  Li  Li2  1  0.67216400  0.98702500  0.17469000  1
  Li  Li3  1  0.76893800  0.25978900  0.99978500  1
  Fe  Fe0  1  0.23129200  0.32222200  0.62687600  1
  Fe  Fe1  1  0.23869700  0.74222200  0.50104500  1
  Fe  Fe2  1  0.76130300  0.25777800  0.49895500  1
  Fe  Fe3  1  0.76870800  0.67777800  0.37312400  1
  P  P0  1  0.32262500  0.43593900  0.19150200  1
  P  P1  1  0.18554600  0.04553700  0.30467400  1
  P  P2  1  0.81445400  0.95446300  0.69532600  1
  P  P3  1  0.67737500  0.56406100  0.80849800  1
  O  O0  1  0.24587400  0.11437800  0.55645700  1
  O  O1  1  0.18502500  0.40678600  0.35659700  1
  O  O2  1  0.25919300  0.37132100  0.94763300  1
  O  O3  1  0.07367700  0.87861700  0.75962300  1
  O  O4  1  0.33208200  0.06763700  0.14698400  1
  O  O5  1  0.26806900  0.60111000  0.21119700  1
  O  O6  1  0.21860400  0.88380800  0.29565800  1
  O  O7  1  0.41891900  0.63014600  0.74519200  1
  O  O8  1  0.58108100  0.36985400  0.25480800  1
  O  O9  1  0.78139600  0.11619200  0.70434200  1
  O  O10  1  0.73193100  0.39889000  0.78880300  1
  O  O11  1  0.66791800  0.93236300  0.85301600  1
  O  O12  1  0.92632300  0.12138300  0.24037700  1
  O  O13  1  0.74080700  0.62867900  0.05236700  1
  O  O14  1  0.81497500  0.59321400  0.64340300  1
  O  O15  1  0.75412600  0.88562200  0.44354300  1
loop_
_geom_bond_atom_site_label_1
_geom_bond_atom_site_label_2
_geom_bond_distance
_geom_bond_site_symmetry_2
Li0 O5 2.006114 1_555
Li0 O7 2.031405 1_554
Li0 O6 2.059027 1_555
Li0 O3 2.111398 1_554
Li1 O4 1.916844 1_556
Li1 O0 1.996525 1_555
Li1 O11 2.023995 1_545
Li1 O3 2.339756 1_545
Li2 O11 1.916844 1_554
Li2 O15 1.996525 1_555
Li2 O4 2.023995 1_565
Li2 O12 2.339756 1_565
Li3 O10 2.006114 1_555
Li3 O8 2.031405 1_556
Li3 O9 2.059027 1_555
Li3 O12 2.111398 1_556
Fe0 O2 1.901476 1_555
Fe0 O1 1.927399 1_555
Fe0 O0 2.014664 1_555
Fe1 O7 2.001924 1_555
Fe1 O5 2.020238 1_555
Fe1 O6 2.026015 1_555
Fe1 O3 2.051616 1_555
Fe2 O8 2.001924 1_555
Fe2 O10 2.020238 1_555
Fe2 O9 2.026015 1_555
Fe2 O12 2.051616 1_555
Fe3 O13 1.901476 1_555
Fe3 O14 1.927399 1_555
Fe3 O15 2.014664 1_555
O0 P1 1.582007 1_555
O1 P0 1.553271 1_555
O2 P0 1.532725 1_556
O3 P2 1.582129 1_455
O4 P1 1.526908 1_555
O5 P0 1.561721 1_555
O6 P1 1.555819 1_565
O7 P3 1.560491 1_555
O8 P0 1.560491 1_555
O9 P2 1.555819 1_545
O10 P3 1.561721 1_555
O11 P2 1.526908 1_555
O12 P1 1.582129 1_655
O13 P3 1.532725 1_554
O14 P3 1.553271 1_555
O15 P2 1.582007 1_555
