# generated using pymatgen
data_Co6O5F7
_symmetry_space_group_name_H-M   'P 1'
_cell_length_a   4.62862800
_cell_length_b   5.52889128
_cell_length_c   7.65434745
_cell_angle_alpha   86.42532411
_cell_angle_beta   88.06429905
_cell_angle_gamma   86.76447185
_symmetry_Int_Tables_number   1
_chemical_formula_structural   Co6O5F7
_chemical_formula_sum   'Co6 O5 F7'
_cell_volume   195.10102223
_cell_formula_units_Z   1
loop_
 _symmetry_equiv_pos_site_id
 _symmetry_equiv_pos_as_xyz
  1  'x, y, z'
loop_
 _atom_site_type_symbol
 _atom_site_label
 _atom_site_symmetry_multiplicity
 _atom_site_fract_x
 _atom_site_fract_y
 _atom_site_fract_z
 _atom_site_occupancy
  Co  Co0  1  0.53554300  0.52081100  0.01256800  1
  Co  Co1  1  0.46776700  0.17783000  0.34585800  1
  Co  Co2  1  0.51830800  0.83049400  0.64904300  1
  Co  Co3  1  0.00328200  0.33858000  0.67279800  1
  Co  Co4  1  0.98745400  0.66058500  0.32744400  1
  Co  Co5  1  0.99305500  0.98697100  0.00067800  1
  O  O0  1  0.80717200  0.68915000  0.11101100  1
  O  O1  1  0.71029900  0.54342300  0.75776100  1
  O  O2  1  0.69179500  0.86620100  0.43190700  1
  O  O3  1  0.30378900  0.12553500  0.57423700  1
  O  O4  1  0.28992600  0.46248300  0.23460100  1
  F  F0  1  0.80536900  0.37416800  0.42674900  1
  F  F1  1  0.79964200  0.04321200  0.77061600  1
  F  F2  1  0.68800100  0.19654000  0.10895600  1
  F  F3  1  0.31564800  0.80165700  0.88163200  1
  F  F4  1  0.19178200  0.94497300  0.23638200  1
  F  F5  1  0.20497600  0.30368500  0.90699000  1
  F  F6  1  0.18619100  0.63370400  0.55077000  1
loop_
_geom_bond_atom_site_label_1
_geom_bond_atom_site_label_2
_geom_bond_distance
_geom_bond_site_symmetry_2
Co0 O0 1.816126 1_555
Co0 F2 1.996011 1_555
Co0 O4 2.031587 1_555
Co0 F3 2.036650 1_554
Co0 O1 2.085266 1_554
Co0 F5 2.201627 1_554
Co1 O3 1.894098 1_555
Co1 O4 1.900973 1_555
Co1 O2 2.044657 1_545
Co1 F2 2.049791 1_555
Co1 F0 2.084281 1_555
Co1 F4 2.093804 1_545
Co2 O2 1.825642 1_555
Co2 O3 1.927133 1_565
Co2 O1 1.930648 1_555
Co2 F3 1.985833 1_555
Co2 F1 2.082320 1_565
Co2 F6 2.117012 1_555
Co3 O1 1.844870 1_455
Co3 O3 1.935532 1_555
Co3 F1 2.022259 1_455
Co3 F6 2.040622 1_555
Co3 F5 2.042482 1_555
Co3 F0 2.115390 1_455
Co4 O0 1.873940 1_555
Co4 O4 1.876569 1_655
Co4 O2 1.915288 1_555
Co4 F0 1.937282 1_555
Co4 F4 1.959399 1_655
Co4 F6 1.962010 1_655
Co5 F2 1.969559 1_565
Co5 F3 1.990335 1_654
Co5 F1 2.001491 1_564
Co5 O0 2.025406 1_555
Co5 F4 2.047136 1_655
Co5 F5 2.128963 1_664
