# generated using pymatgen
data_Na5V36O88
_symmetry_space_group_name_H-M   'P 1'
_cell_length_a   22.23769727
_cell_length_b   3.67549554
_cell_length_c   20.69595433
_cell_angle_alpha   90.00000000
_cell_angle_beta   105.81535474
_cell_angle_gamma   90.00000000
_symmetry_Int_Tables_number   1
_chemical_formula_structural   Na5V36O88
_chemical_formula_sum   'Na5 V36 O88'
_cell_volume   1627.54008682
_cell_formula_units_Z   1
loop_
 _symmetry_equiv_pos_site_id
 _symmetry_equiv_pos_as_xyz
  1  'x, y, z'
loop_
 _atom_site_type_symbol
 _atom_site_label
 _atom_site_symmetry_multiplicity
 _atom_site_fract_x
 _atom_site_fract_y
 _atom_site_fract_z
 _atom_site_occupancy
  Na  Na0  1  0.17632150  0.75000000  0.67251892  1
  Na  Na1  1  0.17572590  0.75000000  0.17244690  1
  Na  Na2  1  0.82085970  0.25000000  0.84303002  1
  Na  Na3  1  0.83371215  0.25000000  0.69824179  1
  Na  Na4  1  0.82424569  0.25000000  0.32677136  1
  V  V0  1  0.02566973  0.25000000  0.70154699  1
  V  V1  1  0.09084508  0.75000000  0.93120428  1
  V  V2  1  0.06023673  0.25000000  0.54384623  1
  V  V3  1  0.02527239  0.25000000  0.20222513  1
  V  V4  1  0.09033244  0.75000000  0.43047374  1
  V  V5  1  0.05866430  0.25000000  0.04358660  1
  V  V6  1  0.28483403  0.25000000  0.91376260  1
  V  V7  1  0.25374709  0.75000000  0.52552906  1
  V  V8  1  0.31739603  0.25000000  0.75599258  1
  V  V9  1  0.28500643  0.25000000  0.41375684  1
  V  V10  1  0.36813728  0.75000000  0.66194791  1
  V  V11  1  0.42982067  0.25000000  0.89090371  1
  V  V12  1  0.25413819  0.75000000  0.02572721  1
  V  V13  1  0.31731772  0.25000000  0.25599572  1
  V  V14  1  0.40769196  0.75000000  0.50731891  1
  V  V15  1  0.36812389  0.75000000  0.16200237  1
  V  V16  1  0.43036033  0.25000000  0.39146882  1
  V  V17  1  0.59248394  0.25000000  0.99289626  1
  V  V18  1  0.40721908  0.75000000  0.00678580  1
  V  V19  1  0.57067626  0.75000000  0.60983594  1
  V  V20  1  0.63258782  0.25000000  0.83847775  1
  V  V21  1  0.59336753  0.25000000  0.49314302  1
  V  V22  1  0.68389741  0.75000000  0.74406701  1
  V  V23  1  0.74605848  0.25000000  0.97654354  1
  V  V24  1  0.56988776  0.75000000  0.10894975  1
  V  V25  1  0.63179293  0.25000000  0.33809266  1
  V  V26  1  0.71236113  0.75000000  0.58261763  1
  V  V27  1  0.68261724  0.75000000  0.24422454  1
  V  V28  1  0.74687530  0.25000000  0.47372662  1
  V  V29  1  0.71524955  0.75000000  0.08697526  1
  V  V30  1  0.94114444  0.75000000  0.95686408  1
  V  V31  1  0.91149796  0.25000000  0.56600161  1
  V  V32  1  0.97552946  0.75000000  0.79799136  1
  V  V33  1  0.94112873  0.75000000  0.45481207  1
  V  V34  1  0.91045745  0.25000000  0.06950042  1
  V  V35  1  0.97484204  0.75000000  0.29727170  1
  O  O0  1  0.00564183  0.75000000  0.71414485  1
  O  O1  1  0.08018546  0.25000000  0.95463021  1
  O  O2  1  0.01015665  0.25000000  0.61005560  1
  O  O3  1  0.09391728  0.75000000  0.85361896  1
  O  O4  1  0.04402162  0.75000000  0.52258343  1
  O  O5  1  0.10136740  0.25000000  0.72379454  1
  O  O6  1  0.17286674  0.75000000  0.97894903  1
  O  O7  1  0.00449655  0.75000000  0.21300954  1
  O  O8  1  0.08072007  0.25000000  0.45432288  1
  O  O9  1  0.00785163  0.25000000  0.11023091  1
  O  O10  1  0.12945574  0.25000000  0.59888934  1
  O  O11  1  0.21583547  0.25000000  0.86307176  1
  O  O12  1  0.09537639  0.75000000  0.35388547  1
  O  O13  1  0.04260703  0.75000000  0.02195904  1
  O  O14  1  0.10097289  0.25000000  0.22349231  1
  O  O15  1  0.17309000  0.75000000  0.47973837  1
  O  O16  1  0.24106952  0.25000000  0.73127707  1
  O  O17  1  0.30164268  0.75000000  0.93860169  1
  O  O18  1  0.25024237  0.75000000  0.60388171  1
  O  O19  1  0.12779857  0.25000000  0.09910191  1
  O  O20  1  0.33343774  0.25000000  0.85007318  1
  O  O21  1  0.21599275  0.25000000  0.36314249  1
  O  O22  1  0.26544868  0.25000000  0.50341923  1
  O  O23  1  0.39084684  0.25000000  0.98424427  1
  O  O24  1  0.33610401  0.75000000  0.74782202  1
  O  O25  1  0.34515645  0.25000000  0.67332223  1
  O  O26  1  0.24105992  0.25000000  0.23127840  1
  O  O27  1  0.30162227  0.75000000  0.43869110  1
  O  O28  1  0.42579638  0.75000000  0.91679649  1
  O  O29  1  0.35549027  0.75000000  0.57106694  1
  O  O30  1  0.24970627  0.75000000  0.10376381  1
  O  O31  1  0.43429886  0.25000000  0.81362454  1
  O  O32  1  0.33362568  0.25000000  0.35018781  1
  O  O33  1  0.26516180  0.25000000  0.00322589  1
  O  O34  1  0.44230535  0.75000000  0.69057029  1
  O  O35  1  0.39104487  0.25000000  0.48399269  1
  O  O36  1  0.33623414  0.75000000  0.24790237  1
  O  O37  1  0.51908678  0.25000000  0.94050733  1
  O  O38  1  0.34520556  0.25000000  0.17331186  1
  O  O39  1  0.42593358  0.75000000  0.41664442  1
  O  O40  1  0.35518391  0.75000000  0.07099775  1
  O  O41  1  0.48111637  0.75000000  0.55958736  1
  O  O42  1  0.55825913  0.25000000  0.80924773  1
  O  O43  1  0.43453307  0.25000000  0.31424710  1
  O  O44  1  0.56478782  0.75000000  0.68633678  1
  O  O45  1  0.44231750  0.75000000  0.19034758  1
  O  O46  1  0.51893617  0.25000000  0.44089567  1
  O  O47  1  0.64343844  0.25000000  0.92932463  1
  O  O48  1  0.57391961  0.25000000  0.58421846  1
  O  O49  1  0.65509778  0.75000000  0.82647395  1
  O  O50  1  0.48056846  0.75000000  0.05947869  1
  O  O51  1  0.66552057  0.25000000  0.75316581  1
  O  O52  1  0.61150568  0.75000000  0.51889467  1
  O  O53  1  0.55753321  0.25000000  0.30962727  1
  O  O54  1  0.73422465  0.75000000  0.99778961  1
  O  O55  1  0.66533125  0.75000000  0.65100715  1
  O  O56  1  0.56555119  0.75000000  0.18626343  1
  O  O57  1  0.74677032  0.25000000  0.89699588  1
  O  O58  1  0.64511797  0.25000000  0.42847707  1
  O  O59  1  0.57412341  0.25000000  0.08326101  1
  O  O60  1  0.69699525  0.25000000  0.56044725  1
  O  O61  1  0.76151835  0.75000000  0.76724390  1
  O  O62  1  0.65486412  0.75000000  0.32659590  1
  O  O63  1  0.66385727  0.25000000  0.25202685  1
  O  O64  1  0.60865257  0.75000000  0.01558439  1
  O  O65  1  0.73501127  0.75000000  0.49524688  1
  O  O66  1  0.78250458  0.75000000  0.63723590  1
  O  O67  1  0.66640485  0.75000000  0.14991655  1
  O  O68  1  0.87171933  0.75000000  0.90106086  1
  O  O69  1  0.75103932  0.25000000  0.39573953  1
  O  O70  1  0.69882316  0.25000000  0.06144121  1
  O  O71  1  0.75890921  0.75000000  0.26874576  1
  O  O72  1  0.82760686  0.25000000  0.52058167  1
  O  O73  1  0.89837531  0.75000000  0.77206432  1
  O  O74  1  0.95727064  0.25000000  0.97769356  1
  O  O75  1  0.90873167  0.25000000  0.64486903  1
  O  O76  1  0.78433367  0.75000000  0.13754248  1
  O  O77  1  0.87195708  0.75000000  0.39951877  1
  O  O78  1  0.99078548  0.75000000  0.88832561  1
  O  O79  1  0.91954936  0.75000000  0.54337755  1
  O  O80  1  0.99470881  0.25000000  0.78632125  1
  O  O81  1  0.82659565  0.25000000  0.01955118  1
  O  O82  1  0.89912325  0.75000000  0.27594847  1
  O  O83  1  0.95705195  0.25000000  0.47815106  1
  O  O84  1  0.90465935  0.25000000  0.14590975  1
  O  O85  1  0.99231175  0.75000000  0.38928680  1
  O  O86  1  0.91893567  0.75000000  0.04517991  1
  O  O87  1  0.99557390  0.25000000  0.28650424  1
loop_
_geom_bond_atom_site_label_1
_geom_bond_atom_site_label_2
_geom_bond_distance
_geom_bond_site_symmetry_2
Na0 O10 2.433083 1_565
Na0 O10 2.433083 1_555
Na0 O16 2.444356 1_565
Na0 O16 2.444356 1_555
Na0 O18 2.448026 1_555
Na0 O5 2.871557 1_565
Na0 O5 2.871557 1_555
Na1 O19 2.436300 1_565
Na1 O19 2.436300 1_555
Na1 O30 2.449848 1_555
Na1 O26 2.450801 1_565
Na1 O26 2.450801 1_555
Na1 O14 2.866001 1_555
Na1 O14 2.866001 1_565
Na2 O57 2.228214 1_555
Na2 O68 2.314842 1_555
Na2 O68 2.314842 1_545
Na2 O61 2.539804 1_545
Na2 O61 2.539804 1_555
Na3 O75 2.237785 1_555
Na3 O66 2.341892 1_545
Na3 O66 2.341892 1_555
Na3 O73 2.565501 1_555
Na3 O73 2.565501 1_545
Na4 O77 2.428801 1_545
Na4 O77 2.428801 1_555
Na4 O69 2.440108 1_555
Na4 O71 2.445285 1_545
Na4 O71 2.445285 1_555
Na4 O82 2.865464 1_555
Na4 O82 2.865464 1_545
O0 V0 1.925343 1_555
O0 V0 1.925343 1_565
O0 V32 2.023114 1_455
O1 V1 1.931632 1_545
O1 V1 1.931632 1_555
O1 V5 2.024529 1_556
O2 V0 1.829838 1_555
O2 V2 1.987379 1_555
O2 V31 2.134088 1_455
O3 V1 1.625651 1_555
O4 V2 1.901183 1_565
O4 V2 1.901183 1_555
O4 V33 2.335246 1_455
O4 V4 2.400967 1_555
O5 V0 1.619620 1_555
O6 V12 1.802733 1_556
O6 V1 1.822325 1_555
O7 V3 1.922704 1_565
O7 V3 1.922704 1_555
O7 V35 2.025549 1_455
O8 V4 1.929803 1_545
O8 V4 1.929803 1_555
O8 V2 2.024909 1_555
O9 V3 1.836549 1_555
O9 V5 2.007160 1_555
O9 V34 2.099100 1_455
O10 V2 1.646596 1_555
O11 V6 1.605453 1_555
O12 V4 1.619237 1_555
O13 V5 1.902117 1_565
O13 V5 1.902117 1_555
O13 V30 2.291061 1_454
O13 V1 2.403490 1_554
O14 V3 1.619787 1_555
O15 V7 1.785690 1_555
O15 V4 1.844890 1_555
O16 V8 1.633806 1_555
O17 V6 1.917436 1_565
O17 V6 1.917436 1_555
O17 V12 2.324988 1_556
O17 V18 2.386944 1_556
O18 V7 1.644534 1_555
O19 V5 1.649491 1_555
O20 V8 1.881437 1_555
O20 V6 1.918900 1_555
O20 V11 2.078635 1_555
O21 V9 1.605094 1_555
O22 V7 1.928553 1_555
O22 V7 1.928553 1_545
O22 V9 2.018042 1_555
O23 V18 1.906549 1_556
O23 V18 1.906549 1_546
O23 V11 2.322818 1_555
O23 V6 2.410614 1_555
O24 V8 1.901928 1_555
O24 V8 1.901928 1_565
O24 V10 2.087131 1_555
O25 V10 1.938934 1_545
O25 V10 1.938934 1_555
O25 V8 1.970820 1_555
O26 V13 1.632350 1_555
O27 V9 1.917344 1_555
O27 V9 1.917344 1_565
O27 V7 2.325140 1_555
O27 V14 2.398935 1_555
O28 V11 1.923182 1_565
O28 V11 1.923182 1_555
O28 V18 2.014605 1_556
O29 V10 1.824398 1_555
O29 V14 1.980653 1_555
O29 V7 2.201134 1_555
O30 V12 1.644638 1_555
O31 V11 1.629326 1_555
O32 V13 1.883166 1_555
O32 V9 1.917066 1_555
O32 V16 2.087013 1_555
O33 V12 1.927822 1_545
O33 V12 1.927822 1_555
O33 V6 2.015200 1_554
O34 V10 1.593310 1_555
O35 V14 1.910498 1_555
O35 V14 1.910498 1_545
O35 V16 2.311631 1_555
O35 V9 2.409360 1_555
O36 V13 1.902822 1_565
O36 V13 1.902822 1_555
O36 V15 2.085809 1_555
O37 V17 1.695579 1_555
O37 V11 1.970690 1_555
O38 V15 1.938264 1_555
O38 V15 1.938264 1_545
O38 V13 1.972646 1_555
O39 V16 1.920011 1_565
O39 V16 1.920011 1_555
O39 V14 2.025117 1_555
O40 V15 1.826113 1_555
O40 V18 1.985755 1_555
O40 V12 2.186183 1_555
O41 V14 1.695119 1_555
O41 V19 1.979656 1_555
O42 V20 1.597812 1_555
O43 V16 1.625920 1_555
O44 V19 1.623840 1_555
O45 V15 1.593337 1_555
O46 V21 1.712688 1_555
O46 V16 1.956510 1_555
O47 V20 1.829194 1_555
O47 V17 1.956411 1_555
O47 V23 2.224208 1_555
O48 V19 1.919492 1_545
O48 V19 1.919492 1_555
O48 V21 2.045529 1_555
O49 V20 1.938398 1_555
O49 V20 1.938398 1_565
O49 V22 1.978439 1_555
O50 V18 1.697126 1_555
O50 V24 1.971040 1_555
O51 V22 1.903083 1_555
O51 V22 1.903083 1_545
O51 V20 2.087709 1_555
O52 V21 1.925325 1_565
O52 V21 1.925325 1_555
O52 V26 2.270934 1_555
O52 V19 2.301783 1_555
O53 V25 1.594926 1_555
O54 V23 1.924314 1_565
O54 V23 1.924314 1_555
O54 V29 2.002373 1_556
O55 V22 1.856439 1_555
O55 V26 1.975841 1_555
O55 V19 2.044275 1_555
O56 V24 1.629007 1_555
O57 V23 1.650699 1_555
O57 V20 2.497571 1_555
O58 V25 1.812398 1_555
O58 V21 1.988713 1_555
O58 V28 2.200546 1_555
O59 V24 1.922535 1_545
O59 V24 1.922535 1_555
O59 V17 2.020027 1_554
O60 V26 1.902406 1_555
O60 V26 1.902406 1_545
O60 V21 2.345431 1_555
O60 V28 2.353015 1_555
O61 V22 1.660795 1_555
O62 V25 1.940023 1_565
O62 V25 1.940023 1_555
O62 V27 1.964831 1_555
O63 V27 1.901091 1_555
O63 V27 1.901091 1_545
O63 V25 2.091275 1_555
O64 V17 1.906581 1_554
O64 V17 1.906581 1_564
O64 V24 2.320512 1_555
O64 V29 2.427568 1_555
O65 V28 1.925964 1_555
O65 V28 1.925964 1_565
O65 V26 2.004946 1_555
O66 V26 1.658235 1_555
O67 V27 1.885716 1_555
O67 V29 1.909946 1_555
O67 V24 2.081736 1_555
O68 V30 1.656929 1_555
O69 V28 1.641673 1_555
O70 V29 1.919581 1_555
O70 V29 1.919581 1_545
O70 V23 2.279589 1_554
O70 V17 2.403310 1_554
O71 V27 1.632958 1_555
O72 V28 1.792890 1_555
O72 V31 1.846081 1_555
O73 V32 1.652222 1_555
O74 V30 1.899339 1_545
O74 V30 1.899339 1_555
O74 V5 2.295135 1_656
O74 V34 2.402494 1_556
O75 V31 1.650064 1_555
O76 V29 1.605931 1_555
O77 V33 1.648082 1_555
O78 V32 1.806822 1_555
O78 V30 2.020931 1_555
O78 V1 2.159226 1_655
O79 V31 1.916848 1_555
O79 V31 1.916848 1_565
O79 V33 2.017280 1_555
O80 V32 1.916691 1_555
O80 V32 1.916691 1_545
O80 V0 2.051994 1_655
O81 V23 1.769430 1_554
O81 V34 1.869665 1_555
O82 V35 1.620166 1_555
O83 V33 1.908608 1_555
O83 V33 1.908608 1_545
O83 V31 2.309936 1_555
O83 V2 2.326631 1_655
O84 V34 1.621257 1_555
O85 V35 1.836894 1_555
O85 V33 1.993952 1_555
O85 V4 2.113091 1_655
O86 V34 1.928195 1_565
O86 V34 1.928195 1_555
O86 V30 2.019090 1_554
O87 V35 1.922374 1_555
O87 V35 1.922374 1_545
O87 V3 2.026430 1_655
