# generated using pymatgen
data_Li4MnV3(P2O7)4
_symmetry_space_group_name_H-M   'P 1'
_cell_length_a   8.29021000
_cell_length_b   4.85730600
_cell_length_c   26.66624802
_cell_angle_alpha   88.53806271
_cell_angle_beta   90.00000000
_cell_angle_gamma   90.00000000
_symmetry_Int_Tables_number   1
_chemical_formula_structural   Li4MnV3(P2O7)4
_chemical_formula_sum   'Li8 Mn2 V6 P16 O56'
_cell_volume   1073.44926141
_cell_formula_units_Z   2
loop_
 _symmetry_equiv_pos_site_id
 _symmetry_equiv_pos_as_xyz
  1  'x, y, z'
loop_
 _atom_site_type_symbol
 _atom_site_label
 _atom_site_symmetry_multiplicity
 _atom_site_fract_x
 _atom_site_fract_y
 _atom_site_fract_z
 _atom_site_occupancy
  Li  Li0  1  0.36123100  0.40986800  0.95646100  1
  Li  Li1  1  0.35983000  0.41363400  0.45666200  1
  Li  Li2  1  0.86123100  0.59013200  0.04353900  1
  Li  Li3  1  0.85983000  0.58636600  0.54333800  1
  Li  Li4  1  0.36157300  0.91010900  0.70620800  1
  Li  Li5  1  0.36119700  0.91006000  0.20663600  1
  Li  Li6  1  0.86119700  0.08994000  0.79336400  1
  Li  Li7  1  0.86157300  0.08989100  0.29379200  1
  Mn  Mn0  1  0.99724300  0.40058400  0.44272100  1
  Mn  Mn1  1  0.49724300  0.59941600  0.55727900  1
  V  V0  1  0.99957500  0.39841400  0.94285900  1
  V  V1  1  0.49957500  0.60158600  0.05714100  1
  V  V2  1  0.00073100  0.89931700  0.69255700  1
  V  V3  1  0.99978000  0.89833800  0.19299700  1
  V  V4  1  0.49978000  0.10166200  0.80700300  1
  V  V5  1  0.50073100  0.10068300  0.30744300  1
  P  P0  1  0.18016500  0.38919500  0.75550400  1
  P  P1  1  0.78675900  0.41853200  0.64655300  1
  P  P2  1  0.18104800  0.38850100  0.25586700  1
  P  P3  1  0.78427300  0.42007900  0.14652700  1
  P  P4  1  0.28427300  0.57992100  0.85347300  1
  P  P5  1  0.68104800  0.61149900  0.74413300  1
  P  P6  1  0.28675900  0.58146800  0.35344700  1
  P  P7  1  0.68016500  0.61080500  0.24449600  1
  P  P8  1  0.18028400  0.88856100  0.00559600  1
  P  P9  1  0.78412000  0.92000000  0.89645300  1
  P  P10  1  0.17649300  0.89134000  0.50388000  1
  P  P11  1  0.78525100  0.91902300  0.39737400  1
  P  P12  1  0.28412000  0.08000000  0.10354700  1
  P  P13  1  0.68028400  0.11143900  0.99440400  1
  P  P14  1  0.28525100  0.08097700  0.60262600  1
  P  P15  1  0.67649300  0.10866000  0.49612000  1
  O  O0  1  0.84340100  0.25627100  0.99854400  1
  O  O1  1  0.53808100  0.30492100  0.00443600  1
  O  O2  1  0.67739400  0.34355200  0.77628400  1
  O  O3  1  0.83958000  0.24781300  0.50179500  1
  O  O4  1  0.53255400  0.30198800  0.50451300  1
  O  O5  1  0.43407300  0.39332800  0.85396100  1
  O  O6  1  0.67773800  0.34279600  0.27614100  1
  O  O7  1  0.32414500  0.37551100  0.08760500  1
  O  O8  1  0.15341200  0.46832600  0.81334700  1
  O  O9  1  0.43624200  0.39390800  0.35306500  1
  O  O10  1  0.69697400  0.44032600  0.09631200  1
  O  O11  1  0.32640700  0.38087600  0.58854800  1
  O  O12  1  0.65434300  0.53085800  0.68658400  1
  O  O13  1  0.15434300  0.46914200  0.31341600  1
  O  O14  1  0.70305300  0.43337100  0.59631000  1
  O  O15  1  0.19697400  0.55967400  0.90368800  1
  O  O16  1  0.93624200  0.60609200  0.64693500  1
  O  O17  1  0.65341200  0.53167400  0.18665300  1
  O  O18  1  0.82414500  0.62448900  0.91239500  1
  O  O19  1  0.20305300  0.56662900  0.40369000  1
  O  O20  1  0.17773800  0.65720400  0.72385900  1
  O  O21  1  0.93407300  0.60667200  0.14603900  1
  O  O22  1  0.82640700  0.61912400  0.41145200  1
  O  O23  1  0.17739400  0.65644800  0.22371600  1
  O  O24  1  0.03808100  0.69507900  0.99556400  1
  O  O25  1  0.84397100  0.75598500  0.74841100  1
  O  O26  1  0.34340100  0.74372900  0.00145600  1
  O  O27  1  0.03255400  0.69801200  0.49548700  1
  O  O28  1  0.53852400  0.80482900  0.75440300  1
  O  O29  1  0.84379000  0.75609600  0.24845200  1
  O  O30  1  0.33958000  0.75218700  0.49820500  1
  O  O31  1  0.53878300  0.80483800  0.25443400  1
  O  O32  1  0.67747300  0.84335000  0.02623100  1
  O  O33  1  0.32453200  0.87554700  0.83766500  1
  O  O34  1  0.43411600  0.89358800  0.10392300  1
  O  O35  1  0.67050000  0.83779200  0.52765200  1
  O  O36  1  0.69682400  0.94052200  0.84634100  1
  O  O37  1  0.32633000  0.87603300  0.33634200  1
  O  O38  1  0.15324700  0.96806200  0.06331800  1
  O  O39  1  0.43472700  0.89403500  0.60367400  1
  O  O40  1  0.69658900  0.93764000  0.34712300  1
  O  O41  1  0.19658900  0.06236000  0.65287700  1
  O  O42  1  0.65324700  0.03193800  0.93668200  1
  O  O43  1  0.15482000  0.97224500  0.56224900  1
  O  O44  1  0.82633000  0.12396700  0.66365800  1
  O  O45  1  0.19682400  0.05947800  0.15365900  1
  O  O46  1  0.93411600  0.10641200  0.89607700  1
  O  O47  1  0.65482000  0.02775500  0.43775100  1
  O  O48  1  0.82453200  0.12445300  0.16233500  1
  O  O49  1  0.17747300  0.15665000  0.97376900  1
  O  O50  1  0.93472700  0.10596500  0.39632600  1
  O  O51  1  0.03878300  0.19516200  0.74556600  1
  O  O52  1  0.34379000  0.24390400  0.75154800  1
  O  O53  1  0.17050000  0.16220800  0.47234800  1
  O  O54  1  0.03852400  0.19517100  0.24559700  1
  O  O55  1  0.34397100  0.24401500  0.25158900  1
loop_
_geom_bond_atom_site_label_1
_geom_bond_atom_site_label_2
_geom_bond_distance
_geom_bond_site_symmetry_2
Li0 O1 2.003182 1_556
Li0 O49 2.004388 1_555
Li0 O26 2.047087 1_556
Li0 O15 2.076511 1_555
Li1 O4 1.984279 1_555
Li1 O30 2.013103 1_555
Li1 O53 2.025822 1_555
Li1 O19 2.045310 1_555
Li2 O24 2.003182 1_654
Li2 O32 2.004388 1_555
Li2 O0 2.047087 1_554
Li2 O10 2.076511 1_555
Li3 O27 1.984279 1_655
Li3 O3 2.013103 1_555
Li3 O35 2.025822 1_555
Li3 O14 2.045310 1_555
Li4 O20 2.005933 1_555
Li4 O28 2.007893 1_555
Li4 O52 2.052392 1_565
Li4 O41 2.094388 1_565
Li5 O23 2.004540 1_555
Li5 O31 2.004997 1_555
Li5 O55 2.046421 1_565
Li5 O45 2.080157 1_565
Li6 O2 2.004540 1_555
Li6 O51 2.004997 1_655
Li6 O25 2.046421 1_545
Li6 O36 2.080157 1_545
Li7 O6 2.005933 1_555
Li7 O54 2.007893 1_655
Li7 O29 2.052392 1_545
Li7 O40 2.094388 1_545
Mn0 O22 1.944924 1_555
Mn0 O50 1.984308 1_555
Mn0 O53 1.995295 1_655
Mn0 O27 2.063110 1_655
Mn0 O19 2.145249 1_655
Mn0 O3 2.163543 1_555
Mn1 O11 1.944924 1_555
Mn1 O39 1.984308 1_555
Mn1 O35 1.995295 1_555
Mn1 O4 2.063110 1_555
Mn1 O14 2.145249 1_555
Mn1 O30 2.163543 1_555
O0 P13 1.529607 1_555
O0 V0 2.075001 1_555
O1 P13 1.535385 1_554
O1 V1 2.063244 1_555
O2 P5 1.540431 1_555
O2 V4 2.042184 1_555
O3 P15 1.520837 1_555
O4 P15 1.538364 1_555
O5 P4 1.537292 1_555
O5 V4 1.990554 1_555
O6 P7 1.533339 1_555
O6 V5 2.045238 1_555
O7 P12 1.523162 1_555
O7 V1 1.983786 1_555
O8 P0 1.614418 1_555
O8 P4 1.626428 1_555
O9 P6 1.538276 1_555
O9 V5 1.970498 1_555
O10 P3 1.523081 1_555
O10 V1 2.083490 1_555
O11 P14 1.533433 1_555
O12 P5 1.608776 1_555
O12 P1 1.634618 1_555
O13 P2 1.608776 1_555
O13 P6 1.634618 1_555
O14 P1 1.508928 1_555
O15 P4 1.523081 1_555
O15 V0 2.083490 1_455
O16 P1 1.538276 1_555
O16 V2 1.970498 1_655
O17 P7 1.614418 1_555
O17 P3 1.626428 1_555
O18 P9 1.523162 1_555
O18 V0 1.983786 1_555
O19 P6 1.508928 1_555
O20 P0 1.533339 1_555
O20 V2 2.045238 1_555
O21 P3 1.537292 1_555
O21 V3 1.990554 1_555
O22 P11 1.533433 1_555
O23 P2 1.540431 1_555
O23 V3 2.042184 1_455
O24 P8 1.535385 1_556
O24 V0 2.063244 1_455
O25 P5 1.527723 1_555
O25 V2 2.083038 1_655
O26 P8 1.529607 1_555
O26 V1 2.075001 1_555
O27 P10 1.538364 1_555
O28 P5 1.538191 1_555
O28 V4 2.062179 1_565
O29 P7 1.533957 1_555
O29 V3 2.069867 1_555
O30 P10 1.520837 1_555
O31 P7 1.531347 1_555
O31 V5 2.065499 1_565
O32 P13 1.536279 1_564
O32 V1 2.045509 1_555
O33 P4 1.523202 1_555
O33 V4 1.984880 1_565
O34 P12 1.538110 1_565
O34 V1 1.988147 1_555
O35 P15 1.544043 1_565
O36 P9 1.520717 1_555
O36 V4 2.083163 1_565
O37 P6 1.526282 1_555
O37 V5 1.957565 1_565
O38 P8 1.612115 1_555
O38 P12 1.628909 1_565
O39 P14 1.536098 1_565
O40 P11 1.529011 1_555
O40 V5 2.083375 1_565
O41 P14 1.529011 1_555
O41 V2 2.083375 1_545
O42 P13 1.612115 1_555
O42 P9 1.628909 1_545
O43 P14 1.623716 1_565
O43 P10 1.624981 1_555
O44 P1 1.526282 1_555
O44 V2 1.957565 1_645
O45 P12 1.520717 1_555
O45 V3 2.083163 1_445
O46 P9 1.538110 1_545
O46 V0 1.988147 1_555
O47 P11 1.623716 1_545
O47 P15 1.624981 1_555
O48 P3 1.523202 1_555
O48 V3 1.984880 1_545
O49 P8 1.536279 1_546
O49 V0 2.045509 1_455
O50 P11 1.536098 1_545
O51 P0 1.531347 1_555
O51 V2 2.065499 1_545
O52 P0 1.533957 1_555
O52 V4 2.069867 1_555
O53 P10 1.544043 1_545
O54 P2 1.538191 1_555
O54 V3 2.062179 1_445
O55 P2 1.527723 1_555
O55 V5 2.083038 1_555
