# generated using pymatgen
data_Cu8O7
_symmetry_space_group_name_H-M   'P 1'
_cell_length_a   6.45324548
_cell_length_b   6.45324548
_cell_length_c   5.89984416
_cell_angle_alpha   63.51024291
_cell_angle_beta   63.51024291
_cell_angle_gamma   54.24550176
_symmetry_Int_Tables_number   1
_chemical_formula_structural   Cu8O7
_chemical_formula_sum   'Cu8 O7'
_cell_volume   172.54328034
_cell_formula_units_Z   1
loop_
 _symmetry_equiv_pos_site_id
 _symmetry_equiv_pos_as_xyz
  1  'x, y, z'
loop_
 _atom_site_type_symbol
 _atom_site_label
 _atom_site_symmetry_multiplicity
 _atom_site_fract_x
 _atom_site_fract_y
 _atom_site_fract_z
 _atom_site_occupancy
  Cu  Cu0  1  0.00223600  0.00223600  0.00794000  1
  Cu  Cu1  1  0.50914800  0.50914800  0.97146700  1
  Cu  Cu2  1  0.50065200  0.00758000  0.99917300  1
  Cu  Cu3  1  0.00758000  0.50065200  0.99917300  1
  Cu  Cu4  1  0.74434100  0.74434100  0.49913200  1
  Cu  Cu5  1  0.26531100  0.26531100  0.49987400  1
  Cu  Cu6  1  0.26416700  0.75833200  0.51485200  1
  Cu  Cu7  1  0.75833200  0.26416700  0.51485200  1
  O  O0  1  0.81093200  0.81093200  0.12989500  1
  O  O1  1  0.32123100  0.32123100  0.12990700  1
  O  O2  1  0.19393000  0.19393000  0.87374000  1
  O  O3  1  0.07176500  0.07176500  0.63048600  1
  O  O4  1  0.69179100  0.69179100  0.85809600  1
  O  O5  1  0.94608300  0.94608300  0.36749400  1
  O  O6  1  0.45236500  0.45236500  0.40544300  1
loop_
_geom_bond_atom_site_label_1
_geom_bond_atom_site_label_2
_geom_bond_distance
_geom_bond_site_symmetry_2
Cu0 O5 1.882703 1_445
Cu0 O2 1.930886 1_554
Cu0 O0 1.939615 1_445
Cu0 O3 1.953042 1_554
Cu1 O4 1.855443 1_555
Cu1 O1 1.873779 1_556
Cu1 O6 2.303725 1_556
Cu2 O2 1.908607 1_555
Cu2 O0 1.936372 1_546
Cu2 O1 1.972219 1_556
Cu2 O4 2.006706 1_545
Cu3 O2 1.908607 1_555
Cu3 O0 1.936372 1_456
Cu3 O1 1.972219 1_556
Cu3 O4 2.006706 1_455
Cu4 O4 1.888978 1_555
Cu4 O0 1.913252 1_555
Cu4 O5 2.042003 1_555
Cu5 O2 1.929997 1_555
Cu5 O6 1.930685 1_555
Cu5 O1 1.942082 1_555
Cu5 O3 1.954401 1_555
Cu6 O6 1.850810 1_555
Cu6 O3 1.907532 1_565
Cu6 O5 2.045284 1_455
Cu7 O6 1.850810 1_555
Cu7 O3 1.907532 1_655
Cu7 O5 2.045284 1_545
