# generated using pymatgen
data_KCd6H4C12ClO26
_symmetry_space_group_name_H-M   'P 1'
_cell_length_a   9.36086500
_cell_length_b   9.41424742
_cell_length_c   10.38050324
_cell_angle_alpha   63.41929798
_cell_angle_beta   63.75113350
_cell_angle_gamma   60.68003485
_symmetry_Int_Tables_number   1
_chemical_formula_structural   KCd6H4C12ClO26
_chemical_formula_sum   'K1 Cd6 H4 C12 Cl1 O26'
_cell_volume   683.46326851
_cell_formula_units_Z   1
loop_
 _symmetry_equiv_pos_site_id
 _symmetry_equiv_pos_as_xyz
  1  'x, y, z'
loop_
 _atom_site_type_symbol
 _atom_site_label
 _atom_site_symmetry_multiplicity
 _atom_site_fract_x
 _atom_site_fract_y
 _atom_site_fract_z
 _atom_site_occupancy
  K  K0  1  0.99393900  0.00155200  0.00030000  1
  Cd  Cd0  1  0.27638900  0.78714400  0.27140800  1
  Cd  Cd1  1  0.80068000  0.63102200  0.27009300  1
  Cd  Cd2  1  0.64221900  0.29347500  0.27517100  1
  Cd  Cd3  1  0.34929200  0.71683300  0.73136300  1
  Cd  Cd4  1  0.21315300  0.34591600  0.72097200  1
  Cd  Cd5  1  0.69690800  0.20824200  0.72793400  1
  H  H0  1  0.85883700  0.93290200  0.30203100  1
  H  H1  1  0.94544100  0.86455200  0.29924700  1
  H  H2  1  0.14207600  0.10493400  0.70155600  1
  H  H3  1  0.06157700  0.10903600  0.69915300  1
  C  C0  1  0.57273500  0.95040500  0.04583800  1
  C  C1  1  0.42473700  0.57265300  0.04050900  1
  C  C2  1  0.55949700  0.95574900  0.43539600  1
  C  C3  1  0.97722700  0.42354600  0.02573600  1
  C  C4  1  0.03685900  0.95474900  0.57009400  1
  C  C5  1  0.04969600  0.55573500  0.43249300  1
  C  C6  1  0.94251900  0.44788600  0.56312700  1
  C  C7  1  0.95566700  0.05319500  0.43716500  1
  C  C8  1  0.04586000  0.57296200  0.95340800  1
  C  C9  1  0.44495900  0.04419800  0.56186600  1
  C  C10  1  0.56432700  0.42963400  0.96403600  1
  C  C11  1  0.42830800  0.02273400  0.97119200  1
  Cl  Cl0  1  0.45522300  0.56403600  0.49812900  1
  O  O0  1  0.45578900  0.40243000  0.63814100  1
  O  O1  1  0.30469400  0.97146100  0.03885000  1
  O  O2  1  0.98711800  0.67894300  0.02275500  1
  O  O3  1  0.05228600  0.03662900  0.30906200  1
  O  O4  1  0.55894000  0.83477900  0.17279300  1
  O  O5  1  0.43098500  0.55474900  0.16817300  1
  O  O6  1  0.03558100  0.61019800  0.30185400  1
  O  O7  1  0.19501000  0.86216900  0.53936700  1
  O  O8  1  0.67270800  0.30953300  0.03028800  1
  O  O9  1  0.86561300  0.42043100  0.15333000  1
  O  O10  1  0.58930900  0.79829100  0.47149300  1
  O  O11  1  0.39044800  0.95423700  0.69298900  1
  O  O12  1  0.14424000  0.58727800  0.46689800  1
  O  O13  1  0.84566000  0.41811600  0.53031200  1
  O  O14  1  0.61598900  0.04672500  0.30553100  1
  O  O15  1  0.40976400  0.20343100  0.52525800  1
  O  O16  1  0.16094400  0.57318400  0.82635800  1
  O  O17  1  0.31738400  0.69437900  0.97462000  1
  O  O18  1  0.79684600  0.14376800  0.46760000  1
  O  O19  1  0.95917900  0.39790800  0.69199100  1
  O  O20  1  0.55656600  0.44588700  0.83773900  1
  O  O21  1  0.44533500  0.13195100  0.84228900  1
  O  O22  1  0.94388500  0.97403200  0.69841800  1
  O  O23  1  0.03403300  0.31663400  0.95723800  1
  O  O24  1  0.69153200  0.00772300  0.97697300  1
  O  O25  1  0.60303800  0.50704300  0.36146200  1
loop_
_geom_bond_atom_site_label_1
_geom_bond_atom_site_label_2
_geom_bond_distance
_geom_bond_site_symmetry_2
K0 O24 2.916857 1_554
K0 O1 2.970429 1_645
K0 O2 2.970813 1_545
K0 O23 2.982397 1_654
K0 O8 2.997762 1_555
K0 O17 3.000278 1_644
Cd0 O1 2.246030 1_555
Cd0 O3 2.311011 1_565
Cd0 O5 2.377986 1_555
Cd0 O12 2.414682 1_555
Cd0 O4 2.569147 1_555
Cd1 O6 2.267912 1_655
Cd1 O25 2.292758 1_555
Cd1 O2 2.369044 1_555
Cd1 O4 2.420135 1_555
Cd1 O9 2.467320 1_555
Cd1 O13 2.612565 1_555
Cd1 O10 2.645966 1_555
Cd2 O14 2.321805 1_555
Cd2 O25 2.361827 1_555
Cd2 O8 2.371231 1_555
Cd2 O5 2.434756 1_555
Cd2 O18 2.472169 1_555
Cd2 O9 2.481252 1_555
Cd2 O15 2.652033 1_555
Cd3 O11 2.283207 1_555
Cd3 O17 2.329632 1_555
Cd3 O16 2.348112 1_555
Cd3 O20 2.453109 1_555
Cd3 O7 2.469883 1_555
Cd3 O10 2.718098 1_555
Cd3 Cl0 2.917237 1_555
Cd4 O23 2.261107 1_555
Cd4 O0 2.286428 1_555
Cd4 O19 2.311577 1_455
Cd4 O15 2.455121 1_555
Cd4 O21 2.496082 1_555
Cd4 O16 2.571175 1_555
Cd4 O12 2.690995 1_555
Cd5 O22 2.299143 1_545
Cd5 O0 2.366463 1_555
Cd5 O24 2.420699 1_555
Cd5 O21 2.427242 1_555
Cd5 O20 2.471729 1_555
Cd5 O13 2.567396 1_555
Cd5 O18 2.687402 1_555
H0 H1 0.746409 1_555
H0 K0 2.704153 1_565
H1 K0 2.691661 1_565
H2 H3 0.746459 1_555
H2 K0 2.702594 1_456
H3 K0 2.691270 1_456
C0 O24 1.256243 1_564
C0 O4 1.281279 1_555
C1 O17 1.252830 1_554
C1 O5 1.283370 1_555
C2 O10 1.267248 1_555
C2 O14 1.268943 1_565
C3 O23 1.258262 1_654
C3 O9 1.271982 1_555
C4 O22 1.265312 1_455
C4 O7 1.272975 1_555
C5 O6 1.260655 1_555
C5 O12 1.277051 1_555
C6 O19 1.258764 1_555
C6 O13 1.274421 1_555
C7 O3 1.262633 1_655
C7 O18 1.273279 1_555
C8 O2 1.253528 1_456
C8 O16 1.281758 1_555
C9 O11 1.267899 1_545
C9 O15 1.271765 1_555
C10 O8 1.256388 1_556
C10 O20 1.281141 1_555
C11 O1 1.260952 1_546
C11 O21 1.270301 1_555
Cl0 O25 1.559755 1_555
Cl0 O0 1.564329 1_555
