# generated using pymatgen
data_DyHO2
_symmetry_space_group_name_H-M   'P 1'
_cell_length_a   5.03901479
_cell_length_b   10.80742086
_cell_length_c   3.51879475
_cell_angle_alpha   90.00000000
_cell_angle_beta   90.00000000
_cell_angle_gamma   90.00000000
_symmetry_Int_Tables_number   1
_chemical_formula_structural   DyHO2
_chemical_formula_sum   'Dy4 H4 O8'
_cell_volume   191.62917610
_cell_formula_units_Z   4
loop_
 _symmetry_equiv_pos_site_id
 _symmetry_equiv_pos_as_xyz
  1  'x, y, z'
loop_
 _atom_site_type_symbol
 _atom_site_label
 _atom_site_symmetry_multiplicity
 _atom_site_fract_x
 _atom_site_fract_y
 _atom_site_fract_z
 _atom_site_occupancy
  Dy  Dy0  1  0.10661175  0.85550100  0.25000000  1
  Dy  Dy1  1  0.39338825  0.35550100  0.25000000  1
  Dy  Dy2  1  0.60661175  0.64449900  0.75000000  1
  Dy  Dy3  1  0.89338825  0.14449900  0.75000000  1
  H  H0  1  0.14352646  0.60051185  0.25000000  1
  H  H1  1  0.35647354  0.10051185  0.25000000  1
  H  H2  1  0.64352646  0.89948815  0.75000000  1
  H  H3  1  0.85647354  0.39948815  0.75000000  1
  O  O0  1  0.17171019  0.06892425  0.25000000  1
  O  O1  1  0.14707774  0.31094450  0.75000000  1
  O  O2  1  0.35292226  0.81094450  0.75000000  1
  O  O3  1  0.32828981  0.56892425  0.25000000  1
  O  O4  1  0.67171019  0.43107575  0.75000000  1
  O  O5  1  0.64707774  0.18905550  0.25000000  1
  O  O6  1  0.85292226  0.68905550  0.25000000  1
  O  O7  1  0.82828981  0.93107575  0.75000000  1
loop_
_geom_bond_atom_site_label_1
_geom_bond_atom_site_label_2
_geom_bond_distance
_geom_bond_site_symmetry_2
Dy0 O2 2.206319 1_554
Dy0 O2 2.206319 1_555
Dy0 O6 2.206811 1_455
Dy0 O0 2.329764 1_565
Dy0 O7 2.393639 1_454
Dy0 O7 2.393639 1_455
Dy1 O1 2.206319 1_555
Dy1 O1 2.206319 1_554
Dy1 O5 2.206811 1_555
Dy1 O3 2.329764 1_555
Dy1 O4 2.393639 1_554
Dy1 O4 2.393639 1_555
Dy2 O6 2.206319 1_556
Dy2 O6 2.206319 1_555
Dy2 O2 2.206811 1_555
Dy2 O4 2.329764 1_555
Dy2 O3 2.393639 1_555
Dy2 O3 2.393639 1_556
Dy3 O5 2.206319 1_556
Dy3 O5 2.206319 1_555
Dy3 O1 2.206811 1_655
Dy3 O7 2.329764 1_545
Dy3 O0 2.393639 1_656
Dy3 O0 2.393639 1_655
H0 O3 0.991639 1_555
H0 O6 1.749302 1_455
H1 O0 0.991639 1_555
H1 O5 1.749302 1_555
H2 O7 0.991639 1_555
H2 O2 1.749302 1_555
H3 O4 0.991639 1_555
H3 O1 1.749302 1_655
