# generated using pymatgen
data_Li2Ti2O5
_symmetry_space_group_name_H-M   'P 1'
_cell_length_a   5.34419400
_cell_length_b   5.88209000
_cell_length_c   15.84698400
_cell_angle_alpha   90.00000000
_cell_angle_beta   90.00000000
_cell_angle_gamma   90.00000000
_symmetry_Int_Tables_number   1
_chemical_formula_structural   Li2Ti2O5
_chemical_formula_sum   'Li8 Ti8 O20'
_cell_volume   498.15041880
_cell_formula_units_Z   4
loop_
 _symmetry_equiv_pos_site_id
 _symmetry_equiv_pos_as_xyz
  1  'x, y, z'
loop_
 _atom_site_type_symbol
 _atom_site_label
 _atom_site_symmetry_multiplicity
 _atom_site_fract_x
 _atom_site_fract_y
 _atom_site_fract_z
 _atom_site_occupancy
  Li  Li0  1  0.81911700  0.09851600  0.04946900  1
  Li  Li1  1  0.18088300  0.09851600  0.54946900  1
  Li  Li2  1  0.31911700  0.40148400  0.04946900  1
  Li  Li3  1  0.68088300  0.40148400  0.54946900  1
  Li  Li4  1  0.31911700  0.59851600  0.45053100  1
  Li  Li5  1  0.68088300  0.59851600  0.95053100  1
  Li  Li6  1  0.81911700  0.90148400  0.45053100  1
  Li  Li7  1  0.18088300  0.90148400  0.95053100  1
  Ti  Ti0  1  0.30995300  0.09243000  0.35687100  1
  Ti  Ti1  1  0.69004700  0.09243000  0.85687100  1
  Ti  Ti2  1  0.19004700  0.40757000  0.85687100  1
  Ti  Ti3  1  0.80995300  0.40757000  0.35687100  1
  Ti  Ti4  1  0.19004700  0.59243000  0.64312900  1
  Ti  Ti5  1  0.80995300  0.59243000  0.14312900  1
  Ti  Ti6  1  0.30995300  0.90757000  0.14312900  1
  Ti  Ti7  1  0.69004700  0.90757000  0.64312900  1
  O  O0  1  0.22632700  0.00000000  0.25000000  1
  O  O1  1  0.77367300  0.00000000  0.75000000  1
  O  O2  1  0.19195800  0.08763400  0.06289900  1
  O  O3  1  0.80804200  0.08763400  0.56289900  1
  O  O4  1  0.65518400  0.12585100  0.37262400  1
  O  O5  1  0.34481600  0.12585100  0.87262400  1
  O  O6  1  0.15518400  0.37414900  0.37262400  1
  O  O7  1  0.84481600  0.37414900  0.87262400  1
  O  O8  1  0.30804200  0.41236600  0.56289900  1
  O  O9  1  0.69195800  0.41236600  0.06289900  1
  O  O10  1  0.27367300  0.50000000  0.75000000  1
  O  O11  1  0.72632700  0.50000000  0.25000000  1
  O  O12  1  0.69195800  0.58763400  0.43710100  1
  O  O13  1  0.30804200  0.58763400  0.93710100  1
  O  O14  1  0.15518400  0.62585100  0.12737600  1
  O  O15  1  0.84481600  0.62585100  0.62737600  1
  O  O16  1  0.65518400  0.87414900  0.12737600  1
  O  O17  1  0.34481600  0.87414900  0.62737600  1
  O  O18  1  0.19195800  0.91236600  0.43710100  1
  O  O19  1  0.80804200  0.91236600  0.93710100  1
loop_
_geom_bond_atom_site_label_1
_geom_bond_atom_site_label_2
_geom_bond_distance
_geom_bond_site_symmetry_2
Li0 O9 1.978677 1_555
Li0 O2 2.004890 1_655
Li0 O16 2.008353 1_545
Li0 O19 2.091242 1_544
Li1 O8 1.978677 1_555
Li1 O3 2.004890 1_455
Li1 O17 2.008353 1_545
Li1 O18 2.091242 1_545
Li2 O2 1.978677 1_555
Li2 O9 2.004890 1_555
Li2 O14 2.008353 1_555
Li2 O13 2.091242 1_554
Li3 O3 1.978677 1_555
Li3 O8 2.004890 1_555
Li3 O15 2.008353 1_555
Li3 O12 2.091242 1_555
Li4 O18 1.978677 1_555
Li4 O12 2.004890 1_555
Li4 O6 2.008353 1_555
Li4 O8 2.091242 1_555
Li5 O19 1.978677 1_555
Li5 O13 2.004890 1_555
Li5 O7 2.008353 1_555
Li5 O9 2.091242 1_556
Li6 O12 1.978677 1_555
Li6 O18 2.004890 1_655
Li6 O4 2.008353 1_565
Li6 O3 2.091242 1_565
Li7 O13 1.978677 1_555
Li7 O19 2.004890 1_455
Li7 O5 2.008353 1_565
Li7 O2 2.091242 1_566
O0 Ti6 1.833997 1_545
O0 Ti0 1.833997 1_555
O1 Ti1 1.833997 1_555
O1 Ti7 1.833997 1_545
O2 Ti6 1.770851 1_545
O3 Ti7 1.770851 1_545
O4 Ti3 1.868799 1_555
O4 Ti0 1.872143 1_555
O5 Ti2 1.868799 1_555
O5 Ti1 1.872143 1_555
O6 Ti0 1.868799 1_555
O6 Ti3 1.872143 1_455
O7 Ti1 1.868799 1_555
O7 Ti2 1.872143 1_655
O8 Ti4 1.770851 1_555
O9 Ti5 1.770851 1_555
O10 Ti2 1.833997 1_555
O10 Ti4 1.833997 1_555
O11 Ti5 1.833997 1_555
O11 Ti3 1.833997 1_555
O12 Ti3 1.770851 1_555
O13 Ti2 1.770851 1_555
O14 Ti6 1.868799 1_555
O14 Ti5 1.872143 1_455
O15 Ti7 1.868799 1_555
O15 Ti4 1.872143 1_655
O16 Ti5 1.868799 1_555
O16 Ti6 1.872143 1_555
O17 Ti4 1.868799 1_555
O17 Ti7 1.872143 1_555
O18 Ti0 1.770851 1_565
O19 Ti1 1.770851 1_565
