# generated using pymatgen
data_Li4Mn5O9F
_symmetry_space_group_name_H-M   'P 1'
_cell_length_a   5.13428376
_cell_length_b   5.13428376
_cell_length_c   13.98417403
_cell_angle_alpha   78.23329845
_cell_angle_beta   78.23329845
_cell_angle_gamma   32.77905800
_symmetry_Int_Tables_number   1
_chemical_formula_structural   Li4Mn5O9F
_chemical_formula_sum   'Li4 Mn5 O9 F1'
_cell_volume   195.01834820
_cell_formula_units_Z   1
loop_
 _symmetry_equiv_pos_site_id
 _symmetry_equiv_pos_as_xyz
  1  'x, y, z'
loop_
 _atom_site_type_symbol
 _atom_site_label
 _atom_site_symmetry_multiplicity
 _atom_site_fract_x
 _atom_site_fract_y
 _atom_site_fract_z
 _atom_site_occupancy
  Li  Li0  1  0.80328400  0.80328400  0.39418500  1
  Li  Li1  1  0.60774600  0.60774600  0.79645900  1
  Li  Li2  1  0.38360700  0.38360700  0.18606600  1
  Li  Li3  1  0.20972300  0.20972300  0.60183300  1
  Mn  Mn0  1  0.90971600  0.90971600  0.69971100  1
  Mn  Mn1  1  0.66779800  0.66779800  0.10344600  1
  Mn  Mn2  1  0.32933700  0.32933700  0.90893500  1
  Mn  Mn3  1  0.51056100  0.51056100  0.50472400  1
  Mn  Mn4  1  0.09322600  0.09322600  0.30379800  1
  O  O0  1  0.87693300  0.87693300  0.55816000  1
  O  O1  1  0.95310200  0.95310200  0.82556500  1
  O  O2  1  0.72699900  0.72699900  0.26092600  1
  O  O3  1  0.54374000  0.54374000  0.65749100  1
  O  O4  1  0.46186100  0.46186100  0.35749500  1
  O  O5  1  0.27725500  0.27725500  0.73246800  1
  O  O6  1  0.29821000  0.29821000  0.06053600  1
  O  O7  1  0.03975100  0.03975100  0.15681900  1
  O  O8  1  0.14540500  0.14540500  0.46444100  1
  F  F0  1  0.66174900  0.66174900  0.92694200  1
loop_
_geom_bond_atom_site_label_1
_geom_bond_atom_site_label_2
_geom_bond_distance
_geom_bond_site_symmetry_2
Li0 O4 2.112281 1_565
Li0 O4 2.112281 1_655
Li0 O2 2.152401 1_555
Li0 O8 2.198506 1_655
Li0 O8 2.198506 1_565
Li0 O0 2.547900 1_555
Li1 O1 2.078878 1_545
Li1 O1 2.078878 1_455
Li1 O3 2.166828 1_555
Li1 O5 2.247846 1_565
Li1 O5 2.247846 1_655
Li2 O7 2.089196 1_655
Li2 O7 2.089196 1_565
Li2 O6 2.101693 1_555
Li2 O2 2.210948 1_455
Li2 O2 2.210948 1_545
Li3 O5 2.072813 1_555
Li3 O8 2.147198 1_555
Li3 O0 2.181167 1_545
Li3 O0 2.181167 1_455
Li3 O3 2.199375 1_545
Li3 O3 2.199375 1_455
Mn0 O1 1.897352 1_555
Mn0 O5 1.938378 1_565
Mn0 O5 1.938378 1_655
Mn0 O3 1.964485 1_565
Mn0 O3 1.964485 1_655
Mn0 O0 2.072292 1_555
Mn1 O6 1.944648 1_565
Mn1 O6 1.944648 1_655
Mn1 O7 1.961331 1_655
Mn1 O7 1.961331 1_565
Mn1 O2 2.394985 1_555
Mn2 O6 2.076565 1_556
Mn2 O1 2.083333 1_545
Mn2 O1 2.083333 1_455
Mn2 O5 2.625126 1_555
Mn3 O8 1.965354 1_565
Mn3 O8 1.965354 1_655
Mn3 O0 1.992969 1_545
Mn3 O0 1.992969 1_455
Mn3 O4 2.211123 1_555
Mn3 O3 2.228801 1_555
Mn4 O2 1.964444 1_455
Mn4 O2 1.964444 1_545
Mn4 O4 1.980977 1_455
Mn4 O4 1.980977 1_545
Mn4 O7 2.227649 1_555
Mn4 O8 2.408678 1_555
F0 Li1 2.006298 1_555
F0 Mn2 2.170515 1_655
F0 Mn2 2.170515 1_565
F0 Mn1 2.481613 1_556
