# generated using pymatgen
data_Li4V3Ni2Sn3O16
_symmetry_space_group_name_H-M   'P 1'
_cell_length_a   6.07162944
_cell_length_b   6.00340628
_cell_length_c   9.70043931
_cell_angle_alpha   90.12216626
_cell_angle_beta   89.13041148
_cell_angle_gamma   119.77086398
_symmetry_Int_Tables_number   1
_chemical_formula_structural   Li4V3Ni2Sn3O16
_chemical_formula_sum   'Li4 V3 Ni2 Sn3 O16'
_cell_volume   306.87726863
_cell_formula_units_Z   1
loop_
 _symmetry_equiv_pos_site_id
 _symmetry_equiv_pos_as_xyz
  1  'x, y, z'
loop_
 _atom_site_type_symbol
 _atom_site_label
 _atom_site_symmetry_multiplicity
 _atom_site_fract_x
 _atom_site_fract_y
 _atom_site_fract_z
 _atom_site_occupancy
  Li  Li0  1  0.34579700  0.67377000  0.88769600  1
  Li  Li1  1  0.97601500  0.98563700  0.99376500  1
  Li  Li2  1  0.98064800  0.99039000  0.50239300  1
  Li  Li3  1  0.67055300  0.33393200  0.39367700  1
  V  V0  1  0.66509800  0.83126600  0.21060000  1
  V  V1  1  0.83331600  0.17574800  0.71060200  1
  V  V2  1  0.84041000  0.65347200  0.71493600  1
  Ni  Ni0  1  0.33787000  0.67026800  0.48724400  1
  Ni  Ni1  1  0.66915100  0.33574600  0.98455800  1
  Sn  Sn0  1  0.17350100  0.83363700  0.21573800  1
  Sn  Sn1  1  0.17242700  0.33881900  0.21520900  1
  Sn  Sn2  1  0.33843600  0.17075500  0.71555800  1
  O  O0  1  0.14463500  0.82377800  0.60383600  1
  O  O1  1  0.03612200  0.51730500  0.34451200  1
  O  O2  1  0.34938800  0.67393200  0.09702200  1
  O  O3  1  0.98328800  0.99168700  0.31859900  1
  O  O4  1  0.98547400  0.99291400  0.81055400  1
  O  O5  1  0.14412900  0.32268000  0.60459000  1
  O  O6  1  0.49286200  0.96317500  0.33718100  1
  O  O7  1  0.49495500  0.53202900  0.33577300  1
  O  O8  1  0.31072600  0.15520800  0.09055300  1
  O  O9  1  0.68590700  0.84562000  0.61758400  1
  O  O10  1  0.53977700  0.49622600  0.83430500  1
  O  O11  1  0.54117400  0.04730600  0.83459100  1
  O  O12  1  0.67900400  0.33962600  0.59951600  1
  O  O13  1  0.82315400  0.67416300  0.10742400  1
  O  O14  1  0.96601900  0.48721200  0.83190100  1
  O  O15  1  0.82016300  0.14399800  0.10792100  1
loop_
_geom_bond_atom_site_label_1
_geom_bond_atom_site_label_2
_geom_bond_distance
_geom_bond_site_symmetry_2
Li0 O10 2.004307 1_555
Li0 O11 2.011464 1_565
Li0 O2 2.030995 1_556
Li0 O14 2.082069 1_455
Li1 O4 1.777213 1_555
Li1 O13 1.956482 1_556
Li1 O15 1.970438 1_566
Li1 O8 2.011765 1_666
Li2 O3 1.782710 1_555
Li2 O9 1.898781 1_555
Li2 O0 1.995773 1_655
Li2 O5 2.000653 1_665
Li3 O1 1.977259 1_655
Li3 O12 1.997950 1_555
Li3 O6 2.011605 1_545
Li3 O7 2.036350 1_555
Ni0 O6 2.103025 1_555
Ni0 O7 2.120296 1_555
Ni0 O1 2.125490 1_555
Ni0 O0 2.129321 1_555
Ni0 O5 2.136752 1_555
Ni0 O9 2.244664 1_555
Ni1 O11 2.099036 1_555
Ni1 O10 2.112311 1_555
Ni1 O13 2.135283 1_556
Ni1 O8 2.135969 1_556
Ni1 O14 2.136755 1_555
Ni1 O15 2.164525 1_556
O0 V2 1.920304 1_455
O0 Sn2 2.119710 1_565
O1 Sn1 2.061487 1_555
O1 Sn0 2.065928 1_555
O2 V0 2.010494 1_555
O2 Sn1 2.083766 1_555
O2 Sn0 2.088213 1_555
O3 V0 1.991697 1_555
O3 Sn1 2.065175 1_665
O3 Sn0 2.068549 1_655
O4 V2 2.005763 1_555
O4 V1 2.009252 1_565
O4 Sn2 2.062478 1_665
O5 V1 1.920623 1_455
O5 Sn2 2.119838 1_555
O6 V0 2.001924 1_555
O6 Sn0 2.078559 1_555
O7 V0 1.974092 1_555
O7 Sn1 2.087120 1_555
O8 Sn1 2.065193 1_555
O8 Sn0 2.068264 1_545
O9 V1 1.948971 1_565
O9 V2 2.051494 1_555
O10 V2 1.947594 1_555
O10 Sn2 2.073703 1_555
O11 V1 1.941240 1_555
O11 Sn2 2.085785 1_555
O12 V2 1.988621 1_555
O12 V1 1.989340 1_555
O12 Sn2 2.103121 1_555
O13 V0 1.917768 1_555
O13 Sn0 2.141628 1_655
O14 V2 1.911093 1_555
O14 V1 2.013278 1_555
O15 V0 1.904597 1_545
O15 Sn1 2.145647 1_655
