# generated using pymatgen
data_LiCu(PO3)2
_symmetry_space_group_name_H-M   'P 1'
_cell_length_a   4.97864300
_cell_length_b   7.80584353
_cell_length_c   8.93016978
_cell_angle_alpha   65.43913258
_cell_angle_beta   89.63390176
_cell_angle_gamma   89.27059319
_symmetry_Int_Tables_number   1
_chemical_formula_structural   LiCu(PO3)2
_chemical_formula_sum   'Li2 Cu2 P4 O12'
_cell_volume   315.62208762
_cell_formula_units_Z   2
loop_
 _symmetry_equiv_pos_site_id
 _symmetry_equiv_pos_as_xyz
  1  'x, y, z'
loop_
 _atom_site_type_symbol
 _atom_site_label
 _atom_site_symmetry_multiplicity
 _atom_site_fract_x
 _atom_site_fract_y
 _atom_site_fract_z
 _atom_site_occupancy
  Li  Li0  1  0.64207200  0.86330400  0.30718900  1
  Li  Li1  1  0.14179500  0.09494500  0.72050800  1
  Cu  Cu0  1  0.13637200  0.05784400  0.37253400  1
  Cu  Cu1  1  0.64714000  0.08923200  0.90868000  1
  P  P0  1  0.18340900  0.50447700  0.09142200  1
  P  P1  1  0.13968800  0.89802900  0.10486600  1
  P  P2  1  0.63094300  0.94261500  0.61723600  1
  P  P3  1  0.68169400  0.52073800  0.87510400  1
  O  O0  1  0.46781500  0.45800600  0.02580200  1
  O  O1  1  0.09970100  0.34224700  0.24194500  1
  O  O2  1  0.24279600  0.68886700  0.10760300  1
  O  O3  1  0.83452700  0.88962300  0.11779300  1
  O  O4  1  0.34392100  0.01631800  0.58438700  1
  O  O5  1  0.27884800  0.89517100  0.25681500  1
  O  O6  1  0.79268300  0.02710600  0.71279000  1
  O  O7  1  0.77181400  0.92412800  0.47365600  1
  O  O8  1  0.70790400  0.37413100  0.81172100  1
  O  O9  1  0.24189100  0.04247800  0.93983500  1
  O  O10  1  0.57894400  0.71426500  0.75416400  1
  O  O11  1  0.96754400  0.55747500  0.94345200  1
loop_
_geom_bond_atom_site_label_1
_geom_bond_atom_site_label_2
_geom_bond_distance
_geom_bond_site_symmetry_2
Li0 O5 1.854814 1_555
Li0 O7 1.859946 1_555
Li0 O3 1.875194 1_555
Li1 O6 1.833433 1_455
Li1 O4 1.858994 1_555
Li1 O9 1.895449 1_555
Cu0 O1 2.040076 1_555
Cu0 O5 2.059612 1_545
Cu0 O4 2.063657 1_555
Cu0 O7 2.107815 1_445
Cu1 O8 2.049362 1_555
Cu1 O9 2.051446 1_555
Cu1 O3 2.086081 1_546
Cu1 O6 2.121432 1_555
O0 P3 1.622295 1_554
O0 P0 1.622634 1_555
O1 P0 1.474911 1_555
O2 P0 1.537601 1_555
O2 P1 1.695707 1_555
O3 P1 1.523111 1_655
O4 P2 1.517613 1_545
O5 P1 1.519284 1_555
O6 P2 1.517132 1_545
O7 P2 1.515415 1_555
O8 P3 1.476746 1_555
O9 P1 1.525065 1_546
O10 P3 1.530109 1_555
O10 P2 1.713240 1_555
O11 P0 1.620071 1_656
O11 P3 1.626994 1_555
