# generated using pymatgen
data_TiFe11O16
_symmetry_space_group_name_H-M   'P 1'
_cell_length_a   6.07363600
_cell_length_b   8.61537000
_cell_length_c   12.13420300
_cell_angle_alpha   90.00000000
_cell_angle_beta   90.00000000
_cell_angle_gamma   90.00000000
_symmetry_Int_Tables_number   1
_chemical_formula_structural   TiFe11O16
_chemical_formula_sum   'Ti2 Fe22 O32'
_cell_volume   634.94184619
_cell_formula_units_Z   2
loop_
 _symmetry_equiv_pos_site_id
 _symmetry_equiv_pos_as_xyz
  1  'x, y, z'
loop_
 _atom_site_type_symbol
 _atom_site_label
 _atom_site_symmetry_multiplicity
 _atom_site_fract_x
 _atom_site_fract_y
 _atom_site_fract_z
 _atom_site_occupancy
  Ti  Ti0  1  0.50000000  0.50000000  0.00000000  1
  Ti  Ti1  1  0.00000000  0.00000000  0.50000000  1
  Fe  Fe0  1  0.24931000  0.24954800  0.87474100  1
  Fe  Fe1  1  0.75069000  0.24954800  0.87474100  1
  Fe  Fe2  1  0.25069000  0.25045200  0.37474100  1
  Fe  Fe3  1  0.74931000  0.25045200  0.37474100  1
  Fe  Fe4  1  0.00000000  0.36990100  0.12525600  1
  Fe  Fe5  1  0.00000000  0.37196300  0.62502800  1
  Fe  Fe6  1  0.50000000  0.50302200  0.74386200  1
  Fe  Fe7  1  0.50000000  0.49697800  0.25613800  1
  Fe  Fe8  1  0.50000000  0.50000000  0.50000000  1
  Fe  Fe9  1  0.00000000  0.63009900  0.87474400  1
  Fe  Fe10  1  0.00000000  0.62803700  0.37497200  1
  Fe  Fe11  1  0.75069000  0.75045200  0.12525900  1
  Fe  Fe12  1  0.24931000  0.75045200  0.12525900  1
  Fe  Fe13  1  0.74931000  0.74954800  0.62525900  1
  Fe  Fe14  1  0.25069000  0.74954800  0.62525900  1
  Fe  Fe15  1  0.50000000  0.87196300  0.87497200  1
  Fe  Fe16  1  0.50000000  0.86990100  0.37474400  1
  Fe  Fe17  1  0.00000000  0.00000000  0.00000000  1
  Fe  Fe18  1  0.00000000  0.00302200  0.75613800  1
  Fe  Fe19  1  0.00000000  0.99697800  0.24386200  1
  Fe  Fe20  1  0.50000000  0.13009900  0.62525600  1
  Fe  Fe21  1  0.50000000  0.12803700  0.12502800  1
  O  O0  1  0.50000000  0.26178400  0.75392900  1
  O  O1  1  0.50000000  0.26971500  0.00038400  1
  O  O2  1  0.50000000  0.26159300  0.25125100  1
  O  O3  1  0.50000000  0.25299700  0.49523800  1
  O  O4  1  0.72944100  0.50284500  0.87914700  1
  O  O5  1  0.27055900  0.50284500  0.87914700  1
  O  O6  1  0.74152400  0.49968200  0.37028300  1
  O  O7  1  0.25847600  0.49968200  0.37028300  1
  O  O8  1  0.74152400  0.50031800  0.62971700  1
  O  O9  1  0.27055900  0.49715500  0.12085300  1
  O  O10  1  0.72944100  0.49715500  0.12085300  1
  O  O11  1  0.25847600  0.50031800  0.62971700  1
  O  O12  1  0.50000000  0.73028500  0.99961600  1
  O  O13  1  0.50000000  0.73840700  0.74874900  1
  O  O14  1  0.50000000  0.73821600  0.24607100  1
  O  O15  1  0.50000000  0.74700300  0.50476200  1
  O  O16  1  0.00000000  0.76178400  0.74607100  1
  O  O17  1  0.00000000  0.76159300  0.24874900  1
  O  O18  1  0.00000000  0.75299700  0.00476200  1
  O  O19  1  0.00000000  0.76971500  0.49961600  1
  O  O20  1  0.75847600  0.99968200  0.12971700  1
  O  O21  1  0.24152400  0.99968200  0.12971700  1
  O  O22  1  0.77055900  0.00284500  0.62085300  1
  O  O23  1  0.22944100  0.00284500  0.62085300  1
  O  O24  1  0.75847600  0.00031800  0.87028300  1
  O  O25  1  0.24152400  0.00031800  0.87028300  1
  O  O26  1  0.22944100  0.99715500  0.37914700  1
  O  O27  1  0.77055900  0.99715500  0.37914700  1
  O  O28  1  0.00000000  0.23028500  0.50038400  1
  O  O29  1  0.00000000  0.23840700  0.75125100  1
  O  O30  1  0.00000000  0.24700300  0.99523800  1
  O  O31  1  0.00000000  0.23821600  0.25392900  1
loop_
_geom_bond_atom_site_label_1
_geom_bond_atom_site_label_2
_geom_bond_distance
_geom_bond_site_symmetry_2
Fe0 O30 2.105036 1_555
Fe0 O0 2.116236 1_555
Fe0 O29 2.132470 1_555
Fe0 O25 2.148410 1_555
Fe0 O1 2.161674 1_556
Fe0 O5 2.186714 1_555
Fe1 O30 2.105036 1_655
Fe1 O0 2.116236 1_555
Fe1 O29 2.132470 1_655
Fe1 O24 2.148410 1_555
Fe1 O1 2.161674 1_556
Fe1 O4 2.186714 1_555
Fe2 O3 2.105036 1_555
Fe2 O31 2.116236 1_555
Fe2 O2 2.132470 1_555
Fe2 O7 2.148410 1_555
Fe2 O28 2.161674 1_555
Fe2 O26 2.186714 1_545
Fe3 O3 2.105036 1_555
Fe3 O31 2.116236 1_655
Fe3 O2 2.132470 1_555
Fe3 O6 2.148410 1_555
Fe3 O28 2.161674 1_655
Fe3 O27 2.186714 1_545
Fe4 O30 1.900029 1_554
Fe4 O31 1.930005 1_555
Fe4 O10 1.976152 1_455
Fe4 O9 1.976152 1_555
Fe5 O29 1.915674 1_555
Fe5 O11 1.921104 1_555
Fe5 O8 1.921104 1_455
Fe5 O28 1.943555 1_555
Fe6 O11 2.017625 1_555
Fe6 O8 2.017625 1_555
Fe6 O13 2.028796 1_555
Fe6 O0 2.081941 1_555
Fe6 O4 2.153307 1_555
Fe6 O5 2.153307 1_555
Fe7 O6 2.017625 1_555
Fe7 O7 2.017625 1_555
Fe7 O2 2.028796 1_555
Fe7 O14 2.081941 1_555
Fe7 O10 2.153307 1_555
Fe7 O9 2.153307 1_555
Fe8 O15 2.128807 1_555
Fe8 O3 2.128807 1_555
Fe8 O8 2.151605 1_555
Fe8 O6 2.151605 1_555
Fe8 O11 2.151605 1_555
Fe8 O7 2.151605 1_555
Fe9 O18 1.900029 1_556
Fe9 O16 1.930005 1_555
Fe9 O5 1.976152 1_555
Fe9 O4 1.976152 1_455
Fe10 O17 1.915674 1_555
Fe10 O6 1.921104 1_455
Fe10 O7 1.921104 1_555
Fe10 O19 1.943555 1_555
Fe11 O18 2.105036 1_655
Fe11 O14 2.116236 1_555
Fe11 O17 2.132470 1_655
Fe11 O20 2.148410 1_555
Fe11 O12 2.161674 1_554
Fe11 O10 2.186714 1_555
Fe12 O18 2.105036 1_555
Fe12 O14 2.116236 1_555
Fe12 O17 2.132470 1_555
Fe12 O21 2.148410 1_555
Fe12 O12 2.161674 1_554
Fe12 O9 2.186714 1_555
Fe13 O15 2.105036 1_555
Fe13 O16 2.116236 1_655
Fe13 O13 2.132470 1_555
Fe13 O8 2.148410 1_555
Fe13 O19 2.161674 1_655
Fe13 O22 2.186714 1_565
Fe14 O15 2.105036 1_555
Fe14 O16 2.116236 1_555
Fe14 O13 2.132470 1_555
Fe14 O11 2.148410 1_555
Fe14 O19 2.161674 1_555
Fe14 O23 2.186714 1_565
Fe15 O13 1.915674 1_555
Fe15 O24 1.921104 1_565
Fe15 O25 1.921104 1_565
Fe15 O12 1.943555 1_555
Fe16 O15 1.900029 1_555
Fe16 O14 1.930005 1_555
Fe16 O27 1.976152 1_555
Fe16 O26 1.976152 1_555
Fe17 O30 2.128807 1_554
Fe17 O18 2.128807 1_545
Fe17 O21 2.151605 1_545
Fe17 O20 2.151605 1_445
Fe17 O25 2.151605 1_554
Fe17 O24 2.151605 1_454
Fe18 O25 2.017625 1_555
Fe18 O24 2.017625 1_455
Fe18 O29 2.028796 1_555
Fe18 O16 2.081941 1_545
Fe18 O23 2.153307 1_555
Fe18 O22 2.153307 1_455
Fe19 O21 2.017625 1_555
Fe19 O20 2.017625 1_455
Fe19 O17 2.028796 1_555
Fe19 O31 2.081941 1_565
Fe19 O26 2.153307 1_555
Fe19 O27 2.153307 1_455
Fe20 O3 1.900029 1_555
Fe20 O0 1.930005 1_555
Fe20 O22 1.976152 1_555
Fe20 O23 1.976152 1_555
Fe21 O2 1.915674 1_555
Fe21 O20 1.921104 1_545
Fe21 O21 1.921104 1_545
Fe21 O1 1.943555 1_555
O1 Ti0 1.983996 1_555
O4 Ti0 2.023128 1_556
O5 Ti0 2.023128 1_556
O9 Ti0 2.023128 1_555
O10 Ti0 2.023128 1_555
O12 Ti0 1.983996 1_556
O19 Ti1 1.983996 1_565
O22 Ti1 2.023128 1_655
O23 Ti1 2.023128 1_555
O26 Ti1 2.023128 1_565
O27 Ti1 2.023128 1_665
O28 Ti1 1.983996 1_555
