# generated using pymatgen
data_LiFeCSO7
_symmetry_space_group_name_H-M   'P 1'
_cell_length_a   6.44510900
_cell_length_b   5.24079900
_cell_length_c   8.85202761
_cell_angle_alpha   86.35104296
_cell_angle_beta   90.00000000
_cell_angle_gamma   90.00000000
_symmetry_Int_Tables_number   1
_chemical_formula_structural   LiFeCSO7
_chemical_formula_sum   'Li2 Fe2 C2 S2 O14'
_cell_volume   298.39338852
_cell_formula_units_Z   2
loop_
 _symmetry_equiv_pos_site_id
 _symmetry_equiv_pos_as_xyz
  1  'x, y, z'
loop_
 _atom_site_type_symbol
 _atom_site_label
 _atom_site_symmetry_multiplicity
 _atom_site_fract_x
 _atom_site_fract_y
 _atom_site_fract_z
 _atom_site_occupancy
  Li  Li0  1  0.46154500  0.77031300  0.83546600  1
  Li  Li1  1  0.96154500  0.22968700  0.16453400  1
  Fe  Fe0  1  0.25017700  0.21659500  0.65904100  1
  Fe  Fe1  1  0.75017700  0.78340500  0.34095900  1
  C  C0  1  0.25682400  0.27167400  0.93161900  1
  C  C1  1  0.75682400  0.72832600  0.06838100  1
  S  S0  1  0.75379500  0.27059900  0.56999800  1
  S  S1  1  0.25379500  0.72940100  0.43000200  1
  O  O0  1  0.72259300  0.69600200  0.93281000  1
  O  O1  1  0.26195000  0.04533400  0.87149000  1
  O  O2  1  0.28209700  0.46099200  0.82486700  1
  O  O3  1  0.93765000  0.20980800  0.66550900  1
  O  O4  1  0.57033900  0.17925300  0.65814300  1
  O  O5  1  0.26566300  0.85506600  0.57625900  1
  O  O6  1  0.73951700  0.55356200  0.53481900  1
  O  O7  1  0.23951700  0.44643800  0.46518100  1
  O  O8  1  0.76566300  0.14493400  0.42374100  1
  O  O9  1  0.07033900  0.82074700  0.34185700  1
  O  O10  1  0.43765000  0.79019200  0.33449100  1
  O  O11  1  0.78209700  0.53900800  0.17513300  1
  O  O12  1  0.76195000  0.95466600  0.12851000  1
  O  O13  1  0.22259300  0.30399800  0.06719000  1
loop_
_geom_bond_atom_site_label_1
_geom_bond_atom_site_label_2
_geom_bond_distance
_geom_bond_site_symmetry_2
Li0 O0 1.918910 1_555
Li0 O1 1.972936 1_565
Li0 O2 1.998431 1_555
Li1 O13 1.918910 1_655
Li1 O12 1.972936 1_545
Li1 O11 1.998431 1_555
Fe0 O3 2.015334 1_455
Fe0 O2 2.019133 1_555
Fe0 O1 2.033019 1_555
Fe0 O7 2.034064 1_555
Fe0 O4 2.072801 1_555
Fe0 O5 2.076911 1_545
Fe1 O10 2.015334 1_555
Fe1 O11 2.019133 1_555
Fe1 O12 2.033019 1_555
Fe1 O6 2.034064 1_555
Fe1 O9 2.072801 1_655
Fe1 O8 2.076911 1_565
C0 O13 1.242351 1_556
C0 O1 1.331104 1_555
C0 O2 1.335881 1_555
C1 O0 1.242351 1_554
C1 O12 1.331104 1_555
C1 O11 1.335881 1_555
O3 S0 1.478571 1_555
O4 S0 1.479357 1_555
O5 S1 1.491405 1_555
O6 S0 1.498602 1_555
O7 S1 1.498602 1_555
O8 S0 1.491405 1_555
O9 S1 1.479357 1_555
O10 S1 1.478571 1_555
