# generated using pymatgen
data_Na2FeO3
_symmetry_space_group_name_H-M   'P 1'
_cell_length_a   10.00080900
_cell_length_b   4.84371000
_cell_length_c   6.61261108
_cell_angle_alpha   88.17938640
_cell_angle_beta   90.00000000
_cell_angle_gamma   90.00000000
_symmetry_Int_Tables_number   1
_chemical_formula_structural   Na2FeO3
_chemical_formula_sum   'Na8 Fe4 O12'
_cell_volume   320.15991607
_cell_formula_units_Z   4
loop_
 _symmetry_equiv_pos_site_id
 _symmetry_equiv_pos_as_xyz
  1  'x, y, z'
loop_
 _atom_site_type_symbol
 _atom_site_label
 _atom_site_symmetry_multiplicity
 _atom_site_fract_x
 _atom_site_fract_y
 _atom_site_fract_z
 _atom_site_occupancy
  Na  Na0  1  0.72805300  0.26295000  0.85786900  1
  Na  Na1  1  0.77194700  0.26295000  0.35786900  1
  Na  Na2  1  0.39685400  0.26092900  0.88139400  1
  Na  Na3  1  0.10314600  0.26092900  0.38139400  1
  Na  Na4  1  0.89685400  0.73907100  0.61860600  1
  Na  Na5  1  0.60314600  0.73907100  0.11860600  1
  Na  Na6  1  0.22805300  0.73705000  0.64213100  1
  Na  Na7  1  0.27194700  0.73705000  0.14213100  1
  Fe  Fe0  1  0.04010400  0.18276800  0.84045200  1
  Fe  Fe1  1  0.45989600  0.18276800  0.34045200  1
  Fe  Fe2  1  0.54010400  0.81723200  0.65954800  1
  Fe  Fe3  1  0.95989600  0.81723200  0.15954800  1
  O  O0  1  0.56394600  0.20619800  0.57775400  1
  O  O1  1  0.93605400  0.20619800  0.07775400  1
  O  O2  1  0.92118500  0.25450700  0.64579700  1
  O  O3  1  0.57881500  0.25450700  0.14579700  1
  O  O4  1  0.19100600  0.24042600  0.71071300  1
  O  O5  1  0.30899400  0.24042600  0.21071300  1
  O  O6  1  0.69100600  0.75957400  0.78928700  1
  O  O7  1  0.80899400  0.75957400  0.28928700  1
  O  O8  1  0.42118500  0.74549300  0.85420300  1
  O  O9  1  0.07881500  0.74549300  0.35420300  1
  O  O10  1  0.06394600  0.79380200  0.92224600  1
  O  O11  1  0.43605400  0.79380200  0.42224600  1
loop_
_geom_bond_atom_site_label_1
_geom_bond_atom_site_label_2
_geom_bond_distance
_geom_bond_site_symmetry_2
Na0 O2 2.387991 1_555
Na0 O3 2.418539 1_556
Na0 O6 2.461720 1_555
Na0 O0 2.496487 1_555
Na0 O6 2.521518 1_545
Na0 O1 2.547836 1_556
Na1 O3 2.387991 1_555
Na1 O2 2.418539 1_555
Na1 O7 2.461720 1_555
Na1 O1 2.496487 1_555
Na1 O7 2.521518 1_545
Na1 O0 2.547836 1_555
Na2 O5 2.347420 1_556
Na2 O4 2.351352 1_555
Na2 O8 2.360835 1_555
Na2 O8 2.520553 1_545
Na2 O3 2.523076 1_556
Na2 O0 2.632109 1_555
Na3 O4 2.347420 1_555
Na3 O5 2.351352 1_555
Na3 O9 2.360835 1_555
Na3 O9 2.520553 1_545
Na3 O2 2.523076 1_455
Na3 O1 2.632109 1_455
Na4 O7 2.347420 1_555
Na4 O6 2.351352 1_555
Na4 O2 2.360835 1_555
Na4 O2 2.520553 1_565
Na4 O9 2.523076 1_655
Na4 O10 2.632109 1_655
Na5 O6 2.347420 1_554
Na5 O7 2.351352 1_555
Na5 O3 2.360835 1_555
Na5 O3 2.520553 1_565
Na5 O8 2.523076 1_554
Na5 O11 2.632109 1_555
Na6 O8 2.387991 1_555
Na6 O9 2.418539 1_555
Na6 O4 2.461720 1_555
Na6 O10 2.496487 1_555
Na6 O4 2.521518 1_565
Na6 O11 2.547836 1_555
Na7 O9 2.387991 1_555
Na7 O8 2.418539 1_554
Na7 O5 2.461720 1_555
Na7 O11 2.496487 1_555
Na7 O5 2.521518 1_565
Na7 O10 2.547836 1_554
Fe0 O4 1.753938 1_555
Fe0 O2 1.778638 1_455
Fe0 O1 1.889274 1_456
Fe0 O10 1.958123 1_545
Fe1 O5 1.753938 1_555
Fe1 O3 1.778638 1_555
Fe1 O0 1.889274 1_555
Fe1 O11 1.958123 1_545
Fe2 O6 1.753938 1_555
Fe2 O8 1.778638 1_555
Fe2 O11 1.889274 1_555
Fe2 O0 1.958123 1_565
Fe3 O7 1.753938 1_555
Fe3 O9 1.778638 1_655
Fe3 O10 1.889274 1_654
Fe3 O1 1.958123 1_565
