# generated using pymatgen
data_Mg8V5O16
_symmetry_space_group_name_H-M   'P 1'
_cell_length_a   6.03968675
_cell_length_b   6.03968675
_cell_length_c   10.19005333
_cell_angle_alpha   73.36293810
_cell_angle_beta   73.36293810
_cell_angle_gamma   59.26664861
_symmetry_Int_Tables_number   1
_chemical_formula_structural   Mg8V5O16
_chemical_formula_sum   'Mg8 V5 O16'
_cell_volume   301.67557878
_cell_formula_units_Z   1
loop_
 _symmetry_equiv_pos_site_id
 _symmetry_equiv_pos_as_xyz
  1  'x, y, z'
loop_
 _atom_site_type_symbol
 _atom_site_label
 _atom_site_symmetry_multiplicity
 _atom_site_fract_x
 _atom_site_fract_y
 _atom_site_fract_z
 _atom_site_occupancy
  Mg  Mg0  1  0.68618600  0.68618600  0.92689400  1
  Mg  Mg1  1  0.50000000  0.50000000  0.50000000  1
  Mg  Mg2  1  0.74702800  0.74702800  0.24729000  1
  Mg  Mg3  1  0.25297200  0.25297200  0.75271000  1
  Mg  Mg4  1  0.00000000  0.00000000  0.50000000  1
  Mg  Mg5  1  0.50000000  0.00000000  0.50000000  1
  Mg  Mg6  1  0.00000000  0.50000000  0.50000000  1
  Mg  Mg7  1  0.31381400  0.31381400  0.07310600  1
  V  V0  1  0.73844200  0.25063800  0.75468800  1
  V  V1  1  0.25063800  0.73844200  0.75468800  1
  V  V2  1  0.00000000  0.00000000  0.00000000  1
  V  V3  1  0.74936200  0.26155800  0.24531200  1
  V  V4  1  0.26155800  0.74936200  0.24531200  1
  O  O0  1  0.88797200  0.88797200  0.86868900  1
  O  O1  1  0.88239900  0.34158400  0.87169200  1
  O  O2  1  0.38038200  0.38038200  0.86358600  1
  O  O3  1  0.61510700  0.61510700  0.62785900  1
  O  O4  1  0.34158400  0.88239900  0.87169200  1
  O  O5  1  0.85857000  0.37413000  0.37494900  1
  O  O6  1  0.37413000  0.85857000  0.37494900  1
  O  O7  1  0.12381800  0.12381800  0.62373700  1
  O  O8  1  0.87618200  0.87618200  0.37626300  1
  O  O9  1  0.62587000  0.14143000  0.62505100  1
  O  O10  1  0.65841600  0.11760100  0.12830800  1
  O  O11  1  0.14143000  0.62587000  0.62505100  1
  O  O12  1  0.38489300  0.38489300  0.37214100  1
  O  O13  1  0.61961800  0.61961800  0.13641400  1
  O  O14  1  0.11760100  0.65841600  0.12830800  1
  O  O15  1  0.11202800  0.11202800  0.13131100  1
loop_
_geom_bond_atom_site_label_1
_geom_bond_atom_site_label_2
_geom_bond_distance
_geom_bond_site_symmetry_2
Mg0 O1 1.954558 1_555
Mg0 O4 1.954558 1_555
Mg0 O0 2.003156 1_555
Mg0 O13 2.015878 1_556
Mg1 O11 2.045366 1_555
Mg1 O9 2.045366 1_555
Mg1 O6 2.045366 1_555
Mg1 O5 2.045366 1_555
Mg1 O3 2.048287 1_555
Mg1 O12 2.048287 1_555
Mg2 O13 2.015381 1_555
Mg2 O10 2.087854 1_565
Mg2 O14 2.087854 1_655
Mg2 O5 2.119394 1_555
Mg2 O6 2.119394 1_555
Mg2 O8 2.177192 1_555
Mg3 O2 2.015381 1_555
Mg3 O4 2.087854 1_545
Mg3 O1 2.087854 1_455
Mg3 O9 2.119394 1_555
Mg3 O11 2.119394 1_555
Mg3 O7 2.177192 1_555
Mg4 O8 2.088004 1_445
Mg4 O7 2.088004 1_555
Mg4 O6 2.112120 1_545
Mg4 O9 2.112120 1_455
Mg4 O5 2.112120 1_455
Mg4 O11 2.112120 1_545
Mg5 O7 2.115202 1_555
Mg5 O8 2.115202 1_545
Mg5 O12 2.171938 1_555
Mg5 O3 2.171938 1_545
Mg5 O6 2.184732 1_545
Mg5 O9 2.184732 1_555
Mg6 O7 2.115202 1_555
Mg6 O8 2.115202 1_455
Mg6 O3 2.171938 1_455
Mg6 O12 2.171938 1_555
Mg6 O5 2.184732 1_455
Mg6 O11 2.184732 1_555
Mg7 O10 1.954558 1_555
Mg7 O14 1.954558 1_555
Mg7 O15 2.003156 1_555
Mg7 O2 2.015878 1_554
O0 V1 2.021079 1_655
O0 V0 2.021079 1_565
O0 V2 2.052022 1_666
O1 V0 1.983915 1_555
O1 V2 1.989892 1_656
O2 V1 1.978353 1_555
O2 V0 1.978353 1_555
O3 V0 2.077751 1_555
O3 V1 2.077751 1_555
O4 V1 1.983915 1_555
O4 V2 1.989892 1_566
O5 V3 2.028288 1_555
O6 V4 2.028288 1_555
O7 V1 2.183897 1_545
O7 V0 2.183897 1_455
O8 V3 2.183897 1_565
O8 V4 2.183897 1_655
O9 V0 2.028288 1_555
O10 V3 1.983915 1_555
O10 V2 1.989892 1_655
O11 V1 2.028288 1_555
O12 V4 2.077751 1_555
O12 V3 2.077751 1_555
O13 V4 1.978353 1_555
O13 V3 1.978353 1_555
O14 V4 1.983915 1_555
O14 V2 1.989892 1_565
O15 V4 2.021079 1_545
O15 V3 2.021079 1_455
O15 V2 2.052022 1_555
