# generated using pymatgen
data_La2Nb2N2O5
_symmetry_space_group_name_H-M   'P 1'
_cell_length_a   5.70178400
_cell_length_b   8.06580054
_cell_length_c   13.76007472
_cell_angle_alpha   81.56828833
_cell_angle_beta   89.51168347
_cell_angle_gamma   89.85301328
_symmetry_Int_Tables_number   1
_chemical_formula_structural   La2Nb2N2O5
_chemical_formula_sum   'La8 Nb8 N8 O20'
_cell_volume   625.95508906
_cell_formula_units_Z   4
loop_
 _symmetry_equiv_pos_site_id
 _symmetry_equiv_pos_as_xyz
  1  'x, y, z'
loop_
 _atom_site_type_symbol
 _atom_site_label
 _atom_site_symmetry_multiplicity
 _atom_site_fract_x
 _atom_site_fract_y
 _atom_site_fract_z
 _atom_site_occupancy
  La  La0  1  0.65895500  0.86492600  0.57093400  1
  La  La1  1  0.25124300  0.77521000  0.90335900  1
  La  La2  1  0.74324800  0.72188700  0.12037000  1
  La  La3  1  0.23840800  0.65573200  0.38621200  1
  La  La4  1  0.72185900  0.33551200  0.61493300  1
  La  La5  1  0.24948300  0.27816000  0.87475200  1
  La  La6  1  0.73054500  0.22366200  0.09312100  1
  La  La7  1  0.17376600  0.14024000  0.43254100  1
  Nb  Nb0  1  0.74600800  0.93549000  0.31534200  1
  Nb  Nb1  1  0.25088700  0.98473200  0.10118000  1
  Nb  Nb2  1  0.21476300  0.59997400  0.67351100  1
  Nb  Nb3  1  0.74160100  0.51171200  0.88285300  1
  Nb  Nb4  1  0.23116200  0.46540000  0.11813000  1
  Nb  Nb5  1  0.71954500  0.41154300  0.32449700  1
  Nb  Nb6  1  0.75378800  0.03304300  0.87927900  1
  Nb  Nb7  1  0.20913900  0.07401600  0.67310900  1
  N  N0  1  0.30882600  0.81980400  0.69785600  1
  N  N1  1  0.81738300  0.27560900  0.91312500  1
  N  N2  1  0.45281000  0.03747500  0.98867900  1
  N  N3  1  0.43989000  0.12878800  0.57042900  1
  N  N4  1  0.17817900  0.22740700  0.11233800  1
  N  N5  1  0.80119700  0.17411100  0.30462700  1
  N  N6  1  0.05912700  0.02400800  0.82395800  1
  N  N7  1  0.94906800  0.08727900  0.58666400  1
  O  O0  1  0.46023800  0.90893000  0.40604500  1
  O  O1  1  0.54517800  0.97077000  0.18742500  1
  O  O2  1  0.68027500  0.77492700  0.89757200  1
  O  O3  1  0.94812400  0.86524400  0.42835600  1
  O  O4  1  0.95436900  0.95386800  0.02513300  1
  O  O5  1  0.01679200  0.87672200  0.22793700  1
  O  O6  1  0.92071300  0.62290100  0.61269200  1
  O  O7  1  0.05754500  0.56639200  0.82220100  1
  O  O8  1  0.32125800  0.72370500  0.09020300  1
  O  O9  1  0.64187600  0.66648000  0.30271600  1
  O  O10  1  0.41577400  0.59086200  0.55814900  1
  O  O11  1  0.46566100  0.46983700  0.98189800  1
  O  O12  1  0.54107100  0.49846000  0.77312800  1
  O  O13  1  0.03368000  0.50243300  0.22859400  1
  O  O14  1  0.96804100  0.53735000  0.02244900  1
  O  O15  1  0.92210000  0.41407600  0.43533300  1
  O  O16  1  0.15042100  0.32893500  0.69947500  1
  O  O17  1  0.55781100  0.43623600  0.17814000  1
  O  O18  1  0.42226500  0.38230300  0.38560200  1
  O  O19  1  0.55094800  0.12385000  0.77515100  1
loop_
_geom_bond_atom_site_label_1
_geom_bond_atom_site_label_2
_geom_bond_distance
_geom_bond_site_symmetry_2
La0 O6 2.457477 1_555
La0 N3 2.464114 1_565
La0 N7 2.476842 1_565
La0 O0 2.522537 1_555
La0 O3 2.551642 1_555
La0 N0 2.631714 1_555
La0 O10 2.640824 1_555
La1 N6 2.405580 1_565
La1 O7 2.426075 1_555
La1 O2 2.446871 1_555
La1 O8 2.577857 1_556
La1 N0 2.814209 1_555
La1 N2 2.817405 1_565
La1 O11 2.820601 1_555
La1 O14 2.832369 1_456
La1 O4 2.897716 1_456
La2 O4 2.435780 1_555
La2 O8 2.444766 1_555
La2 O14 2.494527 1_555
La2 O9 2.545020 1_555
La2 O17 2.553297 1_555
La2 O1 2.582710 1_555
La2 O5 2.602791 1_655
La2 O13 2.710541 1_655
La2 O2 3.056782 1_554
La3 O18 2.440562 1_555
La3 O0 2.455119 1_555
La3 O3 2.487598 1_455
La3 O9 2.558616 1_555
La3 O10 2.562980 1_555
La3 O15 2.668262 1_455
La3 O5 2.900678 1_555
La3 O13 2.903852 1_555
La4 N7 2.458641 1_555
La4 N3 2.463732 1_555
La4 O6 2.579081 1_555
La4 O15 2.703486 1_555
La4 O16 2.712343 1_655
La4 O10 2.726016 1_555
La4 O19 2.755489 1_555
La4 O12 2.884811 1_555
La5 O16 2.456832 1_555
La5 N6 2.512628 1_555
La5 N1 2.514785 1_455
La5 O7 2.575423 1_555
La5 N2 2.587897 1_555
La5 O11 2.606219 1_555
La5 O19 2.613641 1_555
La5 O12 2.669036 1_555
La6 O17 2.416260 1_555
La6 O1 2.484567 1_545
La6 N1 2.496172 1_554
La6 N4 2.568925 1_655
La6 N2 2.740846 1_554
La6 O11 2.774657 1_554
La6 O4 2.793157 1_545
La6 O14 2.907680 1_555
La6 N5 2.910349 1_555
La6 N4 3.158744 1_555
La7 O18 2.421881 1_555
La7 N3 2.430611 1_555
La7 N7 2.451994 1_455
La7 O0 2.540759 1_545
La7 O3 2.575213 1_445
La7 O15 2.635643 1_455
La7 N5 2.757722 1_455
Nb0 O3 1.958618 1_555
Nb0 O0 2.036481 1_555
Nb0 O5 2.046152 1_655
Nb0 O1 2.091918 1_555
Nb0 O9 2.282450 1_555
Nb1 O4 2.030779 1_455
Nb1 O1 2.056803 1_555
Nb1 O8 2.168957 1_555
Nb1 O5 2.259071 1_555
Nb2 O6 1.876837 1_455
Nb2 O10 1.959993 1_555
Nb2 O16 2.194151 1_555
Nb2 O7 2.206912 1_555
Nb2 O12 2.391120 1_555
Nb3 O12 1.917209 1_555
Nb3 O7 2.001684 1_655
Nb3 O11 2.068357 1_555
Nb3 O2 2.188988 1_555
Nb3 O14 2.357866 1_556
Nb4 O13 1.941578 1_555
Nb4 O14 2.031274 1_455
Nb4 O17 2.042799 1_555
Nb4 O8 2.125937 1_555
Nb4 O11 2.289291 1_554
Nb5 O18 1.885551 1_555
Nb5 O15 1.923413 1_555
Nb5 O9 2.081118 1_555
Nb5 O17 2.204287 1_555
Nb5 O13 2.273709 1_655
Nb6 O19 1.908703 1_555
Nb6 O2 2.102952 1_545
Nb6 O4 2.324481 1_546
Nb7 O16 2.164376 1_555
Nb7 O19 2.479424 1_555
N0 Nb2 1.930258 1_555
N0 Nb7 2.106139 1_565
N1 Nb3 1.937270 1_555
N1 Nb6 2.109493 1_555
N2 Nb1 1.918827 1_546
N2 Nb6 2.276804 1_555
N3 Nb7 1.926319 1_555
N4 Nb4 1.957229 1_555
N4 Nb1 2.027218 1_545
N5 Nb0 1.934996 1_545
N5 Nb5 2.026287 1_555
N6 Nb6 1.899683 1_455
N6 Nb7 2.220085 1_555
N7 Nb7 1.901884 1_655
