# generated using pymatgen
data_CuH6SO7
_symmetry_space_group_name_H-M   'P 1'
_cell_length_a   7.43485429
_cell_length_b   7.43485429
_cell_length_c   7.22833228
_cell_angle_alpha   86.42731020
_cell_angle_beta   86.42731020
_cell_angle_gamma   136.14931074
_symmetry_Int_Tables_number   1
_chemical_formula_structural   CuH6SO7
_chemical_formula_sum   'Cu2 H12 S2 O14'
_cell_volume   272.92651669
_cell_formula_units_Z   2
loop_
 _symmetry_equiv_pos_site_id
 _symmetry_equiv_pos_as_xyz
  1  'x, y, z'
loop_
 _atom_site_type_symbol
 _atom_site_label
 _atom_site_symmetry_multiplicity
 _atom_site_fract_x
 _atom_site_fract_y
 _atom_site_fract_z
 _atom_site_occupancy
  Cu  Cu0  1  0.87032000  0.14828200  0.99883300  1
  Cu  Cu1  1  0.14828200  0.87032000  0.49883300  1
  H  H0  1  0.97949400  0.16626300  0.64048000  1
  H  H1  1  0.16626300  0.97949400  0.14048000  1
  H  H2  1  0.15368000  0.46454800  0.67637200  1
  H  H3  1  0.46454800  0.15368000  0.17637200  1
  H  H4  1  0.43120300  0.26016500  0.70430900  1
  H  H5  1  0.26016500  0.43120300  0.20430900  1
  H  H6  1  0.43209900  0.35232300  0.49913700  1
  H  H7  1  0.35232300  0.43209900  0.99913700  1
  H  H8  1  0.38941100  0.76487700  0.98519100  1
  H  H9  1  0.76487700  0.38941100  0.48519100  1
  H  H10  1  0.52226100  0.91650000  0.77628500  1
  H  H11  1  0.91650000  0.52226100  0.27628500  1
  S  S0  1  0.83560800  0.62211200  0.92295700  1
  S  S1  1  0.62211200  0.83560800  0.42295700  1
  O  O0  1  0.00390700  0.67315200  0.75412900  1
  O  O1  1  0.67315200  0.00390700  0.25412900  1
  O  O2  1  0.45665100  0.81602400  0.57111800  1
  O  O3  1  0.81602400  0.45665100  0.07111800  1
  O  O4  1  0.56914600  0.47245100  0.87678400  1
  O  O5  1  0.47245100  0.56914600  0.37678400  1
  O  O6  1  0.87136900  0.95772600  0.48643500  1
  O  O7  1  0.95772600  0.87136900  0.98643500  1
  O  O8  1  0.05699700  0.28594500  0.73813700  1
  O  O9  1  0.28594500  0.05699700  0.23813700  1
  O  O10  1  0.42306000  0.22447700  0.57250600  1
  O  O11  1  0.22447700  0.42306000  0.07250600  1
  O  O12  1  0.52981400  0.94333500  0.91162600  1
  O  O13  1  0.94333500  0.52981400  0.41162600  1
loop_
_geom_bond_atom_site_label_1
_geom_bond_atom_site_label_2
_geom_bond_distance
_geom_bond_site_symmetry_2
Cu0 O1 1.962902 1_556
Cu0 O12 1.970560 1_545
Cu0 O8 1.977287 1_655
Cu0 O11 1.985517 1_656
Cu0 O7 2.571855 1_545
Cu1 O0 1.962902 1_555
Cu1 O13 1.970560 1_455
Cu1 O9 1.977287 1_565
Cu1 O10 1.985517 1_565
Cu1 O6 2.571855 1_455
H0 O8 1.005765 1_655
H0 O6 1.678996 1_545
H1 O9 1.005765 1_565
H1 O7 1.678996 1_454
H2 O8 0.994353 1_555
H3 O9 0.994353 1_555
H4 O10 0.998629 1_555
H5 O11 0.998629 1_555
H6 O10 1.014818 1_555
H6 O5 1.600808 1_555
H7 O11 1.014818 1_556
H7 O4 1.600808 1_555
H8 O12 0.989008 1_555
H9 O13 0.989008 1_555
H10 O12 1.007484 1_555
H10 O2 1.642555 1_555
H11 O13 1.007484 1_555
H11 O3 1.642555 1_555
O0 S0 1.505349 1_455
O1 S1 1.505349 1_545
O2 S1 1.496501 1_555
O3 S0 1.496501 1_554
O4 S0 1.491173 1_555
O5 S1 1.491173 1_555
O6 S1 1.483348 1_555
O7 S0 1.483348 1_555
