# generated using pymatgen
data_LiVF3
_symmetry_space_group_name_H-M   'P 1'
_cell_length_a   5.72425700
_cell_length_b   9.39906600
_cell_length_c   19.27674600
_cell_angle_alpha   90.00000000
_cell_angle_beta   90.00000000
_cell_angle_gamma   90.00000000
_symmetry_Int_Tables_number   1
_chemical_formula_structural   LiVF3
_chemical_formula_sum   'Li16 V16 F48'
_cell_volume   1037.14039107
_cell_formula_units_Z   16
loop_
 _symmetry_equiv_pos_site_id
 _symmetry_equiv_pos_as_xyz
  1  'x, y, z'
loop_
 _atom_site_type_symbol
 _atom_site_label
 _atom_site_symmetry_multiplicity
 _atom_site_fract_x
 _atom_site_fract_y
 _atom_site_fract_z
 _atom_site_occupancy
  Li  Li0  1  0.66347300  0.32948200  0.03803400  1
  Li  Li1  1  0.16347300  0.17051800  0.03803400  1
  Li  Li2  1  0.44588900  0.32915200  0.22347700  1
  Li  Li3  1  0.94588900  0.17084800  0.22347700  1
  Li  Li4  1  0.44588900  0.82915200  0.27652300  1
  Li  Li5  1  0.94588900  0.67084800  0.27652300  1
  Li  Li6  1  0.66347300  0.82948200  0.46196600  1
  Li  Li7  1  0.16347300  0.67051800  0.46196600  1
  Li  Li8  1  0.83652700  0.32948200  0.53803400  1
  Li  Li9  1  0.33652700  0.17051800  0.53803400  1
  Li  Li10  1  0.05411100  0.32915200  0.72347700  1
  Li  Li11  1  0.55411100  0.17084800  0.72347700  1
  Li  Li12  1  0.05411100  0.82915200  0.77652300  1
  Li  Li13  1  0.55411100  0.67084800  0.77652300  1
  Li  Li14  1  0.83652700  0.82948200  0.96196600  1
  Li  Li15  1  0.33652700  0.67051800  0.96196600  1
  V  V0  1  0.66788900  0.02084900  0.12105500  1
  V  V1  1  0.16788900  0.47915100  0.12105500  1
  V  V2  1  0.65946600  0.65730900  0.12042700  1
  V  V3  1  0.15946600  0.84269100  0.12042700  1
  V  V4  1  0.15946600  0.34269100  0.37957300  1
  V  V5  1  0.65946600  0.15730900  0.37957300  1
  V  V6  1  0.16788900  0.97915100  0.37894500  1
  V  V7  1  0.66788900  0.52084900  0.37894500  1
  V  V8  1  0.33211100  0.47915100  0.62105500  1
  V  V9  1  0.83211100  0.02084900  0.62105500  1
  V  V10  1  0.34053400  0.84269100  0.62042700  1
  V  V11  1  0.84053400  0.65730900  0.62042700  1
  V  V12  1  0.34053400  0.34269100  0.87957300  1
  V  V13  1  0.84053400  0.15730900  0.87957300  1
  V  V14  1  0.33211100  0.97915100  0.87894500  1
  V  V15  1  0.83211100  0.52084900  0.87894500  1
  F  F0  1  0.83862100  0.16344700  0.05551700  1
  F  F1  1  0.33862100  0.33655300  0.05551700  1
  F  F2  1  0.82432100  0.83334500  0.06646400  1
  F  F3  1  0.32432100  0.66665500  0.06646400  1
  F  F4  1  0.83445900  0.48841000  0.07215800  1
  F  F5  1  0.33445900  0.01159000  0.07215800  1
  F  F6  1  0.49134500  0.83689400  0.17411400  1
  F  F7  1  0.99134500  0.66310600  0.17411400  1
  F  F8  1  0.47989600  0.50880300  0.17822300  1
  F  F9  1  0.97989600  0.99119700  0.17822300  1
  F  F10  1  0.62893500  0.18259200  0.19331300  1
  F  F11  1  0.12893500  0.31740800  0.19331300  1
  F  F12  1  0.12893500  0.81740800  0.30668700  1
  F  F13  1  0.62893500  0.68259200  0.30668700  1
  F  F14  1  0.47989600  0.00880300  0.32177700  1
  F  F15  1  0.97989600  0.49119700  0.32177700  1
  F  F16  1  0.49134500  0.33689400  0.32588600  1
  F  F17  1  0.99134500  0.16310600  0.32588600  1
  F  F18  1  0.83445900  0.98841000  0.42784200  1
  F  F19  1  0.33445900  0.51159000  0.42784200  1
  F  F20  1  0.82432100  0.33334500  0.43353600  1
  F  F21  1  0.32432100  0.16665500  0.43353600  1
  F  F22  1  0.33862100  0.83655300  0.44448300  1
  F  F23  1  0.83862100  0.66344700  0.44448300  1
  F  F24  1  0.16137900  0.33655300  0.55551700  1
  F  F25  1  0.66137900  0.16344700  0.55551700  1
  F  F26  1  0.67567900  0.83334500  0.56646400  1
  F  F27  1  0.17567900  0.66665500  0.56646400  1
  F  F28  1  0.66554100  0.48841000  0.57215800  1
  F  F29  1  0.16554100  0.01159000  0.57215800  1
  F  F30  1  0.00865500  0.83689400  0.67411400  1
  F  F31  1  0.50865500  0.66310600  0.67411400  1
  F  F32  1  0.02010400  0.50880300  0.67822300  1
  F  F33  1  0.52010400  0.99119700  0.67822300  1
  F  F34  1  0.37106500  0.31740800  0.69331300  1
  F  F35  1  0.87106500  0.18259200  0.69331300  1
  F  F36  1  0.37106500  0.81740800  0.80668700  1
  F  F37  1  0.87106500  0.68259200  0.80668700  1
  F  F38  1  0.02010400  0.00880300  0.82177700  1
  F  F39  1  0.52010400  0.49119700  0.82177700  1
  F  F40  1  0.00865500  0.33689400  0.82588600  1
  F  F41  1  0.50865500  0.16310600  0.82588600  1
  F  F42  1  0.66554100  0.98841000  0.92784200  1
  F  F43  1  0.16554100  0.51159000  0.92784200  1
  F  F44  1  0.67567900  0.33334500  0.93353600  1
  F  F45  1  0.17567900  0.16665500  0.93353600  1
  F  F46  1  0.16137900  0.83655300  0.94448300  1
  F  F47  1  0.66137900  0.66344700  0.94448300  1
loop_
_geom_bond_atom_site_label_1
_geom_bond_atom_site_label_2
_geom_bond_distance
_geom_bond_site_symmetry_2
F0 Li0 1.885248 1_555
F0 Li1 1.890998 1_655
F0 V0 2.085088 1_555
F1 Li1 1.885248 1_555
F1 Li0 1.890998 1_555
F1 V1 2.085088 1_555
F2 Li14 2.015920 1_554
F2 V2 2.170303 1_555
F2 V3 2.184095 1_655
F2 V0 2.239459 1_565
F3 Li15 2.015920 1_554
F3 V3 2.170303 1_555
F3 V2 2.184095 1_555
F3 V1 2.239459 1_555
F4 Li0 1.903168 1_555
F4 V2 2.095070 1_555
F4 V1 2.130475 1_655
F5 Li1 1.903168 1_555
F5 V3 2.095070 1_545
F5 V0 2.130475 1_555
F6 Li4 1.992516 1_555
F6 V3 2.164047 1_555
F6 V2 2.201432 1_555
F6 V0 2.248748 1_565
F7 Li5 1.992516 1_555
F7 V2 2.164047 1_555
F7 V3 2.201432 1_655
F7 V1 2.248748 1_655
F8 Li2 1.910522 1_555
F8 V2 2.060620 1_555
F8 V1 2.117058 1_555
F9 Li3 1.910522 1_565
F9 V3 2.060620 1_655
F9 V0 2.117058 1_565
F10 Li2 1.825807 1_555
F10 Li3 1.908419 1_555
F10 V0 2.073885 1_555
F11 Li3 1.825807 1_455
F11 Li2 1.908419 1_555
F11 V1 2.073885 1_555
F12 Li5 1.825807 1_455
F12 Li4 1.908419 1_555
F12 V6 2.073885 1_555
F13 Li4 1.825807 1_555
F13 Li5 1.908419 1_555
F13 V7 2.073885 1_555
F14 Li4 1.910522 1_545
F14 V5 2.060620 1_555
F14 V6 2.117058 1_545
F15 Li5 1.910522 1_555
F15 V4 2.060620 1_655
F15 V7 2.117058 1_555
F16 Li2 1.992516 1_555
F16 V4 2.164047 1_555
F16 V5 2.201432 1_555
F16 V7 2.248748 1_555
F17 Li3 1.992516 1_555
F17 V5 2.164047 1_555
F17 V4 2.201432 1_655
F17 V6 2.248748 1_645
F18 Li6 1.903168 1_555
F18 V5 2.095070 1_565
F18 V6 2.130475 1_655
F19 Li7 1.903168 1_555
F19 V4 2.095070 1_555
F19 V7 2.130475 1_555
F20 Li8 2.015920 1_555
F20 V5 2.170303 1_555
F20 V4 2.184095 1_655
F20 V7 2.239459 1_555
F21 Li9 2.015920 1_555
F21 V4 2.170303 1_555
F21 V5 2.184095 1_555
F21 V6 2.239459 1_545
F22 Li7 1.885248 1_555
F22 Li6 1.890998 1_555
F22 V6 2.085088 1_555
F23 Li6 1.885248 1_555
F23 Li7 1.890998 1_655
F23 V7 2.085088 1_555
F24 Li9 1.885248 1_555
F24 Li8 1.890998 1_455
F24 V8 2.085088 1_555
F25 Li8 1.885248 1_555
F25 Li9 1.890998 1_555
F25 V9 2.085088 1_555
F26 Li6 2.015920 1_555
F26 V11 2.170303 1_555
F26 V10 2.184095 1_555
F26 V9 2.239459 1_565
F27 Li7 2.015920 1_555
F27 V10 2.170303 1_555
F27 V11 2.184095 1_455
F27 V8 2.239459 1_555
F28 Li8 1.903168 1_555
F28 V11 2.095070 1_555
F28 V8 2.130475 1_555
F29 Li9 1.903168 1_555
F29 V10 2.095070 1_545
F29 V9 2.130475 1_455
F30 Li12 1.992516 1_555
F30 V10 2.164047 1_555
F30 V11 2.201432 1_455
F30 V9 2.248748 1_465
F31 Li13 1.992516 1_555
F31 V11 2.164047 1_555
F31 V10 2.201432 1_555
F31 V8 2.248748 1_555
F32 Li10 1.910522 1_555
F32 V11 2.060620 1_455
F32 V8 2.117058 1_555
F33 Li11 1.910522 1_565
F33 V10 2.060620 1_555
F33 V9 2.117058 1_565
F34 Li11 1.825807 1_555
F34 Li10 1.908419 1_555
F34 V8 2.073885 1_555
F35 Li10 1.825807 1_655
F35 Li11 1.908419 1_555
F35 V9 2.073885 1_555
F36 Li13 1.825807 1_555
F36 Li12 1.908419 1_555
F36 V14 2.073885 1_555
F37 Li12 1.825807 1_655
F37 Li13 1.908419 1_555
F37 V15 2.073885 1_555
F38 Li12 1.910522 1_545
F38 V13 2.060620 1_455
F38 V14 2.117058 1_545
F39 Li13 1.910522 1_555
F39 V12 2.060620 1_555
F39 V15 2.117058 1_555
F40 Li10 1.992516 1_555
F40 V12 2.164047 1_555
F40 V13 2.201432 1_455
F40 V15 2.248748 1_455
F41 Li11 1.992516 1_555
F41 V13 2.164047 1_555
F41 V12 2.201432 1_555
F41 V14 2.248748 1_545
F42 Li14 1.903168 1_555
F42 V13 2.095070 1_565
F42 V14 2.130475 1_555
F43 Li15 1.903168 1_555
F43 V12 2.095070 1_555
F43 V15 2.130475 1_455
F44 Li0 2.015920 1_556
F44 V13 2.170303 1_555
F44 V12 2.184095 1_555
F44 V15 2.239459 1_555
F45 Li1 2.015920 1_556
F45 V12 2.170303 1_555
F45 V13 2.184095 1_455
F45 V14 2.239459 1_545
F46 Li15 1.885248 1_555
F46 Li14 1.890998 1_455
F46 V14 2.085088 1_555
F47 Li14 1.885248 1_555
F47 Li15 1.890998 1_555
F47 V15 2.085088 1_555
