# generated using pymatgen
data_KHSeO4
_symmetry_space_group_name_H-M   'P 1'
_cell_length_a   8.79933100
_cell_length_b   10.18129800
_cell_length_c   19.72191700
_cell_angle_alpha   90.00000000
_cell_angle_beta   90.00000000
_cell_angle_gamma   90.00000000
_symmetry_Int_Tables_number   1
_chemical_formula_structural   KHSeO4
_chemical_formula_sum   'K16 H16 Se16 O64'
_cell_volume   1766.85915249
_cell_formula_units_Z   16
loop_
 _symmetry_equiv_pos_site_id
 _symmetry_equiv_pos_as_xyz
  1  'x, y, z'
loop_
 _atom_site_type_symbol
 _atom_site_label
 _atom_site_symmetry_multiplicity
 _atom_site_fract_x
 _atom_site_fract_y
 _atom_site_fract_z
 _atom_site_occupancy
  K  K0  1  0.88457200  0.17606900  0.37474000  1
  K  K1  1  0.38457200  0.32393100  0.62526000  1
  K  K2  1  0.11542800  0.67606900  0.12526000  1
  K  K3  1  0.61542800  0.82393100  0.87474000  1
  K  K4  1  0.11542800  0.82393100  0.62526000  1
  K  K5  1  0.61542800  0.67606900  0.37474000  1
  K  K6  1  0.88457200  0.32393100  0.87474000  1
  K  K7  1  0.38457200  0.17606900  0.12526000  1
  K  K8  1  0.37502700  0.31941100  0.38094000  1
  K  K9  1  0.87502700  0.18058900  0.61906000  1
  K  K10  1  0.62497300  0.81941100  0.11906000  1
  K  K11  1  0.12497300  0.68058900  0.88094000  1
  K  K12  1  0.62497300  0.68058900  0.61906000  1
  K  K13  1  0.12497300  0.81941100  0.38094000  1
  K  K14  1  0.37502700  0.18058900  0.88094000  1
  K  K15  1  0.87502700  0.31941100  0.11906000  1
  H  H0  1  0.91126100  0.60804600  0.49986200  1
  H  H1  1  0.41126100  0.89195400  0.50013800  1
  H  H2  1  0.08873900  0.10804600  0.00013800  1
  H  H3  1  0.58873900  0.39195400  0.99986200  1
  H  H4  1  0.08873900  0.39195400  0.50013800  1
  H  H5  1  0.58873900  0.10804600  0.49986200  1
  H  H6  1  0.91126100  0.89195400  0.99986200  1
  H  H7  1  0.41126100  0.60804600  0.00013800  1
  H  H8  1  0.22620400  0.06947800  0.27853700  1
  H  H9  1  0.72620400  0.43052200  0.72146300  1
  H  H10  1  0.77379600  0.56947800  0.22146300  1
  H  H11  1  0.27379600  0.93052200  0.77853700  1
  H  H12  1  0.77379600  0.93052200  0.72146300  1
  H  H13  1  0.27379600  0.56947800  0.27853700  1
  H  H14  1  0.22620400  0.43052200  0.77853700  1
  H  H15  1  0.72620400  0.06947800  0.22146300  1
  Se  Se0  1  0.75500700  0.42300500  0.49732800  1
  Se  Se1  1  0.25500700  0.07699500  0.50267200  1
  Se  Se2  1  0.24499300  0.92300500  0.00267200  1
  Se  Se3  1  0.74499300  0.57699500  0.99732800  1
  Se  Se4  1  0.24499300  0.57699500  0.50267200  1
  Se  Se5  1  0.74499300  0.92300500  0.49732800  1
  Se  Se6  1  0.75500700  0.07699500  0.99732800  1
  Se  Se7  1  0.25500700  0.42300500  0.00267200  1
  Se  Se8  1  0.48256500  0.01568400  0.29515100  1
  Se  Se9  1  0.98256500  0.48431600  0.70484900  1
  Se  Se10  1  0.51743500  0.51568400  0.20484900  1
  Se  Se11  1  0.01743500  0.98431600  0.79515100  1
  Se  Se12  1  0.51743500  0.98431600  0.70484900  1
  Se  Se13  1  0.01743500  0.51568400  0.29515100  1
  Se  Se14  1  0.48256500  0.48431600  0.79515100  1
  Se  Se15  1  0.98256500  0.01568400  0.20484900  1
  O  O0  1  0.79570700  0.59402800  0.49936600  1
  O  O1  1  0.29570700  0.90597200  0.50063400  1
  O  O2  1  0.20429300  0.09402800  0.00063400  1
  O  O3  1  0.70429300  0.40597200  0.99936600  1
  O  O4  1  0.20429300  0.40597200  0.50063400  1
  O  O5  1  0.70429300  0.09402800  0.49936600  1
  O  O6  1  0.79570700  0.90597200  0.99936600  1
  O  O7  1  0.29570700  0.59402800  0.00063400  1
  O  O8  1  0.91913100  0.34246000  0.49341900  1
  O  O9  1  0.41913100  0.15754000  0.50658100  1
  O  O10  1  0.08086900  0.84246000  0.00658100  1
  O  O11  1  0.58086900  0.65754000  0.99341900  1
  O  O12  1  0.08086900  0.65754000  0.50658100  1
  O  O13  1  0.58086900  0.84246000  0.49341900  1
  O  O14  1  0.91913100  0.15754000  0.99341900  1
  O  O15  1  0.41913100  0.34246000  0.00658100  1
  O  O16  1  0.66508600  0.39532400  0.56942600  1
  O  O17  1  0.16508600  0.10467600  0.43057400  1
  O  O18  1  0.33491400  0.89532400  0.93057400  1
  O  O19  1  0.83491400  0.60467600  0.06942600  1
  O  O20  1  0.33491400  0.60467600  0.43057400  1
  O  O21  1  0.83491400  0.89532400  0.56942600  1
  O  O22  1  0.66508600  0.10467600  0.06942600  1
  O  O23  1  0.16508600  0.39532400  0.93057400  1
  O  O24  1  0.65262400  0.40229800  0.42804500  1
  O  O25  1  0.15262400  0.09770200  0.57195500  1
  O  O26  1  0.34737600  0.90229800  0.07195500  1
  O  O27  1  0.84737600  0.59770200  0.92804500  1
  O  O28  1  0.34737600  0.59770200  0.57195500  1
  O  O29  1  0.84737600  0.90229800  0.42804500  1
  O  O30  1  0.65262400  0.09770200  0.92804500  1
  O  O31  1  0.15262400  0.40229800  0.07195500  1
  O  O32  1  0.56960700  0.00237200  0.21974900  1
  O  O33  1  0.06960700  0.49762800  0.78025100  1
  O  O34  1  0.43039300  0.50237200  0.28025100  1
  O  O35  1  0.93039300  0.99762800  0.71974900  1
  O  O36  1  0.43039300  0.99762800  0.78025100  1
  O  O37  1  0.93039300  0.50237200  0.21974900  1
  O  O38  1  0.56960700  0.49762800  0.71974900  1
  O  O39  1  0.06960700  0.00237200  0.28025100  1
  O  O40  1  0.32783900  0.12098500  0.27644300  1
  O  O41  1  0.82783900  0.37901500  0.72355700  1
  O  O42  1  0.67216100  0.62098500  0.22355700  1
  O  O43  1  0.17216100  0.87901500  0.77644300  1
  O  O44  1  0.67216100  0.87901500  0.72355700  1
  O  O45  1  0.17216100  0.62098500  0.27644300  1
  O  O46  1  0.32783900  0.37901500  0.77644300  1
  O  O47  1  0.82783900  0.12098500  0.22355700  1
  O  O48  1  0.41535200  0.87430600  0.32266100  1
  O  O49  1  0.91535200  0.62569400  0.67733900  1
  O  O50  1  0.58464800  0.37430600  0.17733900  1
  O  O51  1  0.08464800  0.12569400  0.82266100  1
  O  O52  1  0.58464800  0.12569400  0.67733900  1
  O  O53  1  0.08464800  0.37430600  0.32266100  1
  O  O54  1  0.41535200  0.62569400  0.82266100  1
  O  O55  1  0.91535200  0.87430600  0.17733900  1
  O  O56  1  0.58342200  0.10166500  0.34956000  1
  O  O57  1  0.08342200  0.39833500  0.65044000  1
  O  O58  1  0.41657800  0.60166500  0.15044000  1
  O  O59  1  0.91657800  0.89833500  0.84956000  1
  O  O60  1  0.41657800  0.89833500  0.65044000  1
  O  O61  1  0.91657800  0.60166500  0.34956000  1
  O  O62  1  0.58342200  0.39833500  0.84956000  1
  O  O63  1  0.08342200  0.10166500  0.15044000  1
loop_
_geom_bond_atom_site_label_1
_geom_bond_atom_site_label_2
_geom_bond_distance
_geom_bond_site_symmetry_2
K0 O17 2.798851 1_655
K0 O56 2.800451 1_555
K0 O53 2.868447 1_655
K0 O8 2.905283 1_555
K0 O29 2.996931 1_545
K0 O39 3.041560 1_655
K0 O5 3.042244 1_555
K0 O47 3.074701 1_555
K0 O24 3.252080 1_555
K1 O16 2.798851 1_555
K1 O57 2.800451 1_555
K1 O52 2.868447 1_555
K1 O9 2.905283 1_555
K1 O28 2.996931 1_555
K1 O38 3.041560 1_555
K1 O4 3.042244 1_555
K1 O46 3.074701 1_555
K1 O25 3.252080 1_555
K2 O19 2.798851 1_455
K2 O58 2.800451 1_555
K2 O55 2.868447 1_455
K2 O10 2.905283 1_555
K2 O31 2.996931 1_555
K2 O37 3.041560 1_455
K2 O7 3.042244 1_555
K2 O45 3.074701 1_555
K2 O26 3.252080 1_555
K3 O18 2.798851 1_555
K3 O59 2.800451 1_555
K3 O54 2.868447 1_555
K3 O11 2.905283 1_555
K3 O30 2.996931 1_565
K3 O36 3.041560 1_555
K3 O6 3.042244 1_555
K3 O44 3.074701 1_555
K3 O27 3.252080 1_555
K4 O21 2.798851 1_455
K4 O60 2.800451 1_555
K4 O49 2.868447 1_455
K4 O12 2.905283 1_555
K4 O25 2.996931 1_565
K4 O35 3.041560 1_455
K4 O1 3.042244 1_555
K4 O43 3.074701 1_555
K4 O28 3.252080 1_555
K5 O20 2.798851 1_555
K5 O61 2.800451 1_555
K5 O48 2.868447 1_555
K5 O13 2.905283 1_555
K5 O24 2.996931 1_555
K5 O34 3.041560 1_555
K5 O0 3.042244 1_555
K5 O42 3.074701 1_555
K5 O29 3.252080 1_555
K6 O23 2.798851 1_655
K6 O62 2.800451 1_555
K6 O51 2.868447 1_655
K6 O14 2.905283 1_555
K6 O27 2.996931 1_555
K6 O33 3.041560 1_655
K6 O3 3.042244 1_555
K6 O41 3.074701 1_555
K6 O30 3.252080 1_555
K7 O22 2.798851 1_555
K7 O63 2.800451 1_555
K7 O50 2.868447 1_555
K7 O15 2.905283 1_555
K7 O26 2.996931 1_545
K7 O32 3.041560 1_555
K7 O2 3.042244 1_555
K7 O40 3.074701 1_555
K7 O31 3.252080 1_555
K8 O24 2.746240 1_555
K8 O34 2.765976 1_555
K8 O53 2.856952 1_555
K8 O40 2.915645 1_555
K8 O4 2.933623 1_555
K8 O56 2.942856 1_555
K8 O9 3.001099 1_555
K8 O17 3.025011 1_555
K8 O20 3.085148 1_555
K9 O25 2.746240 1_655
K9 O35 2.765976 1_545
K9 O52 2.856952 1_555
K9 O41 2.915645 1_555
K9 O5 2.933623 1_555
K9 O57 2.942856 1_655
K9 O8 3.001099 1_555
K9 O16 3.025011 1_555
K9 O21 3.085148 1_545
K10 O26 2.746240 1_555
K10 O32 2.765976 1_565
K10 O55 2.856952 1_555
K10 O42 2.915645 1_555
K10 O6 2.933623 1_554
K10 O58 2.942856 1_555
K10 O11 3.001099 1_554
K10 O19 3.025011 1_555
K10 O22 3.085148 1_565
K11 O27 2.746240 1_455
K11 O33 2.765976 1_555
K11 O54 2.856952 1_555
K11 O43 2.915645 1_555
K11 O7 2.933623 1_556
K11 O59 2.942856 1_455
K11 O10 3.001099 1_556
K11 O18 3.025011 1_555
K11 O23 3.085148 1_555
K12 O28 2.746240 1_555
K12 O38 2.765976 1_555
K12 O49 2.856952 1_555
K12 O44 2.915645 1_555
K12 O0 2.933623 1_555
K12 O60 2.942856 1_555
K12 O13 3.001099 1_555
K12 O21 3.025011 1_555
K12 O16 3.085148 1_555
K13 O29 2.746240 1_455
K13 O39 2.765976 1_565
K13 O48 2.856952 1_555
K13 O45 2.915645 1_555
K13 O1 2.933623 1_555
K13 O61 2.942856 1_455
K13 O12 3.001099 1_555
K13 O20 3.025011 1_555
K13 O17 3.085148 1_565
K14 O30 2.746240 1_555
K14 O36 2.765976 1_545
K14 O51 2.856952 1_555
K14 O46 2.915645 1_555
K14 O2 2.933623 1_556
K14 O62 2.942856 1_555
K14 O15 3.001099 1_556
K14 O23 3.025011 1_555
K14 O18 3.085148 1_545
K15 O31 2.746240 1_655
K15 O37 2.765976 1_555
K15 O50 2.856952 1_555
K15 O47 2.915645 1_555
K15 O3 2.933623 1_554
K15 O63 2.942856 1_655
K15 O14 3.001099 1_554
K15 O22 3.025011 1_555
K15 O19 3.085148 1_555
H0 O0 1.026812 1_555
H0 O12 1.580777 1_655
H1 O1 1.026812 1_555
H1 O13 1.580777 1_555
H2 O2 1.026812 1_555
H2 O14 1.580777 1_454
H3 O3 1.026812 1_555
H3 O15 1.580777 1_556
H4 O4 1.026812 1_555
H4 O8 1.580777 1_455
H5 O5 1.026812 1_555
H5 O9 1.580777 1_555
H6 O6 1.026812 1_555
H6 O10 1.580777 1_656
H7 O7 1.026812 1_555
H7 O11 1.580777 1_554
H8 O40 1.037554 1_555
H8 O39 1.538403 1_555
H9 O41 1.037554 1_555
H9 O38 1.538403 1_555
H10 O42 1.037554 1_555
H10 O37 1.538403 1_555
H11 O43 1.037554 1_555
H11 O36 1.538403 1_555
H12 O44 1.037554 1_555
H12 O35 1.538403 1_555
H13 O45 1.037554 1_555
H13 O34 1.538403 1_555
H14 O46 1.037554 1_555
H14 O33 1.538403 1_555
H15 O47 1.037554 1_555
H15 O32 1.538403 1_555
O0 Se0 1.778139 1_555
O1 Se1 1.778139 1_565
O2 Se2 1.778139 1_545
O3 Se3 1.778139 1_555
O4 Se4 1.778139 1_555
O5 Se5 1.778139 1_545
O6 Se6 1.778139 1_565
O7 Se7 1.778139 1_555
O8 Se0 1.662555 1_555
O9 Se1 1.662555 1_555
O10 Se2 1.662555 1_555
O11 Se3 1.662555 1_555
O12 Se4 1.662555 1_555
O13 Se5 1.662555 1_555
O14 Se6 1.662555 1_555
O15 Se7 1.662555 1_555
O16 Se0 1.651462 1_555
O17 Se1 1.651462 1_555
O18 Se2 1.651462 1_556
O19 Se3 1.651462 1_554
O20 Se4 1.651462 1_555
O21 Se5 1.651462 1_555
O22 Se6 1.651462 1_554
O23 Se7 1.651462 1_556
O24 Se0 1.650183 1_555
O25 Se1 1.650183 1_555
O26 Se2 1.650183 1_555
O27 Se3 1.650183 1_555
O28 Se4 1.650183 1_555
O29 Se5 1.650183 1_555
O30 Se6 1.650183 1_555
O31 Se7 1.650183 1_555
O32 Se8 1.678205 1_555
O33 Se9 1.678205 1_455
O34 Se10 1.678205 1_555
O35 Se11 1.678205 1_655
O36 Se12 1.678205 1_555
O37 Se13 1.678205 1_655
O38 Se14 1.678205 1_555
O39 Se15 1.678205 1_455
O40 Se8 1.771771 1_555
O41 Se9 1.771771 1_555
O42 Se10 1.771771 1_555
O43 Se11 1.771771 1_555
O44 Se12 1.771771 1_555
O45 Se13 1.771771 1_555
O46 Se14 1.771771 1_555
O47 Se15 1.771771 1_555
O48 Se8 1.648046 1_565
O49 Se9 1.648046 1_555
O50 Se10 1.648046 1_555
O51 Se11 1.648046 1_545
O52 Se12 1.648046 1_545
O53 Se13 1.648046 1_555
O54 Se14 1.648046 1_555
O55 Se15 1.648046 1_565
O56 Se8 1.644800 1_555
O57 Se9 1.644800 1_455
O58 Se10 1.644800 1_555
O59 Se11 1.644800 1_655
O60 Se12 1.644800 1_555
O61 Se13 1.644800 1_655
O62 Se14 1.644800 1_555
O63 Se15 1.644800 1_455
