# generated using pymatgen
data_Na5LiMn2P2(CO7)2
_symmetry_space_group_name_H-M   'P 1'
_cell_length_a   6.81305500
_cell_length_b   8.98001460
_cell_length_c   10.35178548
_cell_angle_alpha   90.14485435
_cell_angle_beta   90.14909848
_cell_angle_gamma   90.29447433
_symmetry_Int_Tables_number   1
_chemical_formula_structural   Na5LiMn2P2(CO7)2
_chemical_formula_sum   'Na10 Li2 Mn4 P4 C4 O28'
_cell_volume   633.32348425
_cell_formula_units_Z   2
loop_
 _symmetry_equiv_pos_site_id
 _symmetry_equiv_pos_as_xyz
  1  'x, y, z'
loop_
 _atom_site_type_symbol
 _atom_site_label
 _atom_site_symmetry_multiplicity
 _atom_site_fract_x
 _atom_site_fract_y
 _atom_site_fract_z
 _atom_site_occupancy
  Na  Na0  1  0.24784500  0.91779700  0.87949000  1
  Na  Na1  1  0.25029300  0.91759200  0.38064600  1
  Na  Na2  1  0.00068200  0.74195400  0.62392900  1
  Na  Na3  1  0.49928700  0.74166000  0.62372500  1
  Na  Na4  1  0.00201500  0.74076200  0.12432100  1
  Na  Na5  1  0.49819600  0.74061100  0.12401000  1
  Na  Na6  1  0.50200300  0.25814300  0.87503900  1
  Na  Na7  1  0.50148900  0.25922500  0.37743800  1
  Na  Na8  1  0.99863900  0.25881500  0.37749300  1
  Na  Na9  1  0.75179400  0.08421900  0.11970900  1
  Li  Li0  1  0.99198700  0.26746800  0.87787300  1
  Li  Li1  1  0.75284600  0.08476500  0.62260500  1
  Mn  Mn0  1  0.74957900  0.63717600  0.88785000  1
  Mn  Mn1  1  0.75008700  0.63747800  0.38977200  1
  Mn  Mn2  1  0.24889600  0.35924900  0.61269200  1
  Mn  Mn3  1  0.24778800  0.36093400  0.10913200  1
  P  P0  1  0.24588500  0.58562700  0.85031200  1
  P  P1  1  0.24998200  0.58826700  0.35181200  1
  P  P2  1  0.75303200  0.40459100  0.64999100  1
  P  P3  1  0.74981100  0.41141700  0.14665100  1
  C  C0  1  0.75577300  0.94478500  0.86428700  1
  C  C1  1  0.75006300  0.94397700  0.37171400  1
  C  C2  1  0.24833900  0.06113500  0.63321100  1
  C  C3  1  0.24905100  0.06094200  0.13153300  1
  O  O0  1  0.25057800  0.91715200  0.64381700  1
  O  O1  1  0.25080500  0.91694600  0.14204900  1
  O  O2  1  0.75017500  0.88350100  0.97836600  1
  O  O3  1  0.75062800  0.89020600  0.48868000  1
  O  O4  1  0.74922000  0.85945300  0.76243600  1
  O  O5  1  0.75047300  0.85379300  0.27253000  1
  O  O6  1  0.06559900  0.68078600  0.89090900  1
  O  O7  1  0.43243200  0.67381900  0.89348700  1
  O  O8  1  0.06685300  0.68051500  0.39201000  1
  O  O9  1  0.43418700  0.68101500  0.39214200  1
  O  O10  1  0.24863200  0.57022600  0.70010000  1
  O  O11  1  0.75036800  0.56247800  0.58851600  1
  O  O12  1  0.24944400  0.56971600  0.20163200  1
  O  O13  1  0.74977600  0.56941200  0.08633100  1
  O  O14  1  0.23637800  0.42634500  0.90886700  1
  O  O15  1  0.76195900  0.42350400  0.80055100  1
  O  O16  1  0.25030200  0.43168400  0.41408200  1
  O  O17  1  0.75293800  0.42915200  0.29688700  1
  O  O18  1  0.56822600  0.31119300  0.61230300  1
  O  O19  1  0.93215800  0.31065700  0.60632300  1
  O  O20  1  0.56483800  0.31974600  0.10689100  1
  O  O21  1  0.93117700  0.31940000  0.10290300  1
  O  O22  1  0.24515900  0.14525200  0.73580700  1
  O  O23  1  0.24840700  0.14470600  0.23435700  1
  O  O24  1  0.24971700  0.12277300  0.51950000  1
  O  O25  1  0.24796400  0.12307900  0.01812200  1
  O  O26  1  0.76704900  0.08847800  0.85100100  1
  O  O27  1  0.74920200  0.08642300  0.35416800  1
loop_
_geom_bond_atom_site_label_1
_geom_bond_atom_site_label_2
_geom_bond_distance
_geom_bond_site_symmetry_2
Na0 O25 2.333310 1_566
Na0 O0 2.439748 1_555
Na0 O6 2.461802 1_555
Na0 O22 2.529868 1_565
Na0 O7 2.536078 1_555
Na0 O1 2.718007 1_556
Na1 O24 2.334035 1_565
Na1 O8 2.466361 1_555
Na1 O1 2.469909 1_555
Na1 O9 2.474891 1_555
Na1 O23 2.543368 1_565
Na1 O0 2.724298 1_555
Na2 O0 2.320624 1_555
Na2 O11 2.367670 1_455
Na2 O10 2.424787 1_555
Na2 O4 2.475469 1_455
Na2 O8 2.504568 1_555
Na2 O3 2.579777 1_455
Na2 O6 2.852944 1_555
Na3 O0 2.329299 1_555
Na3 O11 2.382589 1_555
Na3 O10 2.428489 1_555
Na3 O4 2.457919 1_555
Na3 O9 2.495139 1_555
Na3 O3 2.581553 1_555
Na3 O7 2.896401 1_555
Na4 O1 2.319325 1_555
Na4 O13 2.332784 1_455
Na4 O12 2.422257 1_555
Na4 O6 2.513399 1_554
Na4 O5 2.518892 1_455
Na4 O2 2.624631 1_454
Na4 O8 2.858369 1_555
Na5 O1 2.326105 1_555
Na5 O13 2.341168 1_555
Na5 O12 2.420656 1_555
Na5 O7 2.497896 1_554
Na5 O5 2.512240 1_555
Na5 O2 2.620572 1_554
Na5 O9 2.862203 1_555
Na6 O26 2.381759 1_555
Na6 O14 2.389122 1_555
Na6 O15 2.433571 1_555
Na6 O22 2.475567 1_555
Na6 O20 2.497037 1_556
Na6 O25 2.580963 1_556
Na6 O18 2.799729 1_555
Na7 O27 2.311150 1_555
Na7 O16 2.344928 1_555
Na7 O17 2.438370 1_555
Na7 O23 2.487009 1_555
Na7 O18 2.514345 1_555
Na7 O24 2.570433 1_555
Na7 O20 2.887358 1_555
Na8 O27 2.304745 1_555
Na8 O16 2.336540 1_655
Na8 O17 2.421510 1_555
Na8 O19 2.456678 1_555
Na8 O23 2.482857 1_655
Na8 O24 2.568479 1_655
Na9 O2 2.318651 1_544
Na9 O27 2.427211 1_555
Na9 O21 2.441431 1_555
Na9 O20 2.478232 1_555
Na9 O5 2.607845 1_545
Na9 O26 2.784171 1_554
Li0 O14 2.209375 1_655
Li0 O26 2.231525 1_555
Li0 O15 2.254298 1_555
Li0 O21 2.411854 1_556
Li0 O22 2.523286 1_655
Li0 O25 2.617267 1_656
Li1 O3 2.227579 1_545
Li1 O26 2.366178 1_555
Li1 O19 2.369190 1_555
Li1 O18 2.398876 1_555
Li1 O4 2.490806 1_545
Mn0 O15 2.121035 1_555
Mn0 O13 2.144326 1_556
Mn0 O6 2.186540 1_655
Mn0 O7 2.188229 1_555
Mn0 O4 2.383870 1_555
Mn0 O2 2.400073 1_555
Mn1 O17 2.101444 1_555
Mn1 O11 2.166406 1_555
Mn1 O9 2.189631 1_555
Mn1 O8 2.190572 1_655
Mn1 O5 2.293082 1_555
Mn1 O3 2.487391 1_555
Mn2 O10 2.097502 1_555
Mn2 O16 2.158009 1_555
Mn2 O19 2.200216 1_455
Mn2 O18 2.220186 1_555
Mn2 O22 2.308650 1_555
Mn2 O24 2.330231 1_555
Mn3 O12 2.103041 1_555
Mn3 O14 2.157453 1_554
Mn3 O21 2.187963 1_455
Mn3 O20 2.193562 1_555
Mn3 O25 2.332314 1_555
Mn3 O23 2.337417 1_555
C0 O26 1.299920 1_565
C0 O4 1.302357 1_555
C0 O2 1.304684 1_555
C1 O27 1.292494 1_565
C1 O3 1.304675 1_555
C1 O5 1.306094 1_555
C2 O0 1.298063 1_545
C2 O22 1.302014 1_555
C2 O24 1.302057 1_555
C3 O1 1.298048 1_545
C3 O25 1.301157 1_555
C3 O23 1.301849 1_555
O6 P0 1.557950 1_555
O7 P0 1.557946 1_555
O8 P1 1.558089 1_555
O9 P1 1.558132 1_555
O10 P0 1.560922 1_555
O11 P2 1.555733 1_555
O12 P1 1.563105 1_555
O13 P3 1.551570 1_555
O14 P0 1.556008 1_555
O15 P2 1.568353 1_555
O16 P1 1.548320 1_555
O17 P3 1.563022 1_555
O18 P2 1.557531 1_555
O19 P2 1.554597 1_555
O20 P3 1.555693 1_555
O21 P3 1.557642 1_555
