# generated using pymatgen
data_VF5
_symmetry_space_group_name_H-M   'P 1'
_cell_length_a   5.45549429
_cell_length_b   5.45549384
_cell_length_c   11.61784339
_cell_angle_alpha   90.00000000
_cell_angle_beta   90.00000000
_cell_angle_gamma   97.81529135
_symmetry_Int_Tables_number   1
_chemical_formula_structural   VF5
_chemical_formula_sum   'V4 F20'
_cell_volume   342.56337952
_cell_formula_units_Z   4
loop_
 _symmetry_equiv_pos_site_id
 _symmetry_equiv_pos_as_xyz
  1  'x, y, z'
loop_
 _atom_site_type_symbol
 _atom_site_label
 _atom_site_symmetry_multiplicity
 _atom_site_fract_x
 _atom_site_fract_y
 _atom_site_fract_z
 _atom_site_occupancy
  V  V0  1  0.17215396  0.17215396  0.41389154  1
  V  V1  1  0.32784604  0.32784604  0.91389154  1
  V  V2  1  0.67215396  0.67215396  0.08610846  1
  V  V3  1  0.82784604  0.82784604  0.58610846  1
  F  F0  1  0.14317789  0.85682211  0.50000000  1
  F  F1  1  -0.00203467  -0.00203467  0.30892102  1
  F  F2  1  0.12016468  0.44944366  0.35698514  1
  F  F3  1  0.05055634  0.37983532  0.85698514  1
  F  F4  1  0.19683650  0.19683650  0.04084541  1
  F  F5  1  0.35682211  0.64317789  0.00000000  1
  F  F6  1  0.30316350  0.30316350  0.54084541  1
  F  F7  1  0.44944366  0.12016468  0.35698514  1
  F  F8  1  0.37983532  0.05055634  0.85698514  1
  F  F9  1  0.50203467  0.50203467  0.80892102  1
  F  F10  1  0.49796533  0.49796533  0.19107898  1
  F  F11  1  0.62016468  0.94944366  0.14301486  1
  F  F12  1  0.55055634  0.87983532  0.64301486  1
  F  F13  1  0.69683650  0.69683650  0.45915459  1
  F  F14  1  0.64317789  0.35682211  0.00000000  1
  F  F15  1  0.80316350  0.80316350  0.95915459  1
  F  F16  1  0.94944366  0.62016468  0.14301486  1
  F  F17  1  0.87983532  0.55055634  0.64301486  1
  F  F18  1  0.00203467  0.00203467  0.69107898  1
  F  F19  1  0.85682211  0.14317789  0.50000000  1
loop_
_geom_bond_atom_site_label_1
_geom_bond_atom_site_label_2
_geom_bond_distance
_geom_bond_site_symmetry_2
F0 V0 1.977681 1_565
F0 V3 1.977681 1_455
F1 V0 1.745780 1_555
F2 V0 1.709574 1_555
F3 V1 1.709574 1_555
F4 V1 1.748756 1_554
F5 V1 1.977681 1_554
F5 V2 1.977681 1_555
F6 V0 1.748756 1_555
F7 V0 1.709574 1_555
F8 V1 1.709574 1_555
F9 V1 1.745780 1_555
F10 V2 1.745780 1_555
F11 V2 1.709574 1_555
F12 V3 1.709574 1_555
F13 V3 1.748756 1_555
F14 V2 1.977681 1_555
F14 V1 1.977681 1_554
F15 V2 1.748756 1_556
F16 V2 1.709574 1_555
F17 V3 1.709574 1_555
F18 V3 1.745780 1_445
F19 V3 1.977681 1_545
F19 V0 1.977681 1_655
