# generated using pymatgen
data_Ti3Co3(TeO8)2
_symmetry_space_group_name_H-M   'P 1'
_cell_length_a   6.03190258
_cell_length_b   6.03190258
_cell_length_c   9.29770291
_cell_angle_alpha   88.72494595
_cell_angle_beta   88.72494595
_cell_angle_gamma   59.68181780
_symmetry_Int_Tables_number   1
_chemical_formula_structural   Ti3Co3(TeO8)2
_chemical_formula_sum   'Ti3 Co3 Te2 O16'
_cell_volume   291.92453219
_cell_formula_units_Z   1
loop_
 _symmetry_equiv_pos_site_id
 _symmetry_equiv_pos_as_xyz
  1  'x, y, z'
loop_
 _atom_site_type_symbol
 _atom_site_label
 _atom_site_symmetry_multiplicity
 _atom_site_fract_x
 _atom_site_fract_y
 _atom_site_fract_z
 _atom_site_occupancy
  Ti  Ti0  1  0.34089700  0.83636800  0.79134300  1
  Ti  Ti1  1  0.83636800  0.34089700  0.79134300  1
  Ti  Ti2  1  0.16329100  0.16329100  0.29392000  1
  Co  Co0  1  0.82928300  0.82928300  0.79266600  1
  Co  Co1  1  0.16533500  0.65371300  0.28624800  1
  Co  Co2  1  0.65371300  0.16533500  0.28624800  1
  Te  Te0  1  0.67053200  0.67053200  0.51175300  1
  Te  Te1  1  0.33889600  0.33889600  0.01288700  1
  O  O0  1  0.35638800  0.83132800  0.39779900  1
  O  O1  1  0.52466600  0.52466600  0.65471200  1
  O  O2  1  0.65066600  0.65066600  0.89812500  1
  O  O3  1  0.00873000  0.00873000  0.70707200  1
  O  O4  1  0.99831900  0.99831900  0.20667200  1
  O  O5  1  0.83132800  0.35638800  0.39779900  1
  O  O6  1  0.51054900  0.95316600  0.65196100  1
  O  O7  1  0.95316600  0.51054900  0.65196100  1
  O  O8  1  0.18277300  0.18277300  0.89498500  1
  O  O9  1  0.83036000  0.83036000  0.40771200  1
  O  O10  1  0.04555000  0.46815600  0.15189600  1
  O  O11  1  0.46815600  0.04555000  0.15189600  1
  O  O12  1  0.32875700  0.32875700  0.39035000  1
  O  O13  1  0.18280100  0.65202000  0.90001900  1
  O  O14  1  0.47686200  0.47686200  0.15506700  1
  O  O15  1  0.65202000  0.18280100  0.90001900  1
loop_
_geom_bond_atom_site_label_1
_geom_bond_atom_site_label_2
_geom_bond_distance
_geom_bond_site_symmetry_2
Co0 O3 2.020578 1_665
Co0 O2 2.088283 1_555
Co0 O15 2.105212 1_565
Co0 O13 2.105212 1_655
Co0 O6 2.141059 1_555
Co0 O7 2.141059 1_555
Co1 O4 1.932246 1_455
Co1 O12 1.938519 1_555
Co1 O14 2.022059 1_555
Co1 O10 2.062540 1_555
Co1 O9 2.066810 1_455
Co1 O0 2.213758 1_555
Co2 O4 1.932246 1_545
Co2 O12 1.938519 1_555
Co2 O14 2.022059 1_555
Co2 O11 2.062540 1_555
Co2 O9 2.066810 1_545
Co2 O5 2.213758 1_555
O0 Te0 1.960096 1_555
O0 Ti2 1.976942 1_565
O1 Te0 1.998122 1_555
O1 Ti0 2.077742 1_555
O1 Ti1 2.077742 1_555
O2 Ti0 1.910939 1_555
O2 Ti1 1.910939 1_555
O3 Ti0 1.907816 1_545
O3 Ti1 1.907816 1_455
O4 Ti2 1.926151 1_665
O5 Te0 1.960096 1_555
O5 Ti2 1.976942 1_655
O6 Ti0 1.962445 1_555
O6 Te0 1.979650 1_555
O7 Ti1 1.962445 1_555
O7 Te0 1.979650 1_555
O8 Te1 1.990628 1_556
O8 Ti1 2.059339 1_455
O8 Ti0 2.059339 1_545
O9 Te0 1.910483 1_555
O10 Te1 1.989847 1_555
O10 Ti2 2.060300 1_555
O11 Te1 1.989847 1_555
O11 Ti2 2.060300 1_555
O12 Ti2 1.970159 1_555
O13 Te1 1.927550 1_556
O13 Ti0 2.035815 1_555
O14 Te1 1.982366 1_555
O15 Te1 1.927550 1_556
O15 Ti1 2.035815 1_555
