# generated using pymatgen
data_Mn(Cu3O4)2
_symmetry_space_group_name_H-M   'P 1'
_cell_length_a   6.38797858
_cell_length_b   6.38797466
_cell_length_c   6.38798421
_cell_angle_alpha   60.00452544
_cell_angle_beta   60.00459486
_cell_angle_gamma   60.00464295
_symmetry_Int_Tables_number   1
_chemical_formula_structural   Mn(Cu3O4)2
_chemical_formula_sum   'Mn1 Cu6 O8'
_cell_volume   184.34044941
_cell_formula_units_Z   1
loop_
 _symmetry_equiv_pos_site_id
 _symmetry_equiv_pos_as_xyz
  1  'x, y, z'
loop_
 _atom_site_type_symbol
 _atom_site_label
 _atom_site_symmetry_multiplicity
 _atom_site_fract_x
 _atom_site_fract_y
 _atom_site_fract_z
 _atom_site_occupancy
  Mn  Mn0  1  0.00000003  -0.00000004  -0.00000003  1
  Cu  Cu0  1  0.50000016  -0.00000012  -0.00000019  1
  Cu  Cu1  1  0.50000003  0.49999998  0.00000001  1
  Cu  Cu2  1  0.50000015  0.00000003  0.49999988  1
  Cu  Cu3  1  -0.00000008  0.49999986  0.00000008  1
  Cu  Cu4  1  -0.00000006  0.00000006  0.49999999  1
  Cu  Cu5  1  0.00000018  0.49999984  0.49999980  1
  O  O0  1  0.58105244  0.13964912  0.13964972  1
  O  O1  1  0.13964766  0.13964679  0.13964644  1
  O  O2  1  0.13964907  0.58105366  0.13964957  1
  O  O3  1  0.13964962  0.13964961  0.58105331  1
  O  O4  1  0.86035092  0.41894631  0.86035065  1
  O  O5  1  0.86035021  0.86035060  0.41894669  1
  O  O6  1  0.86035210  0.86035341  0.86035361  1
  O  O7  1  0.41894758  0.86035089  0.86035049  1
loop_
_geom_bond_atom_site_label_1
_geom_bond_atom_site_label_2
_geom_bond_distance
_geom_bond_site_symmetry_2
Mn0 O6 2.185020 1_444
Mn0 O1 2.185021 1_555
Mn0 O2 2.185249 1_545
Mn0 O4 2.185250 1_454
Mn0 O3 2.185253 1_554
Mn0 O5 2.185254 1_445
Mn0 O7 2.185259 1_544
Mn0 O0 2.185259 1_455
Cu0 O7 1.891826 1_544
Cu0 O0 1.891829 1_555
Cu0 O6 1.892013 1_544
Cu0 O1 1.892016 1_555
Cu1 O0 1.891989 1_555
Cu1 O7 1.891989 1_554
Cu1 O4 1.891991 1_554
Cu1 O2 1.891991 1_555
Cu2 O5 1.891987 1_545
Cu2 O0 1.891987 1_555
Cu2 O3 1.891989 1_555
Cu2 O7 1.891989 1_545
Cu3 O4 1.891831 1_454
Cu3 O2 1.891833 1_555
Cu3 O1 1.892016 1_555
Cu3 O6 1.892019 1_454
Cu4 O5 1.891833 1_445
Cu4 O3 1.891834 1_555
Cu4 O1 1.892020 1_555
Cu4 O6 1.892021 1_445
Cu5 O3 1.891985 1_555
Cu5 O2 1.891987 1_555
Cu5 O5 1.891988 1_455
Cu5 O4 1.891991 1_455
