# generated using pymatgen
data_Li2MnFe(BO3)2
_symmetry_space_group_name_H-M   'P 1'
_cell_length_a   3.16164600
_cell_length_b   8.25987400
_cell_length_c   14.30769806
_cell_angle_alpha   89.97790294
_cell_angle_beta   90.00000000
_cell_angle_gamma   90.00000000
_symmetry_Int_Tables_number   1
_chemical_formula_structural   Li2MnFe(BO3)2
_chemical_formula_sum   'Li6 Mn3 Fe3 B6 O18'
_cell_volume   373.64261117
_cell_formula_units_Z   3
loop_
 _symmetry_equiv_pos_site_id
 _symmetry_equiv_pos_as_xyz
  1  'x, y, z'
loop_
 _atom_site_type_symbol
 _atom_site_label
 _atom_site_symmetry_multiplicity
 _atom_site_fract_x
 _atom_site_fract_y
 _atom_site_fract_z
 _atom_site_occupancy
  Li  Li0  1  0.50000000  0.70763600  0.00855100  1
  Li  Li1  1  0.50000000  0.66104900  0.64143500  1
  Li  Li2  1  0.50000000  0.63522400  0.34971500  1
  Li  Li3  1  0.50000000  0.20641400  0.50835500  1
  Li  Li4  1  0.50000000  0.15754000  0.14302200  1
  Li  Li5  1  0.50000000  0.13231000  0.84881600  1
  Mn  Mn0  1  0.00000000  0.36700000  0.99417000  1
  Mn  Mn1  1  0.00000000  0.32617700  0.68538900  1
  Mn  Mn2  1  0.00000000  0.30815000  0.32024000  1
  Fe  Fe0  1  0.00000000  0.86233400  0.49597000  1
  Fe  Fe1  1  0.00000000  0.82398100  0.18401400  1
  Fe  Fe2  1  0.00000000  0.81279000  0.82032800  1
  B  B0  1  0.50000000  0.99727300  0.33390500  1
  B  B1  1  0.00000000  0.99877400  0.00082200  1
  B  B2  1  0.50000000  0.99792200  0.66674100  1
  B  B3  1  0.50000000  0.50252700  0.83274300  1
  B  B4  1  0.00000000  0.50110300  0.49913100  1
  B  B5  1  0.50000000  0.50201600  0.16671900  1
  O  O0  1  0.50000000  0.98628600  0.56961300  1
  O  O1  1  0.50000000  0.98070000  0.23693500  1
  O  O2  1  0.50000000  0.86165900  0.39148200  1
  O  O3  1  0.50000000  0.85880900  0.72157100  1
  O  O4  1  0.00000000  0.84627800  0.04219800  1
  O  O5  1  0.50000000  0.65545100  0.87354100  1
  O  O6  1  0.50000000  0.65288700  0.21001300  1
  O  O7  1  0.00000000  0.63867900  0.55581400  1
  O  O8  1  0.00000000  0.51849000  0.40251600  1
  O  O9  1  0.50000000  0.49171000  0.06977400  1
  O  O10  1  0.50000000  0.48709800  0.73579900  1
  O  O11  1  0.50000000  0.36350200  0.88816500  1
  O  O12  1  0.50000000  0.36136200  0.21978900  1
  O  O13  1  0.00000000  0.34726500  0.53919800  1
  O  O14  1  0.50000000  0.15118800  0.37400200  1
  O  O15  1  0.50000000  0.14901500  0.70925100  1
  O  O16  1  0.00000000  0.13675100  0.05667500  1
  O  O17  1  0.00000000  0.01265200  0.90359800  1
loop_
_geom_bond_atom_site_label_1
_geom_bond_atom_site_label_2
_geom_bond_distance
_geom_bond_site_symmetry_2
Li0 O5 1.979352 1_554
Li0 O9 1.986718 1_555
Li0 O4 2.010619 1_555
Li0 O4 2.010619 1_655
Li1 O10 1.971241 1_555
Li1 O3 1.996066 1_555
Li1 O7 2.008492 1_555
Li1 O7 2.008492 1_655
Li2 O2 1.963693 1_555
Li2 O8 1.999714 1_655
Li2 O8 1.999714 1_555
Li2 O6 2.004075 1_555
Li3 O14 1.975836 1_555
Li3 O13 2.011880 1_555
Li3 O13 2.011880 1_655
Li3 O0 2.018146 1_545
Li4 O1 1.984322 1_545
Li4 O12 2.010507 1_555
Li4 O16 2.013686 1_655
Li4 O16 2.013686 1_555
Li5 O11 1.991087 1_555
Li5 O15 2.001562 1_555
Li5 O17 2.022278 1_555
Li5 O17 2.022278 1_655
Mn0 O16 2.101289 1_556
Mn0 O9 2.175100 1_456
Mn0 O9 2.175100 1_556
Mn0 O11 2.190938 1_455
Mn0 O11 2.190938 1_555
Mn1 O13 2.098830 1_555
Mn1 O15 2.180947 1_455
Mn1 O15 2.180947 1_555
Mn1 O10 2.187849 1_455
Mn1 O10 2.187849 1_555
Mn2 O8 2.099006 1_555
Mn2 O12 2.181125 1_455
Mn2 O12 2.181125 1_555
Mn2 O14 2.184215 1_555
Mn2 O14 2.184215 1_455
Fe0 O7 2.035843 1_555
Fe0 O0 2.158300 1_555
Fe0 O0 2.158300 1_455
Fe0 O2 2.175779 1_455
Fe0 O2 2.175779 1_555
Fe1 O4 2.037331 1_555
Fe1 O6 2.152707 1_455
Fe1 O6 2.152707 1_555
Fe1 O1 2.179163 1_455
Fe1 O1 2.179163 1_555
Fe2 O17 2.036225 1_565
Fe2 O3 2.153973 1_455
Fe2 O3 2.153973 1_555
Fe2 O5 2.183314 1_555
Fe2 O5 2.183314 1_455
B0 O2 1.390206 1_555
B0 O1 1.394207 1_555
B0 O14 1.394970 1_565
B1 O4 1.391571 1_555
B1 O16 1.392179 1_565
B1 O17 1.395723 1_564
B2 O15 1.388540 1_565
B2 O3 1.391064 1_555
B2 O0 1.393035 1_555
B3 O5 1.391693 1_555
B3 O10 1.392937 1_555
B3 O11 1.395258 1_555
B4 O8 1.389723 1_555
B4 O13 1.393810 1_555
B4 O7 1.396335 1_555
B5 O12 1.387665 1_555
B5 O9 1.389702 1_555
B5 O6 1.391852 1_555
