# generated using pymatgen
data_Li8La4TiNb7O28
_symmetry_space_group_name_H-M   'P 1'
_cell_length_a   5.65805966
_cell_length_b   5.65805966
_cell_length_c   18.45094304
_cell_angle_alpha   89.98096338
_cell_angle_beta   89.98096338
_cell_angle_gamma   89.95191044
_symmetry_Int_Tables_number   1
_chemical_formula_structural   Li8La4TiNb7O28
_chemical_formula_sum   'Li8 La4 Ti1 Nb7 O28'
_cell_volume   590.68155799
_cell_formula_units_Z   1
loop_
 _symmetry_equiv_pos_site_id
 _symmetry_equiv_pos_as_xyz
  1  'x, y, z'
loop_
 _atom_site_type_symbol
 _atom_site_label
 _atom_site_symmetry_multiplicity
 _atom_site_fract_x
 _atom_site_fract_y
 _atom_site_fract_z
 _atom_site_occupancy
  Li  Li0  1  0.99665200  0.99665200  0.76124700  1
  Li  Li1  1  0.50476200  0.99587400  0.74614200  1
  Li  Li2  1  0.99914300  0.99914300  0.23678700  1
  Li  Li3  1  0.50094600  0.99903500  0.25146900  1
  Li  Li4  1  0.99587400  0.50476200  0.74614200  1
  Li  Li5  1  0.50668900  0.50668900  0.73228700  1
  Li  Li6  1  0.99903500  0.50094600  0.25146900  1
  Li  Li7  1  0.50123700  0.50123700  0.26541500  1
  La  La0  1  0.75979400  0.75979400  0.99987600  1
  La  La1  1  0.26094700  0.74158700  0.50577500  1
  La  La2  1  0.74158700  0.26094700  0.50577500  1
  La  La3  1  0.24022300  0.24022300  0.99988200  1
  Ti  Ti0  1  0.75178100  0.75178100  0.61550100  1
  Nb  Nb0  1  0.75221200  0.75221200  0.38659900  1
  Nb  Nb1  1  0.25232200  0.74767300  0.88407300  1
  Nb  Nb2  1  0.25226500  0.74764200  0.11556700  1
  Nb  Nb3  1  0.74767300  0.25232200  0.88407300  1
  Nb  Nb4  1  0.74764200  0.25226500  0.11556700  1
  Nb  Nb5  1  0.24794800  0.24794800  0.61591000  1
  Nb  Nb6  1  0.24803400  0.24803400  0.38498800  1
  O  O0  1  0.99967000  0.99967000  0.88058000  1
  O  O1  1  0.50005800  0.99991500  0.90460100  1
  O  O2  1  0.99924700  0.99924700  0.58451500  1
  O  O3  1  0.50088600  0.99822200  0.59695700  1
  O  O4  1  0.00031700  0.00031700  0.41707400  1
  O  O5  1  0.49934100  0.00042200  0.40255600  1
  O  O6  1  0.99989000  0.99989000  0.12001000  1
  O  O7  1  0.49998300  0.99995900  0.09580100  1
  O  O8  1  0.19896600  0.80103200  0.00014100  1
  O  O9  1  0.77131900  0.77131900  0.71373000  1
  O  O10  1  0.77335400  0.77335400  0.28330000  1
  O  O11  1  0.27377400  0.72611600  0.78236000  1
  O  O12  1  0.27369000  0.72603100  0.21757500  1
  O  O13  1  0.69901600  0.69901600  0.49963000  1
  O  O14  1  0.50007800  0.50007800  0.91753100  1
  O  O15  1  0.99991500  0.50005800  0.90460100  1
  O  O16  1  0.99822200  0.50088600  0.59695700  1
  O  O17  1  0.50081500  0.50081500  0.61754100  1
  O  O18  1  0.99995900  0.49998300  0.09580100  1
  O  O19  1  0.49997200  0.49997200  0.08267400  1
  O  O20  1  0.00042200  0.49934100  0.40255600  1
  O  O21  1  0.49934200  0.49934200  0.37874700  1
  O  O22  1  0.29919800  0.29919800  0.49984800  1
  O  O23  1  0.72611600  0.27377400  0.78236000  1
  O  O24  1  0.72603100  0.27369000  0.21757500  1
  O  O25  1  0.22695400  0.22695400  0.71796500  1
  O  O26  1  0.22567000  0.22567000  0.28232900  1
  O  O27  1  0.80103200  0.19896600  0.00014100  1
loop_
_geom_bond_atom_site_label_1
_geom_bond_atom_site_label_2
_geom_bond_distance
_geom_bond_site_symmetry_2
Li0 O9 2.005956 1_555
Li0 O25 2.008771 1_665
Li0 O0 2.201950 1_555
Li0 O23 2.224712 1_565
Li0 O11 2.224712 1_655
Li1 O9 2.059920 1_555
Li1 O25 2.108819 1_565
Li1 O11 2.118106 1_555
Li1 O23 2.119453 1_565
Li2 O26 1.998952 1_665
Li2 O10 2.000490 1_555
Li2 O6 2.154651 1_555
Li2 O12 2.218691 1_655
Li2 O24 2.218691 1_565
Li3 O10 2.085152 1_555
Li3 O26 2.095466 1_565
Li3 O24 2.104785 1_565
Li3 O12 2.105938 1_555
Li4 O9 2.059920 1_555
Li4 O25 2.108819 1_655
Li4 O23 2.118106 1_555
Li4 O11 2.119453 1_655
Li5 O11 2.031971 1_555
Li5 O23 2.031971 1_555
Li5 O17 2.117716 1_555
Li5 O9 2.145713 1_555
Li5 O25 2.254957 1_555
Li6 O10 2.085152 1_555
Li6 O26 2.095466 1_655
Li6 O12 2.104785 1_655
Li6 O24 2.105938 1_555
Li7 O24 2.012889 1_555
Li7 O12 2.012889 1_555
Li7 O21 2.091130 1_555
Li7 O10 2.203321 1_555
Li7 O26 2.227752 1_555
La0 O8 2.495994 1_656
La0 O27 2.495994 1_566
La0 O14 2.575614 1_555
La0 O19 2.580084 1_556
La0 O1 2.663196 1_555
La0 O15 2.663196 1_555
La0 O7 2.671439 1_556
La0 O18 2.671439 1_556
La1 O13 2.492642 1_555
La1 O22 2.514634 1_555
La1 O2 2.534742 1_455
La1 O3 2.605459 1_555
La1 O16 2.625864 1_455
La1 O4 2.644344 1_565
La1 O5 2.755175 1_565
La1 O20 2.772291 1_555
La1 O17 2.819102 1_555
La1 O21 3.031223 1_555
La1 O22 3.164443 1_565
La1 O13 3.190807 1_455
La2 O13 2.492642 1_555
La2 O22 2.514634 1_555
La2 O2 2.534742 1_545
La2 O16 2.605459 1_555
La2 O3 2.625864 1_545
La2 O4 2.644344 1_655
La2 O20 2.755175 1_655
La2 O5 2.772291 1_555
La2 O17 2.819102 1_555
La2 O21 3.031223 1_555
La2 O22 3.164443 1_655
La2 O13 3.190807 1_545
La3 O27 2.496107 1_456
La3 O8 2.496107 1_546
La3 O14 2.575426 1_555
La3 O19 2.580704 1_556
La3 O15 2.664069 1_455
La3 O1 2.664069 1_545
La3 O7 2.671540 1_546
La3 O18 2.671540 1_456
Nb0 O10 1.913384 1_555
Nb0 O5 2.025508 1_565
Nb0 O20 2.025508 1_655
Nb0 O21 2.029486 1_555
Nb0 O4 2.064412 1_665
Nb0 O13 2.128364 1_555
Nb1 O11 1.884566 1_555
Nb1 O0 2.019209 1_455
Nb1 O15 2.036794 1_455
Nb1 O1 2.036960 1_555
Nb1 O14 2.074955 1_555
Nb1 O8 2.183674 1_556
Nb2 O12 1.889996 1_555
Nb2 O6 2.019739 1_455
Nb2 O7 2.034277 1_555
Nb2 O18 2.034340 1_455
Nb2 O19 2.071976 1_555
Nb2 O8 2.172037 1_555
Nb3 O23 1.884566 1_555
Nb3 O0 2.019209 1_545
Nb3 O1 2.036794 1_545
Nb3 O15 2.036960 1_555
Nb3 O14 2.074955 1_555
Nb3 O27 2.183674 1_556
Nb4 O24 1.889996 1_555
Nb4 O6 2.019739 1_545
Nb4 O18 2.034277 1_555
Nb4 O7 2.034340 1_545
Nb4 O19 2.071976 1_555
Nb4 O27 2.172037 1_555
Nb5 O25 1.890417 1_555
Nb5 O17 2.024454 1_555
Nb5 O3 2.040470 1_545
Nb5 O16 2.040470 1_455
Nb5 O2 2.073689 1_445
Nb5 O22 2.180209 1_555
Nb6 O26 1.902681 1_555
Nb6 O21 2.014975 1_555
Nb6 O20 2.021477 1_555
Nb6 O5 2.021477 1_555
Nb6 O4 2.069210 1_555
Nb6 O22 2.158678 1_555
O2 Ti0 2.061574 1_555
O3 Ti0 2.018229 1_555
O9 Ti0 1.819227 1_555
O13 Ti0 2.179450 1_555
O16 Ti0 2.018229 1_555
O17 Ti0 2.009333 1_555
