# generated using pymatgen
data_CaPH4O5F
_symmetry_space_group_name_H-M   'P 1'
_cell_length_a   8.74854724
_cell_length_b   6.52927178
_cell_length_c   5.80422955
_cell_angle_alpha   118.85637514
_cell_angle_beta   110.64940914
_cell_angle_gamma   94.26336681
_symmetry_Int_Tables_number   1
_chemical_formula_structural   CaPH4O5F
_chemical_formula_sum   'Ca2 P2 H8 O10 F2'
_cell_volume   259.34733977
_cell_formula_units_Z   2
loop_
 _symmetry_equiv_pos_site_id
 _symmetry_equiv_pos_as_xyz
  1  'x, y, z'
loop_
 _atom_site_type_symbol
 _atom_site_label
 _atom_site_symmetry_multiplicity
 _atom_site_fract_x
 _atom_site_fract_y
 _atom_site_fract_z
 _atom_site_occupancy
  Ca  Ca0  1  0.85775600  0.68102900  0.65517700  1
  Ca  Ca1  1  0.14224400  0.31897100  0.34482300  1
  P  P0  1  0.84963200  0.20116400  0.63917000  1
  P  P1  1  0.15036800  0.79883600  0.36083000  1
  H  H0  1  0.63717700  0.96141300  0.86010100  1
  H  H1  1  0.36282300  0.03858700  0.13989900  1
  H  H2  1  0.49020100  0.74607200  0.55090300  1
  H  H3  1  0.50979900  0.25392800  0.44909700  1
  H  H4  1  0.46779900  0.65978800  0.92635300  1
  H  H5  1  0.53220100  0.34021200  0.07364700  1
  H  H6  1  0.31602100  0.61506100  0.00734400  1
  H  H7  1  0.68397900  0.38493900  0.99265600  1
  O  O0  1  0.93407300  0.12230400  0.84987500  1
  O  O1  1  0.06592700  0.87769600  0.15012500  1
  O  O2  1  0.72545800  0.34787800  0.70730800  1
  O  O3  1  0.27454200  0.65212200  0.29269200  1
  O  O4  1  0.96858800  0.32295500  0.57372100  1
  O  O5  1  0.03141200  0.67704500  0.42627900  1
  O  O6  1  0.60703300  0.78928300  0.70506400  1
  O  O7  1  0.39296700  0.21071700  0.29493600  1
  O  O8  1  0.34397600  0.61074800  0.85230400  1
  O  O9  1  0.65602400  0.38925200  0.14769600  1
  F  F0  1  0.26887700  0.05733900  0.66584700  1
  F  F1  1  0.73112300  0.94266100  0.33415300  1
loop_
_geom_bond_atom_site_label_1
_geom_bond_atom_site_label_2
_geom_bond_distance
_geom_bond_site_symmetry_2
Ca0 O5 2.338799 1_655
Ca0 O1 2.370684 1_656
Ca0 O9 2.416095 1_555
Ca0 O6 2.423971 1_555
Ca0 O0 2.462366 1_565
Ca0 O4 2.494636 1_555
Ca0 O2 2.582785 1_555
Ca1 O4 2.338799 1_455
Ca1 O0 2.370684 1_454
Ca1 O8 2.416095 1_555
Ca1 O7 2.423971 1_555
Ca1 O1 2.462366 1_545
Ca1 O5 2.494636 1_555
Ca1 O3 2.582785 1_555
H0 O6 0.977138 1_555
H1 O7 0.977138 1_555
H2 O6 0.996673 1_555
H3 O7 0.996673 1_555
H4 O8 0.973624 1_555
H5 O9 0.973624 1_555
H6 O8 1.001094 1_554
H7 O9 1.001094 1_556
O0 P0 1.527644 1_555
O1 P1 1.527644 1_555
O2 P0 1.531750 1_555
O3 P1 1.531750 1_555
O4 P0 1.518905 1_555
O5 P1 1.518905 1_555
F0 P1 1.618330 1_545
F1 P0 1.618330 1_565
