# generated using pymatgen
data_LiCr(PO3)3
_symmetry_space_group_name_H-M   'P 1'
_cell_length_a   8.41278000
_cell_length_b   8.75550100
_cell_length_c   9.06685600
_cell_angle_alpha   90.00000000
_cell_angle_beta   90.00000000
_cell_angle_gamma   90.00000000
_symmetry_Int_Tables_number   1
_chemical_formula_structural   LiCr(PO3)3
_chemical_formula_sum   'Li4 Cr4 P12 O36'
_cell_volume   667.84741951
_cell_formula_units_Z   4
loop_
 _symmetry_equiv_pos_site_id
 _symmetry_equiv_pos_as_xyz
  1  'x, y, z'
loop_
 _atom_site_type_symbol
 _atom_site_label
 _atom_site_symmetry_multiplicity
 _atom_site_fract_x
 _atom_site_fract_y
 _atom_site_fract_z
 _atom_site_occupancy
  Li  Li0  1  0.15468500  0.13353600  0.38222800  1
  Li  Li1  1  0.34531500  0.86646400  0.88222800  1
  Li  Li2  1  0.65468500  0.36646400  0.61777200  1
  Li  Li3  1  0.84531500  0.63353600  0.11777200  1
  Cr  Cr0  1  0.12942400  0.85401600  0.16207700  1
  Cr  Cr1  1  0.37057600  0.14598400  0.66207700  1
  Cr  Cr2  1  0.62942400  0.64598400  0.83792300  1
  Cr  Cr3  1  0.87057600  0.35401600  0.33792300  1
  P  P0  1  0.02916400  0.32181300  0.68543100  1
  P  P1  1  0.18636000  0.47796700  0.18880200  1
  P  P2  1  0.20082300  0.80778700  0.56487500  1
  P  P3  1  0.29917700  0.19221300  0.06487500  1
  P  P4  1  0.31364000  0.52203300  0.68880200  1
  P  P5  1  0.47083600  0.67818700  0.18543100  1
  P  P6  1  0.52916400  0.17818700  0.31456900  1
  P  P7  1  0.68636000  0.02203300  0.81119800  1
  P  P8  1  0.70082300  0.69221300  0.43512500  1
  P  P9  1  0.79917700  0.30778700  0.93512500  1
  P  P10  1  0.81364000  0.97796700  0.31119800  1
  P  P11  1  0.97083600  0.82181300  0.81456900  1
  O  O0  1  0.03744000  0.77348000  0.65553800  1
  O  O1  1  0.08879800  0.60926100  0.13250300  1
  O  O2  1  0.10357100  0.87272200  0.91234700  1
  O  O3  1  0.11848200  0.38552200  0.31569700  1
  O  O4  1  0.13430200  0.19576300  0.62529600  1
  O  O5  1  0.14001700  0.46390300  0.73643600  1
  O  O6  1  0.15918600  0.85855700  0.41278400  1
  O  O7  1  0.18988300  0.09527900  0.15819900  1
  O  O8  1  0.22806800  0.36446100  0.05396000  1
  O  O9  1  0.27193200  0.63553900  0.55396000  1
  O  O10  1  0.31011700  0.90472100  0.65819900  1
  O  O11  1  0.34081400  0.14144300  0.91278400  1
  O  O12  1  0.35998300  0.53609700  0.23643600  1
  O  O13  1  0.36569800  0.80423700  0.12529600  1
  O  O14  1  0.38151800  0.61447800  0.81569700  1
  O  O15  1  0.39642900  0.12727800  0.41234700  1
  O  O16  1  0.41120200  0.39073900  0.63250300  1
  O  O17  1  0.46256000  0.22652000  0.15553800  1
  O  O18  1  0.53744000  0.72652000  0.34446200  1
  O  O19  1  0.58879800  0.89073900  0.86749700  1
  O  O20  1  0.60357100  0.62727800  0.08765300  1
  O  O21  1  0.61848200  0.11447800  0.68430300  1
  O  O22  1  0.63430200  0.30423700  0.37470400  1
  O  O23  1  0.64001700  0.03609700  0.26356400  1
  O  O24  1  0.65918600  0.64144300  0.58721600  1
  O  O25  1  0.68988300  0.40472100  0.84180100  1
  O  O26  1  0.72806800  0.13553900  0.94604000  1
  O  O27  1  0.77193200  0.86446100  0.44604000  1
  O  O28  1  0.81011700  0.59527900  0.34180100  1
  O  O29  1  0.84081400  0.35855700  0.08721600  1
  O  O30  1  0.85998300  0.96390300  0.76356400  1
  O  O31  1  0.86569800  0.69576300  0.87470400  1
  O  O32  1  0.88151800  0.88552200  0.18430300  1
  O  O33  1  0.89642900  0.37272200  0.58765300  1
  O  O34  1  0.91120200  0.10926100  0.36749700  1
  O  O35  1  0.96256000  0.27348000  0.84446200  1
loop_
_geom_bond_atom_site_label_1
_geom_bond_atom_site_label_2
_geom_bond_distance
_geom_bond_site_symmetry_2
Li0 O15 2.052723 1_555
Li0 O34 2.063693 1_455
Li0 O7 2.079858 1_555
Li0 O4 2.276676 1_555
Li0 O3 2.307432 1_555
Li0 O6 2.423763 1_545
Li1 O2 2.052723 1_555
Li1 O19 2.063693 1_555
Li1 O10 2.079858 1_555
Li1 O13 2.276676 1_556
Li1 O14 2.307432 1_555
Li1 O11 2.423763 1_565
Li2 O33 2.052723 1_555
Li2 O16 2.063693 1_555
Li2 O25 2.079858 1_555
Li2 O22 2.276676 1_555
Li2 O21 2.307432 1_555
Li2 O24 2.423763 1_555
Li3 O20 2.052723 1_555
Li3 O1 2.063693 1_655
Li3 O28 2.079858 1_555
Li3 O31 2.276676 1_554
Li3 O32 2.307432 1_555
Li3 O29 2.423763 1_555
Cr0 O13 2.062088 1_555
Cr0 O32 2.113372 1_455
Cr0 O7 2.173035 1_565
Cr0 O1 2.186540 1_555
Cr0 O2 2.280576 1_554
Cr0 O6 2.287218 1_555
Cr1 O4 2.062088 1_555
Cr1 O21 2.113372 1_555
Cr1 O10 2.173035 1_545
Cr1 O16 2.186540 1_555
Cr1 O15 2.280576 1_555
Cr1 O11 2.287218 1_555
Cr2 O31 2.062088 1_555
Cr2 O14 2.113372 1_555
Cr2 O25 2.173035 1_555
Cr2 O19 2.186540 1_555
Cr2 O20 2.280576 1_556
Cr2 O24 2.287218 1_555
Cr3 O22 2.062088 1_555
Cr3 O3 2.113372 1_655
Cr3 O28 2.173035 1_555
Cr3 O34 2.186540 1_555
Cr3 O33 2.280576 1_555
Cr3 O29 2.287218 1_555
O0 P11 1.603793 1_455
O0 P2 1.629485 1_555
O1 P1 1.501891 1_555
O2 P11 1.493848 1_455
O3 P1 1.518210 1_555
O4 P0 1.515793 1_555
O5 P4 1.605949 1_555
O5 P0 1.622123 1_555
O6 P2 1.490604 1_555
O7 P3 1.510529 1_555
O8 P1 1.614154 1_555
O8 P3 1.625449 1_555
O9 P4 1.614154 1_555
O9 P2 1.625449 1_555
O10 P2 1.510529 1_555
O11 P3 1.490604 1_556
O12 P1 1.605949 1_555
O12 P5 1.622123 1_555
O13 P5 1.515793 1_555
O14 P4 1.518210 1_555
O15 P6 1.493848 1_555
O16 P4 1.501891 1_555
O17 P6 1.603793 1_555
O17 P3 1.629485 1_555
O18 P5 1.603793 1_555
O18 P8 1.629485 1_555
O19 P7 1.501891 1_565
O20 P5 1.493848 1_555
O21 P7 1.518210 1_555
O22 P6 1.515793 1_555
O23 P10 1.605949 1_545
O23 P6 1.622123 1_555
O24 P8 1.490604 1_555
O25 P9 1.510529 1_555
O26 P7 1.614154 1_555
O26 P9 1.625449 1_555
O27 P10 1.614154 1_555
O27 P8 1.625449 1_555
O28 P8 1.510529 1_555
O29 P9 1.490604 1_554
O30 P7 1.605949 1_565
O30 P11 1.622123 1_555
O31 P11 1.515793 1_555
O32 P10 1.518210 1_555
O33 P0 1.493848 1_655
O34 P10 1.501891 1_545
O35 P0 1.603793 1_655
O35 P9 1.629485 1_555
