# generated using pymatgen
data_Mn6O5F7
_symmetry_space_group_name_H-M   'P 1'
_cell_length_a   4.79419200
_cell_length_b   5.74889379
_cell_length_c   7.90765761
_cell_angle_alpha   84.66724939
_cell_angle_beta   87.05711292
_cell_angle_gamma   84.78686068
_symmetry_Int_Tables_number   1
_chemical_formula_structural   Mn6O5F7
_chemical_formula_sum   'Mn6 O5 F7'
_cell_volume   215.90207511
_cell_formula_units_Z   1
loop_
 _symmetry_equiv_pos_site_id
 _symmetry_equiv_pos_as_xyz
  1  'x, y, z'
loop_
 _atom_site_type_symbol
 _atom_site_label
 _atom_site_symmetry_multiplicity
 _atom_site_fract_x
 _atom_site_fract_y
 _atom_site_fract_z
 _atom_site_occupancy
  Mn  Mn0  1  0.53321400  0.52239900  0.01124400  1
  Mn  Mn1  1  0.51554900  0.82840500  0.64771400  1
  Mn  Mn2  1  0.47551000  0.16992600  0.34831600  1
  Mn  Mn3  1  0.99686500  0.33455300  0.66950400  1
  Mn  Mn4  1  0.98890500  0.65986300  0.32301200  1
  Mn  Mn5  1  0.99495800  0.98768100  0.00533400  1
  O  O0  1  0.83004200  0.71635300  0.09755200  1
  O  O1  1  0.70418600  0.54202800  0.76177600  1
  O  O2  1  0.69534300  0.87496300  0.42786000  1
  O  O3  1  0.29879600  0.12641000  0.57228300  1
  O  O4  1  0.30333400  0.46209100  0.23806800  1
  F  F0  1  0.80185800  0.36256900  0.44207000  1
  F  F1  1  0.79954700  0.04352500  0.78111000  1
  F  F2  1  0.69207300  0.19549500  0.12095500  1
  F  F3  1  0.30762900  0.80406200  0.87439100  1
  F  F4  1  0.17793900  0.62569000  0.55147800  1
  F  F5  1  0.20857300  0.96653000  0.21722300  1
  F  F6  1  0.17568000  0.27745500  0.91011200  1
loop_
_geom_bond_atom_site_label_1
_geom_bond_atom_site_label_2
_geom_bond_distance
_geom_bond_site_symmetry_2
Mn0 O0 2.064865 1_555
Mn0 O4 2.074329 1_555
Mn0 O1 2.094175 1_554
Mn1 O2 1.907530 1_555
Mn1 O1 1.969530 1_555
Mn1 O3 1.980118 1_565
Mn2 O3 1.928486 1_555
Mn2 O4 1.952512 1_555
Mn2 O2 1.981636 1_545
Mn3 O1 1.917399 1_555
Mn3 O3 1.964724 1_655
Mn4 O4 1.934627 1_655
Mn4 O0 1.962391 1_555
Mn4 O2 1.987916 1_555
Mn5 O0 1.882405 1_555
F0 Mn3 2.055704 1_555
F0 Mn4 2.122333 1_555
F0 Mn2 2.193320 1_555
F1 Mn5 2.033388 1_546
F1 Mn3 2.097715 1_555
F1 Mn1 2.278570 1_545
F2 Mn2 2.029512 1_555
F2 Mn5 2.030582 1_545
F2 Mn0 2.090282 1_555
F3 Mn1 2.005359 1_555
F3 Mn5 2.046882 1_456
F3 Mn0 2.106883 1_556
F4 Mn4 2.047833 1_455
F4 Mn3 2.077613 1_455
F4 Mn1 2.278400 1_555
F5 Mn5 1.996682 1_455
F5 Mn2 2.170968 1_565
F5 Mn4 2.211298 1_455
F6 Mn5 2.013691 1_446
F6 Mn3 2.112577 1_455
F6 Mn0 2.519771 1_556
