# generated using pymatgen
data_Li4Co3O3F4
_symmetry_space_group_name_H-M   'P 1'
_cell_length_a   15.13713565
_cell_length_b   15.13713565
_cell_length_c   15.13713565
_cell_angle_alpha   168.80673625
_cell_angle_beta   168.80673625
_cell_angle_gamma   15.85504417
_symmetry_Int_Tables_number   1
_chemical_formula_structural   Li4Co3O3F4
_chemical_formula_sum   'Li4 Co3 O3 F4'
_cell_volume   130.69147579
_cell_formula_units_Z   1
loop_
 _symmetry_equiv_pos_site_id
 _symmetry_equiv_pos_as_xyz
  1  'x, y, z'
loop_
 _atom_site_type_symbol
 _atom_site_label
 _atom_site_symmetry_multiplicity
 _atom_site_fract_x
 _atom_site_fract_y
 _atom_site_fract_z
 _atom_site_occupancy
  Li  Li0  1  0.14767500  0.14767500  0.00000000  1
  Li  Li1  1  0.71659500  0.71659500  0.00000000  1
  Li  Li2  1  0.28340500  0.28340500  0.00000000  1
  Li  Li3  1  0.85232500  0.85232500  0.00000000  1
  Co  Co0  1  0.42605200  0.42605200  0.00000000  1
  Co  Co1  1  0.00000000  0.00000000  0.00000000  1
  Co  Co2  1  0.57394800  0.57394800  0.00000000  1
  O  O0  1  0.92450500  0.92450500  0.00000000  1
  O  O1  1  0.50000000  0.50000000  0.00000000  1
  O  O2  1  0.07549500  0.07549500  0.00000000  1
  F  F0  1  0.64927300  0.64927300  0.00000000  1
  F  F1  1  0.21622500  0.21622500  0.00000000  1
  F  F2  1  0.78377500  0.78377500  0.00000000  1
  F  F3  1  0.35072700  0.35072700  0.00000000  1
loop_
_geom_bond_atom_site_label_1
_geom_bond_atom_site_label_2
_geom_bond_distance
_geom_bond_site_symmetry_2
Li0 O2 2.164314 1_555
Li3 O0 2.164314 1_555
Co0 O0 2.088234 1_444
Co0 O0 2.088234 1_545
Co0 O0 2.088234 1_455
Co0 O0 2.088234 1_556
Co0 O1 2.217327 1_555
Co0 F3 2.258616 1_555
Co1 O1 2.087719 1_556
Co1 O1 2.087719 1_444
Co1 O1 2.087719 1_545
Co1 O1 2.087719 1_455
Co1 O2 2.263714 1_555
Co1 O0 2.263714 1_445
Co2 O2 2.088234 1_554
Co2 O2 2.088234 1_565
Co2 O2 2.088234 1_655
Co2 O2 2.088234 1_666
Co2 O1 2.217327 1_555
Co2 F0 2.258616 1_555
F0 Li1 2.018647 1_555
F0 Li0 2.088268 1_565
F0 Li0 2.088268 1_666
F0 Li0 2.088268 1_655
F0 Li0 2.088268 1_554
F1 Li2 2.014389 1_555
F1 Li0 2.055468 1_555
F1 Li1 2.087748 1_556
F1 Li1 2.087748 1_444
F1 Li1 2.087748 1_545
F1 Li1 2.087748 1_455
F2 Li1 2.014389 1_555
F2 Li3 2.055468 1_555
F2 Li2 2.087748 1_666
F2 Li2 2.087748 1_554
F2 Li2 2.087748 1_655
F2 Li2 2.087748 1_565
F3 Li2 2.018647 1_555
F3 Li3 2.088268 1_444
F3 Li3 2.088268 1_455
F3 Li3 2.088268 1_545
F3 Li3 2.088268 1_556
