# generated using pymatgen
data_Sr5Al10(Si7O24)2
_symmetry_space_group_name_H-M   'P 1'
_cell_length_a   7.25946600
_cell_length_b   7.78405675
_cell_length_c   20.10435627
_cell_angle_alpha   100.10124543
_cell_angle_beta   90.42345331
_cell_angle_gamma   103.60687219
_symmetry_Int_Tables_number   1
_chemical_formula_structural   Sr5Al10(Si7O24)2
_chemical_formula_sum   'Sr5 Al10 Si14 O48'
_cell_volume   1085.65143837
_cell_formula_units_Z   1
loop_
 _symmetry_equiv_pos_site_id
 _symmetry_equiv_pos_as_xyz
  1  'x, y, z'
loop_
 _atom_site_type_symbol
 _atom_site_label
 _atom_site_symmetry_multiplicity
 _atom_site_fract_x
 _atom_site_fract_y
 _atom_site_fract_z
 _atom_site_occupancy
  Sr  Sr0  1  0.36656600  0.50847700  0.75327000  1
  Sr  Sr1  1  0.69471900  0.84304100  0.41939000  1
  Sr  Sr2  1  0.93635600  0.81293300  0.91521600  1
  Sr  Sr3  1  0.27759100  0.17703200  0.56417400  1
  Sr  Sr4  1  0.59467500  0.46263200  0.24511000  1
  Al  Al0  1  0.82227300  0.42906700  0.39451700  1
  Al  Al1  1  0.60998600  0.57348900  0.61205400  1
  Al  Al2  1  0.86707400  0.39012300  0.80956000  1
  Al  Al3  1  0.85025100  0.24014000  0.94070700  1
  Al  Al4  1  0.06424100  0.09915300  0.72061100  1
  Al  Al5  1  0.26569100  0.02601600  0.39566200  1
  Al  Al6  1  0.15714000  0.56748100  0.60837700  1
  Al  Al7  1  0.37629100  0.42899900  0.39266200  1
  Al  Al8  1  0.50710100  0.89602200  0.26957900  1
  Al  Al9  1  0.72027900  0.75490800  0.06073200  1
  Si  Si0  1  0.50967100  0.10102400  0.72837000  1
  Si  Si1  1  0.28947300  0.25013800  0.94306200  1
  Si  Si2  1  0.49723400  0.96146400  0.86022600  1
  Si  Si3  1  0.40957100  0.64948100  0.93922300  1
  Si  Si4  1  0.80437100  0.27881400  0.52633600  1
  Si  Si5  1  0.75218900  0.96874300  0.60333000  1
  Si  Si6  1  0.95297400  0.90507100  0.27344900  1
  Si  Si7  1  0.16330500  0.76829200  0.06310300  1
  Si  Si8  1  0.15603500  0.61198300  0.19047100  1
  Si  Si9  1  0.06365800  0.30475400  0.26768900  1
  Si  Si10  1  0.92132100  0.70398000  0.73436300  1
  Si  Si11  1  0.17789400  0.71974000  0.47660800  1
  Si  Si12  1  0.59817600  0.35309300  0.06256000  1
  Si  Si13  1  0.51003600  0.04381000  0.14042100  1
  O  O0  1  0.31243400  0.14618900  0.70511900  1
  O  O1  1  0.35732400  0.08286400  0.89557000  1
  O  O2  1  0.24827700  0.71078000  0.98783300  1
  O  O3  1  0.36699400  0.50358500  0.62749300  1
  O  O4  1  0.61812900  0.50000300  0.37354500  1
  O  O5  1  0.41061000  0.74711500  0.87081000  1
  O  O6  1  0.34434400  0.43293900  0.90742300  1
  O  O7  1  0.47638100  0.94424100  0.77745200  1
  O  O8  1  0.64622800  0.37322500  0.56414400  1
  O  O9  1  0.59942000  0.02504700  0.65819600  1
  O  O10  1  0.71086400  0.02768100  0.89298900  1
  O  O11  1  0.61929800  0.71174800  0.97544700  1
  O  O12  1  0.96102400  0.80017600  0.04140200  1
  O  O13  1  0.73834100  0.06244700  0.53556000  1
  O  O14  1  0.68873400  0.75694200  0.57158700  1
  O  O15  1  0.79682000  0.26094600  0.44468400  1
  O  O16  1  0.01509400  0.73620000  0.22497100  1
  O  O17  1  0.89427900  0.36149500  0.31227100  1
  O  O18  1  0.71095200  0.63055700  0.69545100  1
  O  O19  1  0.63656200  0.28826900  0.77052200  1
  O  O20  1  0.01576400  0.36113400  0.56273800  1
  O  O21  1  0.96732000  0.04553500  0.63601700  1
  O  O22  1  0.07436700  0.40404200  0.20078200  1
  O  O23  1  0.00845800  0.08572800  0.23917700  1
  O  O24  1  0.14913400  0.61143600  0.10846600  1
  O  O25  1  0.86860400  0.41397800  0.89693200  1
  O  O26  1  0.97851300  0.91989400  0.76128600  1
  O  O27  1  0.90878300  0.62169600  0.80440900  1
  O  O28  1  0.04202000  0.94535100  0.35017400  1
  O  O29  1  0.96703100  0.62856900  0.44036600  1
  O  O30  1  0.37051600  0.68614000  0.22408800  1
  O  O31  1  0.27205600  0.36994800  0.30758900  1
  O  O32  1  0.04537100  0.30465000  0.76699600  1
  O  O33  1  0.08621000  0.63527300  0.68991600  1
  O  O34  1  0.18501400  0.72879500  0.55804800  1
  O  O35  1  0.31257300  0.25109400  0.43511700  1
  O  O36  1  0.23085100  0.93208300  0.46988500  1
  O  O37  1  0.06472000  0.16997600  0.94707200  1
  O  O38  1  0.39540800  0.30181700  0.01742500  1
  O  O39  1  0.29846100  0.95406300  0.10336800  1
  O  O40  1  0.44909300  0.95171300  0.35253800  1
  O  O41  1  0.34194900  0.63139000  0.43905900  1
  O  O42  1  0.50886700  0.06657300  0.22242100  1
  O  O43  1  0.65107200  0.56390200  0.09691700  1
  O  O44  1  0.55902800  0.25599500  0.13004400  1
  O  O45  1  0.66027900  0.93775400  0.10780300  1
  O  O46  1  0.75598100  0.28069200  0.01887900  1
  O  O47  1  0.72358200  0.82870000  0.27931800  1
loop_
_geom_bond_atom_site_label_1
_geom_bond_atom_site_label_2
_geom_bond_distance
_geom_bond_site_symmetry_2
Al0 O29 1.755361 1_555
Al0 O15 1.765200 1_555
Al0 O17 1.766646 1_555
Al0 O4 1.770980 1_555
Al1 O14 1.748768 1_555
Al1 O8 1.759849 1_555
Al1 O18 1.764390 1_555
Al1 O3 1.766297 1_555
Al2 O25 1.733328 1_555
Al2 O32 1.752738 1_655
Al2 O27 1.777871 1_555
Al2 O19 1.784061 1_555
Al3 O25 1.719873 1_555
Al3 O46 1.726678 1_556
Al3 O37 1.777742 1_655
Al3 O10 1.822362 1_555
Al4 O26 1.732695 1_445
Al4 O32 1.740361 1_555
Al4 O21 1.776739 1_455
Al4 O0 1.793115 1_555
Al5 O35 1.744294 1_555
Al5 O40 1.749942 1_545
Al5 O36 1.768207 1_545
Al5 O28 1.778765 1_545
Al6 O34 1.723550 1_555
Al6 O33 1.751501 1_555
Al6 O3 1.769412 1_555
Al6 O20 1.780060 1_555
Al7 O35 1.726054 1_555
Al7 O41 1.756973 1_555
Al7 O4 1.778568 1_555
Al7 O31 1.802933 1_555
Al8 O40 1.729045 1_555
Al8 O42 1.759308 1_565
Al8 O30 1.785762 1_555
Al8 O47 1.789306 1_555
Al9 O45 1.713570 1_555
Al9 O43 1.739411 1_555
Al9 O12 1.760082 1_555
Al9 O11 1.803772 1_554
O0 Si0 1.636112 1_555
O0 Sr0 2.749487 1_555
O0 Sr3 2.899581 1_555
O1 Si2 1.629792 1_545
O1 Si1 1.649930 1_555
O2 Si3 1.634010 1_555
O2 Si7 1.666421 1_556
O2 Sr2 3.016057 1_455
O3 Sr0 2.522302 1_555
O3 Sr3 2.565058 1_555
O4 Sr4 2.547074 1_555
O4 Sr1 2.592166 1_555
O5 Si3 1.683295 1_555
O5 Si2 1.690404 1_555
O5 Sr0 2.703055 1_555
O6 Si3 1.648056 1_555
O6 Si1 1.670909 1_555
O6 Sr0 3.252451 1_555
O7 Si2 1.648832 1_555
O7 Si0 1.675910 1_565
O7 Sr0 3.243626 1_555
O8 Si4 1.627804 1_555
O8 Sr3 2.751585 1_555
O9 Si0 1.633044 1_555
O9 Si5 1.648006 1_545
O10 Si2 1.610694 1_545
O10 Sr2 2.685569 1_545
O11 Si3 1.611177 1_555
O11 Sr2 2.628138 1_555
O12 Si7 1.615019 1_655
O12 Sr2 2.562762 1_554
O13 Si5 1.667192 1_545
O13 Si4 1.682779 1_555
O13 Sr1 2.609060 1_545
O14 Si5 1.614568 1_555
O14 Sr1 3.243635 1_555
O15 Si4 1.622364 1_555
O15 Sr1 3.109606 1_545
O16 Si8 1.644255 1_555
O16 Si6 1.648387 1_455
O17 Si9 1.625821 1_655
O17 Sr4 2.882441 1_555
O18 Si10 1.638813 1_555
O18 Sr0 2.795912 1_555
O19 Si0 1.616955 1_555
O19 Sr0 2.946095 1_555
O20 Si4 1.630157 1_455
O20 Sr3 2.638668 1_555
O21 Si5 1.623568 1_545
O21 Sr3 2.772922 1_655
O22 Si8 1.637803 1_555
O22 Si9 1.658510 1_555
O23 Si6 1.640723 1_445
O23 Si9 1.651732 1_555
O24 Si7 1.632784 1_555
O24 Si8 1.648277 1_555
O25 Sr2 2.983172 1_555
O26 Si10 1.624595 1_555
O27 Si10 1.640883 1_555
O27 Sr2 2.430769 1_555
O28 Si6 1.617328 1_455
O28 Sr1 2.902245 1_455
O29 Si11 1.633624 1_655
O29 Sr1 2.942839 1_555
O30 Si8 1.624497 1_555
O30 Sr4 2.726426 1_555
O31 Si9 1.633332 1_555
O31 Sr4 2.673909 1_555
O32 Sr0 2.540219 1_555
O33 Si10 1.633012 1_455
O33 Sr0 2.843663 1_555
O34 Si11 1.626327 1_555
O35 Sr3 2.755791 1_555
O36 Si11 1.636538 1_555
O36 Sr3 2.400469 1_565
O37 Si1 1.611985 1_555
O37 Sr2 2.674127 1_445
O38 Si1 1.617036 1_554
O38 Si12 1.651128 1_555
O39 Si7 1.618366 1_555
O39 Si13 1.642465 1_565
O40 Sr1 2.602791 1_555
O41 Si11 1.636384 1_555
O41 Sr1 2.772593 1_555
O42 Si13 1.627163 1_555
O42 Sr4 2.949503 1_555
O43 Si12 1.618419 1_555
O44 Si13 1.656372 1_555
O44 Si12 1.660437 1_555
O44 Sr4 2.548673 1_555
O45 Si13 1.595455 1_565
O46 Si12 1.595683 1_555
O47 Si6 1.643819 1_555
O47 Sr4 2.741665 1_555
O47 Sr1 2.809982 1_555
