# generated using pymatgen
data_KPHO3F
_symmetry_space_group_name_H-M   'P 1'
_cell_length_a   14.26686200
_cell_length_b   7.41671300
_cell_length_c   7.76217263
_cell_angle_alpha   89.70824850
_cell_angle_beta   90.00000000
_cell_angle_gamma   90.00000000
_symmetry_Int_Tables_number   1
_chemical_formula_structural   KPHO3F
_chemical_formula_sum   'K8 P8 H8 O24 F8'
_cell_volume   821.32983890
_cell_formula_units_Z   8
loop_
 _symmetry_equiv_pos_site_id
 _symmetry_equiv_pos_as_xyz
  1  'x, y, z'
loop_
 _atom_site_type_symbol
 _atom_site_label
 _atom_site_symmetry_multiplicity
 _atom_site_fract_x
 _atom_site_fract_y
 _atom_site_fract_z
 _atom_site_occupancy
  K  K0  1  0.17438100  0.12294200  0.07362900  1
  K  K1  1  0.64197200  0.19619300  0.40730900  1
  K  K2  1  0.40207000  0.19460800  0.71912900  1
  K  K3  1  0.90645900  0.49142200  0.81009000  1
  K  K4  1  0.40645900  0.50857800  0.18991000  1
  K  K5  1  0.90207000  0.80539200  0.28087100  1
  K  K6  1  0.14197200  0.80380700  0.59269100  1
  K  K7  1  0.67438100  0.87705800  0.92637100  1
  P  P0  1  0.41619800  0.05420800  0.21669200  1
  P  P1  1  0.15965400  0.30197700  0.59672500  1
  P  P2  1  0.89606200  0.29704600  0.28678500  1
  P  P3  1  0.64426300  0.35296200  0.87964700  1
  P  P4  1  0.14426300  0.64703800  0.12035300  1
  P  P5  1  0.39606200  0.70295400  0.71321500  1
  P  P6  1  0.65965400  0.69802300  0.40327500  1
  P  P7  1  0.91619800  0.94579200  0.78330800  1
  H  H0  1  0.85096400  0.12849400  0.58979100  1
  H  H1  1  0.75658400  0.31223500  0.07762700  1
  H  H2  1  0.99776000  0.42393000  0.48311600  1
  H  H3  1  0.22015000  0.45699100  0.37648000  1
  H  H4  1  0.72015000  0.54300900  0.62352000  1
  H  H5  1  0.49776000  0.57607000  0.51688400  1
  H  H6  1  0.25658400  0.68776500  0.92237300  1
  H  H7  1  0.35096400  0.87150600  0.41020900  1
  O  O0  1  0.85128800  0.10863100  0.72049400  1
  O  O1  1  0.37166600  0.14870200  0.06598600  1
  O  O2  1  0.45321300  0.16443100  0.36380100  1
  O  O3  1  0.83964500  0.16350700  0.39174300  1
  O  O4  1  0.20246800  0.19966500  0.74298100  1
  O  O5  1  0.60227100  0.21723200  0.76075800  1
  O  O6  1  0.69157600  0.25825400  0.04066000  1
  O  O7  1  0.84827100  0.38081400  0.13245900  1
  O  O8  1  0.06938500  0.40670200  0.62173500  1
  O  O9  1  0.23651700  0.42029300  0.50278500  1
  O  O10  1  0.94379800  0.44969100  0.39492100  1
  O  O11  1  0.20602400  0.49713700  0.19123900  1
  O  O12  1  0.70602400  0.50286300  0.80876100  1
  O  O13  1  0.44379800  0.55030900  0.60507900  1
  O  O14  1  0.73651700  0.57970700  0.49721500  1
  O  O15  1  0.56938500  0.59329800  0.37826500  1
  O  O16  1  0.34827100  0.61918600  0.86754100  1
  O  O17  1  0.19157600  0.74174600  0.95934000  1
  O  O18  1  0.10227100  0.78276800  0.23924200  1
  O  O19  1  0.70246800  0.80033500  0.25701900  1
  O  O20  1  0.33964500  0.83649300  0.60825700  1
  O  O21  1  0.95321300  0.83556900  0.63619900  1
  O  O22  1  0.87166600  0.85129800  0.93401400  1
  O  O23  1  0.35128800  0.89136900  0.27950600  1
  F  F0  1  0.00483100  0.05581500  0.85960300  1
  F  F1  1  0.13471700  0.15426500  0.44909800  1
  F  F2  1  0.98374600  0.18575500  0.21232500  1
  F  F3  1  0.55800300  0.45678900  0.97041400  1
  F  F4  1  0.05800300  0.54321100  0.02958600  1
  F  F5  1  0.48374600  0.81424500  0.78767500  1
  F  F6  1  0.63471700  0.84573500  0.55090200  1
  F  F7  1  0.50483100  0.94418500  0.14039700  1
loop_
_geom_bond_atom_site_label_1
_geom_bond_atom_site_label_2
_geom_bond_distance
_geom_bond_site_symmetry_2
K0 O4 2.656437 1_554
K0 O1 2.821718 1_555
K0 O11 2.960622 1_555
K0 O17 2.977567 1_544
K0 O18 3.007210 1_545
K1 O2 2.724444 1_555
K1 O5 2.806510 1_555
K1 O3 2.833204 1_555
K1 O6 2.966316 1_555
K1 O15 3.129024 1_555
K1 O14 3.227591 1_555
K1 O19 3.280335 1_545
K2 O1 2.746555 1_556
K2 O13 2.841494 1_555
K2 O4 2.853965 1_555
K2 O2 2.862862 1_555
K2 O5 2.879449 1_555
K2 O20 2.934559 1_545
K3 O7 2.757291 1_556
K3 O8 2.818648 1_655
K3 O12 2.860854 1_555
K3 O22 2.884773 1_555
K3 O21 2.957478 1_555
K3 O0 3.030435 1_555
K4 O16 2.757291 1_554
K4 O15 2.818648 1_555
K4 O11 2.860854 1_555
K4 O1 2.884773 1_555
K4 O2 2.957478 1_555
K4 O23 3.030435 1_555
K5 O22 2.746555 1_554
K5 O10 2.841494 1_555
K5 O19 2.853965 1_555
K5 O21 2.862862 1_555
K5 O18 2.879449 1_655
K5 O3 2.934559 1_565
K6 O21 2.724444 1_455
K6 O18 2.806510 1_555
K6 O20 2.833204 1_555
K6 O17 2.966316 1_555
K6 O8 3.129024 1_555
K6 O9 3.227591 1_555
K6 O4 3.280335 1_565
K7 O19 2.656437 1_556
K7 O22 2.821718 1_555
K7 O12 2.960622 1_555
K7 O6 2.977567 1_566
K7 O5 3.007210 1_565
H0 O0 1.024447 1_555
H0 O3 1.566105 1_555
H1 O6 1.050704 1_555
H1 O7 1.467360 1_555
H2 O10 1.047152 1_555
H2 O8 1.488917 1_655
H3 O9 1.042629 1_555
H3 O11 1.480672 1_555
H4 O14 1.042629 1_555
H4 O12 1.480672 1_555
H5 O13 1.047152 1_555
H5 O15 1.488917 1_555
H6 O17 1.050704 1_555
H6 O16 1.467360 1_555
H7 O23 1.024447 1_555
H7 O20 1.566105 1_555
O0 P7 1.596225 1_545
O1 P0 1.501637 1_555
O2 P0 1.503522 1_555
O3 P2 1.511393 1_555
O4 P1 1.492970 1_555
O5 P3 1.494452 1_555
O6 P3 1.581809 1_554
O7 P2 1.509397 1_555
O8 P1 1.516931 1_555
O9 P1 1.580423 1_555
O10 P2 1.568357 1_555
O11 P4 1.519527 1_555
O12 P3 1.519527 1_555
O13 P5 1.568357 1_555
O14 P6 1.580423 1_555
O15 P6 1.516931 1_555
O16 P5 1.509397 1_555
O17 P4 1.581809 1_556
O18 P4 1.494452 1_555
O19 P6 1.492970 1_555
O20 P5 1.511393 1_555
O21 P7 1.503522 1_555
O22 P7 1.501637 1_555
O23 P0 1.596225 1_565
F0 P7 1.618798 1_445
F0 K0 2.977840 1_556
F1 P1 1.628700 1_555
F1 K6 2.824820 1_545
F1 K0 2.979116 1_555
F2 P2 1.607842 1_555
F2 K0 2.962816 1_655
F2 K5 3.095791 1_545
F3 P3 1.615371 1_555
F3 K4 2.780559 1_556
F4 P4 1.615371 1_555
F4 K3 2.780559 1_454
F5 P5 1.607842 1_555
F5 K7 2.962816 1_555
F5 K2 3.095791 1_565
F6 P6 1.628700 1_555
F6 K1 2.824820 1_565
F6 K7 2.979116 1_555
F7 P0 1.618798 1_565
F7 K7 2.977840 1_554
