# generated using pymatgen
data_Li2Mn2SnO6
_symmetry_space_group_name_H-M   'P 1'
_cell_length_a   5.28351926
_cell_length_b   5.28350937
_cell_length_c   10.33408700
_cell_angle_alpha   90.00027912
_cell_angle_beta   89.99977833
_cell_angle_gamma   116.34744388
_symmetry_Int_Tables_number   1
_chemical_formula_structural   Li2Mn2SnO6
_chemical_formula_sum   'Li4 Mn4 Sn2 O12'
_cell_volume   258.51377585
_cell_formula_units_Z   2
loop_
 _symmetry_equiv_pos_site_id
 _symmetry_equiv_pos_as_xyz
  1  'x, y, z'
loop_
 _atom_site_type_symbol
 _atom_site_label
 _atom_site_symmetry_multiplicity
 _atom_site_fract_x
 _atom_site_fract_y
 _atom_site_fract_z
 _atom_site_occupancy
  Li  Li0  1  0.10970800  0.60970300  0.75000000  1
  Li  Li1  1  0.39029600  0.89029300  0.25000300  1
  Li  Li2  1  0.60971200  0.10970500  0.75000000  1
  Li  Li3  1  0.89029700  0.39029700  0.24999700  1
  Mn  Mn0  1  0.33700000  0.66301300  0.00000200  1
  Mn  Mn1  1  0.83699300  0.16300700  0.49998800  1
  Mn  Mn2  1  0.16299300  0.83698600  0.50000200  1
  Mn  Mn3  1  0.66299400  0.33699100  0.00000800  1
  Sn  Sn0  1  0.99999300  0.99999800  0.00000000  1
  Sn  Sn1  1  0.50000600  0.50000000  0.49999900  1
  O  O0  1  0.16039600  0.16040100  0.59162900  1
  O  O1  1  0.33959700  0.33960300  0.09161800  1
  O  O2  1  0.66039900  0.66039800  0.90837200  1
  O  O3  1  0.83960100  0.83959400  0.40838300  1
  O  O4  1  0.05276900  0.69334300  0.11204900  1
  O  O5  1  0.94723200  0.30665600  0.88793700  1
  O  O6  1  0.19334400  0.55276700  0.38794800  1
  O  O7  1  0.44723200  0.80665900  0.61206600  1
  O  O8  1  0.30666300  0.94723600  0.88793900  1
  O  O9  1  0.55276900  0.19334600  0.38794900  1
  O  O10  1  0.80666300  0.44723700  0.61206000  1
  O  O11  1  0.69334300  0.05276500  0.11205400  1
loop_
_geom_bond_atom_site_label_1
_geom_bond_atom_site_label_2
_geom_bond_distance
_geom_bond_site_symmetry_2
Li0 O5 2.027930 1_455
Li0 O10 2.027941 1_455
Li0 O7 2.155854 1_555
Li0 O8 2.155913 1_555
Li1 O9 2.028007 1_565
Li1 O11 2.028013 1_565
Li1 O6 2.155936 1_555
Li1 O4 2.155999 1_555
Li2 O7 2.027900 1_545
Li2 O8 2.027945 1_545
Li2 O5 2.155861 1_555
Li2 O10 2.155920 1_555
Li3 O4 2.028005 1_655
Li3 O6 2.028029 1_655
Li3 O11 2.155937 1_555
Li3 O9 2.155987 1_555
Mn0 O4 1.958376 1_555
Mn0 O8 1.958462 1_554
Mn0 O1 1.958871 1_555
Mn0 O2 1.958923 1_554
Mn0 O11 2.384271 1_565
Mn0 O5 2.384411 1_454
Mn1 O9 1.958325 1_555
Mn1 O10 1.958522 1_555
Mn1 O3 1.958845 1_545
Mn1 O0 1.958984 1_655
Mn1 O6 2.384252 1_655
Mn1 O7 2.384439 1_545
Mn2 O6 1.958412 1_555
Mn2 O7 1.958515 1_555
Mn2 O3 1.958828 1_455
Mn2 O0 1.958941 1_565
Mn2 O10 2.384267 1_455
Mn2 O9 2.384380 1_565
Mn3 O11 1.958398 1_555
Mn3 O5 1.958564 1_554
Mn3 O1 1.958808 1_555
Mn3 O2 1.958953 1_554
Mn3 O4 2.384298 1_655
Mn3 O8 2.384338 1_544
O0 Sn1 2.116121 1_555
O1 Sn0 2.116064 1_445
O2 Sn0 2.116072 1_556
O3 Sn1 2.116006 1_555
O4 Sn0 2.108240 1_455
O5 Sn0 2.108295 1_546
O6 Sn1 2.108261 1_555
O7 Sn1 2.108344 1_555
O8 Sn0 2.108331 1_456
O9 Sn1 2.108199 1_555
O10 Sn1 2.108286 1_555
O11 Sn0 2.108217 1_545
