# generated using pymatgen
data_Li5Co7O3F13
_symmetry_space_group_name_H-M   'P 1'
_cell_length_a   6.06719600
_cell_length_b   6.13943477
_cell_length_c   10.51739920
_cell_angle_alpha   90.44944828
_cell_angle_beta   106.65755642
_cell_angle_gamma   119.61028425
_symmetry_Int_Tables_number   1
_chemical_formula_structural   Li5Co7O3F13
_chemical_formula_sum   'Li5 Co7 O3 F13'
_cell_volume   321.01126490
_cell_formula_units_Z   1
loop_
 _symmetry_equiv_pos_site_id
 _symmetry_equiv_pos_as_xyz
  1  'x, y, z'
loop_
 _atom_site_type_symbol
 _atom_site_label
 _atom_site_symmetry_multiplicity
 _atom_site_fract_x
 _atom_site_fract_y
 _atom_site_fract_z
 _atom_site_occupancy
  Li  Li0  1  0.73279400  0.33562800  0.12824000  1
  Li  Li1  1  0.99618700  0.00954900  0.98764400  1
  Li  Li2  1  0.76449600  0.87472700  0.63532300  1
  Li  Li3  1  0.01545900  0.54081600  0.49744000  1
  Li  Li4  1  0.87795000  0.43821800  0.81012700  1
  Co  Co0  1  0.38113500  0.70512500  0.06540600  1
  Co  Co1  1  0.37147100  0.43304900  0.31442700  1
  Co  Co2  1  0.37589600  0.93796700  0.31290900  1
  Co  Co3  1  0.87360500  0.93659500  0.31233600  1
  Co  Co4  1  0.35600600  0.16015700  0.56727300  1
  Co  Co5  1  0.36372700  0.94591300  0.80545300  1
  Co  Co6  1  0.36457100  0.42032600  0.80443200  1
  O  O0  1  0.60485300  0.01016900  0.20175400  1
  O  O1  1  0.14210600  0.86320200  0.42282000  1
  O  O2  1  0.15460400  0.07841400  0.69496400  1
  F  F0  1  0.13035000  0.54907300  0.19003300  1
  F  F1  1  0.60301000  0.54740700  0.18881100  1
  F  F2  1  0.61462400  0.79373100  0.43513100  1
  F  F3  1  0.12773000  0.07430800  0.18571100  1
  F  F4  1  0.61395600  0.32058600  0.43848200  1
  F  F5  1  0.13598900  0.32439200  0.43357000  1
  F  F6  1  0.63597100  0.07576600  0.69946900  1
  F  F7  1  0.62270100  0.53499900  0.69182500  1
  F  F8  1  0.62784500  0.31167300  0.92943800  1
  F  F9  1  0.14691000  0.35229500  0.93861700  1
  F  F10  1  0.13677700  0.57186300  0.69898200  1
  F  F11  1  0.13152200  0.80499800  0.93422400  1
  F  F12  1  0.59775200  0.79905300  0.92515800  1
loop_
_geom_bond_atom_site_label_1
_geom_bond_atom_site_label_2
_geom_bond_distance
_geom_bond_site_symmetry_2
Li0 O0 2.007108 1_555
Li2 O2 1.941898 1_665
Li3 O1 1.997760 1_555
Co0 O0 1.932903 1_565
Co0 F11 2.075115 1_554
Co0 F9 2.077568 1_554
Co0 F12 2.147411 1_554
Co0 F0 2.161863 1_555
Co0 F1 2.177256 1_555
Co1 F5 2.038158 1_555
Co1 F4 2.064216 1_555
Co1 F0 2.075172 1_555
Co1 F1 2.077436 1_555
Co1 F2 2.084578 1_555
Co1 F3 2.111236 1_555
Co2 O0 1.955385 1_565
Co2 O1 1.965691 1_555
Co2 F2 2.179991 1_555
Co2 F4 2.203044 1_565
Co2 F3 2.205818 1_565
Co2 F0 2.218779 1_555
Co3 O1 1.963525 1_655
Co3 O0 1.965786 1_565
Co3 F2 2.173809 1_555
Co3 F3 2.184565 1_665
Co3 F5 2.207208 1_665
Co3 F1 2.223599 1_555
Co4 O1 1.950466 1_545
Co4 O2 1.973318 1_555
Co4 F6 2.147981 1_555
Co4 F7 2.165182 1_555
Co4 F4 2.228731 1_555
Co4 F5 2.247711 1_555
Co5 O2 1.952296 1_565
Co5 F10 2.091542 1_555
Co5 F6 2.091551 1_565
Co5 F11 2.115494 1_555
Co5 F8 2.123905 1_565
Co5 F12 2.161507 1_555
Co6 O2 1.957926 1_555
Co6 F7 2.082767 1_555
Co6 F10 2.100893 1_555
Co6 F9 2.107789 1_555
Co6 F8 2.141899 1_555
Co6 F12 2.166394 1_555
F0 Li0 1.980406 1_455
F1 Li0 2.000679 1_555
F2 Li2 1.986548 1_555
F3 Li1 1.963375 1_454
F4 Li3 2.003194 1_655
F5 Li3 1.994826 1_555
F6 Li2 1.956086 1_545
F6 Li4 2.052573 1_555
F7 Li2 1.995724 1_555
F7 Li4 2.028717 1_555
F8 Li0 1.984494 1_556
F8 Li4 2.103040 1_555
F9 Li1 1.978852 1_455
F9 Li4 2.089251 1_455
F10 Li3 2.007927 1_555
F10 Li4 2.073613 1_455
F11 Li1 1.959434 1_465
F11 Li4 2.126106 1_455
F12 Li1 1.983547 1_565
