# generated using pymatgen
data_Te2As2SI6(OF6)2
_symmetry_space_group_name_H-M   'P 1'
_cell_length_a   13.38032500
_cell_length_b   13.56390674
_cell_length_c   13.57482827
_cell_angle_alpha   91.18301091
_cell_angle_beta   91.11943177
_cell_angle_gamma   91.28228845
_symmetry_Int_Tables_number   1
_chemical_formula_structural   Te2As2SI6(OF6)2
_chemical_formula_sum   'Te8 As8 S4 I24 O8 F48'
_cell_volume   2462.05361097
_cell_formula_units_Z   4
loop_
 _symmetry_equiv_pos_site_id
 _symmetry_equiv_pos_as_xyz
  1  'x, y, z'
loop_
 _atom_site_type_symbol
 _atom_site_label
 _atom_site_symmetry_multiplicity
 _atom_site_fract_x
 _atom_site_fract_y
 _atom_site_fract_z
 _atom_site_occupancy
  Te  Te0  1  0.64701000  0.20005800  0.70259600  1
  Te  Te1  1  0.58360700  0.80040500  0.74510800  1
  Te  Te2  1  0.10150000  0.62377000  0.76691900  1
  Te  Te3  1  0.07332500  0.39535000  0.76298300  1
  Te  Te4  1  0.84900600  0.36104700  0.21487400  1
  Te  Te5  1  0.90120500  0.55205000  0.29347500  1
  Te  Te6  1  0.44218800  0.12585600  0.29734500  1
  Te  Te7  1  0.42821800  0.91415800  0.25481600  1
  As  As0  1  0.47797200  0.00104000  0.95468600  1
  As  As1  1  0.35195200  0.47763500  0.71992200  1
  As  As2  1  0.80969700  0.00932200  0.86212300  1
  As  As3  1  0.05419600  0.42345300  0.48553300  1
  As  As4  1  0.35431100  0.00185600  0.52710900  1
  As  As5  1  0.14761300  0.94581700  0.23759500  1
  As  As6  1  0.64140900  0.52110300  0.30881500  1
  As  As7  1  0.95334800  0.54803100  0.02786700  1
  S  S0  1  0.28590200  0.11275000  0.87024800  1
  S  S1  1  0.73508600  0.49887200  0.71019400  1
  S  S2  1  0.25356600  0.50878700  0.20941700  1
  S  S3  1  0.73680700  0.96782900  0.34629200  1
  I  I0  1  0.13156300  0.15105100  0.94961400  1
  I  I1  1  0.11942000  0.81793600  0.87958100  1
  I  I2  1  0.74253000  0.66125100  0.88021900  1
  I  I3  1  0.69556100  0.37771900  0.84677200  1
  I  I4  1  0.40588800  0.24768900  0.87607600  1
  I  I5  1  0.36941700  0.69002500  0.85000000  1
  I  I6  1  0.92443600  0.75171600  0.63653700  1
  I  I7  1  0.86939500  0.16774800  0.59704900  1
  I  I8  1  0.15835800  0.20246700  0.61113900  1
  I  I9  1  0.17260500  0.90188800  0.60681600  1
  I  I10  1  0.56354500  0.30003900  0.55438700  1
  I  I11  1  0.59912200  0.68143900  0.59024500  1
  I  I12  1  0.39518400  0.32545900  0.39455800  1
  I  I13  1  0.33198600  0.67146700  0.39328300  1
  I  I14  1  0.79001900  0.13196600  0.39335800  1
  I  I15  1  0.85390600  0.85260300  0.40431700  1
  I  I16  1  0.09003400  0.77802300  0.34440100  1
  I  I17  1  0.06664700  0.16989000  0.31242500  1
  I  I18  1  0.59489700  0.31132200  0.09437400  1
  I  I19  1  0.58323900  0.64450100  0.07906200  1
  I  I20  1  0.27598100  0.35128600  0.13855400  1
  I  I21  1  0.30502500  0.62067400  0.08619600  1
  I  I22  1  0.90546000  0.16386500  0.04861000  1
  I  I23  1  0.96274300  0.88629200  0.01324300  1
  O  O0  1  0.23076400  0.73036400  0.78604600  1
  O  O1  1  0.75899100  0.44600400  0.61711800  1
  O  O2  1  0.11242700  0.28286600  0.37535600  1
  O  O3  1  0.22572700  0.71617400  0.29878700  1
  O  O4  1  0.69253300  0.31711800  0.20457800  1
  O  O5  1  0.63208100  0.66649200  0.20513500  1
  O  O6  1  0.83476200  0.90578600  0.94481900  1
  O  O7  1  0.80479600  0.11398200  0.94317100  1
  F  F0  1  0.60793700  0.16873100  0.06583800  1
  F  F1  1  0.59051700  0.78189800  0.04793100  1
  F  F2  1  0.47767300  0.47339600  0.76241700  1
  F  F3  1  0.97427400  0.60436600  0.83336300  1
  F  F4  1  0.98820900  0.40459900  0.87504100  1
  F  F5  1  0.50811200  0.63580600  0.91255000  1
  F  F6  1  0.18799700  0.38320700  0.85797200  1
  F  F7  1  0.15451600  0.58328300  0.89358100  1
  F  F8  1  0.45346600  0.97697000  0.82654300  1
  F  F9  1  0.91582700  0.21793100  0.73261100  1
  F  F10  1  0.90002300  0.80431100  0.77366500  1
  F  F11  1  0.59979100  0.95050500  0.94000200  1
  F  F12  1  0.08556900  0.53238800  0.55809200  1
  F  F13  1  0.35977100  0.36737400  0.64878400  1
  F  F14  1  0.37496300  0.55567300  0.61940300  1
  F  F15  1  0.95426000  0.43205600  0.67962200  1
  F  F16  1  0.62270800  0.08101000  0.61738100  1
  F  F17  1  0.68374100  0.89278600  0.69719500  1
  F  F18  1  0.13539500  0.06075900  0.65896400  1
  F  F19  1  0.38374400  0.06524100  0.63988400  1
  F  F20  1  0.42738300  0.90009000  0.55727600  1
  F  F21  1  0.93579900  0.02245400  0.82390000  1
  F  F22  1  0.16466000  0.36436700  0.56991200  1
  F  F23  1  0.20669700  0.76752600  0.56606300  1
  F  F24  1  0.94463700  0.71027900  0.48141100  1
  F  F25  1  0.86631300  0.32667700  0.35919000  1
  F  F26  1  0.01456000  0.98258000  0.22653700  1
  F  F27  1  0.46824400  0.07772000  0.44419500  1
  F  F28  1  0.52870800  0.89137400  0.35739500  1
  F  F29  1  0.09676800  0.06713100  0.41541000  1
  F  F30  1  0.30428100  0.11400000  0.33517100  1
  F  F31  1  0.32388700  0.91026000  0.36724900  1
  F  F32  1  0.11969000  0.47599900  0.38725500  1
  F  F33  1  0.65290700  0.41452000  0.38529100  1
  F  F34  1  0.67442500  0.60359700  0.40926200  1
  F  F35  1  0.92169900  0.50644600  0.43258600  1
  F  F36  1  0.28992700  0.95394400  0.17104800  1
  F  F37  1  0.01949700  0.23746100  0.17244000  1
  F  F38  1  0.12542200  0.87535700  0.12358100  1
  F  F39  1  0.53593500  0.96307500  0.16373700  1
  F  F40  1  0.82361400  0.42511700  0.08280100  1
  F  F41  1  0.88017900  0.60095400  0.13301400  1
  F  F42  1  0.56947000  0.46305200  0.11139800  1
  F  F43  1  0.04508700  0.63988100  0.05712900  1
  F  F44  1  0.02204200  0.45870900  0.09350500  1
  F  F45  1  0.51072100  0.53269100  0.32722700  1
  F  F46  1  0.38567800  0.15230600  0.16603500  1
  F  F47  1  0.41512200  0.89185400  0.99039800  1
loop_
_geom_bond_atom_site_label_1
_geom_bond_atom_site_label_2
_geom_bond_distance
_geom_bond_site_symmetry_2
As0 F47 1.767874 1_545
As0 F8 1.785919 1_545
As0 F11 1.795401 1_545
As1 F13 1.769616 1_555
As1 F2 1.770202 1_555
As1 F14 1.771617 1_555
As2 F21 1.781140 1_555
As2 O7 1.781157 1_555
As2 O6 1.848336 1_545
As3 F32 1.764304 1_555
As3 F12 1.796006 1_555
As3 F22 2.040514 1_555
As3 F35 2.236016 1_455
As4 F20 1.759858 1_545
As4 F19 1.773376 1_555
As4 F27 2.166645 1_555
As5 F38 1.818036 1_555
As5 F26 1.863601 1_555
As5 F36 2.125125 1_555
As6 F45 1.781208 1_555
As6 F34 1.788238 1_555
As6 F33 1.804745 1_555
As6 O5 2.450341 1_555
As7 F43 1.763161 1_655
As7 F44 1.780180 1_655
As7 F41 1.885436 1_555
I0 S0 2.409801 1_555
I1 O0 2.309438 1_555
I3 S1 2.557884 1_555
I3 Te0 3.121706 1_555
I4 S0 2.406507 1_555
I5 O0 2.120625 1_555
I10 Te0 2.688263 1_555
I10 I12 3.126614 1_555
I11 Te1 2.637863 1_555
I12 Te6 3.070527 1_555
I13 O3 2.008511 1_555
I14 S3 2.392546 1_545
I15 S3 2.372822 1_555
I16 O3 2.115254 1_555
I17 O2 1.826673 1_555
I18 O4 1.965977 1_555
I19 O5 1.836169 1_555
I20 S2 2.352509 1_555
I21 S2 2.382911 1_555
I22 O7 2.040722 1_554
I23 O6 1.957890 1_554
O0 Te2 2.237045 1_555
O1 S1 1.483775 1_555
O4 Te4 2.165011 1_555
F0 I18 1.976870 1_555
F1 I19 1.920217 1_555
F3 Te2 1.957158 1_655
F4 Te3 1.921703 1_655
F5 I5 2.175100 1_555
F5 I19 2.455315 1_556
F6 Te3 1.996706 1_555
F7 Te2 1.941634 1_555
F9 I7 2.029885 1_555
F10 I6 2.014976 1_555
F15 Te3 2.013655 1_655
F16 Te0 1.983931 1_555
F17 Te1 1.944442 1_555
F18 I8 2.059926 1_555
F18 I9 2.321950 1_545
F22 I8 2.277503 1_555
F23 I9 1.959841 1_555
F24 I6 2.191702 1_555
F24 I15 2.536621 1_555
F25 Te4 2.033154 1_555
F27 Te6 2.135068 1_555
F28 Te7 1.950812 1_555
F29 I17 2.035473 1_555
F30 Te6 1.929141 1_555
F31 Te7 2.089093 1_555
F35 Te5 2.014820 1_555
F36 Te7 2.235178 1_555
F37 I17 2.213599 1_555
F37 I22 2.431606 1_455
F38 I23 2.626730 1_455
F39 Te7 2.026547 1_555
F40 Te4 2.034401 1_555
F41 Te5 2.303891 1_555
F42 I18 2.102262 1_555
F42 I19 2.512249 1_555
F46 Te6 1.965620 1_555
