# generated using pymatgen
data_VOF3
_symmetry_space_group_name_H-M   'P 1'
_cell_length_a   5.35979000
_cell_length_b   5.35979000
_cell_length_c   9.21233000
_cell_angle_alpha   90.00000000
_cell_angle_beta   90.00000000
_cell_angle_gamma   90.00000000
_symmetry_Int_Tables_number   1
_chemical_formula_structural   VOF3
_chemical_formula_sum   'V4 O4 F12'
_cell_volume   264.64581758
_cell_formula_units_Z   4
loop_
 _symmetry_equiv_pos_site_id
 _symmetry_equiv_pos_as_xyz
  1  'x, y, z'
loop_
 _atom_site_type_symbol
 _atom_site_label
 _atom_site_symmetry_multiplicity
 _atom_site_fract_x
 _atom_site_fract_y
 _atom_site_fract_z
 _atom_site_occupancy
  V  V0  1  0.61037200  0.92063000  0.50209200  1
  V  V1  1  0.92063000  0.38962800  0.25209200  1
  V  V2  1  0.07937000  0.61037200  0.75209200  1
  V  V3  1  0.38962800  0.07937000  0.00209200  1
  O  O0  1  0.57485500  0.17182300  0.58999600  1
  O  O1  1  0.82817700  0.57485500  0.83999600  1
  O  O2  1  0.17182300  0.42514500  0.33999600  1
  O  O3  1  0.42514500  0.82817700  0.08999600  1
  F  F0  1  0.55164200  0.29719300  0.12317400  1
  F  F1  1  0.64561100  0.07373800  0.88157900  1
  F  F2  1  0.70280700  0.55164200  0.37317400  1
  F  F3  1  0.81400800  0.06948600  0.34443400  1
  F  F4  1  0.92626200  0.64561100  0.13157900  1
  F  F5  1  0.93051400  0.81400800  0.59443400  1
  F  F6  1  0.06948600  0.18599200  0.09443400  1
  F  F7  1  0.07373800  0.35438900  0.63157900  1
  F  F8  1  0.18599200  0.93051400  0.84443400  1
  F  F9  1  0.29719300  0.44835800  0.87317400  1
  F  F10  1  0.35438900  0.92626200  0.38157900  1
  F  F11  1  0.44835800  0.70280700  0.62317400  1
loop_
_geom_bond_atom_site_label_1
_geom_bond_atom_site_label_2
_geom_bond_distance
_geom_bond_site_symmetry_2
O0 V0 1.582609 1_545
O1 V2 1.582609 1_655
O2 V1 1.582609 1_455
O3 V3 1.582609 1_565
F0 V3 1.833384 1_555
F0 V1 2.359496 1_555
F1 V3 1.765189 1_556
F2 V1 1.833384 1_555
F2 V0 2.359496 1_555
F3 V0 1.984252 1_545
F3 V1 1.998634 1_555
F4 V1 1.765189 1_555
F5 V2 1.984252 1_655
F5 V0 1.998634 1_555
F6 V1 1.984252 1_455
F6 V3 1.998634 1_555
F7 V2 1.765189 1_555
F8 V3 1.984252 1_566
F8 V2 1.998634 1_555
F9 V2 1.833384 1_555
F9 V3 2.359496 1_556
F10 V0 1.765189 1_555
F11 V0 1.833384 1_555
F11 V2 2.359496 1_555
