# generated using pymatgen
data_Li2AlNiO4
_symmetry_space_group_name_H-M   'P 1'
_cell_length_a   5.36602600
_cell_length_b   4.98207500
_cell_length_c   8.11536360
_cell_angle_alpha   52.09785934
_cell_angle_beta   90.00000000
_cell_angle_gamma   90.00000000
_symmetry_Int_Tables_number   1
_chemical_formula_structural   Li2AlNiO4
_chemical_formula_sum   'Li4 Al2 Ni2 O8'
_cell_volume   171.19129151
_cell_formula_units_Z   2
loop_
 _symmetry_equiv_pos_site_id
 _symmetry_equiv_pos_as_xyz
  1  'x, y, z'
loop_
 _atom_site_type_symbol
 _atom_site_label
 _atom_site_symmetry_multiplicity
 _atom_site_fract_x
 _atom_site_fract_y
 _atom_site_fract_z
 _atom_site_occupancy
  Li  Li0  1  0.67099500  0.24605800  0.24827000  1
  Li  Li1  1  0.16852800  0.50197500  0.99521200  1
  Li  Li2  1  0.32900500  0.24605800  0.74827000  1
  Li  Li3  1  0.83147200  0.50197500  0.49521200  1
  Al  Al0  1  0.32678400  0.75783300  0.24592000  1
  Al  Al1  1  0.67321600  0.75783300  0.74592000  1
  Ni  Ni0  1  0.82792400  0.00160700  0.00009100  1
  Ni  Ni1  1  0.17207600  0.00160700  0.50009100  1
  O  O0  1  0.31512600  0.10214400  0.25941700  1
  O  O1  1  0.81369700  0.39910900  0.97686600  1
  O  O2  1  0.83900800  0.88145500  0.51833900  1
  O  O3  1  0.35581400  0.66702000  0.73298500  1
  O  O4  1  0.68487400  0.10214400  0.75941700  1
  O  O5  1  0.18630300  0.39910900  0.47686600  1
  O  O6  1  0.16099200  0.88145500  0.01833900  1
  O  O7  1  0.64418600  0.66702000  0.23298500  1
loop_
_geom_bond_atom_site_label_1
_geom_bond_atom_site_label_2
_geom_bond_distance
_geom_bond_site_symmetry_2
Li0 O1 1.988854 1_554
Li0 O2 2.006137 1_545
Li0 O0 2.022165 1_555
Li0 O7 2.028539 1_555
Li1 O0 1.984069 1_556
Li1 O1 2.000973 1_455
Li1 O6 2.011761 1_556
Li1 O3 2.016154 1_555
Li2 O5 1.988854 1_555
Li2 O6 2.006137 1_546
Li2 O4 2.022165 1_555
Li2 O3 2.028539 1_555
Li3 O4 1.984069 1_555
Li3 O5 2.000973 1_655
Li3 O2 2.011761 1_555
Li3 O7 2.016154 1_555
Al0 O5 1.777522 1_555
Al0 O7 1.781830 1_555
Al0 O6 1.784455 1_555
Al0 O0 1.785861 1_565
Al1 O1 1.777522 1_555
Al1 O3 1.781830 1_555
Al1 O2 1.784455 1_555
Al1 O4 1.785861 1_565
Ni0 O7 1.857979 1_545
Ni0 O4 1.858214 1_554
Ni0 O6 1.861616 1_645
Ni0 O1 1.872078 1_554
Ni1 O3 1.857979 1_545
Ni1 O0 1.858214 1_555
Ni1 O2 1.861616 1_445
Ni1 O5 1.872078 1_555
