# generated using pymatgen
data_Tm2FeC4
_symmetry_space_group_name_H-M   'P 1'
_cell_length_a   4.93930536
_cell_length_b   6.46605537
_cell_length_c   6.46605591
_cell_angle_alpha   69.83440978
_cell_angle_beta   67.54602483
_cell_angle_gamma   67.54602536
_symmetry_Int_Tables_number   1
_chemical_formula_structural   Tm2FeC4
_chemical_formula_sum   'Tm4 Fe2 C8'
_cell_volume   171.53893832
_cell_formula_units_Z   2
loop_
 _symmetry_equiv_pos_site_id
 _symmetry_equiv_pos_as_xyz
  1  'x, y, z'
loop_
 _atom_site_type_symbol
 _atom_site_label
 _atom_site_symmetry_multiplicity
 _atom_site_fract_x
 _atom_site_fract_y
 _atom_site_fract_z
 _atom_site_occupancy
  Tm  Tm0  1  0.14473598  0.51010439  0.20042266  1
  Tm  Tm1  1  0.85526402  0.48989561  0.79957734  1
  Tm  Tm2  1  0.35526402  0.79957734  0.48989561  1
  Tm  Tm3  1  0.64473598  0.20042266  0.51010439  1
  Fe  Fe0  1  0.25000000  0.00000000  0.00000000  1
  Fe  Fe1  1  0.75000000  0.00000000  0.00000000  1
  C  C0  1  0.42204640  0.24376649  0.91214070  1
  C  C1  1  0.57795360  0.75623351  0.08785930  1
  C  C2  1  0.07795360  0.08785930  0.75623351  1
  C  C3  1  0.92204640  0.91214070  0.24376649  1
  C  C4  1  0.37012731  0.46920028  0.79054410  1
  C  C5  1  0.62987269  0.53079972  0.20945590  1
  C  C6  1  0.87012731  0.79054410  0.46920028  1
  C  C7  1  0.12987269  0.20945590  0.53079972  1
loop_
_geom_bond_atom_site_label_1
_geom_bond_atom_site_label_2
_geom_bond_distance
_geom_bond_site_symmetry_2
C0 C4 1.373691 1_555
C0 Fe0 1.888473 1_556
C0 Fe1 1.888473 1_556
C0 Tm3 2.475658 1_555
C0 Tm0 2.603398 1_556
C1 C5 1.373691 1_555
C1 Fe1 1.888473 1_565
C1 Fe0 1.888473 1_565
C1 Tm2 2.475658 1_555
C1 Tm1 2.603398 1_554
C2 C7 1.373691 1_555
C2 Fe1 1.888473 1_456
C2 Fe0 1.888473 1_556
C2 Tm1 2.475658 1_455
C2 Tm2 2.603398 1_545
C3 C6 1.373691 1_555
C3 Fe0 1.888473 1_665
C3 Fe1 1.888473 1_565
C3 Tm0 2.475658 1_655
C3 Tm3 2.603398 1_565
C4 Tm2 2.339662 1_555
C4 Tm1 2.473960 1_455
C4 Tm1 2.473970 1_555
C4 Tm0 2.517528 1_556
C4 Tm3 2.577145 1_555
C5 Tm3 2.339662 1_555
C5 Tm0 2.473960 1_655
C5 Tm0 2.473970 1_555
C5 Tm1 2.517528 1_554
C5 Tm2 2.577145 1_555
C6 Tm1 2.339662 1_555
C6 Tm2 2.473960 1_555
C6 Tm2 2.473970 1_655
C6 Tm3 2.517527 1_565
C6 Tm0 2.577145 1_655
C7 Tm0 2.339662 1_555
C7 Tm3 2.473960 1_555
C7 Tm3 2.473970 1_455
C7 Tm2 2.517527 1_545
C7 Tm1 2.577145 1_455
