# generated using pymatgen
data_LiBi3(IO2)2
_symmetry_space_group_name_H-M   'P 1'
_cell_length_a   7.36508178
_cell_length_b   7.36508178
_cell_length_c   11.26355800
_cell_angle_alpha   90.00000000
_cell_angle_beta   90.00000000
_cell_angle_gamma   134.97182033
_symmetry_Int_Tables_number   1
_chemical_formula_structural   LiBi3(IO2)2
_chemical_formula_sum   'Li2 Bi6 I4 O8'
_cell_volume   432.24426749
_cell_formula_units_Z   2
loop_
 _symmetry_equiv_pos_site_id
 _symmetry_equiv_pos_as_xyz
  1  'x, y, z'
loop_
 _atom_site_type_symbol
 _atom_site_label
 _atom_site_symmetry_multiplicity
 _atom_site_fract_x
 _atom_site_fract_y
 _atom_site_fract_z
 _atom_site_occupancy
  Li  Li0  1  0.20948300  0.79051700  0.75000000  1
  Li  Li1  1  0.79051700  0.20948300  0.25000000  1
  Bi  Bi0  1  0.83818000  0.16182000  0.75000000  1
  Bi  Bi1  1  0.33286800  0.66713200  0.00262600  1
  Bi  Bi2  1  0.66713200  0.33286800  0.99737400  1
  Bi  Bi3  1  0.16182000  0.83818000  0.25000000  1
  Bi  Bi4  1  0.33286800  0.66713200  0.49737400  1
  Bi  Bi5  1  0.66713200  0.33286800  0.50262600  1
  I  I0  1  0.49228400  0.50771600  0.75000000  1
  I  I1  1  0.00000000  0.00000000  0.00000000  1
  I  I2  1  0.50771600  0.49228400  0.25000000  1
  I  I3  1  0.00000000  0.00000000  0.50000000  1
  O  O0  1  0.00055800  0.49270800  0.87651800  1
  O  O1  1  0.50729200  0.99944200  0.87651800  1
  O  O2  1  0.99944200  0.50729200  0.12348200  1
  O  O3  1  0.49270800  0.00055800  0.12348200  1
  O  O4  1  0.99944200  0.50729200  0.37651800  1
  O  O5  1  0.00055800  0.49270800  0.62348200  1
  O  O6  1  0.49270800  0.00055800  0.37651800  1
  O  O7  1  0.50729200  0.99944200  0.62348200  1
loop_
_geom_bond_atom_site_label_1
_geom_bond_atom_site_label_2
_geom_bond_distance
_geom_bond_site_symmetry_2
Li0 O0 2.106827 1_555
Li0 O1 2.106827 1_555
Li0 O5 2.106827 1_555
Li0 O7 2.106827 1_555
Li1 O6 2.106827 1_555
Li1 O4 2.106827 1_555
Li1 O3 2.106827 1_555
Li1 O2 2.106827 1_555
Bi0 O1 2.297901 1_545
Bi0 O0 2.297901 1_655
Bi0 O7 2.297901 1_545
Bi0 O5 2.297901 1_655
Bi0 I0 3.514347 1_655
Bi0 I0 3.514347 1_545
Bi0 I1 3.574618 1_656
Bi0 I3 3.574618 1_655
Bi1 O3 2.276629 1_565
Bi1 O2 2.276629 1_455
Bi1 O1 2.283376 1_554
Bi1 O0 2.283376 1_554
Bi1 I0 3.578037 1_554
Bi1 I1 3.623043 1_555
Bi1 I1 3.623043 1_665
Bi1 I2 3.663924 1_555
Bi2 O0 2.276629 1_655
Bi2 O1 2.276629 1_545
Bi2 O2 2.283376 1_556
Bi2 O3 2.283376 1_556
Bi2 I2 3.578037 1_556
Bi2 I1 3.623043 1_556
Bi2 I1 3.623043 1_666
Bi2 I0 3.663924 1_555
Bi3 O4 2.297901 1_455
Bi3 O6 2.297901 1_565
Bi3 O2 2.297901 1_455
Bi3 O3 2.297901 1_565
Bi3 I2 3.514347 1_565
Bi3 I2 3.514347 1_455
Bi3 I3 3.574618 1_565
Bi3 I1 3.574618 1_565
Bi4 O6 2.276629 1_565
Bi4 O4 2.276629 1_455
Bi4 O7 2.283376 1_555
Bi4 O5 2.283376 1_555
Bi4 I0 3.578037 1_555
Bi4 I3 3.623043 1_555
Bi4 I3 3.623043 1_665
Bi4 I2 3.663924 1_555
Bi5 O5 2.276629 1_655
Bi5 O7 2.276629 1_545
Bi5 O4 2.283376 1_555
Bi5 O6 2.283376 1_555
Bi5 I2 3.578037 1_555
Bi5 I3 3.623043 1_555
Bi5 I3 3.623043 1_665
Bi5 I0 3.663924 1_555
