# generated using pymatgen
data_Li2V3O7
_symmetry_space_group_name_H-M   'P 1'
_cell_length_a   10.58557537
_cell_length_b   10.58557537
_cell_length_c   9.52925400
_cell_angle_alpha   90.00000000
_cell_angle_beta   90.00000000
_cell_angle_gamma   119.99999605
_symmetry_Int_Tables_number   1
_chemical_formula_structural   Li2V3O7
_chemical_formula_sum   'Li12 V18 O42'
_cell_volume   924.73754224
_cell_formula_units_Z   6
loop_
 _symmetry_equiv_pos_site_id
 _symmetry_equiv_pos_as_xyz
  1  'x, y, z'
loop_
 _atom_site_type_symbol
 _atom_site_label
 _atom_site_symmetry_multiplicity
 _atom_site_fract_x
 _atom_site_fract_y
 _atom_site_fract_z
 _atom_site_occupancy
  Li  Li0  1  0.05046500  0.52122300  0.33527700  1
  Li  Li1  1  0.47075800  0.94953500  0.33527700  1
  Li  Li2  1  0.33333300  0.66666700  0.67467400  1
  Li  Li3  1  0.33333300  0.66666700  0.03456400  1
  Li  Li4  1  0.00000000  0.00000000  0.10841200  1
  Li  Li5  1  0.00000000  0.00000000  0.60841200  1
  Li  Li6  1  0.47877700  0.52924200  0.33527700  1
  Li  Li7  1  0.52924200  0.47877700  0.83527700  1
  Li  Li8  1  0.52122300  0.05046500  0.83527700  1
  Li  Li9  1  0.66666700  0.33333300  0.17467400  1
  Li  Li10  1  0.66666700  0.33333300  0.53456400  1
  Li  Li11  1  0.94953500  0.47075800  0.83527700  1
  V  V0  1  0.12652600  0.79461700  0.19921900  1
  V  V1  1  0.16218900  0.83905200  0.85123500  1
  V  V2  1  0.20425100  0.87291300  0.50520600  1
  V  V3  1  0.12708700  0.33133800  0.50520600  1
  V  V4  1  0.16094800  0.32313700  0.85123500  1
  V  V5  1  0.20538300  0.33190900  0.19921900  1
  V  V6  1  0.33190900  0.20538300  0.69921900  1
  V  V7  1  0.32313700  0.16094800  0.35123500  1
  V  V8  1  0.66809100  0.87347400  0.19921900  1
  V  V9  1  0.33133800  0.12708700  0.00520600  1
  V  V10  1  0.67686300  0.83781100  0.85123500  1
  V  V11  1  0.66866200  0.79574900  0.50520600  1
  V  V12  1  0.79574900  0.66866200  0.00520600  1
  V  V13  1  0.83781100  0.67686300  0.35123500  1
  V  V14  1  0.87347400  0.66809100  0.69921900  1
  V  V15  1  0.79461700  0.12652600  0.69921900  1
  V  V16  1  0.83905200  0.16218900  0.35123500  1
  V  V17  1  0.87291300  0.20425100  0.00520600  1
  O  O0  1  0.06943000  0.83326500  0.67019700  1
  O  O1  1  0.04346200  0.72612500  0.39040500  1
  O  O2  1  0.17308600  0.92807800  0.03389900  1
  O  O3  1  0.27649400  0.95446900  0.31246100  1
  O  O4  1  0.15789500  0.65725100  0.16073100  1
  O  O5  1  0.25079200  0.74741500  0.85059200  1
  O  O6  1  0.04553100  0.32202600  0.31246100  1
  O  O7  1  0.33566800  0.83619800  0.54861800  1
  O  O8  1  0.16380200  0.49947000  0.54861800  1
  O  O9  1  0.07192200  0.24500800  0.03389900  1
  O  O10  1  0.25258500  0.50337700  0.85059200  1
  O  O11  1  0.16673500  0.23616500  0.67019700  1
  O  O12  1  0.34274900  0.50064400  0.16073100  1
  O  O13  1  0.49935600  0.84210500  0.16073100  1
  O  O14  1  0.27387500  0.31733700  0.39040500  1
  O  O15  1  0.49662300  0.74920800  0.85059200  1
  O  O16  1  0.23616500  0.16673500  0.17019700  1
  O  O17  1  0.31733700  0.27387500  0.89040500  1
  O  O18  1  0.50053000  0.66433200  0.54861800  1
  O  O19  1  0.24500800  0.07192200  0.53389900  1
  O  O20  1  0.68266300  0.95653800  0.39040500  1
  O  O21  1  0.32202600  0.04553100  0.81246100  1
  O  O22  1  0.76383500  0.93057000  0.67019700  1
  O  O23  1  0.50064400  0.34274900  0.66073100  1
  O  O24  1  0.67797400  0.72350600  0.31246100  1
  O  O25  1  0.75499200  0.82691400  0.03389900  1
  O  O26  1  0.50337700  0.25258500  0.35059200  1
  O  O27  1  0.72350600  0.67797400  0.81246100  1
  O  O28  1  0.49947000  0.16380200  0.04861800  1
  O  O29  1  0.66433200  0.50053000  0.04861800  1
  O  O30  1  0.82691400  0.75499200  0.53389900  1
  O  O31  1  0.74920800  0.49662300  0.35059200  1
  O  O32  1  0.93057000  0.76383500  0.17019700  1
  O  O33  1  0.84210500  0.49935600  0.66073100  1
  O  O34  1  0.65725100  0.15789500  0.66073100  1
  O  O35  1  0.95653800  0.68266300  0.89040500  1
  O  O36  1  0.74741500  0.25079200  0.35059200  1
  O  O37  1  0.83619800  0.33566800  0.04861800  1
  O  O38  1  0.72612500  0.04346200  0.89040500  1
  O  O39  1  0.83326500  0.06943000  0.17019700  1
  O  O40  1  0.95446900  0.27649400  0.81246100  1
  O  O41  1  0.92807800  0.17308600  0.53389900  1
loop_
_geom_bond_atom_site_label_1
_geom_bond_atom_site_label_2
_geom_bond_distance
_geom_bond_site_symmetry_2
Li0 O6 2.094308 1_555
Li0 O4 2.120305 1_555
Li0 O1 2.268665 1_555
Li0 O8 2.429334 1_555
Li1 O3 2.094318 1_555
Li1 O13 2.120305 1_555
Li1 O20 2.268665 1_555
Li1 O7 2.429334 1_555
Li2 O7 2.149351 1_555
Li2 O8 2.149356 1_555
Li2 O18 2.149360 1_555
Li2 O5 2.247466 1_555
Li2 O15 2.247472 1_555
Li2 O10 2.247472 1_555
Li3 O4 2.172364 1_555
Li3 O13 2.172368 1_555
Li3 O12 2.172373 1_555
Li3 O5 2.305279 1_554
Li3 O15 2.305285 1_554
Li3 O10 2.305285 1_554
Li4 O39 2.301992 1_455
Li4 O32 2.301992 1_445
Li4 O16 2.301992 1_555
Li4 O2 2.415730 1_545
Li4 O9 2.415730 1_555
Li4 O25 2.415730 1_445
Li5 O0 2.301992 1_545
Li5 O22 2.301992 1_445
Li5 O11 2.301992 1_555
Li5 O41 2.415730 1_455
Li5 O19 2.415730 1_555
Li5 O30 2.415730 1_445
Li6 O24 2.094313 1_555
Li6 O12 2.120305 1_555
Li6 O14 2.268665 1_555
Li6 O18 2.429334 1_555
Li7 O27 2.094313 1_555
Li7 O23 2.120305 1_555
Li7 O17 2.268665 1_555
Li7 O29 2.429334 1_556
Li8 O21 2.094308 1_555
Li8 O34 2.120305 1_555
Li8 O38 2.268665 1_555
Li8 O28 2.429334 1_556
Li9 O37 2.149351 1_555
Li9 O28 2.149356 1_555
Li9 O29 2.149360 1_555
Li9 O36 2.247466 1_555
Li9 O31 2.247472 1_555
Li9 O26 2.247472 1_555
Li10 O34 2.172364 1_555
Li10 O33 2.172368 1_555
Li10 O23 2.172373 1_555
Li10 O36 2.305279 1_555
Li10 O31 2.305285 1_555
Li10 O26 2.305285 1_555
Li11 O40 2.094318 1_555
Li11 O33 2.120305 1_555
Li11 O35 2.268665 1_555
Li11 O37 2.429334 1_556
O0 V14 1.951796 1_455
O0 V1 1.970764 1_555
O0 V2 2.021359 1_555
O1 V2 1.965561 1_555
O1 V0 1.995111 1_555
O1 V13 2.003770 1_455
O2 V9 1.946764 1_565
O2 V1 1.955139 1_554
O2 V0 2.006071 1_555
O3 V0 1.965114 1_555
O3 V2 2.010834 1_555
O3 V7 2.019507 1_565
O4 V0 1.685831 1_555
O5 V1 1.652417 1_555
O6 V5 1.965118 1_555
O6 V3 2.010836 1_555
O6 V16 2.019511 1_455
O7 V2 1.672743 1_555
O8 V3 1.672743 1_555
O9 V17 1.946764 1_455
O9 V4 1.955139 1_554
O9 V5 2.006071 1_555
O10 V4 1.652418 1_555
O11 V6 1.951796 1_555
O11 V4 1.970764 1_555
O11 V3 2.021359 1_555
O12 V5 1.685831 1_555
O13 V8 1.685831 1_555
O14 V3 1.965560 1_555
O14 V5 1.995111 1_555
O14 V7 2.003770 1_555
O15 V10 1.652418 1_555
O16 V5 1.951796 1_555
O16 V7 1.970764 1_555
O16 V9 2.021359 1_555
O17 V9 1.965560 1_556
O17 V6 1.995111 1_555
O17 V4 2.003770 1_555
O18 V11 1.672743 1_555
O19 V2 1.946764 1_545
O19 V7 1.955139 1_555
O19 V6 2.006071 1_555
O20 V11 1.965560 1_555
O20 V8 1.995111 1_555
O20 V16 2.003770 1_565
O21 V6 1.965118 1_555
O21 V9 2.010836 1_556
O21 V1 2.019511 1_545
O22 V15 1.951796 1_565
O22 V10 1.970764 1_555
O22 V11 2.021359 1_555
O23 V6 1.685831 1_555
O24 V8 1.965109 1_555
O24 V11 2.010831 1_555
O24 V13 2.019517 1_555
O25 V12 1.946764 1_555
O25 V10 1.955139 1_554
O25 V8 2.006071 1_555
O26 V7 1.652418 1_555
O27 V14 1.965109 1_555
O27 V12 2.010831 1_556
O27 V10 2.019517 1_555
O28 V9 1.672743 1_555
O29 V12 1.672743 1_555
O30 V11 1.946764 1_555
O30 V13 1.955139 1_555
O30 V14 2.006071 1_555
O31 V13 1.652418 1_555
O32 V0 1.951796 1_655
O32 V13 1.970764 1_555
O32 V12 2.021359 1_555
O33 V14 1.685831 1_555
O34 V15 1.685831 1_555
O35 V12 1.965560 1_556
O35 V14 1.995111 1_555
O35 V1 2.003770 1_655
O36 V16 1.652417 1_555
O37 V17 1.672743 1_555
O38 V17 1.965561 1_556
O38 V15 1.995111 1_555
O38 V10 2.003770 1_545
O39 V8 1.951796 1_545
O39 V16 1.970764 1_555
O39 V17 2.021359 1_555
O40 V15 1.965114 1_555
O40 V17 2.010834 1_556
O40 V4 2.019507 1_655
O41 V3 1.946764 1_655
O41 V16 1.955139 1_555
O41 V15 2.006071 1_555
