# generated using pymatgen
data_Li2CoP2O7
_symmetry_space_group_name_H-M   'P 1'
_cell_length_a   5.07483140
_cell_length_b   8.82301196
_cell_length_c   13.29393763
_cell_angle_alpha   108.97349520
_cell_angle_beta   91.38873768
_cell_angle_gamma   73.56502588
_symmetry_Int_Tables_number   1
_chemical_formula_structural   Li2CoP2O7
_chemical_formula_sum   'Li8 Co4 P8 O28'
_cell_volume   538.39246305
_cell_formula_units_Z   4
loop_
 _symmetry_equiv_pos_site_id
 _symmetry_equiv_pos_as_xyz
  1  'x, y, z'
loop_
 _atom_site_type_symbol
 _atom_site_label
 _atom_site_symmetry_multiplicity
 _atom_site_fract_x
 _atom_site_fract_y
 _atom_site_fract_z
 _atom_site_occupancy
  Li  Li0  1  0.42895800  0.01069700  0.33888700  1
  Li  Li1  1  0.92879500  0.01114700  0.83869100  1
  Li  Li2  1  0.57109800  0.98924000  0.66115000  1
  Li  Li3  1  0.07116300  0.98886000  0.16132600  1
  Li  Li4  1  0.11958900  0.75664300  0.55660100  1
  Li  Li5  1  0.61964900  0.75633400  0.05656800  1
  Li  Li6  1  0.88005700  0.24340200  0.44333900  1
  Li  Li7  1  0.38016300  0.24374800  0.94337700  1
  Co  Co0  1  0.39710700  0.33728100  0.58738600  1
  Co  Co1  1  0.60296800  0.66264900  0.41265900  1
  Co  Co2  1  0.89735600  0.33543900  0.08683800  1
  Co  Co3  1  0.10267500  0.66427000  0.91320500  1
  P  P0  1  0.21673200  0.39240100  0.37086000  1
  P  P1  1  0.71622500  0.39325100  0.87097100  1
  P  P2  1  0.78333300  0.60753900  0.62917400  1
  P  P3  1  0.28385400  0.60676400  0.12897600  1
  P  P4  1  0.48099000  0.14493900  0.14970800  1
  P  P5  1  0.98096900  0.14539500  0.64960000  1
  P  P6  1  0.51890500  0.85511200  0.85032900  1
  P  P7  1  0.01911300  0.85455900  0.35036600  1
  O  O0  1  0.90260500  0.43747400  0.36627300  1
  O  O1  1  0.40209700  0.43780400  0.86612100  1
  O  O2  1  0.09741800  0.56236200  0.63382800  1
  O  O3  1  0.59801100  0.56220400  0.13389200  1
  O  O4  1  0.32031100  0.54193100  0.42433300  1
  O  O5  1  0.82032100  0.54252600  0.92449500  1
  O  O6  1  0.67956900  0.45809400  0.57567700  1
  O  O7  1  0.17986700  0.45751800  0.07526600  1
  O  O8  1  0.31440500  0.25431300  0.42424000  1
  O  O9  1  0.81364200  0.25516000  0.92452400  1
  O  O10  1  0.68603900  0.74558800  0.57573900  1
  O  O11  1  0.18633700  0.74507000  0.07556700  1
  O  O12  1  0.23367300  0.84002300  0.87288600  1
  O  O13  1  0.73379900  0.83940300  0.37284100  1
  O  O14  1  0.76615600  0.16008700  0.12714800  1
  O  O15  1  0.26632800  0.16053600  0.62718600  1
  O  O16  1  0.99114000  0.99363000  0.68367500  1
  O  O17  1  0.49143800  0.99315000  0.18370500  1
  O  O18  1  0.00883900  0.00637100  0.31632100  1
  O  O19  1  0.50853600  0.00688900  0.81630900  1
  O  O20  1  0.34539500  0.31374000  0.25024900  1
  O  O21  1  0.84536900  0.31429700  0.75029200  1
  O  O22  1  0.65442800  0.68632100  0.74975600  1
  O  O23  1  0.15455800  0.68568100  0.24964500  1
  O  O24  1  0.21370900  0.84635100  0.43956600  1
  O  O25  1  0.71367100  0.84660600  0.93940900  1
  O  O26  1  0.78645800  0.15363400  0.56038300  1
  O  O27  1  0.28618200  0.15356700  0.06065800  1
loop_
_geom_bond_atom_site_label_1
_geom_bond_atom_site_label_2
_geom_bond_distance
_geom_bond_site_symmetry_2
Li0 O13 1.991954 1_545
Li0 O8 1.996114 1_555
Li0 O17 2.043682 1_545
Li0 O18 2.155137 1_555
Li1 O12 1.992597 1_645
Li1 O9 2.000395 1_555
Li1 O16 2.041471 1_545
Li1 O19 2.155423 1_555
Li2 O15 1.991824 1_565
Li2 O10 1.996546 1_555
Li2 O19 2.043179 1_565
Li2 O16 2.154833 1_555
Li3 O14 1.993415 1_465
Li3 O11 1.998581 1_555
Li3 O18 2.041193 1_565
Li3 O17 2.155571 1_555
Li4 O24 2.079905 1_555
Li4 O4 2.132383 1_555
Li4 O16 2.153128 1_455
Li4 O10 2.253840 1_455
Li4 O2 2.294350 1_555
Li5 O25 2.084604 1_554
Li5 O5 2.127038 1_554
Li5 O17 2.152520 1_555
Li5 O11 2.253023 1_555
Li5 O3 2.293302 1_555
Li6 O26 2.079436 1_555
Li6 O6 2.132515 1_555
Li6 O18 2.153098 1_655
Li6 O8 2.257325 1_655
Li6 O0 2.291718 1_555
Li7 O27 2.085399 1_556
Li7 O7 2.125063 1_556
Li7 O19 2.152360 1_555
Li7 O9 2.254038 1_555
Li7 O1 2.292491 1_555
Co0 O2 2.043818 1_555
Co0 O6 2.049031 1_555
Co0 O15 2.071569 1_555
Co0 O26 2.122021 1_555
Co0 O8 2.124445 1_555
Co1 O0 2.044240 1_555
Co1 O4 2.049126 1_555
Co1 O13 2.071907 1_555
Co1 O24 2.121974 1_555
Co1 O10 2.124141 1_555
Co2 O3 2.052905 1_555
Co2 O7 2.057075 1_655
Co2 O14 2.064800 1_555
Co2 O27 2.113792 1_655
Co2 O9 2.114295 1_554
Co3 O1 2.051336 1_555
Co3 O5 2.053220 1_455
Co3 O12 2.067580 1_555
Co3 O11 2.115082 1_556
Co3 O25 2.116236 1_455
O0 P0 1.534759 1_655
O1 P1 1.535217 1_555
O2 P2 1.534622 1_455
O3 P3 1.535445 1_555
O4 P0 1.512169 1_555
O5 P1 1.511982 1_555
O6 P2 1.512160 1_555
O7 P3 1.511894 1_555
O8 P0 1.561115 1_555
O9 P1 1.562639 1_555
O10 P2 1.561175 1_555
O11 P3 1.562931 1_555
O12 P6 1.535890 1_555
O13 P7 1.536273 1_655
O14 P4 1.535792 1_555
O15 P5 1.536241 1_455
O16 P5 1.534612 1_565
O17 P4 1.533907 1_565
O18 P7 1.534665 1_545
O19 P6 1.534070 1_545
O20 P0 1.596746 1_555
O20 P4 1.627370 1_555
O21 P1 1.598275 1_555
O21 P5 1.628918 1_555
O22 P2 1.596783 1_555
O22 P6 1.627483 1_555
O23 P3 1.598401 1_555
O23 P7 1.628868 1_555
O24 P7 1.531425 1_555
O25 P6 1.531027 1_555
O26 P5 1.531368 1_555
O27 P4 1.530976 1_555
