# generated using pymatgen
data_CrNi5(PO4)6
_symmetry_space_group_name_H-M   'P 1'
_cell_length_a   8.46275249
_cell_length_b   8.46275249
_cell_length_c   8.46275214
_cell_angle_alpha   61.14802141
_cell_angle_beta   61.14802141
_cell_angle_gamma   61.14802236
_symmetry_Int_Tables_number   1
_chemical_formula_structural   CrNi5(PO4)6
_chemical_formula_sum   'Cr1 Ni5 P6 O24'
_cell_volume   439.63936744
_cell_formula_units_Z   1
loop_
 _symmetry_equiv_pos_site_id
 _symmetry_equiv_pos_as_xyz
  1  'x, y, z'
loop_
 _atom_site_type_symbol
 _atom_site_label
 _atom_site_symmetry_multiplicity
 _atom_site_fract_x
 _atom_site_fract_y
 _atom_site_fract_z
 _atom_site_occupancy
  Cr  Cr0  1  0.85836600  0.85836600  0.85836600  1
  Ni  Ni0  1  0.00129200  0.00129200  0.00129200  1
  Ni  Ni1  1  0.35938900  0.35938900  0.35938900  1
  Ni  Ni2  1  0.50036300  0.50036300  0.50036300  1
  Ni  Ni3  1  0.14210400  0.14210400  0.14210400  1
  Ni  Ni4  1  0.64156100  0.64156100  0.64156100  1
  P  P0  1  0.74972300  0.04449700  0.45568700  1
  P  P1  1  0.04449700  0.45568700  0.74972300  1
  P  P2  1  0.45568700  0.74972300  0.04449700  1
  P  P3  1  0.54652800  0.25024000  0.95337600  1
  P  P4  1  0.95337600  0.54652800  0.25024000  1
  P  P5  1  0.25024000  0.95337600  0.54652800  1
  O  O0  1  0.89355600  0.49311000  0.67566800  1
  O  O1  1  0.49311000  0.67566800  0.89355600  1
  O  O2  1  0.67566800  0.89355600  0.49311000  1
  O  O3  1  0.90770800  0.05708100  0.25721400  1
  O  O4  1  0.82579300  0.99394700  0.61396300  1
  O  O5  1  0.59480600  0.24254800  0.45070100  1
  O  O6  1  0.05708100  0.25721400  0.90770800  1
  O  O7  1  0.24254800  0.45070100  0.59480600  1
  O  O8  1  0.39345700  0.18036700  0.98827400  1
  O  O9  1  0.45070100  0.59480600  0.24254800  1
  O  O10  1  0.74913400  0.08902100  0.93271000  1
  O  O11  1  0.98827400  0.39345700  0.18036700  1
  O  O12  1  0.99394700  0.61396300  0.82579300  1
  O  O13  1  0.25721400  0.90770800  0.05708100  1
  O  O14  1  0.56255300  0.40528600  0.75246100  1
  O  O15  1  0.61396300  0.82579300  0.99394700  1
  O  O16  1  0.75246100  0.56255300  0.40528600  1
  O  O17  1  0.93271000  0.74913400  0.08902100  1
  O  O18  1  0.40528600  0.75246100  0.56255300  1
  O  O19  1  0.18036700  0.98827400  0.39345700  1
  O  O20  1  0.08902100  0.93271000  0.74913400  1
  O  O21  1  0.31470900  0.10801900  0.51480000  1
  O  O22  1  0.51480000  0.31470900  0.10801900  1
  O  O23  1  0.10801900  0.51480000  0.31470900  1
loop_
_geom_bond_atom_site_label_1
_geom_bond_atom_site_label_2
_geom_bond_distance
_geom_bond_site_symmetry_2
Cr0 O4 1.903971 1_555
Cr0 O15 1.903971 1_555
Cr0 O12 1.903971 1_555
Cr0 O17 1.985717 1_556
Cr0 O20 1.985717 1_655
Cr0 O10 1.985717 1_565
Ni0 O3 2.124012 1_455
Ni0 O6 2.124012 1_554
Ni0 O13 2.124012 1_545
Ni0 O20 2.166156 1_544
Ni0 O10 2.166156 1_454
Ni0 O17 2.166156 1_445
Ni1 O22 1.998561 1_555
Ni1 O21 1.998561 1_555
Ni1 O23 1.998561 1_555
Ni1 O7 2.095519 1_555
Ni1 O5 2.095519 1_555
Ni1 O9 2.095519 1_555
Ni2 O9 2.110360 1_555
Ni2 O7 2.110360 1_555
Ni2 O5 2.110360 1_555
Ni2 O14 2.119962 1_555
Ni2 O18 2.119963 1_555
Ni2 O16 2.119963 1_555
Ni3 O19 1.977303 1_545
Ni3 O8 1.977303 1_554
Ni3 O11 1.977303 1_455
Ni3 O6 2.058540 1_554
Ni3 O13 2.058540 1_545
Ni3 O3 2.058540 1_455
Ni4 O1 1.966703 1_555
Ni4 O2 1.966704 1_555
Ni4 O0 1.966704 1_555
Ni4 O16 2.049288 1_555
Ni4 O18 2.049288 1_555
Ni4 O14 2.049288 1_555
O0 P1 1.521636 1_655
O1 P2 1.521636 1_556
O2 P0 1.521636 1_565
O3 P0 1.554847 1_555
O4 P0 1.550794 1_565
O5 P0 1.547323 1_555
O6 P1 1.554847 1_555
O7 P1 1.547323 1_555
O8 P3 1.521986 1_555
O9 P2 1.547323 1_555
O10 P3 1.585915 1_555
O11 P4 1.521986 1_555
O12 P1 1.550794 1_655
O13 P2 1.554847 1_555
O14 P3 1.557921 1_555
O15 P2 1.550794 1_556
O16 P4 1.557921 1_555
O17 P4 1.585914 1_555
O18 P5 1.557921 1_555
O19 P5 1.521986 1_555
O20 P5 1.585914 1_555
O21 P5 1.513621 1_545
O22 P3 1.513620 1_554
O23 P4 1.513621 1_455
