# generated using pymatgen
data_Ta2BeO6
_symmetry_space_group_name_H-M   'P 1'
_cell_length_a   4.94265100
_cell_length_b   7.43095000
_cell_length_c   11.53034900
_cell_angle_alpha   90.00000000
_cell_angle_beta   90.00000000
_cell_angle_gamma   90.00000000
_symmetry_Int_Tables_number   1
_chemical_formula_structural   Ta2BeO6
_chemical_formula_sum   'Ta8 Be4 O24'
_cell_volume   423.49348921
_cell_formula_units_Z   4
loop_
 _symmetry_equiv_pos_site_id
 _symmetry_equiv_pos_as_xyz
  1  'x, y, z'
loop_
 _atom_site_type_symbol
 _atom_site_label
 _atom_site_symmetry_multiplicity
 _atom_site_fract_x
 _atom_site_fract_y
 _atom_site_fract_z
 _atom_site_occupancy
  Ta  Ta0  1  0.10552200  0.49646100  0.13296700  1
  Ta  Ta1  1  0.10552200  0.00353900  0.13296700  1
  Ta  Ta2  1  0.60552200  0.99646100  0.36703300  1
  Ta  Ta3  1  0.60552200  0.50353900  0.36703300  1
  Ta  Ta4  1  0.39447800  0.49646100  0.63296700  1
  Ta  Ta5  1  0.39447800  0.00353900  0.63296700  1
  Ta  Ta6  1  0.89447800  0.99646100  0.86703300  1
  Ta  Ta7  1  0.89447800  0.50353900  0.86703300  1
  Be  Be0  1  0.40080700  0.25000000  0.93852100  1
  Be  Be1  1  0.90080700  0.75000000  0.56147900  1
  Be  Be2  1  0.09919300  0.25000000  0.43852100  1
  Be  Be3  1  0.59919300  0.75000000  0.06147900  1
  O  O0  1  0.77191700  0.57567900  0.03445400  1
  O  O1  1  0.77191700  0.92432100  0.03445400  1
  O  O2  1  0.29576200  0.75000000  0.10330400  1
  O  O3  1  0.98798200  0.25000000  0.14053700  1
  O  O4  1  0.40623200  0.06594600  0.23118400  1
  O  O5  1  0.40623200  0.43405400  0.23118400  1
  O  O6  1  0.90623200  0.93405400  0.26881600  1
  O  O7  1  0.90623200  0.56594600  0.26881600  1
  O  O8  1  0.48798200  0.75000000  0.35946300  1
  O  O9  1  0.79576200  0.25000000  0.39669600  1
  O  O10  1  0.27191700  0.07567900  0.46554600  1
  O  O11  1  0.27191700  0.42432100  0.46554600  1
  O  O12  1  0.72808300  0.57567900  0.53445400  1
  O  O13  1  0.72808300  0.92432100  0.53445400  1
  O  O14  1  0.20423800  0.75000000  0.60330400  1
  O  O15  1  0.51201800  0.25000000  0.64053700  1
  O  O16  1  0.09376800  0.06594600  0.73118400  1
  O  O17  1  0.09376800  0.43405400  0.73118400  1
  O  O18  1  0.59376800  0.56594600  0.76881600  1
  O  O19  1  0.59376800  0.93405400  0.76881600  1
  O  O20  1  0.01201800  0.75000000  0.85946300  1
  O  O21  1  0.70423800  0.25000000  0.89669600  1
  O  O22  1  0.22808300  0.07567900  0.96554600  1
  O  O23  1  0.22808300  0.42432100  0.96554600  1
loop_
_geom_bond_atom_site_label_1
_geom_bond_atom_site_label_2
_geom_bond_distance
_geom_bond_site_symmetry_2
Be0 O21 1.575383 1_555
Be0 O23 1.582376 1_555
Be0 O22 1.582376 1_555
Be1 O14 1.575383 1_655
Be1 O13 1.582376 1_555
Be1 O12 1.582376 1_555
Be2 O9 1.575383 1_455
Be2 O11 1.582376 1_555
Be2 O10 1.582376 1_555
Be3 O2 1.575383 1_555
Be3 O0 1.582376 1_555
Be3 O1 1.582376 1_555
O0 Ta0 2.087012 1_655
O0 Ta7 2.093052 1_554
O1 Ta1 2.087012 1_665
O1 Ta6 2.093052 1_554
O2 Ta1 2.133241 1_565
O2 Ta0 2.133241 1_555
O3 Ta0 1.923357 1_655
O3 Ta1 1.923357 1_655
O4 Ta2 1.921052 1_545
O4 Ta1 1.925269 1_555
O5 Ta3 1.921052 1_555
O5 Ta0 1.925269 1_555
O6 Ta1 1.921052 1_665
O6 Ta2 1.925269 1_555
O7 Ta0 1.921052 1_655
O7 Ta3 1.925269 1_555
O8 Ta2 1.923357 1_555
O8 Ta3 1.923357 1_555
O9 Ta3 2.133241 1_555
O9 Ta2 2.133241 1_545
O10 Ta2 2.087012 1_545
O10 Ta5 2.093052 1_555
O11 Ta3 2.087012 1_555
O11 Ta4 2.093052 1_555
O12 Ta4 2.087012 1_555
O12 Ta3 2.093052 1_555
O13 Ta5 2.087012 1_565
O13 Ta2 2.093052 1_555
O14 Ta5 2.133241 1_565
O14 Ta4 2.133241 1_555
O15 Ta4 1.923357 1_555
O15 Ta5 1.923357 1_555
O16 Ta6 1.921052 1_445
O16 Ta5 1.925269 1_555
O17 Ta7 1.921052 1_455
O17 Ta4 1.925269 1_555
O18 Ta4 1.921052 1_555
O18 Ta7 1.925269 1_555
O19 Ta5 1.921052 1_565
O19 Ta6 1.925269 1_555
O20 Ta7 1.923357 1_455
O20 Ta6 1.923357 1_455
O21 Ta7 2.133241 1_555
O21 Ta6 2.133241 1_545
O22 Ta6 2.087012 1_445
O22 Ta1 2.093052 1_556
O23 Ta7 2.087012 1_455
O23 Ta0 2.093052 1_556
