# generated using pymatgen
data_Ba4Ti11O26
_symmetry_space_group_name_H-M   'P 1'
_cell_length_a   10.02808846
_cell_length_b   10.02808846
_cell_length_c   16.62102509
_cell_angle_alpha   67.76692849
_cell_angle_beta   67.76692849
_cell_angle_gamma   46.17982174
_symmetry_Int_Tables_number   1
_chemical_formula_structural   Ba4Ti11O26
_chemical_formula_sum   'Ba8 Ti22 O52'
_cell_volume   1099.23711664
_cell_formula_units_Z   2
loop_
 _symmetry_equiv_pos_site_id
 _symmetry_equiv_pos_as_xyz
  1  'x, y, z'
loop_
 _atom_site_type_symbol
 _atom_site_label
 _atom_site_symmetry_multiplicity
 _atom_site_fract_x
 _atom_site_fract_y
 _atom_site_fract_z
 _atom_site_occupancy
  Ba  Ba0  1  0.09279500  0.61143000  0.05955800  1
  Ba  Ba1  1  0.61143000  0.09279500  0.05955800  1
  Ba  Ba2  1  0.88454300  0.88454300  0.45474600  1
  Ba  Ba3  1  0.38397100  0.38397100  0.44948400  1
  Ba  Ba4  1  0.11545700  0.11545700  0.54525400  1
  Ba  Ba5  1  0.61602900  0.61602900  0.55051600  1
  Ba  Ba6  1  0.90720500  0.38857000  0.94044200  1
  Ba  Ba7  1  0.38857000  0.90720500  0.94044200  1
  Ti  Ti0  1  0.49142100  0.49142100  0.11781700  1
  Ti  Ti1  1  0.98150000  0.98150000  0.12145700  1
  Ti  Ti2  1  0.13573400  0.13573400  0.16811700  1
  Ti  Ti3  1  0.64041500  0.64041500  0.16755100  1
  Ti  Ti4  1  0.26515000  0.26515000  0.24542200  1
  Ti  Ti5  1  0.23534200  0.73508000  0.26200800  1
  Ti  Ti6  1  0.73508000  0.23534200  0.26200800  1
  Ti  Ti7  1  0.86267600  0.37781300  0.32705100  1
  Ti  Ti8  1  0.37781300  0.86267600  0.32705100  1
  Ti  Ti9  1  0.99828400  0.52509300  0.37686100  1
  Ti  Ti10  1  0.52509300  0.99828400  0.37686100  1
  Ti  Ti11  1  0.00171600  0.47490700  0.62313900  1
  Ti  Ti12  1  0.47490700  0.00171600  0.62313900  1
  Ti  Ti13  1  0.13732400  0.62218700  0.67294900  1
  Ti  Ti14  1  0.62218700  0.13732400  0.67294900  1
  Ti  Ti15  1  0.76465800  0.26492000  0.73799200  1
  Ti  Ti16  1  0.26492000  0.76465800  0.73799200  1
  Ti  Ti17  1  0.73485000  0.73485000  0.75457800  1
  Ti  Ti18  1  0.86426600  0.86426600  0.83188300  1
  Ti  Ti19  1  0.35958500  0.35958500  0.83244900  1
  Ti  Ti20  1  0.50857900  0.50857900  0.88218300  1
  Ti  Ti21  1  0.01850000  0.01850000  0.87854300  1
  O  O0  1  0.50000000  0.50000000  0.00000000  1
  O  O1  1  0.00000000  0.00000000  0.00000000  1
  O  O2  1  0.60586300  0.60586300  0.07454000  1
  O  O3  1  0.11805800  0.11805800  0.07095200  1
  O  O4  1  0.24416800  0.24416800  0.13378400  1
  O  O5  1  0.74173100  0.74173100  0.10595100  1
  O  O6  1  0.87991300  0.87991300  0.15879500  1
  O  O7  1  0.37195000  0.37195000  0.17013400  1
  O  O8  1  0.24300900  0.73632300  0.13885100  1
  O  O9  1  0.73632300  0.24300900  0.13885100  1
  O  O10  1  0.86508100  0.36461800  0.20033300  1
  O  O11  1  0.36461800  0.86508100  0.20033300  1
  O  O12  1  0.00418900  0.48425500  0.26812700  1
  O  O13  1  0.48425500  0.00418900  0.26812700  1
  O  O14  1  0.49572500  0.49572500  0.24371000  1
  O  O15  1  0.00194200  0.00194200  0.23861900  1
  O  O16  1  0.13498800  0.13498800  0.30022600  1
  O  O17  1  0.62656700  0.62656700  0.29949400  1
  O  O18  1  0.26396100  0.26396100  0.36691200  1
  O  O19  1  0.76031300  0.76031300  0.38442900  1
  O  O20  1  0.12304400  0.63251100  0.33080300  1
  O  O21  1  0.63251100  0.12304400  0.33080300  1
  O  O22  1  0.25221800  0.76259500  0.36641200  1
  O  O23  1  0.76259500  0.25221800  0.36641200  1
  O  O24  1  0.88130000  0.39256400  0.42863000  1
  O  O25  1  0.39256400  0.88130000  0.42863000  1
  O  O26  1  0.00000000  0.50000000  0.50000000  1
  O  O27  1  0.50000000  0.00000000  0.50000000  1
  O  O28  1  0.11870000  0.60743600  0.57137000  1
  O  O29  1  0.60743600  0.11870000  0.57137000  1
  O  O30  1  0.74778200  0.23740500  0.63358800  1
  O  O31  1  0.23740500  0.74778200  0.63358800  1
  O  O32  1  0.87695600  0.36748900  0.66919700  1
  O  O33  1  0.36748900  0.87695600  0.66919700  1
  O  O34  1  0.73603900  0.73603900  0.63308800  1
  O  O35  1  0.23968700  0.23968700  0.61557100  1
  O  O36  1  0.86501200  0.86501200  0.69977400  1
  O  O37  1  0.37343300  0.37343300  0.70050600  1
  O  O38  1  0.99805800  0.99805800  0.76138100  1
  O  O39  1  0.50427500  0.50427500  0.75629000  1
  O  O40  1  0.99581100  0.51574500  0.73187300  1
  O  O41  1  0.51574500  0.99581100  0.73187300  1
  O  O42  1  0.63538200  0.13491900  0.79966700  1
  O  O43  1  0.13491900  0.63538200  0.79966700  1
  O  O44  1  0.75699100  0.26367700  0.86114900  1
  O  O45  1  0.26367700  0.75699100  0.86114900  1
  O  O46  1  0.12008700  0.12008700  0.84120500  1
  O  O47  1  0.62805000  0.62805000  0.82986600  1
  O  O48  1  0.75583200  0.75583200  0.86621600  1
  O  O49  1  0.25826900  0.25826900  0.89404900  1
  O  O50  1  0.88194200  0.88194200  0.92904800  1
  O  O51  1  0.39413700  0.39413700  0.92546000  1
loop_
_geom_bond_atom_site_label_1
_geom_bond_atom_site_label_2
_geom_bond_distance
_geom_bond_site_symmetry_2
Ba0 O5 2.652137 1_455
Ba0 O6 2.695076 1_455
Ba0 O50 2.758637 1_454
Ba0 O4 2.761744 1_555
Ba0 O7 2.867994 1_555
Ba0 O51 2.882279 1_554
Ba0 O1 3.128298 1_565
Ba0 O12 3.213422 1_555
Ba0 O0 3.219113 1_555
Ba0 O8 3.307373 1_555
Ba0 O45 3.389255 1_554
Ba1 O5 2.652137 1_545
Ba1 O6 2.695076 1_545
Ba1 O50 2.758637 1_544
Ba1 O4 2.761744 1_555
Ba1 O7 2.867994 1_555
Ba1 O51 2.882279 1_554
Ba1 O1 3.128298 1_655
Ba1 O13 3.213422 1_555
Ba1 O0 3.219113 1_555
Ba1 O9 3.307373 1_555
Ba1 O44 3.389255 1_554
Ba2 O29 2.706558 1_565
Ba2 O28 2.706558 1_655
Ba2 O21 2.862270 1_565
Ba2 O20 2.862270 1_655
Ba2 O23 2.874690 1_565
Ba2 O22 2.874690 1_655
Ba2 O19 2.970318 1_555
Ba2 O26 3.009657 1_655
Ba2 O27 3.009657 1_565
Ba2 O34 3.100344 1_555
Ba2 O15 3.345871 1_665
Ba3 O28 2.702696 1_555
Ba3 O29 2.702696 1_555
Ba3 O21 2.846772 1_555
Ba3 O20 2.846772 1_555
Ba3 O22 2.921425 1_555
Ba3 O23 2.921425 1_555
Ba3 O35 2.943026 1_555
Ba3 O26 2.995608 1_555
Ba3 O27 2.995608 1_555
Ba3 O18 3.047249 1_555
Ba3 O14 3.185515 1_555
Ba4 O24 2.706558 1_455
Ba4 O25 2.706558 1_545
Ba4 O33 2.862270 1_545
Ba4 O32 2.862270 1_455
Ba4 O31 2.874690 1_545
Ba4 O30 2.874690 1_455
Ba4 O35 2.970318 1_555
Ba4 O27 3.009657 1_555
Ba4 O26 3.009657 1_555
Ba4 O18 3.100344 1_555
Ba4 O38 3.345871 1_445
Ba5 O24 2.702696 1_555
Ba5 O25 2.702696 1_555
Ba5 O33 2.846772 1_555
Ba5 O32 2.846772 1_555
Ba5 O30 2.921425 1_555
Ba5 O31 2.921425 1_555
Ba5 O19 2.943026 1_555
Ba5 O26 2.995608 1_655
Ba5 O27 2.995608 1_565
Ba5 O34 3.047249 1_555
Ba5 O39 3.185515 1_555
Ba6 O49 2.652137 1_655
Ba6 O46 2.695076 1_655
Ba6 O3 2.758637 1_656
Ba6 O48 2.761744 1_555
Ba6 O47 2.867994 1_555
Ba6 O2 2.882279 1_556
Ba6 O1 3.128298 1_656
Ba6 O40 3.213422 1_555
Ba6 O0 3.219113 1_556
Ba6 O44 3.307373 1_555
Ba6 O9 3.389255 1_556
Ba7 O49 2.652137 1_565
Ba7 O46 2.695076 1_565
Ba7 O3 2.758637 1_566
Ba7 O48 2.761744 1_555
Ba7 O47 2.867994 1_555
Ba7 O2 2.882279 1_556
Ba7 O1 3.128298 1_566
Ba7 O41 3.213422 1_555
Ba7 O0 3.219113 1_556
Ba7 O45 3.307373 1_555
Ba7 O8 3.389255 1_556
O0 Ti0 1.898624 1_555
O0 Ti20 1.898624 1_554
O1 Ti1 1.903937 1_445
O1 Ti21 1.903937 1_554
O2 Ti3 1.899210 1_555
O2 Ti0 1.930285 1_555
O3 Ti2 1.774198 1_555
O3 Ti1 2.304849 1_445
O4 Ti2 1.840841 1_555
O4 Ti4 2.045429 1_555
O5 Ti3 1.722755 1_555
O6 Ti1 1.714938 1_555
O7 Ti4 1.849324 1_555
O7 Ti0 2.009425 1_555
O8 Ti0 1.969240 1_555
O8 Ti5 2.014740 1_555
O8 Ti1 2.028023 1_455
O9 Ti0 1.969240 1_555
O9 Ti6 2.014740 1_555
O9 Ti1 2.028023 1_545
O10 Ti2 2.031000 1_655
O10 Ti3 2.044936 1_555
O10 Ti7 2.149916 1_555
O10 Ti6 2.180458 1_555
O11 Ti2 2.031000 1_565
O11 Ti3 2.044936 1_555
O11 Ti8 2.149916 1_555
O11 Ti5 2.180458 1_555
O12 Ti4 1.932906 1_555
O12 Ti9 1.970525 1_455
O12 Ti7 2.089779 1_455
O13 Ti4 1.932906 1_555
O13 Ti10 1.970525 1_545
O13 Ti8 2.089779 1_545
O14 Ti6 1.986002 1_555
O14 Ti5 1.986002 1_555
O14 Ti0 2.126365 1_555
O14 Ti3 2.438959 1_555
O15 Ti6 2.004597 1_455
O15 Ti5 2.004597 1_545
O15 Ti1 2.130400 1_445
O15 Ti2 2.255348 1_555
O16 Ti8 2.068172 1_545
O16 Ti7 2.068172 1_455
O16 Ti2 2.190162 1_555
O16 Ti4 2.190217 1_555
O17 Ti7 1.953338 1_555
O17 Ti8 1.953338 1_555
O17 Ti3 2.100885 1_555
O18 Ti4 2.010365 1_555
O18 Ti9 2.077456 1_455
O18 Ti10 2.077456 1_545
O19 Ti10 1.864665 1_555
O19 Ti9 1.864665 1_555
O20 Ti5 1.836614 1_555
O20 Ti9 1.956809 1_455
O21 Ti6 1.836614 1_555
O21 Ti10 1.956809 1_545
O22 Ti8 1.910905 1_555
O22 Ti5 1.940434 1_555
O23 Ti7 1.910905 1_555
O23 Ti6 1.940434 1_555
O24 Ti7 1.836614 1_555
O24 Ti9 2.100630 1_555
O25 Ti8 1.836614 1_555
O25 Ti10 2.100630 1_555
O26 Ti11 1.970659 1_555
O26 Ti9 1.970659 1_455
O27 Ti12 1.970659 1_555
O27 Ti10 1.970659 1_545
O28 Ti13 1.836614 1_555
O28 Ti11 2.100630 1_555
O29 Ti14 1.836614 1_555
O29 Ti12 2.100630 1_555
O30 Ti14 1.910905 1_555
O30 Ti15 1.940434 1_555
O31 Ti13 1.910905 1_555
O31 Ti16 1.940434 1_555
O32 Ti15 1.836614 1_555
O32 Ti11 1.956809 1_655
O33 Ti16 1.836614 1_555
O33 Ti12 1.956809 1_565
O34 Ti17 2.010365 1_555
O34 Ti11 2.077456 1_655
O34 Ti12 2.077456 1_565
O35 Ti11 1.864665 1_555
O35 Ti12 1.864665 1_555
O36 Ti13 2.068172 1_655
O36 Ti14 2.068172 1_565
O36 Ti18 2.190162 1_555
O36 Ti17 2.190217 1_555
O37 Ti13 1.953338 1_555
O37 Ti14 1.953338 1_555
O37 Ti19 2.100885 1_555
O38 Ti15 2.004597 1_565
O38 Ti16 2.004597 1_655
O38 Ti21 2.130400 1_665
O38 Ti18 2.255348 1_555
O39 Ti15 1.986002 1_555
O39 Ti16 1.986002 1_555
O39 Ti20 2.126365 1_555
O39 Ti19 2.438959 1_555
O40 Ti17 1.932906 1_555
O40 Ti11 1.970525 1_655
O40 Ti13 2.089779 1_655
O41 Ti17 1.932906 1_555
O41 Ti12 1.970525 1_565
O41 Ti14 2.089779 1_565
O42 Ti18 2.031000 1_545
O42 Ti19 2.044936 1_555
O42 Ti14 2.149916 1_555
O42 Ti15 2.180458 1_555
O43 Ti18 2.031000 1_455
O43 Ti19 2.044936 1_555
O43 Ti13 2.149916 1_555
O43 Ti16 2.180458 1_555
O44 Ti20 1.969240 1_555
O44 Ti15 2.014740 1_555
O44 Ti21 2.028023 1_655
O45 Ti20 1.969240 1_555
O45 Ti16 2.014740 1_555
O45 Ti21 2.028023 1_565
O46 Ti21 1.714938 1_555
O47 Ti17 1.849324 1_555
O47 Ti20 2.009425 1_555
O48 Ti18 1.840841 1_555
O48 Ti17 2.045429 1_555
O49 Ti19 1.722755 1_555
O50 Ti18 1.774198 1_555
O50 Ti21 2.304849 1_665
O51 Ti19 1.899210 1_555
O51 Ti20 1.930285 1_555
