# generated using pymatgen
data_Li2(FeO2)3
_symmetry_space_group_name_H-M   'P 1'
_cell_length_a   4.85301052
_cell_length_b   4.85301052
_cell_length_c   10.30893650
_cell_angle_alpha   76.47529899
_cell_angle_beta   76.47529899
_cell_angle_gamma   60.00053820
_symmetry_Int_Tables_number   1
_chemical_formula_structural   Li2(FeO2)3
_chemical_formula_sum   'Li4 Fe6 O12'
_cell_volume   202.45430258
_cell_formula_units_Z   2
loop_
 _symmetry_equiv_pos_site_id
 _symmetry_equiv_pos_as_xyz
  1  'x, y, z'
loop_
 _atom_site_type_symbol
 _atom_site_label
 _atom_site_symmetry_multiplicity
 _atom_site_fract_x
 _atom_site_fract_y
 _atom_site_fract_z
 _atom_site_occupancy
  Li  Li0  1  0.08556800  0.90445000  0.25551900  1
  Li  Li1  1  0.57988000  0.73978300  0.75560900  1
  Li  Li2  1  0.90445000  0.08556800  0.75551900  1
  Li  Li3  1  0.73978300  0.57988000  0.25560900  1
  Fe  Fe0  1  0.33038500  0.49047700  0.50639800  1
  Fe  Fe1  1  0.16851200  0.01179900  0.99772600  1
  Fe  Fe2  1  0.65504900  0.84757000  0.49804600  1
  Fe  Fe3  1  0.49047700  0.33038500  0.00639800  1
  Fe  Fe4  1  0.01179900  0.16851200  0.49772600  1
  Fe  Fe5  1  0.84757000  0.65504900  0.99804600  1
  O  O0  1  0.54963100  0.02699200  0.89519100  1
  O  O1  1  0.70841800  0.20858100  0.39500500  1
  O  O2  1  0.95675200  0.80838000  0.60294500  1
  O  O3  1  0.46631700  0.63983300  0.10291500  1
  O  O4  1  0.85437400  0.36819000  0.89461400  1
  O  O5  1  0.02699200  0.54963100  0.39519100  1
  O  O6  1  0.29424900  0.12391300  0.61230900  1
  O  O7  1  0.80838000  0.95675200  0.10294500  1
  O  O8  1  0.20858100  0.70841800  0.89500500  1
  O  O9  1  0.36819000  0.85437400  0.39461400  1
  O  O10  1  0.63983300  0.46631700  0.60291500  1
  O  O11  1  0.12391300  0.29424900  0.11230900  1
loop_
_geom_bond_atom_site_label_1
_geom_bond_atom_site_label_2
_geom_bond_distance
_geom_bond_site_symmetry_2
Li0 O5 2.063366 1_555
Li0 O9 2.102374 1_555
Li0 O1 2.157879 1_465
Li0 O11 2.170251 1_565
Li0 O3 2.179628 1_555
Li0 O7 2.193031 1_455
Li1 O8 2.072666 1_555
Li1 O4 2.088540 1_555
Li1 O6 2.159782 1_565
Li1 O0 2.160913 1_565
Li1 O10 2.168072 1_555
Li1 O2 2.224919 1_555
Li2 O0 2.063366 1_555
Li2 O4 2.102374 1_555
Li2 O8 2.157879 1_645
Li2 O6 2.170251 1_655
Li2 O10 2.179628 1_555
Li2 O2 2.193031 1_545
Li3 O1 2.072666 1_555
Li3 O9 2.088540 1_555
Li3 O11 2.159782 1_655
Li3 O5 2.160913 1_655
Li3 O3 2.168072 1_555
Li3 O7 2.224919 1_555
Fe0 O6 1.923904 1_555
Fe0 O10 1.930613 1_555
Fe0 O2 1.932706 1_455
Fe0 O9 1.937423 1_555
Fe0 O5 1.943573 1_555
Fe0 O1 1.948236 1_555
Fe1 O11 1.913667 1_556
Fe1 O8 1.916638 1_545
Fe1 O4 1.925308 1_455
Fe1 O0 1.931101 1_555
Fe1 O3 1.931794 1_546
Fe1 O7 1.935750 1_446
Fe2 O6 1.917797 1_565
Fe2 O5 1.919665 1_655
Fe2 O9 1.925594 1_555
Fe2 O2 1.927510 1_555
Fe2 O1 1.928607 1_565
Fe2 O10 1.939393 1_555
Fe3 O11 1.923904 1_555
Fe3 O3 1.930613 1_555
Fe3 O7 1.932706 1_545
Fe3 O4 1.937423 1_554
Fe3 O0 1.943573 1_554
Fe3 O8 1.948236 1_554
Fe4 O6 1.913667 1_555
Fe4 O1 1.916638 1_455
Fe4 O9 1.925308 1_545
Fe4 O5 1.931101 1_555
Fe4 O10 1.931794 1_455
Fe4 O2 1.935750 1_445
Fe5 O11 1.917797 1_656
Fe5 O0 1.919665 1_565
Fe5 O4 1.925594 1_555
Fe5 O7 1.927510 1_556
Fe5 O8 1.928607 1_655
Fe5 O3 1.939393 1_556
