# generated using pymatgen
data_LiSnPO4
_symmetry_space_group_name_H-M   'P 1'
_cell_length_a   7.38777100
_cell_length_b   9.51006400
_cell_length_c   19.24558971
_cell_angle_alpha   60.75383156
_cell_angle_beta   90.00000000
_cell_angle_gamma   90.00000000
_symmetry_Int_Tables_number   1
_chemical_formula_structural   LiSnPO4
_chemical_formula_sum   'Li12 Sn12 P12 O48'
_cell_volume   1179.79839000
_cell_formula_units_Z   12
loop_
 _symmetry_equiv_pos_site_id
 _symmetry_equiv_pos_as_xyz
  1  'x, y, z'
loop_
 _atom_site_type_symbol
 _atom_site_label
 _atom_site_symmetry_multiplicity
 _atom_site_fract_x
 _atom_site_fract_y
 _atom_site_fract_z
 _atom_site_occupancy
  Li  Li0  1  0.06523900  0.70564500  0.57502600  1
  Li  Li1  1  0.93806200  0.33937800  0.91376800  1
  Li  Li2  1  0.22461900  0.00012100  0.24849600  1
  Li  Li3  1  0.72461900  0.99987900  0.25150400  1
  Li  Li4  1  0.43806200  0.66062200  0.58623200  1
  Li  Li5  1  0.56523900  0.29435500  0.92497400  1
  Li  Li6  1  0.43476100  0.70564500  0.07502600  1
  Li  Li7  1  0.56193800  0.33937800  0.41376800  1
  Li  Li8  1  0.27538100  0.00012100  0.74849600  1
  Li  Li9  1  0.77538100  0.99987900  0.75150400  1
  Li  Li10  1  0.06193800  0.66062200  0.08623200  1
  Li  Li11  1  0.93476100  0.29435500  0.42497400  1
  Sn  Sn0  1  0.78077400  0.93127700  0.10570800  1
  Sn  Sn1  1  0.71840000  0.37681100  0.71237900  1
  Sn  Sn2  1  0.76292400  0.69723500  0.43836500  1
  Sn  Sn3  1  0.26292400  0.30276500  0.06163500  1
  Sn  Sn4  1  0.21840000  0.62318900  0.78762100  1
  Sn  Sn5  1  0.28077400  0.06872300  0.39429200  1
  Sn  Sn6  1  0.71922600  0.93127700  0.60570800  1
  Sn  Sn7  1  0.78160000  0.37681100  0.21237900  1
  Sn  Sn8  1  0.73707600  0.69723500  0.93836500  1
  Sn  Sn9  1  0.23707600  0.30276500  0.56163500  1
  Sn  Sn10  1  0.28160000  0.62318900  0.28762100  1
  Sn  Sn11  1  0.21922600  0.06872300  0.89429200  1
  P  P0  1  0.30310300  0.96403000  0.08889700  1
  P  P1  1  0.18558400  0.36897300  0.73006400  1
  P  P2  1  0.28711200  0.68568100  0.43386000  1
  P  P3  1  0.78711200  0.31431900  0.06614000  1
  P  P4  1  0.68558400  0.63102700  0.76993600  1
  P  P5  1  0.80310300  0.03597000  0.41110300  1
  P  P6  1  0.19689700  0.96403000  0.58889700  1
  P  P7  1  0.31441600  0.36897300  0.23006400  1
  P  P8  1  0.21288800  0.68568100  0.93386000  1
  P  P9  1  0.71288800  0.31431900  0.56614000  1
  P  P10  1  0.81441600  0.63102700  0.26993600  1
  P  P11  1  0.69689700  0.03597000  0.91110300  1
  O  O0  1  0.50977100  0.12409200  0.88519800  1
  O  O1  1  0.69409400  0.46378800  0.58170100  1
  O  O2  1  0.81642800  0.14600300  0.92947900  1
  O  O3  1  0.78505200  0.81052200  0.24723500  1
  O  O4  1  0.14581400  0.64669000  0.49876600  1
  O  O5  1  0.00524000  0.43978100  0.68444900  1
  O  O6  1  0.17834100  0.36158100  0.81521000  1
  O  O7  1  0.22565800  0.00102700  0.15276400  1
  O  O8  1  0.47246600  0.71341900  0.46494900  1
  O  O9  1  0.32478700  0.13633400  0.01204200  1
  O  O10  1  0.23504200  0.83427800  0.35358600  1
  O  O11  1  0.33927000  0.47963300  0.67979700  1
  O  O12  1  0.73504200  0.16572200  0.14641400  1
  O  O13  1  0.83927000  0.52036700  0.82020300  1
  O  O14  1  0.82478700  0.86366600  0.48795800  1
  O  O15  1  0.97246600  0.28658100  0.03505100  1
  O  O16  1  0.72565800  0.99897300  0.34723600  1
  O  O17  1  0.67834100  0.63841900  0.68479000  1
  O  O18  1  0.50524000  0.56021900  0.81555100  1
  O  O19  1  0.28505200  0.18947800  0.25276500  1
  O  O20  1  0.64581400  0.35331000  0.00123400  1
  O  O21  1  0.31642800  0.85399700  0.57052100  1
  O  O22  1  0.19409400  0.53621200  0.91829900  1
  O  O23  1  0.00977100  0.87590800  0.61480200  1
  O  O24  1  0.99022900  0.12409200  0.38519800  1
  O  O25  1  0.80590600  0.46378800  0.08170100  1
  O  O26  1  0.68357200  0.14600300  0.42947900  1
  O  O27  1  0.35418600  0.64669000  0.99876600  1
  O  O28  1  0.71494800  0.81052200  0.74723500  1
  O  O29  1  0.49476000  0.43978100  0.18444900  1
  O  O30  1  0.32165900  0.36158100  0.31521000  1
  O  O31  1  0.27434200  0.00102700  0.65276400  1
  O  O32  1  0.02753400  0.71341900  0.96494900  1
  O  O33  1  0.17521300  0.13633400  0.51204200  1
  O  O34  1  0.16073000  0.47963300  0.17979700  1
  O  O35  1  0.26495800  0.83427800  0.85358600  1
  O  O36  1  0.66073000  0.52036700  0.32020300  1
  O  O37  1  0.76495800  0.16572200  0.64641400  1
  O  O38  1  0.67521300  0.86366600  0.98795800  1
  O  O39  1  0.52753400  0.28658100  0.53505100  1
  O  O40  1  0.77434200  0.99897300  0.84723600  1
  O  O41  1  0.82165900  0.63841900  0.18479000  1
  O  O42  1  0.99476000  0.56021900  0.31555100  1
  O  O43  1  0.85418600  0.35331000  0.50123400  1
  O  O44  1  0.21494800  0.18947800  0.75276500  1
  O  O45  1  0.18357200  0.85399700  0.07052100  1
  O  O46  1  0.30590600  0.53621200  0.41829900  1
  O  O47  1  0.49022900  0.87590800  0.11480200  1
loop_
_geom_bond_atom_site_label_1
_geom_bond_atom_site_label_2
_geom_bond_distance
_geom_bond_site_symmetry_2
Li0 O4 1.904414 1_555
Li0 O23 2.141718 1_555
Li0 O21 2.306984 1_555
Li0 O14 2.400269 1_455
Li0 O5 2.412738 1_555
Li1 O13 1.925960 1_555
Li1 O2 1.933270 1_555
Li1 O15 2.149382 1_556
Li1 O6 2.530253 1_655
Li2 O7 1.838241 1_555
Li2 O10 1.862014 1_545
Li2 O19 1.895658 1_555
Li3 O16 1.838241 1_555
Li3 O12 1.862014 1_565
Li3 O3 1.895658 1_555
Li4 O11 1.925960 1_555
Li4 O21 1.933270 1_555
Li4 O8 2.149382 1_555
Li4 O17 2.530253 1_555
Li5 O20 1.904414 1_556
Li5 O0 2.141718 1_555
Li5 O2 2.306984 1_555
Li5 O9 2.400269 1_556
Li5 O18 2.412738 1_555
Li6 O27 1.904414 1_554
Li6 O47 2.141718 1_555
Li6 O45 2.306984 1_555
Li6 O38 2.400269 1_554
Li6 O29 2.412738 1_555
Li7 O36 1.925960 1_555
Li7 O26 1.933270 1_555
Li7 O39 2.149382 1_555
Li7 O30 2.530253 1_555
Li8 O31 1.838241 1_555
Li8 O35 1.862014 1_545
Li8 O44 1.895658 1_555
Li9 O40 1.838241 1_555
Li9 O37 1.862014 1_565
Li9 O28 1.895658 1_555
Li10 O34 1.925960 1_555
Li10 O45 1.933270 1_555
Li10 O32 2.149382 1_554
Li10 O41 2.530253 1_455
Li11 O43 1.904414 1_555
Li11 O24 2.141718 1_555
Li11 O26 2.306984 1_555
Li11 O33 2.400269 1_655
Li11 O42 2.412738 1_555
O0 P11 1.566453 1_555
O0 Sn11 2.196640 1_555
O1 P9 1.595455 1_555
O1 Sn1 2.238044 1_555
O1 Sn2 2.610164 1_555
O2 P11 1.536713 1_555
O3 P10 1.556629 1_555
O3 Sn0 2.383763 1_555
O4 P2 1.528059 1_555
O5 P1 1.556159 1_555
O5 Sn1 2.196279 1_455
O6 P1 1.606403 1_555
O6 Sn4 2.295304 1_555
O6 Sn11 2.454084 1_555
O7 P0 1.544200 1_545
O7 Sn3 2.543313 1_555
O8 P2 1.567459 1_555
O8 Sn2 2.228679 1_555
O9 P0 1.590680 1_545
O9 Sn3 2.258565 1_555
O9 Sn11 2.753346 1_554
O10 P2 1.548712 1_555
O10 Sn5 2.721336 1_565
O11 P1 1.528963 1_555
O12 P3 1.548712 1_555
O12 Sn0 2.721336 1_545
O13 P4 1.528963 1_555
O14 P5 1.590680 1_565
O14 Sn2 2.258565 1_555
O14 Sn6 2.753346 1_555
O15 P3 1.567459 1_555
O15 Sn3 2.228679 1_655
O16 P5 1.544200 1_565
O16 Sn2 2.543313 1_555
O17 P4 1.606403 1_555
O17 Sn1 2.295304 1_555
O17 Sn6 2.454084 1_555
O18 P4 1.556159 1_555
O18 Sn4 2.196279 1_555
O19 P7 1.556629 1_555
O19 Sn5 2.383763 1_555
O20 P3 1.528059 1_555
O21 P6 1.536713 1_555
O22 P8 1.595455 1_555
O22 Sn4 2.238044 1_555
O22 Sn3 2.610164 1_556
O23 P6 1.566453 1_555
O23 Sn6 2.196640 1_455
O24 P5 1.566453 1_555
O24 Sn5 2.196640 1_655
O25 P3 1.595455 1_555
O25 Sn7 2.238044 1_555
O25 Sn8 2.610164 1_554
O26 P5 1.536713 1_555
O27 P8 1.528059 1_555
O28 P4 1.556629 1_555
O28 Sn6 2.383763 1_555
O29 P7 1.556159 1_555
O29 Sn7 2.196279 1_555
O30 P7 1.606403 1_555
O30 Sn10 2.295304 1_555
O30 Sn5 2.454084 1_555
O31 P6 1.544200 1_545
O31 Sn9 2.543313 1_555
O32 P8 1.567459 1_555
O32 Sn8 2.228679 1_455
O33 P6 1.590680 1_545
O33 Sn9 2.258565 1_555
O33 Sn5 2.753346 1_555
O34 P7 1.528963 1_555
O35 P8 1.548712 1_555
O35 Sn11 2.721336 1_565
O36 P10 1.528963 1_555
O37 P9 1.548712 1_555
O37 Sn6 2.721336 1_545
O38 P11 1.590680 1_565
O38 Sn8 2.258565 1_555
O38 Sn0 2.753346 1_556
O39 P9 1.567459 1_555
O39 Sn9 2.228679 1_555
O40 P11 1.544200 1_565
O40 Sn8 2.543313 1_555
O41 P10 1.606403 1_555
O41 Sn7 2.295304 1_555
O41 Sn0 2.454084 1_555
O42 P10 1.556159 1_555
O42 Sn10 2.196279 1_655
O43 P9 1.528059 1_555
O44 P1 1.556629 1_555
O44 Sn11 2.383763 1_555
O45 P0 1.536713 1_555
O46 P2 1.595455 1_555
O46 Sn10 2.238044 1_555
O46 Sn9 2.610164 1_555
O47 P0 1.566453 1_555
O47 Sn0 2.196640 1_555
