# generated using pymatgen
data_KLi2Sb(PO4)2
_symmetry_space_group_name_H-M   'P 1'
_cell_length_a   10.19354500
_cell_length_b   10.20889493
_cell_length_c   13.51596340
_cell_angle_alpha   111.46445372
_cell_angle_beta   79.93803238
_cell_angle_gamma   119.41126221
_symmetry_Int_Tables_number   1
_chemical_formula_structural   KLi2Sb(PO4)2
_chemical_formula_sum   'K6 Li12 Sb6 P12 O48'
_cell_volume   1140.25861123
_cell_formula_units_Z   6
loop_
 _symmetry_equiv_pos_site_id
 _symmetry_equiv_pos_as_xyz
  1  'x, y, z'
loop_
 _atom_site_type_symbol
 _atom_site_label
 _atom_site_symmetry_multiplicity
 _atom_site_fract_x
 _atom_site_fract_y
 _atom_site_fract_z
 _atom_site_occupancy
  K  K0  1  0.49812700  0.00213400  0.99915400  1
  K  K1  1  0.66718100  0.50209200  0.33541300  1
  K  K2  1  0.00337800  0.48685200  0.98470100  1
  K  K3  1  0.83826200  0.03223200  0.66801500  1
  K  K4  1  0.16582100  0.99810300  0.33334000  1
  K  K5  1  0.30242100  0.49871500  0.66978600  1
  Li  Li0  1  0.68688300  0.61407300  0.59949200  1
  Li  Li1  1  0.64936100  0.38873800  0.07348200  1
  Li  Li2  1  0.48157700  0.88701400  0.74246000  1
  Li  Li3  1  0.01778000  0.61152900  0.25613500  1
  Li  Li4  1  0.84204900  0.10893500  0.92138000  1
  Li  Li5  1  0.81551400  0.88417800  0.40715600  1
  Li  Li6  1  0.18162500  0.11344300  0.59074200  1
  Li  Li7  1  0.82698100  0.62649800  0.91625500  1
  Li  Li8  1  0.14720900  0.88691300  0.07440700  1
  Li  Li9  1  0.51755900  0.11413300  0.25942000  1
  Li  Li10  1  0.35135300  0.61743400  0.92083000  1
  Li  Li11  1  0.32045000  0.38833800  0.40813800  1
  Sb  Sb0  1  0.00508400  0.01524500  0.00293600  1
  Sb  Sb1  1  0.16614400  0.50177600  0.33573100  1
  Sb  Sb2  1  0.48536300  0.50084300  0.00655700  1
  Sb  Sb3  1  0.33219300  0.00043100  0.66567700  1
  Sb  Sb4  1  0.66534300  0.99610300  0.33197700  1
  Sb  Sb5  1  0.84235600  0.48141700  0.66068100  1
  P  P0  1  0.33576200  0.24850100  0.16871500  1
  P  P1  1  0.83145600  0.25536700  0.16523300  1
  P  P2  1  0.50504700  0.74649300  0.50288400  1
  P  P3  1  0.83317200  0.74084300  0.16683500  1
  P  P4  1  0.99751100  0.75235600  0.49907200  1
  P  P5  1  0.66630800  0.24974900  0.83067900  1
  P  P6  1  0.32910500  0.75238500  0.16486700  1
  P  P7  1  0.00417400  0.24726000  0.49397600  1
  P  P8  1  0.16993800  0.24890600  0.83447600  1
  P  P9  1  0.49831800  0.24953900  0.49866500  1
  P  P10  1  0.16522200  0.75759900  0.84051000  1
  P  P11  1  0.66317200  0.75235800  0.83345700  1
  O  O0  1  0.41730500  0.18318600  0.20708400  1
  O  O1  1  0.33720900  0.39748700  0.25900400  1
  O  O2  1  0.18002900  0.91307500  0.93129700  1
  O  O3  1  0.41973900  0.29424100  0.06809400  1
  O  O4  1  0.24828400  0.79436000  0.73785100  1
  O  O5  1  0.33968500  0.61101300  0.47037400  1
  O  O6  1  0.74919100  0.31669300  0.12362800  1
  O  O7  1  0.58744300  0.68115100  0.54019100  1
  O  O8  1  0.50377000  0.89280800  0.59483800  1
  O  O9  1  0.59040800  0.79718700  0.40368600  1
  O  O10  1  0.66869100  0.60412400  0.14285200  1
  O  O11  1  0.49907900  0.11729500  0.81047800  1
  O  O12  1  0.99542900  0.39046700  0.19851100  1
  O  O13  1  0.82609800  0.89334500  0.86748700  1
  O  O14  1  0.91135200  0.69876900  0.59475200  1
  O  O15  1  0.00482200  0.60797400  0.40585300  1
  O  O16  1  0.92446200  0.69102400  0.21007900  1
  O  O17  1  0.91717100  0.81533900  0.45686700  1
  O  O18  1  0.75085400  0.19034100  0.87250800  1
  O  O19  1  0.83478400  0.89451700  0.25245400  1
  O  O20  1  0.67983700  0.40940200  0.91840600  1
  O  O21  1  0.90868800  0.77238700  0.05983100  1
  O  O22  1  0.73665000  0.28188500  0.72438500  1
  O  O23  1  0.84020500  0.10864600  0.46583400  1
  O  O24  1  0.16151700  0.89139100  0.53237600  1
  O  O25  1  0.24413700  0.70375300  0.26317100  1
  O  O26  1  0.08475500  0.20184800  0.93569600  1
  O  O27  1  0.32818700  0.60157600  0.07242800  1
  O  O28  1  0.17449300  0.10150400  0.74547500  1
  O  O29  1  0.24770400  0.81322500  0.12248800  1
  O  O30  1  0.08813500  0.19511100  0.54269200  1
  O  O31  1  0.08631600  0.30908900  0.79459400  1
  O  O32  1  0.00137400  0.40210300  0.57422600  1
  O  O33  1  0.09088800  0.28619800  0.39271900  1
  O  O34  1  0.16961500  0.11420600  0.13827900  1
  O  O35  1  0.99290000  0.63924200  0.81895900  1
  O  O36  1  0.49423600  0.88576300  0.19487500  1
  O  O37  1  0.33374500  0.38689200  0.86975900  1
  O  O38  1  0.40552400  0.20082700  0.59603000  1
  O  O39  1  0.50082000  0.10066000  0.40804600  1
  O  O40  1  0.42025300  0.31238200  0.45449100  1
  O  O41  1  0.24022600  0.68506700  0.87853900  1
  O  O42  1  0.66270000  0.38243200  0.53303600  1
  O  O43  1  0.74302200  0.20252800  0.26197900  1
  O  O44  1  0.57768700  0.70504900  0.93413800  1
  O  O45  1  0.83695200  0.11044100  0.07222800  1
  O  O46  1  0.67134000  0.60685000  0.74772800  1
  O  O47  1  0.57675300  0.81135500  0.79329800  1
loop_
_geom_bond_atom_site_label_1
_geom_bond_atom_site_label_2
_geom_bond_distance
_geom_bond_site_symmetry_2
K0 O0 2.979641 1_556
K0 O47 2.994183 1_545
K0 O29 3.007513 1_546
K0 O6 3.028425 1_556
K0 O18 3.043538 1_555
K0 O41 3.053593 1_545
K0 O2 3.116942 1_545
K0 O11 3.171719 1_555
K0 O3 3.232050 1_556
K0 O36 3.260053 1_546
K0 O45 3.281617 1_556
K0 O44 3.293131 1_545
K1 O7 2.938235 1_555
K1 O40 2.958835 1_555
K1 O17 3.005197 1_555
K1 O6 3.037733 1_555
K1 O16 3.055915 1_555
K1 O0 3.059769 1_555
K1 O10 3.132620 1_555
K1 O1 3.224823 1_555
K1 O9 3.250905 1_555
K1 O15 3.264731 1_655
K1 O43 3.281462 1_555
K1 O42 3.304471 1_555
K2 O31 2.818785 1_555
K2 O41 2.845833 1_555
K2 O18 2.905216 1_455
K2 O6 3.086029 1_456
K2 O29 3.114814 1_556
K2 O35 3.201157 1_455
K2 O20 3.202818 1_455
K2 O27 3.207326 1_556
K2 O26 3.218779 1_555
K2 O16 3.227197 1_456
K2 O21 3.273322 1_456
K2 O12 3.353646 1_456
K3 O31 2.874489 1_655
K3 O18 2.885396 1_555
K3 O30 2.918182 1_655
K3 O22 3.007492 1_555
K3 O23 3.098787 1_555
K3 O8 3.164098 1_545
K3 O17 3.164948 1_545
K3 O47 3.220471 1_545
K3 O7 3.221711 1_545
K4 O16 2.948083 1_455
K4 O17 2.974812 1_455
K4 O0 3.021210 1_565
K4 O29 3.026596 1_555
K4 O40 3.027914 1_565
K4 O30 3.048790 1_565
K4 O33 3.184736 1_565
K4 O24 3.237647 1_555
K4 O34 3.250156 1_565
K4 O25 3.251548 1_555
K4 O19 3.261680 1_455
K4 O39 3.270542 1_565
K5 O30 2.844994 1_555
K5 O31 2.889462 1_555
K5 O41 2.934837 1_555
K5 O32 3.088385 1_555
K5 O4 3.112369 1_555
K5 O47 3.124030 1_555
K5 O5 3.193567 1_555
K5 O7 3.205123 1_555
K5 O40 3.240460 1_555
Li0 O7 1.872475 1_555
Li0 O46 2.007608 1_555
Li0 O14 2.008353 1_555
Li0 O42 2.100034 1_555
Li1 O6 1.837613 1_555
Li1 O10 1.970555 1_555
Li1 O3 2.050625 1_555
Li1 O20 2.136806 1_554
Li2 O47 1.835027 1_555
Li2 O8 1.987768 1_555
Li2 O4 2.086445 1_555
Li2 O11 2.113636 1_565
Li3 O16 1.812681 1_455
Li3 O12 2.005564 1_455
Li3 O15 2.017249 1_555
Li3 O25 2.024103 1_555
Li4 O18 1.834733 1_555
Li4 O13 1.979332 1_545
Li4 O45 2.025018 1_556
Li4 O26 2.187724 1_655
Li5 O17 1.822972 1_555
Li5 O9 2.015412 1_555
Li5 O23 2.029000 1_565
Li5 O19 2.102242 1_555
Li6 O30 1.848783 1_555
Li6 O38 2.005138 1_555
Li6 O24 2.023505 1_545
Li6 O28 2.125717 1_555
Li7 O35 1.933574 1_555
Li7 O21 1.977107 1_556
Li7 O20 1.982323 1_555
Li8 O29 1.839811 1_555
Li8 O2 1.997214 1_554
Li8 O34 2.064968 1_565
Li8 O21 2.127018 1_455
Li9 O0 1.834888 1_555
Li9 O43 2.016320 1_555
Li9 O39 2.035386 1_555
Li9 O36 2.071865 1_545
Li10 O41 1.835733 1_555
Li10 O44 2.038575 1_555
Li10 O27 2.077617 1_556
Li10 O37 2.118361 1_555
Li11 O40 1.838978 1_555
Li11 O1 2.025512 1_555
Li11 O5 2.033266 1_555
Li11 O33 2.054613 1_555
O0 P0 1.533791 1_555
O1 P0 1.558429 1_555
O1 Sb1 2.373426 1_555
O2 P10 1.565838 1_555
O2 Sb0 2.385383 1_566
O3 P0 1.570278 1_555
O3 Sb2 2.300349 1_555
O4 P10 1.562526 1_555
O4 Sb3 2.356280 1_565
O5 P2 1.572144 1_555
O5 Sb1 2.320964 1_555
O6 P1 1.532790 1_555
O7 P2 1.532682 1_555
O8 P2 1.559109 1_555
O8 Sb3 2.390631 1_565
O9 P2 1.574953 1_555
O9 Sb4 2.303236 1_555
O10 P3 1.557151 1_555
O10 Sb2 2.417384 1_555
O11 P5 1.561217 1_555
O11 Sb3 2.368302 1_555
O12 P1 1.562972 1_555
O12 Sb1 2.324332 1_655
O13 P11 1.573567 1_555
O13 Sb0 2.344961 1_666
O14 P4 1.546613 1_555
O14 Sb5 2.430565 1_555
O15 P4 1.575300 1_455
O15 Sb1 2.287420 1_555
O16 P3 1.529279 1_555
O17 P4 1.535695 1_555
O18 P5 1.537775 1_555
O19 P3 1.566319 1_555
O19 Sb4 2.347091 1_555
O20 P5 1.582238 1_555
O20 Sb2 2.529637 1_556
O21 P3 1.579969 1_555
O21 Sb0 2.538193 1_665
O22 P5 1.561961 1_555
O22 Sb5 2.203509 1_555
O23 P7 1.563988 1_655
O23 Sb4 2.316173 1_545
O24 P4 1.573849 1_455
O24 Sb3 2.288562 1_565
O25 P6 1.555747 1_555
O25 Sb1 2.333026 1_555
O26 P8 1.585128 1_555
O26 Sb0 2.145741 1_556
O27 P6 1.585438 1_555
O27 Sb2 2.206110 1_555
O28 P8 1.561406 1_555
O28 Sb3 2.240736 1_555
O29 P6 1.528070 1_555
O30 P7 1.533118 1_555
O31 P8 1.520512 1_555
O32 P7 1.566785 1_555
O32 Sb5 2.140875 1_455
O33 P7 1.562915 1_555
O33 Sb1 2.324073 1_555
O34 P0 1.570803 1_555
O34 Sb0 2.288052 1_555
O35 P10 1.570670 1_655
O35 Sb5 2.392410 1_555
O36 P6 1.560530 1_555
O36 Sb4 2.327443 1_555
O37 P8 1.573646 1_555
O37 Sb2 2.195252 1_556
O38 P9 1.567107 1_555
O38 Sb3 2.300403 1_555
O39 P9 1.573414 1_555
O39 Sb4 2.315495 1_545
O40 P9 1.532665 1_555
O41 P10 1.539132 1_555
O42 P9 1.562749 1_555
O42 Sb5 2.315586 1_555
O43 P1 1.562115 1_555
O43 Sb4 2.349802 1_545
O44 P11 1.580401 1_555
O44 Sb2 2.331174 1_556
O45 P1 1.570991 1_555
O45 Sb0 2.273284 1_655
O46 P11 1.544105 1_555
O46 Sb5 2.536952 1_555
O47 P11 1.536497 1_555
