# generated using pymatgen
data_BSbO3
_symmetry_space_group_name_H-M   'P 1'
_cell_length_a   5.02064034
_cell_length_b   5.02064034
_cell_length_c   13.02491185
_cell_angle_alpha   82.23303087
_cell_angle_beta   82.23303087
_cell_angle_gamma   102.27836135
_symmetry_Int_Tables_number   1
_chemical_formula_structural   BSbO3
_chemical_formula_sum   'B4 Sb4 O12'
_cell_volume   313.27662354
_cell_formula_units_Z   4
loop_
 _symmetry_equiv_pos_site_id
 _symmetry_equiv_pos_as_xyz
  1  'x, y, z'
loop_
 _atom_site_type_symbol
 _atom_site_label
 _atom_site_symmetry_multiplicity
 _atom_site_fract_x
 _atom_site_fract_y
 _atom_site_fract_z
 _atom_site_occupancy
  B  B0  1  0.93753100  0.34357500  0.35280200  1
  B  B1  1  0.65642500  0.06246900  0.14719800  1
  B  B2  1  0.34357500  0.93753100  0.85280200  1
  B  B3  1  0.06246900  0.65642500  0.64719800  1
  Sb  Sb0  1  0.66707800  0.01472500  0.62841500  1
  Sb  Sb1  1  0.01472500  0.66707800  0.12841500  1
  Sb  Sb2  1  0.33292200  0.98527500  0.37158500  1
  Sb  Sb3  1  0.98527500  0.33292200  0.87158500  1
  O  O0  1  0.87281700  0.28458100  0.09676000  1
  O  O1  1  0.71541900  0.12718300  0.40324000  1
  O  O2  1  0.89800800  0.56257000  0.28574300  1
  O  O3  1  0.43743000  0.10199200  0.21425700  1
  O  O4  1  0.79861100  0.66322400  0.62585600  1
  O  O5  1  0.66322400  0.79861100  0.12585600  1
  O  O6  1  0.33677600  0.20138900  0.87414400  1
  O  O7  1  0.20138900  0.33677600  0.37414400  1
  O  O8  1  0.56257000  0.89800800  0.78574300  1
  O  O9  1  0.10199200  0.43743000  0.71425700  1
  O  O10  1  0.28458100  0.87281700  0.59676000  1
  O  O11  1  0.12718300  0.71541900  0.90324000  1
loop_
_geom_bond_atom_site_label_1
_geom_bond_atom_site_label_2
_geom_bond_distance
_geom_bond_site_symmetry_2
B0 O2 1.375219 1_555
B0 O1 1.396152 1_555
B0 O7 1.396268 1_655
B1 O3 1.375219 1_555
B1 O0 1.396152 1_555
B1 O5 1.396268 1_545
B2 O8 1.375219 1_555
B2 O11 1.396152 1_555
B2 O6 1.396268 1_565
B3 O9 1.375219 1_555
B3 O10 1.396152 1_555
B3 O4 1.396268 1_455
O0 Sb1 2.019144 1_655
O1 Sb2 2.019144 1_545
O2 Sb1 2.017894 1_655
O3 Sb2 2.017894 1_545
O4 Sb0 2.014253 1_565
O5 Sb1 2.014253 1_655
O6 Sb3 2.014253 1_455
O7 Sb2 2.014253 1_545
O8 Sb0 2.017894 1_565
O9 Sb3 2.017894 1_455
O10 Sb0 2.019144 1_565
O11 Sb3 2.019144 1_455
