# generated using pymatgen
data_Na3Ni2P2(CO7)2
_symmetry_space_group_name_H-M   'P 1'
_cell_length_a   6.50215600
_cell_length_b   10.22929700
_cell_length_c   10.30303751
_cell_angle_alpha   61.52371810
_cell_angle_beta   90.00000000
_cell_angle_gamma   90.00000000
_symmetry_Int_Tables_number   1
_chemical_formula_structural   Na3Ni2P2(CO7)2
_chemical_formula_sum   'Na6 Ni4 P4 C4 O28'
_cell_volume   602.37164942
_cell_formula_units_Z   2
loop_
 _symmetry_equiv_pos_site_id
 _symmetry_equiv_pos_as_xyz
  1  'x, y, z'
loop_
 _atom_site_type_symbol
 _atom_site_label
 _atom_site_symmetry_multiplicity
 _atom_site_fract_x
 _atom_site_fract_y
 _atom_site_fract_z
 _atom_site_occupancy
  Na  Na0  1  0.53734200  0.24850700  0.75743400  1
  Na  Na1  1  0.01224200  0.75449500  0.74221100  1
  Na  Na2  1  0.48470000  0.75168300  0.74831100  1
  Na  Na3  1  0.98470000  0.24831700  0.25168900  1
  Na  Na4  1  0.51224200  0.24550500  0.25778900  1
  Na  Na5  1  0.03734200  0.75149300  0.24256600  1
  Ni  Ni0  1  0.24395600  0.34513100  0.93212700  1
  Ni  Ni1  1  0.74491900  0.64895200  0.56493500  1
  Ni  Ni2  1  0.24491900  0.35104800  0.43506500  1
  Ni  Ni3  1  0.74395600  0.65486900  0.06787300  1
  P  P0  1  0.74778600  0.42516500  0.93225800  1
  P  P1  1  0.24661800  0.56948200  0.57630800  1
  P  P2  1  0.74661800  0.43051800  0.42369200  1
  P  P3  1  0.24778600  0.57483500  0.06774200  1
  C  C0  1  0.75505400  0.92177700  0.89558900  1
  C  C1  1  0.74980500  0.91855200  0.39920800  1
  C  C2  1  0.24980500  0.08144800  0.60079200  1
  C  C3  1  0.25505400  0.07822300  0.10441100  1
  O  O0  1  0.25717200  0.13278800  0.96229400  1
  O  O1  1  0.93558000  0.32474000  0.95349800  1
  O  O2  1  0.56097400  0.32729900  0.94154400  1
  O  O3  1  0.25440800  0.41931300  0.71929500  1
  O  O4  1  0.74015300  0.46284300  0.55679000  1
  O  O5  1  0.24042700  0.53919100  0.93542200  1
  O  O6  1  0.75036900  0.57368400  0.78619300  1
  O  O7  1  0.05930400  0.66729600  0.56731700  1
  O  O8  1  0.43309200  0.66828200  0.56709900  1
  O  O9  1  0.75195900  0.81873900  0.85360100  1
  O  O10  1  0.75551700  0.82010800  0.35361400  1
  O  O11  1  0.74438900  0.85824300  0.54332700  1
  O  O12  1  0.24985600  0.94301400  0.68487700  1
  O  O13  1  0.25422400  0.94235000  0.19476400  1
  O  O14  1  0.75422400  0.05765000  0.80523600  1
  O  O15  1  0.74985600  0.05698600  0.31512300  1
  O  O16  1  0.24438900  0.14175700  0.45667300  1
  O  O17  1  0.25551700  0.17989200  0.64638600  1
  O  O18  1  0.25195900  0.18126100  0.14639900  1
  O  O19  1  0.93309200  0.33171800  0.43290100  1
  O  O20  1  0.55930400  0.33270400  0.43268300  1
  O  O21  1  0.25036900  0.42631600  0.21380700  1
  O  O22  1  0.74042700  0.46080900  0.06457800  1
  O  O23  1  0.24015300  0.53715700  0.44321000  1
  O  O24  1  0.75440800  0.58068700  0.28070500  1
  O  O25  1  0.43558000  0.67526000  0.04650200  1
  O  O26  1  0.06097400  0.67270100  0.05845600  1
  O  O27  1  0.75717200  0.86721200  0.03770600  1
loop_
_geom_bond_atom_site_label_1
_geom_bond_atom_site_label_2
_geom_bond_distance
_geom_bond_site_symmetry_2
Na0 O14 2.264050 1_555
Na0 O2 2.393604 1_555
Na0 O17 2.434215 1_555
Na0 O3 2.436581 1_555
Na0 O4 2.549015 1_555
Na0 O0 2.606202 1_555
Na1 O9 2.309201 1_455
Na1 O12 2.317001 1_555
Na1 O7 2.380959 1_555
Na1 O6 2.392977 1_455
Na1 O11 2.506922 1_455
Na1 O5 2.614174 1_555
Na2 O12 2.317247 1_555
Na2 O9 2.318770 1_555
Na2 O6 2.402909 1_555
Na2 O8 2.417677 1_555
Na2 O11 2.510864 1_555
Na2 O5 2.639694 1_555
Na2 O25 2.803875 1_556
Na3 O15 2.317247 1_555
Na3 O18 2.318770 1_655
Na3 O21 2.402909 1_655
Na3 O19 2.417677 1_555
Na3 O16 2.510864 1_655
Na3 O22 2.639694 1_555
Na3 O1 2.803875 1_554
Na4 O18 2.309201 1_555
Na4 O15 2.317001 1_555
Na4 O20 2.380959 1_555
Na4 O21 2.392977 1_555
Na4 O16 2.506922 1_555
Na4 O22 2.614174 1_555
Na5 O13 2.264050 1_555
Na5 O26 2.393604 1_555
Na5 O10 2.434215 1_455
Na5 O24 2.436581 1_455
Na5 O23 2.549015 1_555
Na5 O27 2.606202 1_455
Ni0 O3 1.949906 1_555
Ni0 O5 2.001638 1_555
Ni0 O1 2.017091 1_455
Ni0 O18 2.038982 1_556
Ni0 O0 2.044090 1_555
Ni0 O2 2.067552 1_555
Ni1 O4 1.945422 1_555
Ni1 O6 2.029053 1_555
Ni1 O8 2.038320 1_555
Ni1 O10 2.043392 1_555
Ni1 O11 2.044144 1_555
Ni1 O7 2.053991 1_655
Ni2 O23 1.945422 1_555
Ni2 O21 2.029053 1_555
Ni2 O19 2.038320 1_455
Ni2 O17 2.043392 1_555
Ni2 O16 2.044144 1_555
Ni2 O20 2.053991 1_555
Ni3 O24 1.949906 1_555
Ni3 O22 2.001638 1_555
Ni3 O25 2.017091 1_555
Ni3 O9 2.038982 1_554
Ni3 O27 2.044090 1_555
Ni3 O26 2.067552 1_655
C0 O14 1.250837 1_565
C0 O27 1.294748 1_556
C0 O9 1.316543 1_555
C1 O15 1.259349 1_565
C1 O10 1.298931 1_555
C1 O11 1.308863 1_555
C2 O12 1.259349 1_545
C2 O17 1.298931 1_555
C2 O16 1.308863 1_555
C3 O13 1.250837 1_545
C3 O0 1.294748 1_554
C3 O18 1.316543 1_555
O1 P0 1.542666 1_555
O2 P0 1.547731 1_555
O3 P1 1.540964 1_555
O4 P2 1.556921 1_555
O5 P3 1.570930 1_556
O6 P0 1.546909 1_555
O7 P1 1.550717 1_555
O8 P1 1.552127 1_555
O19 P2 1.552127 1_555
O20 P2 1.550717 1_555
O21 P3 1.546909 1_555
O22 P0 1.570930 1_554
O23 P1 1.556921 1_555
O24 P2 1.540964 1_555
O25 P3 1.542666 1_555
O26 P3 1.547731 1_555
