# generated using pymatgen
data_LiCu2(PO3)5
_symmetry_space_group_name_H-M   'P 1'
_cell_length_a   8.92785700
_cell_length_b   5.62101200
_cell_length_c   13.36082990
_cell_angle_alpha   65.64531535
_cell_angle_beta   90.00000000
_cell_angle_gamma   90.00000000
_symmetry_Int_Tables_number   1
_chemical_formula_structural   LiCu2(PO3)5
_chemical_formula_sum   'Li2 Cu4 P10 O30'
_cell_volume   610.82719633
_cell_formula_units_Z   2
loop_
 _symmetry_equiv_pos_site_id
 _symmetry_equiv_pos_as_xyz
  1  'x, y, z'
loop_
 _atom_site_type_symbol
 _atom_site_label
 _atom_site_symmetry_multiplicity
 _atom_site_fract_x
 _atom_site_fract_y
 _atom_site_fract_z
 _atom_site_occupancy
  Li  Li0  1  0.98916900  0.09432200  0.46250700  1
  Li  Li1  1  0.01083100  0.09432200  0.96250700  1
  Cu  Cu0  1  0.30278600  0.13897400  0.06905000  1
  Cu  Cu1  1  0.29607600  0.86954000  0.43686300  1
  Cu  Cu2  1  0.69721400  0.13897400  0.56905000  1
  Cu  Cu3  1  0.70392400  0.86954000  0.93686300  1
  P  P0  1  0.82508200  0.32179400  0.08540700  1
  P  P1  1  0.53279000  0.45879200  0.14426400  1
  P  P2  1  0.05214400  0.00236600  0.24976600  1
  P  P3  1  0.53202400  0.54152300  0.35773000  1
  P  P4  1  0.83006000  0.67347900  0.41304800  1
  P  P5  1  0.17491800  0.32179400  0.58540700  1
  P  P6  1  0.46721000  0.45879200  0.64426400  1
  P  P7  1  0.94785600  0.00236600  0.74976600  1
  P  P8  1  0.46797600  0.54152300  0.85773000  1
  P  P9  1  0.16994000  0.67347900  0.91304800  1
  O  O0  1  0.83629500  0.14501900  0.02786000  1
  O  O1  1  0.85064700  0.61152100  0.02720200  1
  O  O2  1  0.54395700  0.72077900  0.04548600  1
  O  O3  1  0.66281500  0.26366500  0.14351900  1
  O  O4  1  0.14519700  0.94103900  0.16933000  1
  O  O5  1  0.38732200  0.31227600  0.16394400  1
  O  O6  1  0.93801700  0.23905700  0.19022900  1
  O  O7  1  0.57994000  0.49537600  0.25184300  1
  O  O8  1  0.94083100  0.75935100  0.30714500  1
  O  O9  1  0.38880100  0.69107900  0.33750700  1
  O  O10  1  0.13191400  0.06867100  0.33567400  1
  O  O11  1  0.66600900  0.73097800  0.35791000  1
  O  O12  1  0.54240400  0.27945800  0.45707400  1
  O  O13  1  0.85425000  0.38115700  0.46809000  1
  O  O14  1  0.84300100  0.84438500  0.47295200  1
  O  O15  1  0.16370500  0.14501900  0.52786000  1
  O  O16  1  0.14935300  0.61152100  0.52720200  1
  O  O17  1  0.45604300  0.72077900  0.54548600  1
  O  O18  1  0.33718500  0.26366500  0.64351900  1
  O  O19  1  0.85480300  0.94103900  0.66933000  1
  O  O20  1  0.61267800  0.31227600  0.66394400  1
  O  O21  1  0.06198300  0.23905700  0.69022900  1
  O  O22  1  0.42006000  0.49537600  0.75184300  1
  O  O23  1  0.05916900  0.75935100  0.80714500  1
  O  O24  1  0.61119900  0.69107900  0.83750700  1
  O  O25  1  0.86808600  0.06867100  0.83567400  1
  O  O26  1  0.33399100  0.73097800  0.85791000  1
  O  O27  1  0.45759600  0.27945800  0.95707400  1
  O  O28  1  0.14575000  0.38115700  0.96809000  1
  O  O29  1  0.15699900  0.84438500  0.97295200  1
loop_
_geom_bond_atom_site_label_1
_geom_bond_atom_site_label_2
_geom_bond_distance
_geom_bond_site_symmetry_2
Li0 O15 1.864657 1_655
Li0 O14 1.880014 1_545
Li0 O13 2.038428 1_555
Li0 O10 2.172112 1_655
Li1 O0 1.864657 1_456
Li1 O29 1.880014 1_545
Li1 O28 2.038428 1_555
Li1 O25 2.172112 1_455
Cu0 O4 1.944990 1_545
Cu0 O27 1.948777 1_554
Cu0 O28 2.030716 1_554
Cu0 O5 2.035845 1_555
Cu1 O16 1.957653 1_555
Cu1 O17 1.960666 1_555
Cu1 O10 1.995147 1_565
Cu1 O9 2.133559 1_555
Cu1 O15 2.612523 1_565
Cu2 O19 1.944990 1_545
Cu2 O12 1.948777 1_555
Cu2 O13 2.030716 1_555
Cu2 O20 2.035845 1_555
Cu3 O1 1.957653 1_556
Cu3 O2 1.960666 1_556
Cu3 O25 1.995147 1_565
Cu3 O24 2.133559 1_555
Cu3 O0 2.612523 1_566
O0 P0 1.489517 1_555
O1 P0 1.504830 1_555
O2 P1 1.522298 1_555
O3 P1 1.599893 1_555
O3 P0 1.612167 1_555
O4 P2 1.506490 1_565
O5 P1 1.501821 1_555
O6 P2 1.602545 1_655
O6 P0 1.630067 1_555
O7 P1 1.590354 1_555
O7 P3 1.598261 1_555
O8 P2 1.605478 1_665
O8 P4 1.627819 1_555
O9 P3 1.492440 1_555
O10 P2 1.521964 1_555
O11 P3 1.602212 1_555
O11 P4 1.611185 1_555
O12 P3 1.525675 1_555
O13 P4 1.513525 1_555
O14 P4 1.486931 1_555
O15 P5 1.489517 1_555
O16 P5 1.504830 1_555
O17 P6 1.522298 1_555
O18 P6 1.599893 1_555
O18 P5 1.612167 1_555
O19 P7 1.506490 1_565
O20 P6 1.501821 1_555
O21 P7 1.602545 1_455
O21 P5 1.630067 1_555
O22 P6 1.590354 1_555
O22 P8 1.598261 1_555
O23 P7 1.605478 1_465
O23 P9 1.627819 1_555
O24 P8 1.492440 1_555
O25 P7 1.521964 1_555
O26 P8 1.602212 1_555
O26 P9 1.611185 1_555
O27 P8 1.525675 1_555
O28 P9 1.513525 1_555
O29 P9 1.486931 1_555
