# generated using pymatgen
data_Nb12WO33
_symmetry_space_group_name_H-M   'P 1'
_cell_length_a   3.87321100
_cell_length_b   11.56273664
_cell_length_c   15.35099545
_cell_angle_alpha   83.62922623
_cell_angle_beta   82.78240042
_cell_angle_gamma   80.44797136
_symmetry_Int_Tables_number   1
_chemical_formula_structural   Nb12WO33
_chemical_formula_sum   'Nb12 W1 O33'
_cell_volume   669.72986393
_cell_formula_units_Z   1
loop_
 _symmetry_equiv_pos_site_id
 _symmetry_equiv_pos_as_xyz
  1  'x, y, z'
loop_
 _atom_site_type_symbol
 _atom_site_label
 _atom_site_symmetry_multiplicity
 _atom_site_fract_x
 _atom_site_fract_y
 _atom_site_fract_z
 _atom_site_occupancy
  Nb  Nb0  1  0.24869700  0.63878700  0.86138100  1
  Nb  Nb1  1  0.62590800  0.68918600  0.04585400  1
  Nb  Nb2  1  0.42273400  0.54523300  0.61798300  1
  Nb  Nb3  1  0.36426400  0.31081800  0.95357700  1
  Nb  Nb4  1  0.87754400  0.03158100  0.23245500  1
  Nb  Nb5  1  0.55979200  0.45422000  0.37999900  1
  Nb  Nb6  1  0.13740500  0.96867700  0.76683300  1
  Nb  Nb7  1  0.29722300  0.87558400  0.52699200  1
  Nb  Nb8  1  0.53602500  0.21652300  0.71194600  1
  Nb  Nb9  1  0.69987400  0.12498000  0.47221600  1
  Nb  Nb10  1  0.46743600  0.78412700  0.28760300  1
  Nb  Nb11  1  0.75385000  0.36117400  0.13735400  1
  W  W0  1  0.75381200  0.99998400  0.99973700  1
  O  O0  1  0.77628700  0.92401900  0.51929800  1
  O  O1  1  0.54642000  0.74507200  0.15538300  1
  O  O2  1  0.69841500  0.52595100  0.08165900  1
  O  O3  1  0.82460700  0.18447900  0.17836300  1
  O  O4  1  0.42361100  0.13008200  0.01204400  1
  O  O5  1  0.05088900  0.17252000  0.72850300  1
  O  O6  1  0.35295100  0.72037600  0.57443100  1
  O  O7  1  0.37538100  0.83879100  0.40408600  1
  O  O8  1  0.72400300  0.65327600  0.89534100  1
  O  O9  1  0.08814400  0.45240500  0.37165900  1
  O  O10  1  0.39775800  0.98041600  0.23290600  1
  O  O11  1  0.62199100  0.16400300  0.59450500  1
  O  O12  1  0.32748500  0.59781900  0.74899500  1
  O  O13  1  0.85063600  0.30679700  0.99093200  1
  O  O14  1  0.18108000  0.81586800  0.82055300  1
  O  O15  1  0.30223300  0.47363700  0.91733600  1
  O  O16  1  0.95222900  0.82795000  0.27054200  1
  O  O17  1  0.22106400  0.07689500  0.47970500  1
  O  O18  1  0.56796400  0.86967600  0.98777700  1
  O  O19  1  0.96845300  0.97194800  0.09985800  1
  O  O20  1  0.52803900  0.62497800  0.32544600  1
  O  O21  1  0.64757600  0.27916600  0.42247600  1
  O  O22  1  0.20448400  0.93498300  0.64982100  1
  O  O23  1  0.79471000  0.06507200  0.34921900  1
  O  O24  1  0.60834100  0.02003200  0.76601300  1
  O  O25  1  0.91258600  0.54942100  0.62579000  1
  O  O26  1  0.47312900  0.37604700  0.67594000  1
  O  O27  1  0.45369400  0.25402800  0.84444200  1
  O  O28  1  0.67803400  0.40239000  0.24988200  1
  O  O29  1  0.03928800  0.02782400  0.89950200  1
  O  O30  1  0.27695700  0.34704900  0.10343300  1
  O  O31  1  0.50305900  0.49635500  0.50027100  1
  O  O32  1  0.14779600  0.69239700  0.00868200  1
loop_
_geom_bond_atom_site_label_1
_geom_bond_atom_site_label_2
_geom_bond_distance
_geom_bond_site_symmetry_2
Nb0 O12 1.815230 1_555
Nb0 O15 1.994157 1_555
Nb0 O8 2.012927 1_555
Nb0 O8 2.017438 1_455
Nb0 O14 2.057258 1_555
Nb0 O32 2.378801 1_556
Nb1 O1 1.839676 1_555
Nb1 O2 1.891046 1_555
Nb1 O32 1.998566 1_555
Nb1 O32 2.035522 1_655
Nb1 O18 2.163914 1_554
Nb1 O8 2.365428 1_554
Nb2 O25 1.924934 1_555
Nb2 O31 1.925736 1_555
Nb2 O25 1.957284 1_455
Nb2 O6 2.045598 1_555
Nb2 O26 2.046275 1_555
Nb2 O12 2.135672 1_555
Nb3 O27 1.838678 1_555
Nb3 O15 1.887478 1_555
Nb3 O13 2.006686 1_455
Nb3 O13 2.028849 1_555
Nb3 O4 2.168370 1_556
Nb3 O30 2.356535 1_556
Nb4 O23 1.853120 1_555
Nb4 O3 1.858433 1_555
Nb4 O10 2.004206 1_645
Nb4 O10 2.040613 1_545
Nb4 O19 2.189399 1_545
Nb4 O16 2.341000 1_545
Nb5 O9 1.850970 1_555
Nb5 O31 1.938195 1_555
Nb5 O9 2.031052 1_655
Nb5 O21 2.042592 1_555
Nb5 O20 2.047719 1_555
Nb5 O28 2.122100 1_555
Nb6 O14 1.855551 1_555
Nb6 O22 1.857484 1_555
Nb6 O24 2.007961 1_565
Nb6 O24 2.037858 1_465
Nb6 O29 2.188208 1_565
Nb6 O5 2.343825 1_565
Nb7 O6 1.848922 1_555
Nb7 O7 1.955569 1_555
Nb7 O0 2.011386 1_555
Nb7 O0 2.017142 1_455
Nb7 O22 2.047281 1_555
Nb7 O17 2.341603 1_565
Nb8 O26 1.850839 1_555
Nb8 O11 1.937754 1_555
Nb8 O5 2.005701 1_555
Nb8 O5 2.015474 1_655
Nb8 O27 2.100847 1_555
Nb8 O24 2.314718 1_555
Nb9 O21 1.849157 1_555
Nb9 O11 1.954277 1_555
Nb9 O17 2.009002 1_555
Nb9 O17 2.017186 1_655
Nb9 O23 2.052149 1_555
Nb9 O0 2.337126 1_545
Nb10 O20 1.852719 1_555
Nb10 O7 1.933874 1_555
Nb10 O16 2.003468 1_555
Nb10 O16 2.018336 1_455
Nb10 O1 2.102087 1_555
Nb10 O10 2.315132 1_555
Nb11 O28 1.818270 1_555
Nb11 O2 1.988969 1_555
Nb11 O30 2.011682 1_655
Nb11 O30 2.017501 1_555
Nb11 O3 2.053697 1_555
Nb11 O13 2.368922 1_554
O4 W0 1.816068 1_544
O18 W0 1.810142 1_555
O19 W0 1.810945 1_554
O29 W0 1.809566 1_445
