# generated using pymatgen
data_BaSrI4
_symmetry_space_group_name_H-M   'P 1'
_cell_length_a   8.18658100
_cell_length_b   8.36275600
_cell_length_c   17.40271500
_cell_angle_alpha   90.00000000
_cell_angle_beta   90.00000000
_cell_angle_gamma   90.00000000
_symmetry_Int_Tables_number   1
_chemical_formula_structural   BaSrI4
_chemical_formula_sum   'Ba4 Sr4 I16'
_cell_volume   1191.43127652
_cell_formula_units_Z   4
loop_
 _symmetry_equiv_pos_site_id
 _symmetry_equiv_pos_as_xyz
  1  'x, y, z'
loop_
 _atom_site_type_symbol
 _atom_site_label
 _atom_site_symmetry_multiplicity
 _atom_site_fract_x
 _atom_site_fract_y
 _atom_site_fract_z
 _atom_site_occupancy
  Ba  Ba0  1  0.25000000  0.00000000  0.13191500  1
  Ba  Ba1  1  0.75000000  0.00000000  0.86808500  1
  Ba  Ba2  1  0.25000000  0.50000000  0.63191500  1
  Ba  Ba3  1  0.75000000  0.50000000  0.36808500  1
  Sr  Sr0  1  0.25000000  0.00000000  0.40547100  1
  Sr  Sr1  1  0.75000000  0.00000000  0.59452900  1
  Sr  Sr2  1  0.75000000  0.50000000  0.09452900  1
  Sr  Sr3  1  0.25000000  0.50000000  0.90547100  1
  I  I0  1  0.01221200  0.16305900  0.27740100  1
  I  I1  1  0.51221200  0.16305900  0.72259900  1
  I  I2  1  0.00373600  0.24625300  0.01204000  1
  I  I3  1  0.50373600  0.24625300  0.98796000  1
  I  I4  1  0.50373600  0.25374700  0.48796000  1
  I  I5  1  0.00373600  0.25374700  0.51204000  1
  I  I6  1  0.51221200  0.33694100  0.22259900  1
  I  I7  1  0.01221200  0.33694100  0.77740100  1
  I  I8  1  0.98778800  0.66305900  0.22259900  1
  I  I9  1  0.48778800  0.66305900  0.77740100  1
  I  I10  1  0.99626400  0.74625300  0.48796000  1
  I  I11  1  0.49626400  0.74625300  0.51204000  1
  I  I12  1  0.49626400  0.75374700  0.01204000  1
  I  I13  1  0.99626400  0.75374700  0.98796000  1
  I  I14  1  0.98778800  0.83694100  0.72259900  1
  I  I15  1  0.48778800  0.83694100  0.27740100  1
loop_
_geom_bond_atom_site_label_1
_geom_bond_atom_site_label_2
_geom_bond_distance
_geom_bond_site_symmetry_2
Ba0 I0 3.472645 1_555
Ba0 I15 3.472645 1_545
Ba0 I12 3.557732 1_545
Ba0 I2 3.557732 1_555
Ba0 I3 3.851219 1_554
Ba0 I13 3.851219 1_444
Ba0 I6 3.877921 1_555
Ba0 I8 3.877921 1_445
Ba1 I1 3.472645 1_555
Ba1 I14 3.472645 1_545
Ba1 I13 3.557732 1_545
Ba1 I3 3.557732 1_555
Ba1 I2 3.851219 1_656
Ba1 I12 3.851219 1_546
Ba1 I7 3.877921 1_655
Ba1 I9 3.877921 1_545
Ba2 I9 3.472645 1_555
Ba2 I7 3.472645 1_555
Ba2 I11 3.557732 1_555
Ba2 I5 3.557732 1_555
Ba2 I4 3.851219 1_555
Ba2 I10 3.851219 1_455
Ba2 I14 3.877921 1_455
Ba2 I1 3.877921 1_555
Ba3 I8 3.472645 1_555
Ba3 I6 3.472645 1_555
Ba3 I10 3.557732 1_555
Ba3 I4 3.557732 1_555
Ba3 I5 3.851219 1_655
Ba3 I11 3.851219 1_555
Ba3 I15 3.877921 1_555
Ba3 I0 3.877921 1_655
I0 Sr0 3.258280 1_555
I1 Sr1 3.258280 1_555
I2 Sr2 3.298276 1_455
I2 Sr3 3.465110 1_554
I3 Sr3 3.298276 1_555
I3 Sr2 3.465110 1_556
I4 Sr0 3.298276 1_555
I4 Sr1 3.465110 1_555
I5 Sr1 3.298276 1_455
I5 Sr0 3.465110 1_555
I6 Sr2 3.258280 1_555
I7 Sr3 3.258280 1_555
I8 Sr2 3.258280 1_555
I9 Sr3 3.258280 1_555
I10 Sr0 3.298276 1_665
I10 Sr1 3.465110 1_565
I11 Sr1 3.298276 1_565
I11 Sr0 3.465110 1_565
I12 Sr2 3.298276 1_555
I12 Sr3 3.465110 1_554
I13 Sr3 3.298276 1_655
I13 Sr2 3.465110 1_556
I14 Sr1 3.258280 1_565
I15 Sr0 3.258280 1_565
