# generated using pymatgen
data_LiCr2(PO4)2
_symmetry_space_group_name_H-M   'P 1'
_cell_length_a   6.40912300
_cell_length_b   9.50576921
_cell_length_c   9.50647206
_cell_angle_alpha   119.93033171
_cell_angle_beta   90.05810057
_cell_angle_gamma   90.01207906
_symmetry_Int_Tables_number   1
_chemical_formula_structural   LiCr2(PO4)2
_chemical_formula_sum   'Li3 Cr6 P6 O24'
_cell_volume   501.92631501
_cell_formula_units_Z   3
loop_
 _symmetry_equiv_pos_site_id
 _symmetry_equiv_pos_as_xyz
  1  'x, y, z'
loop_
 _atom_site_type_symbol
 _atom_site_label
 _atom_site_symmetry_multiplicity
 _atom_site_fract_x
 _atom_site_fract_y
 _atom_site_fract_z
 _atom_site_occupancy
  Li  Li0  1  0.09142200  0.33240600  0.66698500  1
  Li  Li1  1  0.09745300  0.99804400  0.99696600  1
  Li  Li2  1  0.60830100  0.66936300  0.33610400  1
  Cr  Cr0  1  0.50067300  0.27175300  0.42442700  1
  Cr  Cr1  1  0.50109200  0.57516700  0.84722500  1
  Cr  Cr2  1  0.50137800  0.15453400  0.72934400  1
  Cr  Cr3  1  0.99875700  0.86270300  0.27909400  1
  Cr  Cr4  1  0.99973800  0.42441500  0.14794800  1
  Cr  Cr5  1  0.99924900  0.71792600  0.58866900  1
  P  P0  1  0.99903500  0.30953100  0.35778400  1
  P  P1  1  0.99967000  0.63733100  0.94958400  1
  P  P2  1  0.99932500  0.05022000  0.68785900  1
  P  P3  1  0.49387500  0.95373400  0.31399500  1
  P  P4  1  0.49450300  0.36059600  0.04727200  1
  P  P5  1  0.49395900  0.68529300  0.63953800  1
  O  O0  1  0.49015600  0.05473400  0.22709100  1
  O  O1  1  0.80798300  0.26566400  0.42472300  1
  O  O2  1  0.18738700  0.28223200  0.44384600  1
  O  O3  1  0.50114900  0.50053100  0.59960800  1
  O  O4  1  0.49034200  0.77254200  0.82726800  1
  O  O5  1  0.50154500  0.09745400  0.49893700  1
  O  O6  1  0.18802800  0.55424600  0.83522900  1
  O  O7  1  0.80805800  0.57337100  0.83824900  1
  O  O8  1  0.01693100  0.82530200  0.04695000  1
  O  O9  1  0.18830300  0.16539100  0.71959800  1
  O  O10  1  0.80845200  0.16308300  0.73674200  1
  O  O11  1  0.50124400  0.40074200  0.90259200  1
  O  O12  1  0.99034700  0.59191700  0.08730900  1
  O  O13  1  0.30419300  0.84452600  0.28133200  1
  O  O14  1  0.68510700  0.84126400  0.27668400  1
  O  O15  1  0.49042600  0.17308600  0.94672900  1
  O  O16  1  0.30528900  0.43764000  0.15694300  1
  O  O17  1  0.68530700  0.43708900  0.16024600  1
  O  O18  1  0.98861800  0.91411400  0.50583700  1
  O  O19  1  0.01617800  0.21876800  0.16939000  1
  O  O20  1  0.98983700  0.49121800  0.39489900  1
  O  O21  1  0.68600400  0.72115100  0.56425200  1
  O  O22  1  0.30406600  0.71703900  0.56253500  1
  O  O23  1  0.01746200  0.95389000  0.78004800  1
loop_
_geom_bond_atom_site_label_1
_geom_bond_atom_site_label_2
_geom_bond_distance
_geom_bond_site_symmetry_2
Li0 O9 1.987053 1_555
Li0 O6 2.005021 1_555
Li0 O2 2.024526 1_555
Li1 O23 1.955871 1_555
Li1 O19 1.982583 1_566
Li1 O8 1.991779 1_556
Li2 O21 2.031417 1_555
Li2 O14 2.037852 1_555
Li2 O17 2.057223 1_555
Cr0 O1 1.970490 1_555
Cr0 O3 1.971987 1_555
Cr0 O0 1.979226 1_555
Cr0 O2 2.014474 1_555
Cr0 O5 2.101906 1_555
Cr1 O7 1.969027 1_555
Cr1 O11 1.974085 1_555
Cr1 O4 1.978915 1_555
Cr1 O6 2.013752 1_555
Cr1 O3 2.092354 1_555
Cr2 O10 1.969472 1_555
Cr2 O5 1.976389 1_555
Cr2 O15 1.985785 1_555
Cr2 O9 2.013622 1_555
Cr2 O11 2.084115 1_555
Cr3 O18 1.959197 1_555
Cr3 O13 1.966251 1_655
Cr3 O14 2.019436 1_555
Cr3 O8 2.056170 1_655
Cr3 O12 2.295484 1_555
Cr4 O12 1.946034 1_555
Cr4 O16 1.961361 1_655
Cr4 O17 2.018873 1_555
Cr4 O19 2.066808 1_655
Cr4 O20 2.105072 1_555
Cr5 O22 1.969083 1_655
Cr5 O20 2.019750 1_555
Cr5 O21 2.022761 1_555
Cr5 O23 2.069299 1_655
Cr5 O18 2.359658 1_555
O0 P3 1.548006 1_545
O1 P0 1.531119 1_555
O2 P0 1.550469 1_455
O3 P5 1.601753 1_555
O4 P5 1.548045 1_555
O5 P3 1.600888 1_545
O6 P1 1.552165 1_455
O7 P1 1.533923 1_555
O8 P1 1.552734 1_454
O9 P2 1.557445 1_455
O10 P2 1.538729 1_555
O11 P4 1.600968 1_556
O12 P1 1.571085 1_554
O13 P3 1.526118 1_555
O14 P3 1.547257 1_555
O15 P4 1.546337 1_556
O16 P4 1.528059 1_555
O17 P4 1.547672 1_555
O18 P2 1.561577 1_565
O19 P0 1.556437 1_455
O20 P0 1.582009 1_555
O21 P5 1.545456 1_555
O22 P5 1.525424 1_555
O23 P2 1.555865 1_465
