# generated using pymatgen
data_Li4Ti2Ni3Sn3O16
_symmetry_space_group_name_H-M   'P 1'
_cell_length_a   6.01577094
_cell_length_b   6.01577094
_cell_length_c   9.63158854
_cell_angle_alpha   88.16406293
_cell_angle_beta   88.16406293
_cell_angle_gamma   60.92927897
_symmetry_Int_Tables_number   1
_chemical_formula_structural   Li4Ti2Ni3Sn3O16
_chemical_formula_sum   'Li4 Ti2 Ni3 Sn3 O16'
_cell_volume   304.44018881
_cell_formula_units_Z   1
loop_
 _symmetry_equiv_pos_site_id
 _symmetry_equiv_pos_as_xyz
  1  'x, y, z'
loop_
 _atom_site_type_symbol
 _atom_site_label
 _atom_site_symmetry_multiplicity
 _atom_site_fract_x
 _atom_site_fract_y
 _atom_site_fract_z
 _atom_site_occupancy
  Li  Li0  1  0.67718800  0.67718800  0.89074600  1
  Li  Li1  1  0.97951700  0.97951700  0.98941500  1
  Li  Li2  1  0.98750000  0.98750000  0.50056400  1
  Li  Li3  1  0.33306300  0.33306300  0.40268000  1
  Ti  Ti0  1  0.67645100  0.67645100  0.49417700  1
  Ti  Ti1  1  0.35805600  0.35805600  0.98608400  1
  Ni  Ni0  1  0.82907400  0.82907400  0.21659700  1
  Ni  Ni1  1  0.65947400  0.17597900  0.71435200  1
  Ni  Ni2  1  0.17597900  0.65947400  0.71435200  1
  Sn  Sn0  1  0.83241900  0.33925000  0.21366500  1
  Sn  Sn1  1  0.33925000  0.83241900  0.21366500  1
  Sn  Sn2  1  0.16969400  0.16969400  0.71484700  1
  O  O0  1  0.82936900  0.32403700  0.59743900  1
  O  O1  1  0.51218900  0.51218900  0.34253900  1
  O  O2  1  0.67343400  0.67343400  0.09822200  1
  O  O3  1  0.99382700  0.99382700  0.31342500  1
  O  O4  1  0.98552900  0.98552900  0.80201000  1
  O  O5  1  0.32403700  0.82936900  0.59743900  1
  O  O6  1  0.95879100  0.51205000  0.35308900  1
  O  O7  1  0.51205000  0.95879100  0.35308900  1
  O  O8  1  0.16387100  0.16387100  0.08636200  1
  O  O9  1  0.81923600  0.81923600  0.59133700  1
  O  O10  1  0.49073700  0.04649600  0.83913400  1
  O  O11  1  0.04649600  0.49073700  0.83913400  1
  O  O12  1  0.34814200  0.34814200  0.61148800  1
  O  O13  1  0.65877600  0.17619800  0.09123300  1
  O  O14  1  0.48714200  0.48714200  0.84960700  1
  O  O15  1  0.17619800  0.65877600  0.09123300  1
loop_
_geom_bond_atom_site_label_1
_geom_bond_atom_site_label_2
_geom_bond_distance
_geom_bond_site_symmetry_2
Li0 O10 1.996094 1_565
Li0 O11 1.996094 1_655
Li0 O2 1.997255 1_556
Li0 O14 2.024694 1_555
Li1 O4 1.803767 1_555
Li1 O15 1.954278 1_656
Li1 O13 1.954278 1_566
Li1 O8 2.158644 1_666
Li2 O3 1.801201 1_555
Li2 O9 1.922479 1_555
Li2 O0 2.016650 1_565
Li2 O5 2.016650 1_655
Li3 O1 1.925179 1_555
Li3 O12 2.023010 1_555
Li3 O7 2.033955 1_545
Li3 O6 2.033955 1_455
Ni0 O3 1.976720 1_555
Ni0 O2 2.010453 1_555
Ni0 O6 2.105529 1_555
Ni0 O7 2.105529 1_555
Ni0 O15 2.169539 1_655
Ni0 O13 2.169539 1_565
Ni1 O10 1.926603 1_555
Ni1 O12 1.931356 1_555
Ni1 O4 1.932128 1_545
Ni1 O0 1.962786 1_555
Ni1 O14 2.111796 1_555
Ni1 O9 2.240265 1_545
Ni2 O11 1.926603 1_555
Ni2 O12 1.931356 1_555
Ni2 O4 1.932128 1_455
Ni2 O5 1.962786 1_555
Ni2 O14 2.111796 1_555
Ni2 O9 2.240265 1_455
O0 Ti0 2.087655 1_555
O0 Sn2 2.136860 1_655
O1 Sn0 2.077528 1_555
O1 Sn1 2.077528 1_555
O1 Ti0 2.284708 1_555
O2 Sn1 2.061329 1_555
O2 Sn0 2.061329 1_555
O3 Sn1 2.038421 1_655
O3 Sn0 2.038421 1_565
O4 Sn2 2.057486 1_665
O5 Ti0 2.087655 1_555
O5 Sn2 2.136860 1_565
O6 Ti0 2.003855 1_555
O6 Sn0 2.093967 1_555
O7 Ti0 2.003855 1_555
O7 Sn1 2.093967 1_555
O8 Sn1 2.115235 1_545
O8 Sn0 2.115235 1_455
O8 Ti1 2.200823 1_554
O9 Ti0 1.780833 1_555
O10 Sn2 2.100620 1_555
O10 Ti1 2.190216 1_555
O11 Sn2 2.100620 1_555
O11 Ti1 2.190216 1_555
O12 Sn2 2.068523 1_555
O13 Ti1 1.902198 1_554
O13 Sn0 2.143038 1_555
O14 Ti1 1.840965 1_555
O15 Ti1 1.902198 1_554
O15 Sn1 2.143038 1_555
