# generated using pymatgen
data_Li2Cr2CoO6
_symmetry_space_group_name_H-M   'P 1'
_cell_length_a   6.58285801
_cell_length_b   6.57012284
_cell_length_c   8.28139145
_cell_angle_alpha   71.02577382
_cell_angle_beta   109.23081471
_cell_angle_gamma   97.18278458
_symmetry_Int_Tables_number   1
_chemical_formula_structural   Li2Cr2CoO6
_chemical_formula_sum   'Li6 Cr6 Co3 O18'
_cell_volume   319.74560811
_cell_formula_units_Z   3
loop_
 _symmetry_equiv_pos_site_id
 _symmetry_equiv_pos_as_xyz
  1  'x, y, z'
loop_
 _atom_site_type_symbol
 _atom_site_label
 _atom_site_symmetry_multiplicity
 _atom_site_fract_x
 _atom_site_fract_y
 _atom_site_fract_z
 _atom_site_occupancy
  Li  Li0  1  0.01121500  0.66679600  0.83552900  1
  Li  Li1  1  0.01231600  0.33508900  0.17030400  1
  Li  Li2  1  0.33436600  0.00011500  0.83224300  1
  Li  Li3  1  0.33230000  0.33321900  0.50109000  1
  Li  Li4  1  0.65545100  0.66653700  0.49780400  1
  Li  Li5  1  0.65435100  0.99824400  0.16302900  1
  Cr  Cr0  1  0.00029300  0.33435600  0.66860700  1
  Cr  Cr1  1  0.00485900  0.67290700  0.33580900  1
  Cr  Cr2  1  0.66180800  0.66042700  0.99752500  1
  Cr  Cr3  1  0.66637300  0.99897700  0.66472600  1
  Cr  Cr4  1  0.00244900  0.00252000  0.00341000  1
  Cr  Cr5  1  0.66421700  0.33081300  0.32992400  1
  Co  Co0  1  0.33333300  0.66666700  0.66666700  1
  Co  Co1  1  0.33243900  0.99994800  0.33261400  1
  Co  Co2  1  0.33422800  0.33338500  0.00072000  1
  O  O0  1  0.02600100  0.31763200  0.92191900  1
  O  O1  1  0.02528900  0.65171400  0.58775600  1
  O  O2  1  0.01833700  0.99422600  0.23951600  1
  O  O3  1  0.34058800  0.64862500  0.90127700  1
  O  O4  1  0.34863900  0.97690400  0.57848800  1
  O  O5  1  0.68127200  0.98005100  0.91690900  1
  O  O6  1  0.31802800  0.35642900  0.75484600  1
  O  O7  1  0.32607900  0.68470800  0.43205700  1
  O  O8  1  0.64137800  0.68161900  0.74557700  1
  O  O9  1  0.34688300  0.30783100  0.24618600  1
  O  O10  1  0.67511000  0.32338300  0.56741000  1
  O  O11  1  0.68412000  0.64731900  0.25067900  1
  O  O12  1  0.31978300  0.02550200  0.08714700  1
  O  O13  1  0.64066600  0.01570100  0.41141400  1
  O  O14  1  0.64833000  0.33910800  0.09381700  1
  O  O15  1  0.99155600  0.00995000  0.76592300  1
  O  O16  1  0.98539500  0.35328200  0.41642400  1
  O  O17  1  0.98254700  0.68601500  0.08265400  1
loop_
_geom_bond_atom_site_label_1
_geom_bond_atom_site_label_2
_geom_bond_distance
_geom_bond_site_symmetry_2
Li0 O3 2.063163 1_555
Li0 O1 2.118599 1_555
Li0 O15 2.147274 1_465
Li0 O17 2.160626 1_456
Li0 O0 2.174092 1_555
Li0 O8 2.304131 1_455
Li1 O9 2.095543 1_555
Li1 O2 2.125563 1_545
Li1 O0 2.128493 1_554
Li1 O16 2.145155 1_455
Li1 O17 2.193668 1_455
Li1 O14 2.268967 1_455
Li2 O15 2.143666 1_455
Li2 O5 2.164342 1_545
Li2 O4 2.188652 1_545
Li2 O3 2.193451 1_545
Li2 O12 2.204462 1_556
Li2 O6 2.223646 1_555
Li3 O10 2.143666 1_555
Li3 O16 2.164335 1_455
Li3 O6 2.188656 1_555
Li3 O7 2.193445 1_555
Li3 O9 2.204464 1_555
Li3 O4 2.223652 1_545
Li4 O7 2.063158 1_555
Li4 O8 2.118597 1_555
Li4 O10 2.147274 1_555
Li4 O11 2.160626 1_555
Li4 O13 2.174092 1_565
Li4 O1 2.304137 1_655
Li5 O12 2.095550 1_565
Li5 O14 2.125570 1_565
Li5 O13 2.128493 1_565
Li5 O5 2.145155 1_554
Li5 O11 2.193662 1_555
Li5 O2 2.268967 1_655
Cr0 O1 1.975316 1_555
Cr0 O6 1.978222 1_555
Cr0 O0 2.015508 1_555
Cr0 O15 2.019527 1_455
Cr0 O16 2.021351 1_455
Cr0 O10 2.027009 1_455
Cr1 O16 1.987311 1_455
Cr1 O11 1.997738 1_455
Cr1 O7 2.000385 1_555
Cr1 O2 2.001393 1_555
Cr1 O1 2.005431 1_555
Cr1 O17 2.026600 1_455
Cr2 O5 1.987304 1_555
Cr2 O17 1.997738 1_556
Cr2 O3 2.000385 1_555
Cr2 O14 2.001392 1_556
Cr2 O8 2.005441 1_555
Cr2 O11 2.026592 1_556
Cr3 O8 1.975316 1_555
Cr3 O4 1.978216 1_555
Cr3 O13 2.015509 1_565
Cr3 O10 2.019527 1_565
Cr3 O5 2.021349 1_555
Cr3 O15 2.027009 1_565
Cr4 O2 1.906430 1_545
Cr4 O15 1.929006 1_454
Cr4 O0 1.961073 1_554
Cr4 O17 1.968030 1_445
Cr4 O12 1.975449 1_555
Cr4 O5 1.999516 1_444
Cr5 O14 1.906438 1_555
Cr5 O10 1.928998 1_555
Cr5 O13 1.961073 1_555
Cr5 O11 1.968037 1_555
Cr5 O9 1.975449 1_555
Cr5 O16 1.999522 1_555
Co0 O3 1.892540 1_555
Co0 O7 1.892543 1_555
Co0 O1 1.915124 1_555
Co0 O8 1.915130 1_555
Co0 O4 1.930608 1_555
Co0 O6 1.930614 1_555
Co1 O9 1.915307 1_565
Co1 O13 1.916411 1_565
Co1 O2 1.954591 1_555
Co1 O12 1.958937 1_565
Co1 O4 1.959807 1_555
Co1 O7 1.965080 1_555
Co2 O12 1.915307 1_555
Co2 O0 1.916412 1_554
Co2 O14 1.954591 1_555
Co2 O9 1.958930 1_555
Co2 O6 1.959807 1_554
Co2 O3 1.965080 1_554
