# generated using pymatgen
data_Li8Cr2O9
_symmetry_space_group_name_H-M   'P 1'
_cell_length_a   14.74196801
_cell_length_b   8.67394584
_cell_length_c   5.73663708
_cell_angle_alpha   70.44693770
_cell_angle_beta   78.83040635
_cell_angle_gamma   85.52130135
_symmetry_Int_Tables_number   1
_chemical_formula_structural   Li8Cr2O9
_chemical_formula_sum   'Li32 Cr8 O36'
_cell_volume   678.08405584
_cell_formula_units_Z   4
loop_
 _symmetry_equiv_pos_site_id
 _symmetry_equiv_pos_as_xyz
  1  'x, y, z'
loop_
 _atom_site_type_symbol
 _atom_site_label
 _atom_site_symmetry_multiplicity
 _atom_site_fract_x
 _atom_site_fract_y
 _atom_site_fract_z
 _atom_site_occupancy
  Li  Li0  1  0.03323000  0.11818500  0.77546800  1
  Li  Li1  1  0.05356200  0.63271800  0.54542800  1
  Li  Li2  1  0.04488400  0.63088000  0.03352900  1
  Li  Li3  1  0.04274900  0.12274300  0.31613000  1
  Li  Li4  1  0.15766200  0.41260700  0.84867000  1
  Li  Li5  1  0.15301400  0.84820200  0.12886600  1
  Li  Li6  1  0.23979400  0.62988900  0.96571000  1
  Li  Li7  1  0.24124400  0.63108500  0.42414700  1
  Li  Li8  1  0.25510900  0.11826800  0.67010000  1
  Li  Li9  1  0.25593800  0.11587800  0.21717600  1
  Li  Li10  1  0.34166300  0.33968000  0.78763600  1
  Li  Li11  1  0.35035100  0.89636700  0.50787500  1
  Li  Li12  1  0.45672300  0.62990800  0.85853200  1
  Li  Li13  1  0.45873900  0.12088000  0.58974300  1
  Li  Li14  1  0.47014100  0.62399400  0.30824300  1
  Li  Li15  1  0.54749400  0.88210000  0.91199000  1
  Li  Li16  1  0.45250600  0.11790000  0.08801000  1
  Li  Li17  1  0.52985900  0.37600600  0.69175700  1
  Li  Li18  1  0.54126100  0.87912000  0.41025700  1
  Li  Li19  1  0.54327700  0.37009200  0.14146800  1
  Li  Li20  1  0.64964900  0.10363300  0.49212500  1
  Li  Li21  1  0.65833700  0.66032000  0.21236400  1
  Li  Li22  1  0.74406200  0.88412200  0.78282400  1
  Li  Li23  1  0.74489100  0.88173200  0.32990000  1
  Li  Li24  1  0.75875600  0.36891500  0.57585300  1
  Li  Li25  1  0.76020600  0.37011100  0.03429000  1
  Li  Li26  1  0.84698600  0.15179800  0.87113400  1
  Li  Li27  1  0.84233800  0.58739300  0.15133000  1
  Li  Li28  1  0.95725100  0.87725700  0.68387000  1
  Li  Li29  1  0.95511600  0.36912000  0.96647100  1
  Li  Li30  1  0.94643800  0.36728200  0.45457200  1
  Li  Li31  1  0.96677000  0.88181500  0.22453200  1
  Cr  Cr0  1  0.14924500  0.87481100  0.62283500  1
  Cr  Cr1  1  0.13966000  0.37659000  0.37107700  1
  Cr  Cr2  1  0.35628300  0.87110000  0.02162000  1
  Cr  Cr3  1  0.35368700  0.35771000  0.27796800  1
  Cr  Cr4  1  0.64631300  0.64229000  0.72203200  1
  Cr  Cr5  1  0.64371700  0.12890000  0.97838000  1
  Cr  Cr6  1  0.86034000  0.62341000  0.62892300  1
  Cr  Cr7  1  0.85075500  0.12518900  0.37716500  1
  O  O0  1  0.05991700  0.88153000  0.88934200  1
  O  O1  1  0.06645600  0.88170700  0.41659900  1
  O  O2  1  0.06868200  0.35679200  0.66046100  1
  O  O3  1  0.06250500  0.36704300  0.17176000  1
  O  O4  1  0.15387300  0.64908000  0.72887100  1
  O  O5  1  0.13985400  0.59875700  0.25907200  1
  O  O6  1  0.15138200  0.12071500  0.49011500  1
  O  O7  1  0.24587100  0.87593800  0.80844300  1
  O  O8  1  0.25115000  0.87375700  0.32554100  1
  O  O9  1  0.25365100  0.37981200  0.53656400  1
  O  O10  1  0.24839000  0.37408100  0.10164400  1
  O  O11  1  0.34166800  0.09062700  0.91400600  1
  O  O12  1  0.34534200  0.64896600  0.13059700  1
  O  O13  1  0.35872000  0.14700500  0.37820500  1
  O  O14  1  0.44056500  0.87051000  0.74003100  1
  O  O15  1  0.42910100  0.39189100  0.97700600  1
  O  O16  1  0.44340700  0.86499000  0.21057900  1
  O  O17  1  0.43683500  0.38717600  0.45434600  1
  O  O18  1  0.56316500  0.61282400  0.54565400  1
  O  O19  1  0.55659300  0.13501000  0.78942100  1
  O  O20  1  0.57089900  0.60810900  0.02299400  1
  O  O21  1  0.55943500  0.12949000  0.25996900  1
  O  O22  1  0.64128000  0.85299500  0.62179500  1
  O  O23  1  0.65465800  0.35103400  0.86940300  1
  O  O24  1  0.65833200  0.90937300  0.08599400  1
  O  O25  1  0.75161000  0.62591900  0.89835600  1
  O  O26  1  0.74634900  0.62018800  0.46343600  1
  O  O27  1  0.74885000  0.12624300  0.67445900  1
  O  O28  1  0.75412900  0.12406200  0.19155700  1
  O  O29  1  0.84861800  0.87928500  0.50988500  1
  O  O30  1  0.86014600  0.40124300  0.74092800  1
  O  O31  1  0.84612700  0.35092000  0.27112900  1
  O  O32  1  0.93749500  0.63295700  0.82824000  1
  O  O33  1  0.93131800  0.64320800  0.33953900  1
  O  O34  1  0.93354400  0.11829300  0.58340100  1
  O  O35  1  0.94008300  0.11847000  0.11065800  1
loop_
_geom_bond_atom_site_label_1
_geom_bond_atom_site_label_2
_geom_bond_distance
_geom_bond_site_symmetry_2
Li0 O0 1.967509 1_545
Li0 O34 2.000013 1_455
Li0 O2 2.028123 1_555
Li0 O35 2.136045 1_456
Li0 O6 2.142721 1_555
Li1 O5 1.964521 1_555
Li1 O4 2.012468 1_555
Li1 O1 2.046461 1_555
Li1 O32 2.118033 1_455
Li1 O2 2.264918 1_555
Li1 O33 2.319056 1_455
Li2 O5 2.027660 1_555
Li2 O0 2.064125 1_554
Li2 O4 2.104271 1_554
Li2 O32 2.144103 1_454
Li2 O3 2.169289 1_555
Li2 O33 2.203418 1_455
Li3 O34 1.989436 1_455
Li3 O1 1.995704 1_545
Li3 O3 2.022202 1_555
Li3 O6 2.040660 1_555
Li3 O35 2.100143 1_455
Li4 O4 1.932894 1_555
Li4 O2 2.029419 1_555
Li4 O3 2.036732 1_556
Li4 O10 2.089074 1_556
Li4 O9 2.141371 1_555
Li5 O1 1.970896 1_555
Li5 O7 2.022651 1_554
Li5 O5 2.050531 1_555
Li5 O0 2.063482 1_554
Li5 O8 2.065176 1_555
Li6 O5 1.968018 1_556
Li6 O4 1.990095 1_555
Li6 O12 2.014544 1_556
Li6 O7 2.021525 1_555
Li6 O10 2.093730 1_556
Li7 O8 1.997753 1_555
Li7 O5 2.000266 1_555
Li7 O4 2.004520 1_555
Li7 O12 2.018919 1_555
Li7 O9 2.059684 1_555
Li8 O7 1.988176 1_545
Li8 O13 1.997066 1_555
Li8 O6 1.999186 1_555
Li8 O11 2.015676 1_555
Li8 O9 2.137621 1_555
Li9 O6 1.981916 1_555
Li9 O8 1.983508 1_545
Li9 O13 1.998803 1_555
Li9 O11 2.007521 1_554
Li9 O10 2.112748 1_555
Li10 O15 2.002445 1_555
Li10 O11 2.035693 1_555
Li10 O9 2.048649 1_555
Li10 O17 2.077870 1_555
Li10 O10 2.135576 1_556
Li11 O14 2.008081 1_555
Li11 O8 2.011454 1_555
Li11 O7 2.045966 1_555
Li11 O16 2.051973 1_555
Li11 O13 2.053967 1_565
Li12 O14 1.977314 1_555
Li12 O15 1.993725 1_555
Li12 O20 2.050630 1_556
Li12 O12 2.072863 1_556
Li12 O18 2.180902 1_555
Li13 O13 2.038389 1_555
Li13 O19 2.042035 1_555
Li13 O14 2.068687 1_545
Li13 O21 2.150072 1_555
Li13 O17 2.196065 1_555
Li13 O11 2.237835 1_555
Li14 O17 2.002185 1_555
Li14 O16 2.002969 1_555
Li14 O20 2.019972 1_555
Li14 O18 2.087921 1_555
Li14 O12 2.233084 1_555
Li15 O22 2.020331 1_555
Li15 O16 2.039039 1_556
Li15 O14 2.040016 1_555
Li15 O19 2.074071 1_565
Li15 O24 2.138353 1_556
Li15 O20 2.262025 1_556
Li16 O13 2.020331 1_555
Li16 O19 2.039039 1_554
Li16 O21 2.040016 1_555
Li16 O16 2.074071 1_545
Li16 O11 2.138353 1_554
Li16 O15 2.262025 1_554
Li17 O18 2.002185 1_555
Li17 O19 2.002969 1_555
Li17 O15 2.019972 1_555
Li17 O17 2.087921 1_555
Li17 O23 2.233084 1_555
Li18 O22 2.038389 1_555
Li18 O16 2.042035 1_555
Li18 O21 2.068687 1_565
Li18 O14 2.150072 1_555
Li18 O18 2.196065 1_555
Li18 O24 2.237835 1_555
Li19 O21 1.977314 1_555
Li19 O20 1.993725 1_555
Li19 O15 2.050630 1_554
Li19 O23 2.072863 1_554
Li19 O17 2.180902 1_555
Li20 O21 2.008081 1_555
Li20 O27 2.011454 1_555
Li20 O28 2.045966 1_555
Li20 O19 2.051973 1_555
Li20 O22 2.053967 1_545
Li21 O20 2.002445 1_555
Li21 O24 2.035693 1_555
Li21 O26 2.048649 1_555
Li21 O18 2.077870 1_555
Li21 O25 2.135576 1_554
Li22 O29 1.981916 1_555
Li22 O27 1.983508 1_565
Li22 O22 1.998803 1_555
Li22 O24 2.007521 1_556
Li22 O25 2.112748 1_555
Li23 O28 1.988176 1_565
Li23 O22 1.997066 1_555
Li23 O29 1.999186 1_555
Li23 O24 2.015676 1_555
Li23 O26 2.137621 1_555
Li24 O27 1.997753 1_555
Li24 O30 2.000266 1_555
Li24 O31 2.004520 1_555
Li24 O23 2.018919 1_555
Li24 O26 2.059684 1_555
Li25 O30 1.968018 1_554
Li25 O31 1.990095 1_555
Li25 O23 2.014544 1_554
Li25 O28 2.021525 1_555
Li25 O25 2.093730 1_554
Li26 O34 1.970896 1_555
Li26 O28 2.022651 1_556
Li26 O30 2.050531 1_555
Li26 O35 2.063482 1_556
Li26 O27 2.065176 1_555
Li27 O31 1.932894 1_555
Li27 O33 2.029419 1_555
Li27 O32 2.036732 1_554
Li27 O25 2.089074 1_554
Li27 O26 2.141371 1_555
Li28 O1 1.989436 1_655
Li28 O34 1.995704 1_565
Li28 O32 2.022202 1_555
Li28 O29 2.040660 1_555
Li28 O0 2.100143 1_655
Li29 O30 2.027660 1_555
Li29 O35 2.064125 1_556
Li29 O31 2.104271 1_556
Li29 O3 2.144103 1_656
Li29 O32 2.169289 1_555
Li29 O2 2.203418 1_655
Li30 O30 1.964521 1_555
Li30 O31 2.012468 1_555
Li30 O34 2.046461 1_555
Li30 O3 2.118033 1_655
Li30 O33 2.264918 1_555
Li30 O2 2.319056 1_655
Li31 O35 1.967509 1_565
Li31 O1 2.000013 1_655
Li31 O33 2.028123 1_555
Li31 O0 2.136045 1_654
Li31 O29 2.142721 1_555
Cr0 O0 1.828274 1_555
Cr0 O1 1.842149 1_555
Cr0 O4 1.845629 1_555
Cr0 O7 1.938984 1_555
Cr0 O6 2.011061 1_565
Cr0 O8 2.044802 1_555
Cr1 O2 1.744853 1_555
Cr1 O3 1.786032 1_555
Cr1 O5 1.815979 1_555
Cr1 O10 2.003986 1_555
Cr1 O9 2.090241 1_555
Cr1 O6 2.096057 1_555
Cr2 O11 1.803882 1_564
Cr2 O16 1.821478 1_555
Cr2 O12 1.825517 1_555
Cr2 O14 1.838523 1_554
Cr2 O8 2.101614 1_555
Cr2 O7 2.207450 1_554
Cr3 O13 1.722886 1_555
Cr3 O15 1.808294 1_554
Cr3 O17 1.814975 1_555
Cr3 O9 1.926367 1_555
Cr3 O10 1.982586 1_555
Cr3 O12 2.382096 1_555
Cr4 O22 1.722886 1_555
Cr4 O20 1.808294 1_556
Cr4 O18 1.814975 1_555
Cr4 O26 1.926367 1_555
Cr4 O25 1.982586 1_555
Cr4 O23 2.382096 1_555
Cr5 O24 1.803882 1_546
Cr5 O19 1.821478 1_555
Cr5 O23 1.825517 1_555
Cr5 O21 1.838523 1_556
Cr5 O27 2.101614 1_555
Cr5 O28 2.207450 1_556
Cr6 O33 1.744853 1_555
Cr6 O32 1.786032 1_555
Cr6 O30 1.815979 1_555
Cr6 O25 2.003986 1_555
Cr6 O26 2.090241 1_555
Cr6 O29 2.096057 1_555
Cr7 O35 1.828274 1_555
Cr7 O34 1.842149 1_555
Cr7 O31 1.845629 1_555
Cr7 O28 1.938984 1_555
Cr7 O29 2.011061 1_545
Cr7 O27 2.044802 1_555
