# generated using pymatgen
data_Li4Nb2V3Co3O16
_symmetry_space_group_name_H-M   'P 1'
_cell_length_a   5.98985841
_cell_length_b   5.98985841
_cell_length_c   9.78845845
_cell_angle_alpha   89.52032090
_cell_angle_beta   89.52032090
_cell_angle_gamma   59.79772739
_symmetry_Int_Tables_number   1
_chemical_formula_structural   Li4Nb2V3Co3O16
_chemical_formula_sum   'Li4 Nb2 V3 Co3 O16'
_cell_volume   303.50719278
_cell_formula_units_Z   1
loop_
 _symmetry_equiv_pos_site_id
 _symmetry_equiv_pos_as_xyz
  1  'x, y, z'
loop_
 _atom_site_type_symbol
 _atom_site_label
 _atom_site_symmetry_multiplicity
 _atom_site_fract_x
 _atom_site_fract_y
 _atom_site_fract_z
 _atom_site_occupancy
  Li  Li0  1  0.66668500  0.66668500  0.90295500  1
  Li  Li1  1  0.99458500  0.99458500  0.99544100  1
  Li  Li2  1  0.99606200  0.99606200  0.48771300  1
  Li  Li3  1  0.33790000  0.33790000  0.39938400  1
  Nb  Nb0  1  0.65319700  0.65319700  0.48876900  1
  Nb  Nb1  1  0.33383200  0.33383200  0.99988200  1
  V  V0  1  0.82403100  0.82403100  0.22811900  1
  V  V1  1  0.65299500  0.16287100  0.71770200  1
  V  V2  1  0.16287100  0.65299500  0.71770200  1
  Co  Co0  1  0.83525600  0.34148600  0.21168700  1
  Co  Co1  1  0.34148600  0.83525600  0.21168700  1
  Co  Co2  1  0.16900900  0.16900900  0.70861100  1
  O  O0  1  0.82700300  0.32881800  0.59504700  1
  O  O1  1  0.52147200  0.52147200  0.34921500  1
  O  O2  1  0.68528600  0.68528600  0.10877200  1
  O  O3  1  0.98987200  0.98987200  0.29857700  1
  O  O4  1  0.99092600  0.99092600  0.80625900  1
  O  O5  1  0.32881800  0.82700300  0.59504700  1
  O  O6  1  0.96760700  0.53232900  0.35261400  1
  O  O7  1  0.53232900  0.96760700  0.35261400  1
  O  O8  1  0.16607800  0.16607800  0.08132000  1
  O  O9  1  0.83448500  0.83448500  0.60280100  1
  O  O10  1  0.49621500  0.03805900  0.83691100  1
  O  O11  1  0.03805900  0.49621500  0.83691100  1
  O  O12  1  0.35118000  0.35118000  0.60440300  1
  O  O13  1  0.65889700  0.16539200  0.09043800  1
  O  O14  1  0.48097800  0.48097800  0.83537300  1
  O  O15  1  0.16539200  0.65889700  0.09043800  1
loop_
_geom_bond_atom_site_label_1
_geom_bond_atom_site_label_2
_geom_bond_distance
_geom_bond_site_symmetry_2
Li0 O2 2.025728 1_556
Li0 O10 2.027450 1_565
Li0 O11 2.027450 1_655
Li0 O14 2.044954 1_555
Li1 O4 1.852557 1_555
Li1 O15 1.967052 1_656
Li1 O13 1.967052 1_566
Li1 O8 1.976751 1_666
Li2 O3 1.853086 1_555
Li2 O9 2.012048 1_555
Li2 O0 2.022011 1_565
Li2 O5 2.022011 1_655
Li3 O1 1.964084 1_555
Li3 O6 1.973481 1_455
Li3 O7 1.973481 1_545
Li3 O12 2.012882 1_555
Nb0 O1 1.942558 1_555
Nb0 O5 1.972406 1_555
Nb0 O0 1.972406 1_555
Nb0 O6 2.109366 1_555
Nb0 O7 2.109366 1_555
Nb0 O9 2.197989 1_555
Nb1 O13 1.905851 1_556
Nb1 O15 1.905851 1_556
Nb1 O8 1.908875 1_556
Nb1 O14 2.209244 1_555
Nb1 O10 2.217466 1_555
Nb1 O11 2.217466 1_555
Co0 O3 2.009372 1_545
Co0 O2 2.044936 1_555
Co0 O1 2.109589 1_555
Co0 O8 2.131754 1_655
Co0 O6 2.189654 1_555
Co0 O13 2.190901 1_555
Co1 O3 2.009372 1_455
Co1 O2 2.044936 1_555
Co1 O1 2.109589 1_555
Co1 O8 2.131754 1_565
Co1 O7 2.189654 1_555
Co1 O15 2.190901 1_555
Co2 O4 2.073620 1_445
Co2 O5 2.096662 1_545
Co2 O0 2.096662 1_455
Co2 O10 2.124082 1_555
Co2 O11 2.124082 1_555
Co2 O12 2.140674 1_555
O0 V1 2.125385 1_555
O2 V0 1.863726 1_555
O3 V0 1.861435 1_555
O4 V2 1.956102 1_655
O4 V1 1.956102 1_565
O5 V2 2.125385 1_555
O6 V0 1.935871 1_555
O7 V0 1.935871 1_555
O9 V1 2.044743 1_565
O9 V2 2.044743 1_655
O10 V1 1.864350 1_555
O11 V2 1.864350 1_555
O12 V2 1.931702 1_555
O12 V1 1.931702 1_555
O13 V0 2.217385 1_545
O14 V2 2.015082 1_555
O14 V1 2.015082 1_555
O15 V0 2.217385 1_455
