# generated using pymatgen
data_LiV2OF7
_symmetry_space_group_name_H-M   'P 1'
_cell_length_a   5.66052505
_cell_length_b   10.97942871
_cell_length_c   5.73825273
_cell_angle_alpha   72.23620156
_cell_angle_beta   89.99310621
_cell_angle_gamma   90.01226290
_symmetry_Int_Tables_number   1
_chemical_formula_structural   LiV2OF7
_chemical_formula_sum   'Li2 V4 O2 F14'
_cell_volume   339.62534403
_cell_formula_units_Z   2
loop_
 _symmetry_equiv_pos_site_id
 _symmetry_equiv_pos_as_xyz
  1  'x, y, z'
loop_
 _atom_site_type_symbol
 _atom_site_label
 _atom_site_symmetry_multiplicity
 _atom_site_fract_x
 _atom_site_fract_y
 _atom_site_fract_z
 _atom_site_occupancy
  Li  Li0  1  0.87181500  0.50622600  0.93745700  1
  Li  Li1  1  0.62804200  0.00614800  0.43766900  1
  V  V0  1  0.25117300  0.68538300  0.45490300  1
  V  V1  1  0.24886100  0.18531700  0.95524200  1
  V  V2  1  0.76414200  0.81089400  0.06784700  1
  V  V3  1  0.73596900  0.31087300  0.56793700  1
  O  O0  1  0.97148200  0.74474100  0.30514300  1
  O  O1  1  0.52837600  0.24469800  0.80514500  1
  F  F0  1  0.10732900  0.30258200  0.06698300  1
  F  F1  1  0.39287000  0.80268000  0.56674600  1
  F  F2  1  0.35024800  0.09496100  0.26218400  1
  F  F3  1  0.14978400  0.59503600  0.76178000  1
  F  F4  1  0.70946400  0.40674900  0.24997400  1
  F  F5  1  0.79066600  0.90679100  0.74992400  1
  F  F6  1  0.43622700  0.77890500  0.14588300  1
  F  F7  1  0.06366100  0.27874200  0.64635200  1
  F  F8  1  0.74006000  0.16347700  0.46855100  1
  F  F9  1  0.75993900  0.66345800  0.96868700  1
  F  F10  1  0.31850700  0.54519600  0.37774600  1
  F  F11  1  0.18134700  0.04501900  0.87818500  1
  F  F12  1  0.74076700  0.96103500  0.16293000  1
  F  F13  1  0.75926900  0.46108600  0.66273000  1
loop_
_geom_bond_atom_site_label_1
_geom_bond_atom_site_label_2
_geom_bond_distance
_geom_bond_site_symmetry_2
O0 V2 1.776628 1_555
O0 V0 1.824494 1_655
O1 V3 1.776871 1_555
O1 V1 1.823963 1_555
F0 V1 1.792955 1_554
F0 Li0 2.513240 1_454
F1 V0 1.793823 1_555
F1 Li1 2.510004 1_565
F2 V1 1.830315 1_554
F2 Li1 1.959430 1_555
F3 V0 1.829731 1_555
F3 Li0 1.960084 1_455
F4 V3 1.813225 1_555
F4 Li0 2.014302 1_554
F5 V2 1.813033 1_556
F5 Li1 2.013972 1_565
F6 V2 1.916455 1_555
F6 V0 2.045495 1_555
F7 V3 1.916045 1_455
F7 V1 2.045577 1_555
F8 V3 1.872946 1_555
F8 Li1 1.898329 1_555
F9 V2 1.872631 1_556
F9 Li0 1.898035 1_555
F10 V0 1.768158 1_555
F11 V1 1.769116 1_555
F12 V2 1.892489 1_555
F12 Li1 1.901126 1_565
F13 V3 1.892256 1_555
F13 Li0 1.900932 1_555
