# generated using pymatgen
data_Li2FeSiO4
_symmetry_space_group_name_H-M   'P 1'
_cell_length_a   5.03460686
_cell_length_b   5.49044731
_cell_length_c   12.68987136
_cell_angle_alpha   91.72785274
_cell_angle_beta   90.01369517
_cell_angle_gamma   90.09186581
_symmetry_Int_Tables_number   1
_chemical_formula_structural   Li2FeSiO4
_chemical_formula_sum   'Li8 Fe4 Si4 O16'
_cell_volume   350.61656041
_cell_formula_units_Z   4
loop_
 _symmetry_equiv_pos_site_id
 _symmetry_equiv_pos_as_xyz
  1  'x, y, z'
loop_
 _atom_site_type_symbol
 _atom_site_label
 _atom_site_symmetry_multiplicity
 _atom_site_fract_x
 _atom_site_fract_y
 _atom_site_fract_z
 _atom_site_occupancy
  Li  Li0  1  0.50423000  0.83564400  0.25120200  1
  Li  Li1  1  0.50415800  0.83568900  0.75110400  1
  Li  Li2  1  0.00333700  0.16326100  0.24738300  1
  Li  Li3  1  0.00331600  0.16327100  0.74757100  1
  Li  Li4  1  0.00463300  0.65039400  0.13698900  1
  Li  Li5  1  0.00476300  0.65070500  0.63690200  1
  Li  Li6  1  0.50308100  0.34931100  0.36132200  1
  Li  Li7  1  0.50319500  0.34921900  0.86148700  1
  Fe  Fe0  1  0.01140600  0.18231500  0.99185500  1
  Fe  Fe1  1  0.51221500  0.81846400  0.50680900  1
  Fe  Fe2  1  0.01118500  0.18282200  0.49189200  1
  Fe  Fe3  1  0.51207600  0.81757600  0.00671800  1
  Si  Si0  1  0.99874100  0.67671400  0.37143100  1
  Si  Si1  1  0.99865600  0.67670900  0.87141700  1
  Si  Si2  1  0.49855500  0.32293700  0.12723900  1
  Si  Si3  1  0.49843900  0.32289600  0.62732800  1
  O  O0  1  0.09417700  0.81365500  0.48729000  1
  O  O1  1  0.09395600  0.81350400  0.98729800  1
  O  O2  1  0.59406100  0.18685300  0.01142000  1
  O  O3  1  0.59373900  0.18651900  0.51149400  1
  O  O4  1  0.11225700  0.81985700  0.27057400  1
  O  O5  1  0.11225700  0.81985600  0.77058700  1
  O  O6  1  0.61149700  0.17923100  0.22802100  1
  O  O7  1  0.61155300  0.17921300  0.72808700  1
  O  O8  1  0.67020600  0.67954100  0.37287300  1
  O  O9  1  0.67001300  0.68033800  0.87271600  1
  O  O10  1  0.16998100  0.31989500  0.12584400  1
  O  O11  1  0.16981900  0.31967300  0.62589500  1
  O  O12  1  0.60284200  0.60923400  0.12648300  1
  O  O13  1  0.60303100  0.60894100  0.62632300  1
  O  O14  1  0.10198400  0.39021000  0.37182500  1
  O  O15  1  0.10206900  0.39035600  0.87188200  1
loop_
_geom_bond_atom_site_label_1
_geom_bond_atom_site_label_2
_geom_bond_distance
_geom_bond_site_symmetry_2
Li0 O8 1.974394 1_555
Li0 O4 1.990814 1_555
Li0 O6 1.991767 1_565
Li0 O12 2.044581 1_555
Li1 O9 1.971650 1_555
Li1 O5 1.990642 1_555
Li1 O7 1.991246 1_565
Li1 O13 2.046583 1_555
Li2 O10 1.974970 1_555
Li2 O6 1.990342 1_455
Li2 O4 1.994719 1_545
Li2 O14 2.042549 1_555
Li3 O11 1.975467 1_555
Li3 O7 1.990144 1_455
Li3 O5 1.994416 1_545
Li3 O15 2.041863 1_555
Li4 O4 1.983871 1_555
Li4 O10 1.998786 1_555
Li4 O12 2.038969 1_455
Li4 O1 2.171237 1_554
Li5 O5 1.984002 1_555
Li5 O11 2.000751 1_555
Li5 O13 2.039090 1_455
Li5 O0 2.170057 1_555
Li6 O6 1.984485 1_555
Li6 O8 1.998961 1_555
Li6 O14 2.036125 1_555
Li6 O3 2.177698 1_555
Li7 O7 1.985277 1_555
Li7 O9 2.002546 1_555
Li7 O15 2.036329 1_555
Li7 O2 2.174205 1_556
Fe0 O15 1.983536 1_555
Fe0 O10 2.004737 1_556
Fe0 O1 2.066904 1_545
Fe0 O2 2.115943 1_456
Fe1 O13 1.984719 1_555
Fe1 O8 2.006899 1_555
Fe1 O3 2.060500 1_565
Fe1 O0 2.119153 1_555
Fe2 O14 1.982487 1_555
Fe2 O11 2.003604 1_555
Fe2 O0 2.069269 1_545
Fe2 O3 2.116462 1_455
Fe3 O12 1.983253 1_555
Fe3 O9 2.004224 1_554
Fe3 O2 2.067530 1_565
Fe3 O1 2.119391 1_554
O0 Si0 1.699883 1_455
O1 Si1 1.699595 1_455
O2 Si2 1.698477 1_555
O3 Si3 1.699012 1_555
O4 Si0 1.625394 1_455
O5 Si1 1.625281 1_455
O6 Si2 1.625859 1_555
O7 Si3 1.625865 1_555
O8 Si0 1.654243 1_555
O9 Si1 1.654820 1_555
O10 Si2 1.654384 1_555
O11 Si3 1.654628 1_555
O12 Si2 1.656772 1_555
O13 Si3 1.656057 1_555
O14 Si0 1.657631 1_455
O15 Si1 1.657142 1_455
