# generated using pymatgen
data_Ge2As2O7
_symmetry_space_group_name_H-M   'P 1'
_cell_length_a   7.21412400
_cell_length_b   7.28262857
_cell_length_c   13.07289814
_cell_angle_alpha   90.70420120
_cell_angle_beta   96.09822641
_cell_angle_gamma   94.12946618
_symmetry_Int_Tables_number   1
_chemical_formula_structural   Ge2As2O7
_chemical_formula_sum   'Ge8 As8 O28'
_cell_volume   681.02388617
_cell_formula_units_Z   4
loop_
 _symmetry_equiv_pos_site_id
 _symmetry_equiv_pos_as_xyz
  1  'x, y, z'
loop_
 _atom_site_type_symbol
 _atom_site_label
 _atom_site_symmetry_multiplicity
 _atom_site_fract_x
 _atom_site_fract_y
 _atom_site_fract_z
 _atom_site_occupancy
  Ge  Ge0  1  0.93230000  0.91613300  0.12079500  1
  Ge  Ge1  1  0.31174500  0.50906000  0.19119700  1
  Ge  Ge2  1  0.66207500  0.12938900  0.38103000  1
  Ge  Ge3  1  0.26339500  0.65429900  0.40562800  1
  Ge  Ge4  1  0.73660500  0.34570100  0.59437200  1
  Ge  Ge5  1  0.33792500  0.87061100  0.61897000  1
  Ge  Ge6  1  0.68825500  0.49094000  0.80880300  1
  Ge  Ge7  1  0.06770000  0.08386700  0.87920500  1
  As  As0  1  0.84002100  0.31280500  0.02691200  1
  As  As1  1  0.39827500  0.07459100  0.16155600  1
  As  As2  1  0.83555300  0.73422800  0.34475500  1
  As  As3  1  0.07507000  0.26396200  0.33583500  1
  As  As4  1  0.92493000  0.73603800  0.66416500  1
  As  As5  1  0.16444700  0.26577200  0.65524500  1
  As  As6  1  0.60172500  0.92540900  0.83844400  1
  As  As7  1  0.15997900  0.68719500  0.97308800  1
  O  O0  1  0.05420000  0.26874100  0.96912000  1
  O  O1  1  0.77854000  0.07297900  0.05597300  1
  O  O2  1  0.30514600  0.68541500  0.09814900  1
  O  O3  1  0.42482300  0.32507400  0.14094700  1
  O  O4  1  0.79485300  0.83844700  0.21740200  1
  O  O5  1  0.14393700  0.03967000  0.17136200  1
  O  O6  1  0.08750600  0.42878600  0.22745700  1
  O  O7  1  0.41757000  0.62226000  0.30785900  1
  O  O8  1  0.82190800  0.28640900  0.32507500  1
  O  O9  1  0.44684000  0.08994900  0.30207300  1
  O  O10  1  0.08639500  0.80387800  0.36737800  1
  O  O11  1  0.77053000  0.92783700  0.41942800  1
  O  O12  1  0.15570200  0.43724100  0.43752700  1
  O  O13  1  0.59008300  0.24222300  0.48994900  1
  O  O14  1  0.40991700  0.75777700  0.51005100  1
  O  O15  1  0.84429800  0.56275900  0.56247300  1
  O  O16  1  0.22947000  0.07216300  0.58057200  1
  O  O17  1  0.91360500  0.19612200  0.63262200  1
  O  O18  1  0.55316000  0.91005100  0.69792700  1
  O  O19  1  0.17809200  0.71359100  0.67492500  1
  O  O20  1  0.58243000  0.37774000  0.69214100  1
  O  O21  1  0.91249400  0.57121400  0.77254300  1
  O  O22  1  0.85606300  0.96033000  0.82863800  1
  O  O23  1  0.20514700  0.16155300  0.78259800  1
  O  O24  1  0.57517700  0.67492600  0.85905400  1
  O  O25  1  0.69485400  0.31458500  0.90185100  1
  O  O26  1  0.22146000  0.92702100  0.94402700  1
  O  O27  1  0.94580000  0.73125900  0.03088000  1
loop_
_geom_bond_atom_site_label_1
_geom_bond_atom_site_label_2
_geom_bond_distance
_geom_bond_site_symmetry_2
Ge0 O4 1.760997 1_555
Ge0 O5 1.774984 1_665
Ge0 O27 1.791140 1_555
Ge0 O1 1.805498 1_565
Ge1 O3 1.772562 1_555
Ge1 O2 1.779414 1_555
Ge1 O6 1.793575 1_555
Ge1 O7 1.794294 1_555
Ge2 O11 1.765991 1_545
Ge2 O9 1.773940 1_555
Ge2 O13 1.778272 1_555
Ge2 O8 1.783851 1_555
Ge3 O14 1.761291 1_555
Ge3 O10 1.773473 1_555
Ge3 O12 1.784499 1_555
Ge3 O7 1.804771 1_555
Ge4 O13 1.761291 1_555
Ge4 O17 1.773473 1_555
Ge4 O15 1.784499 1_555
Ge4 O20 1.804771 1_555
Ge5 O16 1.765991 1_565
Ge5 O18 1.773940 1_555
Ge5 O14 1.778272 1_555
Ge5 O19 1.783851 1_555
Ge6 O24 1.772567 1_555
Ge6 O25 1.779414 1_555
Ge6 O21 1.793575 1_555
Ge6 O20 1.794294 1_555
Ge7 O23 1.760997 1_555
Ge7 O22 1.774984 1_445
Ge7 O0 1.791140 1_555
Ge7 O26 1.805498 1_545
As0 O1 1.825399 1_555
As0 O0 1.837014 1_654
As0 O25 1.846222 1_554
As1 O9 1.833647 1_555
As1 O3 1.846512 1_555
As1 O5 1.852368 1_555
As2 O11 1.822020 1_555
As2 O10 1.835710 1_655
As2 O4 1.842110 1_555
As3 O8 1.836033 1_455
As3 O12 1.840351 1_555
As3 O6 1.873381 1_555
As4 O19 1.836033 1_655
As4 O15 1.840351 1_555
As4 O21 1.873381 1_555
As5 O16 1.822020 1_555
As5 O17 1.835710 1_455
As5 O23 1.842110 1_555
As6 O18 1.833647 1_555
As6 O24 1.846515 1_555
As6 O22 1.852368 1_555
As7 O26 1.825399 1_555
As7 O27 1.837014 1_456
As7 O2 1.846222 1_556
