# generated using pymatgen
data_Cd(CoO2)2
_symmetry_space_group_name_H-M   'P 1'
_cell_length_a   5.91019447
_cell_length_b   5.91199713
_cell_length_c   5.91019447
_cell_angle_alpha   60.01008036
_cell_angle_beta   90.00000000
_cell_angle_gamma   119.98991964
_symmetry_Int_Tables_number   1
_chemical_formula_structural   Cd(CoO2)2
_chemical_formula_sum   'Cd2 Co4 O8'
_cell_volume   146.06798810
_cell_formula_units_Z   2
loop_
 _symmetry_equiv_pos_site_id
 _symmetry_equiv_pos_as_xyz
  1  'x, y, z'
loop_
 _atom_site_type_symbol
 _atom_site_label
 _atom_site_symmetry_multiplicity
 _atom_site_fract_x
 _atom_site_fract_y
 _atom_site_fract_z
 _atom_site_occupancy
  Cd  Cd0  1  -0.00000000  -0.00000000  0.00000000  1
  Cd  Cd1  1  0.75000000  0.50000000  0.75000000  1
  Co  Co0  1  0.37500000  0.25000000  0.37500000  1
  Co  Co1  1  0.87500000  0.25000000  0.37500000  1
  Co  Co2  1  0.37500000  0.75000000  0.37500000  1
  Co  Co3  1  0.37500000  0.75000000  0.87500000  1
  O  O0  1  0.14624827  0.29249853  0.14602816  1
  O  O1  1  0.60375173  0.20750147  0.18852569  1
  O  O2  1  0.56147431  0.70750147  0.14624827  1
  O  O3  1  0.14602816  0.70750147  0.14624827  1
  O  O4  1  0.60375173  0.20750147  0.60397184  1
  O  O5  1  0.14624827  0.29249853  0.56147431  1
  O  O6  1  0.18852569  0.79249853  0.60375173  1
  O  O7  1  0.60397184  0.79249853  0.60375173  1
loop_
_geom_bond_atom_site_label_1
_geom_bond_atom_site_label_2
_geom_bond_distance
_geom_bond_site_symmetry_2
Cd0 O2 2.116604 1_445
Cd0 O5 2.116604 1_554
Cd0 O0 2.116609 1_555
Cd0 O3 2.116609 1_545
Cd1 O6 2.116604 1_655
Cd1 O1 2.116604 1_556
Cd1 O7 2.116609 1_555
Cd1 O4 2.116609 1_555
Co0 O0 1.929236 1_555
Co0 O4 1.929236 1_555
Co0 O5 1.929239 1_555
Co0 O1 1.929239 1_555
Co0 O6 1.929375 1_545
Co0 O2 1.929375 1_555
Co1 O4 1.929227 1_555
Co1 O0 1.929227 1_655
Co1 O1 1.929230 1_555
Co1 O5 1.929230 1_655
Co1 O7 1.929376 1_545
Co1 O3 1.929376 1_655
Co2 O3 1.929236 1_555
Co2 O7 1.929236 1_555
Co2 O2 1.929239 1_555
Co2 O6 1.929239 1_555
Co2 O1 1.929375 1_565
Co2 O5 1.929375 1_555
Co3 O7 1.929227 1_555
Co3 O3 1.929227 1_556
Co3 O6 1.929230 1_555
Co3 O2 1.929230 1_556
Co3 O4 1.929376 1_565
Co3 O0 1.929376 1_556
