# generated using pymatgen
data_Li4V3P4O15
_symmetry_space_group_name_H-M   'P 1'
_cell_length_a   6.65454900
_cell_length_b   10.68133100
_cell_length_c   17.44770900
_cell_angle_alpha   90.00000000
_cell_angle_beta   90.00000000
_cell_angle_gamma   90.00000000
_symmetry_Int_Tables_number   1
_chemical_formula_structural   Li4V3P4O15
_chemical_formula_sum   'Li16 V12 P16 O60'
_cell_volume   1240.17339416
_cell_formula_units_Z   4
loop_
 _symmetry_equiv_pos_site_id
 _symmetry_equiv_pos_as_xyz
  1  'x, y, z'
loop_
 _atom_site_type_symbol
 _atom_site_label
 _atom_site_symmetry_multiplicity
 _atom_site_fract_x
 _atom_site_fract_y
 _atom_site_fract_z
 _atom_site_occupancy
  Li  Li0  1  0.82224200  0.51794600  0.00390700  1
  Li  Li1  1  0.69685000  0.95185100  0.03380400  1
  Li  Li2  1  0.42513700  0.17827800  0.09412900  1
  Li  Li3  1  0.85371900  0.75571400  0.20705300  1
  Li  Li4  1  0.35371900  0.25571400  0.29294700  1
  Li  Li5  1  0.92513700  0.67827800  0.40587100  1
  Li  Li6  1  0.19685000  0.45185100  0.46619600  1
  Li  Li7  1  0.32224200  0.01794600  0.49609300  1
  Li  Li8  1  0.82224200  0.98205400  0.50390700  1
  Li  Li9  1  0.69685000  0.54814900  0.53380400  1
  Li  Li10  1  0.42513700  0.32172200  0.59412900  1
  Li  Li11  1  0.85371900  0.74428600  0.70705300  1
  Li  Li12  1  0.35371900  0.24428600  0.79294700  1
  Li  Li13  1  0.92513700  0.82172200  0.90587100  1
  Li  Li14  1  0.19685000  0.04814900  0.96619600  1
  Li  Li15  1  0.32224200  0.48205400  0.99609300  1
  V  V0  1  0.08889100  0.50778500  0.13500600  1
  V  V1  1  0.09907000  0.00165600  0.16709400  1
  V  V2  1  0.82104500  0.26009100  0.24600600  1
  V  V3  1  0.32104500  0.76009100  0.25399400  1
  V  V4  1  0.59907000  0.50165600  0.33290600  1
  V  V5  1  0.58889100  0.00778500  0.36499400  1
  V  V6  1  0.08889100  0.99221500  0.63500600  1
  V  V7  1  0.09907000  0.49834400  0.66709400  1
  V  V8  1  0.82104500  0.23990900  0.74600600  1
  V  V9  1  0.32104500  0.73990900  0.75399400  1
  V  V10  1  0.59907000  0.99834400  0.83290600  1
  V  V11  1  0.58889100  0.49221500  0.86499400  1
  P  P0  1  0.14206000  0.77265900  0.04996700  1
  P  P1  1  0.96874900  0.24253400  0.06042100  1
  P  P2  1  0.58376700  0.51628000  0.17006800  1
  P  P3  1  0.59585500  0.99600300  0.20264700  1
  P  P4  1  0.09585500  0.49600300  0.29735300  1
  P  P5  1  0.08376700  0.01628000  0.32993200  1
  P  P6  1  0.46874900  0.74253400  0.43957900  1
  P  P7  1  0.64206000  0.27265900  0.45003300  1
  P  P8  1  0.14206000  0.72734100  0.54996700  1
  P  P9  1  0.96874900  0.25746600  0.56042100  1
  P  P10  1  0.58376700  0.98372000  0.67006800  1
  P  P11  1  0.59585500  0.50399700  0.70264700  1
  P  P12  1  0.09585500  0.00399700  0.79735300  1
  P  P13  1  0.08376700  0.48372000  0.82993200  1
  P  P14  1  0.46874900  0.75746600  0.93957900  1
  P  P15  1  0.64206000  0.22734100  0.95003300  1
  O  O0  1  0.00775800  0.86577300  0.00682400  1
  O  O1  1  0.37147900  0.80332000  0.02109600  1
  O  O2  1  0.09874800  0.63422200  0.03397300  1
  O  O3  1  0.06112600  0.37165100  0.04461900  1
  O  O4  1  0.13188800  0.14100800  0.07283300  1
  O  O5  1  0.80549000  0.23912600  0.12126200  1
  O  O6  1  0.40283600  0.50035900  0.11690500  1
  O  O7  1  0.14573300  0.80287700  0.13628000  1
  O  O8  1  0.77536600  0.53818500  0.12258800  1
  O  O9  1  0.41657900  0.01711400  0.14886100  1
  O  O10  1  0.78060400  0.96412200  0.15212000  1
  O  O11  1  0.59513500  0.39993400  0.22567300  1
  O  O12  1  0.56714700  0.62988300  0.22887800  1
  O  O13  1  0.06750700  0.38748200  0.23821800  1
  O  O14  1  0.11090000  0.61412900  0.24395600  1
  O  O15  1  0.61090000  0.11412900  0.25604400  1
  O  O16  1  0.56750700  0.88748200  0.26178200  1
  O  O17  1  0.06714700  0.12988300  0.27112200  1
  O  O18  1  0.09513500  0.89993400  0.27432700  1
  O  O19  1  0.28060400  0.46412200  0.34788000  1
  O  O20  1  0.91657900  0.51711400  0.35113900  1
  O  O21  1  0.27536600  0.03818500  0.37741200  1
  O  O22  1  0.64573300  0.30287700  0.36371900  1
  O  O23  1  0.90283600  0.00035900  0.38309500  1
  O  O24  1  0.30549000  0.73912600  0.37873800  1
  O  O25  1  0.63188800  0.64100800  0.42716700  1
  O  O26  1  0.56112600  0.87165100  0.45538100  1
  O  O27  1  0.59874800  0.13422200  0.46602700  1
  O  O28  1  0.87147900  0.30332000  0.47890400  1
  O  O29  1  0.50775800  0.36577300  0.49317600  1
  O  O30  1  0.00775800  0.63422700  0.50682400  1
  O  O31  1  0.37147900  0.69668000  0.52109600  1
  O  O32  1  0.09874800  0.86577800  0.53397300  1
  O  O33  1  0.06112600  0.12834900  0.54461900  1
  O  O34  1  0.13188800  0.35899200  0.57283300  1
  O  O35  1  0.80549000  0.26087400  0.62126200  1
  O  O36  1  0.40283600  0.99964100  0.61690500  1
  O  O37  1  0.14573300  0.69712300  0.63628100  1
  O  O38  1  0.77536600  0.96181500  0.62258800  1
  O  O39  1  0.41657900  0.48288600  0.64886100  1
  O  O40  1  0.78060400  0.53587800  0.65212000  1
  O  O41  1  0.59513500  0.10006600  0.72567300  1
  O  O42  1  0.56714700  0.87011700  0.72887800  1
  O  O43  1  0.06750700  0.11251800  0.73821800  1
  O  O44  1  0.11090000  0.88587100  0.74395600  1
  O  O45  1  0.61090000  0.38587100  0.75604400  1
  O  O46  1  0.56750700  0.61251800  0.76178200  1
  O  O47  1  0.06714700  0.37011700  0.77112200  1
  O  O48  1  0.09513500  0.60006600  0.77432700  1
  O  O49  1  0.28060400  0.03587800  0.84788000  1
  O  O50  1  0.91657900  0.98288600  0.85113900  1
  O  O51  1  0.27536600  0.46181500  0.87741200  1
  O  O52  1  0.64573300  0.19712300  0.86371900  1
  O  O53  1  0.90283600  0.49964100  0.88309500  1
  O  O54  1  0.30549000  0.76087400  0.87873800  1
  O  O55  1  0.63188800  0.85899200  0.92716700  1
  O  O56  1  0.56112600  0.62834900  0.95538100  1
  O  O57  1  0.59874800  0.36577800  0.96602700  1
  O  O58  1  0.87147900  0.19668000  0.97890400  1
  O  O59  1  0.50775800  0.13422700  0.99317600  1
loop_
_geom_bond_atom_site_label_1
_geom_bond_atom_site_label_2
_geom_bond_distance
_geom_bond_site_symmetry_2
Li0 O8 2.105204 1_555
Li0 O53 2.183821 1_554
Li0 O56 2.264236 1_554
Li0 O2 2.281094 1_655
Li0 O57 2.300112 1_554
Li0 O3 2.339531 1_655
Li1 O10 2.142271 1_555
Li1 O55 2.152298 1_554
Li1 O0 2.312468 1_655
Li1 O59 2.425003 1_564
Li2 O59 1.904259 1_554
Li2 O9 1.969402 1_555
Li2 O4 2.025995 1_555
Li3 O7 2.356838 1_655
Li3 O12 2.363923 1_555
Li3 O14 2.372898 1_655
Li3 O10 2.471998 1_555
Li3 O18 2.516280 1_655
Li3 O16 2.553490 1_555
Li4 O22 2.356829 1_555
Li4 O17 2.363923 1_555
Li4 O15 2.372898 1_555
Li4 O19 2.471998 1_555
Li4 O11 2.516280 1_555
Li4 O13 2.553490 1_555
Li5 O30 1.904259 1_655
Li5 O20 1.969402 1_555
Li5 O25 2.025995 1_555
Li6 O19 2.142271 1_555
Li6 O34 2.152298 1_555
Li6 O29 2.312468 1_555
Li6 O30 2.425003 1_555
Li7 O21 2.105204 1_555
Li7 O36 2.183821 1_545
Li7 O33 2.264236 1_555
Li7 O27 2.281094 1_555
Li7 O32 2.300112 1_545
Li7 O26 2.339531 1_545
Li8 O38 2.105204 1_555
Li8 O23 2.183821 1_565
Li8 O26 2.264236 1_555
Li8 O32 2.281094 1_655
Li8 O27 2.300112 1_565
Li8 O33 2.339531 1_665
Li9 O40 2.142271 1_555
Li9 O25 2.152298 1_555
Li9 O30 2.312468 1_655
Li9 O29 2.425003 1_555
Li10 O29 1.904259 1_555
Li10 O39 1.969402 1_555
Li10 O34 2.025995 1_555
Li11 O37 2.356829 1_655
Li11 O42 2.363923 1_555
Li11 O44 2.372898 1_655
Li11 O40 2.471998 1_555
Li11 O48 2.516280 1_655
Li11 O46 2.553490 1_555
Li12 O52 2.356829 1_555
Li12 O47 2.363923 1_555
Li12 O45 2.372898 1_555
Li12 O49 2.471998 1_555
Li12 O41 2.516280 1_555
Li12 O43 2.553490 1_555
Li13 O0 1.904259 1_656
Li13 O50 1.969402 1_555
Li13 O55 2.025995 1_555
Li14 O49 2.142271 1_555
Li14 O4 2.152298 1_556
Li14 O59 2.312468 1_555
Li14 O0 2.425003 1_546
Li15 O51 2.105204 1_555
Li15 O6 2.183821 1_556
Li15 O3 2.264236 1_556
Li15 O57 2.281094 1_555
Li15 O2 2.300112 1_556
Li15 O56 2.339531 1_555
O0 P0 1.534455 1_555
O1 P14 1.637609 1_554
O1 P0 1.640657 1_555
O2 P0 1.532147 1_555
O2 V0 2.221630 1_555
O3 P1 1.534906 1_455
O3 V0 2.153044 1_555
O4 P1 1.549663 1_455
O4 V1 2.228914 1_555
O5 P1 1.519369 1_555
O5 V2 2.190434 1_555
O6 P2 1.529366 1_555
O6 V0 2.114387 1_555
O7 P0 1.540359 1_555
O7 V1 2.212138 1_565
O7 V3 2.405852 1_555
O8 P2 1.538394 1_555
O8 V0 2.122572 1_655
O9 P3 1.534527 1_545
O9 V1 2.143064 1_555
O10 P3 1.550684 1_555
O10 V1 2.172602 1_665
O11 P2 1.578401 1_555
O11 V2 2.148726 1_555
O11 V4 2.163736 1_555
O12 P2 1.592962 1_555
O12 V3 2.192806 1_555
O12 V4 2.283733 1_555
O13 P4 1.563254 1_555
O13 V2 2.135390 1_455
O13 V0 2.216843 1_555
O14 P4 1.571623 1_555
O14 V3 2.101654 1_555
O14 V0 2.219287 1_555
O15 P3 1.571623 1_545
O15 V2 2.101654 1_555
O15 V5 2.219287 1_555
O16 P3 1.563254 1_555
O16 V3 2.135390 1_555
O16 V5 2.216843 1_565
O17 P5 1.592962 1_555
O17 V2 2.192806 1_455
O17 V1 2.283733 1_555
O18 P5 1.578401 1_565
O18 V3 2.148726 1_555
O18 V1 2.163736 1_565
O19 P4 1.550684 1_555
O19 V4 2.172602 1_555
O20 P4 1.534527 1_655
O20 V4 2.143064 1_555
O21 P5 1.538394 1_555
O21 V5 2.122572 1_555
O22 P7 1.540376 1_555
O22 V4 2.212134 1_555
O22 V2 2.405837 1_555
O23 P5 1.529366 1_655
O23 V5 2.114387 1_555
O24 P6 1.519369 1_555
O24 V3 2.190434 1_555
O25 P6 1.549663 1_555
O25 V4 2.228914 1_555
O26 P6 1.534906 1_555
O26 V5 2.153044 1_565
O27 P7 1.532147 1_555
O27 V5 2.221630 1_555
O28 P9 1.637609 1_555
O28 P7 1.640657 1_555
O29 P7 1.534455 1_555
O30 P8 1.534455 1_555
O31 P6 1.637609 1_555
O31 P8 1.640657 1_555
O32 P8 1.532147 1_555
O32 V6 2.221630 1_555
O33 P9 1.534906 1_455
O33 V6 2.153044 1_545
O34 P9 1.549663 1_455
O34 V7 2.228914 1_555
O35 P9 1.519369 1_555
O35 V8 2.190434 1_555
O36 P10 1.529366 1_555
O36 V6 2.114387 1_555
O37 P8 1.540376 1_555
O37 V7 2.212134 1_555
O37 V9 2.405837 1_555
O38 P10 1.538394 1_555
O38 V6 2.122572 1_655
O39 P11 1.534527 1_555
O39 V7 2.143064 1_555
O40 P11 1.550684 1_555
O40 V7 2.172602 1_655
O41 P10 1.578401 1_545
O41 V8 2.148726 1_555
O41 V10 2.163736 1_545
O42 P10 1.592962 1_555
O42 V9 2.192806 1_555
O42 V10 2.283733 1_555
O43 P12 1.563254 1_555
O43 V8 2.135390 1_455
O43 V6 2.216843 1_545
O44 P12 1.571623 1_565
O44 V9 2.101654 1_555
O44 V6 2.219287 1_555
O45 P11 1.571623 1_555
O45 V8 2.101654 1_555
O45 V11 2.219287 1_555
O46 P11 1.563254 1_555
O46 V9 2.135390 1_555
O46 V11 2.216843 1_555
O47 P13 1.592962 1_555
O47 V8 2.192806 1_455
O47 V7 2.283733 1_555
O48 P13 1.578401 1_555
O48 V9 2.148726 1_555
O48 V7 2.163736 1_555
O49 P12 1.550684 1_555
O49 V10 2.172602 1_545
O50 P12 1.534527 1_665
O50 V10 2.143064 1_555
O51 P13 1.538394 1_555
O51 V11 2.122572 1_555
O52 P15 1.540376 1_555
O52 V10 2.212134 1_545
O52 V8 2.405837 1_555
O53 P13 1.529366 1_655
O53 V11 2.114387 1_555
O54 P14 1.519369 1_555
O54 V9 2.190434 1_555
O55 P14 1.549663 1_555
O55 V10 2.228914 1_555
O56 P14 1.534906 1_555
O56 V11 2.153044 1_555
O57 P15 1.532147 1_555
O57 V11 2.221630 1_555
O58 P1 1.637609 1_556
O58 P15 1.640657 1_555
O59 P15 1.534455 1_555
