# generated using pymatgen
data_Li2VP4(H4O5)4
_symmetry_space_group_name_H-M   'P 1'
_cell_length_a   10.70936000
_cell_length_b   7.19374500
_cell_length_c   12.06450119
_cell_angle_alpha   64.27951996
_cell_angle_beta   90.00000000
_cell_angle_gamma   90.00000000
_symmetry_Int_Tables_number   1
_chemical_formula_structural   Li2VP4(H4O5)4
_chemical_formula_sum   'Li4 V2 P8 H32 O40'
_cell_volume   837.36556647
_cell_formula_units_Z   2
loop_
 _symmetry_equiv_pos_site_id
 _symmetry_equiv_pos_as_xyz
  1  'x, y, z'
loop_
 _atom_site_type_symbol
 _atom_site_label
 _atom_site_symmetry_multiplicity
 _atom_site_fract_x
 _atom_site_fract_y
 _atom_site_fract_z
 _atom_site_occupancy
  Li  Li0  1  0.84067400  0.20237200  0.04641800  1
  Li  Li1  1  0.34067400  0.79762800  0.45358200  1
  Li  Li2  1  0.65932600  0.20237200  0.54641800  1
  Li  Li3  1  0.15932600  0.79762800  0.95358200  1
  V  V0  1  0.50000000  0.50000000  0.00000000  1
  V  V1  1  0.00000000  0.50000000  0.50000000  1
  P  P0  1  0.74009900  0.68247800  0.58404300  1
  P  P1  1  0.24009900  0.31752200  0.91595700  1
  P  P2  1  0.54464200  0.03873600  0.22336900  1
  P  P3  1  0.04464200  0.96126400  0.27663100  1
  P  P4  1  0.95535800  0.03873600  0.72336900  1
  P  P5  1  0.45535800  0.96126400  0.77663100  1
  P  P6  1  0.75990100  0.68247800  0.08404300  1
  P  P7  1  0.25990100  0.31752200  0.41595700  1
  H  H0  1  0.09419400  0.74019000  0.60500800  1
  H  H1  1  0.46035100  0.66720900  0.69189900  1
  H  H2  1  0.06693800  0.48206800  0.89548300  1
  H  H3  1  0.87764200  0.50600300  0.81085800  1
  H  H4  1  0.66937200  0.46971100  0.84244900  1
  H  H5  1  0.20909800  0.13688400  0.28929400  1
  H  H6  1  0.16937200  0.53028900  0.65755100  1
  H  H7  1  0.37764200  0.49399700  0.68914200  1
  H  H8  1  0.91363400  0.91021500  0.42421000  1
  H  H9  1  0.60814200  0.89940400  0.44549500  1
  H  H10  1  0.56693800  0.51793200  0.60451700  1
  H  H11  1  0.96035100  0.33279100  0.80810100  1
  H  H12  1  0.59419400  0.25981000  0.89499200  1
  H  H13  1  0.10814200  0.10059600  0.05450500  1
  H  H14  1  0.41363400  0.08978500  0.07579000  1
  H  H15  1  0.70909800  0.86311600  0.21070600  1
  H  H16  1  0.29090200  0.13688400  0.78929400  1
  H  H17  1  0.58636600  0.91021500  0.92421000  1
  H  H18  1  0.89185800  0.89940400  0.94549500  1
  H  H19  1  0.40580600  0.74019000  0.10500800  1
  H  H20  1  0.03964900  0.66720900  0.19189900  1
  H  H21  1  0.43306200  0.48206800  0.39548300  1
  H  H22  1  0.39185800  0.10059600  0.55450500  1
  H  H23  1  0.08636600  0.08978500  0.57579000  1
  H  H24  1  0.62235800  0.50600300  0.31085800  1
  H  H25  1  0.83062800  0.46971100  0.34244900  1
  H  H26  1  0.79090200  0.86311600  0.71070600  1
  H  H27  1  0.33062800  0.53028900  0.15755100  1
  H  H28  1  0.12235800  0.49399700  0.18914200  1
  H  H29  1  0.93306200  0.51793200  0.10451700  1
  H  H30  1  0.53964900  0.33279100  0.30810100  1
  H  H31  1  0.90580600  0.25981000  0.39499200  1
  O  O0  1  0.66776000  0.89378000  0.51658800  1
  O  O1  1  0.75811000  0.64737500  0.71794100  1
  O  O2  1  0.15637800  0.49648100  0.92167600  1
  O  O3  1  0.52643100  0.26843500  0.18513500  1
  O  O4  1  0.43790900  0.60197800  0.63623900  1
  O  O5  1  0.13442100  0.64036000  0.58047500  1
  O  O6  1  0.86088500  0.69448400  0.51529400  1
  O  O7  1  0.36088500  0.30551600  0.98470600  1
  O  O8  1  0.63442100  0.35964000  0.91952500  1
  O  O9  1  0.93790900  0.39802200  0.86376100  1
  O  O10  1  0.96006100  0.03405200  0.35981900  1
  O  O11  1  0.18665800  0.98790300  0.30718400  1
  O  O12  1  0.65637800  0.50351900  0.57832400  1
  O  O13  1  0.01478800  0.10089900  0.14252300  1
  O  O14  1  0.25811000  0.35262500  0.78205900  1
  O  O15  1  0.51478800  0.89910100  0.35747700  1
  O  O16  1  0.68665800  0.01209700  0.19281600  1
  O  O17  1  0.16776000  0.10622000  0.98341200  1
  O  O18  1  0.46006100  0.96594800  0.14018100  1
  O  O19  1  0.97356900  0.26843500  0.68513500  1
  O  O20  1  0.02643100  0.73156500  0.31486500  1
  O  O21  1  0.53993900  0.03405200  0.85981900  1
  O  O22  1  0.83224000  0.89378000  0.01658800  1
  O  O23  1  0.31334200  0.98790300  0.80718400  1
  O  O24  1  0.48521200  0.10089900  0.64252300  1
  O  O25  1  0.74189000  0.64737500  0.21794100  1
  O  O26  1  0.98521200  0.89910100  0.85747700  1
  O  O27  1  0.34362200  0.49648100  0.42167600  1
  O  O28  1  0.81334200  0.01209700  0.69281600  1
  O  O29  1  0.03993900  0.96594800  0.64018100  1
  O  O30  1  0.06209100  0.60197800  0.13623900  1
  O  O31  1  0.36557900  0.64036000  0.08047500  1
  O  O32  1  0.63911500  0.69448400  0.01529400  1
  O  O33  1  0.13911500  0.30551600  0.48470600  1
  O  O34  1  0.86557900  0.35964000  0.41952500  1
  O  O35  1  0.56209100  0.39802200  0.36376100  1
  O  O36  1  0.47356900  0.73156500  0.81486500  1
  O  O37  1  0.84362200  0.50351900  0.07832400  1
  O  O38  1  0.24189000  0.35262500  0.28205900  1
  O  O39  1  0.33224000  0.10622000  0.48341200  1
loop_
_geom_bond_atom_site_label_1
_geom_bond_atom_site_label_2
_geom_bond_distance
_geom_bond_site_symmetry_2
Li0 O13 2.149303 1_655
Li0 O9 2.286786 1_554
Li0 O37 2.359268 1_555
Li0 O16 2.369664 1_555
Li0 O22 2.399834 1_545
Li0 O8 2.645614 1_554
Li1 O15 2.149303 1_555
Li1 O4 2.286786 1_555
Li1 O27 2.359268 1_555
Li1 O11 2.369664 1_555
Li1 O39 2.399834 1_565
Li1 O5 2.645614 1_555
Li2 O24 2.149303 1_555
Li2 O35 2.286786 1_555
Li2 O12 2.359268 1_555
Li2 O28 2.369664 1_555
Li2 O0 2.399834 1_545
Li2 O34 2.645614 1_555
Li3 O26 2.149303 1_455
Li3 O30 2.286786 1_556
Li3 O2 2.359268 1_555
Li3 O23 2.369664 1_555
Li3 O17 2.399834 1_565
Li3 O31 2.645614 1_556
H0 O5 0.986626 1_555
H1 O4 1.001196 1_555
H1 O36 1.741074 1_555
H2 O2 1.027869 1_555
H2 O9 1.619343 1_455
H3 O9 0.998502 1_555
H4 O8 0.996336 1_555
H5 O11 1.025754 1_545
H5 O38 1.556286 1_555
H6 O5 0.996336 1_555
H7 O4 0.998502 1_555
H8 O10 1.021587 1_565
H8 O6 1.566813 1_555
H9 O0 1.055848 1_555
H9 O15 1.459162 1_555
H10 O12 1.027869 1_555
H10 O4 1.619343 1_555
H11 O9 1.001196 1_555
H11 O19 1.741074 1_555
H12 O8 0.986626 1_555
H13 O17 1.055848 1_554
H13 O13 1.459162 1_555
H14 O18 1.021587 1_545
H14 O7 1.566813 1_554
H15 O16 1.025754 1_565
H15 O25 1.556286 1_555
H16 O23 1.025754 1_545
H16 O14 1.556286 1_555
H17 O21 1.021587 1_565
H17 O32 1.566813 1_556
H18 O22 1.055848 1_556
H18 O26 1.459162 1_555
H19 O31 0.986626 1_555
H20 O30 1.001196 1_555
H20 O20 1.741074 1_555
H21 O27 1.027869 1_555
H21 O35 1.619343 1_555
H22 O39 1.055848 1_555
H22 O24 1.459162 1_555
H23 O29 1.021587 1_545
H23 O33 1.566813 1_555
H24 O35 0.998502 1_555
H25 O34 0.996336 1_555
H26 O28 1.025754 1_565
H26 O1 1.556286 1_555
H27 O31 0.996336 1_555
H28 O30 0.998502 1_555
H29 O37 1.027869 1_555
H29 O30 1.619343 1_655
H30 O35 1.001196 1_555
H30 O3 1.741074 1_555
H31 O34 0.986626 1_555
O0 P0 1.580922 1_555
O1 P0 1.535078 1_555
O2 P1 1.594712 1_555
O3 P2 1.523041 1_555
O3 V0 2.148124 1_555
O5 V1 2.210288 1_555
O6 P0 1.518707 1_555
O6 V1 2.105968 1_655
O7 P1 1.518707 1_555
O7 V0 2.105968 1_556
O8 V0 2.210288 1_556
O10 P3 1.599390 1_645
O11 P3 1.595946 1_555
O12 P0 1.594712 1_555
O13 P3 1.522614 1_545
O14 P1 1.535078 1_555
O15 P2 1.522614 1_565
O16 P2 1.595946 1_555
O17 P1 1.580922 1_555
O18 P2 1.599390 1_565
O19 P4 1.523041 1_555
O19 V1 2.148124 1_655
O20 P3 1.523041 1_555
O20 V1 2.148124 1_555
O21 P5 1.599390 1_545
O22 P6 1.580922 1_555
O23 P5 1.595946 1_555
O24 P5 1.522614 1_545
O25 P6 1.535078 1_555
O26 P4 1.522614 1_565
O27 P7 1.594712 1_555
O28 P4 1.595946 1_555
O29 P4 1.599390 1_465
O31 V0 2.210288 1_555
O32 P6 1.518707 1_555
O32 V0 2.105968 1_555
O33 P7 1.518707 1_555
O33 V1 2.105968 1_555
O34 V1 2.210288 1_655
O36 P5 1.523041 1_555
O36 V0 2.148124 1_556
O37 P6 1.594712 1_555
O38 P7 1.535078 1_555
O39 P7 1.580922 1_555
