# generated using pymatgen
data_Pr4S3N2
_symmetry_space_group_name_H-M   'P 1'
_cell_length_a   10.33326583
_cell_length_b   10.33326583
_cell_length_c   12.84751275
_cell_angle_alpha   52.15402681
_cell_angle_beta   52.15402681
_cell_angle_gamma   57.83791175
_symmetry_Int_Tables_number   1
_chemical_formula_structural   Pr4S3N2
_chemical_formula_sum   'Pr16 S12 N8'
_cell_volume   828.25667018
_cell_formula_units_Z   4
loop_
 _symmetry_equiv_pos_site_id
 _symmetry_equiv_pos_as_xyz
  1  'x, y, z'
loop_
 _atom_site_type_symbol
 _atom_site_label
 _atom_site_symmetry_multiplicity
 _atom_site_fract_x
 _atom_site_fract_y
 _atom_site_fract_z
 _atom_site_occupancy
  Pr  Pr0  1  0.28418400  0.36717200  0.56342800  1
  Pr  Pr1  1  0.81704500  0.91523700  0.02533600  1
  Pr  Pr2  1  0.91710000  0.80634400  0.52958900  1
  Pr  Pr3  1  0.71238500  0.63481700  0.44184300  1
  Pr  Pr4  1  0.35855100  0.28631200  0.06226000  1
  Pr  Pr5  1  0.38714400  0.79768800  0.31881900  1
  Pr  Pr6  1  0.19069500  0.57243800  0.74810200  1
  Pr  Pr7  1  0.61213800  0.20291400  0.68892200  1
  Pr  Pr8  1  0.79941500  0.39075400  0.81446700  1
  Pr  Pr9  1  0.63259500  0.72242900  0.93443400  1
  Pr  Pr10  1  0.08382800  0.18840700  0.47826900  1
  Pr  Pr11  1  0.58193500  0.19137900  0.24222800  1
  Pr  Pr12  1  0.18524700  0.07861800  0.97723700  1
  Pr  Pr13  1  0.80602600  0.42315200  0.25694300  1
  Pr  Pr14  1  0.42686800  0.81257200  0.75445900  1
  Pr  Pr15  1  0.20316200  0.60709300  0.18740500  1
  S  S0  1  0.90751100  0.89502100  0.22567100  1
  S  S1  1  0.47945500  0.52496500  0.25062700  1
  S  S2  1  0.61116600  0.11295000  0.51145200  1
  S  S3  1  0.88533400  0.38511700  0.99383700  1
  S  S4  1  0.52628900  0.48075600  0.74600100  1
  S  S5  1  0.89977000  0.90719700  0.72074500  1
  S  S6  1  0.09678400  0.10102000  0.78025700  1
  S  S7  1  0.38873400  0.89358200  0.49005300  1
  S  S8  1  0.00309900  0.49469700  0.50288800  1
  S  S9  1  0.09995100  0.09353600  0.28026100  1
  S  S10  1  0.11240800  0.60960500  0.00481400  1
  S  S11  1  0.49638700  0.99790800  0.00538300  1
  N  N0  1  0.70273400  0.68096300  0.74194400  1
  N  N1  1  0.68564300  0.70225900  0.24420600  1
  N  N2  1  0.35640700  0.80815900  0.96476800  1
  N  N3  1  0.32110100  0.30300800  0.75215900  1
  N  N4  1  0.30256000  0.31316600  0.26016000  1
  N  N5  1  0.64368100  0.18514600  0.03460900  1
  N  N6  1  0.18603000  0.63993500  0.53805600  1
  N  N7  1  0.81042000  0.35097000  0.46554500  1
loop_
_geom_bond_atom_site_label_1
_geom_bond_atom_site_label_2
_geom_bond_distance
_geom_bond_site_symmetry_2
Pr0 S8 2.866585 1_555
Pr0 S1 2.896886 1_555
Pr0 S2 2.949126 1_555
Pr0 S6 2.953506 1_555
Pr1 S10 3.021767 1_655
Pr1 S6 3.045889 1_664
Pr1 S11 3.087791 1_555
Pr1 S0 3.102694 1_555
Pr1 S5 3.502805 1_554
Pr2 S8 3.035243 1_655
Pr2 S2 3.069327 1_565
Pr2 S9 3.084765 1_665
Pr2 S5 3.090580 1_555
Pr2 S0 3.476067 1_555
Pr3 S4 2.811940 1_555
Pr3 S8 2.933018 1_655
Pr3 S7 2.947557 1_555
Pr3 S0 2.957240 1_555
Pr4 S11 2.884445 1_545
Pr4 S10 2.899304 1_555
Pr4 S9 2.930911 1_555
Pr4 S4 2.932338 1_554
Pr5 S11 2.907877 1_555
Pr5 S7 2.925484 1_555
Pr5 S9 2.947027 1_565
Pr5 S1 2.959982 1_555
Pr6 S4 3.056575 1_555
Pr6 S10 3.103075 1_556
Pr6 S5 3.140090 1_455
Pr6 S3 3.232662 1_455
Pr6 S7 3.405279 1_555
Pr7 S11 2.934290 1_546
Pr7 S5 2.937239 1_545
Pr7 S4 2.939587 1_555
Pr7 S2 2.949891 1_555
Pr8 S3 2.897056 1_555
Pr8 S8 2.898280 1_655
Pr8 S6 2.960048 1_655
Pr8 S4 2.975227 1_555
Pr9 S11 2.873878 1_556
Pr9 S1 2.923713 1_556
Pr9 S5 2.946794 1_555
Pr9 S3 3.007044 1_555
Pr10 S8 2.984420 1_555
Pr10 S7 3.005211 1_545
Pr10 S5 3.044881 1_445
Pr10 S9 3.134726 1_555
Pr10 S6 3.477902 1_555
Pr11 S1 3.073287 1_555
Pr11 S0 3.113560 1_545
Pr11 S2 3.208336 1_555
Pr11 S7 3.210975 1_545
Pr11 S3 3.253674 1_554
Pr12 S0 3.024743 1_446
Pr12 S6 3.031200 1_555
Pr12 S3 3.041176 1_455
Pr12 S11 3.060226 1_546
Pr12 S9 3.512564 1_556
Pr13 S1 2.992079 1_555
Pr13 S9 3.125113 1_655
Pr13 S3 3.184385 1_554
Pr13 S10 3.237227 1_655
Pr13 S2 3.309360 1_555
Pr14 S4 3.064891 1_555
Pr14 S6 3.103111 1_565
Pr14 S2 3.180304 1_565
Pr14 S7 3.193334 1_555
Pr14 S10 3.384625 1_556
Pr15 S8 2.923823 1_555
Pr15 S0 2.949900 1_455
Pr15 S1 2.991863 1_555
Pr15 S10 2.996981 1_555
N0 Pr2 2.308868 1_555
N0 Pr8 2.320156 1_555
N0 Pr14 2.362179 1_555
N0 Pr9 2.365369 1_555
N1 Pr3 2.343904 1_555
N1 Pr1 2.344476 1_555
N1 Pr5 2.387219 1_555
N1 Pr13 2.396512 1_555
N2 Pr14 2.302798 1_555
N2 Pr9 2.334259 1_555
N2 Pr15 2.378687 1_556
N2 Pr12 2.429734 1_565
N3 Pr0 2.314612 1_555
N3 Pr6 2.341734 1_555
N3 Pr7 2.344250 1_555
N3 Pr12 2.442448 1_555
N4 Pr10 2.349525 1_555
N4 Pr15 2.350882 1_555
N4 Pr11 2.375414 1_555
N4 Pr4 2.401230 1_555
N5 Pr11 2.367466 1_555
N5 Pr8 2.405060 1_554
N5 Pr4 2.406678 1_555
N5 Pr1 2.414270 1_545
N6 Pr0 2.305196 1_555
N6 Pr6 2.363329 1_555
N6 Pr5 2.387333 1_555
N6 Pr2 2.396908 1_455
N7 Pr13 2.324061 1_555
N7 Pr7 2.347112 1_555
N7 Pr3 2.416831 1_555
N7 Pr10 2.451011 1_655
