# generated using pymatgen
data_K4Zr3Mn(PO4)6
_symmetry_space_group_name_H-M   'P 1'
_cell_length_a   10.36498100
_cell_length_b   10.37655200
_cell_length_c   10.38096102
_cell_angle_alpha   89.96424036
_cell_angle_beta   90.00000000
_cell_angle_gamma   90.00000000
_symmetry_Int_Tables_number   1
_chemical_formula_structural   K4Zr3Mn(PO4)6
_chemical_formula_sum   'K8 Zr6 Mn2 P12 O48'
_cell_volume   1116.50083680
_cell_formula_units_Z   2
loop_
 _symmetry_equiv_pos_site_id
 _symmetry_equiv_pos_as_xyz
  1  'x, y, z'
loop_
 _atom_site_type_symbol
 _atom_site_label
 _atom_site_symmetry_multiplicity
 _atom_site_fract_x
 _atom_site_fract_y
 _atom_site_fract_z
 _atom_site_occupancy
  K  K0  1  0.43638200  0.19004500  0.56150100  1
  K  K1  1  0.70088500  0.05607500  0.20925400  1
  K  K2  1  0.20088500  0.94392500  0.79074600  1
  K  K3  1  0.93638200  0.80995500  0.43849900  1
  K  K4  1  0.56876600  0.67775200  0.92894300  1
  K  K5  1  0.29955400  0.54323900  0.30892600  1
  K  K6  1  0.79955400  0.45676100  0.69107400  1
  K  K7  1  0.06876600  0.32224800  0.07105700  1
  Zr  Zr0  1  0.08440200  0.16782600  0.41508200  1
  Zr  Zr1  1  0.85609200  0.10651000  0.85357200  1
  Zr  Zr2  1  0.35609200  0.89349000  0.14642800  1
  Zr  Zr3  1  0.58440200  0.83217400  0.58491800  1
  Zr  Zr4  1  0.91349600  0.66121400  0.08640700  1
  Zr  Zr5  1  0.41349600  0.33878600  0.91359300  1
  Mn  Mn0  1  0.14816800  0.60058600  0.64476700  1
  Mn  Mn1  1  0.64816800  0.39941400  0.35523300  1
  P  P0  1  0.37437000  0.21337500  0.23023100  1
  P  P1  1  0.76864100  0.12302500  0.53664400  1
  P  P2  1  0.53801200  0.01989800  0.87344600  1
  P  P3  1  0.03801200  0.98010200  0.12655400  1
  P  P4  1  0.26864100  0.87697500  0.46335600  1
  P  P5  1  0.87437000  0.78662500  0.76976900  1
  P  P6  1  0.62443900  0.70967200  0.26808200  1
  P  P7  1  0.23109300  0.62697800  0.95960400  1
  P  P8  1  0.46095700  0.51715300  0.62285000  1
  P  P9  1  0.96095700  0.48284700  0.37715000  1
  P  P10  1  0.73109300  0.37302200  0.04039600  1
  P  P11  1  0.12443900  0.29032800  0.73191800  1
  O  O0  1  0.14774200  0.24357900  0.59125000  1
  O  O1  1  0.24297400  0.22628900  0.30262200  1
  O  O2  1  0.70114600  0.22087700  0.45225800  1
  O  O3  1  0.02654700  0.19515700  0.79724000  1
  O  O4  1  0.76859200  0.16580900  0.68144100  1
  O  O5  1  0.49394300  0.16044600  0.85129200  1
  O  O6  1  0.91139200  0.09917400  0.49530500  1
  O  O7  1  0.41603300  0.06841400  0.22981100  1
  O  O8  1  0.02018300  0.05696600  0.25278700  1
  O  O9  1  0.95231400  0.04682600  0.02397600  1
  O  O10  1  0.68039300  0.01740600  0.91913800  1
  O  O11  1  0.19576000  0.00776500  0.47516200  1
  O  O12  1  0.69576000  0.99223500  0.52483800  1
  O  O13  1  0.18039300  0.98259400  0.08086200  1
  O  O14  1  0.45231400  0.95317400  0.97602400  1
  O  O15  1  0.52018300  0.94303400  0.74721300  1
  O  O16  1  0.91603300  0.93158600  0.77018900  1
  O  O17  1  0.41139200  0.90082600  0.50469500  1
  O  O18  1  0.99394300  0.83955400  0.14870800  1
  O  O19  1  0.26859200  0.83419100  0.31855900  1
  O  O20  1  0.52654700  0.80484300  0.20276000  1
  O  O21  1  0.20114600  0.77912300  0.54774200  1
  O  O22  1  0.74297400  0.77371100  0.69737800  1
  O  O23  1  0.64774200  0.75642100  0.40875000  1
  O  O24  1  0.85018200  0.74480300  0.91198800  1
  O  O25  1  0.75296500  0.72918900  0.19223900  1
  O  O26  1  0.29685500  0.72529400  0.05373000  1
  O  O27  1  0.97345500  0.70397500  0.70189100  1
  O  O28  1  0.23811200  0.67727700  0.82292200  1
  O  O29  1  0.50533400  0.66056900  0.64843100  1
  O  O30  1  0.09041700  0.60340100  0.00678100  1
  O  O31  1  0.57337100  0.57308900  0.26033700  1
  O  O32  1  0.97469400  0.55341100  0.24247400  1
  O  O33  1  0.05430100  0.54942800  0.46826000  1
  O  O34  1  0.32185100  0.51257500  0.57605000  1
  O  O35  1  0.80618400  0.50211700  0.02002900  1
  O  O36  1  0.30618400  0.49788300  0.97997100  1
  O  O37  1  0.82185100  0.48742500  0.42395000  1
  O  O38  1  0.55430100  0.45057200  0.53174000  1
  O  O39  1  0.47469400  0.44658900  0.75752600  1
  O  O40  1  0.07337100  0.42691100  0.73966300  1
  O  O41  1  0.59041700  0.39659900  0.99321900  1
  O  O42  1  0.00533400  0.33943100  0.35156900  1
  O  O43  1  0.73811200  0.32272300  0.17707800  1
  O  O44  1  0.47345500  0.29602500  0.29810900  1
  O  O45  1  0.79685500  0.27470600  0.94627000  1
  O  O46  1  0.25296500  0.27081100  0.80776100  1
  O  O47  1  0.35018200  0.25519700  0.08801200  1
loop_
_geom_bond_atom_site_label_1
_geom_bond_atom_site_label_2
_geom_bond_distance
_geom_bond_site_symmetry_2
K0 O44 2.971439 1_555
K0 O38 2.982695 1_555
K0 O2 2.986470 1_555
K0 O0 3.058549 1_555
K0 O17 3.069792 1_545
K0 O5 3.082054 1_555
K1 O43 2.813354 1_555
K1 O7 2.962961 1_555
K1 O10 3.045958 1_554
K1 O2 3.048498 1_555
K1 O20 3.172710 1_545
K1 O9 3.240417 1_555
K1 O8 3.340243 1_655
K1 O12 3.342386 1_545
K1 O25 3.439282 1_545
K2 O28 2.813354 1_555
K2 O16 2.962961 1_455
K2 O13 3.045958 1_556
K2 O21 3.048498 1_555
K2 O3 3.172710 1_565
K2 O14 3.240417 1_555
K2 O15 3.340243 1_555
K2 O11 3.342386 1_565
K2 O46 3.439282 1_565
K3 O27 2.971439 1_555
K3 O33 2.982695 1_655
K3 O21 2.986470 1_655
K3 O23 3.058549 1_555
K3 O6 3.069792 1_565
K3 O18 3.082054 1_555
K4 O29 2.990712 1_555
K4 O41 3.000727 1_555
K4 O24 3.003838 1_555
K4 O14 3.140906 1_555
K4 O26 3.140917 1_556
K4 O39 3.142646 1_555
K4 O20 3.164653 1_556
K4 O22 3.166619 1_555
K4 O35 3.204542 1_556
K4 O36 3.342202 1_555
K4 O15 3.373947 1_555
K4 O25 3.376767 1_556
K5 O34 2.800554 1_555
K5 O31 2.899141 1_555
K5 O33 3.033494 1_555
K5 O19 3.037796 1_555
K5 O44 3.137245 1_555
K5 O26 3.252906 1_555
K5 O1 3.341407 1_555
K5 O32 3.438712 1_455
K5 O36 3.448124 1_554
K6 O37 2.800554 1_555
K6 O40 2.899141 1_655
K6 O38 3.033494 1_555
K6 O4 3.037796 1_555
K6 O27 3.137245 1_555
K6 O45 3.252906 1_555
K6 O22 3.341407 1_555
K6 O39 3.438712 1_555
K6 O35 3.448124 1_556
K7 O42 2.990712 1_555
K7 O30 3.000727 1_555
K7 O47 3.003838 1_555
K7 O9 3.140906 1_455
K7 O45 3.140917 1_454
K7 O32 3.142646 1_455
K7 O3 3.164653 1_554
K7 O1 3.166619 1_555
K7 O36 3.204542 1_554
K7 O35 3.342202 1_455
K7 O8 3.373947 1_555
K7 O46 3.376767 1_554
Mn0 O34 2.141145 1_555
Mn0 O33 2.141721 1_555
Mn0 O21 2.178485 1_555
Mn0 O27 2.186947 1_455
Mn0 O40 2.194768 1_555
Mn0 O28 2.219143 1_555
Mn1 O37 2.141145 1_555
Mn1 O38 2.141721 1_555
Mn1 O2 2.178485 1_555
Mn1 O44 2.186947 1_555
Mn1 O31 2.194768 1_555
Mn1 O43 2.219143 1_555
O0 P11 1.557859 1_555
O0 Zr0 2.096468 1_555
O1 P0 1.561293 1_555
O1 Zr0 2.105104 1_555
O2 P1 1.512173 1_555
O3 P11 1.569634 1_555
O3 Zr1 2.075782 1_455
O4 P1 1.567588 1_555
O4 Zr1 2.095886 1_555
O5 P2 1.545334 1_555
O5 Zr5 2.130633 1_555
O6 P1 1.560383 1_555
O6 Zr0 2.101429 1_655
O7 P0 1.564964 1_555
O7 Zr2 2.105192 1_545
O8 P3 1.545572 1_545
O8 Zr0 2.146451 1_555
O9 P3 1.549637 1_645
O9 Zr1 2.122752 1_554
O10 P2 1.550340 1_555
O10 Zr1 2.152631 1_555
O11 P4 1.558116 1_545
O11 Zr0 2.116235 1_555
O12 P1 1.558116 1_565
O12 Zr3 2.116235 1_555
O13 P3 1.550340 1_555
O13 Zr2 2.152631 1_555
O14 P2 1.549637 1_565
O14 Zr2 2.122752 1_556
O15 P2 1.545572 1_565
O15 Zr3 2.146451 1_555
O16 P5 1.564964 1_555
O16 Zr1 2.105192 1_565
O17 P4 1.560383 1_555
O17 Zr3 2.101429 1_555
O18 P3 1.545334 1_655
O18 Zr4 2.130633 1_555
O19 P4 1.567588 1_555
O19 Zr2 2.095886 1_555
O20 P6 1.569634 1_555
O20 Zr2 2.075782 1_555
O21 P4 1.512173 1_555
O22 P5 1.561293 1_555
O22 Zr3 2.105104 1_555
O23 P6 1.557859 1_555
O23 Zr3 2.096468 1_555
O24 P5 1.558862 1_555
O24 Zr4 2.111736 1_556
O25 P6 1.560567 1_555
O25 Zr4 2.115195 1_555
O26 P7 1.568879 1_554
O26 Zr2 2.085940 1_555
O27 P5 1.512463 1_555
O28 P7 1.513284 1_555
O29 P8 1.580257 1_555
O29 Zr3 2.067769 1_555
O30 P7 1.557440 1_554
O30 Zr4 2.099170 1_455
O31 P6 1.515062 1_555
O32 P9 1.584209 1_555
O32 Zr4 2.067902 1_555
O33 P9 1.519461 1_455
O34 P8 1.522233 1_555
O35 P10 1.563505 1_555
O35 Zr4 2.106850 1_555
O36 P7 1.563505 1_555
O36 Zr5 2.106850 1_555
O37 P9 1.522233 1_555
O38 P8 1.519461 1_555
O39 P8 1.584209 1_555
O39 Zr5 2.067902 1_555
O40 P11 1.515062 1_555
O41 P10 1.557440 1_556
O41 Zr5 2.099170 1_555
O42 P9 1.580257 1_455
O42 Zr0 2.067769 1_555
O43 P10 1.513284 1_555
O44 P0 1.512463 1_555
O45 P10 1.568879 1_556
O45 Zr1 2.085940 1_555
O46 P11 1.560567 1_555
O46 Zr5 2.115195 1_555
O47 P0 1.558862 1_555
O47 Zr5 2.111736 1_554
