# generated using pymatgen
data_Li7(NiO2)12
_symmetry_space_group_name_H-M   'P 1'
_cell_length_a   7.66231610
_cell_length_b   7.66231610
_cell_length_c   9.74603122
_cell_angle_alpha   57.70041965
_cell_angle_beta   57.70041965
_cell_angle_gamma   67.41917442
_symmetry_Int_Tables_number   1
_chemical_formula_structural   Li7(NiO2)12
_chemical_formula_sum   'Li7 Ni12 O24'
_cell_volume   404.92158766
_cell_formula_units_Z   1
loop_
 _symmetry_equiv_pos_site_id
 _symmetry_equiv_pos_as_xyz
  1  'x, y, z'
loop_
 _atom_site_type_symbol
 _atom_site_label
 _atom_site_symmetry_multiplicity
 _atom_site_fract_x
 _atom_site_fract_y
 _atom_site_fract_z
 _atom_site_occupancy
  Li  Li0  1  0.84082000  0.15918000  0.50000000  1
  Li  Li1  1  0.74553600  0.74671800  0.75527600  1
  Li  Li2  1  0.49851400  0.50148600  0.50000000  1
  Li  Li3  1  0.61489300  0.92595500  0.23521400  1
  Li  Li4  1  0.30311300  0.69688700  0.00000000  1
  Li  Li5  1  0.25328200  0.25446400  0.24472400  1
  Li  Li6  1  0.07404500  0.38510700  0.76478600  1
  Ni  Ni0  1  0.70222500  0.04180800  0.87662300  1
  Ni  Ni1  1  0.95819200  0.29777500  0.12337700  1
  Ni  Ni2  1  0.87814800  0.86945500  0.37944100  1
  Ni  Ni3  1  0.79381400  0.45566200  0.62116700  1
  Ni  Ni4  1  0.61988500  0.62392000  0.12853600  1
  Ni  Ni5  1  0.54433800  0.20618600  0.37883300  1
  Ni  Ni6  1  0.45884300  0.78648600  0.62416900  1
  Ni  Ni7  1  0.37608000  0.38011500  0.87146400  1
  Ni  Ni8  1  0.21351400  0.54115700  0.37583100  1
  Ni  Ni9  1  0.13054500  0.12185200  0.62055900  1
  Ni  Ni10  1  0.03797900  0.71272500  0.87278400  1
  Ni  Ni11  1  0.28727500  0.96202100  0.12721600  1
  O  O0  1  0.91583700  0.93585300  0.71166100  1
  O  O1  1  0.85597600  0.53208900  0.95423600  1
  O  O2  1  0.97799100  0.63005200  0.55042500  1
  O  O3  1  0.60822000  0.27743400  0.70163100  1
  O  O4  1  0.90084900  0.22957100  0.78302500  1
  O  O5  1  0.78194700  0.81233100  0.05663300  1
  O  O6  1  0.51606100  0.84025900  0.96529800  1
  O  O7  1  0.72256600  0.39178000  0.29836900  1
  O  O8  1  0.64880100  0.94841000  0.55976500  1
  O  O9  1  0.77042900  0.09915100  0.21697500  1
  O  O10  1  0.54215900  0.56789000  0.80112700  1
  O  O11  1  0.67626900  0.68030100  0.46196800  1
  O  O12  1  0.31969900  0.32373100  0.53803200  1
  O  O13  1  0.43211000  0.45784100  0.19887300  1
  O  O14  1  0.22347500  0.88614400  0.79100500  1
  O  O15  1  0.36994800  0.02200900  0.44957500  1
  O  O16  1  0.29127600  0.59961300  0.69571500  1
  O  O17  1  0.46791100  0.14402400  0.04576400  1
  O  O18  1  0.18766900  0.21805300  0.94336700  1
  O  O19  1  0.11385600  0.77652500  0.20899500  1
  O  O20  1  0.40038700  0.70872400  0.30428500  1
  O  O21  1  0.05159000  0.35119900  0.44023500  1
  O  O22  1  0.15974100  0.48393900  0.03470200  1
  O  O23  1  0.06414700  0.08416300  0.28833900  1
loop_
_geom_bond_atom_site_label_1
_geom_bond_atom_site_label_2
_geom_bond_distance
_geom_bond_site_symmetry_2
Li0 O23 2.062364 1_655
Li0 O0 2.062364 1_545
Li0 O7 2.186063 1_555
Li0 O3 2.186063 1_555
Li0 O21 2.239611 1_655
Li0 O8 2.239611 1_545
Li1 O8 2.012745 1_555
Li1 O0 2.045690 1_555
Li1 O1 2.111289 1_555
Li1 O6 2.132800 1_555
Li1 O10 2.178745 1_555
Li1 O2 2.200403 1_555
Li2 O20 2.025837 1_555
Li2 O16 2.025837 1_555
Li2 O12 2.054418 1_555
Li2 O11 2.054418 1_555
Li2 O7 2.137106 1_555
Li2 O3 2.137106 1_555
Li3 O5 1.951486 1_555
Li3 O9 1.987248 1_565
Li3 O11 2.152538 1_555
Li3 O15 2.195650 1_565
Li3 O17 2.224745 1_565
Li3 O20 2.376189 1_555
Li4 O19 2.028840 1_555
Li4 O14 2.028840 1_554
Li4 O6 2.091257 1_554
Li4 O22 2.091257 1_555
Li4 O10 2.225220 1_554
Li4 O13 2.225220 1_555
Li5 O21 2.012745 1_555
Li5 O23 2.045690 1_555
Li5 O17 2.111289 1_555
Li5 O22 2.132800 1_555
Li5 O13 2.178745 1_555
Li5 O15 2.200403 1_555
Li6 O18 1.951486 1_555
Li6 O4 1.987248 1_455
Li6 O12 2.152538 1_555
Li6 O2 2.195650 1_455
Li6 O1 2.224745 1_455
Li6 O16 2.376189 1_555
Ni0 O0 1.866835 1_545
Ni0 O5 1.888507 1_546
Ni0 O17 1.921249 1_556
Ni0 O3 1.926283 1_555
Ni0 O4 2.003383 1_555
Ni0 O6 2.028443 1_545
Ni1 O23 1.866835 1_655
Ni1 O18 1.888507 1_654
Ni1 O1 1.921249 1_554
Ni1 O7 1.926283 1_555
Ni1 O9 2.003383 1_555
Ni1 O22 2.028443 1_655
Ni2 O8 1.887336 1_555
Ni2 O9 1.894429 1_565
Ni2 O19 1.896997 1_655
Ni2 O2 1.935208 1_555
Ni2 O11 2.070425 1_555
Ni2 O23 2.100785 1_665
Ni3 O4 1.879672 1_555
Ni3 O11 1.905265 1_555
Ni3 O3 1.912429 1_555
Ni3 O2 1.917349 1_555
Ni3 O21 2.055113 1_655
Ni3 O10 2.063475 1_555
Ni4 O6 1.852890 1_554
Ni4 O20 1.859103 1_555
Ni4 O5 1.866238 1_555
Ni4 O13 1.891881 1_555
Ni4 O1 1.915476 1_554
Ni4 O7 1.921760 1_555
Ni5 O9 1.879672 1_555
Ni5 O12 1.905265 1_555
Ni5 O7 1.912429 1_555
Ni5 O15 1.917349 1_555
Ni5 O8 2.055113 1_545
Ni5 O13 2.063475 1_555
Ni6 O11 1.858900 1_555
Ni6 O10 1.858957 1_555
Ni6 O16 1.890267 1_555
Ni6 O14 1.901284 1_555
Ni6 O15 1.905010 1_565
Ni6 O8 1.905288 1_555
Ni7 O22 1.852890 1_556
Ni7 O16 1.859103 1_555
Ni7 O18 1.866238 1_555
Ni7 O10 1.891881 1_555
Ni7 O17 1.915476 1_556
Ni7 O3 1.921760 1_555
Ni8 O12 1.858900 1_555
Ni8 O13 1.858957 1_555
Ni8 O20 1.890267 1_555
Ni8 O19 1.901284 1_555
Ni8 O2 1.905010 1_455
Ni8 O21 1.905288 1_555
Ni9 O21 1.887336 1_555
Ni9 O4 1.894429 1_455
Ni9 O14 1.896997 1_545
Ni9 O15 1.935208 1_555
Ni9 O12 2.070425 1_555
Ni9 O0 2.100785 1_445
Ni10 O14 1.878581 1_555
Ni10 O1 1.901505 1_455
Ni10 O0 1.933235 1_455
Ni10 O22 1.948024 1_556
Ni10 O5 2.048579 1_456
Ni10 O16 2.055071 1_555
Ni11 O19 1.878581 1_555
Ni11 O17 1.901505 1_565
Ni11 O23 1.933235 1_565
Ni11 O6 1.948024 1_554
Ni11 O18 2.048579 1_564
Ni11 O20 2.055071 1_555
