# generated using pymatgen
data_Li3Cu5O4
_symmetry_space_group_name_H-M   'P 1'
_cell_length_a   6.64175200
_cell_length_b   7.65335300
_cell_length_c   12.71301223
_cell_angle_alpha   72.42798925
_cell_angle_beta   90.00000000
_cell_angle_gamma   90.00000000
_symmetry_Int_Tables_number   1
_chemical_formula_structural   Li3Cu5O4
_chemical_formula_sum   'Li12 Cu20 O16'
_cell_volume   616.06975634
_cell_formula_units_Z   4
loop_
 _symmetry_equiv_pos_site_id
 _symmetry_equiv_pos_as_xyz
  1  'x, y, z'
loop_
 _atom_site_type_symbol
 _atom_site_label
 _atom_site_symmetry_multiplicity
 _atom_site_fract_x
 _atom_site_fract_y
 _atom_site_fract_z
 _atom_site_occupancy
  Li  Li0  1  0.62432100  0.93292800  0.57205500  1
  Li  Li1  1  0.93969200  0.63706800  0.92163900  1
  Li  Li2  1  0.28061000  0.74112900  0.56402000  1
  Li  Li3  1  0.87567900  0.93292800  0.07205500  1
  Li  Li4  1  0.56030800  0.63706800  0.42163900  1
  Li  Li5  1  0.21939000  0.74112900  0.06402000  1
  Li  Li6  1  0.78061000  0.25887100  0.93598000  1
  Li  Li7  1  0.43969200  0.36293200  0.57836100  1
  Li  Li8  1  0.12432100  0.06707200  0.92794500  1
  Li  Li9  1  0.71939000  0.25887100  0.43598000  1
  Li  Li10  1  0.06030800  0.36293200  0.07836100  1
  Li  Li11  1  0.37567900  0.06707200  0.42794500  1
  Cu  Cu0  1  0.57202200  0.96522500  0.91216300  1
  Cu  Cu1  1  0.32863400  0.93965000  0.74296800  1
  Cu  Cu2  1  0.92797800  0.96522500  0.41216300  1
  Cu  Cu3  1  0.47142200  0.67311300  0.89332700  1
  Cu  Cu4  1  0.17136600  0.93965000  0.24296800  1
  Cu  Cu5  1  0.55856400  0.54132500  0.72960800  1
  Cu  Cu6  1  0.02857800  0.67311300  0.39332700  1
  Cu  Cu7  1  0.32621800  0.37325800  0.91340200  1
  Cu  Cu8  1  0.82621800  0.62674200  0.58659800  1
  Cu  Cu9  1  0.05856400  0.45867500  0.77039200  1
  Cu  Cu10  1  0.94143600  0.54132500  0.22960800  1
  Cu  Cu11  1  0.17378200  0.37325800  0.41340200  1
  Cu  Cu12  1  0.67378200  0.62674200  0.08659800  1
  Cu  Cu13  1  0.97142200  0.32688700  0.60667300  1
  Cu  Cu14  1  0.44143600  0.45867500  0.27039200  1
  Cu  Cu15  1  0.82863400  0.06035000  0.75703200  1
  Cu  Cu16  1  0.52857800  0.32688700  0.10667300  1
  Cu  Cu17  1  0.07202200  0.03477500  0.58783700  1
  Cu  Cu18  1  0.67136600  0.06035000  0.25703200  1
  Cu  Cu19  1  0.42797800  0.03477500  0.08783700  1
  O  O0  1  0.84293700  0.02410000  0.90572100  1
  O  O1  1  0.30872900  0.87987700  0.89803000  1
  O  O2  1  0.65706300  0.02410000  0.40572100  1
  O  O3  1  0.19127100  0.87987700  0.39803000  1
  O  O4  1  0.59553700  0.45839500  0.88104300  1
  O  O5  1  0.54597600  0.62016300  0.57661000  1
  O  O6  1  0.04597600  0.37983700  0.92339000  1
  O  O7  1  0.09553700  0.54160500  0.61895700  1
  O  O8  1  0.90446300  0.45839500  0.38104300  1
  O  O9  1  0.95402400  0.62016300  0.07661000  1
  O  O10  1  0.45402400  0.37983700  0.42339000  1
  O  O11  1  0.40446300  0.54160500  0.11895700  1
  O  O12  1  0.80872900  0.12012300  0.60197000  1
  O  O13  1  0.34293700  0.97590000  0.59427900  1
  O  O14  1  0.69127100  0.12012300  0.10197000  1
  O  O15  1  0.15706300  0.97590000  0.09427900  1
loop_
_geom_bond_atom_site_label_1
_geom_bond_atom_site_label_2
_geom_bond_distance
_geom_bond_site_symmetry_2
Li0 O13 1.933085 1_555
Li0 O12 2.006560 1_565
Li0 O2 2.028499 1_565
Li0 O5 2.433151 1_555
Li1 O9 1.937363 1_556
Li1 O6 2.085197 1_655
Li2 O7 1.920050 1_555
Li2 O5 1.974749 1_555
Li2 O13 1.991263 1_555
Li2 O3 2.140033 1_555
Li3 O15 1.933085 1_655
Li3 O14 2.006560 1_565
Li3 O0 2.028499 1_564
Li3 O9 2.433151 1_555
Li4 O5 1.937363 1_555
Li4 O10 2.085197 1_555
Li5 O11 1.920050 1_555
Li5 O9 1.974749 1_455
Li5 O15 1.991263 1_555
Li5 O1 2.140033 1_554
Li6 O4 1.920050 1_555
Li6 O6 1.974749 1_655
Li6 O0 1.991263 1_555
Li6 O14 2.140033 1_556
Li7 O10 1.937363 1_555
Li7 O5 2.085197 1_555
Li8 O0 1.933085 1_455
Li8 O1 2.006560 1_545
Li8 O15 2.028499 1_546
Li8 O6 2.433151 1_555
Li9 O8 1.920050 1_555
Li9 O10 1.974749 1_555
Li9 O2 1.991263 1_555
Li9 O12 2.140033 1_555
Li10 O6 1.937363 1_554
Li10 O9 2.085197 1_455
Li11 O2 1.933085 1_555
Li11 O3 2.006560 1_545
Li11 O13 2.028499 1_545
Li11 O10 2.433151 1_555
Cu0 O0 1.850708 1_565
Cu0 O1 1.894165 1_555
Cu1 O13 1.828255 1_555
Cu1 O1 1.888989 1_555
Cu2 O2 1.850708 1_565
Cu2 O3 1.894165 1_655
Cu3 O4 1.886626 1_555
Cu3 O1 1.931951 1_555
Cu4 O15 1.828255 1_555
Cu4 O3 1.888989 1_555
Cu5 O4 1.852489 1_555
Cu5 O5 1.856259 1_555
Cu6 O8 1.886626 1_455
Cu6 O3 1.931951 1_555
Cu7 O6 1.867337 1_555
Cu7 O4 1.905668 1_555
Cu8 O5 1.867337 1_555
Cu8 O7 1.905668 1_655
Cu9 O7 1.852489 1_555
Cu9 O6 1.856259 1_555
Cu10 O8 1.852489 1_555
Cu10 O9 1.856259 1_555
Cu11 O10 1.867337 1_555
Cu11 O8 1.905668 1_455
Cu12 O9 1.867337 1_555
Cu12 O11 1.905668 1_555
Cu13 O7 1.886626 1_655
Cu13 O12 1.931951 1_555
Cu14 O11 1.852489 1_555
Cu14 O10 1.856259 1_555
Cu15 O0 1.828255 1_555
Cu15 O12 1.888989 1_555
Cu16 O11 1.886626 1_555
Cu16 O14 1.931951 1_555
Cu17 O13 1.850708 1_545
Cu17 O12 1.894165 1_455
Cu18 O2 1.828255 1_555
Cu18 O14 1.888989 1_555
Cu19 O15 1.850708 1_545
Cu19 O14 1.894165 1_555
