# generated using pymatgen
data_LiMn2OF3
_symmetry_space_group_name_H-M   'P 1'
_cell_length_a   6.24572426
_cell_length_b   6.38033553
_cell_length_c   9.09444392
_cell_angle_alpha   89.99631521
_cell_angle_beta   90.55712041
_cell_angle_gamma   90.00903883
_symmetry_Int_Tables_number   1
_chemical_formula_structural   LiMn2OF3
_chemical_formula_sum   'Li4 Mn8 O4 F12'
_cell_volume   362.39478232
_cell_formula_units_Z   4
loop_
 _symmetry_equiv_pos_site_id
 _symmetry_equiv_pos_as_xyz
  1  'x, y, z'
loop_
 _atom_site_type_symbol
 _atom_site_label
 _atom_site_symmetry_multiplicity
 _atom_site_fract_x
 _atom_site_fract_y
 _atom_site_fract_z
 _atom_site_occupancy
  Li  Li0  1  0.00088500  0.96454700  0.02119700  1
  Li  Li1  1  0.49921200  0.03544600  0.22897400  1
  Li  Li2  1  0.50068400  0.53543300  0.52117900  1
  Li  Li3  1  0.99921400  0.46448600  0.72875400  1
  Mn  Mn0  1  0.75000400  0.50020900  0.12510400  1
  Mn  Mn1  1  0.24976400  0.00006600  0.62514100  1
  Mn  Mn2  1  0.25017000  0.50032900  0.12460900  1
  Mn  Mn3  1  0.74984400  0.00010600  0.62515500  1
  Mn  Mn4  1  0.00024100  0.25631900  0.39084700  1
  Mn  Mn5  1  0.99979400  0.75655700  0.35882000  1
  Mn  Mn6  1  0.50058700  0.24336100  0.89115900  1
  Mn  Mn7  1  0.50004100  0.74356100  0.85898400  1
  O  O0  1  0.99923900  0.70331800  0.13853700  1
  O  O1  1  0.50091900  0.29684000  0.11127700  1
  O  O2  1  0.49907900  0.79678300  0.63879700  1
  O  O3  1  0.00065600  0.20314400  0.61118900  1
  F  F0  1  0.00066500  0.23610800  0.14984000  1
  F  F1  1  0.49934900  0.76393700  0.10017200  1
  F  F2  1  0.50046500  0.26388400  0.64997300  1
  F  F3  1  0.99915500  0.73611000  0.60017600  1
  F  F4  1  0.24607700  0.00036200  0.36822200  1
  F  F5  1  0.75510600  0.00146900  0.36985500  1
  F  F6  1  0.24484800  0.50163300  0.38006000  1
  F  F7  1  0.75376300  0.50043800  0.38166000  1
  F  F8  1  0.74615200  0.49941700  0.86832200  1
  F  F9  1  0.25521300  0.49841000  0.86997100  1
  F  F10  1  0.25390100  0.99952100  0.88175900  1
  F  F11  1  0.74497600  0.99820800  0.88026700  1
loop_
_geom_bond_atom_site_label_1
_geom_bond_atom_site_label_2
_geom_bond_distance
_geom_bond_site_symmetry_2
Li0 O0 1.979106 1_455
Li1 O1 1.981749 1_555
Li2 O2 1.981236 1_555
Li3 O3 1.980923 1_655
Mn0 O0 2.028089 1_555
Mn0 O1 2.028624 1_555
Mn1 O3 2.027913 1_555
Mn1 O2 2.029593 1_545
Mn2 O0 2.038188 1_455
Mn2 O1 2.038973 1_555
Mn3 O3 2.037514 1_655
Mn3 O2 2.038241 1_545
Mn4 O3 2.032361 1_555
Mn5 O0 2.031936 1_555
Mn6 O1 2.030725 1_556
Mn7 O2 2.030996 1_555
F0 Li0 2.090723 1_545
F0 Mn4 2.195650 1_555
F0 Mn2 2.308492 1_555
F0 Mn0 2.309745 1_455
F1 Li1 2.091255 1_565
F1 Mn7 2.197375 1_554
F1 Mn2 2.303505 1_555
F1 Mn0 2.308146 1_555
F2 Li2 2.091303 1_555
F2 Mn6 2.197342 1_555
F2 Mn3 2.305881 1_555
F2 Mn1 2.308337 1_555
F3 Li3 2.090591 1_555
F3 Mn5 2.198906 1_555
F3 Mn3 2.306763 1_565
F3 Mn1 2.308701 1_665
F4 Li1 2.047491 1_555
F4 Mn5 2.188580 1_445
F4 Mn4 2.252517 1_555
F4 Mn1 2.336426 1_555
F5 Li1 2.050168 1_555
F5 Mn5 2.188874 1_545
F5 Mn4 2.240109 1_655
F5 Mn3 2.322379 1_555
F6 Li2 2.051071 1_555
F6 Mn4 2.189882 1_555
F6 Mn5 2.240617 1_455
F6 Mn2 2.323761 1_555
F7 Li2 2.048773 1_555
F7 Mn4 2.191135 1_655
F7 Mn5 2.253919 1_555
F7 Mn0 2.333125 1_555
F8 Li3 2.048925 1_555
F8 Mn7 2.189682 1_555
F8 Mn6 2.251639 1_555
F8 Mn0 2.335185 1_556
F9 Li3 2.052492 1_455
F9 Mn7 2.190198 1_555
F9 Mn6 2.242523 1_555
F9 Mn2 2.316345 1_556
F10 Li0 2.047919 1_556
F10 Mn6 2.190507 1_565
F10 Mn7 2.253961 1_555
F10 Mn1 2.333692 1_565
F11 Li0 2.050304 1_656
F11 Mn6 2.188601 1_565
F11 Mn7 2.238526 1_555
F11 Mn3 2.320627 1_565
