# generated using pymatgen
data_Li24Mn11CrO36
_symmetry_space_group_name_H-M   'P 1'
_cell_length_a   13.20540252
_cell_length_b   13.20540252
_cell_length_c   9.72552111
_cell_angle_alpha   88.20757557
_cell_angle_beta   88.20757557
_cell_angle_gamma   158.14632516
_symmetry_Int_Tables_number   1
_chemical_formula_structural   Li24Mn11CrO36
_chemical_formula_sum   'Li24 Mn11 Cr1 O36'
_cell_volume   622.64671784
_cell_formula_units_Z   1
loop_
 _symmetry_equiv_pos_site_id
 _symmetry_equiv_pos_as_xyz
  1  'x, y, z'
loop_
 _atom_site_type_symbol
 _atom_site_label
 _atom_site_symmetry_multiplicity
 _atom_site_fract_x
 _atom_site_fract_y
 _atom_site_fract_z
 _atom_site_occupancy
  Li  Li0  1  0.72085600  0.77855000  0.24991000  1
  Li  Li1  1  0.66635400  0.83078700  0.75232800  1
  Li  Li2  1  0.22145000  0.27914400  0.75009000  1
  Li  Li3  1  0.41636400  0.58363600  0.50000000  1
  Li  Li4  1  0.60689000  0.88091000  0.25126400  1
  Li  Li5  1  0.16921300  0.33364600  0.24767200  1
  Li  Li6  1  0.91638600  0.08361400  0.00000000  1
  Li  Li7  1  0.11909000  0.39311000  0.74873600  1
  Li  Li8  1  0.54689700  0.93805600  0.75015600  1
  Li  Li9  1  0.06194400  0.45310300  0.24984400  1
  Li  Li10  1  0.50410500  0.00318200  0.25178300  1
  Li  Li11  1  0.24962000  0.75038000  0.00000000  1
  Li  Li12  1  0.99681800  0.49589500  0.74821700  1
  Li  Li13  1  0.74997400  0.25002600  0.50000000  1
  Li  Li14  1  0.95056800  0.55908100  0.24920800  1
  Li  Li15  1  0.44091900  0.04943200  0.75079200  1
  Li  Li16  1  0.89067900  0.61671500  0.74873500  1
  Li  Li17  1  0.08384000  0.91616000  0.50000000  1
  Li  Li18  1  0.38328500  0.10932100  0.25126500  1
  Li  Li19  1  0.83443300  0.66870200  0.24729900  1
  Li  Li20  1  0.58312300  0.41687700  0.00000000  1
  Li  Li21  1  0.78425900  0.72492400  0.74769800  1
  Li  Li22  1  0.33129800  0.16556700  0.75270100  1
  Li  Li23  1  0.27507600  0.21574100  0.25230200  1
  Mn  Mn0  1  0.47225300  0.52774700  0.00000000  1
  Mn  Mn1  1  0.97249900  0.02750100  0.50000000  1
  Mn  Mn2  1  0.36079800  0.63920200  0.00000000  1
  Mn  Mn3  1  0.30546600  0.69453400  0.50000000  1
  Mn  Mn4  1  0.80554000  0.19446000  0.00000000  1
  Mn  Mn5  1  0.19412400  0.80587600  0.50000000  1
  Mn  Mn6  1  0.13899900  0.86100100  0.00000000  1
  Mn  Mn7  1  0.69428100  0.30571900  0.00000000  1
  Mn  Mn8  1  0.63888300  0.36111700  0.50000000  1
  Mn  Mn9  1  0.02749800  0.97250200  0.00000000  1
  Mn  Mn10  1  0.52764300  0.47235700  0.50000000  1
  Cr  Cr0  1  0.86024900  0.13975100  0.50000000  1
  O  O0  1  0.83463600  0.88256500  0.88718500  1
  O  O1  1  0.61757500  0.66520500  0.61205700  1
  O  O2  1  0.11743500  0.16536400  0.11281500  1
  O  O3  1  0.81420100  0.98050800  0.38587300  1
  O  O4  1  0.33479500  0.38242500  0.38794300  1
  O  O5  1  0.52364100  0.69072200  0.11324500  1
  O  O6  1  0.30927800  0.47635900  0.88675500  1
  O  O7  1  0.49363700  0.77994200  0.61240100  1
  O  O8  1  0.01949200  0.18579900  0.61412700  1
  O  O9  1  0.45010300  0.83167400  0.11219200  1
  O  O10  1  0.99878500  0.28491400  0.11258200  1
  O  O11  1  0.22005800  0.50636300  0.38759900  1
  O  O12  1  0.16832600  0.54989700  0.88780800  1
  O  O13  1  0.71508600  0.00121500  0.88741800  1
  O  O14  1  0.95351700  0.33353700  0.61138600  1
  O  O15  1  0.35595400  0.85635400  0.61410300  1
  O  O16  1  0.14364600  0.64404600  0.38589700  1
  O  O17  1  0.66646300  0.04648300  0.38861400  1
  O  O18  1  0.33549600  0.95449400  0.11140200  1
  O  O19  1  0.85553300  0.35561400  0.11389500  1
  O  O20  1  0.64438600  0.14446700  0.88610500  1
  O  O21  1  0.04550600  0.66450400  0.88859800  1
  O  O22  1  0.28490200  0.00014700  0.61139600  1
  O  O23  1  0.83236900  0.45156700  0.61199300  1
  O  O24  1  0.78861000  0.50255800  0.11183000  1
  O  O25  1  0.99985300  0.71509800  0.38860400  1
  O  O26  1  0.54843300  0.16763100  0.38800700  1
  O  O27  1  0.98094300  0.81431600  0.88547800  1
  O  O28  1  0.49744200  0.21139000  0.88817000  1
  O  O29  1  0.69139200  0.52464500  0.61294000  1
  O  O30  1  0.47535500  0.30860800  0.38706000  1
  O  O31  1  0.66793100  0.62057400  0.11153000  1
  O  O32  1  0.18568400  0.01905700  0.11452200  1
  O  O33  1  0.88208100  0.83448500  0.38774800  1
  O  O34  1  0.37942600  0.33206900  0.88847000  1
  O  O35  1  0.16551500  0.11791900  0.61225200  1
loop_
_geom_bond_atom_site_label_1
_geom_bond_atom_site_label_2
_geom_bond_distance
_geom_bond_site_symmetry_2
Li0 O31 2.044428 1_555
Li0 O33 2.048604 1_555
Li0 O5 2.144827 1_555
Li0 O3 2.144929 1_555
Li0 O2 2.185463 1_665
Li0 O4 2.187522 1_555
Li1 O6 2.028287 1_555
Li1 O8 2.040342 1_665
Li1 O0 2.131646 1_555
Li1 O1 2.164294 1_555
Li1 O13 2.180536 1_565
Li1 O7 2.216629 1_555
Li2 O34 2.044428 1_555
Li2 O35 2.048604 1_555
Li2 O6 2.144827 1_555
Li2 O8 2.144929 1_555
Li2 O0 2.185463 1_445
Li2 O1 2.187522 1_555
Li3 O7 2.071965 1_555
Li3 O11 2.071965 1_555
Li3 O4 2.085611 1_555
Li3 O1 2.085611 1_555
Li3 O8 2.112033 1_555
Li3 O3 2.112033 1_555
Li4 O17 2.058978 1_565
Li4 O9 2.066441 1_555
Li4 O5 2.120389 1_555
Li4 O11 2.140503 1_555
Li4 O3 2.141604 1_555
Li4 O10 2.219481 1_565
Li5 O5 2.028287 1_555
Li5 O3 2.040342 1_445
Li5 O2 2.131646 1_555
Li5 O4 2.164294 1_555
Li5 O10 2.180536 1_455
Li5 O11 2.216629 1_555
Li6 O13 2.082426 1_554
Li6 O10 2.082426 1_555
Li6 O0 2.086606 1_544
Li6 O2 2.086606 1_655
Li6 O5 2.089406 1_545
Li6 O6 2.089406 1_654
Li7 O14 2.058978 1_455
Li7 O12 2.066441 1_555
Li7 O6 2.120389 1_555
Li7 O7 2.140503 1_555
Li7 O8 2.141604 1_555
Li7 O13 2.219481 1_455
Li8 O7 2.038903 1_555
Li8 O13 2.055993 1_565
Li8 O15 2.126229 1_555
Li8 O12 2.154815 1_555
Li8 O20 2.157150 1_565
Li8 O14 2.231420 1_565
Li9 O11 2.038903 1_555
Li9 O10 2.055993 1_455
Li9 O16 2.126229 1_555
Li9 O9 2.154815 1_555
Li9 O19 2.157150 1_455
Li9 O17 2.231420 1_455
Li10 O19 2.030512 1_555
Li10 O16 2.042238 1_545
Li10 O17 2.155224 1_555
Li10 O26 2.163932 1_555
Li10 O9 2.176217 1_545
Li10 O18 2.196046 1_545
Li11 O21 2.076204 1_554
Li11 O18 2.076204 1_555
Li11 O12 2.080938 1_554
Li11 O9 2.080938 1_555
Li11 O19 2.098651 1_455
Li11 O20 2.098651 1_564
Li12 O20 2.030512 1_555
Li12 O15 2.042238 1_655
Li12 O14 2.155224 1_555
Li12 O23 2.163932 1_555
Li12 O12 2.176217 1_655
Li12 O21 2.196046 1_655
Li13 O26 2.081708 1_555
Li13 O23 2.081708 1_555
Li13 O17 2.090184 1_555
Li13 O14 2.090184 1_555
Li13 O15 2.096913 1_545
Li13 O16 2.096913 1_655
Li14 O24 2.047975 1_555
Li14 O25 2.060844 1_555
Li14 O16 2.126496 1_655
Li14 O19 2.142726 1_555
Li14 O18 2.183160 1_655
Li14 O26 2.214158 1_555
Li15 O28 2.047975 1_555
Li15 O22 2.060844 1_555
Li15 O15 2.126496 1_545
Li15 O20 2.142726 1_555
Li15 O21 2.183160 1_545
Li15 O23 2.214158 1_555
Li16 O23 2.060561 1_555
Li16 O21 2.064291 1_655
Li16 O29 2.127567 1_555
Li16 O27 2.130966 1_555
Li16 O22 2.175959 1_665
Li16 O28 2.228144 1_555
Li17 O22 2.059672 1_565
Li17 O25 2.059672 1_455
Li17 O30 2.084758 1_565
Li17 O29 2.084758 1_455
Li17 O33 2.091669 1_455
Li17 O35 2.091669 1_565
Li18 O26 2.060561 1_555
Li18 O18 2.064291 1_545
Li18 O30 2.127567 1_555
Li18 O32 2.130966 1_555
Li18 O25 2.175959 1_445
Li18 O24 2.228144 1_555
Li19 O32 2.000888 1_665
Li19 O30 2.069037 1_555
Li19 O31 2.149883 1_555
Li19 O24 2.163770 1_555
Li19 O33 2.176756 1_555
Li19 O25 2.189031 1_555
Li20 O34 2.081552 1_554
Li20 O31 2.081552 1_555
Li20 O28 2.094936 1_554
Li20 O24 2.094936 1_555
Li20 O27 2.114603 1_554
Li20 O32 2.114603 1_555
Li21 O1 2.057096 1_555
Li21 O0 2.068538 1_555
Li21 O29 2.124406 1_555
Li21 O27 2.135487 1_555
Li21 O35 2.161476 1_665
Li21 O34 2.232327 1_555
Li22 O27 2.000888 1_445
Li22 O29 2.069037 1_555
Li22 O34 2.149883 1_555
Li22 O28 2.163770 1_555
Li22 O35 2.176756 1_555
Li22 O22 2.189031 1_555
Li23 O4 2.057096 1_555
Li23 O2 2.068538 1_555
Li23 O30 2.124406 1_555
Li23 O32 2.135487 1_555
Li23 O33 2.161476 1_445
Li23 O31 2.232327 1_555
Mn0 O31 1.932613 1_555
Mn0 O34 1.932613 1_554
Mn0 O0 1.945857 1_554
Mn0 O2 1.945857 1_555
Mn0 O5 1.946612 1_555
Mn0 O6 1.946612 1_554
Mn1 O35 1.928850 1_655
Mn1 O33 1.928850 1_545
Mn1 O3 1.940888 1_545
Mn1 O8 1.940888 1_655
Mn1 O1 1.942749 1_545
Mn1 O4 1.942749 1_655
Mn2 O9 1.931676 1_555
Mn2 O12 1.931676 1_554
Mn2 O10 1.943161 1_455
Mn2 O13 1.943161 1_564
Mn2 O6 1.944069 1_554
Mn2 O5 1.944069 1_555
Mn3 O11 1.919992 1_555
Mn3 O7 1.919992 1_555
Mn3 O14 1.932384 1_455
Mn3 O17 1.932384 1_565
Mn3 O16 1.947381 1_555
Mn3 O15 1.947381 1_555
Mn4 O10 1.932894 1_555
Mn4 O13 1.932894 1_554
Mn4 O20 1.943428 1_554
Mn4 O19 1.943428 1_555
Mn4 O9 1.945358 1_545
Mn4 O12 1.945358 1_654
Mn5 O22 1.933549 1_565
Mn5 O25 1.933549 1_455
Mn5 O23 1.940136 1_455
Mn5 O26 1.940136 1_565
Mn5 O16 1.947573 1_555
Mn5 O15 1.947573 1_555
Mn6 O24 1.924871 1_455
Mn6 O28 1.924871 1_564
Mn6 O18 1.934942 1_555
Mn6 O21 1.934942 1_554
Mn6 O32 1.943397 1_565
Mn6 O27 1.943397 1_454
Mn7 O18 1.925266 1_545
Mn7 O21 1.925266 1_654
Mn7 O28 1.934507 1_554
Mn7 O24 1.934507 1_555
Mn7 O19 1.945314 1_555
Mn7 O20 1.945314 1_554
Mn8 O23 1.931776 1_555
Mn8 O26 1.931776 1_555
Mn8 O22 1.935163 1_555
Mn8 O25 1.935163 1_555
Mn8 O29 1.940883 1_555
Mn8 O30 1.940883 1_555
Mn9 O31 1.928916 1_455
Mn9 O34 1.928916 1_564
Mn9 O2 1.934477 1_565
Mn9 O0 1.934477 1_454
Mn9 O27 1.945903 1_454
Mn9 O32 1.945903 1_565
Mn10 O4 1.929756 1_555
Mn10 O1 1.929756 1_555
Mn10 O35 1.942371 1_555
Mn10 O33 1.942371 1_555
Mn10 O30 1.945137 1_555
Mn10 O29 1.945137 1_555
Cr0 O14 1.909274 1_555
Cr0 O17 1.909274 1_555
Cr0 O8 1.959178 1_655
Cr0 O3 1.959178 1_545
Cr0 O7 1.962946 1_545
Cr0 O11 1.962946 1_655
