# generated using pymatgen
data_Li3FeAsCO7
_symmetry_space_group_name_H-M   'P 1'
_cell_length_a   8.38415612
_cell_length_b   8.34311445
_cell_length_c   8.67424525
_cell_angle_alpha   86.23357041
_cell_angle_beta   86.53541621
_cell_angle_gamma   104.41483741
_symmetry_Int_Tables_number   1
_chemical_formula_structural   Li3FeAsCO7
_chemical_formula_sum   'Li12 Fe4 As4 C4 O28'
_cell_volume   584.53852451
_cell_formula_units_Z   4
loop_
 _symmetry_equiv_pos_site_id
 _symmetry_equiv_pos_as_xyz
  1  'x, y, z'
loop_
 _atom_site_type_symbol
 _atom_site_label
 _atom_site_symmetry_multiplicity
 _atom_site_fract_x
 _atom_site_fract_y
 _atom_site_fract_z
 _atom_site_occupancy
  Li  Li0  1  0.51914100  0.26877000  0.09679500  1
  Li  Li1  1  0.01903900  0.76875500  0.09667300  1
  Li  Li2  1  0.48086400  0.73125000  0.90323200  1
  Li  Li3  1  0.98091600  0.23120500  0.90332500  1
  Li  Li4  1  0.13718200  0.11929600  0.26732600  1
  Li  Li5  1  0.63709600  0.61919100  0.26736000  1
  Li  Li6  1  0.36566400  0.88765400  0.26964500  1
  Li  Li7  1  0.86557100  0.38784800  0.26985800  1
  Li  Li8  1  0.63446500  0.11232400  0.73030900  1
  Li  Li9  1  0.13449500  0.61215300  0.73010400  1
  Li  Li10  1  0.86283400  0.88061400  0.73276100  1
  Li  Li11  1  0.36300000  0.38074600  0.73275600  1
  Fe  Fe0  1  0.26866000  0.51848600  0.31905300  1
  Fe  Fe1  1  0.73132200  0.48152500  0.68077300  1
  Fe  Fe2  1  0.76877800  0.01863100  0.31914100  1
  Fe  Fe3  1  0.23123600  0.98144600  0.68092500  1
  As  As0  1  0.48614000  0.23589500  0.41457600  1
  As  As1  1  0.98613800  0.73596300  0.41452400  1
  As  As2  1  0.51384800  0.76412300  0.58541500  1
  As  As3  1  0.01389900  0.26407600  0.58547700  1
  C  C0  1  0.71235900  0.96159600  0.02796500  1
  C  C1  1  0.21246200  0.46148100  0.02791300  1
  C  C2  1  0.28759600  0.03841300  0.97206800  1
  C  C3  1  0.78748600  0.53847300  0.97206600  1
  O  O0  1  0.31920200  0.06893300  0.11392300  1
  O  O1  1  0.81907600  0.56895100  0.11393700  1
  O  O2  1  0.68077800  0.93106900  0.88610100  1
  O  O3  1  0.18089200  0.43097800  0.88604600  1
  O  O4  1  0.83271300  0.08332700  0.05824400  1
  O  O5  1  0.33273100  0.58328100  0.05821900  1
  O  O6  1  0.16728400  0.91664100  0.94178200  1
  O  O7  1  0.66722800  0.41666800  0.94174900  1
  O  O8  1  0.62153800  0.86849600  0.14399300  1
  O  O9  1  0.12167800  0.36831600  0.14391600  1
  O  O10  1  0.37836700  0.13155800  0.85603600  1
  O  O11  1  0.87824300  0.63168600  0.85607400  1
  O  O12  1  0.31621100  0.06641900  0.43785700  1
  O  O13  1  0.81613700  0.56656200  0.43777100  1
  O  O14  1  0.68378000  0.93360200  0.56215900  1
  O  O15  1  0.18389400  0.43347000  0.56217000  1
  O  O16  1  0.46056700  0.71230300  0.40515400  1
  O  O17  1  0.96061700  0.21240000  0.40517700  1
  O  O18  1  0.53946100  0.28767300  0.59483300  1
  O  O19  1  0.03941000  0.78761000  0.59482800  1
  O  O20  1  0.44735500  0.39323800  0.29426700  1
  O  O21  1  0.94747300  0.89335800  0.29423700  1
  O  O22  1  0.64140600  0.19614000  0.29403700  1
  O  O23  1  0.14128700  0.69600200  0.29400800  1
  O  O24  1  0.35859000  0.80390300  0.70595900  1
  O  O25  1  0.85872200  0.30403900  0.70596300  1
  O  O26  1  0.55266500  0.60680400  0.70571800  1
  O  O27  1  0.05250300  0.10666300  0.70579900  1
loop_
_geom_bond_atom_site_label_1
_geom_bond_atom_site_label_2
_geom_bond_distance
_geom_bond_site_symmetry_2
Li0 O7 1.921009 1_554
Li0 O0 2.039051 1_555
Li0 O22 2.174924 1_555
Li0 O20 2.189746 1_555
Li1 O6 1.920723 1_554
Li1 O1 2.038972 1_455
Li1 O23 2.175837 1_555
Li1 O21 2.190415 1_455
Li2 O5 1.921122 1_556
Li2 O2 2.038831 1_555
Li2 O24 2.175249 1_555
Li2 O26 2.189971 1_555
Li3 O4 1.920688 1_556
Li3 O3 2.038878 1_655
Li3 O25 2.175990 1_555
Li3 O27 2.189910 1_655
Li4 O0 2.103191 1_555
Li4 O21 2.131248 1_445
Li4 O17 2.169157 1_455
Li4 O12 2.268936 1_555
Li4 O9 2.310489 1_555
Li5 O1 2.102615 1_555
Li5 O20 2.131474 1_555
Li5 O16 2.168708 1_555
Li5 O13 2.267650 1_555
Li5 O8 2.312576 1_555
Li6 O0 2.086218 1_565
Li6 O23 2.133134 1_555
Li6 O16 2.149823 1_555
Li6 O12 2.246338 1_565
Li6 O8 2.393068 1_555
Li7 O1 2.086316 1_555
Li7 O22 2.132160 1_555
Li7 O17 2.150242 1_555
Li7 O13 2.244200 1_555
Li7 O9 2.396818 1_655
Li8 O2 2.085936 1_545
Li8 O25 2.132717 1_555
Li8 O18 2.150145 1_555
Li8 O14 2.245342 1_545
Li8 O10 2.395197 1_555
Li9 O3 2.086531 1_555
Li9 O24 2.131941 1_555
Li9 O19 2.150290 1_555
Li9 O15 2.244038 1_555
Li9 O11 2.397996 1_455
Li10 O2 2.103408 1_555
Li10 O27 2.131717 1_665
Li10 O19 2.169134 1_655
Li10 O14 2.269804 1_555
Li10 O11 2.309223 1_555
Li11 O3 2.102684 1_555
Li11 O26 2.131756 1_555
Li11 O18 2.168700 1_555
Li11 O15 2.269340 1_555
Li11 O10 2.310914 1_555
Fe0 O20 2.037851 1_555
Fe0 O23 2.038219 1_555
Fe0 O16 2.184022 1_555
Fe0 O15 2.197003 1_555
Fe0 O9 2.259175 1_555
Fe0 O5 2.290789 1_555
Fe1 O26 2.037891 1_555
Fe1 O25 2.038281 1_555
Fe1 O18 2.183363 1_555
Fe1 O13 2.196194 1_555
Fe1 O11 2.259966 1_555
Fe1 O7 2.292049 1_555
Fe2 O21 2.038095 1_545
Fe2 O22 2.038210 1_555
Fe2 O17 2.183218 1_555
Fe2 O14 2.196595 1_545
Fe2 O8 2.260080 1_545
Fe2 O4 2.291087 1_555
Fe3 O27 2.038014 1_565
Fe3 O24 2.038288 1_555
Fe3 O19 2.183709 1_555
Fe3 O12 2.196874 1_565
Fe3 O10 2.259344 1_565
Fe3 O6 2.290874 1_555
As0 O18 1.705394 1_555
As0 O20 1.729638 1_555
As0 O22 1.730289 1_555
As0 O12 1.730491 1_555
As1 O19 1.705405 1_655
As1 O21 1.729447 1_555
As1 O23 1.730147 1_655
As1 O13 1.730479 1_555
As2 O16 1.705428 1_555
As2 O26 1.729566 1_555
As2 O24 1.730350 1_555
As2 O14 1.730519 1_555
As3 O17 1.705453 1_455
As3 O27 1.729523 1_555
As3 O25 1.730184 1_455
As3 O15 1.730420 1_555
C0 O4 1.294415 1_565
C0 O2 1.302399 1_554
C0 O8 1.306251 1_555
C1 O5 1.294409 1_555
C1 O3 1.302363 1_554
C1 O9 1.306197 1_555
C2 O6 1.294430 1_545
C2 O0 1.302355 1_556
C2 O10 1.306263 1_555
C3 O7 1.294408 1_555
C3 O1 1.302389 1_556
C3 O11 1.306202 1_555
