# generated using pymatgen
data_Li3VP3O11
_symmetry_space_group_name_H-M   'P 1'
_cell_length_a   9.57552422
_cell_length_b   8.27486565
_cell_length_c   6.04103961
_cell_angle_alpha   95.63734127
_cell_angle_beta   101.50579706
_cell_angle_gamma   114.17832350
_symmetry_Int_Tables_number   1
_chemical_formula_structural   Li3VP3O11
_chemical_formula_sum   'Li6 V2 P6 O22'
_cell_volume   419.14530051
_cell_formula_units_Z   2
loop_
 _symmetry_equiv_pos_site_id
 _symmetry_equiv_pos_as_xyz
  1  'x, y, z'
loop_
 _atom_site_type_symbol
 _atom_site_label
 _atom_site_symmetry_multiplicity
 _atom_site_fract_x
 _atom_site_fract_y
 _atom_site_fract_z
 _atom_site_occupancy
  Li  Li0  1  0.96174900  0.85552900  0.60497900  1
  Li  Li1  1  0.11545400  0.57516500  0.38525500  1
  Li  Li2  1  0.52342000  0.97789900  0.76790800  1
  Li  Li3  1  0.47658000  0.02210100  0.23209200  1
  Li  Li4  1  0.88454600  0.42483500  0.61474500  1
  Li  Li5  1  0.03825100  0.14447100  0.39502100  1
  V  V0  1  0.72429700  0.69851500  0.89457500  1
  V  V1  1  0.27570300  0.30148500  0.10542500  1
  P  P0  1  0.22994400  0.66123900  0.92392500  1
  P  P1  1  0.10728300  0.88435900  0.14438200  1
  P  P2  1  0.40293800  0.31191200  0.64301200  1
  P  P3  1  0.59706200  0.68808800  0.35698800  1
  P  P4  1  0.89271700  0.11564100  0.85561800  1
  P  P5  1  0.77005600  0.33876100  0.07607500  1
  O  O0  1  0.10222800  0.61319800  0.69930600  1
  O  O1  1  0.06383200  0.90164300  0.36826100  1
  O  O2  1  0.22790400  0.48874800  0.00148700  1
  O  O3  1  0.16197800  0.72228700  0.13792300  1
  O  O4  1  0.38710100  0.81267200  0.93447900  1
  O  O5  1  0.03523100  0.17592400  0.07140200  1
  O  O6  1  0.26836600  0.30866700  0.43787200  1
  O  O7  1  0.30737400  0.23312200  0.82381700  1
  O  O8  1  0.51643200  0.80125200  0.42460800  1
  O  O9  1  0.51213100  0.51564700  0.75169000  1
  O  O10  1  0.74470400  0.95413900  0.87727900  1
  O  O11  1  0.25529600  0.04586100  0.12272100  1
  O  O12  1  0.48786900  0.48435300  0.24831000  1
  O  O13  1  0.48356800  0.19874800  0.57539200  1
  O  O14  1  0.69262600  0.76687800  0.17618300  1
  O  O15  1  0.73163400  0.69133300  0.56212800  1
  O  O16  1  0.96476900  0.82407600  0.92859800  1
  O  O17  1  0.61289900  0.18732800  0.06552100  1
  O  O18  1  0.83802200  0.27771300  0.86207700  1
  O  O19  1  0.77209600  0.51125200  0.99851300  1
  O  O20  1  0.93616800  0.09835700  0.63173900  1
  O  O21  1  0.89777200  0.38680200  0.30069400  1
loop_
_geom_bond_atom_site_label_1
_geom_bond_atom_site_label_2
_geom_bond_distance
_geom_bond_site_symmetry_2
Li0 O1 1.872267 1_655
Li0 O16 1.993529 1_555
Li0 O15 2.004813 1_555
Li0 O20 2.116333 1_565
Li1 O0 1.930190 1_555
Li1 O21 1.947469 1_455
Li1 O3 2.022786 1_555
Li2 O4 1.979424 1_555
Li2 O17 2.127634 1_566
Li2 O10 2.184778 1_555
Li2 O13 2.376909 1_565
Li2 O8 2.389790 1_555
Li3 O17 1.979424 1_555
Li3 O4 2.127634 1_544
Li3 O11 2.184778 1_555
Li3 O8 2.376909 1_545
Li3 O13 2.389790 1_555
Li4 O21 1.930190 1_555
Li4 O0 1.947469 1_655
Li4 O18 2.022786 1_555
Li5 O20 1.872267 1_455
Li5 O5 1.993529 1_555
Li5 O6 2.004813 1_555
Li5 O1 2.116333 1_545
O0 P0 1.525996 1_555
O1 P1 1.502647 1_555
O2 P0 1.539295 1_554
O2 V1 1.913742 1_555
O3 P1 1.627167 1_555
O3 P0 1.681264 1_554
O4 P0 1.496739 1_555
O5 P4 1.554131 1_454
O5 V1 2.057521 1_555
O6 P2 1.589033 1_555
O6 V1 2.019430 1_555
O7 P2 1.582836 1_555
O7 V1 1.861010 1_556
O8 P3 1.510877 1_555
O9 P2 1.559235 1_555
O9 V0 1.920364 1_555
O10 P4 1.539038 1_565
O10 V0 2.058247 1_555
O11 P1 1.539038 1_545
O11 V1 2.058247 1_555
O12 P3 1.559235 1_555
O12 V1 1.920364 1_555
O13 P2 1.510877 1_555
O14 P3 1.582836 1_555
O14 V0 1.861010 1_554
O15 P3 1.589033 1_555
O15 V0 2.019430 1_555
O16 P1 1.554131 1_656
O16 V0 2.057521 1_555
O17 P5 1.496739 1_555
O18 P4 1.627167 1_555
O18 P5 1.681264 1_556
O19 P5 1.539295 1_556
O19 V0 1.913742 1_555
O20 P4 1.502647 1_555
O21 P5 1.525996 1_555
