# generated using pymatgen
data_Li2Mn2OF6
_symmetry_space_group_name_H-M   'P 1'
_cell_length_a   8.85508491
_cell_length_b   6.43143609
_cell_length_c   5.48276270
_cell_angle_alpha   94.93917595
_cell_angle_beta   76.27725872
_cell_angle_gamma   107.91890110
_symmetry_Int_Tables_number   1
_chemical_formula_structural   Li2Mn2OF6
_chemical_formula_sum   'Li4 Mn4 O2 F12'
_cell_volume   288.59229162
_cell_formula_units_Z   2
loop_
 _symmetry_equiv_pos_site_id
 _symmetry_equiv_pos_as_xyz
  1  'x, y, z'
loop_
 _atom_site_type_symbol
 _atom_site_label
 _atom_site_symmetry_multiplicity
 _atom_site_fract_x
 _atom_site_fract_y
 _atom_site_fract_z
 _atom_site_occupancy
  Li  Li0  1  0.27012600  0.60492800  0.08557200  1
  Li  Li1  1  0.35998400  0.75808300  0.54927800  1
  Li  Li2  1  0.64001300  0.24192800  0.45072600  1
  Li  Li3  1  0.72987400  0.39508100  0.91440800  1
  Mn  Mn0  1  0.17712600  0.00030800  0.33061000  1
  Mn  Mn1  1  0.30343900  0.20338700  0.78910100  1
  Mn  Mn2  1  0.69654400  0.79654500  0.21098800  1
  Mn  Mn3  1  0.82303700  0.99966900  0.66921100  1
  O  O0  1  0.36120000  0.10250500  0.46383000  1
  O  O1  1  0.63880100  0.89750300  0.53620600  1
  F  F0  1  0.15537000  0.71059400  0.40467200  1
  F  F1  1  0.26126800  0.91046500  0.93501200  1
  F  F2  1  0.05119800  0.08348800  0.70707900  1
  F  F3  1  0.22070900  0.27389500  0.14836100  1
  F  F4  1  0.29645800  0.49592000  0.73929900  1
  F  F5  1  0.46080500  0.70471400  0.20120000  1
  F  F6  1  0.53916600  0.29530700  0.79881300  1
  F  F7  1  0.70351700  0.50409900  0.26071500  1
  F  F8  1  0.77926400  0.72610400  0.85165400  1
  F  F9  1  0.94878200  0.91653200  0.29293600  1
  F  F10  1  0.73870300  0.08955400  0.06500400  1
  F  F11  1  0.84461400  0.28939200  0.59532600  1
loop_
_geom_bond_atom_site_label_1
_geom_bond_atom_site_label_2
_geom_bond_distance
_geom_bond_site_symmetry_2
Li1 O0 2.299570 1_565
Li1 O1 2.338741 1_555
Li2 O1 2.299651 1_545
Li2 O0 2.338677 1_555
Mn0 O0 1.856160 1_555
Mn1 O0 1.853433 1_555
Mn2 O1 1.853329 1_555
Mn3 O1 1.856715 1_555
F0 Mn0 1.883106 1_565
F0 Li0 1.982947 1_555
F0 Li1 2.074634 1_555
F1 Mn1 2.003358 1_565
F1 Mn0 2.208128 1_566
F1 Li0 2.225725 1_556
F1 Li1 2.343176 1_555
F2 Mn3 1.981216 1_445
F2 Mn0 2.207946 1_555
F2 Mn1 2.267797 1_555
F3 Mn0 1.986297 1_555
F3 Mn1 1.997037 1_554
F3 Li0 2.079465 1_555
F4 Li1 1.919778 1_555
F4 Mn1 1.945793 1_555
F4 Li0 1.952350 1_556
F5 Li0 1.853576 1_555
F5 Li1 1.955599 1_555
F5 Mn2 1.999588 1_555
F6 Li3 1.853705 1_555
F6 Li2 1.955721 1_555
F6 Mn1 1.999367 1_555
F7 Li2 1.919811 1_555
F7 Mn2 1.945119 1_555
F7 Li3 1.952540 1_554
F8 Mn3 1.986410 1_555
F8 Mn2 1.997267 1_556
F8 Li3 2.079397 1_555
F9 Mn0 1.982444 1_665
F9 Mn3 2.206434 1_555
F9 Mn2 2.267620 1_555
F10 Mn2 2.004067 1_545
F10 Mn3 2.209459 1_544
F10 Li3 2.225654 1_554
F10 Li2 2.343035 1_555
F11 Mn3 1.883297 1_545
F11 Li3 1.982879 1_555
F11 Li2 2.074534 1_555
