# generated using pymatgen
data_Li3V2(O2F)2
_symmetry_space_group_name_H-M   'P 1'
_cell_length_a   5.21634800
_cell_length_b   5.95862838
_cell_length_c   14.93876427
_cell_angle_alpha   90.75004093
_cell_angle_beta   90.76523014
_cell_angle_gamma   90.96686549
_symmetry_Int_Tables_number   1
_chemical_formula_structural   Li3V2(O2F)2
_chemical_formula_sum   'Li12 V8 O16 F8'
_cell_volume   464.18214950
_cell_formula_units_Z   4
loop_
 _symmetry_equiv_pos_site_id
 _symmetry_equiv_pos_as_xyz
  1  'x, y, z'
loop_
 _atom_site_type_symbol
 _atom_site_label
 _atom_site_symmetry_multiplicity
 _atom_site_fract_x
 _atom_site_fract_y
 _atom_site_fract_z
 _atom_site_occupancy
  Li  Li0  1  0.68344600  0.97668800  0.82838900  1
  Li  Li1  1  0.66002800  0.99988800  0.33168000  1
  Li  Li2  1  0.31322500  0.99536000  0.69118900  1
  Li  Li3  1  0.15405800  0.74529500  0.33299000  1
  Li  Li4  1  0.12754100  0.75679800  0.82780100  1
  Li  Li5  1  0.50834400  0.75045600  0.95630500  1
  Li  Li6  1  0.97335100  0.50474200  0.96687900  1
  Li  Li7  1  0.37733100  0.50806700  0.70823200  1
  Li  Li8  1  0.14824300  0.24054200  0.84450700  1
  Li  Li9  1  0.15503300  0.25658500  0.33332100  1
  Li  Li10  1  0.51679400  0.24834000  0.96184200  1
  Li  Li11  1  0.83951700  0.27447100  0.70869800  1
  V  V0  1  0.99680100  0.00096000  0.50122000  1
  V  V1  1  0.32908400  0.99932200  0.16229600  1
  V  V2  1  0.49993500  0.74748000  0.49731500  1
  V  V3  1  0.82478800  0.74561500  0.16858800  1
  V  V4  1  0.00032000  0.50163000  0.50325800  1
  V  V5  1  0.33892300  0.49954100  0.17227200  1
  V  V6  1  0.50152500  0.25094200  0.49438100  1
  V  V7  1  0.83519500  0.24813400  0.16850600  1
  O  O0  1  0.66158000  0.02132600  0.56153000  1
  O  O1  1  0.65782000  0.99269800  0.10232000  1
  O  O2  1  0.99594300  0.98679600  0.24242300  1
  O  O3  1  0.32865800  0.99685900  0.42192900  1
  O  O4  1  0.17428300  0.75596900  0.56556500  1
  O  O5  1  0.16610000  0.75683900  0.10534300  1
  O  O6  1  0.50397200  0.76221900  0.24041700  1
  O  O7  1  0.84501000  0.76953800  0.42732600  1
  O  O8  1  0.66184100  0.49615800  0.56298700  1
  O  O9  1  0.68156500  0.51632000  0.10047400  1
  O  O10  1  0.00410200  0.50199800  0.24219800  1
  O  O11  1  0.32364100  0.47885000  0.42575900  1
  O  O12  1  0.17341300  0.22913000  0.56550900  1
  O  O13  1  0.16787700  0.25010000  0.10424500  1
  O  O14  1  0.48941900  0.22979700  0.23951100  1
  O  O15  1  0.83333900  0.24224400  0.42705300  1
  F  F0  1  0.00218500  0.01947300  0.75613200  1
  F  F1  1  0.35977700  0.00387600  0.90748500  1
  F  F2  1  0.46999800  0.77432000  0.75462100  1
  F  F3  1  0.83741800  0.75275800  0.91323600  1
  F  F4  1  0.05494100  0.48531400  0.75589500  1
  F  F5  1  0.31355200  0.49350100  0.93079600  1
  F  F6  1  0.50598500  0.23537500  0.73826600  1
  F  F7  1  0.83743300  0.24768400  0.91597700  1
loop_
_geom_bond_atom_site_label_1
_geom_bond_atom_site_label_2
_geom_bond_distance
_geom_bond_site_symmetry_2
Li1 O6 2.099494 1_555
Li1 O14 2.149975 1_565
Li1 O15 2.190971 1_565
Li1 O3 2.206282 1_555
Li1 O7 2.217165 1_555
Li1 O2 2.217812 1_555
Li2 O4 2.437335 1_555
Li2 O12 2.462396 1_565
Li3 O10 2.105960 1_555
Li3 O2 2.154704 1_455
Li3 O7 2.160781 1_455
Li3 O3 2.170526 1_555
Li3 O11 2.301303 1_555
Li3 O6 2.306326 1_555
Li6 O9 2.526953 1_556
Li9 O11 2.077222 1_555
Li9 O10 2.161859 1_555
Li9 O15 2.201123 1_455
Li9 O2 2.232622 1_445
Li9 O3 2.244204 1_545
Li9 O14 2.258482 1_555
O0 V6 1.904571 1_555
O0 V0 1.982558 1_555
O0 V2 2.045678 1_545
O1 V1 1.946087 1_555
O1 V3 1.991131 1_555
O1 V7 2.009716 1_565
O2 V3 1.991956 1_555
O2 V7 2.100407 1_565
O2 V1 2.124094 1_655
O3 V6 2.040025 1_565
O3 V2 2.082381 1_555
O3 V0 2.110863 1_465
O4 V4 1.969951 1_555
O4 V0 1.992666 1_465
O4 V2 1.993872 1_555
O5 V1 1.855090 1_555
O5 V3 2.027196 1_455
O5 V5 2.055630 1_555
O6 V3 2.003130 1_555
O6 V5 2.028994 1_555
O6 V1 2.061180 1_555
O7 V0 1.909706 1_565
O7 V2 2.096770 1_555
O7 V4 2.134932 1_655
O8 V6 1.944572 1_555
O8 V4 1.988857 1_655
O8 V2 1.994337 1_555
O9 V3 1.835518 1_555
O9 V7 2.071900 1_555
O9 V5 2.098327 1_555
O10 V7 2.040080 1_455
O10 V5 2.047200 1_555
O10 V3 2.061909 1_455
O11 V6 1.951839 1_555
O11 V4 2.063739 1_555
O11 V2 2.104699 1_555
O12 V0 1.876025 1_455
O12 V6 2.029781 1_555
O12 V4 2.093594 1_555
O13 V1 1.936221 1_545
O13 V5 1.982290 1_555
O13 V7 1.994334 1_455
O14 V1 1.951934 1_545
O14 V5 2.066993 1_555
O14 V7 2.106622 1_555
O15 V6 2.014533 1_555
O15 V0 2.019783 1_555
O15 V4 2.079788 1_655
F0 Li11 1.893796 1_455
F0 Li2 1.908040 1_545
F0 Li8 1.988056 1_555
F0 Li0 2.008835 1_445
F0 Li4 2.020737 1_545
F1 Li10 1.833883 1_555
F1 Li5 1.861698 1_545
F1 Li8 2.037375 1_555
F1 Li0 2.080989 1_545
F1 Li4 2.215281 1_545
F2 Li7 1.779685 1_555
F2 Li2 1.830238 1_555
F2 Li0 1.948147 1_555
F2 Li4 2.108559 1_555
F3 Li6 1.838519 1_555
F3 Li5 1.841108 1_555
F3 Li4 1.992736 1_655
F3 Li0 2.021217 1_555
F4 Li11 1.801737 1_455
F4 Li7 1.838556 1_555
F4 Li4 1.958858 1_555
F4 Li8 2.042971 1_555
F5 Li5 1.855754 1_555
F5 Li6 1.863570 1_455
F5 Li10 1.878819 1_555
F5 Li8 2.133712 1_555
F5 Li4 2.417629 1_555
F6 Li11 1.812702 1_555
F6 Li7 1.827494 1_555
F6 Li2 1.859364 1_545
F6 Li0 2.261567 1_545
F6 Li8 2.466169 1_555
F7 Li10 1.815957 1_555
F7 Li6 1.829072 1_555
F7 Li8 1.953895 1_655
F7 Li0 2.199448 1_545
