# generated using pymatgen
data_LiMnF4
_symmetry_space_group_name_H-M   'P 1'
_cell_length_a   6.33163200
_cell_length_b   6.38153700
_cell_length_c   6.84585600
_cell_angle_alpha   90.00000000
_cell_angle_beta   90.00000000
_cell_angle_gamma   90.00000000
_symmetry_Int_Tables_number   1
_chemical_formula_structural   LiMnF4
_chemical_formula_sum   'Li4 Mn4 F16'
_cell_volume   276.61053499
_cell_formula_units_Z   4
loop_
 _symmetry_equiv_pos_site_id
 _symmetry_equiv_pos_as_xyz
  1  'x, y, z'
loop_
 _atom_site_type_symbol
 _atom_site_label
 _atom_site_symmetry_multiplicity
 _atom_site_fract_x
 _atom_site_fract_y
 _atom_site_fract_z
 _atom_site_occupancy
  Li  Li0  1  0.24216400  0.25000000  0.26442900  1
  Li  Li1  1  0.25783600  0.75000000  0.76442900  1
  Li  Li2  1  0.74216400  0.25000000  0.23557100  1
  Li  Li3  1  0.75783600  0.75000000  0.73557100  1
  Mn  Mn0  1  0.00752400  0.25000000  0.74988100  1
  Mn  Mn1  1  0.49247600  0.75000000  0.24988100  1
  Mn  Mn2  1  0.50752400  0.25000000  0.75011900  1
  Mn  Mn3  1  0.99247600  0.75000000  0.25011900  1
  F  F0  1  0.00736000  0.95928300  0.74955200  1
  F  F1  1  0.00736000  0.54071700  0.74955200  1
  F  F2  1  0.24306400  0.75000000  0.05736600  1
  F  F3  1  0.25701400  0.25000000  0.93658500  1
  F  F4  1  0.24298600  0.75000000  0.43658500  1
  F  F5  1  0.25693600  0.25000000  0.55736600  1
  F  F6  1  0.49264000  0.04071700  0.24955200  1
  F  F7  1  0.49264000  0.45928300  0.24955200  1
  F  F8  1  0.50736000  0.95928300  0.75044800  1
  F  F9  1  0.50736000  0.54071700  0.75044800  1
  F  F10  1  0.74306400  0.75000000  0.44263400  1
  F  F11  1  0.75701400  0.25000000  0.56341500  1
  F  F12  1  0.74298600  0.75000000  0.06341500  1
  F  F13  1  0.75693600  0.25000000  0.94263400  1
  F  F14  1  0.99264000  0.45928300  0.25044800  1
  F  F15  1  0.99264000  0.04071700  0.25044800  1
loop_
_geom_bond_atom_site_label_1
_geom_bond_atom_site_label_2
_geom_bond_distance
_geom_bond_site_symmetry_2
F0 Mn0 1.855223 1_565
F0 Li3 2.070969 1_455
F0 Li1 2.075863 1_555
F1 Mn0 1.855223 1_555
F1 Li3 2.070969 1_455
F1 Li1 2.075863 1_555
F2 Li1 2.007584 1_554
F2 Mn1 2.056882 1_555
F2 Mn3 2.063646 1_455
F3 Mn0 2.032006 1_555
F3 Mn2 2.036009 1_555
F3 Li0 2.246341 1_556
F4 Mn1 2.032006 1_555
F4 Mn3 2.036009 1_455
F4 Li1 2.246341 1_555
F5 Li0 2.007584 1_555
F5 Mn0 2.056882 1_555
F5 Mn2 2.063646 1_555
F6 Mn1 1.855223 1_545
F6 Li2 2.070969 1_555
F6 Li0 2.075863 1_555
F7 Mn1 1.855223 1_555
F7 Li2 2.070969 1_555
F7 Li0 2.075863 1_555
F8 Mn2 1.855223 1_565
F8 Li1 2.070969 1_555
F8 Li3 2.075863 1_555
F9 Mn2 1.855223 1_555
F9 Li1 2.070969 1_555
F9 Li3 2.075863 1_555
F10 Li3 2.007584 1_555
F10 Mn3 2.056882 1_555
F10 Mn1 2.063646 1_555
F11 Mn2 2.032006 1_555
F11 Mn0 2.036009 1_655
F11 Li2 2.246341 1_555
F12 Mn3 2.032006 1_555
F12 Mn1 2.036009 1_555
F12 Li3 2.246341 1_554
F13 Li2 2.007584 1_556
F13 Mn2 2.056882 1_555
F13 Mn0 2.063646 1_655
F14 Mn3 1.855223 1_555
F14 Li0 2.070969 1_655
F14 Li2 2.075863 1_555
F15 Mn3 1.855223 1_545
F15 Li0 2.070969 1_655
F15 Li2 2.075863 1_555
