# generated using pymatgen
data_Cd6(CoO3)5
_symmetry_space_group_name_H-M   'P 1'
_cell_length_a   6.75916260
_cell_length_b   6.75925800
_cell_length_c   6.75917205
_cell_angle_alpha   87.34780162
_cell_angle_beta   87.34515751
_cell_angle_gamma   87.34676901
_symmetry_Int_Tables_number   1
_chemical_formula_structural   Cd6(CoO3)5
_chemical_formula_sum   'Cd6 Co5 O15'
_cell_volume   307.84217695
_cell_formula_units_Z   1
loop_
 _symmetry_equiv_pos_site_id
 _symmetry_equiv_pos_as_xyz
  1  'x, y, z'
loop_
 _atom_site_type_symbol
 _atom_site_label
 _atom_site_symmetry_multiplicity
 _atom_site_fract_x
 _atom_site_fract_y
 _atom_site_fract_z
 _atom_site_occupancy
  Cd  Cd0  1  0.16601700  0.83397200  0.49997800  1
  Cd  Cd1  1  0.50001100  0.16603800  0.83397400  1
  Cd  Cd2  1  0.83400100  0.50001400  0.16601600  1
  Cd  Cd3  1  0.31642800  0.68355700  0.99999900  1
  Cd  Cd4  1  0.99999300  0.31642200  0.68356500  1
  Cd  Cd5  1  0.68356400  0.99999800  0.31644500  1
  Co  Co0  1  0.49999700  0.49999600  0.50000400  1
  Co  Co1  1  0.10314800  0.10311800  0.10315300  1
  Co  Co2  1  0.89684500  0.89685600  0.89688400  1
  Co  Co3  1  0.29964800  0.29965700  0.29963400  1
  Co  Co4  1  0.70035300  0.70035700  0.70034300  1
  O  O0  1  0.99999600  0.84487900  0.15510100  1
  O  O1  1  0.15506700  0.00000800  0.84490000  1
  O  O2  1  0.84492700  0.15510200  0.99998900  1
  O  O3  1  0.30239900  0.57989700  0.31895700  1
  O  O4  1  0.42008700  0.69759500  0.68105300  1
  O  O5  1  0.31895400  0.30241200  0.57990300  1
  O  O6  1  0.69759600  0.68104800  0.42009000  1
  O  O7  1  0.57990800  0.31895200  0.30240300  1
  O  O8  1  0.68105100  0.42010200  0.69760000  1
  O  O9  1  0.74451400  0.97793900  0.67345000  1
  O  O10  1  0.02205500  0.25547200  0.32655300  1
  O  O11  1  0.25549100  0.32654800  0.02207200  1
  O  O12  1  0.67343900  0.74453700  0.97795200  1
  O  O13  1  0.32655600  0.02206900  0.25545800  1
  O  O14  1  0.97795400  0.67345300  0.74452500  1
loop_
_geom_bond_atom_site_label_1
_geom_bond_atom_site_label_2
_geom_bond_distance
_geom_bond_site_symmetry_2
Cd0 O3 2.289012 1_555
Cd0 O4 2.289227 1_555
Cd0 O14 2.300496 1_455
Cd0 O13 2.300570 1_565
Cd0 O0 2.630095 1_455
Cd0 O1 2.630366 1_565
Cd1 O8 2.289037 1_555
Cd1 O5 2.289163 1_555
Cd1 O9 2.300425 1_545
Cd1 O11 2.300448 1_556
Cd1 O2 2.630305 1_555
Cd1 O1 2.630503 1_555
Cd2 O6 2.289095 1_555
Cd2 O7 2.289279 1_555
Cd2 O10 2.300548 1_655
Cd2 O12 2.300579 1_554
Cd2 O0 2.629935 1_555
Cd2 O2 2.630303 1_554
Cd3 O4 2.234889 1_555
Cd3 O3 2.234997 1_556
Cd3 O11 2.463340 1_556
Cd3 O12 2.463375 1_555
Cd3 O0 2.558272 1_456
Cd3 O1 2.558553 1_565
Cd4 O8 2.234916 1_555
Cd4 O5 2.234984 1_655
Cd4 O10 2.463335 1_655
Cd4 O14 2.463507 1_555
Cd4 O2 2.558155 1_555
Cd4 O1 2.558217 1_655
Cd5 O6 2.234945 1_555
Cd5 O7 2.234981 1_565
Cd5 O9 2.463313 1_555
Cd5 O13 2.463380 1_565
Cd5 O0 2.558376 1_555
Cd5 O2 2.558544 1_564
Co0 O5 1.896324 1_555
Co0 O7 1.896406 1_555
Co0 O4 1.896420 1_555
Co0 O3 1.896436 1_555
Co0 O8 1.896448 1_555
Co0 O6 1.896457 1_555
Co1 O13 1.911905 1_555
Co1 O10 1.912067 1_555
Co1 O11 1.912203 1_555
Co1 O1 1.920709 1_554
Co1 O2 1.920745 1_454
Co1 O0 1.920798 1_445
Co2 O12 1.911947 1_555
Co2 O14 1.912138 1_555
Co2 O9 1.912199 1_555
Co2 O2 1.920673 1_565
Co2 O0 1.920685 1_556
Co2 O1 1.920695 1_665
Co3 O3 1.905737 1_555
Co3 O7 1.905834 1_555
Co3 O5 1.905903 1_555
Co3 O11 1.912360 1_555
Co3 O13 1.912569 1_555
Co3 O10 1.912594 1_555
Co4 O6 1.905793 1_555
Co4 O8 1.905821 1_555
Co4 O4 1.905870 1_555
Co4 O9 1.912513 1_555
Co4 O14 1.912651 1_555
Co4 O12 1.912689 1_555
