# generated using pymatgen
data_Li4Mn(WO4)3
_symmetry_space_group_name_H-M   'P 1'
_cell_length_a   7.12936357
_cell_length_b   10.22223545
_cell_length_c   7.30299899
_cell_angle_alpha   69.53919482
_cell_angle_beta   91.19287127
_cell_angle_gamma   70.04258308
_symmetry_Int_Tables_number   1
_chemical_formula_structural   Li4Mn(WO4)3
_chemical_formula_sum   'Li8 Mn2 W6 O24'
_cell_volume   462.73303946
_cell_formula_units_Z   2
loop_
 _symmetry_equiv_pos_site_id
 _symmetry_equiv_pos_as_xyz
  1  'x, y, z'
loop_
 _atom_site_type_symbol
 _atom_site_label
 _atom_site_symmetry_multiplicity
 _atom_site_fract_x
 _atom_site_fract_y
 _atom_site_fract_z
 _atom_site_occupancy
  Li  Li0  1  0.14353000  0.71199300  0.14408800  1
  Li  Li1  1  0.64352900  0.71198900  0.64408800  1
  Li  Li2  1  0.83254500  0.83444100  0.83273800  1
  Li  Li3  1  0.33255800  0.83442200  0.33273700  1
  Li  Li4  1  0.57852100  0.34230900  0.07886100  1
  Li  Li5  1  0.07850600  0.34236400  0.57881900  1
  Li  Li6  1  0.40237700  0.19499200  0.90256800  1
  Li  Li7  1  0.90234400  0.19499400  0.40255600  1
  Mn  Mn0  1  0.44822600  0.10343500  0.44817500  1
  Mn  Mn1  1  0.94852800  0.10385100  0.94807000  1
  W  W0  1  0.19312300  0.61345600  0.69333100  1
  W  W1  1  0.69312900  0.61344700  0.19335800  1
  W  W2  1  0.28364300  0.93230900  0.78374000  1
  W  W3  1  0.05016400  0.39984200  0.05030400  1
  W  W4  1  0.55015800  0.39979700  0.55030000  1
  W  W5  1  0.78366300  0.93242900  0.28360300  1
  O  O0  1  0.31357100  0.26807400  0.15339500  1
  O  O1  1  0.81373400  0.26816100  0.65330700  1
  O  O2  1  0.41851500  0.26826000  0.57825200  1
  O  O3  1  0.91847200  0.26828000  0.07825600  1
  O  O4  1  0.15166200  0.58066700  0.96510600  1
  O  O5  1  0.65165300  0.58067200  0.46510600  1
  O  O6  1  0.26747200  0.57980100  0.45471000  1
  O  O7  1  0.76745000  0.57980800  0.95471200  1
  O  O8  1  0.04774000  0.89928900  0.86098300  1
  O  O9  1  0.54774000  0.89929000  0.36098500  1
  O  O10  1  0.05272900  0.89865000  0.23956500  1
  O  O11  1  0.55273800  0.89865800  0.73950900  1
  O  O12  1  0.08906300  0.43396500  0.77414300  1
  O  O13  1  0.58911400  0.43393700  0.27412700  1
  O  O14  1  0.47810800  0.43408900  0.79208900  1
  O  O15  1  0.97809600  0.43409300  0.29208700  1
  O  O16  1  0.25106600  0.07341400  0.89817700  1
  O  O17  1  0.75100700  0.07342400  0.39817500  1
  O  O18  1  0.67606400  0.07338000  0.02820800  1
  O  O19  1  0.17598000  0.07327700  0.52826800  1
  O  O20  1  0.93084700  0.74937500  0.57578400  1
  O  O21  1  0.43078000  0.74937700  0.07579700  1
  O  O22  1  0.32040200  0.74907700  0.67542700  1
  O  O23  1  0.82037400  0.74907700  0.17541400  1
loop_
_geom_bond_atom_site_label_1
_geom_bond_atom_site_label_2
_geom_bond_distance
_geom_bond_site_symmetry_2
Li0 O10 2.156770 1_555
Li0 O8 2.165135 1_554
Li0 O4 2.165837 1_554
Li0 O6 2.170506 1_555
Li0 O23 2.233911 1_455
Li0 O21 2.243261 1_555
Li1 O11 2.156619 1_555
Li1 O9 2.165149 1_555
Li1 O5 2.165772 1_555
Li1 O7 2.170478 1_555
Li1 O22 2.233721 1_555
Li1 O20 2.243760 1_555
Li2 O11 1.900248 1_555
Li2 O8 1.900639 1_655
Li2 O20 2.355473 1_555
Li2 O23 2.359192 1_556
Li3 O10 1.900288 1_555
Li3 O9 1.900694 1_555
Li3 O21 2.355154 1_555
Li3 O22 2.359265 1_555
Li4 O14 1.970827 1_554
Li4 O13 1.973367 1_555
Li4 O0 2.274358 1_555
Li4 O3 2.279792 1_555
Li5 O15 1.970574 1_455
Li5 O12 1.973492 1_555
Li5 O1 2.272932 1_455
Li5 O2 2.280123 1_555
Li6 O16 1.910734 1_555
Li6 O18 1.914860 1_556
Li6 O0 2.235296 1_556
Li6 O2 2.239163 1_555
Li6 O12 2.534302 1_555
Li6 O14 2.540948 1_555
Li7 O17 1.910793 1_555
Li7 O19 1.914839 1_655
Li7 O1 2.234969 1_555
Li7 O3 2.239037 1_555
Li7 O13 2.533812 1_555
Li7 O15 2.541050 1_555
Mn0 O19 2.129339 1_555
Mn0 O17 2.132189 1_555
Mn0 O0 2.160206 1_555
Mn0 O2 2.160983 1_555
Mn0 O9 2.280511 1_545
Mn0 O11 2.284574 1_545
Mn1 O16 2.129711 1_655
Mn1 O18 2.132075 1_556
Mn1 O3 2.157521 1_556
Mn1 O1 2.159339 1_555
Mn1 O8 2.283913 1_645
Mn1 O10 2.287380 1_646
O0 W3 1.847467 1_555
O1 W4 1.847978 1_555
O2 W4 1.846079 1_555
O3 W3 1.846565 1_655
O4 W0 1.940619 1_555
O4 W3 2.110739 1_556
O5 W1 1.940472 1_555
O5 W4 2.111180 1_555
O6 W0 1.941460 1_555
O6 W4 2.108718 1_555
O7 W1 1.941525 1_556
O7 W3 2.108681 1_656
O8 W2 1.885374 1_555
O9 W5 1.886231 1_555
O10 W5 1.885095 1_455
O11 W2 1.885791 1_555
O12 W3 1.965596 1_556
O12 W0 2.110823 1_555
O13 W4 1.965748 1_555
O13 W1 2.110791 1_555
O14 W4 1.962735 1_555
O14 W0 2.116949 1_555
O15 W3 1.962552 1_655
O15 W1 2.116805 1_555
O16 W2 1.858793 1_545
O17 W5 1.858432 1_545
O18 W5 1.857507 1_545
O19 W2 1.858022 1_545
O20 W0 1.868030 1_655
O20 W5 2.220481 1_555
O21 W1 1.868459 1_555
O21 W2 2.219400 1_554
O22 W0 1.870680 1_555
O22 W2 2.216311 1_555
O23 W1 1.870530 1_555
O23 W5 2.216914 1_555
