# generated using pymatgen
data_Li2MnNi3O8
_symmetry_space_group_name_H-M   'P 1'
_cell_length_a   5.67736350
_cell_length_b   5.86612058
_cell_length_c   5.70315141
_cell_angle_alpha   118.59295821
_cell_angle_beta   60.92682683
_cell_angle_gamma   89.30776104
_symmetry_Int_Tables_number   1
_chemical_formula_structural   Li2MnNi3O8
_chemical_formula_sum   'Li2 Mn1 Ni3 O8'
_cell_volume   138.15553270
_cell_formula_units_Z   1
loop_
 _symmetry_equiv_pos_site_id
 _symmetry_equiv_pos_as_xyz
  1  'x, y, z'
loop_
 _atom_site_type_symbol
 _atom_site_label
 _atom_site_symmetry_multiplicity
 _atom_site_fract_x
 _atom_site_fract_y
 _atom_site_fract_z
 _atom_site_occupancy
  Li  Li0  1  0.99999800  0.49999700  0.50001100  1
  Li  Li1  1  0.50000400  0.49999800  0.49999000  1
  Mn  Mn0  1  0.99999800  0.00001100  0.00000400  1
  Ni  Ni0  1  0.00000100  0.00000500  0.50000000  1
  Ni  Ni1  1  0.50000000  0.99999600  0.99999600  1
  Ni  Ni2  1  0.50000100  0.00000400  0.50000100  1
  O  O0  1  0.27379500  0.19673100  0.44846000  1
  O  O1  1  0.25885000  0.20799000  0.98830100  1
  O  O2  1  0.78353100  0.20829800  0.45843900  1
  O  O3  1  0.74115100  0.21565400  0.00580000  1
  O  O4  1  0.25885900  0.78434200  0.99419800  1
  O  O5  1  0.21646600  0.79170100  0.54156500  1
  O  O6  1  0.74114600  0.79200500  0.01170300  1
  O  O7  1  0.72620700  0.80327500  0.55154000  1
loop_
_geom_bond_atom_site_label_1
_geom_bond_atom_site_label_2
_geom_bond_distance
_geom_bond_site_symmetry_2
Li0 O2 2.107186 1_555
Li0 O5 2.107211 1_655
Li0 O6 2.143979 1_556
Li0 O1 2.144045 1_654
Li0 O0 2.157769 1_655
Li0 O7 2.157876 1_555
Li1 O3 2.072480 1_555
Li1 O4 2.072547 1_555
Li1 O5 2.179390 1_555
Li1 O2 2.179421 1_555
Li1 O0 2.195938 1_555
Li1 O7 2.195964 1_555
Mn0 O2 1.903230 1_555
Mn0 O5 1.903244 1_644
Mn0 O3 1.904932 1_555
Mn0 O4 1.905052 1_644
Mn0 O1 1.917963 1_654
Mn0 O6 1.918069 1_545
Ni0 O2 1.893033 1_455
Ni0 O5 1.893076 1_545
Ni0 O0 1.938656 1_555
Ni0 O7 1.938672 1_445
Ni0 O3 2.103212 1_456
Ni0 O4 2.103216 1_544
Ni1 O7 1.862622 1_555
Ni1 O0 1.862652 1_566
Ni1 O1 1.869181 1_565
Ni1 O6 1.869201 1_556
Ni1 O4 1.876577 1_555
Ni1 O3 1.876637 1_566
Ni2 O7 1.929569 1_545
Ni2 O0 1.929570 1_555
Ni2 O2 2.023424 1_555
Ni2 O5 2.023481 1_545
Ni2 O6 2.029871 1_545
Ni2 O1 2.029884 1_555
