# generated using pymatgen
data_AgBH8C4(N2F)4
_symmetry_space_group_name_H-M   'P 1'
_cell_length_a   5.44291109
_cell_length_b   9.48841347
_cell_length_c   11.20335332
_cell_angle_alpha   90.38048464
_cell_angle_beta   101.47169708
_cell_angle_gamma   95.77967406
_symmetry_Int_Tables_number   1
_chemical_formula_structural   AgBH8C4(N2F)4
_chemical_formula_sum   'Ag2 B2 H16 C8 N16 F8'
_cell_volume   563.94051138
_cell_formula_units_Z   2
loop_
 _symmetry_equiv_pos_site_id
 _symmetry_equiv_pos_as_xyz
  1  'x, y, z'
loop_
 _atom_site_type_symbol
 _atom_site_label
 _atom_site_symmetry_multiplicity
 _atom_site_fract_x
 _atom_site_fract_y
 _atom_site_fract_z
 _atom_site_occupancy
  Ag  Ag0  1  0.51351629  0.83933689  0.50645823  1
  Ag  Ag1  1  0.48648371  0.16066311  0.49354177  1
  B  B0  1  0.10866791  0.29521165  0.01925654  1
  B  B1  1  0.89133209  0.70478835  0.98074346  1
  H  H0  1  0.20962699  0.82009352  0.82012267  1
  H  H1  1  0.15627779  0.40321678  0.79463817  1
  H  H2  1  0.50416865  0.84617963  0.91348574  1
  H  H3  1  0.42836219  0.50760680  0.85992974  1
  H  H4  1  0.22461469  0.95079260  0.10015062  1
  H  H5  1  0.32228317  0.82493083  0.20511231  1
  H  H6  1  0.34581229  0.44799729  0.41384025  1
  H  H7  1  0.28052457  0.41025579  0.25694146  1
  H  H8  1  0.71947543  0.58974421  0.74305854  1
  H  H9  1  0.65418771  0.55200271  0.58615975  1
  H  H10  1  0.67771683  0.17506917  0.79488769  1
  H  H11  1  0.77538531  0.04920740  0.89984938  1
  H  H12  1  0.57163781  0.49239320  0.14007026  1
  H  H13  1  0.49583135  0.15382037  0.08651426  1
  H  H14  1  0.84372221  0.59678322  0.20536183  1
  H  H15  1  0.79037301  0.17990648  0.17987733  1
  C  C0  1  0.05050879  0.98050763  0.65542628  1
  C  C1  1  0.03063660  0.33526601  0.57402774  1
  C  C2  1  0.38618237  0.46924815  0.67709906  1
  C  C3  1  0.42457271  0.00268485  0.79205475  1
  C  C4  1  0.57542729  0.99731515  0.20794525  1
  C  C5  1  0.61381763  0.53075185  0.32290094  1
  C  C6  1  0.96936340  0.66473399  0.42597226  1
  C  C7  1  0.94949121  0.01949237  0.34457372  1
  N  N0  1  0.16640946  0.73094443  0.43575393  1
  N  N1  1  0.37820592  0.87881479  0.84312314  1
  N  N2  1  0.31907915  0.45830373  0.78455974  1
  N  N3  1  0.24541270  0.40628741  0.57384204  1
  N  N4  1  0.14751116  0.07709245  0.38908088  1
  N  N5  1  0.26416372  0.05214927  0.69823148  1
  N  N6  1  0.36065474  0.91710036  0.16529872  1
  N  N7  1  0.39915083  0.45489964  0.33182546  1
  N  N8  1  0.60084917  0.54510036  0.66817454  1
  N  N9  1  0.63934526  0.08289964  0.83470128  1
  N  N10  1  0.73583628  0.94785073  0.30176852  1
  N  N11  1  0.85248884  0.92290755  0.61091912  1
  N  N12  1  0.75458730  0.59371259  0.42615796  1
  N  N13  1  0.68092085  0.54169627  0.21544026  1
  N  N14  1  0.62179408  0.12118521  0.15687686  1
  N  N15  1  0.83359054  0.26905557  0.56424607  1
  F  F0  1  0.05011043  0.65669139  0.08250665  1
  F  F1  1  0.02331042  0.32482835  0.12683030  1
  F  F2  1  0.11469189  0.14684981  0.00706652  1
  F  F3  1  0.64387633  0.63911668  0.97044472  1
  F  F4  1  0.35612367  0.36088332  0.02955528  1
  F  F5  1  0.88530811  0.85315019  0.99293348  1
  F  F6  1  0.97668958  0.67517165  0.87316970  1
  F  F7  1  0.94988957  0.34330861  0.91749335  1
loop_
_geom_bond_atom_site_label_1
_geom_bond_atom_site_label_2
_geom_bond_distance
_geom_bond_site_symmetry_2
Ag0 N11 2.058293 1_555
Ag0 N0 2.063280 1_555
Ag1 N4 2.058293 1_555
Ag1 N15 2.063280 1_555
B0 F7 1.396199 1_454
B0 F4 1.408500 1_555
B0 F1 1.411314 1_555
B0 F2 1.417717 1_555
B1 F0 1.396199 1_656
B1 F3 1.408500 1_555
B1 F6 1.411314 1_555
B1 F5 1.417717 1_555
H0 N1 1.009869 1_555
H1 N2 1.009181 1_555
H2 N1 1.009146 1_555
H3 N2 1.012218 1_555
H4 N6 1.009454 1_555
H5 N6 1.006405 1_555
H6 N7 1.017800 1_555
H7 N7 1.012372 1_555
H8 N8 1.012372 1_555
H9 N8 1.017800 1_555
H10 N9 1.006405 1_555
H11 N9 1.009454 1_555
H12 N13 1.012218 1_555
H13 N14 1.009146 1_555
H14 N13 1.009181 1_555
H15 N14 1.009869 1_555
C0 N11 1.171735 1_455
C0 N5 1.288036 1_565
C1 N15 1.171999 1_455
C1 N3 1.289582 1_555
C2 N2 1.327604 1_555
C2 N8 1.330877 1_555
C2 N3 1.352130 1_555
C3 N9 1.329628 1_555
C3 N1 1.333813 1_545
C3 N5 1.345916 1_555
C4 N6 1.329628 1_555
C4 N14 1.333813 1_565
C4 N10 1.345916 1_555
C5 N13 1.327604 1_555
C5 N7 1.330877 1_555
C5 N12 1.352130 1_555
C6 N0 1.171999 1_655
C6 N12 1.289582 1_555
C7 N4 1.171735 1_655
C7 N10 1.288036 1_545
