# generated using pymatgen
data_MnPO4
_symmetry_space_group_name_H-M   'P 1'
_cell_length_a   10.23125365
_cell_length_b   10.23125365
_cell_length_c   17.71742152
_cell_angle_alpha   74.33643761
_cell_angle_beta   74.33643761
_cell_angle_gamma   61.03122919
_symmetry_Int_Tables_number   1
_chemical_formula_structural   MnPO4
_chemical_formula_sum   'Mn16 P16 O64'
_cell_volume   1540.84711232
_cell_formula_units_Z   16
loop_
 _symmetry_equiv_pos_site_id
 _symmetry_equiv_pos_as_xyz
  1  'x, y, z'
loop_
 _atom_site_type_symbol
 _atom_site_label
 _atom_site_symmetry_multiplicity
 _atom_site_fract_x
 _atom_site_fract_y
 _atom_site_fract_z
 _atom_site_occupancy
  Mn  Mn0  1  0.43745500  0.37310000  0.18796200  1
  Mn  Mn1  1  0.69033100  0.25601600  0.93731900  1
  Mn  Mn2  1  0.37310000  0.43745500  0.68796200  1
  Mn  Mn3  1  0.26039400  0.18591800  0.43965600  1
  Mn  Mn4  1  0.61633900  0.75486300  0.93781400  1
  Mn  Mn5  1  0.25601600  0.69033100  0.43731900  1
  Mn  Mn6  1  0.50168600  0.86987100  0.18839900  1
  Mn  Mn7  1  0.86987100  0.50168600  0.68839900  1
  Mn  Mn8  1  0.36850300  0.93746700  0.68756200  1
  Mn  Mn9  1  0.75608100  0.11609800  0.43915900  1
  Mn  Mn10  1  0.00119900  0.86848200  0.18700800  1
  Mn  Mn11  1  0.86848200  0.00119900  0.68700800  1
  Mn  Mn12  1  0.11609800  0.75608100  0.93915900  1
  Mn  Mn13  1  0.75486300  0.61633900  0.43781400  1
  Mn  Mn14  1  0.93746700  0.36850300  0.18756200  1
  Mn  Mn15  1  0.18591800  0.26039400  0.93965600  1
  P  P0  1  0.56337800  0.62583700  0.62680900  1
  P  P1  1  0.68294400  0.06547300  0.12622400  1
  P  P2  1  0.44413600  0.87399000  0.37501900  1
  P  P3  1  0.44689300  0.37298600  0.37652900  1
  P  P4  1  0.12592800  0.56319400  0.12776200  1
  P  P5  1  0.80157500  0.94241900  0.87444400  1
  P  P6  1  0.94241900  0.80157500  0.37444400  1
  P  P7  1  0.37298600  0.44689300  0.87652900  1
  P  P8  1  0.18285900  0.06268500  0.12696400  1
  P  P9  1  0.56319400  0.12592800  0.62776200  1
  P  P10  1  0.94755500  0.30035900  0.37637300  1
  P  P11  1  0.87399000  0.44413600  0.87501900  1
  P  P12  1  0.06268500  0.18285900  0.62696400  1
  P  P13  1  0.06547300  0.68294400  0.62622400  1
  P  P14  1  0.62583700  0.56337800  0.12680900  1
  P  P15  1  0.30035900  0.94755500  0.87637300  1
  O  O0  1  0.75906800  0.11094900  0.86950100  1
  O  O1  1  0.77035900  0.41213500  0.13868900  1
  O  O2  1  0.91478300  0.67099500  0.63969800  1
  O  O3  1  0.65125900  0.08365700  0.69624700  1
  O  O4  1  0.14477600  0.66376400  0.04787700  1
  O  O5  1  0.76217800  0.61478900  0.86921800  1
  O  O6  1  0.39372000  0.89831900  0.29595700  1
  O  O7  1  0.08365700  0.65125900  0.19624700  1
  O  O8  1  0.27272400  0.41362400  0.13926900  1
  O  O9  1  0.52628300  0.49540300  0.62707100  1
  O  O10  1  0.11094900  0.75906800  0.36950100  1
  O  O11  1  0.57492300  0.15675600  0.19281100  1
  O  O12  1  0.61758600  0.26256300  0.37072000  1
  O  O13  1  0.14543200  0.16111100  0.04591500  1
  O  O14  1  0.66155500  0.64625400  0.54629400  1
  O  O15  1  0.16111100  0.14543200  0.54591500  1
  O  O16  1  0.35103200  0.31012200  0.44544300  1
  O  O17  1  0.66376400  0.14477600  0.54787700  1
  O  O18  1  0.02424700  0.84981600  0.62684500  1
  O  O19  1  0.84981600  0.02424700  0.12684500  1
  O  O20  1  0.65089400  0.92965200  0.89454000  1
  O  O21  1  0.11617600  0.25369400  0.37272700  1
  O  O22  1  0.67099500  0.91478300  0.13969800  1
  O  O23  1  0.39436900  0.90655400  0.79472900  1
  O  O24  1  0.31012200  0.35103200  0.94544300  1
  O  O25  1  0.65211100  0.58358000  0.69489800  1
  O  O26  1  0.58358000  0.65211100  0.19489800  1
  O  O27  1  0.02373300  0.42680100  0.89087200  1
  O  O28  1  0.83918400  0.90016600  0.43911800  1
  O  O29  1  0.89831900  0.39372000  0.79595700  1
  O  O30  1  0.49540300  0.52628300  0.12707100  1
  O  O31  1  0.90016600  0.83918400  0.93911800  1
  O  O32  1  0.61478900  0.76217800  0.36921800  1
  O  O33  1  0.15675600  0.57492300  0.69281100  1
  O  O34  1  0.02260500  0.34919800  0.62807000  1
  O  O35  1  0.90655400  0.39436900  0.29472900  1
  O  O36  1  0.34748700  0.81314300  0.44441900  1
  O  O37  1  0.89422800  0.89244600  0.29324600  1
  O  O38  1  0.15237200  0.93008300  0.89494700  1
  O  O39  1  0.25369400  0.11617600  0.87272700  1
  O  O40  1  0.52170900  0.99927400  0.62777500  1
  O  O41  1  0.41362400  0.27272400  0.63926900  1
  O  O42  1  0.64569500  0.16024100  0.04454700  1
  O  O43  1  0.92965200  0.65089400  0.39454000  1
  O  O44  1  0.15248300  0.07198400  0.69399700  1
  O  O45  1  0.91267300  0.17169600  0.63830500  1
  O  O46  1  0.16024100  0.64569500  0.54454700  1
  O  O47  1  0.52393700  0.42575400  0.89232700  1
  O  O48  1  0.26256300  0.61758600  0.87072000  1
  O  O49  1  0.17169600  0.91267300  0.13830500  1
  O  O50  1  0.64625400  0.66155500  0.04629400  1
  O  O51  1  0.84300200  0.39905800  0.44096200  1
  O  O52  1  0.39406400  0.39940800  0.79744200  1
  O  O53  1  0.99927400  0.52170900  0.12777500  1
  O  O54  1  0.93008300  0.15237200  0.39494700  1
  O  O55  1  0.41213500  0.77035900  0.63868900  1
  O  O56  1  0.42680100  0.02373300  0.39087200  1
  O  O57  1  0.39940800  0.39406400  0.29744200  1
  O  O58  1  0.89244600  0.89422800  0.79324600  1
  O  O59  1  0.39905800  0.84300200  0.94096200  1
  O  O60  1  0.42575400  0.52393700  0.39232700  1
  O  O61  1  0.34919800  0.02260500  0.12807000  1
  O  O62  1  0.07198400  0.15248300  0.19399700  1
  O  O63  1  0.81314300  0.34748700  0.94441900  1
loop_
_geom_bond_atom_site_label_1
_geom_bond_atom_site_label_2
_geom_bond_distance
_geom_bond_site_symmetry_2
Mn0 O30 1.900888 1_555
Mn0 O8 1.916212 1_555
Mn0 O57 1.922509 1_555
Mn0 O11 1.957530 1_555
Mn1 O0 1.907048 1_555
Mn1 O47 1.915984 1_555
Mn1 O42 1.933334 1_556
Mn1 O63 1.938688 1_555
Mn2 O9 1.900888 1_555
Mn2 O41 1.916212 1_555
Mn2 O52 1.922509 1_555
Mn2 O33 1.957530 1_555
Mn3 O21 1.890462 1_555
Mn3 O56 1.908515 1_555
Mn3 O15 1.923950 1_555
Mn3 O16 1.936107 1_555
Mn4 O20 1.906982 1_555
Mn4 O5 1.909774 1_555
Mn4 O50 1.934663 1_556
Mn4 O59 1.943352 1_555
Mn5 O10 1.907048 1_555
Mn5 O60 1.915984 1_555
Mn5 O46 1.933334 1_555
Mn5 O36 1.938688 1_555
Mn6 O61 1.911913 1_565
Mn6 O22 1.925145 1_555
Mn6 O26 1.945354 1_555
Mn6 O6 1.946231 1_555
Mn7 O34 1.911913 1_655
Mn7 O2 1.925145 1_555
Mn7 O25 1.945354 1_555
Mn7 O29 1.946231 1_555
Mn8 O23 1.908192 1_555
Mn8 O40 1.918554 1_555
Mn8 O55 1.929661 1_555
Mn8 O44 1.947849 1_565
Mn9 O12 1.900913 1_555
Mn9 O54 1.910672 1_555
Mn9 O17 1.934630 1_555
Mn9 O28 1.945432 1_545
Mn10 O19 1.912616 1_465
Mn10 O37 1.917743 1_455
Mn10 O49 1.931956 1_555
Mn10 O7 1.933852 1_555
Mn11 O18 1.912616 1_645
Mn11 O58 1.917743 1_545
Mn11 O45 1.931956 1_555
Mn11 O3 1.933852 1_555
Mn12 O48 1.900913 1_555
Mn12 O38 1.910672 1_555
Mn12 O4 1.934630 1_556
Mn12 O31 1.945432 1_455
Mn13 O43 1.906982 1_555
Mn13 O32 1.909774 1_555
Mn13 O14 1.934663 1_555
Mn13 O51 1.943352 1_555
Mn14 O35 1.908192 1_555
Mn14 O53 1.918554 1_555
Mn14 O1 1.929661 1_555
Mn14 O62 1.947849 1_655
Mn15 O39 1.890462 1_555
Mn15 O27 1.908515 1_555
Mn15 O13 1.923950 1_556
Mn15 O24 1.936107 1_555
O0 P5 1.543555 1_545
O1 P14 1.549506 1_555
O2 P13 1.554670 1_655
O3 P9 1.549410 1_555
O4 P4 1.535451 1_555
O5 P11 1.549045 1_555
O6 P2 1.538736 1_555
O7 P4 1.549410 1_555
O8 P4 1.552293 1_555
O9 P0 1.552829 1_555
O10 P6 1.543555 1_455
O11 P1 1.541612 1_555
O12 P3 1.546420 1_555
O13 P8 1.537956 1_555
O14 P0 1.534982 1_555
O15 P12 1.537956 1_555
O16 P3 1.551376 1_555
O17 P9 1.535451 1_555
O18 P13 1.550164 1_555
O19 P1 1.550164 1_555
O20 P5 1.547285 1_555
O21 P10 1.538524 1_455
O22 P1 1.554670 1_565
O23 P15 1.542424 1_555
O24 P7 1.551376 1_555
O25 P0 1.547891 1_555
O26 P14 1.547891 1_555
O27 P11 1.549129 1_455
O28 P6 1.544232 1_555
O29 P11 1.538736 1_555
O30 P14 1.552829 1_555
O31 P5 1.544232 1_555
O32 P2 1.549045 1_555
O33 P13 1.541612 1_555
O34 P12 1.550004 1_555
O35 P10 1.542424 1_555
O36 P2 1.550381 1_555
O37 P6 1.547210 1_555
O38 P15 1.547285 1_555
O39 P15 1.538524 1_545
O40 P9 1.546572 1_565
O41 P9 1.552293 1_555
O42 P1 1.536777 1_555
O43 P6 1.547285 1_555
O44 P12 1.547126 1_555
O45 P12 1.549176 1_655
O46 P13 1.536777 1_555
O47 P7 1.545161 1_555
O48 P7 1.546420 1_555
O49 P8 1.549176 1_565
O50 P14 1.534982 1_555
O51 P10 1.546018 1_555
O52 P7 1.532607 1_555
O53 P4 1.546572 1_655
O54 P10 1.547285 1_555
O55 P0 1.549506 1_555
O56 P2 1.549129 1_545
O57 P3 1.532607 1_555
O58 P5 1.547210 1_555
O59 P15 1.546018 1_555
O60 P3 1.545161 1_555
O61 P8 1.550004 1_555
O62 P8 1.547126 1_555
O63 P11 1.550381 1_555
