# generated using pymatgen
data_K3FePCO7
_symmetry_space_group_name_H-M   'P 1'
_cell_length_a   5.69203705
_cell_length_b   11.92575081
_cell_length_c   11.91492153
_cell_angle_alpha   109.64388557
_cell_angle_beta   90.00735610
_cell_angle_gamma   90.05263165
_symmetry_Int_Tables_number   1
_chemical_formula_structural   K3FePCO7
_chemical_formula_sum   'K12 Fe4 P4 C4 O28'
_cell_volume   761.73375507
_cell_formula_units_Z   4
loop_
 _symmetry_equiv_pos_site_id
 _symmetry_equiv_pos_as_xyz
  1  'x, y, z'
loop_
 _atom_site_type_symbol
 _atom_site_label
 _atom_site_symmetry_multiplicity
 _atom_site_fract_x
 _atom_site_fract_y
 _atom_site_fract_z
 _atom_site_occupancy
  K  K0  1  0.75731300  0.16164600  0.08886500  1
  K  K1  1  0.75733300  0.66188800  0.58905900  1
  K  K2  1  0.24262000  0.83852700  0.91129000  1
  K  K3  1  0.24267600  0.33825000  0.41105300  1
  K  K4  1  0.25597400  0.14514200  0.86385600  1
  K  K5  1  0.25628600  0.64517100  0.36398700  1
  K  K6  1  0.25502300  0.38629100  0.10441400  1
  K  K7  1  0.25535100  0.88636600  0.60436500  1
  K  K8  1  0.74457400  0.61384200  0.89548900  1
  K  K9  1  0.74452300  0.11375100  0.39563200  1
  K  K10  1  0.74437800  0.85475400  0.13624000  1
  K  K11  1  0.74390100  0.35482900  0.63608400  1
  Fe  Fe0  1  0.76317500  0.05131200  0.69861700  1
  Fe  Fe1  1  0.23683000  0.94836800  0.30112700  1
  Fe  Fe2  1  0.76347200  0.55102900  0.19854800  1
  Fe  Fe3  1  0.23667300  0.44869000  0.80123400  1
  P  P0  1  0.72717100  0.33508500  0.91476400  1
  P  P1  1  0.72765400  0.83502500  0.41477600  1
  P  P2  1  0.27273000  0.66481000  0.08513200  1
  P  P3  1  0.27242200  0.16489600  0.58514900  1
  C  C0  1  0.74328900  0.41496500  0.33486400  1
  C  C1  1  0.74319800  0.91503200  0.83490800  1
  C  C2  1  0.25674700  0.58514500  0.66523000  1
  C  C3  1  0.25679900  0.08507500  0.16519400  1
  O  O0  1  0.26146600  0.15165900  0.09914800  1
  O  O1  1  0.26148000  0.65175400  0.59924300  1
  O  O2  1  0.73850000  0.84857400  0.90109400  1
  O  O3  1  0.73858100  0.34843100  0.40092000  1
  O  O4  1  0.94266300  0.44866100  0.30132400  1
  O  O5  1  0.94256400  0.94871400  0.80136300  1
  O  O6  1  0.05737500  0.55136500  0.69867300  1
  O  O7  1  0.05744200  0.05126500  0.19863700  1
  O  O8  1  0.54905900  0.45122000  0.29890300  1
  O  O9  1  0.54893400  0.95118300  0.79886200  1
  O  O10  1  0.45096500  0.54889500  0.70120600  1
  O  O11  1  0.45107900  0.04889000  0.20121200  1
  O  O12  1  0.47128700  0.36351400  0.88602600  1
  O  O13  1  0.47189600  0.86342200  0.38591900  1
  O  O14  1  0.52855600  0.63614300  0.11367600  1
  O  O15  1  0.52819200  0.13636900  0.61386400  1
  O  O16  1  0.09144100  0.60573000  0.14442200  1
  O  O17  1  0.09118400  0.10567500  0.64437600  1
  O  O18  1  0.90837700  0.39439400  0.85566400  1
  O  O19  1  0.90893100  0.89442400  0.35575300  1
  O  O20  1  0.76110800  0.19659400  0.86930800  1
  O  O21  1  0.76166900  0.69652300  0.36934200  1
  O  O22  1  0.76084800  0.38063300  0.05348600  1
  O  O23  1  0.76097700  0.88066300  0.55348900  1
  O  O24  1  0.23854300  0.61932800  0.94646900  1
  O  O25  1  0.23869600  0.11928400  0.44647200  1
  O  O26  1  0.23928400  0.80335800  0.13063400  1
  O  O27  1  0.23879200  0.30344600  0.63063800  1
loop_
_geom_bond_atom_site_label_1
_geom_bond_atom_site_label_2
_geom_bond_distance
_geom_bond_site_symmetry_2
K0 O7 2.742828 1_655
K0 O22 2.781825 1_555
K0 O20 2.784010 1_554
K0 O11 2.800892 1_555
K0 O0 2.829188 1_555
K0 O0 2.876540 1_655
K1 O6 2.742405 1_655
K1 O23 2.780391 1_555
K1 O21 2.784187 1_555
K1 O10 2.801654 1_555
K1 O1 2.829253 1_555
K1 O1 2.876539 1_655
K2 O5 2.742266 1_455
K2 O26 2.782707 1_556
K2 O24 2.783237 1_555
K2 O9 2.801029 1_555
K2 O2 2.829356 1_555
K2 O2 2.876334 1_455
K3 O4 2.742319 1_455
K3 O25 2.781817 1_555
K3 O27 2.783545 1_555
K3 O8 2.801554 1_555
K3 O3 2.829544 1_555
K3 O3 2.876242 1_455
K4 O17 2.666653 1_555
K4 O9 2.744797 1_545
K4 O0 2.778494 1_556
K4 O12 2.808104 1_555
K4 O5 2.836134 1_445
K4 O20 2.879495 1_455
K4 O20 2.935584 1_555
K5 O16 2.667744 1_555
K5 O8 2.744077 1_555
K5 O1 2.777802 1_555
K5 O13 2.808168 1_555
K5 O4 2.837586 1_455
K5 O21 2.877919 1_455
K5 O21 2.936789 1_555
K6 O16 2.666198 1_555
K6 O8 2.749709 1_555
K6 O0 2.777975 1_555
K6 O12 2.808223 1_554
K6 O4 2.837094 1_455
K6 O22 2.873437 1_455
K6 O22 2.938654 1_555
K7 O17 2.665932 1_565
K7 O9 2.748216 1_555
K7 O1 2.778254 1_555
K7 O13 2.809117 1_555
K7 O5 2.839397 1_455
K7 O23 2.874394 1_455
K7 O23 2.937396 1_555
K8 O18 2.667068 1_555
K8 O10 2.746394 1_555
K8 O2 2.777864 1_555
K8 O14 2.806690 1_556
K8 O6 2.837822 1_655
K8 O24 2.872516 1_655
K8 O24 2.940020 1_555
K9 O19 2.666850 1_545
K9 O11 2.747047 1_555
K9 O3 2.778425 1_555
K9 O15 2.807136 1_555
K9 O7 2.839817 1_655
K9 O25 2.873286 1_655
K9 O25 2.938525 1_555
K10 O19 2.666171 1_555
K10 O11 2.747551 1_565
K10 O2 2.778033 1_554
K10 O14 2.810900 1_555
K10 O7 2.835645 1_665
K10 O26 2.879491 1_655
K10 O26 2.935139 1_555
K11 O18 2.666945 1_555
K11 O10 2.745667 1_555
K11 O3 2.777401 1_555
K11 O15 2.809896 1_555
K11 O6 2.837295 1_655
K11 O27 2.879468 1_655
K11 O27 2.935283 1_555
Fe0 O15 2.128036 1_555
Fe0 O17 2.145606 1_655
Fe0 O23 2.183082 1_545
Fe0 O20 2.183837 1_555
Fe0 O5 2.246661 1_545
Fe0 O9 2.301362 1_545
Fe1 O13 2.127785 1_555
Fe1 O19 2.144904 1_455
Fe1 O26 2.180727 1_555
Fe1 O25 2.186432 1_565
Fe1 O7 2.247038 1_565
Fe1 O11 2.301912 1_565
Fe2 O14 2.129129 1_555
Fe2 O16 2.146482 1_655
Fe2 O22 2.180710 1_555
Fe2 O21 2.185859 1_555
Fe2 O4 2.244412 1_555
Fe2 O8 2.300148 1_555
Fe3 O12 2.127915 1_555
Fe3 O18 2.147613 1_455
Fe3 O27 2.182869 1_555
Fe3 O24 2.183597 1_555
Fe3 O6 2.245490 1_555
Fe3 O10 2.300352 1_555
C0 O3 1.292133 1_555
C0 O4 1.310079 1_555
C0 O8 1.310770 1_555
C1 O2 1.292654 1_555
C1 O5 1.309996 1_555
C1 O9 1.310831 1_555
C2 O1 1.292198 1_555
C2 O6 1.310007 1_555
C2 O10 1.310764 1_555
C3 O0 1.292519 1_555
C3 O7 1.310079 1_555
C3 O11 1.310940 1_555
O12 P0 1.559621 1_555
O13 P1 1.559256 1_555
O14 P2 1.559469 1_555
O15 P3 1.559277 1_555
O16 P2 1.547192 1_555
O17 P3 1.547564 1_555
O18 P0 1.547160 1_555
O19 P1 1.547526 1_555
O20 P0 1.567689 1_555
O21 P1 1.567870 1_555
O22 P0 1.568386 1_554
O23 P1 1.568033 1_555
O24 P2 1.568090 1_556
O25 P3 1.567912 1_555
O26 P2 1.567977 1_555
O27 P3 1.568130 1_555
