# generated using pymatgen
data_Ag(NO2)3
_symmetry_space_group_name_H-M   'P 1'
_cell_length_a   5.16931100
_cell_length_b   8.59898100
_cell_length_c   14.73759044
_cell_angle_alpha   75.96629203
_cell_angle_beta   90.00000000
_cell_angle_gamma   90.00000000
_symmetry_Int_Tables_number   1
_chemical_formula_structural   Ag(NO2)3
_chemical_formula_sum   'Ag4 N12 O24'
_cell_volume   635.54523774
_cell_formula_units_Z   4
loop_
 _symmetry_equiv_pos_site_id
 _symmetry_equiv_pos_as_xyz
  1  'x, y, z'
loop_
 _atom_site_type_symbol
 _atom_site_label
 _atom_site_symmetry_multiplicity
 _atom_site_fract_x
 _atom_site_fract_y
 _atom_site_fract_z
 _atom_site_occupancy
  Ag  Ag0  1  0.08393400  0.78281100  0.74929600  1
  Ag  Ag1  1  0.58393400  0.21718900  0.75070400  1
  Ag  Ag2  1  0.91606600  0.21718900  0.25070400  1
  Ag  Ag3  1  0.41606600  0.78281100  0.24929600  1
  N  N0  1  0.52526200  0.73461900  0.54740900  1
  N  N1  1  0.02526200  0.26538100  0.95259100  1
  N  N2  1  0.47473800  0.26538100  0.45259100  1
  N  N3  1  0.97473800  0.73461900  0.04740900  1
  N  N4  1  0.01093500  0.04837000  0.61024100  1
  N  N5  1  0.51093500  0.95163000  0.88975900  1
  N  N6  1  0.98906500  0.95163000  0.38975900  1
  N  N7  1  0.48906500  0.04837000  0.11024100  1
  N  N8  1  0.12105000  0.41997600  0.67283700  1
  N  N9  1  0.62105000  0.58002400  0.82716300  1
  N  N10  1  0.87895000  0.58002400  0.32716300  1
  N  N11  1  0.37895000  0.41997600  0.17283700  1
  O  O0  1  0.82041600  0.98382700  0.66226100  1
  O  O1  1  0.32041600  0.01617300  0.83773900  1
  O  O2  1  0.17958400  0.01617300  0.33773900  1
  O  O3  1  0.67958400  0.98382700  0.16226100  1
  O  O4  1  0.23252100  0.98160900  0.63309700  1
  O  O5  1  0.73252100  0.01839100  0.86690300  1
  O  O6  1  0.76747900  0.01839100  0.36690300  1
  O  O7  1  0.26747900  0.98160900  0.13309700  1
  O  O8  1  0.98347600  0.16484300  0.54411300  1
  O  O9  1  0.48347600  0.83515700  0.95588700  1
  O  O10  1  0.01652400  0.83515700  0.45588700  1
  O  O11  1  0.51652400  0.16484300  0.04411300  1
  O  O12  1  0.36609900  0.40917900  0.65734700  1
  O  O13  1  0.86609900  0.59082100  0.84265300  1
  O  O14  1  0.63390100  0.59082100  0.34265300  1
  O  O15  1  0.13390100  0.40917900  0.15734700  1
  O  O16  1  0.00982300  0.29426500  0.72121000  1
  O  O17  1  0.50982300  0.70573500  0.77879000  1
  O  O18  1  0.99017700  0.70573500  0.27879000  1
  O  O19  1  0.49017700  0.29426500  0.22121000  1
  O  O20  1  0.00785900  0.54789600  0.64160400  1
  O  O21  1  0.50785900  0.45210400  0.85839600  1
  O  O22  1  0.99214100  0.45210400  0.35839600  1
  O  O23  1  0.49214100  0.54789600  0.14160400  1
loop_
_geom_bond_atom_site_label_1
_geom_bond_atom_site_label_2
_geom_bond_distance
_geom_bond_site_symmetry_2
Ag0 O13 2.187444 1_455
Ag0 O4 2.241671 1_555
Ag0 O17 2.309832 1_555
Ag0 O0 2.326676 1_455
Ag1 O12 2.187444 1_555
Ag1 O5 2.241671 1_555
Ag1 O16 2.309832 1_655
Ag1 O1 2.326676 1_555
Ag2 O15 2.187444 1_655
Ag2 O6 2.241671 1_555
Ag2 O19 2.309832 1_555
Ag2 O2 2.326676 1_655
Ag3 O14 2.187444 1_555
Ag3 O7 2.241671 1_555
Ag3 O18 2.309832 1_455
Ag3 O3 2.326676 1_555
N4 O8 1.224601 1_455
N4 O0 1.288160 1_445
N4 O4 1.288911 1_545
N5 O9 1.224601 1_555
N5 O1 1.288160 1_565
N5 O5 1.288911 1_565
N6 O10 1.224601 1_655
N6 O2 1.288160 1_665
N6 O6 1.288911 1_565
N7 O11 1.224601 1_555
N7 O3 1.288160 1_545
N7 O7 1.288911 1_545
N8 O20 1.232332 1_555
N8 O16 1.278124 1_555
N8 O12 1.294461 1_555
N9 O21 1.232332 1_555
N9 O17 1.278124 1_555
N9 O13 1.294461 1_555
N10 O22 1.232332 1_555
N10 O18 1.278124 1_555
N10 O14 1.294461 1_555
N11 O23 1.232332 1_555
N11 O19 1.278124 1_555
N11 O15 1.294461 1_555
