# generated using pymatgen
data_LiCoPHO5
_symmetry_space_group_name_H-M   'P 1'
_cell_length_a   5.07878300
_cell_length_b   5.28605859
_cell_length_c   7.04117646
_cell_angle_alpha   106.93471188
_cell_angle_beta   108.78815856
_cell_angle_gamma   98.36598737
_symmetry_Int_Tables_number   1
_chemical_formula_structural   LiCoPHO5
_chemical_formula_sum   'Li2 Co2 P2 H2 O10'
_cell_volume   165.11524061
_cell_formula_units_Z   2
loop_
 _symmetry_equiv_pos_site_id
 _symmetry_equiv_pos_as_xyz
  1  'x, y, z'
loop_
 _atom_site_type_symbol
 _atom_site_label
 _atom_site_symmetry_multiplicity
 _atom_site_fract_x
 _atom_site_fract_y
 _atom_site_fract_z
 _atom_site_occupancy
  Li  Li0  1  0.74424000  0.39431700  0.82216200  1
  Li  Li1  1  0.25576000  0.60568300  0.17783800  1
  Co  Co0  1  0.00000000  0.00000000  0.50000000  1
  Co  Co1  1  0.00000000  0.00000000  0.00000000  1
  P  P0  1  0.67814400  0.35243500  0.23521300  1
  P  P1  1  0.32185600  0.64756500  0.76478700  1
  H  H0  1  0.34610600  0.07003200  0.34559600  1
  H  H1  1  0.65389400  0.92996800  0.65440400  1
  O  O0  1  0.85495200  0.04836200  0.72703700  1
  O  O1  1  0.72375300  0.19790300  0.39369800  1
  O  O2  1  0.30244900  0.33976400  0.65712300  1
  O  O3  1  0.36323700  0.24290600  0.06657900  1
  O  O4  1  0.89086700  0.33008200  0.11648500  1
  O  O5  1  0.10913300  0.66991800  0.88351500  1
  O  O6  1  0.63676300  0.75709400  0.93342100  1
  O  O7  1  0.69755100  0.66023600  0.34287700  1
  O  O8  1  0.27624700  0.80209700  0.60630200  1
  O  O9  1  0.14504800  0.95163800  0.27296300  1
loop_
_geom_bond_atom_site_label_1
_geom_bond_atom_site_label_2
_geom_bond_distance
_geom_bond_site_symmetry_2
Li0 O0 1.984265 1_555
Li0 O5 2.018775 1_655
Li0 O6 2.072185 1_555
Li0 O2 2.098806 1_555
Li0 O4 2.110460 1_556
Li1 O9 1.984265 1_555
Li1 O4 2.018775 1_455
Li1 O3 2.072185 1_555
Li1 O7 2.098806 1_555
Li1 O5 2.110460 1_554
Co0 O9 1.933615 1_545
Co0 O0 1.933615 1_455
Co0 O7 1.937565 1_445
Co0 O2 1.937565 1_555
Co0 O1 1.956998 1_455
Co0 O8 1.956998 1_545
Co1 O3 1.916958 1_555
Co1 O6 1.916958 1_444
Co1 O0 1.931598 1_454
Co1 O9 1.931598 1_545
Co1 O5 1.940335 1_544
Co1 O4 1.940335 1_455
H0 O9 0.993540 1_545
H1 O0 0.993540 1_565
O1 P0 1.544604 1_555
O2 P1 1.555106 1_555
O3 P0 1.552354 1_555
O4 P0 1.562502 1_555
O5 P1 1.562502 1_555
O6 P1 1.552354 1_555
O7 P0 1.555106 1_555
O8 P1 1.544604 1_555
