# generated using pymatgen
data_ZnSeO4
_symmetry_space_group_name_H-M   'P 1'
_cell_length_a   4.91555257
_cell_length_b   6.71516679
_cell_length_c   9.06349620
_cell_angle_alpha   90.00000000
_cell_angle_beta   90.00000000
_cell_angle_gamma   90.00000000
_symmetry_Int_Tables_number   1
_chemical_formula_structural   ZnSeO4
_chemical_formula_sum   'Zn4 Se4 O16'
_cell_volume   299.17472889
_cell_formula_units_Z   4
loop_
 _symmetry_equiv_pos_site_id
 _symmetry_equiv_pos_as_xyz
  1  'x, y, z'
loop_
 _atom_site_type_symbol
 _atom_site_label
 _atom_site_symmetry_multiplicity
 _atom_site_fract_x
 _atom_site_fract_y
 _atom_site_fract_z
 _atom_site_occupancy
  Zn  Zn0  1  0.00000000  0.00000000  0.00000000  1
  Zn  Zn1  1  0.00000000  0.50000000  0.00000000  1
  Zn  Zn2  1  0.50000000  0.00000000  0.50000000  1
  Zn  Zn3  1  0.50000000  0.50000000  0.50000000  1
  Se  Se0  1  0.47087576  0.25000000  0.18092773  1
  Se  Se1  1  0.97087576  0.75000000  0.31907227  1
  Se  Se2  1  0.02912424  0.25000000  0.68092773  1
  Se  Se3  1  0.52912424  0.75000000  0.81907227  1
  O  O0  1  0.32483251  0.04345545  0.12499774  1
  O  O1  1  0.79211643  0.25000000  0.12398870  1
  O  O2  1  0.32483251  0.45654455  0.12499774  1
  O  O3  1  0.93368210  0.75000000  0.13462220  1
  O  O4  1  0.43368210  0.25000000  0.36537780  1
  O  O5  1  0.29211643  0.75000000  0.37601130  1
  O  O6  1  0.82483251  0.95654455  0.37500226  1
  O  O7  1  0.82483251  0.54345545  0.37500226  1
  O  O8  1  0.17516749  0.04345545  0.62499774  1
  O  O9  1  0.70788357  0.25000000  0.62398870  1
  O  O10  1  0.17516749  0.45654455  0.62499774  1
  O  O11  1  0.56631790  0.75000000  0.63462220  1
  O  O12  1  0.06631790  0.25000000  0.86537780  1
  O  O13  1  0.67516749  0.54345545  0.87500226  1
  O  O14  1  0.20788357  0.75000000  0.87601130  1
  O  O15  1  0.67516749  0.95654455  0.87500226  1
loop_
_geom_bond_atom_site_label_1
_geom_bond_atom_site_label_2
_geom_bond_distance
_geom_bond_site_symmetry_2
O0 Se0 1.641963 1_555
O0 Zn0 1.979445 1_555
O1 Se0 1.661266 1_555
O1 Zn1 2.263936 1_655
O1 Zn0 2.263936 1_655
O2 Se0 1.641963 1_555
O2 Zn1 1.979445 1_555
O3 Se1 1.681730 1_555
O3 Zn0 2.100802 1_665
O3 Zn1 2.100802 1_655
O4 Se0 1.681730 1_555
O4 Zn2 2.100802 1_555
O4 Zn3 2.100802 1_555
O5 Se1 1.661266 1_455
O5 Zn3 2.263936 1_555
O5 Zn2 2.263936 1_565
O6 Se1 1.641963 1_555
O6 Zn2 1.979445 1_565
O7 Se1 1.641963 1_555
O7 Zn3 1.979445 1_555
O8 Se2 1.641963 1_555
O8 Zn2 1.979445 1_555
O9 Se2 1.661266 1_655
O9 Zn3 2.263936 1_555
O9 Zn2 2.263936 1_555
O10 Se2 1.641963 1_555
O10 Zn3 1.979445 1_555
O11 Se3 1.681730 1_555
O11 Zn2 2.100802 1_565
O11 Zn3 2.100802 1_555
O12 Se2 1.681730 1_555
O12 Zn1 2.100802 1_556
O12 Zn0 2.100802 1_556
O13 Se3 1.641963 1_555
O13 Zn1 1.979445 1_656
O14 Se3 1.661266 1_555
O14 Zn0 2.263936 1_566
O14 Zn1 2.263936 1_556
O15 Se3 1.641963 1_555
O15 Zn0 1.979445 1_666
