# generated using pymatgen
data_Na5LiFe2P2(CO7)2
_symmetry_space_group_name_H-M   'P 1'
_cell_length_a   8.95215688
_cell_length_b   5.22573378
_cell_length_c   6.69887529
_cell_angle_alpha   90.03018702
_cell_angle_beta   90.01434407
_cell_angle_gamma   87.32805810
_symmetry_Int_Tables_number   1
_chemical_formula_structural   Na5LiFe2P2(CO7)2
_chemical_formula_sum   'Na5 Li1 Fe2 P2 C2 O14'
_cell_volume   313.04327252
_cell_formula_units_Z   1
loop_
 _symmetry_equiv_pos_site_id
 _symmetry_equiv_pos_as_xyz
  1  'x, y, z'
loop_
 _atom_site_type_symbol
 _atom_site_label
 _atom_site_symmetry_multiplicity
 _atom_site_fract_x
 _atom_site_fract_y
 _atom_site_fract_z
 _atom_site_occupancy
  Na  Na0  1  0.26159700  0.25483400  0.00560000  1
  Na  Na1  1  0.26172700  0.25505500  0.49416700  1
  Na  Na2  1  0.73311100  0.73885800  0.50466300  1
  Na  Na3  1  0.73325100  0.73913000  0.99579400  1
  Na  Na4  1  0.91593700  0.23208300  0.75006500  1
  Li  Li0  1  0.10413800  0.76862200  0.25014400  1
  Fe  Fe0  1  0.34617500  0.77683500  0.74995600  1
  Fe  Fe1  1  0.64809400  0.21808100  0.24998200  1
  P  P0  1  0.40869500  0.71115500  0.24990000  1
  P  P1  1  0.58463500  0.28026600  0.74992800  1
  C  C0  1  0.05641300  0.71869900  0.75006400  1
  C  C1  1  0.95159900  0.29403300  0.25005900  1
  O  O0  1  0.08459200  0.38243700  0.25002900  1
  O  O1  1  0.11410200  0.94320300  0.75001200  1
  O  O2  1  0.14707200  0.51557400  0.74991200  1
  O  O3  1  0.30919700  0.79052500  0.06590400  1
  O  O4  1  0.30905000  0.79040100  0.43380700  1
  O  O5  1  0.43272700  0.15222900  0.74990500  1
  O  O6  1  0.43727500  0.41458600  0.24972600  1
  O  O7  1  0.55858000  0.57797300  0.74998000  1
  O  O8  1  0.55970900  0.84294200  0.25015800  1
  O  O9  1  0.68120700  0.19958100  0.56349800  1
  O  O10  1  0.68127800  0.19975300  0.93635200  1
  O  O11  1  0.83585300  0.45746400  0.25009400  1
  O  O12  1  0.93067900  0.04916000  0.25004500  1
  O  O13  1  0.91330800  0.69652100  0.75025600  1
loop_
_geom_bond_atom_site_label_1
_geom_bond_atom_site_label_2
_geom_bond_distance
_geom_bond_site_symmetry_2
Na0 O5 2.343533 1_554
Na0 O0 2.353347 1_555
Na0 O2 2.390144 1_554
Na0 O6 2.442216 1_555
Na0 O3 2.477200 1_545
Na0 O1 2.742871 1_544
Na0 O3 2.879450 1_555
Na1 O5 2.343078 1_555
Na1 O0 2.352405 1_555
Na1 O2 2.389591 1_555
Na1 O6 2.443549 1_555
Na1 O4 2.478319 1_545
Na1 O1 2.746733 1_545
Na1 O4 2.877703 1_555
Na2 O13 2.307306 1_555
Na2 O8 2.352265 1_555
Na2 O11 2.405927 1_555
Na2 O7 2.444144 1_555
Na2 O9 2.462243 1_565
Na3 O13 2.306672 1_555
Na3 O8 2.352259 1_556
Na3 O11 2.405823 1_556
Na3 O7 2.446613 1_555
Na3 O10 2.462850 1_565
Na4 O1 2.275154 1_645
Na4 O13 2.426046 1_555
Na4 O10 2.456301 1_555
Na4 O9 2.457272 1_555
Na4 O2 2.600365 1_655
Na4 O13 2.799901 1_545
Li0 O0 2.033782 1_555
Li0 O12 2.085245 1_465
Li0 O4 2.215831 1_555
Li0 O3 2.219706 1_555
Fe0 O7 2.123992 1_555
Fe0 O5 2.142516 1_565
Fe0 O3 2.142951 1_556
Fe0 O4 2.144376 1_555
Fe0 O1 2.214425 1_555
Fe0 O2 2.295175 1_555
Fe1 O6 2.106097 1_555
Fe1 O9 2.122571 1_555
Fe1 O10 2.123426 1_554
Fe1 O11 2.141535 1_555
Fe1 O8 2.147965 1_545
C0 O13 1.291701 1_455
C0 O1 1.303685 1_555
C0 O2 1.305794 1_555
C1 O0 1.296985 1_655
C1 O12 1.301883 1_555
C1 O11 1.311697 1_555
O3 P0 1.565305 1_555
O4 P0 1.565422 1_555
O5 P1 1.543325 1_555
O6 P0 1.558955 1_555
O7 P1 1.562335 1_555
O8 P0 1.545551 1_555
O9 P1 1.565524 1_555
O10 P1 1.565625 1_555
