# generated using pymatgen
data_Al2O3
_symmetry_space_group_name_H-M   'P 1'
_cell_length_a   7.68627162
_cell_length_b   7.68627162
_cell_length_c   7.68627162
_cell_angle_alpha   109.47122063
_cell_angle_beta   109.47122063
_cell_angle_gamma   109.47122063
_symmetry_Int_Tables_number   1
_chemical_formula_structural   Al2O3
_chemical_formula_sum   'Al16 O24'
_cell_volume   349.56286690
_cell_formula_units_Z   8
loop_
 _symmetry_equiv_pos_site_id
 _symmetry_equiv_pos_as_xyz
  1  'x, y, z'
loop_
 _atom_site_type_symbol
 _atom_site_label
 _atom_site_symmetry_multiplicity
 _atom_site_fract_x
 _atom_site_fract_y
 _atom_site_fract_z
 _atom_site_occupancy
  Al  Al0  1  0.50000000  0.00000000  -0.00000000  1
  Al  Al1  1  0.96216034  0.25000000  0.21216034  1
  Al  Al2  1  0.78783966  0.03783966  0.75000000  1
  Al  Al3  1  0.71216034  0.46216034  0.25000000  1
  Al  Al4  1  0.75000000  0.78783966  0.03783966  1
  Al  Al5  1  0.75000000  0.28783966  0.53783966  1
  Al  Al6  1  0.46216034  0.25000000  0.71216034  1
  Al  Al7  1  0.00000000  0.50000000  -0.00000000  1
  Al  Al8  1  0.50000000  0.50000000  0.50000000  1
  Al  Al9  1  0.00000000  0.00000000  0.50000000  1
  Al  Al10  1  0.53783966  0.75000000  0.28783966  1
  Al  Al11  1  0.25000000  0.71216034  0.46216034  1
  Al  Al12  1  0.25000000  0.21216034  0.96216034  1
  Al  Al13  1  0.28783966  0.53783966  0.75000000  1
  Al  Al14  1  0.21216034  0.96216034  0.25000000  1
  Al  Al15  1  0.03783966  0.75000000  0.78783966  1
  O  O0  1  0.77066706  0.04587283  0.49711850  1
  O  O1  1  0.72933294  0.22645143  0.27520577  1
  O  O2  1  0.27354857  0.00288150  0.04875433  1
  O  O3  1  0.95412717  0.50288150  0.22933294  1
  O  O4  1  0.45412717  0.22479323  0.45124567  1
  O  O5  1  0.77354857  0.72479423  0.27066706  1
  O  O6  1  0.04875433  0.27354857  0.00288150  1
  O  O7  1  0.45124567  0.45412717  0.22479323  1
  O  O8  1  0.72479423  0.27066706  0.77354857  1
  O  O9  1  0.77520577  0.54875433  0.54587283  1
  O  O10  1  0.00288150  0.04875433  0.27354857  1
  O  O11  1  0.49711850  0.77066706  0.04587283  1
  O  O12  1  0.99711850  0.95124567  0.72645143  1
  O  O13  1  0.22479323  0.45124567  0.45412717  1
  O  O14  1  0.27520577  0.72933294  0.22645143  1
  O  O15  1  0.50288150  0.22933294  0.95412717  1
  O  O16  1  0.54875433  0.54587283  0.77520577  1
  O  O17  1  0.95124567  0.72645143  0.99711850  1
  O  O18  1  0.54587283  0.77520577  0.54875433  1
  O  O19  1  0.22645143  0.27520577  0.72933294  1
  O  O20  1  0.04587283  0.49711850  0.77066706  1
  O  O21  1  0.72645143  0.99711850  0.95124567  1
  O  O22  1  0.22933294  0.95412717  0.50288150  1
  O  O23  1  0.27066706  0.77354857  0.72479423  1
loop_
_geom_bond_atom_site_label_1
_geom_bond_atom_site_label_2
_geom_bond_distance
_geom_bond_site_symmetry_2
Al0 O2 1.904075 1_555
Al0 O21 1.904075 1_544
Al0 O23 1.904075 1_544
Al0 O1 1.904075 1_555
Al0 O11 1.904075 1_545
Al0 O15 1.904075 1_554
Al1 O13 1.850448 1_655
Al1 O10 1.850451 1_655
Al1 O3 1.927089 1_555
Al1 O21 1.927089 1_544
Al1 O1 1.972517 1_555
Al1 O6 1.972517 1_655
Al2 O18 1.850451 1_545
Al2 O21 1.850451 1_545
Al2 O0 1.927089 1_555
Al2 O6 1.927089 1_656
Al2 O8 1.972517 1_555
Al2 O12 1.972517 1_545
Al3 O5 1.850451 1_555
Al3 O3 1.850451 1_555
Al3 O7 1.927087 1_555
Al3 O1 1.927089 1_555
Al3 O9 1.972517 1_555
Al3 O15 1.972517 1_554
Al4 O16 1.850451 1_554
Al4 O17 1.850451 1_554
Al4 O11 1.927089 1_555
Al4 O10 1.927089 1_665
Al4 O5 1.972517 1_555
Al4 O21 1.972517 1_554
Al5 O1 1.850451 1_555
Al5 O0 1.850451 1_555
Al5 O9 1.927089 1_555
Al5 O8 1.927089 1_555
Al5 O4 1.972515 1_555
Al5 O20 1.972517 1_655
Al6 O8 1.850451 1_555
Al6 O15 1.850451 1_555
Al6 O4 1.927087 1_555
Al6 O19 1.927089 1_555
Al6 O16 1.972517 1_555
Al6 O22 1.972517 1_545
Al7 O6 1.904075 1_555
Al7 O17 1.904075 1_454
Al7 O8 1.904075 1_454
Al7 O14 1.904075 1_555
Al7 O20 1.904075 1_554
Al7 O3 1.904075 1_455
Al8 O16 1.904075 1_555
Al8 O18 1.904075 1_555
Al8 O9 1.904075 1_555
Al8 O7 1.904082 1_555
Al8 O13 1.904082 1_555
Al8 O4 1.904082 1_555
Al9 O10 1.904075 1_555
Al9 O12 1.904075 1_445
Al9 O19 1.904075 1_555
Al9 O5 1.904075 1_445
Al9 O0 1.904075 1_455
Al9 O22 1.904075 1_545
Al10 O14 1.850451 1_555
Al10 O11 1.850451 1_555
Al10 O18 1.927089 1_555
Al10 O5 1.927089 1_555
Al10 O7 1.972515 1_555
Al10 O0 1.972517 1_565
Al11 O23 1.850451 1_555
Al11 O22 1.850451 1_555
Al11 O13 1.927087 1_555
Al11 O14 1.927089 1_555
Al11 O18 1.972517 1_555
Al11 O3 1.972517 1_455
Al12 O7 1.850448 1_556
Al12 O6 1.850451 1_556
Al12 O15 1.927089 1_555
Al12 O12 1.927089 1_445
Al12 O19 1.972517 1_555
Al12 O2 1.972517 1_556
Al13 O19 1.850451 1_555
Al13 O20 1.850451 1_555
Al13 O16 1.927089 1_555
Al13 O23 1.927089 1_555
Al13 O13 1.972515 1_555
Al13 O11 1.972517 1_556
Al14 O4 1.850448 1_565
Al14 O2 1.850451 1_565
Al14 O22 1.927089 1_555
Al14 O17 1.927089 1_454
Al14 O14 1.972517 1_555
Al14 O10 1.972517 1_565
Al15 O9 1.850451 1_455
Al15 O12 1.850451 1_455
Al15 O20 1.927089 1_555
Al15 O2 1.927089 1_566
Al15 O23 1.972517 1_555
Al15 O17 1.972517 1_455
