# generated using pymatgen
data_LiCr(PO3)3
_symmetry_space_group_name_H-M   'P 1'
_cell_length_a   7.90931500
_cell_length_b   8.80286500
_cell_length_c   12.76470300
_cell_angle_alpha   90.00000000
_cell_angle_beta   90.00000000
_cell_angle_gamma   90.00000000
_symmetry_Int_Tables_number   1
_chemical_formula_structural   LiCr(PO3)3
_chemical_formula_sum   'Li4 Cr4 P12 O36'
_cell_volume   888.73775136
_cell_formula_units_Z   4
loop_
 _symmetry_equiv_pos_site_id
 _symmetry_equiv_pos_as_xyz
  1  'x, y, z'
loop_
 _atom_site_type_symbol
 _atom_site_label
 _atom_site_symmetry_multiplicity
 _atom_site_fract_x
 _atom_site_fract_y
 _atom_site_fract_z
 _atom_site_occupancy
  Li  Li0  1  0.00994400  0.37346600  0.98862700  1
  Li  Li1  1  0.49005600  0.62653400  0.48862700  1
  Li  Li2  1  0.50994400  0.12653400  0.01137300  1
  Li  Li3  1  0.99005600  0.87346600  0.51137300  1
  Cr  Cr0  1  0.13743100  0.20782600  0.62812000  1
  Cr  Cr1  1  0.36256900  0.79217400  0.12812000  1
  Cr  Cr2  1  0.63743100  0.29217400  0.37188000  1
  Cr  Cr3  1  0.86256900  0.70782600  0.87188000  1
  P  P0  1  0.20825600  0.00341500  0.33912600  1
  P  P1  1  0.15849200  0.48050400  0.18924100  1
  P  P2  1  0.24716100  0.67114900  0.89273200  1
  P  P3  1  0.25283900  0.32885100  0.39273200  1
  P  P4  1  0.34150800  0.51949600  0.68924100  1
  P  P5  1  0.29174400  0.99658500  0.83912600  1
  P  P6  1  0.70825600  0.49658500  0.66087400  1
  P  P7  1  0.65849200  0.01949600  0.81075900  1
  P  P8  1  0.74716100  0.82885100  0.10726800  1
  P  P9  1  0.75283900  0.17114900  0.60726800  1
  P  P10  1  0.84150800  0.98050400  0.31075900  1
  P  P11  1  0.79174400  0.50341500  0.16087400  1
  O  O0  1  0.97837800  0.56846800  0.18870400  1
  O  O1  1  0.08406400  0.58150300  0.90655000  1
  O  O2  1  0.13972600  0.39615500  0.30142200  1
  O  O3  1  0.20971800  0.39889800  0.70275200  1
  O  O4  1  0.18889700  0.83518400  0.84834600  1
  O  O5  1  0.28088100  0.92903400  0.24409000  1
  O  O6  1  0.20491200  0.92257800  0.44188000  1
  O  O7  1  0.17016000  0.36788100  0.10244000  1
  O  O8  1  0.13683400  0.31209500  0.48434800  1
  O  O9  1  0.36316600  0.68790500  0.98434800  1
  O  O10  1  0.32984000  0.63211900  0.60244000  1
  O  O11  1  0.29508800  0.07742200  0.94188000  1
  O  O12  1  0.21911900  0.07096600  0.74409000  1
  O  O13  1  0.31110300  0.16481600  0.34834600  1
  O  O14  1  0.29028200  0.60110200  0.20275200  1
  O  O15  1  0.36027400  0.60384500  0.80142200  1
  O  O16  1  0.41593600  0.41849700  0.40655000  1
  O  O17  1  0.52162200  0.43153200  0.68870400  1
  O  O18  1  0.47837800  0.93153200  0.81129600  1
  O  O19  1  0.58406400  0.91849700  0.09345000  1
  O  O20  1  0.63972600  0.10384500  0.69857800  1
  O  O21  1  0.70971800  0.10110200  0.29724800  1
  O  O22  1  0.68889700  0.66481600  0.15165400  1
  O  O23  1  0.78088100  0.57096600  0.75591000  1
  O  O24  1  0.70491200  0.57742200  0.55812000  1
  O  O25  1  0.67016000  0.13211900  0.89756000  1
  O  O26  1  0.63683400  0.18790500  0.51565200  1
  O  O27  1  0.86316600  0.81209500  0.01565200  1
  O  O28  1  0.82984000  0.86788100  0.39756000  1
  O  O29  1  0.79508800  0.42257800  0.05812000  1
  O  O30  1  0.71911900  0.42903400  0.25591000  1
  O  O31  1  0.81110300  0.33518400  0.65165400  1
  O  O32  1  0.79028200  0.89889800  0.79724800  1
  O  O33  1  0.86027400  0.89615500  0.19857800  1
  O  O34  1  0.91593600  0.08150300  0.59345000  1
  O  O35  1  0.02162200  0.06846800  0.31129600  1
loop_
_geom_bond_atom_site_label_1
_geom_bond_atom_site_label_2
_geom_bond_distance
_geom_bond_site_symmetry_2
Li0 O7 1.928421 1_556
Li0 O29 1.965099 1_456
Li0 O1 2.189764 1_555
Li1 O10 1.928421 1_555
Li1 O24 1.965099 1_555
Li1 O16 2.189764 1_555
Li2 O25 1.928421 1_554
Li2 O11 1.965099 1_554
Li2 O19 2.189764 1_545
Li3 O28 1.928421 1_555
Li3 O6 1.965099 1_655
Li3 O34 2.189764 1_565
Cr0 O12 2.015004 1_555
Cr0 O3 2.015812 1_555
Cr0 O8 2.051947 1_555
Cr0 O34 2.121666 1_455
Cr1 O5 2.015004 1_555
Cr1 O14 2.015812 1_555
Cr1 O9 2.051947 1_554
Cr1 O19 2.121666 1_555
Cr2 O30 2.015004 1_555
Cr2 O21 2.015812 1_555
Cr2 O26 2.051947 1_555
Cr2 O16 2.121666 1_555
Cr3 O23 2.015004 1_555
Cr3 O32 2.015812 1_555
Cr3 O27 2.051947 1_556
Cr3 O1 2.121666 1_655
O0 P1 1.621439 1_655
O0 P11 1.622695 1_555
O1 P2 1.522471 1_555
O2 P3 1.584268 1_555
O2 P1 1.619832 1_555
O3 P4 1.497761 1_555
O4 P2 1.618160 1_555
O4 P5 1.641401 1_555
O5 P0 1.493418 1_565
O6 P0 1.492457 1_565
O7 P1 1.489644 1_555
O8 P3 1.493725 1_555
O9 P2 1.493725 1_555
O10 P4 1.489644 1_555
O11 P5 1.492457 1_545
O12 P5 1.493418 1_545
O13 P3 1.618160 1_555
O13 P0 1.641401 1_555
O14 P1 1.497761 1_555
O15 P2 1.584268 1_555
O15 P4 1.619832 1_555
O16 P3 1.522471 1_555
O17 P4 1.621439 1_555
O17 P6 1.622695 1_555
O18 P7 1.621439 1_565
O18 P5 1.622695 1_555
O19 P8 1.522471 1_555
O20 P9 1.584268 1_555
O20 P7 1.619832 1_555
O21 P10 1.497761 1_545
O22 P8 1.618160 1_555
O22 P11 1.641401 1_555
O23 P6 1.493418 1_555
O24 P6 1.492457 1_555
O25 P7 1.489644 1_555
O26 P9 1.493725 1_555
O27 P8 1.493725 1_555
O28 P10 1.489644 1_555
O29 P11 1.492457 1_555
O30 P11 1.493418 1_555
O31 P9 1.618160 1_555
O31 P6 1.641401 1_555
O32 P7 1.497761 1_565
O33 P8 1.584268 1_555
O33 P10 1.619832 1_555
O34 P9 1.522471 1_555
O35 P10 1.621439 1_445
O35 P0 1.622695 1_555
