# generated using pymatgen
data_MnFe5(PO4)6
_symmetry_space_group_name_H-M   'P 1'
_cell_length_a   8.43542583
_cell_length_b   8.43542583
_cell_length_c   8.43542550
_cell_angle_alpha   61.81147967
_cell_angle_beta   61.81147967
_cell_angle_gamma   61.81147603
_symmetry_Int_Tables_number   1
_chemical_formula_structural   MnFe5(PO4)6
_chemical_formula_sum   'Mn1 Fe5 P6 O24'
_cell_volume   441.65052688
_cell_formula_units_Z   1
loop_
 _symmetry_equiv_pos_site_id
 _symmetry_equiv_pos_as_xyz
  1  'x, y, z'
loop_
 _atom_site_type_symbol
 _atom_site_label
 _atom_site_symmetry_multiplicity
 _atom_site_fract_x
 _atom_site_fract_y
 _atom_site_fract_z
 _atom_site_occupancy
  Mn  Mn0  1  0.85491300  0.85491300  0.85491300  1
  Fe  Fe0  1  0.00085200  0.00085200  0.00085200  1
  Fe  Fe1  1  0.35396600  0.35396600  0.35396600  1
  Fe  Fe2  1  0.49949400  0.49949400  0.49949400  1
  Fe  Fe3  1  0.14627600  0.14627600  0.14627600  1
  Fe  Fe4  1  0.64567400  0.64567400  0.64567400  1
  P  P0  1  0.74907500  0.04630300  0.45325300  1
  P  P1  1  0.04630300  0.45325300  0.74907500  1
  P  P2  1  0.45325300  0.74907500  0.04630300  1
  P  P3  1  0.54768600  0.24879200  0.95360900  1
  P  P4  1  0.95360900  0.54768600  0.24879200  1
  P  P5  1  0.24879200  0.95360900  0.54768600  1
  O  O0  1  0.89399200  0.49755100  0.67233200  1
  O  O1  1  0.49755100  0.67233200  0.89399200  1
  O  O2  1  0.67233200  0.89399200  0.49755100  1
  O  O3  1  0.90609200  0.05660800  0.25199700  1
  O  O4  1  0.82144600  0.00839200  0.60569100  1
  O  O5  1  0.59557800  0.25096800  0.43557400  1
  O  O6  1  0.05660800  0.25199700  0.90609200  1
  O  O7  1  0.25096800  0.43557400  0.59557800  1
  O  O8  1  0.39302400  0.17519200  0.99872800  1
  O  O9  1  0.43557400  0.59557800  0.25096800  1
  O  O10  1  0.75028500  0.09577500  0.94150900  1
  O  O11  1  0.99872800  0.39302400  0.17519200  1
  O  O12  1  0.00839200  0.60569100  0.82144600  1
  O  O13  1  0.25199700  0.90609200  0.05660800  1
  O  O14  1  0.56116700  0.40289800  0.75038300  1
  O  O15  1  0.60569100  0.82144600  0.00839200  1
  O  O16  1  0.75038300  0.56116700  0.40289800  1
  O  O17  1  0.94150900  0.75028500  0.09577500  1
  O  O18  1  0.40289800  0.75038300  0.56116700  1
  O  O19  1  0.17519200  0.99872800  0.39302400  1
  O  O20  1  0.09577500  0.94150900  0.75028500  1
  O  O21  1  0.32105900  0.10951200  0.50435600  1
  O  O22  1  0.50435600  0.32105900  0.10951200  1
  O  O23  1  0.10951200  0.50435600  0.32105900  1
loop_
_geom_bond_atom_site_label_1
_geom_bond_atom_site_label_2
_geom_bond_distance
_geom_bond_site_symmetry_2
Mn0 O12 1.954357 1_655
Mn0 O4 1.954357 1_565
Mn0 O15 1.954357 1_556
Mn0 O17 2.130632 1_556
Mn0 O10 2.130632 1_565
Mn0 O20 2.130632 1_655
Fe0 O3 2.081962 1_455
Fe0 O13 2.081962 1_545
Fe0 O6 2.081962 1_554
Fe0 O20 2.093132 1_544
Fe0 O10 2.093132 1_454
Fe0 O17 2.093132 1_445
Fe1 O23 1.917087 1_555
Fe1 O22 1.917087 1_555
Fe1 O21 1.917087 1_555
Fe1 O7 2.114269 1_555
Fe1 O5 2.114269 1_555
Fe1 O9 2.114269 1_555
Fe2 O9 2.095805 1_555
Fe2 O5 2.095805 1_555
Fe2 O7 2.095805 1_555
Fe2 O14 2.103345 1_555
Fe2 O18 2.103345 1_555
Fe2 O16 2.103345 1_555
Fe3 O11 1.919972 1_455
Fe3 O19 1.919972 1_545
Fe3 O8 1.919972 1_554
Fe3 O6 2.139124 1_554
Fe3 O13 2.139124 1_545
Fe3 O3 2.139125 1_455
Fe4 O0 1.925181 1_555
Fe4 O1 1.925181 1_555
Fe4 O2 1.925181 1_555
Fe4 O16 2.134884 1_555
Fe4 O18 2.134884 1_555
Fe4 O14 2.134884 1_555
O0 P1 1.520891 1_655
O1 P2 1.520891 1_556
O2 P0 1.520891 1_565
O3 P0 1.577654 1_555
O4 P0 1.515629 1_555
O5 P0 1.583240 1_555
O6 P1 1.577654 1_555
O7 P1 1.583240 1_555
O8 P3 1.518313 1_555
O9 P2 1.583240 1_555
O10 P3 1.572521 1_555
O11 P4 1.518313 1_555
O12 P1 1.515629 1_555
O13 P2 1.577654 1_555
O14 P3 1.578521 1_555
O15 P2 1.515629 1_555
O16 P4 1.578521 1_555
O17 P4 1.572521 1_555
O18 P5 1.578521 1_555
O19 P5 1.518313 1_555
O20 P5 1.572521 1_555
O21 P5 1.525613 1_545
O22 P3 1.525612 1_554
O23 P4 1.525612 1_455
