# generated using pymatgen
data_Li3Mn4(BO3)4
_symmetry_space_group_name_H-M   'P 1'
_cell_length_a   5.30397600
_cell_length_b   10.30321582
_cell_length_c   13.96921583
_cell_angle_alpha   89.54444513
_cell_angle_beta   79.13485886
_cell_angle_gamma   88.00536428
_symmetry_Int_Tables_number   1
_chemical_formula_structural   Li3Mn4(BO3)4
_chemical_formula_sum   'Li9 Mn12 B12 O36'
_cell_volume   749.24998424
_cell_formula_units_Z   3
loop_
 _symmetry_equiv_pos_site_id
 _symmetry_equiv_pos_as_xyz
  1  'x, y, z'
loop_
 _atom_site_type_symbol
 _atom_site_label
 _atom_site_symmetry_multiplicity
 _atom_site_fract_x
 _atom_site_fract_y
 _atom_site_fract_z
 _atom_site_occupancy
  Li  Li0  1  0.14146600  0.83803600  0.00799800  1
  Li  Li1  1  0.17767200  0.09688300  0.33670900  1
  Li  Li2  1  0.16480200  0.32868400  0.98487600  1
  Li  Li3  1  0.50287900  0.32920400  0.32441800  1
  Li  Li4  1  0.48012600  0.84021400  0.34283000  1
  Li  Li5  1  0.51208000  0.59966500  0.66453100  1
  Li  Li6  1  0.84386500  0.33061600  0.65289600  1
  Li  Li7  1  0.81351700  0.84462900  0.67579100  1
  Li  Li8  1  0.83595300  0.60047200  0.00089900  1
  Mn  Mn0  1  0.03640200  0.86586600  0.22933200  1
  Mn  Mn1  1  0.27361900  0.11759300  0.10953300  1
  Mn  Mn2  1  0.06404800  0.61751200  0.55728400  1
  Mn  Mn3  1  0.28604100  0.36635600  0.76587100  1
  Mn  Mn4  1  0.60878200  0.36361700  0.10405600  1
  Mn  Mn5  1  0.37863600  0.87217200  0.55732000  1
  Mn  Mn6  1  0.62678300  0.12147100  0.45096600  1
  Mn  Mn7  1  0.71589300  0.61340700  0.22911400  1
  Mn  Mn8  1  0.39691500  0.61750000  0.88625400  1
  Mn  Mn9  1  0.95376700  0.37641100  0.43688600  1
  Mn  Mn10  1  0.70464400  0.87405100  0.89555000  1
  Mn  Mn11  1  0.95001300  0.12045600  0.78286600  1
  B  B0  1  0.05306100  0.35428100  0.21750600  1
  B  B1  1  0.06895200  0.11990400  0.55410700  1
  B  B2  1  0.27120400  0.62590400  0.11181400  1
  B  B3  1  0.40700800  0.37806000  0.55089200  1
  B  B4  1  0.26996000  0.87746100  0.77990900  1
  B  B5  1  0.59770200  0.87838200  0.11662000  1
  B  B6  1  0.38922600  0.12395800  0.88253300  1
  B  B7  1  0.71542500  0.12138200  0.22271800  1
  B  B8  1  0.61188300  0.63660400  0.45133300  1
  B  B9  1  0.72591800  0.36796500  0.88505800  1
  B  B10  1  0.94644600  0.87877200  0.45031600  1
  B  B11  1  0.94499400  0.62843500  0.77975000  1
  O  O0  1  0.18420500  0.63804800  0.02437700  1
  O  O1  1  0.10882200  0.66670200  0.19675800  1
  O  O2  1  0.19914100  0.31137800  0.12470400  1
  O  O3  1  0.01271700  0.83888200  0.53883300  1
  O  O4  1  0.16427300  0.34997300  0.29727800  1
  O  O5  1  0.12598200  0.89698600  0.36755700  1
  O  O6  1  0.14563200  0.40978900  0.55733600  1
  O  O7  1  0.01555500  0.92677100  0.77749600  1
  O  O8  1  0.34050800  0.92597400  0.11036400  1
  O  O9  1  0.31224300  0.05699000  0.54857300  1
  O  O10  1  0.19588700  0.57912700  0.77389400  1
  O  O11  1  0.52070300  0.57590700  0.11244900  1
  O  O12  1  0.30633600  0.15943000  0.79650600  1
  O  O13  1  0.54862400  0.13078300  0.31070900  1
  O  O14  1  0.63305100  0.15407600  0.13661800  1
  O  O15  1  0.23028700  0.13893000  0.97098400  1
  O  O16  1  0.52604700  0.65570500  0.36725500  1
  O  O17  1  0.45189100  0.68195400  0.54200400  1
  O  O18  1  0.54865700  0.32890400  0.46355500  1
  O  O19  1  0.32721700  0.83888100  0.86920900  1
  O  O20  1  0.64980700  0.84655900  0.20738400  1
  O  O21  1  0.51947400  0.39904900  0.63073400  1
  O  O22  1  0.44417700  0.86329800  0.69525800  1
  O  O23  1  0.77385200  0.85951400  0.03344200  1
  O  O24  1  0.46975200  0.40287000  0.88574200  1
  O  O25  1  0.80025700  0.39951000  0.22162200  1
  O  O26  1  0.68650300  0.90543500  0.44861600  1
  O  O27  1  0.63914000  0.07591400  0.87581000  1
  O  O28  1  0.97463100  0.08337400  0.22127200  1
  O  O29  1  0.83979200  0.57463800  0.45865800  1
  O  O30  1  0.91415300  0.14527700  0.64057100  1
  O  O31  1  0.00245100  0.15924100  0.46576800  1
  O  O32  1  0.84358800  0.64593600  0.69662400  1
  O  O33  1  0.79398500  0.66312200  0.87003000  1
  O  O34  1  0.87608600  0.31524800  0.79736000  1
  O  O35  1  0.83448300  0.38892100  0.96483300  1
loop_
_geom_bond_atom_site_label_1
_geom_bond_atom_site_label_2
_geom_bond_distance
_geom_bond_site_symmetry_2
Li0 O23 1.920164 1_455
Li0 O19 2.002448 1_554
Li0 O0 2.080630 1_555
Li0 O8 2.153274 1_555
Li1 O31 1.967736 1_555
Li1 O13 1.975213 1_555
Li1 O28 2.109076 1_455
Li1 O5 2.117402 1_545
Li2 O35 1.907766 1_455
Li2 O15 1.978377 1_555
Li2 O2 2.001654 1_556
Li2 O24 2.083966 1_555
Li3 O4 1.908833 1_555
Li3 O18 2.003608 1_555
Li3 O13 2.056499 1_555
Li3 O25 2.069712 1_555
Li4 O5 1.916211 1_555
Li4 O20 1.937616 1_555
Li4 O16 1.943826 1_555
Li4 O26 2.123748 1_555
Li5 O32 1.969480 1_555
Li5 O17 1.978490 1_555
Li5 O10 2.060328 1_555
Li5 O21 2.121267 1_555
Li6 O21 1.914734 1_555
Li6 O30 1.935620 1_555
Li6 O34 2.061517 1_555
Li6 O6 2.068157 1_655
Li7 O22 1.929322 1_555
Li7 O3 2.003875 1_655
Li7 O32 2.070353 1_555
Li7 O7 2.130569 1_655
Li8 O33 1.983166 1_554
Li8 O0 1.987332 1_655
Li8 O11 2.080627 1_555
Li8 O35 2.241632 1_554
Mn0 O5 2.103147 1_555
Mn0 O1 2.111755 1_555
Mn0 O20 2.145799 1_455
Mn0 O8 2.188537 1_555
Mn0 O28 2.258545 1_465
Mn1 O8 1.994056 1_545
Mn1 O15 2.001104 1_554
Mn1 O2 2.026739 1_555
Mn1 O28 2.042683 1_455
Mn1 O14 2.059844 1_555
Mn2 O29 2.042574 1_455
Mn2 O32 2.090211 1_455
Mn2 O17 2.155318 1_555
Mn2 O6 2.168730 1_555
Mn2 O3 2.305773 1_555
Mn3 O21 2.085142 1_555
Mn3 O24 2.132043 1_555
Mn3 O12 2.174177 1_555
Mn3 O34 2.216797 1_455
Mn3 O10 2.226611 1_555
Mn4 O35 2.102233 1_554
Mn4 O25 2.128360 1_555
Mn4 O14 2.207178 1_555
Mn4 O11 2.220009 1_555
Mn4 O2 2.221779 1_555
Mn5 O9 1.931536 1_565
Mn5 O17 1.990000 1_555
Mn5 O22 2.022277 1_555
Mn5 O26 2.045882 1_555
Mn5 O3 2.046423 1_555
Mn6 O9 2.070976 1_555
Mn6 O13 2.078530 1_555
Mn6 O31 2.091642 1_655
Mn6 O18 2.165001 1_555
Mn6 O26 2.236973 1_545
Mn7 O16 2.044005 1_555
Mn7 O11 2.133309 1_555
Mn7 O1 2.137714 1_655
Mn7 O25 2.232800 1_555
Mn7 O20 2.440399 1_555
Mn8 O0 2.051765 1_556
Mn8 O10 2.104025 1_555
Mn8 O33 2.143603 1_555
Mn8 O24 2.231420 1_555
Mn8 O19 2.315572 1_555
Mn9 O4 2.071361 1_655
Mn9 O29 2.117513 1_555
Mn9 O6 2.159648 1_655
Mn9 O18 2.182612 1_555
Mn9 O31 2.284903 1_655
Mn10 O23 2.031193 1_556
Mn10 O27 2.121125 1_565
Mn10 O19 2.145805 1_555
Mn10 O7 2.181040 1_655
Mn10 O33 2.225215 1_555
Mn11 O27 1.962450 1_555
Mn11 O12 1.989771 1_655
Mn11 O7 2.013223 1_645
Mn11 O34 2.035799 1_555
Mn11 O30 2.045431 1_555
B0 O4 1.355319 1_555
B0 O25 1.395082 1_455
B0 O2 1.443226 1_555
B1 O30 1.348163 1_455
B1 O31 1.399174 1_555
B1 O9 1.412897 1_555
B2 O1 1.387065 1_555
B2 O0 1.387983 1_555
B2 O11 1.404833 1_555
B3 O21 1.382098 1_555
B3 O18 1.395426 1_555
B3 O6 1.399558 1_555
B4 O22 1.361945 1_555
B4 O19 1.390287 1_555
B4 O7 1.431493 1_555
B5 O23 1.357376 1_555
B5 O20 1.382259 1_555
B5 O8 1.451443 1_555
B6 O15 1.364712 1_555
B6 O27 1.385292 1_555
B6 O12 1.397150 1_555
B7 O13 1.374373 1_555
B7 O14 1.390103 1_555
B7 O28 1.412826 1_555
B8 O16 1.348012 1_555
B8 O29 1.367922 1_555
B8 O17 1.455788 1_555
B9 O35 1.369112 1_555
B9 O24 1.391630 1_555
B9 O34 1.429273 1_555
B10 O5 1.368388 1_655
B10 O26 1.401002 1_555
B10 O3 1.402552 1_655
B11 O32 1.376799 1_555
B11 O10 1.395776 1_655
B11 O33 1.402196 1_555
