# generated using pymatgen
data_NaLi5Mn2P2(CO7)2
_symmetry_space_group_name_H-M   'P 1'
_cell_length_a   6.67553200
_cell_length_b   8.64053100
_cell_length_c   9.98658713
_cell_angle_alpha   87.58753835
_cell_angle_beta   90.00000000
_cell_angle_gamma   90.00000000
_symmetry_Int_Tables_number   1
_chemical_formula_structural   NaLi5Mn2P2(CO7)2
_chemical_formula_sum   'Na2 Li10 Mn4 P4 C4 O28'
_cell_volume   575.51722121
_cell_formula_units_Z   2
loop_
 _symmetry_equiv_pos_site_id
 _symmetry_equiv_pos_as_xyz
  1  'x, y, z'
loop_
 _atom_site_type_symbol
 _atom_site_label
 _atom_site_symmetry_multiplicity
 _atom_site_fract_x
 _atom_site_fract_y
 _atom_site_fract_z
 _atom_site_occupancy
  Na  Na0  1  0.99916800  0.24811300  0.62594500  1
  Na  Na1  1  0.49916800  0.75188700  0.37405500  1
  Li  Li0  1  0.26085400  0.08676500  0.87364700  1
  Li  Li1  1  0.24369500  0.08659000  0.37116400  1
  Li  Li2  1  0.47447700  0.26911400  0.61371300  1
  Li  Li3  1  0.02492400  0.26607000  0.11784300  1
  Li  Li4  1  0.47388600  0.26559000  0.11717300  1
  Li  Li5  1  0.52492400  0.73393000  0.88215700  1
  Li  Li6  1  0.97388600  0.73441000  0.88282700  1
  Li  Li7  1  0.97447700  0.73088600  0.38628700  1
  Li  Li8  1  0.74369500  0.91341000  0.62883600  1
  Li  Li9  1  0.76085400  0.91323500  0.12635300  1
  Mn  Mn0  1  0.74953900  0.35046000  0.89034800  1
  Mn  Mn1  1  0.74467800  0.35447300  0.38528000  1
  Mn  Mn2  1  0.24467800  0.64552700  0.61472000  1
  Mn  Mn3  1  0.24953900  0.64954000  0.10965200  1
  P  P0  1  0.25532000  0.40783800  0.85708600  1
  P  P1  1  0.24383700  0.40589500  0.35289500  1
  P  P2  1  0.74383700  0.59410500  0.64710500  1
  P  P3  1  0.75532000  0.59216200  0.14291400  1
  C  C0  1  0.74910500  0.03863300  0.86541300  1
  C  C1  1  0.75901400  0.04376500  0.36096300  1
  C  C2  1  0.25901400  0.95623500  0.63903700  1
  C  C3  1  0.24910500  0.96136700  0.13458700  1
  O  O0  1  0.28214600  0.09939000  0.67139400  1
  O  O1  1  0.24747000  0.10716400  0.16336800  1
  O  O2  1  0.75220900  0.08131400  0.98788000  1
  O  O3  1  0.75438400  0.08147800  0.48520500  1
  O  O4  1  0.74739500  0.14270400  0.76710100  1
  O  O5  1  0.73934200  0.14964500  0.26483100  1
  O  O6  1  0.06776900  0.31194300  0.90241600  1
  O  O7  1  0.43448500  0.31142400  0.91503400  1
  O  O8  1  0.06130000  0.30394300  0.39498300  1
  O  O9  1  0.42846900  0.31368600  0.40772600  1
  O  O10  1  0.26766600  0.41808100  0.70088200  1
  O  O11  1  0.73246800  0.42768000  0.59442800  1
  O  O12  1  0.25396300  0.42008300  0.19593800  1
  O  O13  1  0.75243400  0.42287200  0.09565100  1
  O  O14  1  0.25243400  0.57712800  0.90434900  1
  O  O15  1  0.75396300  0.57991700  0.80406200  1
  O  O16  1  0.23246800  0.57232000  0.40557200  1
  O  O17  1  0.76766600  0.58191900  0.29911800  1
  O  O18  1  0.56130000  0.69605700  0.60501700  1
  O  O19  1  0.92846900  0.68631400  0.59227400  1
  O  O20  1  0.56776900  0.68805700  0.09758400  1
  O  O21  1  0.93448500  0.68857600  0.08496600  1
  O  O22  1  0.23934200  0.85035500  0.73516900  1
  O  O23  1  0.24739500  0.85729600  0.23289900  1
  O  O24  1  0.25438400  0.91852200  0.51479500  1
  O  O25  1  0.25220900  0.91868600  0.01212000  1
  O  O26  1  0.74747000  0.89283600  0.83663200  1
  O  O27  1  0.78214600  0.90061000  0.32860600  1
loop_
_geom_bond_atom_site_label_1
_geom_bond_atom_site_label_2
_geom_bond_distance
_geom_bond_site_symmetry_2
Na0 O0 2.318766 1_655
Na0 O4 2.352324 1_555
Na0 O8 2.372997 1_655
Na0 O11 2.373810 1_555
Na0 O10 2.453973 1_655
Na0 O3 2.624702 1_555
Na0 O6 2.874930 1_655
Na1 O27 2.318766 1_555
Na1 O23 2.352324 1_555
Na1 O18 2.372997 1_555
Na1 O16 2.373810 1_555
Na1 O17 2.453973 1_555
Na1 O24 2.624702 1_555
Na1 O20 2.874930 1_555
Li0 O25 1.963605 1_546
Li0 O0 2.023169 1_555
Li0 O7 2.313005 1_555
Li0 O6 2.361475 1_555
Li0 O22 2.518645 1_545
Li1 O24 1.999016 1_545
Li1 O1 2.075457 1_555
Li1 O8 2.259149 1_555
Li1 O9 2.359114 1_555
Li1 O23 2.462265 1_545
Li2 O0 2.014887 1_555
Li2 O9 2.099439 1_555
Li2 O10 2.101163 1_555
Li2 O11 2.204110 1_555
Li2 O4 2.591883 1_555
Li3 O1 2.060682 1_555
Li3 O6 2.189877 1_554
Li3 O12 2.191857 1_555
Li3 O13 2.273386 1_455
Li3 O5 2.583956 1_455
Li4 O7 2.057615 1_554
Li4 O1 2.077975 1_555
Li4 O12 2.155091 1_555
Li4 O13 2.307827 1_555
Li4 O5 2.488761 1_555
Li5 O26 2.060682 1_555
Li5 O20 2.189877 1_556
Li5 O15 2.191857 1_555
Li5 O14 2.273386 1_555
Li5 O22 2.583956 1_555
Li6 O21 2.057615 1_556
Li6 O26 2.077975 1_555
Li6 O15 2.155091 1_555
Li6 O14 2.307827 1_655
Li6 O22 2.488761 1_655
Li7 O27 2.014887 1_555
Li7 O19 2.099439 1_555
Li7 O17 2.101163 1_555
Li7 O16 2.204110 1_655
Li7 O23 2.591883 1_655
Li8 O3 1.999016 1_565
Li8 O26 2.075457 1_555
Li8 O18 2.259149 1_555
Li8 O19 2.359114 1_555
Li8 O4 2.462265 1_565
Li9 O2 1.963605 1_564
Li9 O27 2.023169 1_555
Li9 O21 2.313005 1_555
Li9 O20 2.361475 1_555
Li9 O5 2.518645 1_565
Mn0 O15 2.128474 1_555
Mn0 O7 2.142614 1_555
Mn0 O6 2.152856 1_655
Mn0 O13 2.168749 1_556
Mn0 O4 2.218915 1_555
Mn0 O2 2.483259 1_555
Mn1 O17 2.117501 1_555
Mn1 O9 2.150242 1_555
Mn1 O8 2.159593 1_655
Mn1 O5 2.181667 1_555
Mn1 O11 2.209196 1_555
Mn1 O3 2.523073 1_555
Mn2 O10 2.117501 1_555
Mn2 O19 2.150242 1_455
Mn2 O18 2.159593 1_555
Mn2 O22 2.181667 1_555
Mn2 O16 2.209196 1_555
Mn2 O24 2.523073 1_555
Mn3 O12 2.128474 1_555
Mn3 O21 2.142614 1_455
Mn3 O20 2.152856 1_555
Mn3 O14 2.168749 1_554
Mn3 O23 2.218915 1_555
Mn3 O25 2.483259 1_555
C0 O2 1.292362 1_555
C0 O4 1.303208 1_555
C0 O26 1.303924 1_545
C1 O3 1.296398 1_555
C1 O27 1.300738 1_545
C1 O5 1.304581 1_555
C2 O24 1.296398 1_555
C2 O0 1.300738 1_565
C2 O22 1.304581 1_555
C3 O25 1.292362 1_555
C3 O23 1.303208 1_555
C3 O1 1.303924 1_565
O6 P0 1.558016 1_555
O7 P0 1.555243 1_555
O8 P1 1.551236 1_555
O9 P1 1.554668 1_555
O10 P0 1.560907 1_555
O11 P2 1.553716 1_555
O12 P1 1.568556 1_555
O13 P3 1.555933 1_555
O14 P0 1.555933 1_555
O15 P2 1.568556 1_555
O16 P1 1.553716 1_555
O17 P3 1.560907 1_555
O18 P2 1.551236 1_555
O19 P2 1.554668 1_555
O20 P3 1.558016 1_555
O21 P3 1.555243 1_555
