# generated using pymatgen
data_Li4Ti3Ni2Sn3O16
_symmetry_space_group_name_H-M   'P 1'
_cell_length_a   6.11114545
_cell_length_b   6.11114545
_cell_length_c   9.74967717
_cell_angle_alpha   89.57893158
_cell_angle_beta   89.57893158
_cell_angle_gamma   59.75375799
_symmetry_Int_Tables_number   1
_chemical_formula_structural   Li4Ti3Ni2Sn3O16
_chemical_formula_sum   'Li4 Ti3 Ni2 Sn3 O16'
_cell_volume   314.53395727
_cell_formula_units_Z   1
loop_
 _symmetry_equiv_pos_site_id
 _symmetry_equiv_pos_as_xyz
  1  'x, y, z'
loop_
 _atom_site_type_symbol
 _atom_site_label
 _atom_site_symmetry_multiplicity
 _atom_site_fract_x
 _atom_site_fract_y
 _atom_site_fract_z
 _atom_site_occupancy
  Li  Li0  1  0.66849400  0.66849400  0.88482300  1
  Li  Li1  1  0.99177200  0.99177200  0.99666500  1
  Li  Li2  1  0.99341100  0.99341100  0.50213400  1
  Li  Li3  1  0.33490300  0.33490300  0.38977000  1
  Ti  Ti0  1  0.83097900  0.83097900  0.21533400  1
  Ti  Ti1  1  0.66187100  0.16950300  0.71517000  1
  Ti  Ti2  1  0.16950300  0.66187100  0.71517000  1
  Ni  Ni0  1  0.66899700  0.66899700  0.49134700  1
  Ni  Ni1  1  0.33563600  0.33563600  0.98743500  1
  Sn  Sn0  1  0.83217200  0.33872000  0.21476200  1
  Sn  Sn1  1  0.33872000  0.83217200  0.21476200  1
  Sn  Sn2  1  0.17001700  0.17001700  0.71407700  1
  O  O0  1  0.83303600  0.31656500  0.60367000  1
  O  O1  1  0.51793000  0.51793000  0.34113900  1
  O  O2  1  0.67449300  0.67449300  0.09670700  1
  O  O3  1  0.99410700  0.99410700  0.31939300  1
  O  O4  1  0.99344500  0.99344500  0.81430900  1
  O  O5  1  0.31656500  0.83303600  0.60367000  1
  O  O6  1  0.96578400  0.52832100  0.33591900  1
  O  O7  1  0.52832100  0.96578400  0.33591900  1
  O  O8  1  0.15759000  0.15759000  0.09543400  1
  O  O9  1  0.84039600  0.84039600  0.61140500  1
  O  O10  1  0.49131100  0.03761100  0.83491800  1
  O  O11  1  0.03761100  0.49131100  0.83491800  1
  O  O12  1  0.34332800  0.34332800  0.60150600  1
  O  O13  1  0.67981000  0.14994200  0.10470200  1
  O  O14  1  0.48025400  0.48025400  0.82810800  1
  O  O15  1  0.14994200  0.67981000  0.10470200  1
loop_
_geom_bond_atom_site_label_1
_geom_bond_atom_site_label_2
_geom_bond_distance
_geom_bond_site_symmetry_2
Li0 O10 2.007101 1_565
Li0 O11 2.007101 1_655
Li0 O2 2.067317 1_556
Li0 O14 2.074679 1_555
Li1 O4 1.777850 1_555
Li1 O13 1.951236 1_566
Li1 O15 1.951236 1_656
Li1 O8 2.011016 1_666
Li2 O3 1.781619 1_555
Li2 O9 1.932724 1_555
Li2 O5 1.976139 1_655
Li2 O0 1.976139 1_565
Li3 O1 1.992906 1_555
Li3 O6 2.020723 1_455
Li3 O7 2.020723 1_545
Li3 O12 2.067044 1_555
Ni0 O5 2.156212 1_555
Ni0 O0 2.156212 1_555
Ni0 O9 2.169274 1_555
Ni0 O6 2.175521 1_555
Ni0 O7 2.175521 1_555
Ni0 O1 2.178906 1_555
Ni1 O13 2.151862 1_556
Ni1 O15 2.151862 1_556
Ni1 O8 2.153020 1_556
Ni1 O10 2.169496 1_555
Ni1 O11 2.169496 1_555
Ni1 O14 2.172941 1_555
O0 Ti1 1.999897 1_555
O0 Sn2 2.088552 1_655
O1 Sn0 2.066806 1_555
O1 Sn1 2.066806 1_555
O2 Ti0 2.029915 1_555
O2 Sn1 2.110325 1_555
O2 Sn0 2.110325 1_555
O3 Ti0 2.011924 1_555
O3 Sn0 2.082976 1_565
O3 Sn1 2.082976 1_655
O4 Ti1 2.003723 1_565
O4 Ti2 2.003723 1_655
O4 Sn2 2.103742 1_665
O5 Ti2 1.999897 1_555
O5 Sn2 2.088552 1_565
O6 Ti0 1.982186 1_555
O6 Sn0 2.095708 1_555
O7 Ti0 1.982186 1_555
O7 Sn1 2.095708 1_555
O8 Sn1 2.073856 1_545
O8 Sn0 2.073856 1_455
O9 Ti2 2.015416 1_655
O9 Ti1 2.015416 1_565
O10 Ti1 1.978331 1_555
O10 Sn2 2.077847 1_555
O11 Ti2 1.978331 1_555
O11 Sn2 2.077847 1_555
O12 Ti1 2.019193 1_555
O12 Ti2 2.019193 1_555
O12 Sn2 2.131667 1_555
O13 Ti0 1.996495 1_545
O13 Sn0 2.112898 1_555
O14 Ti1 1.984953 1_555
O14 Ti2 1.984953 1_555
O15 Ti0 1.996495 1_455
O15 Sn1 2.112898 1_555
