# generated using pymatgen
data_Nd5(Mo16O27)2
_symmetry_space_group_name_H-M   'P 1'
_cell_length_a   9.39951731
_cell_length_b   11.16677484
_cell_length_c   24.84724415
_cell_angle_alpha   100.47656351
_cell_angle_beta   90.00000000
_cell_angle_gamma   90.00000000
_symmetry_Int_Tables_number   1
_chemical_formula_structural   Nd5(Mo16O27)2
_chemical_formula_sum   'Nd10 Mo64 O108'
_cell_volume   2564.54632575
_cell_formula_units_Z   2
loop_
 _symmetry_equiv_pos_site_id
 _symmetry_equiv_pos_as_xyz
  1  'x, y, z'
loop_
 _atom_site_type_symbol
 _atom_site_label
 _atom_site_symmetry_multiplicity
 _atom_site_fract_x
 _atom_site_fract_y
 _atom_site_fract_z
 _atom_site_occupancy
  Nd  Nd0  1  0.51185420  0.86295615  0.40370782  1
  Nd  Nd1  1  0.95568552  0.97978425  0.18396679  1
  Nd  Nd2  1  0.45568552  0.52021575  0.31603321  1
  Nd  Nd3  1  0.98814580  0.36295615  0.90370782  1
  Nd  Nd4  1  0.54431448  0.47978425  0.68396679  1
  Nd  Nd5  1  0.48814580  0.13704385  0.59629218  1
  Nd  Nd6  1  0.04431448  0.02021575  0.81603321  1
  Nd  Nd7  1  0.50000000  0.00000000  0.00000000  1
  Nd  Nd8  1  0.01185420  0.63704385  0.09629218  1
  Nd  Nd9  1  0.00000000  0.50000000  0.50000000  1
  Mo  Mo0  1  0.86153626  0.53546180  0.20188852  1
  Mo  Mo1  1  0.13491448  0.23111272  0.32350163  1
  Mo  Mo2  1  0.62332208  0.98258530  0.14118646  1
  Mo  Mo3  1  0.36072115  0.65199486  0.47907763  1
  Mo  Mo4  1  0.13802662  0.39546510  0.23062040  1
  Mo  Mo5  1  0.14750889  0.62845736  0.69965306  1
  Mo  Mo6  1  0.12332208  0.51741470  0.35881354  1
  Mo  Mo7  1  0.64583090  0.69644421  0.11388146  1
  Mo  Mo8  1  0.87667792  0.48258530  0.64118646  1
  Mo  Mo9  1  0.37728352  0.78001616  0.60693284  1
  Mo  Mo10  1  0.65298848  0.16156263  0.82812829  1
  Mo  Mo11  1  0.34718139  0.36508013  0.44719967  1
  Mo  Mo12  1  0.85759289  0.01229857  0.92457234  1
  Mo  Mo13  1  0.14905126  0.08595761  0.42239884  1
  Mo  Mo14  1  0.85249111  0.37154264  0.30034694  1
  Mo  Mo15  1  0.63743917  0.81434293  0.24280483  1
  Mo  Mo16  1  0.87728352  0.71998384  0.89306716  1
  Mo  Mo17  1  0.87774567  0.96040437  0.35534395  1
  Mo  Mo18  1  0.35416910  0.30355579  0.88611854  1
  Mo  Mo19  1  0.13846374  0.46453820  0.79811148  1
  Mo  Mo20  1  0.62225433  0.46040437  0.85534395  1
  Mo  Mo21  1  0.35094874  0.58595761  0.92239884  1
  Mo  Mo22  1  0.86508552  0.76888728  0.67649837  1
  Mo  Mo23  1  0.63491448  0.26888728  0.17649837  1
  Mo  Mo24  1  0.64790928  0.57859776  0.98549606  1
  Mo  Mo25  1  0.62271648  0.21998384  0.39306716  1
  Mo  Mo26  1  0.86197338  0.60453490  0.76937960  1
  Mo  Mo27  1  0.37774567  0.53959563  0.14465605  1
  Mo  Mo28  1  0.63927885  0.34800514  0.52092237  1
  Mo  Mo29  1  0.86072115  0.84800514  0.02092237  1
  Mo  Mo30  1  0.86256083  0.31434293  0.74280483  1
  Mo  Mo31  1  0.85209072  0.07859776  0.48549606  1
  Mo  Mo32  1  0.86297014  0.78499047  0.45545789  1
  Mo  Mo33  1  0.65281861  0.63491987  0.55280033  1
  Mo  Mo34  1  0.14240711  0.98770143  0.07542766  1
  Mo  Mo35  1  0.64240711  0.51229857  0.42457234  1
  Mo  Mo36  1  0.36153626  0.96453820  0.29811148  1
  Mo  Mo37  1  0.34701152  0.83843737  0.17187171  1
  Mo  Mo38  1  0.35209072  0.42140224  0.01450394  1
  Mo  Mo39  1  0.85416910  0.19644421  0.61388146  1
  Mo  Mo40  1  0.85094874  0.91404239  0.57760116  1
  Mo  Mo41  1  0.84701152  0.66156263  0.32812829  1
  Mo  Mo42  1  0.14790928  0.92140224  0.51450394  1
  Mo  Mo43  1  0.36508552  0.73111272  0.82350163  1
  Mo  Mo44  1  0.36297014  0.71500953  0.04454211  1
  Mo  Mo45  1  0.12271648  0.28001616  0.10693284  1
  Mo  Mo46  1  0.36197338  0.89546510  0.73062040  1
  Mo  Mo47  1  0.15281861  0.86508013  0.94719967  1
  Mo  Mo48  1  0.13927885  0.15199486  0.97907763  1
  Mo  Mo49  1  0.12225433  0.03959563  0.64465605  1
  Mo  Mo50  1  0.63702986  0.28499047  0.95545789  1
  Mo  Mo51  1  0.63846374  0.03546180  0.70188852  1
  Mo  Mo52  1  0.35759289  0.48770143  0.57542766  1
  Mo  Mo53  1  0.14583090  0.80355579  0.38611854  1
  Mo  Mo54  1  0.64905126  0.41404239  0.07760116  1
  Mo  Mo55  1  0.35249111  0.12845736  0.19965306  1
  Mo  Mo56  1  0.63802662  0.10453490  0.26937960  1
  Mo  Mo57  1  0.37667792  0.01741470  0.85881354  1
  Mo  Mo58  1  0.13743917  0.68565707  0.25719517  1
  Mo  Mo59  1  0.13702986  0.21500953  0.54454211  1
  Mo  Mo60  1  0.84718139  0.13491987  0.05280033  1
  Mo  Mo61  1  0.15298848  0.33843737  0.67187171  1
  Mo  Mo62  1  0.36256083  0.18565707  0.75719517  1
  Mo  Mo63  1  0.64750889  0.87154264  0.80034694  1
  O  O0  1  0.25345558  0.93218072  0.59031458  1
  O  O1  1  0.25013486  0.15994455  0.83283109  1
  O  O2  1  0.00406524  0.26273271  0.03766544  1
  O  O3  1  0.49504981  0.38281962  0.38211295  1
  O  O4  1  -0.00063443  0.67845562  0.18878156  1
  O  O5  1  0.24806809  0.88859757  0.80582952  1
  O  O6  1  0.97559985  0.91775145  0.65042793  1
  O  O7  1  0.28492701  0.94751989  0.37597195  1
  O  O8  1  0.49888851  0.13287066  0.13425780  1
  O  O9  1  0.51330505  0.24393489  0.24222485  1
  O  O10  1  0.99593476  0.73726729  0.96233456  1
  O  O11  1  0.73346384  0.65551842  0.25553896  1
  O  O12  1  0.00111149  0.63287066  0.63425780  1
  O  O13  1  0.75927017  0.76980855  0.60652912  1
  O  O14  1  0.74806809  0.61140243  0.69417048  1
  O  O15  1  0.74986514  0.84005545  0.16716891  1
  O  O16  1  0.77907418  0.68954087  0.04332247  1
  O  O17  1  0.00063443  0.32154438  0.81121844  1
  O  O18  1  0.48419687  0.91248121  0.65898969  1
  O  O19  1  0.99907064  0.80604597  0.31839573  1
  O  O20  1  0.50495019  0.61718038  0.61788705  1
  O  O21  1  0.49936557  0.82154438  0.31121844  1
  O  O22  1  0.25687457  0.64402231  0.55515547  1
  O  O23  1  0.24072983  0.23019145  0.39347088  1
  O  O24  1  0.28502914  0.48459036  0.65679075  1
  O  O25  1  0.24654442  0.43218072  0.09031458  1
  O  O26  1  0.21497086  0.98459036  0.15679075  1
  O  O27  1  0.79250583  0.48312283  0.56142517  1
  O  O28  1  0.50111149  0.86712934  0.86574220  1
  O  O29  1  0.74879471  0.39184465  0.22678439  1
  O  O30  1  0.52440015  0.41775145  0.15042793  1
  O  O31  1  0.75377744  0.81330864  0.37956634  1
  O  O32  1  0.77836217  0.95681950  0.27956113  1
  O  O33  1  0.24622256  0.18669136  0.62043366  1
  O  O34  1  0.25377744  0.68669136  0.12043366  1
  O  O35  1  0.27836217  0.54318050  0.22043887  1
  O  O36  1  0.00495019  0.88281962  0.88211295  1
  O  O37  1  0.72163783  0.45681950  0.77956113  1
  O  O38  1  0.74622256  0.31330864  0.87956634  1
  O  O39  1  0.21281464  0.37688370  0.52044135  1
  O  O40  1  0.50406524  0.23726729  0.46233456  1
  O  O41  1  0.75687457  0.85597769  0.94484453  1
  O  O42  1  0.28718536  0.87688370  0.02044135  1
  O  O43  1  0.25120529  0.60815535  0.77321561  1
  O  O44  1  0.00092936  0.19395403  0.68160427  1
  O  O45  1  0.50063443  0.17845562  0.68878156  1
  O  O46  1  0.22092582  0.31045913  0.95667753  1
  O  O47  1  0.21507299  0.44751989  0.87597195  1
  O  O48  1  0.49164978  0.70883710  0.97501076  1
  O  O49  1  0.48669495  0.75606511  0.75777515  1
  O  O50  1  0.72092582  0.18954087  0.54332247  1
  O  O51  1  0.49907064  0.69395403  0.18160427  1
  O  O52  1  0.24785359  0.27010449  0.17329227  1
  O  O53  1  -0.00495019  0.11718038  0.11788705  1
  O  O54  1  0.00500434  0.15079306  0.90564536  1
  O  O55  1  0.00798039  0.33608666  0.60247205  1
  O  O56  1  0.01330505  0.25606511  0.25777515  1
  O  O57  1  0.98669495  0.74393489  0.74222485  1
  O  O58  1  0.27907418  0.81045913  0.45667753  1
  O  O59  1  0.01580313  0.41248121  0.15898969  1
  O  O60  1  0.22163783  0.04318050  0.72043887  1
  O  O61  1  0.24986514  0.65994455  0.33283109  1
  O  O62  1  0.76653616  0.15551842  0.75553896  1
  O  O63  1  0.71507299  0.05248011  0.62402805  1
  O  O64  1  -0.00835022  0.79116290  0.52498924  1
  O  O65  1  0.78492701  0.55248011  0.12402805  1
  O  O66  1  0.50500434  0.34920694  0.59435464  1
  O  O67  1  0.23346384  0.84448158  0.24446104  1
  O  O68  1  0.73906968  0.92382762  0.50230210  1
  O  O69  1  0.71497086  0.51540964  0.34320925  1
  O  O70  1  0.75214641  0.72989551  0.82670773  1
  O  O71  1  0.74072983  0.26980855  0.10652912  1
  O  O72  1  0.25927017  0.73019145  0.89347088  1
  O  O73  1  0.75345558  0.56781928  0.90968542  1
  O  O74  1  0.02440015  0.08224855  0.34957207  1
  O  O75  1  0.75193191  0.11140243  0.19417048  1
  O  O76  1  0.99499566  0.84920694  0.09435464  1
  O  O77  1  0.74785359  0.22989551  0.32670773  1
  O  O78  1  0.74654442  0.06781928  0.40968542  1
  O  O79  1  0.00835022  0.20883710  0.47501076  1
  O  O80  1  0.50835022  0.29116290  0.02498924  1
  O  O81  1  0.78502914  0.01540964  0.84320925  1
  O  O82  1  0.26093032  0.07617238  0.49769790  1
  O  O83  1  -0.00111149  0.36712934  0.36574220  1
  O  O84  1  0.47559985  0.58224855  0.84957207  1
  O  O85  1  0.24879471  0.10815535  0.27321561  1
  O  O86  1  0.99201961  0.66391334  0.39752795  1
  O  O87  1  0.51580313  0.08751879  0.34101031  1
  O  O88  1  0.29250583  0.01687717  0.93857483  1
  O  O89  1  0.20749417  0.51687717  0.43857483  1
  O  O90  1  0.24312543  0.14402231  0.05515547  1
  O  O91  1  0.76093032  0.42382762  0.00230210  1
  O  O92  1  0.75013486  0.34005545  0.66716891  1
  O  O93  1  0.49593476  0.76273271  0.53766544  1
  O  O94  1  0.98419687  0.58751879  0.84101031  1
  O  O95  1  0.49201961  0.83608666  0.10247205  1
  O  O96  1  0.23906968  0.57617238  0.99769790  1
  O  O97  1  0.50092936  0.30604597  0.81839573  1
  O  O98  1  0.74312543  0.35597769  0.44484453  1
  O  O99  1  0.75120529  0.89184465  0.72678439  1
  O  O100  1  0.49499566  0.65079306  0.40564536  1
  O  O101  1  0.26653616  0.34448158  0.74446104  1
  O  O102  1  0.71281464  0.12311630  0.97955865  1
  O  O103  1  0.50798039  0.16391334  0.89752795  1
  O  O104  1  0.70749417  0.98312283  0.06142517  1
  O  O105  1  0.25193191  0.38859757  0.30582952  1
  O  O106  1  0.25214641  0.77010449  0.67329227  1
  O  O107  1  0.78718536  0.62311630  0.47955865  1
loop_
_geom_bond_atom_site_label_1
_geom_bond_atom_site_label_2
_geom_bond_distance
_geom_bond_site_symmetry_2
Nd0 O21 2.263281 1_555
Nd0 O100 2.383676 1_555
Nd0 O31 2.391055 1_555
Nd0 O7 2.480531 1_555
Nd0 O58 2.672813 1_555
Nd0 O78 3.161994 1_565
Nd0 O87 3.183905 1_565
Nd0 O68 3.227885 1_555
Nd1 O75 2.399347 1_565
Nd1 O76 2.457593 1_555
Nd1 O53 2.470394 1_665
Nd1 O15 2.472791 1_555
Nd1 O26 2.532145 1_655
Nd1 O32 2.950794 1_555
Nd2 O105 2.399347 1_555
Nd2 O100 2.457593 1_555
Nd2 O3 2.470394 1_555
Nd2 O61 2.472791 1_555
Nd2 O69 2.532145 1_555
Nd2 O35 2.950794 1_555
Nd3 O17 2.263281 1_655
Nd3 O54 2.383676 1_655
Nd3 O38 2.391055 1_555
Nd3 O47 2.480531 1_655
Nd3 O46 2.672813 1_655
Nd3 O73 3.161994 1_555
Nd3 O94 3.183905 1_555
Nd3 O91 3.227885 1_556
Nd4 O14 2.399347 1_555
Nd4 O66 2.457593 1_555
Nd4 O20 2.470394 1_555
Nd4 O92 2.472791 1_555
Nd4 O24 2.532145 1_555
Nd4 O37 2.950794 1_555
Nd5 O45 2.263281 1_555
Nd5 O66 2.383676 1_555
Nd5 O33 2.391055 1_555
Nd5 O63 2.480531 1_555
Nd5 O50 2.672813 1_555
Nd5 O0 3.161994 1_545
Nd5 O18 3.183905 1_545
Nd5 O82 3.227885 1_555
Nd6 O5 2.399347 1_545
Nd6 O54 2.457593 1_555
Nd6 O36 2.470394 1_545
Nd6 O1 2.472791 1_555
Nd6 O81 2.532145 1_455
Nd6 O60 2.950794 1_555
Nd7 O104 2.504675 1_545
Nd7 O88 2.504675 1_554
Nd7 O102 2.530503 1_554
Nd7 O42 2.530503 1_545
Nd8 O4 2.263281 1_555
Nd8 O76 2.383676 1_455
Nd8 O34 2.391055 1_555
Nd8 O65 2.480531 1_455
Nd8 O16 2.672813 1_455
Nd8 O25 3.161994 1_555
Nd8 O59 3.183905 1_555
Nd8 O96 3.227885 1_554
Nd9 O89 2.504675 1_555
Nd9 O27 2.504675 1_455
Nd9 O107 2.530503 1_455
Nd9 O39 2.530503 1_555
Mo0 O11 2.091325 1_555
Mo0 O65 2.105017 1_555
Mo0 O29 2.106756 1_555
Mo0 O4 2.126800 1_655
Mo0 O59 2.142984 1_655
Mo1 O85 1.992061 1_555
Mo1 O23 2.004594 1_555
Mo1 O56 2.053490 1_555
Mo1 O83 2.112714 1_555
Mo1 O74 2.157229 1_555
Mo1 O105 2.185429 1_555
Mo2 O8 2.078238 1_565
Mo2 O95 2.133653 1_555
Mo2 O104 2.134958 1_555
Mo2 O75 2.138940 1_565
Mo2 O15 2.176793 1_555
Mo3 O58 2.094797 1_555
Mo3 O22 2.143651 1_555
Mo3 O93 2.146853 1_555
Mo3 O89 2.193514 1_555
Mo3 O100 2.216605 1_555
Mo4 O52 2.080676 1_555
Mo4 O56 2.152836 1_555
Mo4 O59 2.155623 1_555
Mo4 O35 2.162548 1_555
Mo4 O105 2.167138 1_555
Mo5 O106 2.067619 1_555
Mo5 O43 2.119688 1_555
Mo5 O12 2.136675 1_555
Mo5 O57 2.137888 1_455
Mo5 O24 2.182622 1_555
Mo6 O83 2.078238 1_555
Mo6 O86 2.133653 1_455
Mo6 O89 2.134958 1_555
Mo6 O105 2.138940 1_555
Mo6 O61 2.176793 1_555
Mo7 O65 2.122445 1_555
Mo7 O15 2.123421 1_555
Mo7 O16 2.144540 1_555
Mo7 O51 2.179979 1_555
Mo7 O95 2.182412 1_555
Mo8 O12 2.078238 1_655
Mo8 O55 2.133653 1_655
Mo8 O27 2.134958 1_555
Mo8 O14 2.138940 1_555
Mo8 O92 2.176793 1_555
Mo9 O93 2.030385 1_555
Mo9 O18 2.043331 1_555
Mo9 O106 2.044709 1_555
Mo9 O22 2.128794 1_555
Mo9 O0 2.160466 1_555
Mo9 O20 2.236175 1_555
Mo10 O62 2.086273 1_555
Mo10 O38 2.117850 1_555
Mo10 O81 2.137009 1_555
Mo10 O103 2.194433 1_555
Mo10 O97 2.201436 1_555
Mo11 O23 2.078703 1_555
Mo11 O40 2.132655 1_555
Mo11 O3 2.168632 1_555
Mo11 O89 2.185243 1_555
Mo11 O39 2.199348 1_555
Mo12 O41 2.125289 1_545
Mo12 O36 2.137119 1_645
Mo12 O81 2.139865 1_555
Mo12 O102 2.152918 1_555
Mo12 O54 2.190278 1_655
Mo13 O23 2.067453 1_555
Mo13 O74 2.149814 1_555
Mo13 O79 2.165295 1_555
Mo13 O82 2.166267 1_555
Mo13 O7 2.168682 1_545
Mo14 O77 2.067619 1_555
Mo14 O29 2.119688 1_555
Mo14 O83 2.136675 1_655
Mo14 O56 2.137888 1_655
Mo14 O69 2.182622 1_555
Mo15 O11 2.065032 1_555
Mo15 O21 2.128551 1_555
Mo15 O32 2.142792 1_555
Mo15 O15 2.219760 1_555
Mo15 O51 2.251182 1_555
Mo16 O10 2.030385 1_555
Mo16 O94 2.043331 1_555
Mo16 O70 2.044709 1_555
Mo16 O41 2.128794 1_555
Mo16 O73 2.160466 1_555
Mo16 O36 2.236175 1_655
Mo17 O74 1.960355 1_665
Mo17 O78 2.047865 1_565
Mo17 O32 2.095831 1_555
Mo17 O19 2.130481 1_555
Mo17 O31 2.185779 1_555
Mo18 O47 2.122445 1_555
Mo18 O1 2.123421 1_555
Mo18 O46 2.144540 1_555
Mo18 O97 2.179979 1_555
Mo18 O103 2.182412 1_555
Mo19 O101 2.091325 1_555
Mo19 O47 2.105017 1_555
Mo19 O43 2.106756 1_555
Mo19 O17 2.126800 1_555
Mo19 O94 2.142984 1_455
Mo20 O84 1.960355 1_555
Mo20 O73 2.047865 1_555
Mo20 O37 2.095831 1_555
Mo20 O97 2.130481 1_555
Mo20 O38 2.185779 1_555
Mo21 O72 2.067453 1_555
Mo21 O84 2.149814 1_555
Mo21 O48 2.165295 1_555
Mo21 O96 2.166267 1_555
Mo21 O47 2.168682 1_555
Mo22 O99 1.992061 1_555
Mo22 O13 2.004594 1_555
Mo22 O57 2.053490 1_555
Mo22 O12 2.112714 1_655
Mo22 O6 2.157229 1_555
Mo22 O14 2.185429 1_555
Mo23 O29 1.992061 1_555
Mo23 O71 2.004594 1_555
Mo23 O9 2.053490 1_555
Mo23 O8 2.112714 1_555
Mo23 O30 2.157229 1_555
Mo23 O75 2.185429 1_555
Mo24 O73 2.112945 1_555
Mo24 O16 2.114699 1_556
Mo24 O48 2.116148 1_555
Mo24 O91 2.133629 1_556
Mo25 O40 2.030385 1_555
Mo25 O87 2.043331 1_555
Mo25 O77 2.044709 1_555
Mo25 O98 2.128794 1_555
Mo25 O78 2.160466 1_555
Mo25 O3 2.236175 1_555
Mo26 O70 2.080676 1_555
Mo26 O57 2.152836 1_555
Mo26 O94 2.155623 1_555
Mo26 O37 2.162548 1_555
Mo26 O14 2.167138 1_555
Mo27 O30 1.960355 1_555
Mo27 O25 2.047865 1_555
Mo27 O35 2.095831 1_555
Mo27 O51 2.130481 1_555
Mo27 O34 2.185779 1_555
Mo28 O50 2.094797 1_555
Mo28 O98 2.143651 1_555
Mo28 O40 2.146853 1_555
Mo28 O27 2.193514 1_555
Mo28 O66 2.216605 1_555
Mo29 O16 2.094797 1_555
Mo29 O41 2.143651 1_554
Mo29 O10 2.146853 1_554
Mo29 O104 2.193514 1_555
Mo29 O76 2.216605 1_555
Mo30 O62 2.065032 1_555
Mo30 O17 2.128551 1_655
Mo30 O37 2.142792 1_555
Mo30 O92 2.219760 1_555
Mo30 O44 2.251182 1_655
Mo31 O78 2.112945 1_555
Mo31 O50 2.114699 1_555
Mo31 O79 2.116148 1_655
Mo31 O68 2.133629 1_545
Mo32 O64 2.099814 1_655
Mo32 O68 2.111506 1_555
Mo32 O107 2.127711 1_555
Mo32 O86 2.159518 1_555
Mo32 O31 2.219485 1_555
Mo33 O13 2.078703 1_555
Mo33 O93 2.132655 1_555
Mo33 O20 2.168632 1_555
Mo33 O27 2.185243 1_555
Mo33 O107 2.199348 1_555
Mo34 O90 2.125289 1_565
Mo34 O53 2.137119 1_565
Mo34 O26 2.139865 1_555
Mo34 O42 2.152918 1_555
Mo34 O76 2.190278 1_455
Mo35 O98 2.125289 1_555
Mo35 O3 2.137119 1_555
Mo35 O69 2.139865 1_555
Mo35 O107 2.152918 1_555
Mo35 O100 2.190278 1_555
Mo36 O67 2.091325 1_555
Mo36 O7 2.105017 1_555
Mo36 O85 2.106756 1_565
Mo36 O21 2.126800 1_555
Mo36 O87 2.142984 1_565
Mo37 O67 2.086273 1_555
Mo37 O34 2.117850 1_555
Mo37 O26 2.137009 1_555
Mo37 O95 2.194433 1_555
Mo37 O51 2.201436 1_555
Mo38 O25 2.112945 1_555
Mo38 O46 2.114699 1_554
Mo38 O80 2.116148 1_555
Mo38 O96 2.133629 1_554
Mo39 O63 2.122445 1_555
Mo39 O92 2.123421 1_555
Mo39 O50 2.144540 1_555
Mo39 O44 2.179979 1_655
Mo39 O55 2.182412 1_655
Mo40 O13 2.067453 1_555
Mo40 O6 2.149814 1_555
Mo40 O64 2.165295 1_655
Mo40 O68 2.166267 1_555
Mo40 O63 2.168682 1_565
Mo41 O11 2.086273 1_555
Mo41 O31 2.117850 1_555
Mo41 O69 2.137009 1_555
Mo41 O86 2.194433 1_555
Mo41 O19 2.201436 1_555
Mo42 O0 2.112945 1_555
Mo42 O58 2.114699 1_555
Mo42 O64 2.116148 1_555
Mo42 O82 2.133629 1_565
Mo43 O43 1.992061 1_555
Mo43 O72 2.004594 1_555
Mo43 O49 2.053490 1_555
Mo43 O28 2.112714 1_555
Mo43 O84 2.157229 1_555
Mo43 O5 2.185429 1_555
Mo44 O48 2.099814 1_554
Mo44 O96 2.111506 1_554
Mo44 O42 2.127711 1_555
Mo44 O95 2.159518 1_555
Mo44 O34 2.219485 1_555
Mo45 O2 2.030385 1_555
Mo45 O59 2.043331 1_555
Mo45 O52 2.044709 1_555
Mo45 O90 2.128794 1_555
Mo45 O25 2.160466 1_555
Mo45 O53 2.236175 1_555
Mo46 O106 2.080676 1_555
Mo46 O49 2.152836 1_555
Mo46 O18 2.155623 1_555
Mo46 O60 2.162548 1_565
Mo46 O5 2.167138 1_555
Mo47 O72 2.078703 1_555
Mo47 O10 2.132655 1_455
Mo47 O36 2.168632 1_555
Mo47 O88 2.185243 1_565
Mo47 O42 2.199348 1_556
Mo48 O46 2.094797 1_555
Mo48 O90 2.143651 1_556
Mo48 O2 2.146853 1_556
Mo48 O88 2.193514 1_555
Mo48 O54 2.216605 1_555
Mo49 O6 1.960355 1_445
Mo49 O0 2.047865 1_545
Mo49 O60 2.095831 1_555
Mo49 O44 2.130481 1_555
Mo49 O33 2.185779 1_555
Mo50 O80 2.099814 1_556
Mo50 O91 2.111506 1_556
Mo50 O102 2.127711 1_555
Mo50 O103 2.159518 1_555
Mo50 O38 2.219485 1_555
Mo51 O62 2.091325 1_555
Mo51 O63 2.105017 1_555
Mo51 O99 2.106756 1_545
Mo51 O45 2.126800 1_555
Mo51 O18 2.142984 1_545
Mo52 O22 2.125289 1_555
Mo52 O20 2.137119 1_555
Mo52 O24 2.139865 1_555
Mo52 O39 2.152918 1_555
Mo52 O66 2.190278 1_555
Mo53 O7 2.122445 1_555
Mo53 O61 2.123421 1_555
Mo53 O58 2.144540 1_555
Mo53 O19 2.179979 1_455
Mo53 O86 2.182412 1_455
Mo54 O71 2.067453 1_555
Mo54 O30 2.149814 1_555
Mo54 O80 2.165295 1_555
Mo54 O91 2.166267 1_555
Mo54 O65 2.168682 1_555
Mo55 O52 2.067619 1_555
Mo55 O85 2.119688 1_555
Mo55 O8 2.136675 1_555
Mo55 O9 2.137888 1_555
Mo55 O26 2.182622 1_545
Mo56 O77 2.080676 1_555
Mo56 O9 2.152836 1_555
Mo56 O87 2.155623 1_555
Mo56 O32 2.162548 1_545
Mo56 O75 2.167138 1_555
Mo57 O28 2.078238 1_545
Mo57 O103 2.133653 1_555
Mo57 O88 2.134958 1_555
Mo57 O5 2.138940 1_545
Mo57 O1 2.176793 1_555
Mo58 O67 2.065032 1_555
Mo58 O4 2.128551 1_555
Mo58 O35 2.142792 1_555
Mo58 O61 2.219760 1_555
Mo58 O19 2.251182 1_455
Mo59 O79 2.099814 1_555
Mo59 O82 2.111506 1_555
Mo59 O39 2.127711 1_555
Mo59 O55 2.159518 1_555
Mo59 O33 2.219485 1_555
Mo60 O71 2.078703 1_555
Mo60 O2 2.132655 1_655
Mo60 O53 2.168632 1_655
Mo60 O104 2.185243 1_545
Mo60 O102 2.199348 1_554
Mo61 O101 2.086273 1_555
Mo61 O33 2.117850 1_555
Mo61 O24 2.137009 1_555
Mo61 O55 2.194433 1_555
Mo61 O44 2.201436 1_555
Mo62 O101 2.065032 1_555
Mo62 O45 2.128551 1_555
Mo62 O60 2.142792 1_555
Mo62 O1 2.219760 1_555
Mo62 O97 2.251182 1_555
Mo63 O70 2.067619 1_555
Mo63 O99 2.119688 1_555
Mo63 O28 2.136675 1_555
Mo63 O49 2.137888 1_555
Mo63 O81 2.182622 1_565
