# generated using pymatgen
data_H6C3N4O3
_symmetry_space_group_name_H-M   'P 1'
_cell_length_a   5.16905504
_cell_length_b   5.16905504
_cell_length_c   21.85166105
_cell_angle_alpha   85.38954948
_cell_angle_beta   85.38954948
_cell_angle_gamma   88.32306530
_symmetry_Int_Tables_number   1
_chemical_formula_structural   H6C3N4O3
_chemical_formula_sum   'H24 C12 N16 O12'
_cell_volume   579.93223222
_cell_formula_units_Z   4
loop_
 _symmetry_equiv_pos_site_id
 _symmetry_equiv_pos_as_xyz
  1  'x, y, z'
loop_
 _atom_site_type_symbol
 _atom_site_label
 _atom_site_symmetry_multiplicity
 _atom_site_fract_x
 _atom_site_fract_y
 _atom_site_fract_z
 _atom_site_occupancy
  H  H0  1  0.11018700  0.26228100  0.49917800  1
  H  H1  1  0.73771900  0.88981300  0.00082200  1
  H  H2  1  0.88981300  0.73771900  0.50082200  1
  H  H3  1  0.26228100  0.11018700  0.99917800  1
  H  H4  1  0.37579400  0.11094700  0.45812100  1
  H  H5  1  0.88905300  0.62420600  0.04187900  1
  H  H6  1  0.62420600  0.88905300  0.54187900  1
  H  H7  1  0.11094700  0.37579400  0.95812100  1
  H  H8  1  0.55724300  0.69462100  0.37067400  1
  H  H9  1  0.30537900  0.44275700  0.12932600  1
  H  H10  1  0.44275700  0.30537900  0.62932600  1
  H  H11  1  0.69462100  0.55724300  0.87067400  1
  H  H12  1  0.80398900  0.56872800  0.29709100  1
  H  H13  1  0.43127200  0.19601100  0.20290900  1
  H  H14  1  0.19601100  0.43127200  0.70290900  1
  H  H15  1  0.56872800  0.80398900  0.79709100  1
  H  H16  1  0.08535700  0.97070600  0.36298400  1
  H  H17  1  0.02929400  0.91464300  0.13701600  1
  H  H18  1  0.91464300  0.02929400  0.63701600  1
  H  H19  1  0.97070600  0.08535700  0.86298400  1
  H  H20  1  0.32047900  0.96181400  0.29885900  1
  H  H21  1  0.03818600  0.67952100  0.20114100  1
  H  H22  1  0.67952100  0.03818600  0.70114100  1
  H  H23  1  0.96181400  0.32047900  0.79885900  1
  C  C0  1  0.31647500  0.49992600  0.43555100  1
  C  C1  1  0.50007400  0.68352500  0.06444900  1
  C  C2  1  0.68352500  0.50007400  0.56444900  1
  C  C3  1  0.49992600  0.31647500  0.93555100  1
  C  C4  1  0.69863400  0.31499200  0.37286400  1
  C  C5  1  0.68500800  0.30136600  0.12713600  1
  C  C6  1  0.30136600  0.68500800  0.62713600  1
  C  C7  1  0.31499200  0.69863400  0.87286400  1
  C  C8  1  0.06921600  0.26629300  0.29343800  1
  C  C9  1  0.73370700  0.93078400  0.20656200  1
  C  C10  1  0.93078400  0.73370700  0.70656200  1
  C  C11  1  0.26629300  0.06921600  0.79343800  1
  N  N0  1  0.27033700  0.27374200  0.46811300  1
  N  N1  1  0.72625800  0.72966300  0.03188700  1
  N  N2  1  0.72966300  0.72625800  0.53188700  1
  N  N3  1  0.27374200  0.27033700  0.96811300  1
  N  N4  1  0.52486100  0.51032500  0.38970300  1
  N  N5  1  0.48967500  0.47513900  0.11029700  1
  N  N6  1  0.47513900  0.48967500  0.61029700  1
  N  N7  1  0.51032500  0.52486100  0.88970300  1
  N  N8  1  0.86014800  0.39875200  0.32181400  1
  N  N9  1  0.60124800  0.13985200  0.17818600  1
  N  N10  1  0.13985200  0.60124800  0.67818600  1
  N  N11  1  0.39875200  0.86014800  0.82181400  1
  N  N12  1  0.16103500  0.04652400  0.32093400  1
  N  N13  1  0.95347600  0.83896500  0.17906600  1
  N  N14  1  0.83896500  0.95347600  0.67906600  1
  N  N15  1  0.04652400  0.16103500  0.82093400  1
  O  O0  1  0.18800400  0.70628600  0.44199300  1
  O  O1  1  0.29371400  0.81199600  0.05800700  1
  O  O2  1  0.81199600  0.29371400  0.55800700  1
  O  O3  1  0.70628600  0.18800400  0.94199300  1
  O  O4  1  0.70704500  0.09463700  0.39926700  1
  O  O5  1  0.90536300  0.29295500  0.10073300  1
  O  O6  1  0.29295500  0.90536300  0.60073300  1
  O  O7  1  0.09463700  0.70704500  0.89926700  1
  O  O8  1  0.16637200  0.36493300  0.24229900  1
  O  O9  1  0.63506700  0.83362800  0.25770100  1
  O  O10  1  0.83362800  0.63506700  0.75770100  1
  O  O11  1  0.36493300  0.16637200  0.74229900  1
loop_
_geom_bond_atom_site_label_1
_geom_bond_atom_site_label_2
_geom_bond_distance
_geom_bond_site_symmetry_2
H0 N0 1.027457 1_555
H1 N1 1.027457 1_555
H2 N2 1.027457 1_555
H3 N3 1.027457 1_555
H4 N0 1.018083 1_555
H5 N1 1.018083 1_555
H6 N2 1.018083 1_555
H7 N3 1.018083 1_555
H8 N4 1.021224 1_555
H9 N5 1.021224 1_555
H10 N6 1.021224 1_555
H11 N7 1.021224 1_555
H12 N8 1.040224 1_555
H13 N9 1.040224 1_555
H14 N10 1.040224 1_555
H15 N11 1.040224 1_555
H16 N12 1.021871 1_565
H17 N13 1.021871 1_455
H18 N14 1.021871 1_545
H19 N15 1.021871 1_655
H20 N12 1.025964 1_565
H21 N13 1.025964 1_455
H22 N14 1.025964 1_545
H23 N15 1.025964 1_655
C0 O0 1.251512 1_555
C0 N0 1.336185 1_555
C0 N4 1.410006 1_555
C1 O1 1.251512 1_555
C1 N1 1.336185 1_555
C1 N5 1.410006 1_555
C2 O2 1.251512 1_555
C2 N2 1.336185 1_555
C2 N6 1.410006 1_555
C3 O3 1.251512 1_555
C3 N3 1.336185 1_555
C3 N7 1.410006 1_555
C4 O4 1.235974 1_555
C4 N4 1.383912 1_555
C4 N8 1.386601 1_555
C5 O5 1.235974 1_555
C5 N5 1.383912 1_555
C5 N9 1.386601 1_555
C6 O6 1.235974 1_555
C6 N6 1.383912 1_555
C6 N10 1.386601 1_555
C7 O7 1.235974 1_555
C7 N7 1.383912 1_555
C7 N11 1.386601 1_555
C8 O8 1.262575 1_555
C8 N12 1.334659 1_555
C8 N8 1.392255 1_455
C9 O9 1.262575 1_555
C9 N13 1.334659 1_555
C9 N9 1.392255 1_565
C10 O10 1.262575 1_555
C10 N14 1.334659 1_555
C10 N10 1.392255 1_655
C11 O11 1.262575 1_555
C11 N15 1.334659 1_555
C11 N11 1.392255 1_545
