# generated using pymatgen
data_FeOF
_symmetry_space_group_name_H-M   'P 1'
_cell_length_a   3.10834600
_cell_length_b   9.51305400
_cell_length_c   14.15402283
_cell_angle_alpha   89.90653116
_cell_angle_beta   90.00000000
_cell_angle_gamma   90.00000000
_symmetry_Int_Tables_number   1
_chemical_formula_structural   FeOF
_chemical_formula_sum   'Fe12 O12 F12'
_cell_volume   418.53196412
_cell_formula_units_Z   12
loop_
 _symmetry_equiv_pos_site_id
 _symmetry_equiv_pos_as_xyz
  1  'x, y, z'
loop_
 _atom_site_type_symbol
 _atom_site_label
 _atom_site_symmetry_multiplicity
 _atom_site_fract_x
 _atom_site_fract_y
 _atom_site_fract_z
 _atom_site_occupancy
  Fe  Fe0  1  0.00000000  0.99616100  0.98714900  1
  Fe  Fe1  1  0.00000000  0.49144000  0.99033300  1
  Fe  Fe2  1  0.50000000  0.24740200  0.84743200  1
  Fe  Fe3  1  0.50000000  0.74341200  0.84923000  1
  Fe  Fe4  1  0.00000000  0.99458000  0.65598000  1
  Fe  Fe5  1  0.00000000  0.49550800  0.65609300  1
  Fe  Fe6  1  0.50000000  0.74461000  0.51488700  1
  Fe  Fe7  1  0.50000000  0.24682100  0.51499900  1
  Fe  Fe8  1  0.00000000  0.99218300  0.32303200  1
  Fe  Fe9  1  0.00000000  0.49482000  0.31999800  1
  Fe  Fe10  1  0.50000000  0.27666700  0.15848000  1
  Fe  Fe11  1  0.50000000  0.74530300  0.17820000  1
  O  O0  1  0.50000000  0.40563700  0.93179500  1
  O  O1  1  0.50000000  0.90238900  0.93656400  1
  O  O2  1  0.00000000  0.15295800  0.89897200  1
  O  O3  1  0.00000000  0.65152400  0.89976100  1
  O  O4  1  0.50000000  0.40266700  0.60288100  1
  O  O5  1  0.50000000  0.90171100  0.60241400  1
  O  O6  1  0.00000000  0.15022300  0.56454900  1
  O  O7  1  0.00000000  0.65200500  0.56557600  1
  O  O8  1  0.50000000  0.39901700  0.27024800  1
  O  O9  1  0.50000000  0.90826200  0.26645000  1
  O  O10  1  0.00000000  0.65509100  0.23354900  1
  O  O11  1  0.00000000  0.35419100  0.09871600  1
  F  F0  1  0.00000000  0.34829700  0.76726100  1
  F  F1  1  0.00000000  0.84757500  0.76820700  1
  F  F2  1  0.50000000  0.09773500  0.73288400  1
  F  F3  1  0.50000000  0.59731600  0.73242300  1
  F  F4  1  0.00000000  0.34793400  0.43558500  1
  F  F5  1  0.00000000  0.85055100  0.43342600  1
  F  F6  1  0.50000000  0.10070100  0.39466000  1
  F  F7  1  0.50000000  0.59890700  0.39944800  1
  F  F8  1  0.00000000  0.15497300  0.23040400  1
  F  F9  1  0.00000000  0.84978800  0.10298600  1
  F  F10  1  0.50000000  0.09561300  0.06934100  1
  F  F11  1  0.50000000  0.60602800  0.06609100  1
loop_
_geom_bond_atom_site_label_1
_geom_bond_atom_site_label_2
_geom_bond_distance
_geom_bond_site_symmetry_2
Fe0 O1 1.930268 1_555
Fe0 O1 1.930268 1_455
Fe0 O2 1.943323 1_565
Fe1 O0 1.941755 1_555
Fe1 O0 1.941755 1_455
Fe1 O3 1.989028 1_555
Fe1 O11 2.012842 1_556
Fe2 O0 1.922915 1_555
Fe2 O2 1.937188 1_655
Fe2 O2 1.937188 1_555
Fe3 O3 1.920693 1_555
Fe3 O3 1.920693 1_655
Fe3 O1 1.954823 1_555
Fe4 O5 1.942417 1_455
Fe4 O5 1.942417 1_555
Fe4 O6 1.964887 1_565
Fe5 O4 1.940341 1_455
Fe5 O4 1.940341 1_555
Fe5 O7 1.962554 1_555
Fe6 O7 1.924634 1_555
Fe6 O7 1.924634 1_655
Fe6 O5 1.942775 1_555
Fe7 O6 1.936407 1_655
Fe7 O6 1.936407 1_555
Fe7 O4 1.936823 1_555
Fe8 O9 1.922570 1_555
Fe8 O9 1.922570 1_455
Fe9 O8 1.934943 1_455
Fe9 O8 1.934943 1_555
Fe9 O10 1.953387 1_555
Fe10 O11 1.916470 1_655
Fe10 O11 1.916470 1_555
Fe10 O8 1.965538 1_555
Fe11 O10 1.939971 1_555
Fe11 O10 1.939971 1_655
Fe11 O9 1.992432 1_555
F0 Fe5 2.104715 1_555
F0 Fe2 2.149603 1_555
F0 Fe2 2.149603 1_455
F1 Fe4 2.114634 1_555
F1 Fe3 2.169977 1_455
F1 Fe3 2.169977 1_555
F2 Fe4 2.136998 1_645
F2 Fe4 2.136998 1_545
F2 Fe2 2.159484 1_555
F3 Fe5 2.126989 1_555
F3 Fe5 2.126989 1_655
F3 Fe3 2.161587 1_555
F4 Fe7 2.144902 1_555
F4 Fe7 2.144902 1_455
F4 Fe9 2.149802 1_555
F5 Fe8 2.061542 1_555
F5 Fe6 2.181004 1_555
F5 Fe6 2.181004 1_455
F6 Fe8 2.124248 1_645
F6 Fe8 2.124248 1_545
F6 Fe7 2.200255 1_555
F7 Fe6 2.144370 1_555
F7 Fe9 2.159661 1_555
F7 Fe9 2.159661 1_655
F8 Fe8 2.027438 1_545
F8 Fe10 2.188193 1_455
F8 Fe10 2.188193 1_555
F9 Fe11 2.129158 1_455
F9 Fe11 2.129158 1_555
F9 Fe0 2.149334 1_554
F10 Fe10 2.136702 1_555
F10 Fe0 2.160443 1_644
F10 Fe0 2.160443 1_544
F11 Fe11 2.068868 1_555
F11 Fe1 2.181131 1_554
F11 Fe1 2.181131 1_654
