# generated using pymatgen
data_Li3BiO4
_symmetry_space_group_name_H-M   'P 1'
_cell_length_a   7.65166180
_cell_length_b   7.65166180
_cell_length_c   7.65166180
_cell_angle_alpha   109.47122063
_cell_angle_beta   109.47122063
_cell_angle_gamma   109.47122063
_symmetry_Int_Tables_number   1
_chemical_formula_structural   Li3BiO4
_chemical_formula_sum   'Li12 Bi4 O16'
_cell_volume   344.86205178
_cell_formula_units_Z   4
loop_
 _symmetry_equiv_pos_site_id
 _symmetry_equiv_pos_as_xyz
  1  'x, y, z'
loop_
 _atom_site_type_symbol
 _atom_site_label
 _atom_site_symmetry_multiplicity
 _atom_site_fract_x
 _atom_site_fract_y
 _atom_site_fract_z
 _atom_site_occupancy
  Li  Li0  1  0.51961800  0.28228000  0.00000000  1
  Li  Li1  1  0.51961800  0.00000000  0.28228000  1
  Li  Li2  1  0.76266200  0.48038200  0.48038200  1
  Li  Li3  1  0.71772000  0.23733800  0.71772000  1
  Li  Li4  1  0.71772000  0.71772000  0.23733800  1
  Li  Li5  1  0.28228000  0.51961800  0.00000000  1
  Li  Li6  1  0.28228000  0.00000000  0.51961800  1
  Li  Li7  1  0.48038200  0.48038200  0.76266200  1
  Li  Li8  1  0.48038200  0.76266200  0.48038200  1
  Li  Li9  1  0.00000000  0.51961800  0.28228000  1
  Li  Li10  1  0.00000000  0.28228000  0.51961800  1
  Li  Li11  1  0.23733800  0.71772000  0.71772000  1
  Bi  Bi0  1  0.71916900  0.00000000  0.00000000  1
  Bi  Bi1  1  0.28083100  0.28083100  0.28083100  1
  Bi  Bi2  1  0.00000000  0.71916900  0.00000000  1
  Bi  Bi3  1  0.00000000  0.00000000  0.71916900  1
  O  O0  1  0.75514200  0.24913800  0.24913800  1
  O  O1  1  0.75086200  0.50600400  0.00000000  1
  O  O2  1  0.75086200  0.00000000  0.50600400  1
  O  O3  1  0.23007300  0.00000000  0.00000000  1
  O  O4  1  0.00000000  0.23007300  0.00000000  1
  O  O5  1  0.00000000  0.00000000  0.23007300  1
  O  O6  1  0.50600400  0.75086200  0.00000000  1
  O  O7  1  0.49399600  0.24485800  0.49399600  1
  O  O8  1  0.50600400  0.00000000  0.75086200  1
  O  O9  1  0.49399600  0.49399600  0.24485800  1
  O  O10  1  0.24485800  0.49399600  0.49399600  1
  O  O11  1  0.24913800  0.75514200  0.24913800  1
  O  O12  1  0.24913800  0.24913800  0.75514200  1
  O  O13  1  0.76992700  0.76992700  0.76992700  1
  O  O14  1  0.00000000  0.75086200  0.50600400  1
  O  O15  1  0.00000000  0.50600400  0.75086200  1
loop_
_geom_bond_atom_site_label_1
_geom_bond_atom_site_label_2
_geom_bond_distance
_geom_bond_site_symmetry_2
Li0 O1 2.010456 1_555
Li0 O12 2.146209 1_554
Li0 O9 2.146209 1_555
Li0 O0 2.298423 1_555
Li0 O8 2.298423 1_554
Li0 O3 2.526553 1_555
Li1 O2 2.010456 1_555
Li1 O11 2.146209 1_545
Li1 O7 2.146209 1_555
Li1 O0 2.298423 1_555
Li1 O6 2.298423 1_545
Li1 O3 2.526553 1_555
Li2 O0 2.010456 1_555
Li2 O14 2.146209 1_655
Li2 O15 2.146209 1_655
Li2 O7 2.298423 1_555
Li2 O9 2.298423 1_555
Li2 O13 2.526553 1_555
Li3 O7 2.010456 1_555
Li3 O2 2.146209 1_555
Li3 O8 2.146209 1_555
Li3 O15 2.298423 1_655
Li3 O1 2.298423 1_556
Li3 O4 2.526553 1_656
Li4 O9 2.010456 1_555
Li4 O1 2.146209 1_555
Li4 O6 2.146209 1_555
Li4 O14 2.298423 1_655
Li4 O2 2.298423 1_565
Li4 O5 2.526553 1_665
Li5 O6 2.010456 1_555
Li5 O9 2.146209 1_555
Li5 O12 2.146209 1_554
Li5 O11 2.298423 1_555
Li5 O15 2.298423 1_554
Li5 O4 2.526553 1_555
Li6 O8 2.010456 1_555
Li6 O7 2.146209 1_555
Li6 O11 2.146209 1_545
Li6 O12 2.298423 1_555
Li6 O14 2.298423 1_545
Li6 O5 2.526553 1_555
Li7 O12 2.010456 1_555
Li7 O6 2.146209 1_556
Li7 O1 2.146209 1_556
Li7 O7 2.298423 1_555
Li7 O10 2.298423 1_555
Li7 O13 2.526553 1_555
Li8 O11 2.010456 1_555
Li8 O8 2.146209 1_565
Li8 O2 2.146209 1_565
Li8 O10 2.298423 1_555
Li8 O9 2.298423 1_555
Li8 O13 2.526553 1_555
Li9 O14 2.010456 1_555
Li9 O10 2.146209 1_555
Li9 O0 2.146209 1_455
Li9 O11 2.298423 1_555
Li9 O1 2.298423 1_455
Li9 O4 2.526553 1_555
Li10 O15 2.010456 1_555
Li10 O0 2.146209 1_455
Li10 O10 2.146209 1_555
Li10 O12 2.298423 1_555
Li10 O2 2.298423 1_455
Li10 O5 2.526553 1_555
Li11 O10 2.010456 1_555
Li11 O14 2.146209 1_555
Li11 O15 2.146209 1_555
Li11 O6 2.298423 1_556
Li11 O8 2.298423 1_565
Li11 O3 2.526553 1_566
Bi0 O0 2.054639 1_555
Bi0 O8 2.054639 1_554
Bi0 O6 2.054639 1_545
Bi0 O5 2.279184 1_655
Bi0 O4 2.279184 1_655
Bi0 O13 2.279184 1_544
Bi1 O9 2.054639 1_555
Bi1 O10 2.054639 1_555
Bi1 O7 2.054639 1_555
Bi1 O4 2.279184 1_555
Bi1 O5 2.279184 1_555
Bi1 O3 2.279184 1_555
Bi2 O11 2.054639 1_555
Bi2 O1 2.054639 1_455
Bi2 O15 2.054639 1_554
Bi2 O5 2.279184 1_565
Bi2 O3 2.279184 1_565
Bi2 O13 2.279184 1_454
Bi3 O12 2.054639 1_555
Bi3 O14 2.054639 1_545
Bi3 O2 2.054639 1_455
Bi3 O3 2.279184 1_556
Bi3 O4 2.279184 1_556
Bi3 O13 2.279184 1_445
