# generated using pymatgen
data_BaTa6O16
_symmetry_space_group_name_H-M   'P 1'
_cell_length_a   9.16286245
_cell_length_b   9.16286245
_cell_length_c   3.88763848
_cell_angle_alpha   90.00000000
_cell_angle_beta   90.00000000
_cell_angle_gamma   111.65667377
_symmetry_Int_Tables_number   1
_chemical_formula_structural   BaTa6O16
_chemical_formula_sum   'Ba1 Ta6 O16'
_cell_volume   303.35868739
_cell_formula_units_Z   1
loop_
 _symmetry_equiv_pos_site_id
 _symmetry_equiv_pos_as_xyz
  1  'x, y, z'
loop_
 _atom_site_type_symbol
 _atom_site_label
 _atom_site_symmetry_multiplicity
 _atom_site_fract_x
 _atom_site_fract_y
 _atom_site_fract_z
 _atom_site_occupancy
  Ba  Ba0  1  0.60092441  0.39907559  0.50000000  1
  Ta  Ta0  1  0.00850740  0.99149260  -0.00000000  1
  Ta  Ta1  1  0.37097104  0.99909223  -0.00000000  1
  Ta  Ta2  1  0.79552478  0.20447522  -0.00000000  1
  Ta  Ta3  1  0.24833974  0.37980375  0.00000000  1
  Ta  Ta4  1  0.00090777  0.62902896  0.00000000  1
  Ta  Ta5  1  0.62019625  0.75166026  -0.00000000  1
  O  O0  1  0.56941909  0.17640266  0.00000000  1
  O  O1  1  0.24694321  0.15022475  -0.00000000  1
  O  O2  1  0.01814026  0.22704009  0.00000000  1
  O  O3  1  0.82359734  0.43058091  0.00000000  1
  O  O4  1  0.47790719  0.52209281  -0.00000000  1
  O  O5  1  0.16169187  0.53773313  -0.00000000  1
  O  O6  1  0.84977525  0.75305679  0.00000000  1
  O  O7  1  0.46226687  0.83830813  0.00000000  1
  O  O8  1  0.14350015  0.85649985  -0.00000000  1
  O  O9  1  0.77295991  0.98185974  -0.00000000  1
  O  O10  1  0.27526108  0.37096860  0.50000000  1
  O  O11  1  0.37247050  0.00893591  0.50000000  1
  O  O12  1  0.00364409  0.99635591  0.50000000  1
  O  O13  1  0.78695332  0.21304668  0.50000000  1
  O  O14  1  0.99106409  0.62752950  0.50000000  1
  O  O15  1  0.62903140  0.72473892  0.50000000  1
loop_
_geom_bond_atom_site_label_1
_geom_bond_atom_site_label_2
_geom_bond_distance
_geom_bond_site_symmetry_2
Ba0 O4 2.693943 1_555
Ba0 O4 2.693943 1_556
Ba0 O0 2.754986 1_555
Ba0 O0 2.754986 1_556
Ba0 O3 2.754986 1_556
Ba0 O3 2.754986 1_555
Ba0 O13 2.820560 1_555
Ba0 O10 2.898864 1_555
Ba0 O15 2.898864 1_555
O0 Ta1 1.940485 1_545
O0 Ta2 1.991251 1_555
O1 Ta1 2.090642 1_545
O1 Ta3 2.098912 1_555
O1 Ta0 2.131479 1_545
O2 Ta2 1.972873 1_455
O2 Ta3 2.056503 1_555
O2 Ta0 2.127298 1_545
O3 Ta4 1.940485 1_655
O3 Ta2 1.991251 1_555
O4 Ta5 2.024926 1_555
O4 Ta3 2.024926 1_555
O5 Ta3 1.890077 1_555
O5 Ta4 1.944186 1_555
O6 Ta4 2.090642 1_655
O6 Ta5 2.098912 1_555
O6 Ta0 2.131479 1_655
O7 Ta5 1.890077 1_555
O7 Ta1 1.944186 1_555
O8 Ta1 2.010309 1_555
O8 Ta4 2.010309 1_555
O8 Ta0 2.046752 1_555
O9 Ta2 1.972873 1_565
O9 Ta5 2.056503 1_555
O9 Ta0 2.127298 1_655
O10 Ta3 1.964835 1_555
O10 Ta3 1.964835 1_556
O11 Ta1 1.945724 1_545
O11 Ta1 1.945724 1_546
O12 Ta0 1.945217 1_555
O12 Ta0 1.945217 1_556
O13 Ta2 1.948159 1_556
O13 Ta2 1.948159 1_555
O14 Ta4 1.945724 1_655
O14 Ta4 1.945724 1_656
O15 Ta5 1.964835 1_555
O15 Ta5 1.964835 1_556
