# generated using pymatgen
data_YbMn2O5
_symmetry_space_group_name_H-M   'P 1'
_cell_length_a   5.84617800
_cell_length_b   7.06021300
_cell_length_c   8.46225900
_cell_angle_alpha   90.00000000
_cell_angle_beta   90.00000000
_cell_angle_gamma   90.00000000
_symmetry_Int_Tables_number   1
_chemical_formula_structural   YbMn2O5
_chemical_formula_sum   'Yb4 Mn8 O20'
_cell_volume   349.28195663
_cell_formula_units_Z   4
loop_
 _symmetry_equiv_pos_site_id
 _symmetry_equiv_pos_as_xyz
  1  'x, y, z'
loop_
 _atom_site_type_symbol
 _atom_site_label
 _atom_site_symmetry_multiplicity
 _atom_site_fract_x
 _atom_site_fract_y
 _atom_site_fract_z
 _atom_site_occupancy
  Yb  Yb0  1  0.00000000  0.37276500  0.67005100  1
  Yb  Yb1  1  0.00000000  0.62723500  0.32994900  1
  Yb  Yb2  1  0.00000000  0.12723500  0.17005100  1
  Yb  Yb3  1  0.00000000  0.87276500  0.82994900  1
  Mn  Mn0  1  0.75429100  0.00000000  0.50000000  1
  Mn  Mn1  1  0.75429100  0.50000000  0.00000000  1
  Mn  Mn2  1  0.50000000  0.59109300  0.65267300  1
  Mn  Mn3  1  0.24570900  0.00000000  0.50000000  1
  Mn  Mn4  1  0.50000000  0.90890700  0.15267300  1
  Mn  Mn5  1  0.24570900  0.50000000  0.00000000  1
  Mn  Mn6  1  0.50000000  0.09109300  0.84732700  1
  Mn  Mn7  1  0.50000000  0.40890700  0.34732700  1
  O  O0  1  0.24753000  0.38894000  0.20637100  1
  O  O1  1  0.28738200  0.50000000  0.50000000  1
  O  O2  1  0.50000000  0.65336600  0.08726500  1
  O  O3  1  0.00000000  0.16503000  0.44457500  1
  O  O4  1  0.00000000  0.33497000  0.94457500  1
  O  O5  1  0.75247000  0.38894000  0.20637100  1
  O  O6  1  0.71261800  0.00000000  0.00000000  1
  O  O7  1  0.24753000  0.61106000  0.79362900  1
  O  O8  1  0.00000000  0.83497000  0.55542500  1
  O  O9  1  0.71261800  0.50000000  0.50000000  1
  O  O10  1  0.75247000  0.61106000  0.79362900  1
  O  O11  1  0.28738200  0.00000000  0.00000000  1
  O  O12  1  0.75247000  0.88894000  0.29362900  1
  O  O13  1  0.24753000  0.88894000  0.29362900  1
  O  O14  1  0.50000000  0.34663400  0.91273500  1
  O  O15  1  0.75247000  0.11106000  0.70637100  1
  O  O16  1  0.00000000  0.66503000  0.05542500  1
  O  O17  1  0.24753000  0.11106000  0.70637100  1
  O  O18  1  0.50000000  0.84663400  0.58726500  1
  O  O19  1  0.50000000  0.15336600  0.41273500  1
loop_
_geom_bond_atom_site_label_1
_geom_bond_atom_site_label_2
_geom_bond_distance
_geom_bond_site_symmetry_2
Mn0 O8 1.908130 1_645
Mn0 O3 1.908130 1_655
Mn0 O15 1.914348 1_555
Mn0 O12 1.914348 1_545
Mn0 O19 1.981878 1_555
Mn0 O18 1.981878 1_545
Mn1 O4 1.908130 1_654
Mn1 O16 1.908130 1_655
Mn1 O10 1.914348 1_554
Mn1 O5 1.914348 1_555
Mn1 O2 1.981878 1_555
Mn1 O14 1.981878 1_554
Mn2 O18 1.887169 1_555
Mn2 O7 1.902942 1_555
Mn2 O10 1.902942 1_555
Mn2 O9 1.904688 1_555
Mn2 O1 1.904688 1_555
Mn3 O8 1.908130 1_545
Mn3 O3 1.908130 1_555
Mn3 O17 1.914348 1_555
Mn3 O13 1.914348 1_545
Mn3 O19 1.981878 1_555
Mn3 O18 1.981878 1_545
Mn4 O2 1.887169 1_555
Mn4 O12 1.902942 1_555
Mn4 O13 1.902942 1_555
Mn4 O11 1.904688 1_565
Mn4 O6 1.904688 1_565
Mn5 O4 1.908130 1_554
Mn5 O16 1.908130 1_555
Mn5 O7 1.914348 1_554
Mn5 O0 1.914348 1_555
Mn5 O2 1.981878 1_555
Mn5 O14 1.981878 1_554
Mn6 O14 1.887169 1_555
Mn6 O15 1.902942 1_555
Mn6 O17 1.902942 1_555
Mn6 O11 1.904688 1_556
Mn6 O6 1.904688 1_556
Mn7 O19 1.887169 1_555
Mn7 O5 1.902942 1_555
Mn7 O0 1.902942 1_555
Mn7 O1 1.904688 1_555
Mn7 O9 1.904688 1_555
O0 Yb2 2.366969 1_555
O0 Yb1 2.453206 1_555
O1 Yb0 2.387553 1_555
O1 Yb1 2.387553 1_555
O3 Yb2 2.338368 1_555
O3 Yb0 2.406590 1_555
O4 Yb0 2.338368 1_555
O4 Yb2 2.406590 1_556
O5 Yb2 2.366969 1_655
O5 Yb1 2.453206 1_655
O6 Yb3 2.387553 1_644
O6 Yb2 2.387553 1_655
O7 Yb3 2.366969 1_555
O7 Yb0 2.453206 1_555
O8 Yb3 2.338368 1_555
O8 Yb1 2.406590 1_555
O9 Yb0 2.387553 1_655
O9 Yb1 2.387553 1_655
O10 Yb3 2.366969 1_655
O10 Yb0 2.453206 1_655
O11 Yb3 2.387553 1_544
O11 Yb2 2.387553 1_555
O12 Yb1 2.366969 1_655
O12 Yb2 2.453206 1_665
O13 Yb1 2.366969 1_555
O13 Yb2 2.453206 1_565
O15 Yb0 2.366969 1_655
O15 Yb3 2.453206 1_645
O16 Yb1 2.338368 1_555
O16 Yb3 2.406590 1_554
O17 Yb0 2.366969 1_555
O17 Yb3 2.453206 1_545
