# generated using pymatgen
data_LiBiP2O7
_symmetry_space_group_name_H-M   'P 1'
_cell_length_a   5.61448300
_cell_length_b   8.90941600
_cell_length_c   14.11230608
_cell_angle_alpha   59.75628627
_cell_angle_beta   90.00000000
_cell_angle_gamma   90.00000000
_symmetry_Int_Tables_number   1
_chemical_formula_structural   LiBiP2O7
_chemical_formula_sum   'Li4 Bi4 P8 O28'
_cell_volume   609.83989380
_cell_formula_units_Z   4
loop_
 _symmetry_equiv_pos_site_id
 _symmetry_equiv_pos_as_xyz
  1  'x, y, z'
loop_
 _atom_site_type_symbol
 _atom_site_label
 _atom_site_symmetry_multiplicity
 _atom_site_fract_x
 _atom_site_fract_y
 _atom_site_fract_z
 _atom_site_occupancy
  Li  Li0  1  0.21768400  0.24591500  0.98893300  1
  Li  Li1  1  0.71768400  0.75408500  0.51106700  1
  Li  Li2  1  0.28231600  0.24591500  0.48893300  1
  Li  Li3  1  0.78231600  0.75408500  0.01106700  1
  Bi  Bi0  1  0.30223300  0.48061000  0.66557600  1
  Bi  Bi1  1  0.80223300  0.51939000  0.83442400  1
  Bi  Bi2  1  0.19776700  0.48061000  0.16557600  1
  Bi  Bi3  1  0.69776700  0.51939000  0.33442400  1
  P  P0  1  0.74847700  0.17338400  0.84281400  1
  P  P1  1  0.20127800  0.67243300  0.39022400  1
  P  P2  1  0.24847700  0.82661600  0.65718600  1
  P  P3  1  0.29872200  0.67243300  0.89022400  1
  P  P4  1  0.70127800  0.32756700  0.10977600  1
  P  P5  1  0.75152300  0.17338400  0.34281400  1
  P  P6  1  0.79872200  0.32756700  0.60977600  1
  P  P7  1  0.25152300  0.82661600  0.15718600  1
  O  O0  1  0.97823400  0.28309600  0.83081200  1
  O  O1  1  0.53975000  0.29466500  0.84017000  1
  O  O2  1  0.70940600  0.48936200  0.61436300  1
  O  O3  1  0.93053600  0.67370400  0.40241300  1
  O  O4  1  0.27791300  0.83350900  0.27145600  1
  O  O5  1  0.33621500  0.69475400  0.47693500  1
  O  O6  1  0.25493600  0.00836900  0.06601000  1
  O  O7  1  0.20940600  0.51063800  0.88563700  1
  O  O8  1  0.03975000  0.70533500  0.65983000  1
  O  O9  1  0.47823400  0.71690400  0.66918800  1
  O  O10  1  0.75493600  0.99163100  0.43399000  1
  O  O11  1  0.56946400  0.67370400  0.90241300  1
  O  O12  1  0.83621500  0.30524600  0.02306500  1
  O  O13  1  0.77791300  0.16649100  0.22854400  1
  O  O14  1  0.22208700  0.83350900  0.77145600  1
  O  O15  1  0.16378500  0.69475400  0.97693500  1
  O  O16  1  0.43053600  0.32629600  0.09758700  1
  O  O17  1  0.24506400  0.00836900  0.56601000  1
  O  O18  1  0.52176600  0.28309600  0.33081200  1
  O  O19  1  0.96025000  0.29466500  0.34017000  1
  O  O20  1  0.79059400  0.48936200  0.11436300  1
  O  O21  1  0.74506400  0.99163100  0.93399000  1
  O  O22  1  0.66378500  0.30524600  0.52306500  1
  O  O23  1  0.72208700  0.16649100  0.72854400  1
  O  O24  1  0.06946400  0.32629600  0.59758700  1
  O  O25  1  0.29059400  0.51063800  0.38563700  1
  O  O26  1  0.46025000  0.70533500  0.15983000  1
  O  O27  1  0.02176600  0.71690400  0.16918800  1
loop_
_geom_bond_atom_site_label_1
_geom_bond_atom_site_label_2
_geom_bond_distance
_geom_bond_site_symmetry_2
Li0 O6 1.840388 1_556
Li0 O7 2.055821 1_555
Li0 O12 2.314094 1_456
Li0 O16 2.323446 1_556
Li0 O0 2.480294 1_455
Li0 O1 2.635763 1_555
Li1 O10 1.840388 1_555
Li1 O2 2.055821 1_555
Li1 O5 2.314094 1_555
Li1 O3 2.323446 1_555
Li1 O9 2.480294 1_555
Li1 O8 2.635763 1_655
Li2 O17 1.840388 1_555
Li2 O25 2.055821 1_555
Li2 O22 2.314094 1_555
Li2 O24 2.323446 1_555
Li2 O18 2.480294 1_555
Li2 O19 2.635763 1_455
Li3 O21 1.840388 1_554
Li3 O20 2.055821 1_555
Li3 O15 2.314094 1_654
Li3 O11 2.323446 1_554
Li3 O27 2.480294 1_655
Li3 O26 2.635763 1_555
Bi0 O9 2.349296 1_555
Bi0 O5 2.376356 1_555
Bi0 O2 2.386996 1_555
Bi0 O24 2.418179 1_555
Bi0 O8 2.454285 1_555
Bi0 O1 2.545946 1_555
Bi0 O0 2.776629 1_455
Bi1 O0 2.349296 1_555
Bi1 O12 2.376356 1_556
Bi1 O7 2.386996 1_655
Bi1 O11 2.418179 1_555
Bi1 O1 2.454285 1_555
Bi1 O8 2.545946 1_655
Bi1 O9 2.776629 1_555
Bi2 O27 2.349296 1_555
Bi2 O15 2.376356 1_554
Bi2 O20 2.386996 1_455
Bi2 O16 2.418179 1_555
Bi2 O26 2.454285 1_555
Bi2 O19 2.545946 1_455
Bi2 O18 2.776629 1_555
Bi3 O18 2.349296 1_555
Bi3 O22 2.376356 1_555
Bi3 O25 2.386996 1_555
Bi3 O3 2.418179 1_555
Bi3 O19 2.454285 1_555
Bi3 O26 2.545946 1_555
Bi3 O27 2.776629 1_655
O0 P0 1.575237 1_555
O1 P0 1.581672 1_555
O2 P6 1.558068 1_555
O3 P1 1.530461 1_655
O4 P1 1.621991 1_555
O4 P7 1.651063 1_555
O5 P1 1.534951 1_555
O6 P7 1.476225 1_545
O7 P3 1.558068 1_555
O8 P2 1.581672 1_555
O9 P2 1.575237 1_555
O10 P5 1.476225 1_565
O11 P3 1.530461 1_555
O12 P4 1.534951 1_555
O13 P4 1.621991 1_555
O13 P5 1.651063 1_555
O14 P3 1.621991 1_555
O14 P2 1.651063 1_555
O15 P3 1.534951 1_555
O16 P4 1.530461 1_555
O17 P2 1.476225 1_545
O18 P5 1.575237 1_555
O19 P5 1.581672 1_555
O20 P4 1.558068 1_555
O21 P0 1.476225 1_565
O22 P6 1.534951 1_555
O23 P6 1.621991 1_555
O23 P0 1.651063 1_555
O24 P6 1.530461 1_455
O25 P1 1.558068 1_555
O26 P7 1.581672 1_555
O27 P7 1.575237 1_555
