# generated using pymatgen
data_Li7MnP4O14F
_symmetry_space_group_name_H-M   'P 1'
_cell_length_a   6.39248243
_cell_length_b   6.39248243
_cell_length_c   14.67585400
_cell_angle_alpha   83.81733500
_cell_angle_beta   83.81733500
_cell_angle_gamma   78.92428945
_symmetry_Int_Tables_number   1
_chemical_formula_structural   Li7MnP4O14F
_chemical_formula_sum   'Li14 Mn2 P8 O28 F2'
_cell_volume   582.78697543
_cell_formula_units_Z   2
loop_
 _symmetry_equiv_pos_site_id
 _symmetry_equiv_pos_as_xyz
  1  'x, y, z'
loop_
 _atom_site_type_symbol
 _atom_site_label
 _atom_site_symmetry_multiplicity
 _atom_site_fract_x
 _atom_site_fract_y
 _atom_site_fract_z
 _atom_site_occupancy
  Li  Li0  1  0.98810500  0.39439900  0.82400200  1
  Li  Li1  1  0.36665300  0.82547600  0.83499200  1
  Li  Li2  1  0.39439900  0.98810500  0.32400200  1
  Li  Li3  1  0.82547600  0.36665300  0.33499200  1
  Li  Li4  1  0.10421900  0.94914500  0.49366800  1
  Li  Li5  1  0.47670600  0.32616600  0.82097600  1
  Li  Li6  1  0.94914500  0.10421900  0.99366800  1
  Li  Li7  1  0.12217200  0.58144600  0.97398500  1
  Li  Li8  1  0.32616600  0.47670600  0.32097600  1
  Li  Li9  1  0.58144600  0.12217200  0.47398500  1
  Li  Li10  1  0.47416000  0.03637700  0.98621600  1
  Li  Li11  1  0.03637700  0.47416000  0.48621600  1
  Li  Li12  1  0.30247100  0.13307600  0.65938200  1
  Li  Li13  1  0.13307600  0.30247100  0.15938200  1
  Mn  Mn0  1  0.72075300  0.72083100  0.65704400  1
  Mn  Mn1  1  0.72083100  0.72075300  0.15704400  1
  P  P0  1  0.86213100  0.91347100  0.83139500  1
  P  P1  1  0.91347100  0.86213100  0.33139500  1
  P  P2  1  0.61983900  0.52930700  0.98174800  1
  P  P3  1  0.52930700  0.61983900  0.48174800  1
  P  P4  1  0.83965600  0.19109000  0.65625300  1
  P  P5  1  0.19109000  0.83965600  0.15625300  1
  P  P6  1  0.25090000  0.61940700  0.65464400  1
  P  P7  1  0.61940700  0.25090000  0.15464400  1
  O  O0  1  0.70496100  0.79174200  0.79787900  1
  O  O1  1  0.79174200  0.70496100  0.29787900  1
  O  O2  1  0.85489800  0.42035700  0.96062000  1
  O  O3  1  0.74391000  0.61324900  0.51887600  1
  O  O4  1  0.42035700  0.85489800  0.46062000  1
  O  O5  1  0.61324900  0.74391000  0.01887600  1
  O  O6  1  0.37259300  0.78438600  0.68368900  1
  O  O7  1  0.73814500  0.38817700  0.70815900  1
  O  O8  1  0.45803600  0.53743900  0.91102200  1
  O  O9  1  0.96403200  0.03747800  0.73797500  1
  O  O10  1  0.78438600  0.37259300  0.18368900  1
  O  O11  1  0.38817700  0.73814500  0.20815900  1
  O  O12  1  0.53743900  0.45803600  0.41102200  1
  O  O13  1  0.03747800  0.96403200  0.23797500  1
  O  O14  1  0.05997300  0.76993800  0.86795800  1
  O  O15  1  0.75248300  0.08559000  0.89388900  1
  O  O16  1  0.38645600  0.50769400  0.56649800  1
  O  O17  1  0.04414400  0.72712500  0.61296400  1
  O  O18  1  0.76993800  0.05997300  0.36795800  1
  O  O19  1  0.66798000  0.08534200  0.62106900  1
  O  O20  1  0.08559000  0.75248300  0.39388900  1
  O  O21  1  0.50769400  0.38645600  0.06649800  1
  O  O22  1  0.23522200  0.42797500  0.72608100  1
  O  O23  1  0.72712500  0.04414400  0.11296400  1
  O  O24  1  0.08534200  0.66798000  0.12106900  1
  O  O25  1  0.42797500  0.23522200  0.22608100  1
  O  O26  1  0.02856100  0.21106100  0.58372500  1
  O  O27  1  0.21106100  0.02856100  0.08372500  1
  F  F0  1  0.29174600  0.12642200  0.88272400  1
  F  F1  1  0.12642200  0.29174600  0.38272400  1
loop_
_geom_bond_atom_site_label_1
_geom_bond_atom_site_label_2
_geom_bond_distance
_geom_bond_site_symmetry_2
Li0 O22 2.044878 1_655
Li0 O2 2.102908 1_555
Li0 O7 2.463573 1_555
Li1 O14 2.056594 1_555
Li1 O8 2.064256 1_555
Li1 O0 2.147679 1_555
Li1 O6 2.259358 1_555
Li2 O25 2.044878 1_565
Li2 O4 2.102908 1_555
Li2 O11 2.463573 1_555
Li3 O18 2.056594 1_555
Li3 O12 2.064256 1_555
Li3 O1 2.147679 1_555
Li3 O10 2.259358 1_555
Li4 O4 2.016505 1_555
Li4 O20 2.056826 1_555
Li4 O17 2.180904 1_555
Li4 O26 2.193582 1_565
Li5 O8 1.968033 1_555
Li5 O22 2.151248 1_555
Li5 O7 2.282244 1_555
Li5 O15 2.372368 1_555
Li6 O2 2.016505 1_555
Li6 O15 2.056826 1_555
Li6 O23 2.180904 1_556
Li6 O27 2.193582 1_656
Li7 O14 1.891175 1_555
Li7 O2 2.193095 1_455
Li7 O8 2.222434 1_555
Li7 O24 2.262432 1_556
Li8 O12 1.968033 1_555
Li8 O25 2.151248 1_555
Li8 O11 2.282244 1_555
Li8 O20 2.372368 1_555
Li9 O18 1.891175 1_555
Li9 O4 2.193095 1_545
Li9 O12 2.222434 1_555
Li9 O19 2.262432 1_555
Li10 O5 1.943129 1_546
Li10 O27 2.092235 1_556
Li10 O15 2.168954 1_555
Li11 O3 1.943129 1_455
Li11 O26 2.092235 1_555
Li11 O20 2.168954 1_555
Li12 O26 2.124005 1_555
Li12 O22 2.166146 1_555
Li12 O6 2.185380 1_545
Li12 O19 2.312702 1_555
Li12 O9 2.490594 1_455
Li13 O27 2.124005 1_555
Li13 O25 2.166146 1_555
Li13 O10 2.185380 1_455
Li13 O24 2.312702 1_555
Li13 O13 2.490594 1_545
Mn0 O17 2.105235 1_655
Mn0 O0 2.151028 1_555
Mn0 O7 2.163461 1_555
Mn0 O6 2.184181 1_555
Mn0 O3 2.191614 1_555
Mn0 O19 2.300743 1_565
Mn1 O23 2.105235 1_565
Mn1 O1 2.151028 1_555
Mn1 O11 2.163461 1_555
Mn1 O10 2.184181 1_555
Mn1 O5 2.191614 1_555
Mn1 O24 2.300743 1_655
O0 P0 1.531721 1_555
O1 P1 1.531721 1_555
O2 P2 1.543735 1_555
O3 P3 1.521347 1_555
O4 P3 1.543735 1_555
O5 P2 1.521347 1_554
O6 P6 1.543555 1_555
O7 P4 1.541036 1_555
O8 P2 1.532600 1_555
O9 P4 1.639073 1_555
O9 P0 1.644487 1_545
O10 P7 1.543555 1_555
O11 P5 1.541036 1_555
O12 P3 1.532600 1_555
O13 P5 1.639073 1_555
O13 P1 1.644487 1_455
O14 P0 1.524320 1_455
O15 P0 1.525004 1_545
O16 P6 1.629136 1_555
O16 P3 1.646090 1_555
O17 P6 1.526076 1_555
O18 P1 1.524320 1_545
O19 P4 1.552491 1_555
O20 P1 1.525004 1_455
O21 P7 1.629136 1_555
O21 P2 1.646090 1_554
O22 P6 1.534547 1_555
O23 P7 1.526076 1_555
O24 P5 1.552491 1_555
O25 P7 1.534547 1_555
O26 P4 1.536424 1_455
O27 P5 1.536424 1_545
F0 Li10 1.983232 1_555
F0 Li5 1.987350 1_555
F0 Li1 2.070041 1_545
F0 Li0 2.491897 1_455
F1 Li11 1.983232 1_555
F1 Li8 1.987350 1_555
F1 Li3 2.070041 1_455
F1 Li2 2.491897 1_545
