# generated using pymatgen
data_Ga3NO3
_symmetry_space_group_name_H-M   'P 1'
_cell_length_a   6.14190700
_cell_length_b   8.38395857
_cell_length_c   8.39764564
_cell_angle_alpha   119.33922409
_cell_angle_beta   90.30137299
_cell_angle_gamma   90.29158655
_symmetry_Int_Tables_number   1
_chemical_formula_structural   Ga3NO3
_chemical_formula_sum   'Ga12 N4 O12'
_cell_volume   376.93902805
_cell_formula_units_Z   4
loop_
 _symmetry_equiv_pos_site_id
 _symmetry_equiv_pos_as_xyz
  1  'x, y, z'
loop_
 _atom_site_type_symbol
 _atom_site_label
 _atom_site_symmetry_multiplicity
 _atom_site_fract_x
 _atom_site_fract_y
 _atom_site_fract_z
 _atom_site_occupancy
  Ga  Ga0  1  0.54915800  0.83475700  0.74487100  1
  Ga  Ga1  1  0.85516600  0.93081900  0.49723500  1
  Ga  Ga2  1  0.53495000  0.91745700  0.17367200  1
  Ga  Ga3  1  0.84375500  0.50461500  0.41847100  1
  Ga  Ga4  1  0.84125000  0.56825100  0.07845500  1
  Ga  Ga5  1  0.04921100  0.75054300  0.82718500  1
  Ga  Ga6  1  0.34682400  0.48752200  0.91814400  1
  Ga  Ga7  1  0.54891900  0.25874500  0.08810200  1
  Ga  Ga8  1  0.03056500  0.17208800  0.91240800  1
  Ga  Ga9  1  0.32870200  0.41752100  0.50685500  1
  Ga  Ga10  1  0.33050600  0.07220000  0.56531500  1
  Ga  Ga11  1  0.05375900  0.09087000  0.25791800  1
  N  N0  1  0.79477500  0.32523100  0.00923100  1
  N  N1  1  0.06277700  0.34638200  0.38937300  1
  N  N2  1  0.08195500  0.02702000  0.66413800  1
  N  N3  1  0.29758000  0.99848400  0.31853800  1
  O  O0  1  0.57564500  0.95564000  0.61060500  1
  O  O1  1  0.79943000  0.68467400  0.67804700  1
  O  O2  1  0.80154800  0.98463500  0.30398200  1
  O  O3  1  0.54184700  0.99982900  0.99649900  1
  O  O4  1  0.03916700  0.99582500  0.99894200  1
  O  O5  1  0.87251100  0.67608600  0.33465800  1
  O  O6  1  0.56059600  0.39469500  0.35016600  1
  O  O7  1  0.57516100  0.65841300  0.03058800  1
  O  O8  1  0.07450100  0.61195700  0.95174100  1
  O  O9  1  0.31082900  0.67617900  0.69288300  1
  O  O10  1  0.29479700  0.32620700  0.00928500  1
  O  O11  1  0.40746600  0.33335400  0.67268900  1
loop_
_geom_bond_atom_site_label_1
_geom_bond_atom_site_label_2
_geom_bond_distance
_geom_bond_site_symmetry_2
Ga0 O0 1.856062 1_555
Ga0 O9 1.872315 1_555
Ga0 O3 1.875712 1_555
Ga0 O1 1.896793 1_555
Ga1 N2 1.848088 1_665
Ga1 O5 1.892858 1_555
Ga1 O2 1.912896 1_555
Ga1 O0 1.929701 1_555
Ga2 N3 1.812678 1_555
Ga2 O2 1.887759 1_555
Ga2 O7 1.916464 1_555
Ga2 O3 1.923450 1_554
Ga3 N1 1.825699 1_655
Ga3 O5 1.893030 1_555
Ga3 O6 1.912608 1_555
Ga3 O1 1.972402 1_555
Ga4 N0 1.844545 1_555
Ga4 O5 1.889689 1_555
Ga4 O7 1.925443 1_555
Ga4 O8 1.926586 1_654
Ga5 O4 1.846261 1_555
Ga5 O1 1.876286 1_455
Ga5 O9 1.892828 1_555
Ga5 O8 1.912929 1_555
Ga6 O11 1.860172 1_555
Ga6 O10 1.878724 1_556
Ga6 O7 1.884417 1_556
Ga6 O8 1.923487 1_555
Ga7 N0 1.842096 1_555
Ga7 O10 1.886540 1_555
Ga7 O3 1.915218 1_544
Ga7 O6 1.920119 1_555
Ga8 N0 1.848022 1_456
Ga8 N2 1.857831 1_555
Ga8 O4 1.940990 1_545
Ga8 O10 1.974802 1_556
Ga9 N1 1.842059 1_555
Ga9 O6 1.890047 1_555
Ga9 O11 1.905451 1_555
Ga9 O9 1.959494 1_555
Ga10 N3 1.859217 1_545
Ga10 N2 1.864969 1_555
Ga10 O0 1.933832 1_545
Ga10 O11 1.969948 1_555
Ga11 N1 1.868545 1_555
Ga11 N3 1.868652 1_545
Ga11 O4 1.916163 1_544
Ga11 O2 1.916350 1_445
