# generated using pymatgen
data_LiFe2(BO3)2
_symmetry_space_group_name_H-M   'P 1'
_cell_length_a   5.20982000
_cell_length_b   9.08865225
_cell_length_c   10.21663069
_cell_angle_alpha   88.87542442
_cell_angle_beta   89.06481516
_cell_angle_gamma   89.64216431
_symmetry_Int_Tables_number   1
_chemical_formula_structural   LiFe2(BO3)2
_chemical_formula_sum   'Li4 Fe8 B8 O24'
_cell_volume   483.59383964
_cell_formula_units_Z   4
loop_
 _symmetry_equiv_pos_site_id
 _symmetry_equiv_pos_as_xyz
  1  'x, y, z'
loop_
 _atom_site_type_symbol
 _atom_site_label
 _atom_site_symmetry_multiplicity
 _atom_site_fract_x
 _atom_site_fract_y
 _atom_site_fract_z
 _atom_site_occupancy
  Li  Li0  1  0.14702100  0.17293600  0.66248100  1
  Li  Li1  1  0.18526500  0.16544500  0.16604900  1
  Li  Li2  1  0.32700100  0.33320500  0.40823500  1
  Li  Li3  1  0.33412900  0.32357600  0.91630300  1
  Fe  Fe0  1  0.16266200  0.82979100  0.63178400  1
  Fe  Fe1  1  0.18366900  0.50863700  0.13167100  1
  Fe  Fe2  1  0.31642500  0.98801600  0.87971400  1
  Fe  Fe3  1  0.33555000  0.67118100  0.37447700  1
  Fe  Fe4  1  0.66007900  0.34950500  0.62826900  1
  Fe  Fe5  1  0.67026800  0.99584000  0.12656100  1
  Fe  Fe6  1  0.83007000  0.15007900  0.38628600  1
  Fe  Fe7  1  0.83455200  0.50425400  0.88020100  1
  B  B0  1  0.15472200  0.49920300  0.62259800  1
  B  B1  1  0.16184900  0.83924600  0.13465100  1
  B  B2  1  0.34304900  0.99806500  0.37651100  1
  B  B3  1  0.33871500  0.65905600  0.87164100  1
  B  B4  1  0.66845700  0.00259000  0.63301200  1
  B  B5  1  0.67855100  0.32345100  0.11998400  1
  B  B6  1  0.82787900  0.49600200  0.37495400  1
  B  B7  1  0.82148900  0.17469100  0.88119600  1
  O  O0  1  0.09610900  0.49698100  0.34536000  1
  O  O1  1  0.08574500  0.17105300  0.86380000  1
  O  O2  1  0.20756300  0.78223200  0.82426900  1
  O  O3  1  0.23526500  0.87108200  0.43186100  1
  O  O4  1  0.21039600  0.13036400  0.37010900  1
  O  O5  1  0.19927300  0.53538800  0.91709800  1
  O  O6  1  0.28079200  0.36611000  0.60563100  1
  O  O7  1  0.30221800  0.96470400  0.09275000  1
  O  O8  1  0.26120600  0.62995800  0.57398100  1
  O  O9  1  0.29196200  0.71615100  0.18220600  1
  O  O10  1  0.41219200  0.32480500  0.11736900  1
  O  O11  1  0.40097500  0.00233700  0.66204200  1
  O  O12  1  0.58783500  0.99183300  0.32294200  1
  O  O13  1  0.59626400  0.65642200  0.87791800  1
  O  O14  1  0.68412300  0.30398900  0.84573800  1
  O  O15  1  0.71337000  0.36386500  0.41526100  1
  O  O16  1  0.68446600  0.62044300  0.36684100  1
  O  O17  1  0.68206600  0.05745200  0.93183000  1
  O  O18  1  0.82108500  0.44226300  0.07535600  1
  O  O19  1  0.81198100  0.87786100  0.63768800  1
  O  O20  1  0.78562800  0.13601300  0.59722500  1
  O  O21  1  0.81075800  0.19643500  0.16363500  1
  O  O22  1  0.90498400  0.84191600  0.12563800  1
  O  O23  1  0.91876900  0.50200100  0.68535800  1
loop_
_geom_bond_atom_site_label_1
_geom_bond_atom_site_label_2
_geom_bond_distance
_geom_bond_site_symmetry_2
Li0 O6 1.966607 1_555
Li0 O11 2.032005 1_555
Li0 O20 2.039523 1_455
Li0 O1 2.076028 1_555
Li1 O10 1.927888 1_555
Li1 O21 1.970081 1_455
Li1 O7 2.070164 1_545
Li1 O4 2.108912 1_555
Li2 O4 1.992323 1_555
Li2 O0 2.010122 1_555
Li2 O15 2.036450 1_555
Li2 O6 2.054626 1_555
Li3 O14 1.958142 1_555
Li3 O1 1.989507 1_555
Li3 O5 2.045279 1_555
Li3 O10 2.100848 1_556
Fe0 O19 1.876127 1_455
Fe0 O8 1.982804 1_555
Fe0 O2 2.022191 1_555
Fe0 O11 2.037699 1_565
Fe0 O3 2.098175 1_555
Fe1 O9 2.050115 1_555
Fe1 O10 2.051676 1_555
Fe1 O18 2.080044 1_455
Fe1 O5 2.201142 1_554
Fe1 O0 2.223649 1_555
Fe2 O2 2.050824 1_555
Fe2 O1 2.051580 1_565
Fe2 O17 2.090888 1_565
Fe2 O7 2.182751 1_556
Fe2 O11 2.261408 1_565
Fe3 O16 1.873341 1_555
Fe3 O3 1.984317 1_555
Fe3 O9 2.014751 1_555
Fe3 O0 2.050985 1_555
Fe3 O8 2.095460 1_555
Fe4 O6 1.997682 1_555
Fe4 O23 2.039174 1_555
Fe4 O20 2.072422 1_555
Fe4 O15 2.190810 1_555
Fe4 O14 2.257339 1_555
Fe5 O22 1.852367 1_555
Fe5 O7 1.976954 1_555
Fe5 O21 2.013912 1_565
Fe5 O12 2.044606 1_555
Fe5 O17 2.056245 1_564
Fe6 O4 1.992869 1_655
Fe6 O12 2.041047 1_545
Fe6 O15 2.057809 1_555
Fe6 O20 2.165090 1_555
Fe6 O21 2.308984 1_555
Fe7 O13 1.852738 1_555
Fe7 O5 1.966457 1_655
Fe7 O14 2.025600 1_555
Fe7 O23 2.031883 1_555
Fe7 O18 2.061440 1_556
B0 O23 1.377465 1_455
B0 O6 1.385369 1_555
B0 O8 1.393846 1_555
B1 O22 1.342919 1_455
B1 O9 1.388213 1_555
B1 O7 1.413947 1_555
B2 O12 1.380811 1_555
B2 O4 1.384094 1_565
B2 O3 1.392541 1_555
B3 O13 1.344402 1_555
B3 O2 1.390816 1_555
B3 O5 1.409062 1_555
B4 O19 1.354597 1_545
B4 O20 1.400485 1_555
B4 O11 1.420009 1_555
B5 O18 1.380218 1_555
B5 O10 1.388349 1_555
B5 O21 1.409196 1_555
B6 O16 1.353537 1_555
B6 O15 1.396162 1_555
B6 O0 1.424978 1_655
B7 O17 1.380714 1_555
B7 O1 1.385543 1_655
B7 O14 1.416193 1_555
