# generated using pymatgen
data_Li4CrCo5O12
_symmetry_space_group_name_H-M   'P 1'
_cell_length_a   4.92884667
_cell_length_b   4.92884667
_cell_length_c   9.91782300
_cell_angle_alpha   89.77769612
_cell_angle_beta   89.77769612
_cell_angle_gamma   119.82078582
_symmetry_Int_Tables_number   1
_chemical_formula_structural   Li4CrCo5O12
_chemical_formula_sum   'Li4 Cr1 Co5 O12'
_cell_volume   209.02876275
_cell_formula_units_Z   1
loop_
 _symmetry_equiv_pos_site_id
 _symmetry_equiv_pos_as_xyz
  1  'x, y, z'
loop_
 _atom_site_type_symbol
 _atom_site_label
 _atom_site_symmetry_multiplicity
 _atom_site_fract_x
 _atom_site_fract_y
 _atom_site_fract_z
 _atom_site_occupancy
  Li  Li0  1  0.34528900  0.83472500  0.74807200  1
  Li  Li1  1  0.16527500  0.65471100  0.25192800  1
  Li  Li2  1  0.83472500  0.34528900  0.74807200  1
  Li  Li3  1  0.65471100  0.16527500  0.25192800  1
  Cr  Cr0  1  0.00000000  0.00000000  0.00000000  1
  Co  Co0  1  0.16396400  0.83603600  0.50000000  1
  Co  Co1  1  0.66578600  0.33421400  0.00000000  1
  Co  Co2  1  0.33421400  0.66578600  0.00000000  1
  Co  Co3  1  0.83603600  0.16396400  0.50000000  1
  Co  Co4  1  0.50000000  0.50000000  0.50000000  1
  O  O0  1  0.33782300  0.99432500  0.10584200  1
  O  O1  1  0.00567500  0.66217700  0.89415800  1
  O  O2  1  0.49714400  0.83376200  0.39970700  1
  O  O3  1  0.83376200  0.49714400  0.39970700  1
  O  O4  1  0.16623800  0.50285600  0.60029300  1
  O  O5  1  0.82613700  0.82613700  0.59815000  1
  O  O6  1  0.50285600  0.16623800  0.60029300  1
  O  O7  1  0.99432500  0.33782300  0.10584200  1
  O  O8  1  0.66597400  0.66597400  0.09944100  1
  O  O9  1  0.66217700  0.00567500  0.89415800  1
  O  O10  1  0.33402600  0.33402600  0.90055900  1
  O  O11  1  0.17386300  0.17386300  0.40185000  1
loop_
_geom_bond_atom_site_label_1
_geom_bond_atom_site_label_2
_geom_bond_distance
_geom_bond_site_symmetry_2
Li0 O9 1.991678 1_565
Li0 O6 2.032639 1_565
Li0 O1 2.044547 1_555
Li0 O4 2.048287 1_555
Li1 O7 1.991678 1_455
Li1 O3 2.032639 1_455
Li1 O0 2.044547 1_555
Li1 O2 2.048287 1_555
Li2 O1 1.991678 1_655
Li2 O4 2.032639 1_655
Li2 O9 2.044547 1_555
Li2 O6 2.048287 1_555
Li3 O0 1.991678 1_545
Li3 O2 2.032639 1_545
Li3 O7 2.044547 1_555
Li3 O3 2.048287 1_555
Cr0 O10 1.916422 1_554
Cr0 O8 1.916422 1_445
Cr0 O1 1.983643 1_544
Cr0 O9 1.983643 1_454
Cr0 O0 1.983643 1_545
Cr0 O7 1.983643 1_455
Co0 O5 1.904930 1_455
Co0 O11 1.904930 1_565
Co0 O4 1.921470 1_555
Co0 O2 1.921470 1_555
Co0 O6 1.936479 1_565
Co0 O3 1.936479 1_455
Co1 O8 1.912470 1_555
Co1 O10 1.912470 1_554
Co1 O7 1.925905 1_555
Co1 O9 1.925905 1_554
Co1 O0 1.949684 1_545
Co1 O1 1.949684 1_654
Co2 O8 1.912470 1_555
Co2 O10 1.912470 1_554
Co2 O1 1.925905 1_554
Co2 O0 1.925905 1_555
Co2 O9 1.949684 1_564
Co2 O7 1.949684 1_455
Co3 O5 1.904930 1_545
Co3 O11 1.904930 1_655
Co3 O6 1.921470 1_555
Co3 O3 1.921470 1_555
Co3 O4 1.936479 1_655
Co3 O2 1.936479 1_545
Co4 O5 1.889407 1_555
Co4 O11 1.889407 1_555
Co4 O6 1.925168 1_555
Co4 O4 1.925168 1_555
Co4 O2 1.925168 1_555
Co4 O3 1.925168 1_555
