# generated using pymatgen
data_LiV2O2F3
_symmetry_space_group_name_H-M   'P 1'
_cell_length_a   3.85706600
_cell_length_b   5.38902031
_cell_length_c   10.14447400
_cell_angle_alpha   89.99972915
_cell_angle_beta   90.00003180
_cell_angle_gamma   110.97200212
_symmetry_Int_Tables_number   1
_chemical_formula_structural   LiV2O2F3
_chemical_formula_sum   'Li2 V4 O4 F6'
_cell_volume   196.89267807
_cell_formula_units_Z   2
loop_
 _symmetry_equiv_pos_site_id
 _symmetry_equiv_pos_as_xyz
  1  'x, y, z'
loop_
 _atom_site_type_symbol
 _atom_site_label
 _atom_site_symmetry_multiplicity
 _atom_site_fract_x
 _atom_site_fract_y
 _atom_site_fract_z
 _atom_site_occupancy
  Li  Li0  1  0.19405000  0.38794700  0.25000500  1
  Li  Li1  1  0.80593600  0.61202700  0.75000300  1
  V  V0  1  0.14862300  0.29724800  0.55769000  1
  V  V1  1  0.14861700  0.29723600  0.94231500  1
  V  V2  1  0.85137600  0.70275200  0.05770300  1
  V  V3  1  0.85138500  0.70276800  0.44230000  1
  O  O0  1  0.31327000  0.62656600  0.44059900  1
  O  O1  1  0.31327800  0.62658400  0.05938200  1
  O  O2  1  0.68671600  0.37340700  0.94060200  1
  O  O3  1  0.68673200  0.37343600  0.55938900  1
  F  F0  1  0.04658300  0.09312600  0.11758800  1
  F  F1  1  0.04659300  0.09312100  0.38243000  1
  F  F2  1  0.23001100  0.46010500  0.74999900  1
  F  F3  1  0.76999300  0.53990000  0.24998200  1
  F  F4  1  0.95342200  0.90689300  0.61758300  1
  F  F5  1  0.95341500  0.90688000  0.88243100  1
loop_
_geom_bond_atom_site_label_1
_geom_bond_atom_site_label_2
_geom_bond_distance
_geom_bond_site_symmetry_2
Li0 O0 2.275988 1_555
Li0 O1 2.276276 1_555
Li1 O2 2.276024 1_555
Li1 O3 2.276086 1_555
O0 V3 1.966327 1_455
O0 V3 1.966393 1_555
O0 V0 2.038876 1_555
O1 V2 1.966291 1_455
O1 V2 1.966358 1_555
O1 V1 2.038866 1_554
O2 V1 1.966299 1_655
O2 V1 1.966362 1_555
O2 V2 2.039055 1_556
O3 V0 1.966309 1_655
O3 V0 1.966383 1_555
O3 V3 2.038922 1_555
F0 Li0 2.001347 1_555
F0 V1 2.053378 1_554
F0 V2 2.056169 1_445
F1 Li0 2.001410 1_555
F1 V0 2.053315 1_555
F1 V3 2.056017 1_445
F2 Li1 2.074361 1_555
F2 Li1 2.074693 1_455
F2 V0 2.116012 1_555
F2 V1 2.116093 1_555
F3 Li0 2.074428 1_555
F3 Li0 2.074741 1_655
F3 V2 2.115714 1_555
F3 V3 2.116117 1_555
F4 Li1 2.001525 1_555
F4 V3 2.053512 1_555
F4 V0 2.056096 1_665
F5 Li1 2.001541 1_555
F5 V2 2.053414 1_556
F5 V1 2.056079 1_665
