# generated using pymatgen
data_LiFeF3
_symmetry_space_group_name_H-M   'P 1'
_cell_length_a   8.81401832
_cell_length_b   8.81401832
_cell_length_c   8.81401805
_cell_angle_alpha   111.75792083
_cell_angle_beta   111.75792083
_cell_angle_gamma   111.75792295
_symmetry_Int_Tables_number   1
_chemical_formula_structural   LiFeF3
_chemical_formula_sum   'Li6 Fe6 F18'
_cell_volume   477.30698273
_cell_formula_units_Z   6
loop_
 _symmetry_equiv_pos_site_id
 _symmetry_equiv_pos_as_xyz
  1  'x, y, z'
loop_
 _atom_site_type_symbol
 _atom_site_label
 _atom_site_symmetry_multiplicity
 _atom_site_fract_x
 _atom_site_fract_y
 _atom_site_fract_z
 _atom_site_occupancy
  Li  Li0  1  0.91447200  0.05721400  0.72179400  1
  Li  Li1  1  0.94278600  0.27820600  0.08552800  1
  Li  Li2  1  0.27820600  0.08552800  0.94278600  1
  Li  Li3  1  0.72179400  0.91447200  0.05721400  1
  Li  Li4  1  0.05721400  0.72179400  0.91447200  1
  Li  Li5  1  0.08552800  0.94278600  0.27820600  1
  Fe  Fe0  1  0.98980300  0.30469900  0.47960600  1
  Fe  Fe1  1  0.52039400  0.01019700  0.69530100  1
  Fe  Fe2  1  0.69530100  0.52039400  0.01019700  1
  Fe  Fe3  1  0.30469900  0.47960600  0.98980300  1
  Fe  Fe4  1  0.47960600  0.98980300  0.30469900  1
  Fe  Fe5  1  0.01019700  0.69530100  0.52039400  1
  F  F0  1  0.98809400  0.88290600  0.71179300  1
  F  F1  1  0.68075900  0.08664700  0.24535400  1
  F  F2  1  0.11709400  0.28820700  0.01190600  1
  F  F3  1  0.65797400  0.99837500  0.54057300  1
  F  F4  1  0.00162500  0.45942700  0.34202600  1
  F  F5  1  0.75464600  0.31924100  0.91335300  1
  F  F6  1  0.91335300  0.75464600  0.31924100  1
  F  F7  1  0.28820700  0.01190600  0.11709400  1
  F  F8  1  0.45942700  0.34202600  0.00162500  1
  F  F9  1  0.54057300  0.65797400  0.99837500  1
  F  F10  1  0.71179300  0.98809400  0.88290600  1
  F  F11  1  0.08664700  0.24535400  0.68075900  1
  F  F12  1  0.24535400  0.68075900  0.08664700  1
  F  F13  1  0.99837500  0.54057300  0.65797400  1
  F  F14  1  0.34202600  0.00162500  0.45942700  1
  F  F15  1  0.88290600  0.71179300  0.98809400  1
  F  F16  1  0.31924100  0.91335300  0.75464600  1
  F  F17  1  0.01190600  0.11709400  0.28820700  1
loop_
_geom_bond_atom_site_label_1
_geom_bond_atom_site_label_2
_geom_bond_distance
_geom_bond_site_symmetry_2
F0 Li0 1.862886 1_565
F0 Li2 1.982993 1_665
F0 Fe5 2.008119 1_655
F1 Fe4 2.010519 1_545
F1 Li3 2.041945 1_545
F1 Fe0 2.093769 1_555
F2 Li1 1.862886 1_455
F2 Li0 1.982993 1_454
F2 Fe3 2.008119 1_554
F3 Li0 1.941872 1_565
F3 Fe4 2.042522 1_555
F3 Fe1 2.134383 1_565
F4 Li1 1.941872 1_455
F4 Fe5 2.042522 1_555
F4 Fe0 2.134383 1_455
F5 Fe2 2.010519 1_556
F5 Li1 2.041945 1_556
F5 Fe1 2.093769 1_555
F6 Fe5 2.010519 1_655
F6 Li5 2.041945 1_655
F6 Fe2 2.093769 1_555
F7 Li2 1.862886 1_554
F7 Li4 1.982993 1_544
F7 Fe4 2.008119 1_545
F8 Li2 1.941872 1_554
F8 Fe2 2.042522 1_555
F8 Fe3 2.134383 1_554
F9 Li3 1.941872 1_556
F9 Fe3 2.042522 1_555
F9 Fe2 2.134383 1_556
F10 Li3 1.862886 1_556
F10 Li1 1.982993 1_566
F10 Fe1 2.008119 1_565
F11 Fe0 2.010519 1_455
F11 Li0 2.041945 1_455
F11 Fe3 2.093769 1_555
F12 Fe3 2.010519 1_554
F12 Li4 2.041945 1_554
F12 Fe4 2.093769 1_555
F13 Li4 1.941872 1_655
F13 Fe0 2.042522 1_555
F13 Fe5 2.134383 1_655
F14 Li5 1.941872 1_545
F14 Fe1 2.042522 1_555
F14 Fe4 2.134383 1_545
F15 Li4 1.862886 1_655
F15 Li5 1.982993 1_656
F15 Fe2 2.008119 1_556
F16 Fe1 2.010519 1_565
F16 Li2 2.041945 1_565
F16 Fe5 2.093769 1_555
F17 Li5 1.862886 1_545
F17 Li3 1.982993 1_445
F17 Fe0 2.008119 1_455
