# generated using pymatgen
data_RbCuO
_symmetry_space_group_name_H-M   'P 1'
_cell_length_a   5.82166558
_cell_length_b   7.30504362
_cell_length_c   7.30505961
_cell_angle_alpha   80.87771515
_cell_angle_beta   66.53875046
_cell_angle_gamma   66.53871473
_symmetry_Int_Tables_number   1
_chemical_formula_structural   RbCuO
_chemical_formula_sum   'Rb4 Cu4 O4'
_cell_volume   261.42341256
_cell_formula_units_Z   4
loop_
 _symmetry_equiv_pos_site_id
 _symmetry_equiv_pos_as_xyz
  1  'x, y, z'
loop_
 _atom_site_type_symbol
 _atom_site_label
 _atom_site_symmetry_multiplicity
 _atom_site_fract_x
 _atom_site_fract_y
 _atom_site_fract_z
 _atom_site_occupancy
  Rb  Rb0  1  0.24883904  0.80455535  0.19545194  1
  Rb  Rb1  1  0.24883699  0.19545339  0.80455665  1
  Rb  Rb2  1  0.55577441  0.19541695  0.19541516  1
  Rb  Rb3  1  0.94659300  0.80457148  0.80457291  1
  Cu  Cu0  1  0.88579452  0.49979408  0.22804412  1
  Cu  Cu1  1  0.61421910  0.50020503  0.77194947  1
  Cu  Cu2  1  0.88579392  0.22804309  0.49979496  1
  Cu  Cu3  1  0.61421986  0.77195065  0.50020451  1
  O  O0  1  0.74714269  0.22816515  0.77183236  1
  O  O1  1  0.74714292  0.77183180  0.22816586  1
  O  O2  1  0.48069388  0.77216035  0.77215949  1
  O  O3  1  0.02495067  0.22785167  0.22785256  1
loop_
_geom_bond_atom_site_label_1
_geom_bond_atom_site_label_2
_geom_bond_distance
_geom_bond_site_symmetry_2
Cu0 O3 1.822418 1_655
Cu0 O1 1.823028 1_555
Cu1 O2 1.822464 1_555
Cu1 O0 1.823061 1_555
Cu2 O3 1.822422 1_655
Cu2 O0 1.823030 1_555
Cu3 O2 1.822466 1_555
Cu3 O1 1.823057 1_555
O0 Rb2 2.847042 1_556
O0 Rb3 2.847118 1_545
O0 Rb1 2.917455 1_555
O0 Rb1 2.937144 1_655
O1 Rb2 2.847052 1_565
O1 Rb3 2.847120 1_554
O1 Rb0 2.917454 1_555
O1 Rb0 2.937147 1_655
O2 Rb1 2.844952 1_565
O2 Rb0 2.844954 1_556
O2 Rb3 2.917060 1_555
O2 Rb3 2.936932 1_455
O3 Rb0 2.844955 1_545
O3 Rb1 2.844958 1_554
O3 Rb2 2.917845 1_555
O3 Rb2 2.936194 1_455
