# generated using pymatgen
data_Li3Sb
_symmetry_space_group_name_H-M   'P 1'
_cell_length_a   4.67231893
_cell_length_b   4.67231786
_cell_length_c   8.30315915
_cell_angle_alpha   90.00000000
_cell_angle_beta   90.00000000
_cell_angle_gamma   119.99999336
_symmetry_Int_Tables_number   1
_chemical_formula_structural   Li3Sb
_chemical_formula_sum   'Li6 Sb2'
_cell_volume   156.97803305
_cell_formula_units_Z   2
loop_
 _symmetry_equiv_pos_site_id
 _symmetry_equiv_pos_as_xyz
  1  'x, y, z'
loop_
 _atom_site_type_symbol
 _atom_site_label
 _atom_site_symmetry_multiplicity
 _atom_site_fract_x
 _atom_site_fract_y
 _atom_site_fract_z
 _atom_site_occupancy
  Li  Li0  1  0.33333300  0.66666700  0.91263067  1
  Li  Li1  1  0.66666700  0.33333300  0.41263067  1
  Li  Li2  1  -0.00000000  -0.00000000  0.25000000  1
  Li  Li3  1  -0.00000000  -0.00000000  0.75000000  1
  Li  Li4  1  0.33333300  0.66666700  0.58736933  1
  Li  Li5  1  0.66666700  0.33333300  0.08736933  1
  Sb  Sb0  1  0.66666700  0.33333300  0.75000000  1
  Sb  Sb1  1  0.33333300  0.66666700  0.25000000  1
loop_
_geom_bond_atom_site_label_1
_geom_bond_atom_site_label_2
_geom_bond_distance
_geom_bond_site_symmetry_2
Li0 Li4 2.700697 1_555
Li0 Sb1 2.801231 1_556
Li0 Sb0 3.016667 1_565
Li0 Li3 3.016667 1_565
Li0 Sb0 3.016667 1_455
Li0 Li3 3.016670 1_555
Li0 Li3 3.016671 1_665
Li0 Sb0 3.016674 1_555
Li0 Li5 3.062989 1_566
Li0 Li5 3.062989 1_456
Li0 Li5 3.062996 1_556
Li1 Li5 2.700697 1_555
Li1 Sb0 2.801231 1_555
Li1 Sb1 3.016667 1_545
Li1 Li2 3.016667 1_655
Li1 Sb1 3.016667 1_655
Li1 Li2 3.016670 1_665
Li1 Li2 3.016671 1_555
Li1 Sb1 3.016674 1_555
Li1 Li4 3.062989 1_545
Li1 Li4 3.062989 1_655
Li1 Li4 3.062996 1_555
Li2 Sb1 2.697561 1_545
Li2 Sb1 2.697566 1_555
Li2 Sb1 2.697566 1_445
Li2 Li5 3.016667 1_455
Li2 Li5 3.016670 1_445
Li2 Li5 3.016671 1_555
Li3 Sb0 2.697561 1_455
Li3 Sb0 2.697566 1_445
Li3 Sb0 2.697566 1_555
Li3 Li4 3.016667 1_545
Li3 Li4 3.016670 1_555
Li3 Li4 3.016671 1_445
Li4 Sb1 2.801231 1_555
Li4 Sb0 3.016667 1_565
Li4 Sb0 3.016667 1_455
Li4 Sb0 3.016674 1_555
Li5 Sb0 2.801231 1_554
Li5 Sb1 3.016667 1_545
Li5 Sb1 3.016667 1_655
Li5 Sb1 3.016674 1_555
