# generated using pymatgen
data_CuH12N2(Cl2O)2
_symmetry_space_group_name_H-M   'P 1'
_cell_length_a   7.63911100
_cell_length_b   7.63911100
_cell_length_c   7.95921500
_cell_angle_alpha   90.00000000
_cell_angle_beta   90.00000000
_cell_angle_gamma   90.00000000
_symmetry_Int_Tables_number   1
_chemical_formula_structural   CuH12N2(Cl2O)2
_chemical_formula_sum   'Cu2 H24 N4 Cl8 O4'
_cell_volume   464.46808481
_cell_formula_units_Z   2
loop_
 _symmetry_equiv_pos_site_id
 _symmetry_equiv_pos_as_xyz
  1  'x, y, z'
loop_
 _atom_site_type_symbol
 _atom_site_label
 _atom_site_symmetry_multiplicity
 _atom_site_fract_x
 _atom_site_fract_y
 _atom_site_fract_z
 _atom_site_occupancy
  Cu  Cu0  1  0.50000000  0.50000000  0.50000000  1
  Cu  Cu1  1  0.00000000  0.00000000  0.00000000  1
  H  H0  1  0.42503700  0.57496300  0.17627400  1
  H  H1  1  0.57496300  0.42503700  0.17627400  1
  H  H2  1  0.07496300  0.07496300  0.67627400  1
  H  H3  1  0.92503700  0.92503700  0.67627400  1
  H  H4  1  0.57496300  0.42503700  0.82372600  1
  H  H5  1  0.42503700  0.57496300  0.82372600  1
  H  H6  1  0.92503700  0.92503700  0.32372600  1
  H  H7  1  0.07496300  0.07496300  0.32372600  1
  H  H8  1  0.08579400  0.57025400  0.32463100  1
  H  H9  1  0.91420600  0.42974600  0.32463100  1
  H  H10  1  0.41420600  0.07025400  0.82463100  1
  H  H11  1  0.58579400  0.92974600  0.82463100  1
  H  H12  1  0.91420600  0.42974600  0.67536900  1
  H  H13  1  0.08579400  0.57025400  0.67536900  1
  H  H14  1  0.58579400  0.92974600  0.17536900  1
  H  H15  1  0.41420600  0.07025400  0.17536900  1
  H  H16  1  0.57025400  0.08579400  0.32463100  1
  H  H17  1  0.42974600  0.91420600  0.32463100  1
  H  H18  1  0.07025400  0.41420600  0.82463100  1
  H  H19  1  0.92974600  0.58579400  0.82463100  1
  H  H20  1  0.42974600  0.91420600  0.67536900  1
  H  H21  1  0.57025400  0.08579400  0.67536900  1
  H  H22  1  0.92974600  0.58579400  0.17536900  1
  H  H23  1  0.07025400  0.41420600  0.17536900  1
  N  N0  1  0.00000000  0.50000000  0.25000000  1
  N  N1  1  0.50000000  0.00000000  0.75000000  1
  N  N2  1  0.00000000  0.50000000  0.75000000  1
  N  N3  1  0.50000000  0.00000000  0.25000000  1
  Cl  Cl0  1  0.28882100  0.71117900  0.50000000  1
  Cl  Cl1  1  0.71117900  0.28882100  0.50000000  1
  Cl  Cl2  1  0.21117900  0.21117900  0.00000000  1
  Cl  Cl3  1  0.78882100  0.78882100  0.00000000  1
  Cl  Cl4  1  0.28335400  0.71664600  0.00000000  1
  Cl  Cl5  1  0.71664600  0.28335400  0.00000000  1
  Cl  Cl6  1  0.21664600  0.21664600  0.50000000  1
  Cl  Cl7  1  0.78335400  0.78335400  0.50000000  1
  O  O0  1  0.50000000  0.50000000  0.24983800  1
  O  O1  1  0.00000000  0.00000000  0.74983800  1
  O  O2  1  0.50000000  0.50000000  0.75016200  1
  O  O3  1  0.00000000  0.00000000  0.25016200  1
loop_
_geom_bond_atom_site_label_1
_geom_bond_atom_site_label_2
_geom_bond_distance
_geom_bond_site_symmetry_2
Cu0 O2 1.991093 1_555
Cu0 O0 1.991093 1_555
Cu1 O3 1.991093 1_555
Cu1 O1 1.991093 1_554
H0 O0 0.999341 1_555
H1 O0 0.999341 1_555
H2 O1 0.999341 1_555
H3 O1 0.999341 1_665
H4 O2 0.999341 1_555
H5 O2 0.999341 1_555
H6 O3 0.999341 1_665
H7 O3 0.999341 1_555
H8 N0 1.034601 1_555
H9 N0 1.034601 1_655
H10 N1 1.034601 1_555
H11 N1 1.034601 1_565
H12 N2 1.034601 1_655
H13 N2 1.034601 1_555
H14 N3 1.034601 1_565
H15 N3 1.034601 1_555
H16 N3 1.034601 1_555
H17 N3 1.034601 1_565
H18 N2 1.034601 1_555
H19 N2 1.034601 1_655
H20 N1 1.034601 1_565
H21 N1 1.034601 1_555
H22 N0 1.034601 1_655
H23 N0 1.034601 1_555
Cl0 Cu0 2.281437 1_555
Cl1 Cu0 2.281437 1_555
Cl2 Cu1 2.281437 1_555
Cl3 Cu1 2.281437 1_665
