# generated using pymatgen
data_Na4Cr2As(CO4)4
_symmetry_space_group_name_H-M   'P 1'
_cell_length_a   9.96208527
_cell_length_b   9.82297641
_cell_length_c   9.96208552
_cell_angle_alpha   60.75998702
_cell_angle_beta   92.10341891
_cell_angle_gamma   60.75998078
_symmetry_Int_Tables_number   1
_chemical_formula_structural   Na4Cr2As(CO4)4
_chemical_formula_sum   'Na8 Cr4 As2 C8 O32'
_cell_volume   692.03850648
_cell_formula_units_Z   2
loop_
 _symmetry_equiv_pos_site_id
 _symmetry_equiv_pos_as_xyz
  1  'x, y, z'
loop_
 _atom_site_type_symbol
 _atom_site_label
 _atom_site_symmetry_multiplicity
 _atom_site_fract_x
 _atom_site_fract_y
 _atom_site_fract_z
 _atom_site_occupancy
  Na  Na0  1  0.08855100  0.82289700  0.83855100  1
  Na  Na1  1  0.08844600  0.25000000  0.83844600  1
  Na  Na2  1  0.33844600  0.75000000  0.58844600  1
  Na  Na3  1  0.33855100  0.32289700  0.58855100  1
  Na  Na4  1  0.66144900  0.67710300  0.41144900  1
  Na  Na5  1  0.66155400  0.25000000  0.41155400  1
  Na  Na6  1  0.91155400  0.75000000  0.16155400  1
  Na  Na7  1  0.91144900  0.17710300  0.16144900  1
  Cr  Cr0  1  0.00000000  0.50000000  0.00000000  1
  Cr  Cr1  1  0.50000000  0.00000000  0.50000000  1
  Cr  Cr2  1  0.50000000  0.50000000  0.00000000  1
  Cr  Cr3  1  0.50000000  0.00000000  0.00000000  1
  As  As0  1  0.12500000  0.75000000  0.37500000  1
  As  As1  1  0.87500000  0.25000000  0.62500000  1
  C  C0  1  0.36504200  0.92420500  0.78298900  1
  C  C1  1  0.28298900  0.42420500  0.86504200  1
  C  C2  1  0.71075300  0.92420500  0.79280600  1
  C  C3  1  0.70719400  0.57579500  0.78924700  1
  C  C4  1  0.29280600  0.42420500  0.21075300  1
  C  C5  1  0.28924700  0.07579500  0.20719400  1
  C  C6  1  0.71701100  0.57579500  0.13495800  1
  C  C7  1  0.63495800  0.07579500  0.21701100  1
  O  O0  1  0.35907800  0.78629200  0.89315700  1
  O  O1  1  0.06007800  0.89791200  0.43957200  1
  O  O2  1  0.36752900  0.95000400  0.64322300  1
  O  O3  1  0.14322300  0.45000400  0.86752900  1
  O  O4  1  0.68246600  0.95000400  0.90677300  1
  O  O5  1  0.30965600  0.54428300  0.85917100  1
  O  O6  1  0.04201000  0.89791200  0.16251600  1
  O  O7  1  0.06042800  0.60208800  0.43992200  1
  O  O8  1  0.40345400  0.95571700  0.35393900  1
  O  O9  1  0.59322700  0.54999600  0.81753400  1
  O  O10  1  0.39315700  0.28629200  0.85907800  1
  O  O11  1  0.33748400  0.60208800  0.45799000  1
  O  O12  1  0.85463000  0.78629200  0.82055000  1
  O  O13  1  0.67945000  0.71370800  0.64537000  1
  O  O14  1  0.35917100  0.04428300  0.80965600  1
  O  O15  1  0.14606100  0.54428300  0.09654600  1
  O  O16  1  0.85393900  0.45571700  0.90345400  1
  O  O17  1  0.64082900  0.95571700  0.19034400  1
  O  O18  1  0.32055000  0.28629200  0.35463000  1
  O  O19  1  0.14537000  0.21370800  0.17945000  1
  O  O20  1  0.66251600  0.39791200  0.54201000  1
  O  O21  1  0.60684300  0.71370800  0.14092200  1
  O  O22  1  0.40677300  0.45000400  0.18246600  1
  O  O23  1  0.59654600  0.04428300  0.64606100  1
  O  O24  1  0.93957200  0.39791200  0.56007800  1
  O  O25  1  0.95799000  0.10208800  0.83748400  1
  O  O26  1  0.69034400  0.45571700  0.14082900  1
  O  O27  1  0.31753400  0.04999600  0.09322700  1
  O  O28  1  0.85677700  0.54999600  0.13247100  1
  O  O29  1  0.63247100  0.04999600  0.35677700  1
  O  O30  1  0.93992200  0.10208800  0.56042800  1
  O  O31  1  0.64092200  0.21370800  0.10684300  1
loop_
_geom_bond_atom_site_label_1
_geom_bond_atom_site_label_2
_geom_bond_distance
_geom_bond_site_symmetry_2
Na0 O30 2.387208 1_465
Na0 O25 2.387213 1_465
Na0 O5 2.431542 1_555
Na0 O15 2.431543 1_556
Na0 O12 2.538277 1_455
Na0 O0 2.538287 1_555
Na1 O25 2.378552 1_455
Na1 O24 2.378552 1_455
Na1 O3 2.415233 1_555
Na1 O27 2.415238 1_556
Na1 O16 2.595797 1_455
Na1 O14 2.595797 1_555
Na2 O11 2.378552 1_555
Na2 O1 2.378552 1_555
Na2 O2 2.415233 1_555
Na2 O9 2.415238 1_555
Na2 O8 2.595797 1_555
Na2 O5 2.595797 1_555
Na3 O7 2.387207 1_555
Na3 O11 2.387213 1_555
Na3 O14 2.431542 1_555
Na3 O23 2.431543 1_555
Na3 O18 2.538278 1_555
Na3 O10 2.538287 1_555
Na4 O24 2.387207 1_555
Na4 O20 2.387213 1_555
Na4 O17 2.431542 1_555
Na4 O8 2.431543 1_555
Na4 O13 2.538278 1_555
Na4 O21 2.538287 1_555
Na5 O20 2.378552 1_555
Na5 O30 2.378552 1_555
Na5 O29 2.415233 1_555
Na5 O22 2.415238 1_555
Na5 O23 2.595797 1_555
Na5 O26 2.595797 1_555
Na6 O6 2.378552 1_655
Na6 O7 2.378552 1_655
Na6 O28 2.415233 1_555
Na6 O4 2.415238 1_554
Na6 O15 2.595797 1_655
Na6 O17 2.595797 1_555
Na7 O1 2.387208 1_645
Na7 O6 2.387213 1_645
Na7 O26 2.431542 1_555
Na7 O16 2.431543 1_554
Na7 O19 2.538277 1_655
Na7 O31 2.538287 1_555
Cr0 O3 2.026166 1_554
Cr0 O28 2.026166 1_455
Cr0 O19 2.030156 1_555
Cr0 O12 2.030156 1_454
Cr0 O15 2.038590 1_555
Cr0 O16 2.038590 1_454
Cr1 O29 2.026166 1_555
Cr1 O2 2.026166 1_545
Cr1 O13 2.030156 1_545
Cr1 O18 2.030156 1_555
Cr1 O8 2.038590 1_545
Cr1 O23 2.038590 1_555
Cr2 O22 2.026158 1_555
Cr2 O9 2.026158 1_554
Cr2 O0 2.030154 1_554
Cr2 O31 2.030154 1_555
Cr2 O26 2.038590 1_555
Cr2 O5 2.038590 1_554
Cr3 O4 2.026158 1_544
Cr3 O27 2.026158 1_555
Cr3 O21 2.030154 1_545
Cr3 O10 2.030154 1_554
Cr3 O14 2.038590 1_554
Cr3 O17 2.038590 1_545
As0 O1 1.722994 1_555
As0 O11 1.722994 1_555
As0 O7 1.722994 1_555
As0 O6 1.722995 1_555
As1 O30 1.722994 1_555
As1 O20 1.722994 1_555
As1 O24 1.722994 1_555
As1 O25 1.722995 1_555
C0 O2 1.291299 1_555
C0 O0 1.293909 1_555
C0 O14 1.305810 1_565
C1 O3 1.291299 1_555
C1 O10 1.293909 1_555
C1 O5 1.305810 1_555
C2 O4 1.291301 1_555
C2 O12 1.293913 1_555
C2 O23 1.305810 1_565
C3 O9 1.291301 1_555
C3 O13 1.293913 1_555
C3 O16 1.305810 1_555
C4 O22 1.291301 1_555
C4 O18 1.293913 1_555
C4 O15 1.305810 1_555
C5 O27 1.291301 1_555
C5 O19 1.293913 1_555
C5 O8 1.305810 1_545
C6 O28 1.291299 1_555
C6 O21 1.293909 1_555
C6 O26 1.305810 1_555
C7 O29 1.291299 1_555
C7 O31 1.293909 1_555
C7 O17 1.305810 1_545
