# generated using pymatgen
data_Co3BiO8
_symmetry_space_group_name_H-M   'P 1'
_cell_length_a   8.26491349
_cell_length_b   8.26491349
_cell_length_c   8.26491349
_cell_angle_alpha   90.00000000
_cell_angle_beta   90.00000000
_cell_angle_gamma   90.00000000
_symmetry_Int_Tables_number   1
_chemical_formula_structural   Co3BiO8
_chemical_formula_sum   'Co12 Bi4 O32'
_cell_volume   564.56628126
_cell_formula_units_Z   4
loop_
 _symmetry_equiv_pos_site_id
 _symmetry_equiv_pos_as_xyz
  1  'x, y, z'
loop_
 _atom_site_type_symbol
 _atom_site_label
 _atom_site_symmetry_multiplicity
 _atom_site_fract_x
 _atom_site_fract_y
 _atom_site_fract_z
 _atom_site_occupancy
  Co  Co0  1  0.10077294  0.14922706  0.62500000  1
  Co  Co1  1  0.12500000  0.39922706  0.85077294  1
  Co  Co2  1  0.14922706  0.62500000  0.10077294  1
  Co  Co3  1  0.35077294  0.37500000  0.60077294  1
  Co  Co4  1  0.37500000  0.60077294  0.35077294  1
  Co  Co5  1  0.39922706  0.85077294  0.12500000  1
  Co  Co6  1  0.60077294  0.35077294  0.37500000  1
  Co  Co7  1  0.62500000  0.10077294  0.14922706  1
  Co  Co8  1  0.64922706  0.87500000  0.89922706  1
  Co  Co9  1  0.85077294  0.12500000  0.39922706  1
  Co  Co10  1  0.87500000  0.89922706  0.64922706  1
  Co  Co11  1  0.89922706  0.64922706  0.87500000  1
  Bi  Bi0  1  0.12500000  0.87500000  0.37500000  1
  Bi  Bi1  1  0.37500000  0.12500000  0.87500000  1
  Bi  Bi2  1  0.62500000  0.62500000  0.62500000  1
  Bi  Bi3  1  0.87500000  0.37500000  0.12500000  1
  O  O0  1  0.07635118  0.13826308  0.39949506  1
  O  O1  1  0.10050494  0.92364882  0.63826308  1
  O  O2  1  0.12023133  0.62023133  0.87976867  1
  O  O3  1  0.11173692  0.17364882  0.85050494  1
  O  O4  1  0.13826308  0.39949506  0.07635118  1
  O  O5  1  0.12976867  0.37023133  0.62976867  1
  O  O6  1  0.14949506  0.61173692  0.32635118  1
  O  O7  1  0.17364882  0.85050494  0.11173692  1
  O  O8  1  0.32635118  0.14949506  0.61173692  1
  O  O9  1  0.35050494  0.38826308  0.82635118  1
  O  O10  1  0.37023133  0.62976867  0.12976867  1
  O  O11  1  0.36173692  0.60050494  0.57635118  1
  O  O12  1  0.38826308  0.82635118  0.35050494  1
  O  O13  1  0.37976867  0.37976867  0.37976867  1
  O  O14  1  0.39949506  0.07635118  0.13826308  1
  O  O15  1  0.42364882  0.86173692  0.89949506  1
  O  O16  1  0.57635118  0.36173692  0.60050494  1
  O  O17  1  0.60050494  0.57635118  0.36173692  1
  O  O18  1  0.62023133  0.87976867  0.12023133  1
  O  O19  1  0.61173692  0.32635118  0.14949506  1
  O  O20  1  0.63826308  0.10050494  0.92364882  1
  O  O21  1  0.62976867  0.12976867  0.37023133  1
  O  O22  1  0.64949506  0.88826308  0.67364882  1
  O  O23  1  0.67364882  0.64949506  0.88826308  1
  O  O24  1  0.82635118  0.35050494  0.38826308  1
  O  O25  1  0.85050494  0.11173692  0.17364882  1
  O  O26  1  0.87023133  0.87023133  0.87023133  1
  O  O27  1  0.86173692  0.89949506  0.42364882  1
  O  O28  1  0.88826308  0.67364882  0.64949506  1
  O  O29  1  0.87976867  0.12023133  0.62023133  1
  O  O30  1  0.89949506  0.42364882  0.86173692  1
  O  O31  1  0.92364882  0.63826308  0.10050494  1
loop_
_geom_bond_atom_site_label_1
_geom_bond_atom_site_label_2
_geom_bond_distance
_geom_bond_site_symmetry_2
Co0 O29 1.842656 1_455
Co0 O5 1.842656 1_555
Co0 O1 1.867606 1_545
Co0 O8 1.867606 1_555
Co0 O0 1.876865 1_555
Co0 O3 1.876865 1_555
Co1 O2 1.842656 1_555
Co1 O5 1.842656 1_555
Co1 O3 1.867606 1_555
Co1 O4 1.867606 1_556
Co1 O9 1.876865 1_555
Co1 O30 1.876865 1_455
Co2 O2 1.842656 1_554
Co2 O10 1.842656 1_555
Co2 O31 1.867606 1_455
Co2 O6 1.867606 1_555
Co2 O4 1.876865 1_555
Co2 O7 1.876865 1_555
Co3 O5 1.842656 1_555
Co3 O13 1.842656 1_555
Co3 O9 1.867606 1_555
Co3 O16 1.867606 1_555
Co3 O11 1.876865 1_555
Co3 O8 1.876865 1_555
Co4 O10 1.842656 1_555
Co4 O13 1.842656 1_555
Co4 O12 1.867606 1_555
Co4 O11 1.867606 1_555
Co4 O17 1.876865 1_555
Co4 O6 1.876865 1_555
Co5 O18 1.842656 1_555
Co5 O10 1.842656 1_555
Co5 O7 1.867606 1_555
Co5 O14 1.867606 1_565
Co5 O15 1.876865 1_554
Co5 O12 1.876865 1_555
Co6 O21 1.842656 1_555
Co6 O13 1.842656 1_555
Co6 O24 1.867606 1_555
Co6 O17 1.867606 1_555
Co6 O19 1.876865 1_555
Co6 O16 1.876865 1_555
Co7 O18 1.842656 1_545
Co7 O21 1.842656 1_555
Co7 O20 1.867606 1_554
Co7 O19 1.867606 1_555
Co7 O14 1.876865 1_555
Co7 O25 1.876865 1_555
Co8 O18 1.842656 1_556
Co8 O26 1.842656 1_555
Co8 O22 1.867606 1_555
Co8 O15 1.867606 1_555
Co8 O23 1.876865 1_555
Co8 O20 1.876865 1_565
Co9 O29 1.842656 1_555
Co9 O21 1.842656 1_555
Co9 O25 1.867606 1_555
Co9 O0 1.867606 1_655
Co9 O24 1.876865 1_555
Co9 O27 1.876865 1_545
Co10 O26 1.842656 1_555
Co10 O29 1.842656 1_565
Co10 O28 1.867606 1_555
Co10 O27 1.867606 1_555
Co10 O1 1.876865 1_655
Co10 O22 1.876865 1_555
Co11 O2 1.842656 1_655
Co11 O26 1.842656 1_555
Co11 O23 1.867606 1_555
Co11 O30 1.867606 1_555
Co11 O28 1.876865 1_555
Co11 O31 1.876865 1_556
Bi0 O7 2.221927 1_555
Bi0 O12 2.221927 1_555
Bi0 O0 2.221927 1_565
Bi0 O27 2.221927 1_455
Bi0 O1 2.221927 1_555
Bi0 O6 2.221927 1_555
Bi1 O9 2.221927 1_555
Bi1 O3 2.221927 1_555
Bi1 O20 2.221927 1_555
Bi1 O15 2.221927 1_545
Bi1 O14 2.221927 1_556
Bi1 O8 2.221927 1_555
Bi2 O16 2.221927 1_555
Bi2 O22 2.221927 1_555
Bi2 O23 2.221927 1_555
Bi2 O11 2.221927 1_555
Bi2 O28 2.221927 1_555
Bi2 O17 2.221927 1_555
Bi3 O31 2.221927 1_555
Bi3 O19 2.221927 1_555
Bi3 O25 2.221927 1_555
Bi3 O24 2.221927 1_555
Bi3 O30 2.221927 1_554
Bi3 O4 2.221927 1_655
