# generated using pymatgen
data_V2OF5
_symmetry_space_group_name_H-M   'P 1'
_cell_length_a   5.30700600
_cell_length_b   5.43639194
_cell_length_c   17.46092160
_cell_angle_alpha   88.46206832
_cell_angle_beta   98.48260330
_cell_angle_gamma   119.16754746
_symmetry_Int_Tables_number   1
_chemical_formula_structural   V2OF5
_chemical_formula_sum   'V8 O4 F20'
_cell_volume   434.48181698
_cell_formula_units_Z   4
loop_
 _symmetry_equiv_pos_site_id
 _symmetry_equiv_pos_as_xyz
  1  'x, y, z'
loop_
 _atom_site_type_symbol
 _atom_site_label
 _atom_site_symmetry_multiplicity
 _atom_site_fract_x
 _atom_site_fract_y
 _atom_site_fract_z
 _atom_site_occupancy
  V  V0  1  0.24681800  0.62713100  0.87536600  1
  V  V1  1  0.23365600  0.09128600  0.37889500  1
  V  V2  1  0.50020300  0.27473400  0.74543000  1
  V  V3  1  0.50666700  0.73192100  0.24439300  1
  V  V4  1  0.74473700  0.86803800  0.62649800  1
  V  V5  1  0.74874300  0.38645800  0.12539000  1
  V  V6  1  0.99982100  0.03273900  0.99511100  1
  V  V7  1  0.99882600  0.49905400  0.49845100  1
  O  O0  1  0.04749800  0.31023800  0.94105100  1
  O  O1  1  0.05839300  0.81567900  0.43254700  1
  O  O2  1  0.54899700  0.54943200  0.69106300  1
  O  O3  1  0.58239800  0.58694900  0.17304200  1
  F  F0  1  0.07140500  0.83665500  0.91404700  1
  F  F1  1  0.46208500  0.94963300  0.81039700  1
  F  F2  1  0.07609400  0.04603900  0.71249200  1
  F  F3  1  0.07162800  0.31979500  0.41426500  1
  F  F4  1  0.08065000  0.53944500  0.21089200  1
  F  F5  1  0.57758000  0.79952900  0.96195300  1
  F  F6  1  0.42702600  0.41972700  0.83692800  1
  F  F7  1  0.42588600  0.91587400  0.33028100  1
  F  F8  1  0.42386300  0.70048900  0.53931500  1
  F  F9  1  0.45947300  0.43404000  0.31763000  1
  F  F10  1  0.56556500  0.07589800  0.66408500  1
  F  F11  1  0.57543600  0.28493000  0.46088900  1
  F  F12  1  0.41915100  0.20817700  0.03973000  1
  F  F13  1  0.93021500  0.66913400  0.58565400  1
  F  F14  1  0.92096800  0.45144500  0.78934900  1
  F  F15  1  0.92276800  0.96674900  0.28898800  1
  F  F16  1  0.52840800  0.05860700  0.18654100  1
  F  F17  1  0.96095400  0.69969200  0.05979900  1
  F  F18  1  0.96417700  0.18542800  0.56331900  1
  F  F19  1  0.91991300  0.16505500  0.08620700  1
loop_
_geom_bond_atom_site_label_1
_geom_bond_atom_site_label_2
_geom_bond_distance
_geom_bond_site_symmetry_2
O0 V6 1.689039 1_455
O0 V0 1.969220 1_555
O1 V1 1.676604 1_565
O1 V7 1.964082 1_455
O2 V2 1.678647 1_555
O2 V4 1.958823 1_555
O3 V3 1.686414 1_555
O3 V5 1.965420 1_555
F0 V0 1.969920 1_555
F0 V6 1.979526 1_465
F1 V0 1.997287 1_555
F1 V2 2.015678 1_565
F2 V2 1.967556 1_555
F2 V4 1.980836 1_445
F3 V7 1.967540 1_455
F3 V1 1.975628 1_555
F4 V3 1.971136 1_555
F4 V5 1.971325 1_455
F5 V6 1.962494 1_565
F5 V0 1.983681 1_555
F6 V2 1.968148 1_555
F6 V0 1.979263 1_555
F7 V1 1.979350 1_565
F7 V3 2.030021 1_555
F8 V4 1.960770 1_555
F8 V7 1.988913 1_455
F9 V3 1.976982 1_555
F9 V1 2.036464 1_555
F10 V4 1.970547 1_545
F10 V2 1.974701 1_555
F11 V7 1.972474 1_555
F11 V1 1.975226 1_555
F12 V5 1.972192 1_555
F12 V6 1.982051 1_454
F13 V7 1.968059 1_555
F13 V4 1.983119 1_555
F14 V0 1.964513 1_655
F14 V2 1.985107 1_555
F15 V1 1.961907 1_665
F15 V3 1.977542 1_555
F16 V5 1.979605 1_555
F16 V3 1.981468 1_545
F17 V5 1.971362 1_555
F17 V6 2.047305 1_564
F18 V4 1.966874 1_545
F18 V7 1.968734 1_555
F19 V6 1.945530 1_554
F19 V5 2.008811 1_555
