# generated using pymatgen
data_Li6Mn3Cu(PO4)6
_symmetry_space_group_name_H-M   'P 1'
_cell_length_a   8.42636073
_cell_length_b   8.47764900
_cell_length_c   8.80748265
_cell_angle_alpha   61.24926686
_cell_angle_beta   61.76742680
_cell_angle_gamma   62.46691231
_symmetry_Int_Tables_number   1
_chemical_formula_structural   Li6Mn3Cu(PO4)6
_chemical_formula_sum   'Li6 Mn3 Cu1 P6 O24'
_cell_volume   463.00153914
_cell_formula_units_Z   1
loop_
 _symmetry_equiv_pos_site_id
 _symmetry_equiv_pos_as_xyz
  1  'x, y, z'
loop_
 _atom_site_type_symbol
 _atom_site_label
 _atom_site_symmetry_multiplicity
 _atom_site_fract_x
 _atom_site_fract_y
 _atom_site_fract_z
 _atom_site_occupancy
  Li  Li0  1  0.02235600  0.99113300  0.98851000  1
  Li  Li1  1  0.75302400  0.14980800  0.35841300  1
  Li  Li2  1  0.48366200  0.51539200  0.48630600  1
  Li  Li3  1  0.22847200  0.84343300  0.66060400  1
  Li  Li4  1  0.66054200  0.21198000  0.85440300  1
  Li  Li5  1  0.83630700  0.67676500  0.20451500  1
  Mn  Mn0  1  0.14209900  0.14545200  0.13655900  1
  Mn  Mn1  1  0.35907300  0.35883900  0.35548000  1
  Mn  Mn2  1  0.64837000  0.64284500  0.64924000  1
  Cu  Cu0  1  0.85549600  0.85294300  0.83942000  1
  P  P0  1  0.05804000  0.74913500  0.44926800  1
  P  P1  1  0.44761300  0.05108500  0.74500600  1
  P  P2  1  0.75008900  0.45325000  0.05032200  1
  P  P3  1  0.25347000  0.54137000  0.96750200  1
  P  P4  1  0.53721800  0.96753700  0.24977000  1
  P  P5  1  0.95246300  0.24985500  0.53955600  1
  O  O0  1  0.12788800  0.29889500  0.49157400  1
  O  O1  1  0.31164600  0.50337700  0.12510700  1
  O  O2  1  0.05467300  0.91813700  0.26604400  1
  O  O3  1  0.51694500  0.12064300  0.31255200  1
  O  O4  1  0.24661200  0.58564700  0.42378800  1
  O  O5  1  0.05197600  0.79674300  0.59946700  1
  O  O6  1  0.25415400  0.07154100  0.89140800  1
  O  O7  1  0.45349900  0.23639000  0.57017600  1
  O  O8  1  0.59133700  0.42982300  0.24402500  1
  O  O9  1  0.19756900  0.38043000  0.99439300  1
  O  O10  1  0.09188800  0.73290400  0.95108300  1
  O  O11  1  0.36537700  0.01230100  0.20283900  1
  O  O12  1  0.60467100  0.03249000  0.80213900  1
  O  O13  1  0.90563900  0.25691000  0.08142600  1
  O  O14  1  0.80450100  0.61738400  0.02375100  1
  O  O15  1  0.41232000  0.56624400  0.77537600  1
  O  O16  1  0.56013700  0.76883200  0.39955900  1
  O  O17  1  0.72364600  0.96230300  0.08592900  1
  O  O18  1  0.95254300  0.21024000  0.38854500  1
  O  O19  1  0.76111600  0.40896200  0.58211800  1
  O  O20  1  0.49212700  0.88453000  0.68827000  1
  O  O21  1  0.94965900  0.07951900  0.72458300  1
  O  O22  1  0.69601600  0.47862700  0.89795200  1
  O  O23  1  0.88576800  0.69531000  0.49402300  1
loop_
_geom_bond_atom_site_label_1
_geom_bond_atom_site_label_2
_geom_bond_distance
_geom_bond_site_symmetry_2
Li0 O6 2.025055 1_565
Li0 O10 2.137776 1_555
Li0 O2 2.334709 1_556
Li0 O17 2.335630 1_456
Li0 O21 2.363767 1_465
Li0 O13 2.382719 1_466
Li1 O13 2.100024 1_555
Li1 O18 2.123355 1_555
Li1 O8 2.124679 1_555
Li1 O3 2.343620 1_555
Li1 O7 2.353312 1_555
Li1 O2 2.438304 1_645
Li2 O4 2.067125 1_555
Li2 O16 2.202369 1_555
Li2 O7 2.214085 1_555
Li2 O8 2.225268 1_555
Li2 O19 2.485149 1_555
Li2 O15 2.529326 1_555
Li3 O5 2.040923 1_555
Li3 O10 2.157090 1_555
Li3 O15 2.185092 1_555
Li3 O21 2.308269 1_465
Li3 O20 2.534946 1_555
Li4 O12 2.071260 1_555
Li4 O21 2.138688 1_555
Li4 O17 2.180437 1_546
Li4 O19 2.188841 1_555
Li5 O14 2.039460 1_555
Li5 O17 2.057457 1_555
Li5 O16 2.191821 1_555
Li5 O10 2.285715 1_654
Mn0 O11 1.896432 1_555
Mn0 O9 1.913685 1_554
Mn0 O13 1.957562 1_455
Mn0 O2 1.990082 1_545
Mn0 O6 2.184452 1_554
Mn0 O18 2.187746 1_455
Mn1 O0 1.899996 1_555
Mn1 O1 1.923726 1_555
Mn1 O3 1.940471 1_555
Mn1 O4 1.961117 1_555
Mn1 O8 1.964453 1_555
Mn1 O7 2.014401 1_555
Mn2 O23 1.928383 1_555
Mn2 O20 1.950649 1_555
Mn2 O15 2.005427 1_555
Mn2 O19 2.009526 1_555
Mn2 O22 2.068659 1_555
Mn2 O16 2.254462 1_555
Cu0 O14 1.955187 1_556
Cu0 O12 2.023184 1_565
Cu0 O21 2.030511 1_565
Cu0 O5 2.088887 1_655
Cu0 O10 2.233187 1_655
Cu0 O17 2.347260 1_556
O0 P5 1.531216 1_455
O1 P3 1.529245 1_554
O2 P0 1.561805 1_555
O3 P4 1.554275 1_545
O4 P0 1.556261 1_555
O5 P0 1.531703 1_555
O6 P1 1.521573 1_555
O7 P1 1.585591 1_555
O8 P2 1.581124 1_555
O9 P3 1.522269 1_555
O10 P3 1.558125 1_555
O11 P4 1.522790 1_545
O12 P1 1.546086 1_555
O13 P2 1.564491 1_555
O14 P2 1.541501 1_555
O15 P3 1.572978 1_555
O16 P4 1.554936 1_555
O17 P4 1.550651 1_555
O18 P5 1.520003 1_555
O19 P5 1.569564 1_555
O20 P1 1.547871 1_565
O21 P5 1.572510 1_555
O22 P2 1.504987 1_556
O23 P0 1.539095 1_655
