# generated using pymatgen
data_USbTe
_symmetry_space_group_name_H-M   'P 1'
_cell_length_a   4.34354185
_cell_length_b   4.34354185
_cell_length_c   9.30711965
_cell_angle_alpha   90.00000000
_cell_angle_beta   90.00000000
_cell_angle_gamma   90.00000000
_symmetry_Int_Tables_number   1
_chemical_formula_structural   USbTe
_chemical_formula_sum   'U2 Sb2 Te2'
_cell_volume   175.59143082
_cell_formula_units_Z   2
loop_
 _symmetry_equiv_pos_site_id
 _symmetry_equiv_pos_as_xyz
  1  'x, y, z'
loop_
 _atom_site_type_symbol
 _atom_site_label
 _atom_site_symmetry_multiplicity
 _atom_site_fract_x
 _atom_site_fract_y
 _atom_site_fract_z
 _atom_site_occupancy
  U  U0  1  0.75000000  0.75000000  0.73044647  1
  U  U1  1  0.25000000  0.25000000  0.26955353  1
  Sb  Sb0  1  0.75000000  0.25000000  -0.00000000  1
  Sb  Sb1  1  0.25000000  0.75000000  -0.00000000  1
  Te  Te0  1  0.25000000  0.25000000  0.62787183  1
  Te  Te1  1  0.75000000  0.75000000  0.37212817  1
loop_
_geom_bond_atom_site_label_1
_geom_bond_atom_site_label_2
_geom_bond_distance
_geom_bond_site_symmetry_2
Sb0 Sb1 3.071348 1_655
Sb0 Sb1 3.071348 1_545
Sb0 Sb1 3.071348 1_555
Sb0 Sb1 3.071348 1_645
Sb0 U1 3.318207 1_655
Sb0 U1 3.318207 1_555
Sb0 U0 3.318207 1_544
Sb0 U0 3.318207 1_554
Sb1 U1 3.318207 1_565
Sb1 U1 3.318207 1_555
Sb1 U0 3.318207 1_454
Sb1 U0 3.318207 1_554
Te0 U0 3.216299 1_445
Te0 U0 3.216299 1_455
Te0 U0 3.216299 1_545
Te0 U0 3.216299 1_555
Te0 U1 3.334911 1_555
Te1 U1 3.216299 1_555
Te1 U1 3.216299 1_565
Te1 U1 3.216299 1_655
Te1 U1 3.216299 1_665
Te1 U0 3.334911 1_555
