# generated using pymatgen
data_Li3Co2(NiO4)2
_symmetry_space_group_name_H-M   'P 1'
_cell_length_a   5.76354478
_cell_length_b   5.76541535
_cell_length_c   5.71283601
_cell_angle_alpha   59.69181326
_cell_angle_beta   60.50819690
_cell_angle_gamma   90.27432748
_symmetry_Int_Tables_number   1
_chemical_formula_structural   Li3Co2(NiO4)2
_chemical_formula_sum   'Li3 Co2 Ni2 O8'
_cell_volume   134.30840298
_cell_formula_units_Z   1
loop_
 _symmetry_equiv_pos_site_id
 _symmetry_equiv_pos_as_xyz
  1  'x, y, z'
loop_
 _atom_site_type_symbol
 _atom_site_label
 _atom_site_symmetry_multiplicity
 _atom_site_fract_x
 _atom_site_fract_y
 _atom_site_fract_z
 _atom_site_occupancy
  Li  Li0  1  0.00000000  0.50000000  0.00000000  1
  Li  Li1  1  0.50000000  0.50000000  0.50000000  1
  Li  Li2  1  0.50000000  0.00000000  0.50000000  1
  Co  Co0  1  0.00000000  0.00000000  0.00000000  1
  Co  Co1  1  0.00000000  0.00000000  0.50000000  1
  Ni  Ni0  1  0.00000000  0.50000000  0.50000000  1
  Ni  Ni1  1  0.50000000  0.00000000  0.00000000  1
  O  O0  1  0.23420200  0.77057700  0.02121400  1
  O  O1  1  0.22592000  0.21710800  0.02415700  1
  O  O2  1  0.24075300  0.76812100  0.47784300  1
  O  O3  1  0.20997500  0.23404800  0.52946200  1
  O  O4  1  0.79002500  0.76595200  0.47053800  1
  O  O5  1  0.75924700  0.23187900  0.52215700  1
  O  O6  1  0.77408000  0.78289200  0.97584300  1
  O  O7  1  0.76579800  0.22942300  0.97878600  1
loop_
_geom_bond_atom_site_label_1
_geom_bond_atom_site_label_2
_geom_bond_distance
_geom_bond_site_symmetry_2
Li0 O1 2.084400 1_555
Li0 O6 2.084400 1_454
Li0 O5 2.112629 1_455
Li0 O2 2.112629 1_554
Li0 O7 2.145233 1_454
Li0 O0 2.145233 1_555
Li1 O6 2.123849 1_554
Li1 O1 2.123849 1_556
Li1 O3 2.147448 1_555
Li1 O4 2.147448 1_555
Li1 O5 2.156162 1_555
Li1 O2 2.156162 1_555
Li2 O5 2.091347 1_555
Li2 O2 2.091347 1_545
Li2 O7 2.115831 1_554
Li2 O0 2.115831 1_546
Li2 O4 2.148752 1_545
Li2 O3 2.148752 1_555
Co0 O7 1.898077 1_454
Co0 O0 1.898077 1_545
Co0 O6 1.901836 1_444
Co0 O1 1.901836 1_555
Co0 O4 1.905683 1_445
Co0 O3 1.905683 1_554
Co1 O1 1.927941 1_555
Co1 O6 1.927941 1_445
Co1 O3 1.930776 1_555
Co1 O4 1.930776 1_445
Co1 O2 1.935019 1_545
Co1 O5 1.935019 1_455
Ni0 O0 1.942953 1_555
Ni0 O7 1.942953 1_455
Ni0 O3 1.949831 1_555
Ni0 O4 1.949831 1_455
Ni0 O5 1.984957 1_455
Ni0 O2 1.984957 1_555
Ni1 O7 1.935746 1_554
Ni1 O0 1.935746 1_545
Ni1 O2 1.937331 1_545
Ni1 O5 1.937331 1_554
Ni1 O1 2.014906 1_555
Ni1 O6 2.014906 1_544
