# generated using pymatgen
data_Li2Fe3CoO8
_symmetry_space_group_name_H-M   'P 1'
_cell_length_a   6.03172543
_cell_length_b   5.90924500
_cell_length_c   5.89893908
_cell_angle_alpha   59.94219583
_cell_angle_beta   60.09641083
_cell_angle_gamma   90.00000000
_symmetry_Int_Tables_number   1
_chemical_formula_structural   Li2Fe3CoO8
_chemical_formula_sum   'Li2 Fe3 Co1 O8'
_cell_volume   148.75957129
_cell_formula_units_Z   1
loop_
 _symmetry_equiv_pos_site_id
 _symmetry_equiv_pos_as_xyz
  1  'x, y, z'
loop_
 _atom_site_type_symbol
 _atom_site_label
 _atom_site_symmetry_multiplicity
 _atom_site_fract_x
 _atom_site_fract_y
 _atom_site_fract_z
 _atom_site_occupancy
  Li  Li0  1  0.50000000  0.50000000  0.50000000  1
  Li  Li1  1  0.50000000  0.00000000  0.50000000  1
  Fe  Fe0  1  0.00000000  0.50000000  0.00000000  1
  Fe  Fe1  1  0.00000000  0.50000000  0.50000000  1
  Fe  Fe2  1  0.00000000  0.00000000  0.50000000  1
  Co  Co0  1  0.00000000  0.00000000  0.00000000  1
  O  O0  1  0.20596200  0.75528800  0.01218100  1
  O  O1  1  0.20596200  0.23253000  0.01218100  1
  O  O2  1  0.21317900  0.73065700  0.53868500  1
  O  O3  1  0.21223100  0.22854600  0.54290700  1
  O  O4  1  0.78776900  0.77145400  0.45709300  1
  O  O5  1  0.78682100  0.26934300  0.46131400  1
  O  O6  1  0.79403800  0.76747000  0.98781900  1
  O  O7  1  0.79403800  0.24471200  0.98781900  1
loop_
_geom_bond_atom_site_label_1
_geom_bond_atom_site_label_2
_geom_bond_distance
_geom_bond_site_symmetry_2
Li0 O1 2.155338 1_556
Li0 O6 2.155338 1_554
Li0 O4 2.192079 1_555
Li0 O3 2.192079 1_555
Li0 O2 2.195631 1_555
Li0 O5 2.195632 1_555
Li1 O0 2.155338 1_546
Li1 O7 2.155338 1_554
Li1 O4 2.192075 1_545
Li1 O3 2.192075 1_555
Li1 O5 2.195632 1_555
Li1 O2 2.195635 1_545
Fe0 O5 1.926645 1_455
Fe0 O2 1.926649 1_554
Fe0 O0 2.005450 1_555
Fe0 O7 2.005450 1_454
Fe0 O1 2.005455 1_555
Fe0 O6 2.005455 1_454
Fe1 O2 2.041421 1_555
Fe1 O5 2.041426 1_455
Fe1 O7 2.046131 1_455
Fe1 O0 2.046131 1_555
Fe1 O3 2.047490 1_555
Fe1 O4 2.047490 1_455
Fe2 O2 2.041426 1_545
Fe2 O5 2.041426 1_455
Fe2 O6 2.046131 1_445
Fe2 O1 2.046131 1_555
Fe2 O3 2.047485 1_555
Fe2 O4 2.047485 1_445
Co0 O1 1.903809 1_555
Co0 O6 1.903809 1_444
Co0 O0 1.903813 1_545
Co0 O7 1.903813 1_454
Co0 O4 1.908803 1_445
Co0 O3 1.908803 1_554
