# generated using pymatgen
data_Li6MnCrP2(CO7)2
_symmetry_space_group_name_H-M   'P 1'
_cell_length_a   5.00837861
_cell_length_b   6.51432900
_cell_length_c   8.68167339
_cell_angle_alpha   89.99895462
_cell_angle_beta   84.36485314
_cell_angle_gamma   90.00313056
_symmetry_Int_Tables_number   1
_chemical_formula_structural   Li6MnCrP2(CO7)2
_chemical_formula_sum   'Li6 Mn1 Cr1 P2 C2 O14'
_cell_volume   281.88138920
_cell_formula_units_Z   1
loop_
 _symmetry_equiv_pos_site_id
 _symmetry_equiv_pos_as_xyz
  1  'x, y, z'
loop_
 _atom_site_type_symbol
 _atom_site_label
 _atom_site_symmetry_multiplicity
 _atom_site_fract_x
 _atom_site_fract_y
 _atom_site_fract_z
 _atom_site_occupancy
  Li  Li0  1  0.78672100  0.25001600  0.11175400  1
  Li  Li1  1  0.21343800  0.75002200  0.89664800  1
  Li  Li2  1  0.26869600  0.02464300  0.26860800  1
  Li  Li3  1  0.26872400  0.47539500  0.26858800  1
  Li  Li4  1  0.72904200  0.52236500  0.73096600  1
  Li  Li5  1  0.72902500  0.97766100  0.73096300  1
  Mn  Mn0  1  0.78131000  0.74978000  0.34121900  1
  Cr  Cr0  1  0.19977600  0.25013700  0.66514400  1
  P  P0  1  0.73607800  0.24992000  0.40878700  1
  P  P1  1  0.27163900  0.75003200  0.58908500  1
  C  C0  1  0.68479600  0.75000000  0.03637700  1
  C  C1  1  0.30831500  0.25003000  0.96333300  1
  O  O0  1  0.93364100  0.74999700  0.06232200  1
  O  O1  1  0.39758700  0.25004200  0.09906800  1
  O  O2  1  0.50113600  0.74998000  0.15473700  1
  O  O3  1  0.18780900  0.74997300  0.42311900  1
  O  O4  1  0.42519800  0.25002400  0.41635800  1
  O  O5  1  0.58524400  0.74997600  0.57868700  1
  O  O6  1  0.82185300  0.25003100  0.57549100  1
  O  O7  1  0.47847100  0.25002500  0.83733600  1
  O  O8  1  0.61279600  0.75000800  0.89578500  1
  O  O9  1  0.05610000  0.25003500  0.94735000  1
  O  O10  1  0.85252700  0.06448600  0.31051700  1
  O  O11  1  0.85261900  0.43535800  0.31046400  1
  O  O12  1  0.15876100  0.93594500  0.68863300  1
  O  O13  1  0.15869900  0.56411600  0.68865900  1
loop_
_geom_bond_atom_site_label_1
_geom_bond_atom_site_label_2
_geom_bond_distance
_geom_bond_site_symmetry_2
Li0 O9 1.865269 1_654
Li0 O1 1.962808 1_555
Li0 O11 2.157460 1_555
Li0 O10 2.158398 1_555
Li1 O0 1.907008 1_456
Li1 O8 1.999414 1_555
Li1 O13 2.213503 1_555
Li1 O12 2.213668 1_555
Li2 O10 2.096501 1_455
Li2 O1 2.133629 1_555
Li2 O4 2.147734 1_555
Li2 O3 2.249040 1_545
Li2 O2 2.303959 1_545
Li3 O11 2.096293 1_455
Li3 O1 2.133360 1_555
Li3 O4 2.147767 1_555
Li3 O3 2.248755 1_555
Li3 O2 2.303307 1_555
Li4 O8 2.102886 1_555
Li4 O5 2.156847 1_555
Li4 O13 2.164301 1_655
Li4 O6 2.249951 1_555
Li4 O7 2.312419 1_555
Li5 O8 2.102850 1_555
Li5 O5 2.157107 1_555
Li5 O12 2.164705 1_655
Li5 O6 2.250055 1_565
Li5 O7 2.312637 1_565
Mn0 O11 2.091778 1_555
Mn0 O10 2.093418 1_565
Mn0 O5 2.194760 1_555
Mn0 O3 2.221428 1_655
Mn0 O2 2.244159 1_555
Mn0 O0 2.466160 1_555
Cr0 O13 2.063813 1_555
Cr0 O12 2.065110 1_545
Cr0 O6 2.116070 1_455
Cr0 O7 2.143091 1_555
Cr0 O4 2.336841 1_555
Cr0 O9 2.484788 1_555
C0 O0 1.288082 1_555
C0 O8 1.306244 1_554
C0 O2 1.310101 1_555
C1 O9 1.284259 1_555
C1 O1 1.300777 1_556
C1 O7 1.318986 1_555
O3 P1 1.539859 1_555
O4 P0 1.551930 1_555
O5 P1 1.564370 1_555
O6 P0 1.549594 1_555
O10 P0 1.558723 1_555
O11 P0 1.559052 1_555
O12 P1 1.561231 1_555
O13 P1 1.561386 1_555
