# generated using pymatgen
data_Li2Co2SiO6
_symmetry_space_group_name_H-M   'P 1'
_cell_length_a   4.97074597
_cell_length_b   4.97074597
_cell_length_c   9.96890000
_cell_angle_alpha   90.00000000
_cell_angle_beta   90.00000000
_cell_angle_gamma   118.61064760
_symmetry_Int_Tables_number   1
_chemical_formula_structural   Li2Co2SiO6
_chemical_formula_sum   'Li4 Co4 Si2 O12'
_cell_volume   216.23822093
_cell_formula_units_Z   2
loop_
 _symmetry_equiv_pos_site_id
 _symmetry_equiv_pos_as_xyz
  1  'x, y, z'
loop_
 _atom_site_type_symbol
 _atom_site_label
 _atom_site_symmetry_multiplicity
 _atom_site_fract_x
 _atom_site_fract_y
 _atom_site_fract_z
 _atom_site_occupancy
  Li  Li0  1  0.62203600  0.12203600  0.75000000  1
  Li  Li1  1  0.87796400  0.37796400  0.25000000  1
  Li  Li2  1  0.12203600  0.62203600  0.75000000  1
  Li  Li3  1  0.37796400  0.87796400  0.25000000  1
  Co  Co0  1  0.33600900  0.66399100  0.00000000  1
  Co  Co1  1  0.83600900  0.16399100  0.50000000  1
  Co  Co2  1  0.66399100  0.33600900  0.00000000  1
  Co  Co3  1  0.16399100  0.83600900  0.50000000  1
  Si  Si0  1  0.50000000  0.50000000  0.50000000  1
  Si  Si1  1  0.00000000  0.00000000  0.00000000  1
  O  O0  1  0.20547500  0.51887200  0.39389900  1
  O  O1  1  0.98112800  0.29452500  0.89389900  1
  O  O2  1  0.48112800  0.79452500  0.60610100  1
  O  O3  1  0.70547500  0.01887200  0.10610100  1
  O  O4  1  0.01887200  0.70547500  0.10610100  1
  O  O5  1  0.79452500  0.48112800  0.60610100  1
  O  O6  1  0.29452500  0.98112800  0.89389900  1
  O  O7  1  0.51887200  0.20547500  0.39389900  1
  O  O8  1  0.30057300  0.30057300  0.09199300  1
  O  O9  1  0.19942700  0.19942700  0.59199300  1
  O  O10  1  0.69942700  0.69942700  0.90800700  1
  O  O11  1  0.80057300  0.80057300  0.40800700  1
loop_
_geom_bond_atom_site_label_1
_geom_bond_atom_site_label_2
_geom_bond_distance
_geom_bond_site_symmetry_2
Li0 O2 2.026494 1_545
Li0 O6 2.026494 1_545
Li0 O1 2.124461 1_555
Li0 O5 2.124461 1_555
Li1 O4 2.026494 1_655
Li1 O0 2.026494 1_655
Li1 O7 2.124461 1_555
Li1 O3 2.124461 1_555
Li2 O5 2.026494 1_455
Li2 O1 2.026494 1_455
Li2 O6 2.124461 1_555
Li2 O2 2.124461 1_555
Li3 O3 2.026494 1_565
Li3 O7 2.026494 1_565
Li3 O0 2.124461 1_555
Li3 O4 2.124461 1_555
Co0 O10 1.957191 1_554
Co0 O8 1.957191 1_555
Co0 O6 1.989385 1_554
Co0 O4 1.989385 1_555
Co0 O3 2.121480 1_565
Co0 O1 2.121480 1_454
Co1 O11 1.957191 1_545
Co1 O9 1.957191 1_655
Co1 O7 1.989385 1_555
Co1 O5 1.989385 1_555
Co1 O2 2.121480 1_545
Co1 O0 2.121480 1_655
Co2 O10 1.957191 1_554
Co2 O8 1.957191 1_555
Co2 O3 1.989385 1_555
Co2 O1 1.989385 1_554
Co2 O6 2.121480 1_544
Co2 O4 2.121480 1_655
Co3 O9 1.957191 1_565
Co3 O11 1.957191 1_455
Co3 O0 1.989385 1_555
Co3 O2 1.989385 1_555
Co3 O7 2.121480 1_565
Co3 O5 2.121480 1_455
O0 Si0 1.844560 1_555
O1 Si1 1.844560 1_656
O2 Si0 1.844560 1_555
O3 Si1 1.844560 1_655
O4 Si1 1.844560 1_565
O5 Si0 1.844560 1_555
O6 Si1 1.844560 1_566
O7 Si0 1.844560 1_555
O8 Si1 1.779795 1_555
O9 Si0 1.779795 1_555
O10 Si1 1.779795 1_666
O11 Si0 1.779795 1_555
