# generated using pymatgen
data_Ca4Ta2O9
_symmetry_space_group_name_H-M   'P 1'
_cell_length_a   5.63830838
_cell_length_b   5.63830775
_cell_length_c   14.74806754
_cell_angle_alpha   90.00002332
_cell_angle_beta   89.99996841
_cell_angle_gamma   120.00003443
_symmetry_Int_Tables_number   1
_chemical_formula_structural   Ca4Ta2O9
_chemical_formula_sum   'Ca8 Ta4 O18'
_cell_volume   406.03474736
_cell_formula_units_Z   2
loop_
 _symmetry_equiv_pos_site_id
 _symmetry_equiv_pos_as_xyz
  1  'x, y, z'
loop_
 _atom_site_type_symbol
 _atom_site_label
 _atom_site_symmetry_multiplicity
 _atom_site_fract_x
 _atom_site_fract_y
 _atom_site_fract_z
 _atom_site_occupancy
  Ca  Ca0  1  0.33333287  0.66666658  0.02444095  1
  Ca  Ca1  1  0.33333335  0.66666664  0.30507939  1
  Ca  Ca2  1  0.33333338  0.66666705  0.80507633  1
  Ca  Ca3  1  0.33333327  0.66666701  0.52443668  1
  Ca  Ca4  1  0.66666639  0.33333295  0.19492112  1
  Ca  Ca5  1  0.66666656  0.33333325  0.69492374  1
  Ca  Ca6  1  0.66666672  0.33333308  0.47555909  1
  Ca  Ca7  1  0.66666702  0.33333386  0.97556382  1
  Ta  Ta0  1  0.00000004  0.00000011  0.14628254  1
  Ta  Ta1  1  0.00000042  0.00000027  0.35371764  1
  Ta  Ta2  1  -0.00000035  -0.00000024  0.64627592  1
  Ta  Ta3  1  -0.00000002  -0.00000002  0.85372393  1
  O  O0  1  -0.00000031  0.73885411  0.74999984  1
  O  O1  1  0.04072055  0.71720857  0.41116871  1
  O  O2  1  0.28279152  0.95928421  0.91116830  1
  O  O3  1  0.04071738  0.32350616  0.91116922  1
  O  O4  1  0.00000044  0.26114955  0.25000013  1
  O  O5  1  0.26114521  0.26114562  0.74999998  1
  O  O6  1  0.28279211  0.32351201  0.41116877  1
  O  O7  1  0.67648853  0.95927990  0.41116870  1
  O  O8  1  0.32351193  0.28279196  0.08883142  1
  O  O9  1  0.26114930  0.00000000  0.24999999  1
  O  O10  1  0.67649252  0.71720808  0.91116833  1
  O  O11  1  0.32350616  0.04071772  0.58883090  1
  O  O12  1  0.71721070  0.67649338  0.58883082  1
  O  O13  1  0.73885093  0.73885097  0.25000006  1
  O  O14  1  0.95927969  0.67648836  0.08883135  1
  O  O15  1  0.71720860  0.04072043  0.08883141  1
  O  O16  1  0.73885410  -0.00000018  0.75000003  1
  O  O17  1  0.95928199  0.28278861  0.58883091  1
loop_
_geom_bond_atom_site_label_1
_geom_bond_atom_site_label_2
_geom_bond_distance
_geom_bond_site_symmetry_2
Ca0 O14 2.338730 1_455
Ca0 O8 2.338732 1_555
Ca0 O15 2.338734 1_565
Ca0 O3 2.462546 1_554
Ca0 O2 2.462556 1_554
Ca0 O10 2.462557 1_554
Ca1 O4 2.263335 1_555
Ca1 O13 2.263339 1_555
Ca1 O9 2.263340 1_565
Ca1 O1 2.391935 1_555
Ca1 O7 2.391936 1_555
Ca1 O6 2.391936 1_555
Ca2 O16 2.263332 1_565
Ca2 O5 2.263336 1_555
Ca2 O0 2.263336 1_555
Ca2 O2 2.391978 1_555
Ca2 O10 2.391982 1_555
Ca2 O3 2.391990 1_555
Ca3 O11 2.338755 1_565
Ca3 O12 2.338755 1_555
Ca3 O17 2.338757 1_455
Ca3 O1 2.462490 1_555
Ca3 O7 2.462491 1_555
Ca3 O6 2.462491 1_555
Ca4 O9 2.263333 1_555
Ca4 O13 2.263338 1_555
Ca4 O4 2.263339 1_655
Ca4 O15 2.391938 1_555
Ca4 O8 2.391940 1_555
Ca4 O14 2.391941 1_555
Ca5 O0 2.263332 1_655
Ca5 O16 2.263335 1_555
Ca5 O5 2.263336 1_555
Ca5 O17 2.391987 1_555
Ca5 O11 2.391988 1_555
Ca5 O12 2.391989 1_555
Ca6 O7 2.338730 1_545
Ca6 O6 2.338731 1_555
Ca6 O1 2.338732 1_655
Ca6 O17 2.462546 1_555
Ca6 O11 2.462546 1_555
Ca6 O12 2.462547 1_555
Ca7 O10 2.338748 1_555
Ca7 O2 2.338753 1_545
Ca7 O3 2.338757 1_655
Ca7 O14 2.462484 1_556
Ca7 O8 2.462487 1_556
Ca7 O15 2.462488 1_556
O0 Ta2 2.123226 1_565
O0 Ta3 2.123227 1_565
O1 Ta1 1.918077 1_565
O2 Ta3 1.918020 1_565
O3 Ta3 1.918016 1_555
O4 Ta0 2.123172 1_555
O4 Ta1 2.123172 1_555
O5 Ta3 2.123224 1_555
O5 Ta2 2.123227 1_555
O6 Ta1 1.918076 1_555
O7 Ta1 1.918076 1_665
O8 Ta0 1.918077 1_555
O9 Ta1 2.123171 1_555
O9 Ta0 2.123171 1_555
O10 Ta3 1.918020 1_665
O11 Ta2 1.918015 1_555
O12 Ta2 1.918015 1_665
O13 Ta0 2.123170 1_665
O13 Ta1 2.123172 1_665
O14 Ta0 1.918076 1_665
O15 Ta0 1.918077 1_655
O16 Ta3 2.123226 1_655
O16 Ta2 2.123226 1_655
O17 Ta2 1.918016 1_655
