# generated using pymatgen
data_Y2W2O9
_symmetry_space_group_name_H-M   'P 1'
_cell_length_a   9.80549098
_cell_length_b   9.80549098
_cell_length_c   7.21316800
_cell_angle_alpha   90.00000000
_cell_angle_beta   90.00000000
_cell_angle_gamma   106.03120587
_symmetry_Int_Tables_number   1
_chemical_formula_structural   Y2W2O9
_chemical_formula_sum   'Y8 W8 O36'
_cell_volume   666.55881765
_cell_formula_units_Z   4
loop_
 _symmetry_equiv_pos_site_id
 _symmetry_equiv_pos_as_xyz
  1  'x, y, z'
loop_
 _atom_site_type_symbol
 _atom_site_label
 _atom_site_symmetry_multiplicity
 _atom_site_fract_x
 _atom_site_fract_y
 _atom_site_fract_z
 _atom_site_occupancy
  Y  Y0  1  0.11980700  0.40896500  0.49774700  1
  Y  Y1  1  0.40896500  0.11980700  0.50225300  1
  Y  Y2  1  0.77129300  0.22870700  0.25000000  1
  Y  Y3  1  0.77241400  0.22758600  0.75000000  1
  Y  Y4  1  0.22758600  0.77241400  0.25000000  1
  Y  Y5  1  0.22870700  0.77129300  0.75000000  1
  Y  Y6  1  0.59103500  0.88019300  0.00225300  1
  Y  Y7  1  0.88019300  0.59103500  0.99774700  1
  W  W0  1  0.95310700  0.95310700  0.00000000  1
  W  W1  1  0.14716300  0.39286200  0.99658200  1
  W  W2  1  0.39286200  0.14716300  0.00341800  1
  W  W3  1  0.49912200  0.50087800  0.25000000  1
  W  W4  1  0.50087800  0.49912200  0.75000000  1
  W  W5  1  0.60713800  0.85283700  0.50341800  1
  W  W6  1  0.85283700  0.60713800  0.49658200  1
  W  W7  1  0.04689300  0.04689300  0.50000000  1
  O  O0  1  0.32818500  0.02892600  0.20626700  1
  O  O1  1  0.02892600  0.32818500  0.79373300  1
  O  O2  1  0.20181600  0.20181600  0.50000000  1
  O  O3  1  0.33139700  0.03091500  0.79860000  1
  O  O4  1  0.03091500  0.33139700  0.20140000  1
  O  O5  1  0.22342800  0.22342800  0.00000000  1
  O  O6  1  0.11219500  0.57692900  0.99546400  1
  O  O7  1  0.57692900  0.11219500  0.00453600  1
  O  O8  1  0.30334100  0.47630900  0.18710800  1
  O  O9  1  0.47630900  0.30334100  0.81289200  1
  O  O10  1  0.30266500  0.47451800  0.80737300  1
  O  O11  1  0.47451800  0.30266500  0.19262700  1
  O  O12  1  0.63042700  0.20901200  0.50183800  1
  O  O13  1  0.20901200  0.63042700  0.49816200  1
  O  O14  1  0.44155200  0.44155200  0.50000000  1
  O  O15  1  0.08852100  0.84731700  0.99442500  1
  O  O16  1  0.84731700  0.08852100  0.00557500  1
  O  O17  1  0.99699500  0.00300500  0.75000000  1
  O  O18  1  0.00300500  0.99699500  0.25000000  1
  O  O19  1  0.15268300  0.91147900  0.50557500  1
  O  O20  1  0.91147900  0.15268300  0.49442500  1
  O  O21  1  0.55844800  0.55844800  0.00000000  1
  O  O22  1  0.36957300  0.79098800  0.00183800  1
  O  O23  1  0.79098800  0.36957300  0.99816200  1
  O  O24  1  0.52548200  0.69733500  0.69262700  1
  O  O25  1  0.69733500  0.52548200  0.30737300  1
  O  O26  1  0.52369100  0.69665900  0.31289200  1
  O  O27  1  0.69665900  0.52369100  0.68710800  1
  O  O28  1  0.88780500  0.42307100  0.49546400  1
  O  O29  1  0.42307100  0.88780500  0.50453600  1
  O  O30  1  0.77657200  0.77657200  0.50000000  1
  O  O31  1  0.96908500  0.66860300  0.70140000  1
  O  O32  1  0.66860300  0.96908500  0.29860000  1
  O  O33  1  0.79818400  0.79818400  0.00000000  1
  O  O34  1  0.97107400  0.67181500  0.29373300  1
  O  O35  1  0.67181500  0.97107400  0.70626700  1
loop_
_geom_bond_atom_site_label_1
_geom_bond_atom_site_label_2
_geom_bond_distance
_geom_bond_site_symmetry_2
O0 W2 1.865783 1_555
O0 Y1 2.364291 1_555
O0 Y4 2.455311 1_545
O1 W1 1.865783 1_555
O1 Y0 2.364291 1_555
O1 Y3 2.455311 1_455
O2 W7 1.827769 1_555
O2 Y0 2.382186 1_555
O2 Y1 2.382186 1_555
O3 W2 1.861658 1_556
O3 Y1 2.354020 1_555
O3 Y5 2.490320 1_545
O4 W1 1.861658 1_554
O4 Y0 2.354020 1_555
O4 Y2 2.490320 1_455
O5 W1 2.001560 1_554
O5 W2 2.001560 1_555
O6 W1 1.927947 1_555
O6 Y7 2.316966 1_455
O6 Y5 2.621021 1_555
O6 Y4 2.669735 1_556
O7 W2 1.927947 1_555
O7 Y6 2.316966 1_545
O7 Y2 2.621021 1_555
O7 Y3 2.669735 1_554
O8 W3 1.921915 1_555
O8 W1 2.052147 1_554
O9 W4 1.921915 1_555
O9 W2 2.052147 1_556
O10 W4 1.935968 1_555
O10 W1 2.038231 1_555
O11 W3 1.935968 1_555
O11 W2 2.038231 1_555
O12 Y1 2.105137 1_555
O12 Y3 2.244038 1_555
O12 Y2 2.257808 1_555
O13 Y0 2.105137 1_555
O13 Y4 2.244038 1_555
O13 Y5 2.257808 1_555
O14 W4 1.930687 1_555
O14 W3 1.930687 1_555
O15 W0 1.897750 1_456
O15 Y5 2.473785 1_555
O15 Y4 2.520021 1_556
O15 Y7 2.766437 1_455
O16 W0 1.897750 1_545
O16 Y2 2.473785 1_555
O16 Y3 2.520021 1_554
O16 Y6 2.766437 1_545
O17 W0 1.886837 1_546
O17 W7 1.886837 1_655
O18 W0 1.886837 1_455
O18 W7 1.886837 1_565
O19 W7 1.897750 1_565
O19 Y5 2.473785 1_555
O19 Y4 2.520021 1_555
O19 Y1 2.766437 1_565
O20 W7 1.897750 1_655
O20 Y2 2.473785 1_555
O20 Y3 2.520021 1_555
O20 Y0 2.766437 1_655
O21 W4 1.930687 1_554
O21 W3 1.930687 1_555
O22 Y6 2.105137 1_555
O22 Y4 2.244038 1_555
O22 Y5 2.257808 1_554
O23 Y7 2.105137 1_555
O23 Y3 2.244038 1_555
O23 Y2 2.257808 1_556
O24 W4 1.935968 1_555
O24 W5 2.038231 1_555
O25 W3 1.935968 1_555
O25 W6 2.038231 1_555
O26 W3 1.921915 1_555
O26 W5 2.052147 1_555
O27 W4 1.921915 1_555
O27 W6 2.052147 1_555
O28 W6 1.927947 1_555
O28 Y0 2.316966 1_655
O28 Y2 2.621021 1_555
O28 Y3 2.669735 1_555
O29 W5 1.927947 1_555
O29 Y1 2.316966 1_565
O29 Y5 2.621021 1_555
O29 Y4 2.669735 1_555
O30 W6 2.001560 1_555
O30 W5 2.001560 1_555
O31 W6 1.861658 1_555
O31 Y7 2.354020 1_555
O31 Y5 2.490320 1_655
O32 W5 1.861658 1_555
O32 Y6 2.354020 1_555
O32 Y2 2.490320 1_565
O33 W0 1.827769 1_555
O33 Y7 2.382186 1_554
O33 Y6 2.382186 1_555
O34 W6 1.865783 1_555
O34 Y7 2.364291 1_554
O34 Y4 2.455311 1_655
O35 W5 1.865783 1_555
O35 Y6 2.364291 1_556
O35 Y3 2.455311 1_565
