# generated using pymatgen
data_MnV3Cr2(PO4)6
_symmetry_space_group_name_H-M   'P 1'
_cell_length_a   8.54489696
_cell_length_b   8.54489696
_cell_length_c   8.54489735
_cell_angle_alpha   60.88066542
_cell_angle_beta   60.88066542
_cell_angle_gamma   60.88065932
_symmetry_Int_Tables_number   1
_chemical_formula_structural   MnV3Cr2(PO4)6
_chemical_formula_sum   'Mn1 V3 Cr2 P6 O24'
_cell_volume   449.92798057
_cell_formula_units_Z   1
loop_
 _symmetry_equiv_pos_site_id
 _symmetry_equiv_pos_as_xyz
  1  'x, y, z'
loop_
 _atom_site_type_symbol
 _atom_site_label
 _atom_site_symmetry_multiplicity
 _atom_site_fract_x
 _atom_site_fract_y
 _atom_site_fract_z
 _atom_site_occupancy
  Mn  Mn0  1  0.85208600  0.85208600  0.85208600  1
  V  V0  1  0.35445300  0.35445300  0.35445300  1
  V  V1  1  0.14408900  0.14408900  0.14408900  1
  V  V2  1  0.64417600  0.64417600  0.64417600  1
  Cr  Cr0  1  0.99922400  0.99922400  0.99922400  1
  Cr  Cr1  1  0.49859500  0.49859500  0.49859500  1
  P  P0  1  0.44755700  0.75054200  0.04707200  1
  P  P1  1  0.75054200  0.04707200  0.44755700  1
  P  P2  1  0.04707200  0.44755700  0.75054200  1
  P  P3  1  0.95662600  0.54604400  0.25351200  1
  P  P4  1  0.25351100  0.95662600  0.54604400  1
  P  P5  1  0.54604400  0.25351100  0.95662600  1
  O  O0  1  0.68743200  0.88383100  0.49477000  1
  O  O1  1  0.88383100  0.49477000  0.68743200  1
  O  O2  1  0.49477000  0.68743200  0.88383100  1
  O  O3  1  0.24470600  0.90621900  0.06172600  1
  O  O4  1  0.59273100  0.81719100  0.02343700  1
  O  O5  1  0.42532000  0.58693600  0.24537700  1
  O  O6  1  0.90621900  0.06172600  0.24470600  1
  O  O7  1  0.58693600  0.24537700  0.42532000  1
  O  O8  1  0.99453000  0.39172200  0.18599300  1
  O  O9  1  0.24537700  0.42532000  0.58693600  1
  O  O10  1  0.95129400  0.74460900  0.10029400  1
  O  O11  1  0.18599300  0.99453000  0.39172200  1
  O  O12  1  0.81719100  0.02343700  0.59273100  1
  O  O13  1  0.06172600  0.24470600  0.90621900  1
  O  O14  1  0.75743800  0.56138900  0.41450500  1
  O  O15  1  0.02343700  0.59273100  0.81719100  1
  O  O16  1  0.41450500  0.75743800  0.56138900  1
  O  O17  1  0.10029400  0.95129400  0.74460900  1
  O  O18  1  0.56138900  0.41450500  0.75743800  1
  O  O19  1  0.39172200  0.18599300  0.99453000  1
  O  O20  1  0.74460900  0.10029400  0.95129400  1
  O  O21  1  0.49070800  0.33289700  0.11094300  1
  O  O22  1  0.11094300  0.49070800  0.33289700  1
  O  O23  1  0.33289700  0.11094300  0.49070800  1
loop_
_geom_bond_atom_site_label_1
_geom_bond_atom_site_label_2
_geom_bond_distance
_geom_bond_site_symmetry_2
Mn0 O15 2.050423 1_655
Mn0 O4 2.050423 1_556
Mn0 O12 2.050423 1_565
Mn0 O20 2.270849 1_565
Mn0 O10 2.270849 1_556
Mn0 O17 2.270849 1_655
Cr0 O20 2.083589 1_565
Cr0 O10 2.083589 1_556
Cr0 O17 2.083589 1_655
Cr0 O3 2.090840 1_656
Cr0 O13 2.090840 1_665
Cr0 O6 2.090840 1_566
Cr1 O7 2.216403 1_555
Cr1 O9 2.216403 1_555
Cr1 O5 2.216403 1_555
Cr1 O16 2.220191 1_555
Cr1 O14 2.220191 1_555
Cr1 O18 2.220191 1_555
O0 P1 1.540104 1_565
O0 V2 1.921723 1_555
O1 P2 1.540104 1_655
O1 V2 1.921723 1_555
O2 P0 1.540104 1_556
O2 V2 1.921723 1_555
O3 P0 1.580020 1_555
O3 V1 2.113858 1_565
O4 P0 1.495250 1_555
O5 P0 1.581590 1_555
O5 V0 2.000299 1_555
O6 P1 1.580020 1_555
O6 V1 2.113858 1_655
O7 P1 1.581590 1_555
O7 V0 2.000299 1_555
O8 P3 1.523008 1_555
O8 V1 1.974598 1_655
O9 P2 1.581590 1_555
O9 V0 2.000299 1_555
O10 P3 1.554296 1_555
O11 P4 1.523002 1_555
O11 V1 1.974598 1_565
O12 P1 1.495250 1_555
O13 P2 1.580020 1_555
O13 V1 2.113858 1_556
O14 P3 1.576742 1_555
O14 V2 2.030969 1_555
O15 P2 1.495250 1_555
O16 P4 1.576745 1_555
O16 V2 2.030969 1_555
O17 P4 1.554293 1_555
O18 P5 1.576745 1_555
O18 V2 2.030969 1_555
O19 P5 1.523002 1_555
O19 V1 1.974598 1_556
O20 P5 1.554293 1_555
O21 P5 1.540799 1_554
O21 V0 1.877645 1_555
O22 P3 1.540793 1_455
O22 V0 1.877645 1_555
O23 P4 1.540799 1_545
O23 V0 1.877645 1_555
