# generated using pymatgen
data_LiSnPCO7
_symmetry_space_group_name_H-M   'P 1'
_cell_length_a   6.54830400
_cell_length_b   5.23435000
_cell_length_c   8.95683707
_cell_angle_alpha   86.05729604
_cell_angle_beta   90.00000000
_cell_angle_gamma   90.00000000
_symmetry_Int_Tables_number   1
_chemical_formula_structural   LiSnPCO7
_chemical_formula_sum   'Li2 Sn2 P2 C2 O14'
_cell_volume   306.27899034
_cell_formula_units_Z   2
loop_
 _symmetry_equiv_pos_site_id
 _symmetry_equiv_pos_as_xyz
  1  'x, y, z'
loop_
 _atom_site_type_symbol
 _atom_site_label
 _atom_site_symmetry_multiplicity
 _atom_site_fract_x
 _atom_site_fract_y
 _atom_site_fract_z
 _atom_site_occupancy
  Li  Li0  1  0.46875900  0.76516900  0.83840500  1
  Li  Li1  1  0.96875900  0.23483100  0.16159500  1
  Sn  Sn0  1  0.24827500  0.21114500  0.65761600  1
  Sn  Sn1  1  0.74827500  0.78885500  0.34238400  1
  P  P0  1  0.75098800  0.26930900  0.57149200  1
  P  P1  1  0.25098800  0.73069100  0.42850800  1
  C  C0  1  0.25981000  0.27280200  0.93834700  1
  C  C1  1  0.75981000  0.72719800  0.06165300  1
  O  O0  1  0.72987300  0.69061800  0.92833800  1
  O  O1  1  0.26227900  0.04298300  0.88121100  1
  O  O2  1  0.28332000  0.46389600  0.83055500  1
  O  O3  1  0.93715100  0.19742700  0.67020400  1
  O  O4  1  0.56442600  0.17047400  0.66254900  1
  O  O5  1  0.25934700  0.84815800  0.58334100  1
  O  O6  1  0.73792200  0.56616400  0.53882200  1
  O  O7  1  0.23792200  0.43383600  0.46117800  1
  O  O8  1  0.75934700  0.15184200  0.41665900  1
  O  O9  1  0.06442600  0.82952600  0.33745100  1
  O  O10  1  0.43715100  0.80257300  0.32979600  1
  O  O11  1  0.78332000  0.53610400  0.16944500  1
  O  O12  1  0.76227900  0.95701700  0.11878900  1
  O  O13  1  0.22987300  0.30938200  0.07166200  1
loop_
_geom_bond_atom_site_label_1
_geom_bond_atom_site_label_2
_geom_bond_distance
_geom_bond_site_symmetry_2
Li0 O0 1.918725 1_555
Li0 O2 1.995388 1_555
Li0 O1 2.041190 1_565
Li1 O13 1.918725 1_655
Li1 O11 1.995388 1_555
Li1 O12 2.041190 1_545
C0 O13 1.237886 1_556
C0 O1 1.339370 1_555
C0 O2 1.350387 1_555
C1 O0 1.237886 1_554
C1 O12 1.339370 1_555
C1 O11 1.350387 1_555
O1 Sn0 2.133448 1_555
O2 Sn0 2.117577 1_555
O3 P0 1.537408 1_555
O3 Sn0 2.041442 1_655
O4 P0 1.538588 1_555
O4 Sn0 2.081328 1_555
O5 P1 1.556139 1_555
O5 Sn0 2.057102 1_565
O6 P0 1.563601 1_555
O6 Sn1 2.043769 1_555
O7 P1 1.563601 1_555
O7 Sn0 2.043769 1_555
O8 P0 1.556139 1_555
O8 Sn1 2.057102 1_545
O9 P1 1.538588 1_555
O9 Sn1 2.081328 1_455
O10 P1 1.537408 1_555
O10 Sn1 2.041442 1_555
O11 Sn1 2.117577 1_555
O12 Sn1 2.133448 1_555
