# generated using pymatgen
data_Ge7O16
_symmetry_space_group_name_H-M   'P 1'
_cell_length_a   7.85240300
_cell_length_b   7.85240300
_cell_length_c   7.85240300
_cell_angle_alpha   90.00000000
_cell_angle_beta   90.00000000
_cell_angle_gamma   90.00000000
_symmetry_Int_Tables_number   1
_chemical_formula_structural   Ge7O16
_chemical_formula_sum   'Ge7 O16'
_cell_volume   484.18099760
_cell_formula_units_Z   1
loop_
 _symmetry_equiv_pos_site_id
 _symmetry_equiv_pos_as_xyz
  1  'x, y, z'
loop_
 _atom_site_type_symbol
 _atom_site_label
 _atom_site_symmetry_multiplicity
 _atom_site_fract_x
 _atom_site_fract_y
 _atom_site_fract_z
 _atom_site_occupancy
  Ge  Ge0  1  0.00000000  0.00000000  0.50000000  1
  Ge  Ge1  1  0.00000000  0.50000000  0.00000000  1
  Ge  Ge2  1  0.50000000  0.00000000  0.00000000  1
  Ge  Ge3  1  0.86359400  0.86359400  0.13640600  1
  Ge  Ge4  1  0.86359400  0.13640600  0.86359400  1
  Ge  Ge5  1  0.13640600  0.86359400  0.86359400  1
  Ge  Ge6  1  0.13640600  0.13640600  0.13640600  1
  O  O0  1  0.62757800  0.86784000  0.13216000  1
  O  O1  1  0.86784000  0.86784000  0.37242200  1
  O  O2  1  0.86784000  0.62757800  0.13216000  1
  O  O3  1  0.62757800  0.13216000  0.86784000  1
  O  O4  1  0.86784000  0.13216000  0.62757800  1
  O  O5  1  0.86784000  0.37242200  0.86784000  1
  O  O6  1  0.37242200  0.86784000  0.86784000  1
  O  O7  1  0.13216000  0.86784000  0.62757800  1
  O  O8  1  0.13216000  0.62757800  0.86784000  1
  O  O9  1  0.37242200  0.13216000  0.13216000  1
  O  O10  1  0.13216000  0.13216000  0.37242200  1
  O  O11  1  0.13216000  0.37242200  0.13216000  1
  O  O12  1  0.11539400  0.11539400  0.88460600  1
  O  O13  1  0.11539400  0.88460600  0.11539400  1
  O  O14  1  0.88460600  0.11539400  0.11539400  1
  O  O15  1  0.88460600  0.88460600  0.88460600  1
loop_
_geom_bond_atom_site_label_1
_geom_bond_atom_site_label_2
_geom_bond_distance
_geom_bond_site_symmetry_2
Ge0 O7 1.776947 1_545
Ge0 O4 1.776947 1_455
Ge0 O1 1.776947 1_445
Ge0 O10 1.776947 1_555
Ge1 O2 1.776947 1_455
Ge1 O8 1.776947 1_554
Ge1 O5 1.776947 1_454
Ge1 O11 1.776947 1_555
Ge2 O0 1.776947 1_545
Ge2 O6 1.776947 1_544
Ge2 O3 1.776947 1_554
Ge2 O9 1.776947 1_555
Ge3 O1 1.853892 1_555
Ge3 O2 1.853892 1_555
Ge3 O0 1.853892 1_555
Ge3 O13 1.990956 1_655
Ge3 O14 1.990956 1_565
Ge3 O15 1.990956 1_554
Ge4 O5 1.853892 1_555
Ge4 O3 1.853892 1_555
Ge4 O4 1.853892 1_555
Ge4 O15 1.990956 1_545
Ge4 O14 1.990956 1_556
Ge4 O12 1.990956 1_655
Ge5 O6 1.853892 1_555
Ge5 O8 1.853892 1_555
Ge5 O7 1.853892 1_555
Ge5 O15 1.990956 1_455
Ge5 O12 1.990956 1_565
Ge5 O13 1.990956 1_556
Ge6 O10 1.853892 1_555
Ge6 O9 1.853892 1_555
Ge6 O11 1.853892 1_555
Ge6 O14 1.990956 1_455
Ge6 O12 1.990956 1_554
Ge6 O13 1.990956 1_545
