# generated using pymatgen
data_UTi22Fe18PbO76
_symmetry_space_group_name_H-M   'P 1'
_cell_length_a   9.44803300
_cell_length_b   9.45981945
_cell_length_c   17.57952838
_cell_angle_alpha   97.09736578
_cell_angle_beta   101.37851636
_cell_angle_gamma   111.30541492
_symmetry_Int_Tables_number   1
_chemical_formula_structural   UTi22Fe18PbO76
_chemical_formula_sum   'U1 Ti22 Fe18 Pb1 O76'
_cell_volume   1401.87807132
_cell_formula_units_Z   1
loop_
 _symmetry_equiv_pos_site_id
 _symmetry_equiv_pos_as_xyz
  1  'x, y, z'
loop_
 _atom_site_type_symbol
 _atom_site_label
 _atom_site_symmetry_multiplicity
 _atom_site_fract_x
 _atom_site_fract_y
 _atom_site_fract_z
 _atom_site_occupancy
  U  U0  1  0.50693500  0.75339200  0.25171000  1
  Ti  Ti0  1  0.18838200  0.33834200  0.65502000  1
  Ti  Ti1  1  0.29925700  0.20284500  0.91972500  1
  Ti  Ti2  1  0.49008900  0.60853400  0.67113400  1
  Ti  Ti3  1  0.27807300  0.77119500  0.64276100  1
  Ti  Ti4  1  0.62320600  0.46920000  0.96052000  1
  Ti  Ti5  1  0.35678300  0.02580700  0.53922500  1
  Ti  Ti6  1  0.70782000  0.68235600  0.83937600  1
  Ti  Ti7  1  0.15405000  0.80723300  0.15379600  1
  Ti  Ti8  1  0.30537200  0.71513300  0.43221100  1
  Ti  Ti9  1  0.48928600  0.89005200  0.82066900  1
  Ti  Ti10  1  0.46797600  0.10330600  0.16908100  1
  Ti  Ti11  1  0.68892700  0.30640500  0.57333400  1
  Ti  Ti12  1  0.85490000  0.16301900  0.85926700  1
  Ti  Ti13  1  0.29071900  0.31047100  0.15936600  1
  Ti  Ti14  1  0.62815800  0.97398100  0.46075200  1
  Ti  Ti15  1  0.92506200  0.38009300  0.73927300  1
  Ti  Ti16  1  0.33840600  0.50661300  0.03846400  1
  Ti  Ti17  1  0.70382500  0.20373900  0.33946800  1
  Ti  Ti18  1  0.52243800  0.40750600  0.32578100  1
  Ti  Ti19  1  0.66618100  0.78580500  0.06983300  1
  Ti  Ti20  1  0.86226000  0.66648100  0.34878100  1
  Ti  Ti21  1  0.93059900  0.87457200  0.23703300  1
  Fe  Fe0  1  0.32042000  0.85448200  0.97961900  1
  Fe  Fe1  1  0.30520900  0.54088000  0.84693200  1
  Fe  Fe2  1  0.20968200  0.01954300  0.72389200  1
  Fe  Fe3  1  0.33664000  0.35914000  0.48161500  1
  Fe  Fe4  1  0.30251900  0.04850800  0.34843900  1
  Fe  Fe5  1  0.60459100  0.07164700  0.69305100  1
  Fe  Fe6  1  0.65820200  0.63671600  0.51096100  1
  Fe  Fe7  1  0.86217400  0.05482900  0.62847300  1
  Fe  Fe8  1  0.94448800  0.23647400  0.49958900  1
  Fe  Fe9  1  0.01000900  0.92925900  0.85816800  1
  Fe  Fe10  1  0.89313700  0.70211600  0.67501900  1
  Fe  Fe11  1  0.97805600  0.87468800  0.53681100  1
  Fe  Fe12  1  0.70283200  0.46288300  0.15170100  1
  Fe  Fe13  1  0.64380200  0.13181000  0.01040300  1
  Fe  Fe14  1  0.93704600  0.71809200  0.00111300  1
  Fe  Fe15  1  0.04410700  0.43631600  0.35516200  1
  Fe  Fe16  1  0.87148400  0.18991300  0.17860000  1
  Fe  Fe17  1  0.97864800  0.41803500  0.06306800  1
  Pb  Pb0  1  0.99248800  0.06180200  0.02629900  1
  O  O0  1  0.24061700  0.68252200  0.89220200  1
  O  O1  1  0.06231500  0.15876400  0.88988000  1
  O  O2  1  0.14528500  0.39828800  0.75614300  1
  O  O3  1  0.01629600  0.90097100  0.75197300  1
  O  O4  1  0.25213000  0.57554600  0.64712300  1
  O  O5  1  0.09667500  0.11471700  0.65080100  1
  O  O6  1  0.16630000  0.31095900  0.54045100  1
  O  O7  1  0.38254800  0.44847000  0.93182500  1
  O  O8  1  0.22392400  0.99591400  0.93136500  1
  O  O9  1  0.08074100  0.79070200  0.62099300  1
  O  O10  1  0.48759900  0.68123000  0.81399800  1
  O  O11  1  0.30522900  0.17328200  0.81891100  1
  O  O12  1  0.15938300  0.98930800  0.50615100  1
  O  O13  1  0.39542000  0.40396000  0.68874000  1
  O  O14  1  0.23636000  0.18780800  0.39451500  1
  O  O15  1  0.07415900  0.65176400  0.38010100  1
  O  O16  1  0.48806600  0.55961800  0.56925200  1
  O  O17  1  0.29955800  0.86278000  0.75766000  1
  O  O18  1  0.14646600  0.89750400  0.25976600  1
  O  O19  1  0.71742500  0.72524200  0.97461300  1
  O  O20  1  0.53129000  0.26117000  0.96496800  1
  O  O21  1  0.37611900  0.03223000  0.65083700  1
  O  O22  1  0.97917100  0.38394600  0.25126700  1
  O  O23  1  0.62829200  0.48544500  0.85828900  1
  O  O24  1  0.26103400  0.10063100  0.15424400  1
  O  O25  1  0.08395800  0.60742100  0.14645600  1
  O  O26  1  0.46723400  0.24104800  0.53754500  1
  O  O27  1  0.30111400  0.78543700  0.53401500  1
  O  O28  1  0.70086200  0.65591700  0.73019800  1
  O  O29  1  0.50415000  0.94790300  0.92665600  1
  O  O30  1  0.16105700  0.80830300  0.04423500  1
  O  O31  1  0.39104600  0.95198500  0.43043700  1
  O  O32  1  0.24980500  0.50459800  0.42516400  1
  O  O33  1  0.62090000  0.08377200  0.80871600  1
  O  O34  1  0.06430400  0.27704800  0.12316200  1
  O  O35  1  0.83606500  0.50403600  0.00151500  1
  O  O36  1  0.48327100  0.17870700  0.31549400  1
  O  O37  1  0.35331200  0.70494600  0.31047700  1
  O  O38  1  0.69796100  0.29445000  0.68093800  1
  O  O39  1  0.50773000  0.82861800  0.68738500  1
  O  O40  1  0.14230400  0.48393500  0.00986100  1
  O  O41  1  0.92432800  0.73053100  0.88999300  1
  O  O42  1  0.38746600  0.88777900  0.19244000  1
  O  O43  1  0.76165700  0.51483900  0.57908600  1
  O  O44  1  0.61928700  0.04591100  0.57297300  1
  O  O45  1  0.83666200  0.19798000  0.96713800  1
  O  O46  1  0.47454600  0.04909500  0.06907100  1
  O  O47  1  0.32682500  0.37229800  0.26720400  1
  O  O48  1  0.71659800  0.21720700  0.46873000  1
  O  O49  1  0.53903000  0.76569500  0.46191400  1
  O  O50  1  0.90733000  0.35671500  0.84028500  1
  O  O51  1  0.79226000  0.91849100  0.85562300  1
  O  O52  1  0.37946300  0.54659300  0.15483000  1
  O  O53  1  0.96434000  0.57247200  0.73140200  1
  O  O54  1  0.62983400  0.97197400  0.35179300  1
  O  O55  1  0.45857000  0.73857100  0.03815600  1
  O  O56  1  0.29485800  0.29527500  0.04292800  1
  O  O57  1  0.83399600  0.11134200  0.72975300  1
  O  O58  1  0.68336600  0.14128700  0.23126900  1
  O  O59  1  0.51938600  0.44984400  0.42927800  1
  O  O60  1  0.92631000  0.28930500  0.61320600  1
  O  O61  1  0.80857300  0.82306700  0.59958500  1
  O  O62  1  0.61942700  0.61995900  0.31116500  1
  O  O63  1  0.85078100  0.01618300  0.50445900  1
  O  O64  1  0.67567100  0.80951700  0.19164200  1
  O  O65  1  0.52744600  0.33091800  0.18613700  1
  O  O66  1  0.92698900  0.26040100  0.39016400  1
  O  O67  1  0.75556100  0.00845500  0.07848500  1
  O  O68  1  0.61232600  0.55366900  0.07244900  1
  O  O69  1  0.83391900  0.69744400  0.45642000  1
  O  O70  1  0.92032300  0.86625000  0.34240900  1
  O  O71  1  0.74673700  0.41677100  0.34274500  1
  O  O72  1  0.95652300  0.06760300  0.23189300  1
  O  O73  1  0.84121600  0.62740400  0.23483000  1
  O  O74  1  0.93654900  0.81455400  0.11822300  1
  O  O75  1  0.78033600  0.31164000  0.10615600  1
loop_
_geom_bond_atom_site_label_1
_geom_bond_atom_site_label_2
_geom_bond_distance
_geom_bond_site_symmetry_2
Fe0 O0 1.900017 1_555
Fe0 O30 2.016851 1_556
Fe0 O8 2.049998 1_555
Fe0 O29 2.094628 1_555
Fe0 O46 2.101323 1_566
Fe0 O55 2.180318 1_556
Fe1 O0 1.823034 1_555
Fe1 O2 1.919695 1_555
Fe1 O7 1.970176 1_555
Fe1 O10 1.997124 1_555
Fe2 O11 1.889680 1_555
Fe2 O3 1.960521 1_545
Fe2 O5 2.011127 1_555
Fe2 O17 2.050926 1_545
Fe2 O21 2.198711 1_555
Fe2 O9 2.385160 1_545
Fe3 O14 1.888782 1_555
Fe3 O6 2.026796 1_555
Fe3 O59 2.075860 1_555
Fe3 O32 2.094716 1_555
Fe3 O16 2.110362 1_555
Fe3 O26 2.128728 1_555
Fe4 O14 1.821498 1_555
Fe4 O18 1.912252 1_545
Fe4 O36 1.951123 1_555
Fe4 O31 2.003917 1_545
Fe5 O33 1.994305 1_555
Fe5 O57 2.012942 1_555
Fe5 O21 2.015935 1_555
Fe5 O38 2.024786 1_555
Fe5 O39 2.124012 1_545
Fe5 O44 2.132541 1_555
Fe6 O59 1.962629 1_555
Fe6 O69 2.019076 1_555
Fe6 O16 2.036810 1_555
Fe6 O61 2.044822 1_555
Fe6 O49 2.091664 1_555
Fe6 O43 2.101700 1_555
Fe7 O57 1.892602 1_555
Fe7 O5 2.018310 1_655
Fe7 O61 2.034123 1_545
Fe7 O63 2.140085 1_555
Fe7 O60 2.143304 1_555
Fe7 O44 2.276114 1_555
Fe8 O6 1.900595 1_655
Fe8 O66 1.946344 1_555
Fe8 O63 1.966506 1_555
Fe8 O48 2.047661 1_555
Fe8 O60 2.054183 1_555
Fe9 O3 1.868730 1_555
Fe9 O41 1.958363 1_455
Fe9 O8 1.996342 1_555
Fe9 O51 2.013735 1_455
Fe9 O1 2.020177 1_565
Fe10 O53 1.891009 1_555
Fe10 O3 1.970315 1_655
Fe10 O61 2.080188 1_555
Fe10 O43 2.088466 1_555
Fe10 O9 2.127802 1_655
Fe10 O28 2.157589 1_555
Fe11 O12 1.886818 1_655
Fe11 O69 1.912820 1_555
Fe11 O9 2.011627 1_655
Fe11 O61 2.069432 1_555
Fe11 O63 2.156151 1_565
Fe11 O5 2.562736 1_665
Fe12 O73 1.863495 1_555
Fe12 O65 1.936507 1_555
Fe12 O68 1.941408 1_555
Fe12 O75 1.983390 1_555
Fe13 O29 1.966614 1_544
Fe13 O20 2.029105 1_554
Fe13 O45 2.031298 1_554
Fe13 O46 2.043063 1_555
Fe13 O75 2.057276 1_555
Fe13 O67 2.156599 1_555
Fe14 O35 1.900777 1_555
Fe14 O30 1.917529 1_655
Fe14 O41 1.954139 1_554
Fe14 O19 2.062891 1_554
Fe14 O74 2.147977 1_555
Fe15 O22 1.752443 1_455
Fe15 O66 1.885716 1_455
Fe15 O32 1.912132 1_555
Fe15 O15 1.932935 1_555
Fe16 O72 1.873061 1_555
Fe16 O22 1.893891 1_555
Fe16 O75 2.083203 1_555
Fe16 O67 2.090529 1_555
Fe16 O58 2.094828 1_555
Fe16 O34 2.180809 1_655
Fe17 O40 1.915368 1_655
Fe17 O25 1.956715 1_655
Fe17 O35 2.021456 1_555
Fe17 O34 2.084447 1_655
Fe17 O75 2.115508 1_555
Fe17 O45 2.277609 1_554
O1 Ti12 1.943724 1_455
O1 Ti1 2.065134 1_555
O2 Ti0 1.962618 1_555
O2 Ti15 1.982535 1_455
O4 Ti3 1.790046 1_555
O4 Ti2 2.100791 1_555
O4 Ti0 2.131905 1_555
O5 Ti0 1.958390 1_555
O6 Ti0 1.957832 1_555
O7 Ti16 2.052124 1_556
O7 Ti1 2.132268 1_555
O7 Ti4 2.159120 1_555
O8 Ti1 1.877331 1_565
O9 Ti3 1.908512 1_555
O10 Ti9 1.958423 1_555
O10 Ti6 2.035860 1_555
O10 Ti2 2.527705 1_555
O11 Ti1 1.775037 1_555
O12 Ti5 1.729226 1_565
O13 Ti0 1.769811 1_555
O13 Ti2 1.907968 1_555
O15 Ti8 2.023287 1_555
O15 Ti20 2.029086 1_455
O16 Ti2 1.788175 1_555
O17 Ti9 1.821156 1_555
O17 Ti3 2.037074 1_555
O18 Ti21 1.924023 1_455
O18 Ti7 1.977066 1_555
O19 Ti19 1.910241 1_556
O19 Ti4 2.217727 1_555
O19 Ti6 2.339796 1_555
O20 Ti4 1.859015 1_555
O20 Ti1 2.016827 1_555
O21 Ti5 1.925587 1_555
O21 Ti3 2.274897 1_545
O23 Ti4 1.831041 1_555
O23 Ti6 1.838332 1_555
O24 Ti13 1.889043 1_555
O24 Ti10 1.911191 1_555
O25 Ti7 1.739081 1_555
O26 Ti11 1.899509 1_555
O26 Ti5 1.928393 1_555
O27 Ti8 1.844061 1_555
O27 Ti3 1.981589 1_555
O27 Ti5 2.125064 1_565
O28 Ti6 1.889504 1_555
O28 Ti2 1.914454 1_555
O29 Ti9 1.838388 1_555
O30 Ti7 1.941320 1_555
O31 Ti5 2.080490 1_565
O31 Ti8 2.094198 1_555
O31 Ti14 2.123386 1_555
O32 Ti8 1.846913 1_555
O33 Ti9 1.868426 1_545
O33 Ti12 2.023682 1_555
O34 Ti13 2.000670 1_555
O34 Pb0 2.278012 1_455
O35 Ti4 1.886880 1_554
O36 Ti17 1.961163 1_555
O36 Ti18 2.036935 1_555
O36 Ti10 2.545414 1_555
O37 U0 1.899808 1_555
O37 Ti8 2.270986 1_555
O38 Ti11 1.895917 1_555
O38 Ti15 1.993772 1_555
O39 Ti3 1.996269 1_555
O39 Ti2 2.006491 1_555
O39 Ti9 2.399228 1_555
O40 Ti16 1.746010 1_555
O41 Ti6 1.920417 1_555
O42 Ti7 1.991329 1_555
O42 Ti10 2.026643 1_565
O42 U0 2.209493 1_555
O43 Ti11 1.819048 1_555
O44 Ti14 2.033939 1_545
O44 Ti11 2.306868 1_555
O44 Ti5 2.363905 1_555
O45 Ti12 1.936614 1_555
O45 Pb0 2.452301 1_556
O46 Ti10 1.789205 1_555
O47 Ti18 1.817694 1_555
O47 Ti13 1.837970 1_555
O48 Ti11 2.031852 1_555
O48 Ti14 2.118683 1_545
O48 Ti17 2.236855 1_555
O49 Ti14 1.844674 1_555
O49 Ti8 2.022646 1_555
O50 Ti12 1.808564 1_555
O50 Ti15 1.848714 1_555
O51 Ti6 2.040907 1_555
O51 Ti12 2.158427 1_565
O52 Ti16 1.966553 1_555
O52 Ti13 2.099548 1_555
O52 U0 2.198482 1_555
O53 Ti15 1.749432 1_555
O54 Ti14 1.916442 1_555
O54 Ti17 2.099021 1_565
O54 U0 2.295549 1_555
O55 Ti19 1.796638 1_555
O55 Ti16 2.073378 1_555
O56 Ti16 1.904230 1_555
O56 Ti13 2.043295 1_555
O56 Ti1 2.247469 1_554
O57 Ti12 2.222420 1_555
O57 Ti15 2.340995 1_555
O58 Ti17 1.870450 1_555
O58 Ti10 1.989800 1_555
O59 Ti18 1.822247 1_555
O60 Ti15 2.279606 1_555
O60 Ti11 2.284512 1_555
O60 Ti0 2.291139 1_655
O62 Ti18 1.956299 1_555
O62 Ti20 2.119073 1_555
O62 U0 2.162841 1_555
O63 Ti14 1.962177 1_545
O64 U0 2.031310 1_555
O64 Ti19 2.105860 1_555
O64 Ti21 2.204503 1_555
O65 Ti10 1.984083 1_555
O65 Ti13 2.123464 1_555
O65 Ti18 2.486926 1_555
O66 Ti17 1.961228 1_555
O67 Ti19 1.936521 1_545
O67 Pb0 2.492183 1_555
O68 Ti4 2.066813 1_554
O68 Ti19 2.074971 1_555
O68 Ti16 2.395808 1_555
O69 Ti20 1.964188 1_555
O70 Ti20 1.791079 1_555
O70 Ti21 1.883795 1_555
O71 Ti17 1.896647 1_555
O71 Ti18 2.048600 1_555
O71 Ti20 2.191207 1_555
O72 Ti21 1.768352 1_545
O73 Ti20 1.948193 1_555
O73 Ti21 2.170605 1_555
O74 Ti7 2.055667 1_655
O74 Ti21 2.112901 1_555
O74 Ti19 2.429688 1_555
