# generated using pymatgen
data_Li2VPO5
_symmetry_space_group_name_H-M   'P 1'
_cell_length_a   6.63845300
_cell_length_b   6.65545000
_cell_length_c   8.25643700
_cell_angle_alpha   89.99922189
_cell_angle_beta   90.00216792
_cell_angle_gamma   89.99956040
_symmetry_Int_Tables_number   1
_chemical_formula_structural   Li2VPO5
_chemical_formula_sum   'Li8 V4 P4 O20'
_cell_volume   364.78500792
_cell_formula_units_Z   4
loop_
 _symmetry_equiv_pos_site_id
 _symmetry_equiv_pos_as_xyz
  1  'x, y, z'
loop_
 _atom_site_type_symbol
 _atom_site_label
 _atom_site_symmetry_multiplicity
 _atom_site_fract_x
 _atom_site_fract_y
 _atom_site_fract_z
 _atom_site_occupancy
  Li  Li0  1  0.00923600  0.47554600  0.01770300  1
  Li  Li1  1  0.00835500  0.47695200  0.51432200  1
  Li  Li2  1  0.97149200  0.97708500  0.48567800  1
  Li  Li3  1  0.97057200  0.97572300  0.98236800  1
  Li  Li4  1  0.50987200  0.97520600  0.48190800  1
  Li  Li5  1  0.50888300  0.97674400  0.98534000  1
  Li  Li6  1  0.47106900  0.47650500  0.01474000  1
  Li  Li7  1  0.47045500  0.47531800  0.51797300  1
  V  V0  1  0.74138600  0.74721100  0.68786600  1
  V  V1  1  0.23865200  0.24707500  0.31230100  1
  V  V2  1  0.73878300  0.74709100  0.18776700  1
  V  V3  1  0.24121000  0.24711300  0.81228500  1
  P  P0  1  0.73875500  0.24631700  0.25056000  1
  P  P1  1  0.74116600  0.24634500  0.75056400  1
  P  P2  1  0.23885500  0.74628500  0.24938100  1
  P  P3  1  0.24122400  0.74634600  0.74939500  1
  O  O0  1  0.73848500  0.05662200  0.14229900  1
  O  O1  1  0.74174700  0.05662900  0.64230500  1
  O  O2  1  0.23845800  0.55656400  0.35766900  1
  O  O3  1  0.24164900  0.55660700  0.85765000  1
  O  O4  1  0.73927200  0.76486500  0.41786200  1
  O  O5  1  0.74098200  0.76498000  0.91793000  1
  O  O6  1  0.23904900  0.26493400  0.08212700  1
  O  O7  1  0.24065800  0.26482000  0.58217400  1
  O  O8  1  0.73892600  0.43835700  0.14424100  1
  O  O9  1  0.74082000  0.43840800  0.64425400  1
  O  O10  1  0.23914900  0.93834900  0.35570700  1
  O  O11  1  0.24085300  0.93839100  0.85572900  1
  O  O12  1  0.93036200  0.24514000  0.35788700  1
  O  O13  1  0.93215200  0.24438700  0.85843200  1
  O  O14  1  0.54770300  0.24416100  0.35838300  1
  O  O15  1  0.54951300  0.24492200  0.85781600  1
  O  O16  1  0.43047400  0.74502900  0.14206400  1
  O  O17  1  0.43234100  0.74439400  0.64162900  1
  O  O18  1  0.04779300  0.74427200  0.14158700  1
  O  O19  1  0.04961100  0.74505100  0.64205800  1
loop_
_geom_bond_atom_site_label_1
_geom_bond_atom_site_label_2
_geom_bond_distance
_geom_bond_site_symmetry_2
Li0 O18 2.076165 1_555
Li0 O13 2.087584 1_454
Li0 O8 2.091155 1_455
Li0 O3 2.101882 1_554
Li0 O6 2.138947 1_555
Li1 O2 2.070532 1_555
Li1 O12 2.077637 1_455
Li1 O9 2.090703 1_455
Li1 O19 2.090721 1_555
Li1 O7 2.164525 1_555
Li2 O1 2.068532 1_565
Li2 O19 2.078629 1_655
Li2 O12 2.090563 1_565
Li2 O10 2.091714 1_655
Li2 O4 2.164463 1_555
Li3 O13 2.075882 1_565
Li3 O18 2.088937 1_656
Li3 O11 2.091519 1_655
Li3 O0 2.099386 1_566
Li3 O5 2.138516 1_555
Li4 O14 2.075417 1_565
Li4 O17 2.088954 1_555
Li4 O10 2.091796 1_555
Li4 O1 2.101606 1_565
Li4 O4 2.135072 1_555
Li5 O0 2.070051 1_566
Li5 O16 2.079330 1_556
Li5 O15 2.089733 1_565
Li5 O11 2.091917 1_555
Li5 O5 2.161060 1_555
Li6 O3 2.070208 1_554
Li6 O15 2.079785 1_554
Li6 O8 2.090303 1_555
Li6 O16 2.090861 1_555
Li6 O6 2.159806 1_555
Li7 O17 2.076892 1_555
Li7 O14 2.089520 1_555
Li7 O9 2.090119 1_555
Li7 O2 2.101397 1_555
Li7 O7 2.137961 1_555
O0 P0 1.546907 1_555
O0 V2 2.093989 1_545
O1 P1 1.547016 1_555
O1 V0 2.093388 1_545
O2 P2 1.547159 1_555
O2 V1 2.093576 1_555
O3 P3 1.547099 1_555
O3 V3 2.093606 1_555
O4 V2 1.903449 1_555
O4 V0 2.232407 1_555
O5 V0 1.903190 1_555
O5 V2 2.231118 1_556
O6 V1 1.904131 1_555
O6 V3 2.231137 1_554
O7 V3 1.903550 1_555
O7 V1 2.231358 1_555
O8 P0 1.550517 1_555
O8 V2 2.085958 1_555
O9 P1 1.550603 1_555
O9 V0 2.086536 1_555
O10 P2 1.550702 1_555
O10 V1 2.085728 1_565
O11 P3 1.550636 1_555
O11 V3 2.085754 1_565
O12 P0 1.550205 1_555
O12 V1 2.080944 1_655
O13 P1 1.549422 1_555
O13 V3 2.086838 1_655
O14 P0 1.549634 1_555
O14 V1 2.086677 1_555
O15 P1 1.550166 1_555
O15 V3 2.080930 1_555
O16 P2 1.550281 1_555
O16 V2 2.081220 1_555
O17 P3 1.549705 1_555
O17 V0 2.086866 1_555
O18 P2 1.549488 1_555
O18 V2 2.086580 1_455
O19 P3 1.550289 1_555
O19 V0 2.080862 1_455
