# generated using pymatgen
data_V3CrNi2(PO4)6
_symmetry_space_group_name_H-M   'P 1'
_cell_length_a   8.46686384
_cell_length_b   8.59776583
_cell_length_c   8.59776590
_cell_angle_alpha   60.00000254
_cell_angle_beta   59.48723904
_cell_angle_gamma   59.48723427
_symmetry_Int_Tables_number   1
_chemical_formula_structural   V3CrNi2(PO4)6
_chemical_formula_sum   'V3 Cr1 Ni2 P6 O24'
_cell_volume   439.10563248
_cell_formula_units_Z   1
loop_
 _symmetry_equiv_pos_site_id
 _symmetry_equiv_pos_as_xyz
  1  'x, y, z'
loop_
 _atom_site_type_symbol
 _atom_site_label
 _atom_site_symmetry_multiplicity
 _atom_site_fract_x
 _atom_site_fract_y
 _atom_site_fract_z
 _atom_site_occupancy
  V  V0  1  0.07223400  0.64258900  0.64258900  1
  V  V1  1  0.42670700  0.85776400  0.85776400  1
  V  V2  1  0.92525400  0.35824800  0.35824800  1
  Cr  Cr0  1  0.57671100  0.14109600  0.14109600  1
  Ni  Ni0  1  0.99974000  0.00008700  0.00008700  1
  Ni  Ni1  1  0.49817000  0.50061000  0.50061000  1
  P  P0  1  0.25208000  0.24926400  0.54234000  1
  P  P1  1  0.25208000  0.95631500  0.24926400  1
  P  P2  1  0.25208000  0.54234000  0.95631500  1
  P  P3  1  0.74806800  0.45738100  0.04381700  1
  P  P4  1  0.74806800  0.04381700  0.75073400  1
  P  P5  1  0.74806800  0.75073400  0.45738100  1
  O  O0  1  0.06690300  0.11091800  0.31583300  1
  O  O1  1  0.06690300  0.50634500  0.11091800  1
  O  O2  1  0.06690300  0.31583300  0.50634500  1
  O  O3  1  0.23201000  0.08605500  0.74245400  1
  O  O4  1  0.43789200  0.18514500  0.38690900  1
  O  O5  1  0.26892500  0.41181100  0.56381200  1
  O  O6  1  0.23201000  0.93948000  0.08605500  1
  O  O7  1  0.26892500  0.75545200  0.41181100  1
  O  O8  1  0.56426100  0.61795600  0.99944200  1
  O  O9  1  0.26892500  0.56381200  0.75545200  1
  O  O10  1  0.77766800  0.25985500  0.05270500  1
  O  O11  1  0.56426100  0.99944200  0.81834200  1
  O  O12  1  0.43789200  0.99005500  0.18514500  1
  O  O13  1  0.23201000  0.74245400  0.93948000  1
  O  O14  1  0.71923600  0.44550000  0.24146800  1
  O  O15  1  0.43789200  0.38690900  0.99005500  1
  O  O16  1  0.71923600  0.24146800  0.59379600  1
  O  O17  1  0.77766800  0.05270500  0.90977400  1
  O  O18  1  0.71923600  0.59379600  0.44550000  1
  O  O19  1  0.56426100  0.81834200  0.61795600  1
  O  O20  1  0.77766800  0.90977400  0.25985500  1
  O  O21  1  0.93335100  0.68050300  0.50194000  1
  O  O22  1  0.93335100  0.50194000  0.88420600  1
  O  O23  1  0.93335100  0.88420600  0.68050300  1
loop_
_geom_bond_atom_site_label_1
_geom_bond_atom_site_label_2
_geom_bond_distance
_geom_bond_site_symmetry_2
Cr0 O12 1.953820 1_545
Cr0 O15 1.953828 1_554
Cr0 O4 1.953835 1_555
Cr0 O17 2.046998 1_554
Cr0 O20 2.047010 1_545
Cr0 O10 2.047018 1_555
Ni0 O17 2.147200 1_554
Ni0 O20 2.147204 1_545
Ni0 O10 2.147206 1_555
Ni0 O6 2.176154 1_645
Ni0 O3 2.176161 1_654
Ni0 O13 2.176166 1_644
Ni1 O16 2.147652 1_555
Ni1 O14 2.147652 1_555
Ni1 O18 2.147652 1_555
Ni1 O7 2.159745 1_555
Ni1 O9 2.159745 1_555
Ni1 O5 2.159745 1_555
O0 P1 1.511927 1_545
O0 V2 1.958285 1_455
O1 P2 1.511927 1_554
O1 V2 1.958289 1_455
O2 P0 1.511927 1_555
O2 V2 1.958293 1_455
O3 P0 1.577692 1_555
O3 V1 1.995225 1_545
O4 P0 1.511933 1_555
O5 P0 1.579458 1_555
O5 V0 2.003038 1_555
O6 P1 1.577692 1_555
O6 V1 1.995225 1_554
O7 P1 1.579453 1_555
O7 V0 2.003034 1_555
O8 P3 1.538824 1_556
O8 V1 1.892606 1_555
O9 P2 1.579450 1_555
O9 V0 2.003031 1_555
O10 P3 1.552508 1_555
O11 P4 1.538822 1_565
O11 V1 1.892614 1_555
O12 P1 1.511942 1_555
O13 P2 1.577692 1_555
O13 V1 1.995225 1_555
O14 P3 1.545419 1_555
O14 V2 2.076059 1_555
O15 P2 1.511938 1_555
O16 P4 1.545419 1_555
O16 V2 2.076065 1_555
O17 P4 1.552525 1_555
O18 P5 1.545419 1_555
O18 V2 2.076072 1_555
O19 P5 1.538827 1_555
O19 V1 1.892599 1_555
O20 P5 1.552515 1_555
O21 P5 1.545789 1_555
O21 V0 1.900492 1_655
O22 P3 1.545789 1_556
O22 V0 1.900488 1_655
O23 P4 1.545788 1_565
O23 V0 1.900484 1_655
