# generated using pymatgen
data_Li4Co5SbO12
_symmetry_space_group_name_H-M   'P 1'
_cell_length_a   5.01212921
_cell_length_b   5.01212921
_cell_length_c   9.88437596
_cell_angle_alpha   87.72992332
_cell_angle_beta   87.72992332
_cell_angle_gamma   120.27032393
_symmetry_Int_Tables_number   1
_chemical_formula_structural   Li4Co5SbO12
_chemical_formula_sum   'Li4 Co5 Sb1 O12'
_cell_volume   213.77484325
_cell_formula_units_Z   1
loop_
 _symmetry_equiv_pos_site_id
 _symmetry_equiv_pos_as_xyz
  1  'x, y, z'
loop_
 _atom_site_type_symbol
 _atom_site_label
 _atom_site_symmetry_multiplicity
 _atom_site_fract_x
 _atom_site_fract_y
 _atom_site_fract_z
 _atom_site_occupancy
  Li  Li0  1  0.46842200  0.80271700  0.71659400  1
  Li  Li1  1  0.19728300  0.53157800  0.28340600  1
  Li  Li2  1  0.80271700  0.46842200  0.71659400  1
  Li  Li3  1  0.53157800  0.19728300  0.28340600  1
  Co  Co0  1  0.16471200  0.83528800  0.50000000  1
  Co  Co1  1  0.66612000  0.33388000  0.00000000  1
  Co  Co2  1  0.33388000  0.66612000  0.00000000  1
  Co  Co3  1  0.83528800  0.16471200  0.50000000  1
  Co  Co4  1  0.50000000  0.50000000  0.50000000  1
  Sb  Sb0  1  0.00000000  0.00000000  0.00000000  1
  O  O0  1  0.32997600  0.98409900  0.10433900  1
  O  O1  1  0.01590100  0.67002400  0.89566100  1
  O  O2  1  0.50906600  0.84898200  0.39775200  1
  O  O3  1  0.84898200  0.50906600  0.39775200  1
  O  O4  1  0.15101800  0.49093400  0.60224800  1
  O  O5  1  0.81076400  0.81076400  0.60352500  1
  O  O6  1  0.49093400  0.15101800  0.60224800  1
  O  O7  1  0.98409900  0.32997500  0.10433900  1
  O  O8  1  0.63494400  0.63494400  0.10335800  1
  O  O9  1  0.67002500  0.01590100  0.89566100  1
  O  O10  1  0.36505600  0.36505600  0.89664200  1
  O  O11  1  0.18923600  0.18923600  0.39647500  1
loop_
_geom_bond_atom_site_label_1
_geom_bond_atom_site_label_2
_geom_bond_distance
_geom_bond_site_symmetry_2
Li0 O5 1.992390 1_555
Li0 O6 1.993176 1_565
Li0 O4 2.006578 1_555
Li0 O9 2.120972 1_565
Li0 O10 2.592198 1_555
Li1 O11 1.992390 1_555
Li1 O3 1.993176 1_455
Li1 O2 2.006578 1_555
Li1 O7 2.120972 1_455
Li1 O8 2.592198 1_555
Li2 O5 1.992390 1_555
Li2 O4 1.993176 1_655
Li2 O6 2.006578 1_555
Li2 O1 2.120971 1_655
Li2 O10 2.592198 1_555
Li3 O11 1.992390 1_555
Li3 O2 1.993176 1_545
Li3 O3 2.006578 1_555
Li3 O0 2.120971 1_545
Li3 O8 2.592198 1_555
Co0 O4 1.934405 1_555
Co0 O2 1.934405 1_555
Co0 O5 1.958517 1_455
Co0 O11 1.958517 1_565
Co0 O3 1.961670 1_455
Co0 O6 1.961670 1_565
Co1 O8 1.921544 1_555
Co1 O10 1.921544 1_554
Co1 O0 1.927956 1_545
Co1 O1 1.927956 1_654
Co1 O7 1.940135 1_555
Co1 O9 1.940135 1_554
Co2 O8 1.921544 1_555
Co2 O10 1.921544 1_554
Co2 O7 1.927958 1_455
Co2 O9 1.927958 1_564
Co2 O0 1.940133 1_555
Co2 O1 1.940133 1_554
Co3 O6 1.934405 1_555
Co3 O3 1.934405 1_555
Co3 O5 1.958517 1_545
Co3 O11 1.958517 1_655
Co3 O2 1.961670 1_545
Co3 O4 1.961670 1_655
Co4 O5 1.925076 1_555
Co4 O11 1.925076 1_555
Co4 O2 1.964480 1_555
Co4 O3 1.964480 1_555
Co4 O6 1.964480 1_555
Co4 O4 1.964480 1_555
O0 Sb0 2.016634 1_565
O1 Sb0 2.016634 1_566
O7 Sb0 2.016629 1_655
O8 Sb0 2.016945 1_665
O9 Sb0 2.016629 1_656
O10 Sb0 2.016945 1_556
