# generated using pymatgen
data_Li5Mn8(BO3)8
_symmetry_space_group_name_H-M   'P 1'
_cell_length_a   5.28695300
_cell_length_b   5.31174003
_cell_length_c   20.26331405
_cell_angle_alpha   90.78201234
_cell_angle_beta   91.47462900
_cell_angle_gamma   118.49217820
_symmetry_Int_Tables_number   1
_chemical_formula_structural   Li5Mn8(BO3)8
_chemical_formula_sum   'Li5 Mn8 B8 O24'
_cell_volume   499.74726912
_cell_formula_units_Z   1
loop_
 _symmetry_equiv_pos_site_id
 _symmetry_equiv_pos_as_xyz
  1  'x, y, z'
loop_
 _atom_site_type_symbol
 _atom_site_label
 _atom_site_symmetry_multiplicity
 _atom_site_fract_x
 _atom_site_fract_y
 _atom_site_fract_z
 _atom_site_occupancy
  Li  Li0  1  0.88517900  0.84504000  0.66107300  1
  Li  Li1  1  0.81744900  0.86811800  0.42181100  1
  Li  Li2  1  0.83989300  0.86077600  0.91749900  1
  Li  Li3  1  0.18052400  0.16361500  0.05231500  1
  Li  Li4  1  0.12727800  0.13551900  0.28872900  1
  Mn  Mn0  1  0.80103600  0.49312200  0.30885000  1
  Mn  Mn1  1  0.83798200  0.47840500  0.81045500  1
  Mn  Mn2  1  0.48183400  0.18956400  0.43711300  1
  Mn  Mn3  1  0.50294100  0.18386700  0.93648400  1
  Mn  Mn4  1  0.53485600  0.83402500  0.06277900  1
  Mn  Mn5  1  0.47148100  0.82317600  0.56043100  1
  Mn  Mn6  1  0.17082300  0.52121500  0.18475200  1
  Mn  Mn7  1  0.20066700  0.49100000  0.68763100  1
  B  B0  1  0.85821400  0.50209300  0.06332100  1
  B  B1  1  0.84149000  0.48507200  0.56291300  1
  B  B2  1  0.49095200  0.15299600  0.18780000  1
  B  B3  1  0.51710900  0.15096500  0.68539200  1
  B  B4  1  0.47901900  0.84456100  0.31021700  1
  B  B5  1  0.50294100  0.85009400  0.81354000  1
  B  B6  1  0.13638000  0.50888600  0.43660200  1
  B  B7  1  0.17081600  0.50835100  0.93740100  1
  O  O0  1  0.90173700  0.54449200  0.41535200  1
  O  O1  1  0.93563100  0.53463400  0.90908700  1
  O  O2  1  0.75866000  0.38051800  0.20683800  1
  O  O3  1  0.88976800  0.76874600  0.05781900  1
  O  O4  1  0.76673200  0.39081100  0.71267000  1
  O  O5  1  0.60452500  0.25654500  0.04337300  1
  O  O6  1  0.62843200  0.22503400  0.53617100  1
  O  O7  1  0.44443400  0.07812000  0.33027200  1
  O  O8  1  0.79904300  0.71630200  0.56849900  1
  O  O9  1  0.50966900  0.10955300  0.83272400  1
  O  O10  1  0.73738000  0.84797300  0.31918300  1
  O  O11  1  0.73494400  0.80790800  0.82169600  1
  O  O12  1  0.24527100  0.17418000  0.19393400  1
  O  O13  1  0.25925300  0.13970100  0.68365200  1
  O  O14  1  0.48802500  0.90010800  0.16574400  1
  O  O15  1  0.55397100  0.92214000  0.65855400  1
  O  O16  1  0.38896800  0.75623800  0.46212800  1
  O  O17  1  0.13144600  0.25336900  0.43116600  1
  O  O18  1  0.42274600  0.75607800  0.95597400  1
  O  O19  1  0.23419500  0.59751800  0.28306500  1
  O  O20  1  0.14080700  0.24115100  0.94863300  1
  O  O21  1  0.24336000  0.63685400  0.78569100  1
  O  O22  1  0.09502900  0.46415200  0.08775400  1
  O  O23  1  0.10249300  0.49742000  0.58477100  1
loop_
_geom_bond_atom_site_label_1
_geom_bond_atom_site_label_2
_geom_bond_distance
_geom_bond_site_symmetry_2
Li0 O13 1.884409 1_665
Li0 O8 1.953905 1_555
Li0 O15 1.979085 1_555
Li0 O4 2.442877 1_555
Li1 O17 1.926520 1_665
Li1 O0 1.974451 1_555
Li1 O10 2.102550 1_555
Li1 O16 2.230809 1_555
Li2 O20 1.964190 1_665
Li2 O11 1.984022 1_555
Li2 O1 2.029625 1_555
Li2 O18 2.170531 1_555
Li3 O3 1.927118 1_445
Li3 O22 1.985512 1_555
Li3 O5 2.066209 1_555
Li3 O20 2.170504 1_554
Li4 O7 2.008810 1_555
Li4 O10 2.012519 1_445
Li4 O12 2.017734 1_555
Li4 O19 2.245543 1_555
Mn0 O10 2.075556 1_555
Mn0 O2 2.120240 1_555
Mn0 O19 2.164003 1_655
Mn0 O7 2.169174 1_555
Mn0 O0 2.191214 1_555
Mn1 O9 1.968500 1_555
Mn1 O21 1.974698 1_655
Mn1 O4 2.013385 1_555
Mn1 O1 2.033143 1_555
Mn1 O11 2.077772 1_555
Mn2 O17 2.037085 1_555
Mn2 O6 2.106068 1_555
Mn2 O0 2.181078 1_555
Mn2 O16 2.182280 1_545
Mn2 O7 2.215366 1_555
Mn3 O20 2.096867 1_555
Mn3 O9 2.138287 1_555
Mn3 O18 2.147797 1_545
Mn3 O5 2.201863 1_556
Mn3 O1 2.244973 1_555
Mn4 O3 2.068993 1_555
Mn4 O5 2.137779 1_565
Mn4 O14 2.151080 1_555
Mn4 O18 2.209521 1_554
Mn4 O22 2.291777 1_555
Mn5 O6 1.961202 1_565
Mn5 O23 1.973644 1_555
Mn5 O16 2.018051 1_555
Mn5 O15 2.031740 1_555
Mn5 O8 2.067385 1_555
Mn6 O14 1.960997 1_555
Mn6 O22 1.985689 1_555
Mn6 O2 2.003200 1_455
Mn6 O19 2.014752 1_555
Mn6 O12 2.070107 1_555
Mn7 O13 2.032990 1_555
Mn7 O21 2.089850 1_555
Mn7 O23 2.139616 1_555
Mn7 O4 2.169423 1_455
Mn7 O15 2.256770 1_555
B0 O3 1.351390 1_555
B0 O5 1.397197 1_555
B0 O22 1.436965 1_655
B1 O8 1.353596 1_555
B1 O6 1.390704 1_555
B1 O23 1.409265 1_655
B2 O12 1.364784 1_555
B2 O2 1.392779 1_555
B2 O14 1.402782 1_545
B3 O13 1.335284 1_555
B3 O4 1.417539 1_555
B3 O15 1.422843 1_545
B4 O10 1.364791 1_555
B4 O7 1.394334 1_565
B4 O19 1.422385 1_555
B5 O11 1.354569 1_555
B5 O21 1.394441 1_555
B5 O9 1.410549 1_565
B6 O17 1.347927 1_555
B6 O0 1.399542 1_455
B6 O16 1.431448 1_555
B7 O20 1.373759 1_555
B7 O18 1.391301 1_555
B7 O1 1.423315 1_455
