# generated using pymatgen
data_Li4Mn3Ni3(WO8)2
_symmetry_space_group_name_H-M   'P 1'
_cell_length_a   5.97486612
_cell_length_b   5.97486612
_cell_length_c   9.75196826
_cell_angle_alpha   88.85386716
_cell_angle_beta   88.85386716
_cell_angle_gamma   58.94384210
_symmetry_Int_Tables_number   1
_chemical_formula_structural   Li4Mn3Ni3(WO8)2
_chemical_formula_sum   'Li4 Mn3 Ni3 W2 O16'
_cell_volume   298.15597798
_cell_formula_units_Z   1
loop_
 _symmetry_equiv_pos_site_id
 _symmetry_equiv_pos_as_xyz
  1  'x, y, z'
loop_
 _atom_site_type_symbol
 _atom_site_label
 _atom_site_symmetry_multiplicity
 _atom_site_fract_x
 _atom_site_fract_y
 _atom_site_fract_z
 _atom_site_occupancy
  Li  Li0  1  0.65971800  0.65971800  0.90490500  1
  Li  Li1  1  0.99768600  0.99768600  0.98599900  1
  Li  Li2  1  0.00697200  0.00697200  0.49179700  1
  Li  Li3  1  0.33962500  0.33962500  0.41327800  1
  Mn  Mn0  1  0.83509000  0.33957800  0.21545900  1
  Mn  Mn1  1  0.33957800  0.83509000  0.21545900  1
  Mn  Mn2  1  0.17248600  0.17248600  0.71517200  1
  Ni  Ni0  1  0.82904100  0.82904100  0.21334200  1
  Ni  Ni1  1  0.66357400  0.17151600  0.71226400  1
  Ni  Ni2  1  0.17151600  0.66357400  0.71226400  1
  W  W0  1  0.68320600  0.68320600  0.48927300  1
  W  W1  1  0.33356800  0.33356800  0.98200800  1
  O  O0  1  0.84266200  0.34824300  0.59186600  1
  O  O1  1  0.52480400  0.52480400  0.34529000  1
  O  O2  1  0.65942400  0.65942400  0.11171500  1
  O  O3  1  0.00182200  0.00182200  0.30272700  1
  O  O4  1  0.00740600  0.00740600  0.80075600  1
  O  O5  1  0.34824300  0.84266200  0.59186600  1
  O  O6  1  0.97025500  0.52260300  0.35736800  1
  O  O7  1  0.52260300  0.97025500  0.35736800  1
  O  O8  1  0.16177200  0.16177200  0.09207300  1
  O  O9  1  0.83384700  0.83384700  0.58956900  1
  O  O10  1  0.45954000  0.03283600  0.84345400  1
  O  O11  1  0.03283600  0.45954000  0.84345400  1
  O  O12  1  0.32893900  0.32893900  0.61304300  1
  O  O13  1  0.64546200  0.15270200  0.08075400  1
  O  O14  1  0.47558900  0.47558900  0.85461700  1
  O  O15  1  0.15270200  0.64546200  0.08075400  1
loop_
_geom_bond_atom_site_label_1
_geom_bond_atom_site_label_2
_geom_bond_distance
_geom_bond_site_symmetry_2
Li0 O14 1.988232 1_555
Li0 O10 1.995929 1_565
Li0 O11 1.995929 1_655
Li0 O2 2.016737 1_556
Li1 O4 1.806991 1_665
Li1 O8 2.016238 1_666
Li1 O15 2.021376 1_656
Li1 O13 2.021376 1_566
Li2 O3 1.845813 1_555
Li2 O0 2.012398 1_455
Li2 O5 2.012398 1_545
Li2 O9 2.018443 1_445
Li3 O12 1.948720 1_555
Li3 O7 1.974330 1_545
Li3 O6 1.974330 1_455
Li3 O1 2.022935 1_555
Mn0 O2 1.916478 1_555
Mn0 O3 1.918379 1_655
Mn0 O1 2.027336 1_555
Mn0 O8 2.050368 1_655
Mn0 O6 2.186242 1_555
Mn0 O13 2.383170 1_555
Mn1 O2 1.916478 1_555
Mn1 O3 1.918379 1_565
Mn1 O1 2.027336 1_555
Mn1 O8 2.050368 1_565
Mn1 O7 2.186242 1_555
Mn1 O15 2.383170 1_555
Mn2 O12 1.888562 1_555
Mn2 O4 1.892129 1_555
Mn2 O10 1.941745 1_555
Mn2 O11 1.941745 1_555
Mn2 O0 2.083584 1_455
Mn2 O5 2.083584 1_545
Ni0 O3 2.015655 1_665
Ni0 O2 2.043614 1_555
Ni0 O15 2.093524 1_655
Ni0 O13 2.093524 1_565
Ni0 O6 2.094651 1_555
Ni0 O7 2.094651 1_555
Ni1 O4 1.971107 1_655
Ni1 O12 1.979699 1_555
Ni1 O14 2.102991 1_555
Ni1 O9 2.113583 1_545
Ni1 O0 2.168954 1_555
Ni1 O10 2.178732 1_555
Ni2 O4 1.971107 1_565
Ni2 O12 1.979699 1_555
Ni2 O14 2.102991 1_555
Ni2 O9 2.113583 1_455
Ni2 O5 2.168954 1_555
Ni2 O11 2.178732 1_555
O0 W0 1.976063 1_555
O1 W0 2.189409 1_555
O5 W0 1.976063 1_555
O6 W0 1.944235 1_555
O7 W0 1.944235 1_555
O8 W1 2.063550 1_554
O9 W0 1.866315 1_555
O10 W1 2.069267 1_555
O11 W1 2.069267 1_555
O13 W1 1.876227 1_554
O14 W1 1.908404 1_555
O15 W1 1.876227 1_554
