# generated using pymatgen
data_Li4V2Co3Ni3O16
_symmetry_space_group_name_H-M   'P 1'
_cell_length_a   5.84253089
_cell_length_b   5.84253089
_cell_length_c   9.35876972
_cell_angle_alpha   88.89987997
_cell_angle_beta   88.89987997
_cell_angle_gamma   59.32634595
_symmetry_Int_Tables_number   1
_chemical_formula_structural   Li4V2Co3Ni3O16
_chemical_formula_sum   'Li4 V2 Co3 Ni3 O16'
_cell_volume   274.69902169
_cell_formula_units_Z   1
loop_
 _symmetry_equiv_pos_site_id
 _symmetry_equiv_pos_as_xyz
  1  'x, y, z'
loop_
 _atom_site_type_symbol
 _atom_site_label
 _atom_site_symmetry_multiplicity
 _atom_site_fract_x
 _atom_site_fract_y
 _atom_site_fract_z
 _atom_site_occupancy
  Li  Li0  1  0.33565700  0.33565700  0.90066800  1
  Li  Li1  1  0.99411900  0.99411900  0.99045400  1
  Li  Li2  1  0.99206100  0.99206100  0.49632700  1
  Li  Li3  1  0.67099300  0.67099300  0.39843800  1
  V  V0  1  0.33233100  0.33233100  0.49931200  1
  V  V1  1  0.64721700  0.64721700  0.98709500  1
  Co  Co0  1  0.16536700  0.65426200  0.21580100  1
  Co  Co1  1  0.65426200  0.16536700  0.21580100  1
  Co  Co2  1  0.82384500  0.82384500  0.72274900  1
  Ni  Ni0  1  0.16846400  0.16846400  0.21327900  1
  Ni  Ni1  1  0.34114300  0.82907100  0.71172900  1
  Ni  Ni2  1  0.82907100  0.34114300  0.71172900  1
  O  O0  1  0.16879200  0.64652700  0.59157800  1
  O  O1  1  0.47830800  0.47830800  0.33290000  1
  O  O2  1  0.34406600  0.34406600  0.11092700  1
  O  O3  1  0.98814400  0.98814400  0.30267900  1
  O  O4  1  0.98857400  0.98857400  0.79777000  1
  O  O5  1  0.64652700  0.16879200  0.59157800  1
  O  O6  1  0.04416900  0.49553800  0.34316300  1
  O  O7  1  0.49553800  0.04416900  0.34316300  1
  O  O8  1  0.83403100  0.83403100  0.10635700  1
  O  O9  1  0.17147200  0.17147200  0.57653900  1
  O  O10  1  0.53901500  0.95841800  0.84882800  1
  O  O11  1  0.95841800  0.53901500  0.84882800  1
  O  O12  1  0.67882800  0.67882800  0.60848400  1
  O  O13  1  0.34031500  0.82280400  0.09169100  1
  O  O14  1  0.52108600  0.52108600  0.85805500  1
  O  O15  1  0.82280400  0.34031500  0.09169100  1
loop_
_geom_bond_atom_site_label_1
_geom_bond_atom_site_label_2
_geom_bond_distance
_geom_bond_site_symmetry_2
Li0 O14 1.915930 1_555
Li0 O10 1.962622 1_545
Li0 O11 1.962622 1_455
Li0 O2 1.971501 1_556
Li1 O4 1.805407 1_555
Li1 O8 1.934140 1_556
Li1 O15 1.990535 1_566
Li1 O13 1.990535 1_656
Li2 O3 1.813622 1_555
Li2 O5 1.943133 1_565
Li2 O0 1.943133 1_655
Li2 O9 1.985578 1_665
Li3 O7 1.941336 1_565
Li3 O6 1.941336 1_655
Li3 O12 1.969137 1_555
Li3 O1 2.063254 1_555
Co0 O6 1.837735 1_555
Co0 O2 1.853725 1_555
Co0 O3 1.872497 1_455
Co0 O1 1.927872 1_555
Co0 O8 1.964707 1_455
Co0 O13 2.073880 1_555
Co1 O7 1.837735 1_555
Co1 O2 1.853725 1_555
Co1 O3 1.872497 1_545
Co1 O1 1.927872 1_555
Co1 O8 1.964707 1_545
Co1 O15 2.073880 1_555
Co2 O4 1.828246 1_555
Co2 O12 1.838833 1_555
Co2 O10 1.845272 1_555
Co2 O11 1.845272 1_555
Co2 O5 2.113180 1_565
Co2 O0 2.113180 1_655
Ni0 O3 1.996146 1_445
Ni0 O2 2.005298 1_555
Ni0 O6 2.072690 1_555
Ni0 O7 2.072690 1_555
Ni0 O15 2.087337 1_455
Ni0 O13 2.087337 1_545
Ni1 O4 1.940763 1_455
Ni1 O12 1.946539 1_555
Ni1 O14 2.061313 1_555
Ni1 O9 2.124390 1_565
Ni1 O10 2.130606 1_555
Ni1 O0 2.145027 1_555
Ni2 O4 1.940763 1_545
Ni2 O12 1.946539 1_555
Ni2 O14 2.061313 1_555
Ni2 O9 2.124390 1_655
Ni2 O11 2.130606 1_555
Ni2 O5 2.145027 1_555
O0 V0 1.807754 1_555
O1 V0 2.126140 1_555
O5 V0 1.807754 1_555
O6 V0 2.069377 1_555
O7 V0 2.069377 1_555
O8 V1 2.222029 1_554
O9 V0 1.771421 1_555
O10 V1 2.036733 1_555
O11 V1 2.036733 1_555
O13 V1 1.822127 1_554
O14 V1 1.779599 1_555
O15 V1 1.822127 1_554
