# generated using pymatgen
data_Fe3OF5
_symmetry_space_group_name_H-M   'P 1'
_cell_length_a   7.31584912
_cell_length_b   5.79605232
_cell_length_c   5.79605232
_cell_angle_alpha   74.14564015
_cell_angle_beta   74.15262157
_cell_angle_gamma   74.15262157
_symmetry_Int_Tables_number   1
_chemical_formula_structural   Fe3OF5
_chemical_formula_sum   'Fe6 O2 F10'
_cell_volume   222.14273787
_cell_formula_units_Z   2
loop_
 _symmetry_equiv_pos_site_id
 _symmetry_equiv_pos_as_xyz
  1  'x, y, z'
loop_
 _atom_site_type_symbol
 _atom_site_label
 _atom_site_symmetry_multiplicity
 _atom_site_fract_x
 _atom_site_fract_y
 _atom_site_fract_z
 _atom_site_occupancy
  Fe  Fe0  1  0.83647800  0.67079600  0.67079600  1
  Fe  Fe1  1  0.66666700  0.33333300  0.33333300  1
  Fe  Fe2  1  0.32089700  0.64567100  0.64567100  1
  Fe  Fe3  1  0.16666700  0.33333300  0.33333300  1
  Fe  Fe4  1  0.49685600  0.99587000  0.99587000  1
  Fe  Fe5  1  0.01243700  0.02099600  0.02099600  1
  O  O0  1  0.95031900  0.25157100  0.25157100  1
  O  O1  1  0.38301400  0.41509600  0.41509600  1
  F  F0  1  0.66666700  0.03582300  0.63084400  1
  F  F1  1  0.31734200  0.35730300  0.97907000  1
  F  F2  1  0.30895000  0.88062700  0.88062700  1
  F  F3  1  0.64132300  0.55980000  0.55980000  1
  F  F4  1  0.02438300  0.78604000  0.78604000  1
  F  F5  1  0.69201000  0.10686600  0.10686600  1
  F  F6  1  0.31734200  0.97907000  0.35730300  1
  F  F7  1  0.66666700  0.63084400  0.03582300  1
  F  F8  1  0.01599200  0.30936400  0.68759600  1
  F  F9  1  0.01599200  0.68759600  0.30936400  1
loop_
_geom_bond_atom_site_label_1
_geom_bond_atom_site_label_2
_geom_bond_distance
_geom_bond_site_symmetry_2
Fe1 O0 1.950372 1_555
Fe1 O1 1.950379 1_555
Fe2 O1 2.022636 1_555
Fe3 O1 1.973910 1_555
Fe3 O0 1.973911 1_455
Fe5 O0 2.022635 1_455
F0 Fe1 2.079022 1_555
F0 Fe4 2.127704 1_545
F0 Fe0 2.127709 1_545
F1 Fe3 2.035229 1_556
F1 Fe4 2.139763 1_545
F1 Fe2 2.181737 1_555
F2 Fe4 2.007204 1_555
F2 Fe5 2.112667 1_566
F2 Fe2 2.144765 1_555
F3 Fe0 2.023759 1_555
F3 Fe1 2.038591 1_555
F3 Fe2 2.202630 1_555
F4 Fe0 2.007205 1_455
F4 Fe2 2.112673 1_555
F4 Fe5 2.144767 1_566
F5 Fe4 2.023752 1_544
F5 Fe1 2.038593 1_555
F5 Fe5 2.202637 1_655
F6 Fe3 2.035229 1_565
F6 Fe4 2.139763 1_554
F6 Fe2 2.181737 1_555
F7 Fe1 2.079022 1_555
F7 Fe4 2.127704 1_554
F7 Fe0 2.127709 1_554
F8 Fe3 2.035230 1_555
F8 Fe0 2.139758 1_455
F8 Fe5 2.181741 1_556
F9 Fe3 2.035230 1_555
F9 Fe0 2.139758 1_455
F9 Fe5 2.181741 1_565
