# generated using pymatgen
data_Ho3ReO8
_symmetry_space_group_name_H-M   'P 1'
_cell_length_a   5.98263997
_cell_length_b   7.15798692
_cell_length_c   14.30003506
_cell_angle_alpha   68.61900870
_cell_angle_beta   90.00000000
_cell_angle_gamma   90.00000000
_symmetry_Int_Tables_number   1
_chemical_formula_structural   Ho3ReO8
_chemical_formula_sum   'Ho12 Re4 O32'
_cell_volume   570.23389204
_cell_formula_units_Z   4
loop_
 _symmetry_equiv_pos_site_id
 _symmetry_equiv_pos_as_xyz
  1  'x, y, z'
loop_
 _atom_site_type_symbol
 _atom_site_label
 _atom_site_symmetry_multiplicity
 _atom_site_fract_x
 _atom_site_fract_y
 _atom_site_fract_z
 _atom_site_occupancy
  Ho  Ho0  1  0.19988439  0.33850468  0.94497242  1
  Ho  Ho1  1  0.74237955  0.59391034  0.79781154  1
  Ho  Ho2  1  0.68994226  0.10770524  0.83270343  1
  Ho  Ho3  1  0.18994226  0.89229476  0.66729657  1
  Ho  Ho4  1  0.24237955  0.40608966  0.70218846  1
  Ho  Ho5  1  0.69988439  0.66149532  0.55502758  1
  Ho  Ho6  1  0.30011561  0.33850468  0.44497242  1
  Ho  Ho7  1  0.75762045  0.59391034  0.29781154  1
  Ho  Ho8  1  0.81005774  0.10770524  0.33270343  1
  Ho  Ho9  1  0.31005774  0.89229476  0.16729657  1
  Ho  Ho10  1  0.25762045  0.40608966  0.20218846  1
  Ho  Ho11  1  0.80011561  0.66149532  0.05502758  1
  Re  Re0  1  0.24588781  0.82088962  0.91030171  1
  Re  Re1  1  0.74588781  0.17911038  0.58969829  1
  Re  Re2  1  0.25411219  0.82088962  0.41030171  1
  Re  Re3  1  0.75411219  0.17911038  0.08969829  1
  O  O0  1  0.30266800  0.97826416  0.98161959  1
  O  O1  1  0.94549134  0.87953672  0.91119984  1
  O  O2  1  0.80629202  0.41785925  0.97887685  1
  O  O3  1  0.54697453  0.74771691  0.90417252  1
  O  O4  1  0.14720866  0.66546220  0.82918316  1
  O  O5  1  0.47208459  0.35225126  0.84288229  1
  O  O6  1  0.97196606  0.31115828  0.82698750  1
  O  O7  1  0.79739231  0.96515900  0.71463395  1
  O  O8  1  0.29739231  0.03484100  0.78536605  1
  O  O9  1  0.47196606  0.68884172  0.67301250  1
  O  O10  1  0.97208459  0.64774874  0.65711771  1
  O  O11  1  0.64720866  0.33453780  0.67081684  1
  O  O12  1  0.19733200  0.97826416  0.48161959  1
  O  O13  1  0.04697453  0.25228309  0.59582748  1
  O  O14  1  0.30629202  0.58214075  0.52112315  1
  O  O15  1  0.44549134  0.12046328  0.58880016  1
  O  O16  1  0.55450866  0.87953672  0.41119984  1
  O  O17  1  0.69370798  0.41785925  0.47887685  1
  O  O18  1  0.95302547  0.74771691  0.40417252  1
  O  O19  1  0.80266800  0.02173584  0.51838041  1
  O  O20  1  0.35279134  0.66546220  0.32918316  1
  O  O21  1  0.02791541  0.35225126  0.34288229  1
  O  O22  1  0.52803394  0.31115828  0.32698750  1
  O  O23  1  0.70260769  0.96515900  0.21463395  1
  O  O24  1  0.20260769  0.03484100  0.28536605  1
  O  O25  1  0.02803394  0.68884172  0.17301250  1
  O  O26  1  0.52791541  0.64774874  0.15711771  1
  O  O27  1  0.85279134  0.33453780  0.17081684  1
  O  O28  1  0.45302547  0.25228309  0.09582748  1
  O  O29  1  0.19370798  0.58214075  0.02112315  1
  O  O30  1  0.05450866  0.12046328  0.08880016  1
  O  O31  1  0.69733200  0.02173584  0.01838041  1
loop_
_geom_bond_atom_site_label_1
_geom_bond_atom_site_label_2
_geom_bond_distance
_geom_bond_site_symmetry_2
Ho0 O5 2.165216 1_555
Ho0 O6 2.232712 1_455
Ho0 O30 2.254322 1_556
Ho0 O4 2.343656 1_555
Ho0 O29 2.369224 1_556
Ho0 O2 2.510622 1_455
Ho0 O0 2.513288 1_545
Ho0 O28 2.521380 1_556
Ho1 O5 2.282460 1_555
Ho1 O9 2.319412 1_555
Ho1 O10 2.349377 1_555
Ho1 O6 2.353993 1_555
Ho1 O2 2.461567 1_555
Ho1 O3 2.472449 1_555
Ho1 O7 2.506026 1_555
Ho1 O4 2.548907 1_655
Ho2 O6 2.210778 1_555
Ho2 O1 2.219938 1_545
Ho2 O5 2.229310 1_555
Ho2 O11 2.306546 1_555
Ho2 O7 2.358207 1_545
Ho2 O31 2.497860 1_556
Ho2 O3 2.548677 1_545
Ho2 O8 2.550111 1_555
Ho3 O9 2.210778 1_555
Ho3 O15 2.219938 1_565
Ho3 O10 2.229310 1_455
Ho3 O4 2.306546 1_555
Ho3 O8 2.358207 1_565
Ho3 O12 2.497860 1_555
Ho3 O13 2.548677 1_565
Ho3 O7 2.550111 1_455
Ho4 O10 2.282460 1_455
Ho4 O6 2.319412 1_455
Ho4 O5 2.349377 1_555
Ho4 O9 2.353993 1_555
Ho4 O14 2.461567 1_555
Ho4 O13 2.472449 1_555
Ho4 O8 2.506026 1_555
Ho4 O11 2.548907 1_555
Ho5 O10 2.165216 1_555
Ho5 O9 2.232712 1_555
Ho5 O16 2.254322 1_555
Ho5 O11 2.343656 1_555
Ho5 O17 2.369224 1_555
Ho5 O14 2.510622 1_555
Ho5 O19 2.513288 1_565
Ho5 O18 2.521380 1_555
Ho6 O21 2.165216 1_555
Ho6 O22 2.232712 1_555
Ho6 O15 2.254322 1_555
Ho6 O20 2.343656 1_555
Ho6 O14 2.369224 1_555
Ho6 O17 2.510622 1_555
Ho6 O12 2.513288 1_545
Ho6 O13 2.521380 1_555
Ho7 O21 2.282460 1_655
Ho7 O25 2.319412 1_655
Ho7 O26 2.349377 1_555
Ho7 O22 2.353993 1_555
Ho7 O17 2.461567 1_555
Ho7 O18 2.472449 1_555
Ho7 O23 2.506026 1_555
Ho7 O20 2.548907 1_555
Ho8 O22 2.210778 1_555
Ho8 O16 2.219938 1_545
Ho8 O21 2.229310 1_655
Ho8 O27 2.306546 1_555
Ho8 O23 2.358207 1_545
Ho8 O19 2.497860 1_555
Ho8 O18 2.548677 1_545
Ho8 O24 2.550111 1_655
Ho9 O25 2.210778 1_555
Ho9 O30 2.219938 1_565
Ho9 O26 2.229310 1_555
Ho9 O20 2.306546 1_555
Ho9 O24 2.358207 1_565
Ho9 O0 2.497860 1_554
Ho9 O28 2.548677 1_565
Ho9 O23 2.550111 1_555
Ho10 O26 2.282460 1_555
Ho10 O22 2.319412 1_555
Ho10 O21 2.349377 1_555
Ho10 O25 2.353993 1_555
Ho10 O29 2.461567 1_555
Ho10 O28 2.472449 1_555
Ho10 O24 2.506026 1_555
Ho10 O27 2.548907 1_455
Ho11 O26 2.165216 1_555
Ho11 O25 2.232712 1_655
Ho11 O1 2.254322 1_554
Ho11 O27 2.343656 1_555
Ho11 O2 2.369224 1_554
Ho11 O29 2.510622 1_655
Ho11 O31 2.513288 1_565
Ho11 O3 2.521380 1_554
O0 Re0 1.806132 1_555
O1 Re0 1.846652 1_655
O2 Re3 1.885400 1_556
O3 Re0 1.886835 1_555
O4 Re0 1.967962 1_555
O7 Re1 1.907151 1_565
O8 Re0 1.907151 1_545
O11 Re1 1.967962 1_555
O12 Re2 1.806132 1_555
O13 Re1 1.886835 1_455
O14 Re2 1.885400 1_555
O15 Re1 1.846652 1_555
O16 Re2 1.846652 1_555
O17 Re1 1.885400 1_555
O18 Re2 1.886835 1_655
O19 Re1 1.806132 1_555
O20 Re2 1.967962 1_555
O23 Re3 1.907151 1_565
O24 Re2 1.907151 1_545
O27 Re3 1.967962 1_555
O28 Re3 1.886835 1_555
O29 Re0 1.885400 1_554
O30 Re3 1.846652 1_455
O31 Re3 1.806132 1_555
