# generated using pymatgen
data_Mg2Mn3O8
_symmetry_space_group_name_H-M   'P 1'
_cell_length_a   5.96727955
_cell_length_b   5.96727955
_cell_length_c   5.96727955
_cell_angle_alpha   58.83913192
_cell_angle_beta   58.83913192
_cell_angle_gamma   58.83913192
_symmetry_Int_Tables_number   1
_chemical_formula_structural   Mg2Mn3O8
_chemical_formula_sum   'Mg2 Mn3 O8'
_cell_volume   146.26756294
_cell_formula_units_Z   1
loop_
 _symmetry_equiv_pos_site_id
 _symmetry_equiv_pos_as_xyz
  1  'x, y, z'
loop_
 _atom_site_type_symbol
 _atom_site_label
 _atom_site_symmetry_multiplicity
 _atom_site_fract_x
 _atom_site_fract_y
 _atom_site_fract_z
 _atom_site_occupancy
  Mg  Mg0  1  0.11921100  0.11921100  0.11921100  1
  Mg  Mg1  1  0.49993000  0.49993000  0.49993000  1
  Mn  Mn0  1  0.50202700  0.99332900  0.50202700  1
  Mn  Mn1  1  0.50202700  0.50202700  0.99332900  1
  Mn  Mn2  1  0.99332900  0.50202700  0.50202700  1
  O  O0  1  0.26123100  0.26123100  0.26123100  1
  O  O1  1  0.71015000  0.25571900  0.25571900  1
  O  O2  1  0.25571900  0.25571900  0.71015000  1
  O  O3  1  0.25571900  0.71015000  0.25571900  1
  O  O4  1  0.74700500  0.74700500  0.29681700  1
  O  O5  1  0.74700500  0.29681700  0.74700500  1
  O  O6  1  0.29681700  0.74700500  0.74700500  1
  O  O7  1  0.73482900  0.73482900  0.73482900  1
loop_
_geom_bond_atom_site_label_1
_geom_bond_atom_site_label_2
_geom_bond_distance
_geom_bond_site_symmetry_2
Mg0 O1 1.963843 1_455
Mg0 O3 1.963843 1_545
Mg0 O2 1.963843 1_554
Mg0 O0 2.093903 1_555
Mg1 O1 2.057907 1_555
Mg1 O3 2.057907 1_555
Mg1 O2 2.057907 1_555
Mg1 O5 2.089852 1_555
Mg1 O6 2.089852 1_555
Mg1 O4 2.089852 1_555
Mn0 O4 1.893026 1_555
Mn0 O6 1.893026 1_555
Mn0 O7 1.949629 1_555
Mn0 O1 1.973824 1_565
Mn0 O2 1.973824 1_565
Mn0 O0 2.016746 1_565
Mn1 O5 1.893026 1_555
Mn1 O6 1.893026 1_555
Mn1 O7 1.949629 1_555
Mn1 O3 1.973824 1_556
Mn1 O1 1.973824 1_556
Mn1 O0 2.016746 1_556
Mn2 O4 1.893026 1_555
Mn2 O5 1.893026 1_555
Mn2 O7 1.949629 1_555
Mn2 O3 1.973824 1_655
Mn2 O2 1.973824 1_655
Mn2 O0 2.016746 1_655
