# generated using pymatgen
data_LiMnOF2
_symmetry_space_group_name_H-M   'P 1'
_cell_length_a   5.39000900
_cell_length_b   7.09321400
_cell_length_c   5.55061700
_cell_angle_alpha   90.00006328
_cell_angle_beta   90.00002095
_cell_angle_gamma   89.99998129
_symmetry_Int_Tables_number   1
_chemical_formula_structural   LiMnOF2
_chemical_formula_sum   'Li4 Mn4 O4 F8'
_cell_volume   212.21389395
_cell_formula_units_Z   4
loop_
 _symmetry_equiv_pos_site_id
 _symmetry_equiv_pos_as_xyz
  1  'x, y, z'
loop_
 _atom_site_type_symbol
 _atom_site_label
 _atom_site_symmetry_multiplicity
 _atom_site_fract_x
 _atom_site_fract_y
 _atom_site_fract_z
 _atom_site_occupancy
  Li  Li0  1  0.03989200  0.25000000  0.05155500  1
  Li  Li1  1  0.46011000  0.75000000  0.55155600  1
  Li  Li2  1  0.53989200  0.25000000  0.44844500  1
  Li  Li3  1  0.96011000  0.75000000  0.94844500  1
  Mn  Mn0  1  0.00000300  0.00000200  0.50000600  1
  Mn  Mn1  1  0.99999500  0.50001000  0.49999500  1
  Mn  Mn2  1  0.49999300  0.99998700  0.00001700  1
  Mn  Mn3  1  0.49999000  0.50000000  0.99998300  1
  O  O0  1  0.06812900  0.75000000  0.60109800  1
  O  O1  1  0.43187300  0.25000000  0.10109900  1
  O  O2  1  0.56813000  0.75000000  0.89890100  1
  O  O3  1  0.93187300  0.25000000  0.39890100  1
  F  F0  1  0.17417000  0.56225400  0.14617300  1
  F  F1  1  0.17417000  0.93774700  0.14617300  1
  F  F2  1  0.32583300  0.06225300  0.64617300  1
  F  F3  1  0.32583200  0.43774600  0.64617300  1
  F  F4  1  0.67417000  0.93774600  0.35382700  1
  F  F5  1  0.67417000  0.56225300  0.35382600  1
  F  F6  1  0.82583200  0.06225300  0.85382600  1
  F  F7  1  0.82583200  0.43774700  0.85382700  1
loop_
_geom_bond_atom_site_label_1
_geom_bond_atom_site_label_2
_geom_bond_distance
_geom_bond_site_symmetry_2
Li0 O3 2.013979 1_455
Li0 O1 2.130603 1_555
Li1 O2 2.013974 1_555
Li1 O0 2.130602 1_555
Li2 O1 2.013978 1_555
Li2 O3 2.130603 1_555
Li3 O0 2.013984 1_655
Li3 O2 2.130598 1_555
Mn0 O3 1.895877 1_455
Mn0 O0 1.895878 1_545
Mn1 O0 1.895823 1_655
Mn1 O3 1.895929 1_555
Mn2 O2 1.895828 1_554
Mn2 O1 1.895927 1_565
Mn3 O2 1.895863 1_555
Mn3 O1 1.895895 1_556
F0 Mn3 1.984333 1_554
F0 Li3 2.075871 1_454
F0 Mn1 2.221106 1_455
F0 Li0 2.388590 1_555
F1 Mn2 1.984249 1_555
F1 Li3 2.075874 1_454
F1 Mn0 2.221156 1_565
F1 Li0 2.388584 1_565
F2 Mn0 1.984324 1_555
F2 Li2 2.075873 1_555
F2 Mn2 2.221210 1_546
F2 Li1 2.388580 1_545
F3 Mn1 1.984403 1_455
F3 Li2 2.075870 1_555
F3 Mn3 2.221021 1_555
F3 Li1 2.388590 1_555
F4 Mn0 1.984373 1_665
F4 Li1 2.075875 1_555
F4 Mn2 2.221047 1_555
F4 Li2 2.388590 1_565
F5 Mn1 1.984292 1_555
F5 Li1 2.075880 1_555
F5 Mn3 2.221232 1_554
F5 Li2 2.388586 1_555
F6 Mn2 1.984446 1_546
F6 Li0 2.075877 1_656
F6 Mn0 2.221096 1_655
F6 Li3 2.388585 1_545
F7 Mn3 1.984360 1_555
F7 Li0 2.075876 1_656
F7 Mn1 2.221155 1_555
F7 Li3 2.388583 1_555
