# generated using pymatgen
data_Li5Cu(PO4)2
_symmetry_space_group_name_H-M   'P 1'
_cell_length_a   5.32793800
_cell_length_b   6.21582613
_cell_length_c   9.95387133
_cell_angle_alpha   90.03715796
_cell_angle_beta   90.13878044
_cell_angle_gamma   90.13453283
_symmetry_Int_Tables_number   1
_chemical_formula_structural   Li5Cu(PO4)2
_chemical_formula_sum   'Li10 Cu2 P4 O16'
_cell_volume   329.64574846
_cell_formula_units_Z   2
loop_
 _symmetry_equiv_pos_site_id
 _symmetry_equiv_pos_as_xyz
  1  'x, y, z'
loop_
 _atom_site_type_symbol
 _atom_site_label
 _atom_site_symmetry_multiplicity
 _atom_site_fract_x
 _atom_site_fract_y
 _atom_site_fract_z
 _atom_site_occupancy
  Li  Li0  1  0.15563300  0.00043400  0.74436400  1
  Li  Li1  1  0.15540800  0.00004100  0.24635600  1
  Li  Li2  1  0.32756800  0.75499000  0.49539500  1
  Li  Li3  1  0.32713000  0.74999900  0.99699200  1
  Li  Li4  1  0.67253100  0.74735100  0.24605100  1
  Li  Li5  1  0.67360100  0.74616700  0.74434100  1
  Li  Li6  1  0.84451000  0.50020100  0.49468600  1
  Li  Li7  1  0.67362000  0.25408700  0.74369200  1
  Li  Li8  1  0.67404400  0.25238400  0.24637400  1
  Li  Li9  1  0.32697400  0.24679800  0.49463500  1
  Cu  Cu0  1  0.82584100  0.49999000  0.99927500  1
  Cu  Cu1  1  0.33043000  0.24774300  0.00097300  1
  P  P0  1  0.82644400  0.99495000  0.99883300  1
  P  P1  1  0.82483900  0.99980500  0.49972400  1
  P  P2  1  0.17609200  0.50201700  0.25528300  1
  P  P3  1  0.17732600  0.50345900  0.74328100  1
  O  O0  1  0.81938600  0.99987700  0.65631400  1
  O  O1  1  0.10215400  0.00015200  0.44937900  1
  O  O2  1  0.82010800  0.99990800  0.15513800  1
  O  O3  1  0.10058400  0.98426900  0.94633000  1
  O  O4  1  0.68721100  0.79425700  0.44650300  1
  O  O5  1  0.67626300  0.79658200  0.94521800  1
  O  O6  1  0.31118400  0.70550800  0.19875100  1
  O  O7  1  0.31435700  0.70896500  0.69085200  1
  O  O8  1  0.18690400  0.51067000  0.90016800  1
  O  O9  1  0.89893500  0.50127600  0.69506500  1
  O  O10  1  0.18367300  0.50380800  0.41095700  1
  O  O11  1  0.89534800  0.49996800  0.20934900  1
  O  O12  1  0.31294600  0.29578600  0.69367200  1
  O  O13  1  0.31227100  0.29208000  0.20769900  1
  O  O14  1  0.68784500  0.20561400  0.44719400  1
  O  O15  1  0.69883900  0.20086400  0.93974700  1
loop_
_geom_bond_atom_site_label_1
_geom_bond_atom_site_label_2
_geom_bond_distance
_geom_bond_site_symmetry_2
Li0 O0 1.992486 1_445
Li0 O3 2.034842 1_545
Li0 O7 2.071071 1_545
Li0 O12 2.079302 1_555
Li1 O2 2.001994 1_445
Li1 O13 2.033979 1_555
Li1 O1 2.041366 1_555
Li1 O6 2.067123 1_545
Li2 O10 1.929096 1_555
Li2 O7 1.968062 1_555
Li2 O4 1.992622 1_555
Li2 O1 1.995304 1_565
Li3 O8 1.920810 1_555
Li3 O5 1.952416 1_555
Li3 O3 1.959063 1_555
Li3 O6 2.029368 1_556
Li4 O2 1.975113 1_555
Li4 O11 1.979201 1_555
Li4 O6 1.997234 1_555
Li4 O4 2.017578 1_555
Li5 O0 1.964021 1_555
Li5 O7 1.998320 1_555
Li5 O9 2.002372 1_555
Li5 O5 2.023721 1_555
Li6 O10 1.991890 1_655
Li6 O9 2.014824 1_555
Li6 O14 2.064684 1_555
Li6 O4 2.068729 1_555
Li7 O0 1.965622 1_545
Li7 O15 1.983848 1_555
Li7 O12 2.001420 1_555
Li7 O9 2.007809 1_555
Li8 O11 1.971989 1_555
Li8 O2 1.974975 1_545
Li8 O13 1.980686 1_555
Li8 O14 2.021339 1_555
Li9 O10 1.957846 1_555
Li9 O1 1.993992 1_555
Li9 O14 1.997961 1_555
Li9 O12 2.005856 1_555
Cu0 O15 2.063186 1_555
Cu0 O5 2.080741 1_555
Cu0 O11 2.122706 1_556
Cu0 O8 2.164941 1_655
Cu1 O8 2.065628 1_554
Cu1 O15 2.077834 1_554
Cu1 O13 2.078435 1_555
Cu1 O3 2.112767 1_544
O0 P1 1.559018 1_555
O1 P1 1.561334 1_445
O2 P0 1.556574 1_554
O3 P0 1.554024 1_455
O4 P1 1.563190 1_555
O5 P0 1.561360 1_555
O6 P2 1.559870 1_555
O7 P3 1.560590 1_555
O8 P3 1.562953 1_555
O9 P3 1.557884 1_655
O10 P2 1.550020 1_555
O11 P2 1.563068 1_655
O12 P3 1.561267 1_555
O13 P2 1.568096 1_555
O14 P1 1.563998 1_545
O15 P0 1.565076 1_545
