# generated using pymatgen
data_LiNiPO4
_symmetry_space_group_name_H-M   'P 1'
_cell_length_a   10.17909100
_cell_length_b   4.72372600
_cell_length_c   5.91542501
_cell_angle_alpha   89.86260642
_cell_angle_beta   90.00000000
_cell_angle_gamma   90.00000000
_symmetry_Int_Tables_number   1
_chemical_formula_structural   LiNiPO4
_chemical_formula_sum   'Li4 Ni4 P4 O16'
_cell_volume   284.43196371
_cell_formula_units_Z   4
loop_
 _symmetry_equiv_pos_site_id
 _symmetry_equiv_pos_as_xyz
  1  'x, y, z'
loop_
 _atom_site_type_symbol
 _atom_site_label
 _atom_site_symmetry_multiplicity
 _atom_site_fract_x
 _atom_site_fract_y
 _atom_site_fract_z
 _atom_site_occupancy
  Li  Li0  1  0.29572300  0.74531400  0.25138400  1
  Li  Li1  1  0.80103000  0.25076000  0.24564300  1
  Li  Li2  1  0.30103000  0.74924000  0.75435700  1
  Li  Li3  1  0.79572300  0.25468600  0.74861600  1
  Ni  Ni0  1  0.02134500  0.73789800  0.99341600  1
  Ni  Ni1  1  0.07239700  0.23783700  0.49541600  1
  Ni  Ni2  1  0.57239700  0.76216300  0.50458400  1
  Ni  Ni3  1  0.52134500  0.26210200  0.00658400  1
  P  P0  1  0.20217600  0.16983200  0.99718600  1
  P  P1  1  0.89150400  0.67403000  0.49637200  1
  P  P2  1  0.39150400  0.32597000  0.50362800  1
  P  P3  1  0.70217600  0.83016800  0.00281400  1
  O  O0  1  0.34408700  0.04774400  0.00707000  1
  O  O1  1  0.19806000  0.49452500  0.99637100  1
  O  O2  1  0.63427600  0.97096400  0.21394500  1
  O  O3  1  0.12654000  0.03078200  0.20157900  1
  O  O4  1  0.96127100  0.53342800  0.28693500  1
  O  O5  1  0.24953900  0.44725600  0.49775900  1
  O  O6  1  0.89612900  0.99864700  0.49541500  1
  O  O7  1  0.46484200  0.46759200  0.29766800  1
  O  O8  1  0.96484200  0.53240800  0.70233200  1
  O  O9  1  0.39612900  0.00135300  0.50458500  1
  O  O10  1  0.74953900  0.55274400  0.50224100  1
  O  O11  1  0.46127100  0.46657200  0.71306500  1
  O  O12  1  0.62654000  0.96921800  0.79842100  1
  O  O13  1  0.13427600  0.02903600  0.78605500  1
  O  O14  1  0.69806000  0.50547500  0.00362900  1
  O  O15  1  0.84408700  0.95225600  0.99293000  1
loop_
_geom_bond_atom_site_label_1
_geom_bond_atom_site_label_2
_geom_bond_distance
_geom_bond_site_symmetry_2
Li0 O5 2.077865 1_555
Li0 O0 2.088543 1_565
Li0 O1 2.162375 1_554
Li0 O7 2.181229 1_555
Li0 O9 2.181611 1_565
Li0 O3 2.206581 1_565
Li1 O15 2.103612 1_544
Li1 O4 2.122409 1_555
Li1 O6 2.128363 1_545
Li1 O14 2.141859 1_555
Li1 O10 2.150337 1_555
Li1 O2 2.159714 1_545
Li2 O0 2.103612 1_566
Li2 O11 2.122409 1_555
Li2 O9 2.128363 1_565
Li2 O1 2.141859 1_555
Li2 O5 2.150337 1_555
Li2 O13 2.159714 1_565
Li3 O10 2.077865 1_555
Li3 O15 2.088543 1_545
Li3 O14 2.162375 1_556
Li3 O8 2.181229 1_555
Li3 O6 2.181611 1_545
Li3 O12 2.206581 1_545
Ni0 O8 2.060563 1_455
Ni0 O15 2.069029 1_455
Ni0 O4 2.076891 1_456
Ni0 O1 2.134836 1_555
Ni0 O3 2.141290 1_566
Ni0 O13 2.170089 1_565
Ni1 O5 2.056740 1_555
Ni1 O3 2.071172 1_555
Ni1 O13 2.077802 1_555
Ni1 O6 2.120360 1_445
Ni1 O8 2.154332 1_455
Ni1 O4 2.177570 1_455
Ni2 O10 2.056740 1_555
Ni2 O12 2.071172 1_555
Ni2 O2 2.077802 1_555
Ni2 O9 2.120360 1_565
Ni2 O7 2.154332 1_555
Ni2 O11 2.177570 1_555
Ni3 O7 2.060563 1_555
Ni3 O0 2.069029 1_555
Ni3 O11 2.076891 1_554
Ni3 O14 2.134836 1_555
Ni3 O12 2.141290 1_544
Ni3 O2 2.170089 1_545
O0 P0 1.556440 1_554
O1 P0 1.534329 1_555
O2 P3 1.576022 1_555
O3 P0 1.575510 1_554
O4 P1 1.576163 1_555
O5 P2 1.554860 1_555
O6 P1 1.534121 1_555
O7 P2 1.576473 1_555
O8 P1 1.576473 1_555
O9 P2 1.534121 1_555
O10 P1 1.554860 1_555
O11 P2 1.576163 1_555
O12 P3 1.575510 1_556
O13 P0 1.576022 1_555
O14 P3 1.534329 1_555
O15 P3 1.556440 1_556
