# generated using pymatgen
data_Zr2N2O
_symmetry_space_group_name_H-M   'P 1'
_cell_length_a   3.12381800
_cell_length_b   5.57555700
_cell_length_c   13.84090700
_cell_angle_alpha   90.00000000
_cell_angle_beta   90.00000000
_cell_angle_gamma   90.00000000
_symmetry_Int_Tables_number   1
_chemical_formula_structural   Zr2N2O
_chemical_formula_sum   'Zr8 N8 O4'
_cell_volume   241.06742762
_cell_formula_units_Z   4
loop_
 _symmetry_equiv_pos_site_id
 _symmetry_equiv_pos_as_xyz
  1  'x, y, z'
loop_
 _atom_site_type_symbol
 _atom_site_label
 _atom_site_symmetry_multiplicity
 _atom_site_fract_x
 _atom_site_fract_y
 _atom_site_fract_z
 _atom_site_occupancy
  Zr  Zr0  1  0.75000000  0.69704400  0.08047900  1
  Zr  Zr1  1  0.75000000  0.21194800  0.19641100  1
  Zr  Zr2  1  0.25000000  0.71194800  0.30358900  1
  Zr  Zr3  1  0.25000000  0.19704400  0.41952100  1
  Zr  Zr4  1  0.75000000  0.80295600  0.58047900  1
  Zr  Zr5  1  0.75000000  0.28805200  0.69641100  1
  Zr  Zr6  1  0.25000000  0.78805200  0.80358900  1
  Zr  Zr7  1  0.25000000  0.30295600  0.91952100  1
  N  N0  1  0.25000000  0.94222800  0.15265200  1
  N  N1  1  0.25000000  0.48797000  0.17098900  1
  N  N2  1  0.75000000  0.98797000  0.32901100  1
  N  N3  1  0.75000000  0.44222800  0.34734800  1
  N  N4  1  0.25000000  0.55777200  0.65265200  1
  N  N5  1  0.25000000  0.01203000  0.67098900  1
  N  N6  1  0.75000000  0.51203000  0.82901100  1
  N  N7  1  0.75000000  0.05777200  0.84734800  1
  O  O0  1  0.75000000  0.30508500  0.02692500  1
  O  O1  1  0.25000000  0.80508500  0.47307500  1
  O  O2  1  0.75000000  0.19491500  0.52692500  1
  O  O3  1  0.25000000  0.69491500  0.97307500  1
loop_
_geom_bond_atom_site_label_1
_geom_bond_atom_site_label_2
_geom_bond_distance
_geom_bond_site_symmetry_2
N0 Zr1 2.251204 1_565
N0 Zr1 2.251204 1_465
N0 Zr0 2.303526 1_455
N0 Zr0 2.303526 1_555
N0 Zr2 2.452113 1_555
N1 Zr2 2.219876 1_555
N1 Zr1 2.220769 1_555
N1 Zr1 2.220769 1_455
N1 Zr0 2.316848 1_455
N1 Zr0 2.316848 1_555
N2 Zr1 2.219876 1_565
N2 Zr2 2.220769 1_555
N2 Zr2 2.220769 1_655
N2 Zr3 2.316848 1_665
N2 Zr3 2.316848 1_565
N3 Zr2 2.251204 1_555
N3 Zr2 2.251204 1_655
N3 Zr3 2.303526 1_555
N3 Zr3 2.303526 1_655
N3 Zr1 2.452113 1_555
N4 Zr5 2.251204 1_555
N4 Zr5 2.251204 1_455
N4 Zr4 2.303526 1_455
N4 Zr4 2.303526 1_555
N4 Zr6 2.452113 1_555
N5 Zr6 2.219876 1_545
N5 Zr5 2.220769 1_455
N5 Zr5 2.220769 1_555
N5 Zr4 2.316848 1_445
N5 Zr4 2.316848 1_545
N6 Zr5 2.219876 1_555
N6 Zr6 2.220769 1_655
N6 Zr6 2.220769 1_555
N6 Zr7 2.316848 1_555
N6 Zr7 2.316848 1_655
N7 Zr6 2.251204 1_545
N7 Zr6 2.251204 1_645
N7 Zr7 2.303526 1_655
N7 Zr7 2.303526 1_555
N7 Zr5 2.452113 1_555
O0 Zr7 2.156290 1_554
O0 Zr7 2.156290 1_654
O0 Zr0 2.307674 1_555
O0 Zr1 2.402629 1_555
O1 Zr4 2.156290 1_555
O1 Zr4 2.156290 1_455
O1 Zr3 2.307674 1_565
O1 Zr2 2.402629 1_555
O2 Zr3 2.156290 1_655
O2 Zr3 2.156290 1_555
O2 Zr4 2.307674 1_545
O2 Zr5 2.402629 1_555
O3 Zr0 2.156290 1_456
O3 Zr0 2.156290 1_556
O3 Zr7 2.307674 1_555
O3 Zr6 2.402629 1_555
