# generated using pymatgen
data_Ti3Fe2Ni(PO4)6
_symmetry_space_group_name_H-M   'P 1'
_cell_length_a   8.52006627
_cell_length_b   8.52006627
_cell_length_c   8.52006669
_cell_angle_alpha   61.11508040
_cell_angle_beta   61.11508040
_cell_angle_gamma   61.11508413
_symmetry_Int_Tables_number   1
_chemical_formula_structural   Ti3Fe2Ni(PO4)6
_chemical_formula_sum   'Ti3 Fe2 Ni1 P6 O24'
_cell_volume   448.31068578
_cell_formula_units_Z   1
loop_
 _symmetry_equiv_pos_site_id
 _symmetry_equiv_pos_as_xyz
  1  'x, y, z'
loop_
 _atom_site_type_symbol
 _atom_site_label
 _atom_site_symmetry_multiplicity
 _atom_site_fract_x
 _atom_site_fract_y
 _atom_site_fract_z
 _atom_site_occupancy
  Ti  Ti0  1  0.14176900  0.14176900  0.14176900  1
  Ti  Ti1  1  0.35573500  0.35573500  0.35573500  1
  Ti  Ti2  1  0.64485800  0.64485800  0.64485800  1
  Fe  Fe0  1  0.99725900  0.99725900  0.99725900  1
  Fe  Fe1  1  0.49870800  0.49870800  0.49870800  1
  Ni  Ni0  1  0.85793400  0.85793400  0.85793400  1
  P  P0  1  0.75229700  0.04486000  0.45850600  1
  P  P1  1  0.04486000  0.45850600  0.75229700  1
  P  P2  1  0.54332700  0.25028400  0.95546600  1
  P  P3  1  0.95546600  0.54332700  0.25028400  1
  P  P4  1  0.25028400  0.95546600  0.54332700  1
  P  P5  1  0.45850600  0.75229700  0.04486000  1
  O  O0  1  0.32642500  0.11401600  0.48779100  1
  O  O1  1  0.48779100  0.32642500  0.11401600  1
  O  O2  1  0.90928000  0.05777600  0.25840100  1
  O  O3  1  0.11401600  0.48779100  0.32642500  1
  O  O4  1  0.81416200  0.01415500  0.61056900  1
  O  O5  1  0.58913200  0.24074800  0.43295900  1
  O  O6  1  0.05777600  0.25840100  0.90928000  1
  O  O7  1  0.24074800  0.43295900  0.58913200  1
  O  O8  1  0.38022800  0.18407400  0.00237900  1
  O  O9  1  0.43295900  0.58913200  0.24074800  1
  O  O10  1  0.73679100  0.09607500  0.94725600  1
  O  O11  1  0.00237900  0.38022800  0.18407400  1
  O  O12  1  0.01415500  0.61056900  0.81416200  1
  O  O13  1  0.25840100  0.90928000  0.05777600  1
  O  O14  1  0.55204100  0.41341700  0.76087200  1
  O  O15  1  0.61056900  0.81416200  0.01415500  1
  O  O16  1  0.76087200  0.55204100  0.41341700  1
  O  O17  1  0.94725600  0.73679100  0.09607500  1
  O  O18  1  0.41341700  0.76087200  0.55204100  1
  O  O19  1  0.18407400  0.00237900  0.38022800  1
  O  O20  1  0.88037100  0.50377400  0.68630600  1
  O  O21  1  0.09607500  0.94725600  0.73679100  1
  O  O22  1  0.50377400  0.68630600  0.88037100  1
  O  O23  1  0.68630600  0.88037100  0.50377400  1
loop_
_geom_bond_atom_site_label_1
_geom_bond_atom_site_label_2
_geom_bond_distance
_geom_bond_site_symmetry_2
Fe0 O17 2.139395 1_556
Fe0 O10 2.139395 1_565
Fe0 O21 2.139395 1_655
Fe0 O6 2.213998 1_665
Fe0 O13 2.213998 1_656
Fe0 O2 2.213998 1_566
Fe1 O16 2.194807 1_555
Fe1 O18 2.194807 1_555
Fe1 O14 2.194807 1_555
Fe1 O7 2.207825 1_555
Fe1 O5 2.207826 1_555
Fe1 O9 2.207826 1_555
Ni0 O15 1.980453 1_556
Ni0 O12 1.980453 1_655
Ni0 O4 1.980453 1_565
Ni0 O21 2.114457 1_655
Ni0 O10 2.114457 1_565
Ni0 O17 2.114457 1_556
O0 P4 1.549874 1_545
O0 Ti1 1.885857 1_555
O1 P2 1.549874 1_554
O1 Ti1 1.885858 1_555
O2 P0 1.570239 1_555
O2 Ti0 2.050378 1_655
O3 P3 1.549874 1_455
O3 Ti1 1.885858 1_555
O4 P0 1.491273 1_555
O5 P0 1.570127 1_555
O5 Ti1 2.026378 1_555
O6 P1 1.570239 1_555
O6 Ti0 2.050378 1_556
O7 P1 1.570127 1_555
O7 Ti1 2.026378 1_555
O8 P2 1.553030 1_554
O8 Ti0 1.905505 1_555
O9 P5 1.570127 1_555
O9 Ti1 2.026378 1_555
O10 P2 1.527497 1_555
O11 P3 1.553031 1_455
O11 Ti0 1.905505 1_555
O12 P1 1.491273 1_555
O13 P5 1.570240 1_555
O13 Ti0 2.050378 1_565
O14 P2 1.562256 1_555
O14 Ti2 2.087839 1_555
O15 P5 1.491273 1_555
O16 P3 1.562256 1_555
O16 Ti2 2.087840 1_555
O17 P3 1.527497 1_555
O18 P4 1.562256 1_555
O18 Ti2 2.087840 1_555
O19 P4 1.553031 1_545
O19 Ti0 1.905505 1_555
O20 P1 1.567965 1_655
O20 Ti2 1.881554 1_555
O21 P4 1.527497 1_555
O22 P5 1.567965 1_556
O22 Ti2 1.881554 1_555
O23 P0 1.567965 1_565
O23 Ti2 1.881554 1_555
