# generated using pymatgen
data_Mn5Sb3O16
_symmetry_space_group_name_H-M   'P 1'
_cell_length_a   6.12658290
_cell_length_b   6.04854028
_cell_length_c   9.10700584
_cell_angle_alpha   89.99252667
_cell_angle_beta   88.92936910
_cell_angle_gamma   119.57482539
_symmetry_Int_Tables_number   1
_chemical_formula_structural   Mn5Sb3O16
_chemical_formula_sum   'Mn5 Sb3 O16'
_cell_volume   293.43976081
_cell_formula_units_Z   1
loop_
 _symmetry_equiv_pos_site_id
 _symmetry_equiv_pos_as_xyz
  1  'x, y, z'
loop_
 _atom_site_type_symbol
 _atom_site_label
 _atom_site_symmetry_multiplicity
 _atom_site_fract_x
 _atom_site_fract_y
 _atom_site_fract_z
 _atom_site_occupancy
  Mn  Mn0  1  0.34351300  0.67176700  0.49476300  1
  Mn  Mn1  1  0.66040100  0.83022800  0.21191500  1
  Mn  Mn2  1  0.68310100  0.34147000  0.98495200  1
  Mn  Mn3  1  0.83213500  0.66677400  0.70877600  1
  Mn  Mn4  1  0.83211000  0.16536600  0.70878400  1
  Sb  Sb0  1  0.15953100  0.82632400  0.20974700  1
  Sb  Sb1  1  0.15957100  0.33326100  0.20975900  1
  Sb  Sb2  1  0.33651700  0.16824300  0.71054900  1
  O  O0  1  0.17335600  0.83404900  0.60532400  1
  O  O1  1  0.02810600  0.51405400  0.33987600  1
  O  O2  1  0.30937800  0.65471800  0.08663100  1
  O  O3  1  0.01491500  0.00747700  0.32447300  1
  O  O4  1  0.99445000  0.99722100  0.81311200  1
  O  O5  1  0.17337000  0.33936900  0.60535400  1
  O  O6  1  0.46698800  0.94687300  0.33743100  1
  O  O7  1  0.46699900  0.52013700  0.33744200  1
  O  O8  1  0.33727900  0.16865700  0.09834400  1
  O  O9  1  0.67891300  0.83947700  0.60782200  1
  O  O10  1  0.52952000  0.48074100  0.83965300  1
  O  O11  1  0.52948800  0.04866500  0.83957500  1
  O  O12  1  0.67264400  0.33634400  0.59937300  1
  O  O13  1  0.83569800  0.67213300  0.10349000  1
  O  O14  1  0.94630100  0.47314100  0.83511100  1
  O  O15  1  0.83571600  0.16371300  0.10346300  1
loop_
_geom_bond_atom_site_label_1
_geom_bond_atom_site_label_2
_geom_bond_distance
_geom_bond_site_symmetry_2
Mn0 O5 2.008636 1_555
Mn0 O0 2.008773 1_555
Mn0 O6 2.027417 1_555
Mn0 O7 2.027551 1_555
Mn0 O9 2.081662 1_555
Mn0 O1 2.217275 1_555
Mn1 O6 1.995841 1_555
Mn1 O7 1.995934 1_555
Mn1 O13 2.004295 1_555
Mn1 O15 2.004756 1_565
Mn1 O3 2.168522 1_665
Mn1 O2 2.211813 1_555
Mn2 O14 1.935568 1_555
Mn2 O10 2.043177 1_555
Mn2 O11 2.043776 1_555
Mn2 O15 2.055440 1_556
Mn2 O13 2.057198 1_556
Mn2 O8 2.092788 1_556
Mn3 O9 1.953879 1_555
Mn3 O4 1.990090 1_555
Mn3 O10 1.995453 1_555
Mn3 O14 2.005746 1_555
Mn3 O12 2.012731 1_555
Mn3 O0 2.029739 1_655
Mn4 O9 1.954035 1_545
Mn4 O4 1.989936 1_545
Mn4 O11 1.994960 1_555
Mn4 O14 2.005881 1_555
Mn4 O12 2.012531 1_555
Mn4 O5 2.029837 1_655
O0 Sb2 2.011284 1_565
O1 Sb0 2.020585 1_555
O1 Sb1 2.020593 1_555
O2 Sb1 2.019814 1_555
O2 Sb0 2.019848 1_555
O3 Sb1 2.000191 1_555
O3 Sb0 2.000304 1_545
O4 Sb2 2.030052 1_665
O5 Sb2 2.011215 1_555
O6 Sb0 2.039187 1_555
O7 Sb1 2.039101 1_555
O8 Sb0 2.057907 1_545
O8 Sb1 2.057942 1_555
O10 Sb2 2.049287 1_555
O11 Sb2 2.048740 1_555
O12 Sb2 2.038292 1_555
O13 Sb0 1.996975 1_655
O15 Sb1 1.997254 1_655
