# generated using pymatgen
data_H2C2S3N2(OF)6
_symmetry_space_group_name_H-M   'P 1'
_cell_length_a   5.39425794
_cell_length_b   5.39425794
_cell_length_c   21.26689464
_cell_angle_alpha   85.66605922
_cell_angle_beta   85.66605922
_cell_angle_gamma   62.98153835
_symmetry_Int_Tables_number   1
_chemical_formula_structural   H2C2S3N2(OF)6
_chemical_formula_sum   'H4 C4 S6 N4 O12 F12'
_cell_volume   549.11702512
_cell_formula_units_Z   2
loop_
 _symmetry_equiv_pos_site_id
 _symmetry_equiv_pos_as_xyz
  1  'x, y, z'
loop_
 _atom_site_type_symbol
 _atom_site_label
 _atom_site_symmetry_multiplicity
 _atom_site_fract_x
 _atom_site_fract_y
 _atom_site_fract_z
 _atom_site_occupancy
  H  H0  1  0.93271000  0.42882000  0.79883400  1
  H  H1  1  0.57118000  0.06729000  0.70116600  1
  H  H2  1  0.06729000  0.57118000  0.20116600  1
  H  H3  1  0.42882000  0.93271000  0.29883400  1
  C  C0  1  0.67833400  0.23275300  0.92819500  1
  C  C1  1  0.76724700  0.32166600  0.57180500  1
  C  C2  1  0.32166600  0.76724700  0.07180500  1
  C  C3  1  0.23275300  0.67833400  0.42819500  1
  S  S0  1  0.88748000  0.06343500  0.85464400  1
  S  S1  1  0.93656500  0.11252000  0.64535600  1
  S  S2  1  0.11252000  0.93656500  0.14535600  1
  S  S3  1  0.06343500  0.88748000  0.35464400  1
  S  S4  1  0.55726400  0.44273600  0.75000000  1
  S  S5  1  0.44273600  0.55726400  0.25000000  1
  N  N0  1  0.80416100  0.33341200  0.80286500  1
  N  N1  1  0.66658800  0.19583900  0.69713500  1
  N  N2  1  0.19583900  0.66658800  0.19713500  1
  N  N3  1  0.33341200  0.80416100  0.30286500  1
  O  O0  1  0.17290700  0.96684700  0.86854100  1
  O  O1  1  0.03315300  0.82709300  0.63145900  1
  O  O2  1  0.82709300  0.03315300  0.13145900  1
  O  O3  1  0.96684700  0.17290700  0.36854100  1
  O  O4  1  0.77588800  0.88713300  0.83492600  1
  O  O5  1  0.11286700  0.22411200  0.66507400  1
  O  O6  1  0.22411200  0.11286700  0.16507400  1
  O  O7  1  0.88713300  0.77588800  0.33492600  1
  O  O8  1  0.31170100  0.43880800  0.77942100  1
  O  O9  1  0.56119200  0.68829900  0.72057900  1
  O  O10  1  0.68829900  0.56119200  0.22057900  1
  O  O11  1  0.43880800  0.31170100  0.27942100  1
  F  F0  1  0.75084500  0.42711800  0.94458700  1
  F  F1  1  0.57288200  0.24915500  0.55541300  1
  F  F2  1  0.24915500  0.57288200  0.05541300  1
  F  F3  1  0.42711800  0.75084500  0.44458700  1
  F  F4  1  0.74048300  0.03196900  0.97465800  1
  F  F5  1  0.96803100  0.25951700  0.52534200  1
  F  F6  1  0.25951700  0.96803100  0.02534200  1
  F  F7  1  0.03196900  0.74048300  0.47465800  1
  F  F8  1  0.40424500  0.35177500  0.91897000  1
  F  F9  1  0.64822500  0.59575500  0.58103000  1
  F  F10  1  0.59575500  0.64822500  0.08103000  1
  F  F11  1  0.35177500  0.40424500  0.41897000  1
loop_
_geom_bond_atom_site_label_1
_geom_bond_atom_site_label_2
_geom_bond_distance
_geom_bond_site_symmetry_2
H0 N0 1.030363 1_555
H1 N1 1.030363 1_555
H2 N2 1.030363 1_555
H3 N3 1.030363 1_555
C0 F8 1.341281 1_555
C0 F4 1.349171 1_555
C0 F0 1.349897 1_555
C0 S0 1.888582 1_555
C1 F9 1.341281 1_555
C1 F5 1.349171 1_555
C1 F1 1.349897 1_555
C1 S1 1.888582 1_555
C2 F10 1.341281 1_555
C2 F6 1.349171 1_555
C2 F2 1.349897 1_555
C2 S2 1.888582 1_555
C3 F11 1.341281 1_555
C3 F7 1.349171 1_555
C3 F3 1.349897 1_555
C3 S3 1.888582 1_555
N0 S0 1.665299 1_555
N0 S4 1.672734 1_555
N1 S1 1.665299 1_555
N1 S4 1.672734 1_555
N2 S2 1.665299 1_555
N2 S5 1.672734 1_555
N3 S3 1.665299 1_555
N3 S5 1.672734 1_555
O0 S0 1.430400 1_465
O1 S1 1.430400 1_465
O2 S2 1.430400 1_645
O3 S3 1.430400 1_645
O4 S0 1.435681 1_565
O5 S1 1.435681 1_455
O6 S2 1.435681 1_545
O7 S3 1.435681 1_655
O8 S4 1.429971 1_555
O9 S4 1.429971 1_555
O10 S5 1.429971 1_555
O11 S5 1.429971 1_555
