# generated using pymatgen
data_NiH12(ClO6)2
_symmetry_space_group_name_H-M   'P 1'
_cell_length_a   11.11323400
_cell_length_b   11.11323400
_cell_length_c   11.11323400
_cell_angle_alpha   90.00000000
_cell_angle_beta   90.00000000
_cell_angle_gamma   90.00000000
_symmetry_Int_Tables_number   1
_chemical_formula_structural   NiH12(ClO6)2
_chemical_formula_sum   'Ni4 H48 Cl8 O48'
_cell_volume   1372.52851786
_cell_formula_units_Z   4
loop_
 _symmetry_equiv_pos_site_id
 _symmetry_equiv_pos_as_xyz
  1  'x, y, z'
loop_
 _atom_site_type_symbol
 _atom_site_label
 _atom_site_symmetry_multiplicity
 _atom_site_fract_x
 _atom_site_fract_y
 _atom_site_fract_z
 _atom_site_occupancy
  Ni  Ni0  1  0.50000000  0.50000000  0.00000000  1
  Ni  Ni1  1  0.50000000  0.00000000  0.50000000  1
  Ni  Ni2  1  0.00000000  0.50000000  0.50000000  1
  Ni  Ni3  1  0.00000000  0.00000000  0.00000000  1
  H  H0  1  0.19105200  0.58301200  0.14520100  1
  H  H1  1  0.80894800  0.08301200  0.35479900  1
  H  H2  1  0.30894800  0.41698800  0.64520100  1
  H  H3  1  0.69105200  0.91698800  0.85479900  1
  H  H4  1  0.14520100  0.19105200  0.58301200  1
  H  H5  1  0.35479900  0.80894800  0.08301200  1
  H  H6  1  0.64520100  0.30894800  0.41698800  1
  H  H7  1  0.85479900  0.69105200  0.91698800  1
  H  H8  1  0.58301200  0.14520100  0.19105200  1
  H  H9  1  0.08301200  0.35479900  0.80894800  1
  H  H10  1  0.41698800  0.64520100  0.30894800  1
  H  H11  1  0.91698800  0.85479900  0.69105200  1
  H  H12  1  0.80894800  0.41698800  0.85479900  1
  H  H13  1  0.19105200  0.91698800  0.64520100  1
  H  H14  1  0.69105200  0.58301200  0.35479900  1
  H  H15  1  0.30894800  0.08301200  0.14520100  1
  H  H16  1  0.85479900  0.80894800  0.41698800  1
  H  H17  1  0.64520100  0.19105200  0.91698800  1
  H  H18  1  0.35479900  0.69105200  0.58301200  1
  H  H19  1  0.14520100  0.30894800  0.08301200  1
  H  H20  1  0.41698800  0.85479900  0.80894800  1
  H  H21  1  0.91698800  0.64520100  0.19105200  1
  H  H22  1  0.58301200  0.35479900  0.69105200  1
  H  H23  1  0.08301200  0.14520100  0.30894800  1
  H  H24  1  0.19109600  0.31795400  0.88845200  1
  H  H25  1  0.80890400  0.81795400  0.61154800  1
  H  H26  1  0.30890400  0.68204600  0.38845200  1
  H  H27  1  0.69109600  0.18204600  0.11154800  1
  H  H28  1  0.88845200  0.19109600  0.31795400  1
  H  H29  1  0.61154800  0.80890400  0.81795400  1
  H  H30  1  0.38845200  0.30890400  0.68204600  1
  H  H31  1  0.11154800  0.69109600  0.18204600  1
  H  H32  1  0.31795400  0.88845200  0.19109600  1
  H  H33  1  0.81795400  0.61154800  0.80890400  1
  H  H34  1  0.68204600  0.38845200  0.30890400  1
  H  H35  1  0.18204600  0.11154800  0.69109600  1
  H  H36  1  0.80890400  0.68204600  0.11154800  1
  H  H37  1  0.19109600  0.18204600  0.38845200  1
  H  H38  1  0.69109600  0.31795400  0.61154800  1
  H  H39  1  0.30890400  0.81795400  0.88845200  1
  H  H40  1  0.11154800  0.80890400  0.68204600  1
  H  H41  1  0.38845200  0.19109600  0.18204600  1
  H  H42  1  0.61154800  0.69109600  0.31795400  1
  H  H43  1  0.88845200  0.30890400  0.81795400  1
  H  H44  1  0.68204600  0.11154800  0.80890400  1
  H  H45  1  0.18204600  0.38845200  0.19109600  1
  H  H46  1  0.31795400  0.61154800  0.69109600  1
  H  H47  1  0.81795400  0.88845200  0.30890400  1
  Cl  Cl0  1  0.17745800  0.82254200  0.32254200  1
  Cl  Cl1  1  0.82254200  0.32254200  0.17745800  1
  Cl  Cl2  1  0.32254200  0.17745800  0.82254200  1
  Cl  Cl3  1  0.67745800  0.67745800  0.67745800  1
  Cl  Cl4  1  0.82254200  0.17745800  0.67745800  1
  Cl  Cl5  1  0.17745800  0.67745800  0.82254200  1
  Cl  Cl6  1  0.67745800  0.82254200  0.17745800  1
  Cl  Cl7  1  0.32254200  0.32254200  0.32254200  1
  O  O0  1  0.38867900  0.64313000  0.64843000  1
  O  O1  1  0.61132100  0.14313000  0.85157000  1
  O  O2  1  0.11132100  0.35687000  0.14843000  1
  O  O3  1  0.88867900  0.85687000  0.35157000  1
  O  O4  1  0.64843000  0.38867900  0.64313000  1
  O  O5  1  0.85157000  0.61132100  0.14313000  1
  O  O6  1  0.14843000  0.11132100  0.35687000  1
  O  O7  1  0.35157000  0.88867900  0.85687000  1
  O  O8  1  0.64313000  0.64843000  0.38867900  1
  O  O9  1  0.14313000  0.85157000  0.61132100  1
  O  O10  1  0.35687000  0.14843000  0.11132100  1
  O  O11  1  0.85687000  0.35157000  0.88867900  1
  O  O12  1  0.61132100  0.35687000  0.35157000  1
  O  O13  1  0.38867900  0.85687000  0.14843000  1
  O  O14  1  0.88867900  0.64313000  0.85157000  1
  O  O15  1  0.11132100  0.14313000  0.64843000  1
  O  O16  1  0.35157000  0.61132100  0.35687000  1
  O  O17  1  0.14843000  0.38867900  0.85687000  1
  O  O18  1  0.85157000  0.88867900  0.64313000  1
  O  O19  1  0.64843000  0.11132100  0.14313000  1
  O  O20  1  0.35687000  0.35157000  0.61132100  1
  O  O21  1  0.85687000  0.14843000  0.38867900  1
  O  O22  1  0.64313000  0.85157000  0.88867900  1
  O  O23  1  0.14313000  0.64843000  0.11132100  1
  O  O24  1  0.46995500  0.61602700  0.89194600  1
  O  O25  1  0.53004500  0.11602700  0.60805400  1
  O  O26  1  0.03004500  0.38397300  0.39194600  1
  O  O27  1  0.96995500  0.88397300  0.10805400  1
  O  O28  1  0.89194600  0.46995500  0.61602700  1
  O  O29  1  0.60805400  0.53004500  0.11602700  1
  O  O30  1  0.39194600  0.03004500  0.38397300  1
  O  O31  1  0.10805400  0.96995500  0.88397300  1
  O  O32  1  0.61602700  0.89194600  0.46995500  1
  O  O33  1  0.11602700  0.60805400  0.53004500  1
  O  O34  1  0.38397300  0.39194600  0.03004500  1
  O  O35  1  0.88397300  0.10805400  0.96995500  1
  O  O36  1  0.53004500  0.38397300  0.10805400  1
  O  O37  1  0.46995500  0.88397300  0.39194600  1
  O  O38  1  0.96995500  0.61602700  0.60805400  1
  O  O39  1  0.03004500  0.11602700  0.89194600  1
  O  O40  1  0.10805400  0.53004500  0.38397300  1
  O  O41  1  0.39194600  0.46995500  0.88397300  1
  O  O42  1  0.60805400  0.96995500  0.61602700  1
  O  O43  1  0.89194600  0.03004500  0.11602700  1
  O  O44  1  0.38397300  0.10805400  0.53004500  1
  O  O45  1  0.88397300  0.39194600  0.46995500  1
  O  O46  1  0.61602700  0.60805400  0.96995500  1
  O  O47  1  0.11602700  0.89194600  0.03004500  1
loop_
_geom_bond_atom_site_label_1
_geom_bond_atom_site_label_2
_geom_bond_distance
_geom_bond_site_symmetry_2
Ni0 O29 1.793355 1_555
Ni0 O46 1.793355 1_554
Ni0 O36 1.793355 1_555
Ni0 O34 1.793355 1_555
Ni0 O24 1.793355 1_554
Ni0 O41 1.793355 1_554
Ni1 O25 1.793355 1_555
Ni1 O42 1.793355 1_545
Ni1 O44 1.793355 1_555
Ni1 O30 1.793355 1_555
Ni1 O37 1.793355 1_545
Ni1 O32 1.793355 1_545
Ni2 O33 1.793355 1_555
Ni2 O38 1.793355 1_455
Ni2 O40 1.793355 1_555
Ni2 O26 1.793355 1_555
Ni2 O28 1.793355 1_455
Ni2 O45 1.793355 1_455
Ni3 O47 1.793355 1_545
Ni3 O43 1.793355 1_455
Ni3 O39 1.793355 1_554
Ni3 O31 1.793355 1_544
Ni3 O35 1.793355 1_454
Ni3 O27 1.793355 1_445
H0 O23 0.976694 1_555
H1 O21 0.976694 1_555
H2 O20 0.976694 1_555
H3 O22 0.976694 1_555
H4 O15 0.976694 1_555
H5 O13 0.976694 1_555
H6 O12 0.976694 1_555
H7 O14 0.976694 1_555
H8 O19 0.976694 1_555
H9 O17 0.976694 1_555
H10 O16 0.976694 1_555
H11 O18 0.976694 1_555
H12 O11 0.976694 1_555
H13 O9 0.976694 1_555
H14 O8 0.976694 1_555
H15 O10 0.976694 1_555
H16 O3 0.976694 1_555
H17 O1 0.976694 1_555
H18 O0 0.976694 1_555
H19 O2 0.976694 1_555
H20 O7 0.976694 1_555
H21 O5 0.976694 1_555
H22 O4 0.976694 1_555
H23 O6 0.976694 1_555
H24 O17 0.982741 1_555
H25 O18 0.982741 1_555
H26 O16 0.982741 1_555
H27 O19 0.982741 1_555
H28 O21 0.982741 1_555
H29 O22 0.982741 1_555
H30 O20 0.982741 1_555
H31 O23 0.982741 1_555
H32 O13 0.982741 1_555
H33 O14 0.982741 1_555
H34 O12 0.982741 1_555
H35 O15 0.982741 1_555
H36 O5 0.982741 1_555
H37 O6 0.982741 1_555
H38 O4 0.982741 1_555
H39 O7 0.982741 1_555
H40 O9 0.982741 1_555
H41 O10 0.982741 1_555
H42 O8 0.982741 1_555
H43 O11 0.982741 1_555
H44 O1 0.982741 1_555
H45 O2 0.982741 1_555
H46 O0 0.982741 1_555
H47 O3 0.982741 1_555
