# generated using pymatgen
data_LiNi2OF3
_symmetry_space_group_name_H-M   'P 1'
_cell_length_a   5.94214430
_cell_length_b   5.94214430
_cell_length_c   5.05275900
_cell_angle_alpha   90.00000000
_cell_angle_beta   90.00000000
_cell_angle_gamma   120.00000331
_symmetry_Int_Tables_number   1
_chemical_formula_structural   LiNi2OF3
_chemical_formula_sum   'Li2 Ni4 O2 F6'
_cell_volume   154.50608539
_cell_formula_units_Z   2
loop_
 _symmetry_equiv_pos_site_id
 _symmetry_equiv_pos_as_xyz
  1  'x, y, z'
loop_
 _atom_site_type_symbol
 _atom_site_label
 _atom_site_symmetry_multiplicity
 _atom_site_fract_x
 _atom_site_fract_y
 _atom_site_fract_z
 _atom_site_occupancy
  Li  Li0  1  0.66666700  0.33333300  0.02890500  1
  Li  Li1  1  0.33333300  0.66666700  0.97109500  1
  Ni  Ni0  1  0.50000000  0.00000000  0.50000000  1
  Ni  Ni1  1  0.00000000  0.50000000  0.50000000  1
  Ni  Ni2  1  0.50000000  0.50000000  0.50000000  1
  Ni  Ni3  1  0.00000000  0.00000000  0.00000000  1
  O  O0  1  0.66666700  0.33333300  0.66756300  1
  O  O1  1  0.33333300  0.66666700  0.33243700  1
  F  F0  1  0.83113700  0.66227300  0.22489200  1
  F  F1  1  0.33772700  0.16886300  0.22489200  1
  F  F2  1  0.16886300  0.83113700  0.77510800  1
  F  F3  1  0.83113700  0.16886300  0.22489200  1
  F  F4  1  0.66227300  0.83113700  0.77510800  1
  F  F5  1  0.16886300  0.33772700  0.77510800  1
loop_
_geom_bond_atom_site_label_1
_geom_bond_atom_site_label_2
_geom_bond_distance
_geom_bond_site_symmetry_2
Li0 O0 1.825774 1_554
Li1 O1 1.825774 1_556
Ni0 O0 1.912915 1_555
Ni0 O1 1.912915 1_545
Ni1 O1 1.912915 1_555
Ni1 O0 1.912915 1_455
Ni2 O1 1.912919 1_555
Ni2 O0 1.912919 1_555
F0 Li0 1.961126 1_555
F0 Ni3 2.076472 1_665
F0 Ni1 2.199180 1_655
F0 Ni2 2.199184 1_555
F1 Li0 1.961126 1_555
F1 Ni3 2.076472 1_555
F1 Ni0 2.199180 1_555
F1 Ni2 2.199184 1_555
F2 Li1 1.961126 1_555
F2 Ni3 2.076468 1_566
F2 Ni1 2.199184 1_555
F2 Ni0 2.199184 1_565
F3 Li0 1.961126 1_555
F3 Ni3 2.076468 1_655
F3 Ni0 2.199184 1_555
F3 Ni1 2.199184 1_655
F4 Li1 1.961126 1_555
F4 Ni3 2.076472 1_666
F4 Ni0 2.199180 1_565
F4 Ni2 2.199184 1_555
F5 Li1 1.961126 1_555
F5 Ni3 2.076472 1_556
F5 Ni1 2.199180 1_555
F5 Ni2 2.199184 1_555
