# generated using pymatgen
data_LiMn2F5
_symmetry_space_group_name_H-M   'P 1'
_cell_length_a   7.88435476
_cell_length_b   7.88435476
_cell_length_c   10.98506098
_cell_angle_alpha   88.66043040
_cell_angle_beta   88.66043040
_cell_angle_gamma   85.81857565
_symmetry_Int_Tables_number   1
_chemical_formula_structural   LiMn2F5
_chemical_formula_sum   'Li6 Mn12 F30'
_cell_volume   680.70022457
_cell_formula_units_Z   6
loop_
 _symmetry_equiv_pos_site_id
 _symmetry_equiv_pos_as_xyz
  1  'x, y, z'
loop_
 _atom_site_type_symbol
 _atom_site_label
 _atom_site_symmetry_multiplicity
 _atom_site_fract_x
 _atom_site_fract_y
 _atom_site_fract_z
 _atom_site_occupancy
  Li  Li0  1  0.71685800  0.94297400  0.55087000  1
  Li  Li1  1  0.94297400  0.71685800  0.05087000  1
  Li  Li2  1  0.65402500  0.34597500  0.75000000  1
  Li  Li3  1  0.34597500  0.65402500  0.25000000  1
  Li  Li4  1  0.05702600  0.28314200  0.94913000  1
  Li  Li5  1  0.28314200  0.05702600  0.44913000  1
  Mn  Mn0  1  0.70975300  0.98949000  0.93567600  1
  Mn  Mn1  1  0.98949000  0.70975300  0.43567600  1
  Mn  Mn2  1  0.36586400  0.99943400  0.74998000  1
  Mn  Mn3  1  0.99943400  0.36586400  0.24998000  1
  Mn  Mn4  1  0.37693000  0.65517700  0.56217400  1
  Mn  Mn5  1  0.34482300  0.62307000  0.93782600  1
  Mn  Mn6  1  0.65517700  0.37693000  0.06217400  1
  Mn  Mn7  1  0.62307000  0.34482300  0.43782600  1
  Mn  Mn8  1  0.00056600  0.63413600  0.75002000  1
  Mn  Mn9  1  0.63413600  0.00056600  0.25002000  1
  Mn  Mn10  1  0.01051000  0.29024700  0.56432400  1
  Mn  Mn11  1  0.29024700  0.01051000  0.06432400  1
  F  F0  1  0.89413300  0.78866200  0.61130000  1
  F  F1  1  0.78866200  0.89413300  0.11130000  1
  F  F2  1  0.86282700  0.77448100  0.88362600  1
  F  F3  1  0.77448100  0.86282700  0.38362600  1
  F  F4  1  0.50600000  0.86841500  0.60640900  1
  F  F5  1  0.47260400  0.86008200  0.92634900  1
  F  F6  1  0.86841500  0.50600000  0.10640900  1
  F  F7  1  0.86008200  0.47260400  0.42634900  1
  F  F8  1  0.88711300  0.40335000  0.71890400  1
  F  F9  1  0.40335000  0.88711300  0.21890400  1
  F  F10  1  0.83167800  0.21461300  0.95857800  1
  F  F11  1  0.55356200  0.46039600  0.88787900  1
  F  F12  1  0.21461300  0.83167800  0.45857800  1
  F  F13  1  0.25642600  0.74357400  0.75000000  1
  F  F14  1  0.46039600  0.55356200  0.38787900  1
  F  F15  1  0.53960400  0.44643800  0.61212100  1
  F  F16  1  0.74357400  0.25642600  0.25000000  1
  F  F17  1  0.78538700  0.16832200  0.54142200  1
  F  F18  1  0.44643800  0.53960400  0.11212100  1
  F  F19  1  0.16832200  0.78538700  0.04142200  1
  F  F20  1  0.59665000  0.11288700  0.78109600  1
  F  F21  1  0.11288700  0.59665000  0.28109600  1
  F  F22  1  0.13991800  0.52739600  0.57365100  1
  F  F23  1  0.13158500  0.49400000  0.89359100  1
  F  F24  1  0.52739600  0.13991800  0.07365100  1
  F  F25  1  0.49400000  0.13158500  0.39359100  1
  F  F26  1  0.22551900  0.13717300  0.61637400  1
  F  F27  1  0.13717300  0.22551900  0.11637400  1
  F  F28  1  0.21133800  0.10586700  0.88870000  1
  F  F29  1  0.10586700  0.21133800  0.38870000  1
loop_
_geom_bond_atom_site_label_1
_geom_bond_atom_site_label_2
_geom_bond_distance
_geom_bond_site_symmetry_2
F0 Li0 1.905807 1_555
F0 Mn8 2.081954 1_655
F0 Mn1 2.143449 1_555
F1 Li1 1.905807 1_555
F1 Mn9 2.081954 1_565
F1 Mn0 2.143449 1_554
F2 Li1 1.988555 1_556
F2 Mn0 2.090916 1_555
F2 Mn8 2.093799 1_655
F3 Li0 1.988555 1_555
F3 Mn1 2.090916 1_555
F3 Mn9 2.093799 1_565
F4 Li0 1.886783 1_555
F4 Mn4 2.099785 1_555
F4 Mn2 2.145570 1_555
F5 Mn5 2.186430 1_555
F5 Mn0 2.199905 1_555
F5 Mn11 2.346180 1_566
F5 Mn2 2.347525 1_555
F6 Li1 1.886783 1_555
F6 Mn6 2.099785 1_555
F6 Mn3 2.145570 1_555
F7 Mn7 2.186430 1_555
F7 Mn1 2.199905 1_555
F7 Mn10 2.346180 1_655
F7 Mn3 2.347525 1_555
F8 Li2 1.945069 1_555
F8 Mn10 2.119489 1_655
F8 Mn8 2.123357 1_655
F9 Li3 1.945069 1_555
F9 Mn11 2.119489 1_565
F9 Mn9 2.123357 1_565
F10 Li4 1.894254 1_655
F10 Mn0 2.102105 1_545
F10 Mn6 2.145633 1_556
F11 Li2 1.907584 1_555
F11 Mn5 2.082661 1_555
F11 Mn6 2.162570 1_556
F12 Li5 1.894254 1_565
F12 Mn1 2.102105 1_455
F12 Mn4 2.145633 1_555
F13 Mn2 2.251172 1_555
F13 Mn8 2.251172 1_555
F13 Mn5 2.350440 1_555
F13 Mn4 2.350440 1_555
F14 Li3 1.907584 1_555
F14 Mn7 2.082661 1_555
F14 Mn4 2.162570 1_555
F15 Li2 1.907584 1_555
F15 Mn4 2.082661 1_555
F15 Mn7 2.162570 1_555
F16 Mn3 2.251172 1_555
F16 Mn9 2.251172 1_555
F16 Mn6 2.350440 1_555
F16 Mn7 2.350440 1_555
F17 Li0 1.894254 1_545
F17 Mn10 2.102105 1_655
F17 Mn7 2.145633 1_555
F18 Li3 1.907584 1_555
F18 Mn6 2.082661 1_555
F18 Mn5 2.162570 1_554
F19 Li1 1.894254 1_455
F19 Mn11 2.102105 1_565
F19 Mn5 2.145633 1_554
F20 Li2 1.945069 1_555
F20 Mn0 2.119489 1_545
F20 Mn2 2.123357 1_545
F21 Li3 1.945069 1_555
F21 Mn1 2.119489 1_455
F21 Mn3 2.123357 1_455
F22 Mn4 2.186430 1_555
F22 Mn10 2.199905 1_555
F22 Mn1 2.346180 1_455
F22 Mn8 2.347525 1_555
F23 Li4 1.886783 1_555
F23 Mn5 2.099785 1_555
F23 Mn8 2.145570 1_555
F24 Mn6 2.186430 1_555
F24 Mn11 2.199905 1_555
F24 Mn0 2.346180 1_544
F24 Mn9 2.347525 1_555
F25 Li5 1.886783 1_555
F25 Mn7 2.099785 1_555
F25 Mn9 2.145570 1_555
F26 Li5 1.988555 1_555
F26 Mn10 2.090916 1_555
F26 Mn2 2.093799 1_545
F27 Li4 1.988555 1_554
F27 Mn11 2.090916 1_555
F27 Mn3 2.093799 1_455
F28 Li4 1.905807 1_555
F28 Mn2 2.081954 1_545
F28 Mn11 2.143449 1_556
F29 Li5 1.905807 1_555
F29 Mn3 2.081954 1_455
F29 Mn10 2.143449 1_555
