# generated using pymatgen
data_Li5Nb2Ni5O12
_symmetry_space_group_name_H-M   'P 1'
_cell_length_a   5.24169866
_cell_length_b   5.24169866
_cell_length_c   10.03261935
_cell_angle_alpha   84.28763213
_cell_angle_beta   84.28763213
_cell_angle_gamma   121.44918720
_symmetry_Int_Tables_number   1
_chemical_formula_structural   Li5Nb2Ni5O12
_chemical_formula_sum   'Li5 Nb2 Ni5 O12'
_cell_volume   230.23530112
_cell_formula_units_Z   1
loop_
 _symmetry_equiv_pos_site_id
 _symmetry_equiv_pos_as_xyz
  1  'x, y, z'
loop_
 _atom_site_type_symbol
 _atom_site_label
 _atom_site_symmetry_multiplicity
 _atom_site_fract_x
 _atom_site_fract_y
 _atom_site_fract_z
 _atom_site_occupancy
  Li  Li0  1  0.81783800  0.68154900  0.25467300  1
  Li  Li1  1  0.68328500  0.82554700  0.74464300  1
  Li  Li2  1  0.31845100  0.18216200  0.74532700  1
  Li  Li3  1  0.17445300  0.31671500  0.25535700  1
  Li  Li4  1  0.07838800  0.92161200  0.50000000  1
  Nb  Nb0  1  0.74652200  0.25347800  0.50000000  1
  Nb  Nb1  1  0.25267800  0.74732200  0.00000000  1
  Ni  Ni0  1  0.92202100  0.07797900  0.00000000  1
  Ni  Ni1  1  0.00387000  0.50686200  0.74699700  1
  Ni  Ni2  1  0.49313800  0.99613000  0.25300300  1
  Ni  Ni3  1  0.58287100  0.41712900  0.00000000  1
  Ni  Ni4  1  0.41733600  0.58266400  0.50000000  1
  O  O0  1  0.02921900  0.22154800  0.62084200  1
  O  O1  1  0.77845200  0.97078100  0.37915800  1
  O  O2  1  0.87852000  0.37385900  0.11776300  1
  O  O3  1  0.62614100  0.12148000  0.88223700  1
  O  O4  1  0.70865900  0.52730700  0.61912900  1
  O  O5  1  0.47269300  0.29134100  0.38087100  1
  O  O6  1  0.53830900  0.70739000  0.12330200  1
  O  O7  1  0.29261000  0.46169100  0.87669800  1
  O  O8  1  0.38635700  0.88031200  0.61962300  1
  O  O9  1  0.11968800  0.61364300  0.38037700  1
  O  O10  1  0.21173900  0.03323900  0.12408300  1
  O  O11  1  0.96676100  0.78826100  0.87591700  1
loop_
_geom_bond_atom_site_label_1
_geom_bond_atom_site_label_2
_geom_bond_distance
_geom_bond_site_symmetry_2
Li0 O5 2.055903 1_555
Li0 O10 2.094484 1_665
Li0 O6 2.111462 1_555
Li0 O1 2.133789 1_555
Li0 O9 2.261873 1_655
Li0 O2 2.340593 1_555
Li1 O0 2.061597 1_665
Li1 O7 2.113693 1_555
Li1 O11 2.149882 1_555
Li1 O4 2.150050 1_555
Li1 O8 2.204807 1_555
Li1 O3 2.286982 1_565
Li2 O4 2.055903 1_555
Li2 O11 2.094484 1_445
Li2 O7 2.111462 1_555
Li2 O0 2.133789 1_555
Li2 O8 2.261873 1_545
Li2 O3 2.340593 1_555
Li3 O1 2.061597 1_445
Li3 O6 2.113693 1_555
Li3 O10 2.149882 1_555
Li3 O5 2.150050 1_555
Li3 O9 2.204807 1_555
Li3 O2 2.286982 1_455
Li4 O4 2.079315 1_455
Li4 O5 2.079315 1_565
Li4 O1 2.178996 1_455
Li4 O0 2.178996 1_565
Li4 O9 2.188993 1_555
Li4 O8 2.188993 1_555
Nb0 O8 2.014640 1_545
Nb0 O9 2.014640 1_655
Nb0 O4 2.029663 1_555
Nb0 O5 2.029663 1_555
Nb0 O1 2.066307 1_545
Nb0 O0 2.066307 1_655
Nb1 O3 2.036299 1_564
Nb1 O2 2.036299 1_455
Nb1 O6 2.111829 1_555
Nb1 O7 2.111829 1_554
Nb1 O10 2.120295 1_565
Nb1 O11 2.120295 1_454
Ni0 O6 2.073269 1_545
Ni0 O7 2.073269 1_654
Ni0 O3 2.129167 1_554
Ni0 O2 2.129167 1_555
Ni0 O10 2.144936 1_655
Ni0 O11 2.144936 1_544
Ni1 O8 2.093129 1_555
Ni1 O0 2.099251 1_555
Ni1 O11 2.124963 1_455
Ni1 O3 2.141921 1_455
Ni1 O4 2.143013 1_455
Ni1 O7 2.178207 1_555
Ni2 O9 2.093129 1_555
Ni2 O1 2.099251 1_555
Ni2 O10 2.124963 1_565
Ni2 O2 2.141921 1_565
Ni2 O5 2.143013 1_565
Ni2 O6 2.178207 1_555
Ni3 O11 2.077917 1_554
Ni3 O10 2.077917 1_555
Ni3 O2 2.127628 1_555
Ni3 O3 2.127628 1_554
Ni3 O6 2.141883 1_555
Ni3 O7 2.141883 1_554
Ni4 O0 2.055579 1_555
Ni4 O1 2.055579 1_555
Ni4 O9 2.121122 1_555
Ni4 O8 2.121122 1_555
Ni4 O5 2.145015 1_555
Ni4 O4 2.145015 1_555
