# generated using pymatgen
data_K9(WO3)20
_symmetry_space_group_name_H-M   'P 1'
_cell_length_a   7.84079409
_cell_length_b   13.14579826
_cell_length_c   13.13321431
_cell_angle_alpha   84.72033081
_cell_angle_beta   107.38314068
_cell_angle_gamma   107.34161826
_symmetry_Int_Tables_number   1
_chemical_formula_structural   K9(WO3)20
_chemical_formula_sum   'K9 W20 O60'
_cell_volume   1233.13246864
_cell_formula_units_Z   1
loop_
 _symmetry_equiv_pos_site_id
 _symmetry_equiv_pos_as_xyz
  1  'x, y, z'
loop_
 _atom_site_type_symbol
 _atom_site_label
 _atom_site_symmetry_multiplicity
 _atom_site_fract_x
 _atom_site_fract_y
 _atom_site_fract_z
 _atom_site_occupancy
  K  K0  1  0.75058800  0.67417500  0.82700300  1
  K  K1  1  0.25090000  0.67411300  0.82733100  1
  K  K2  1  0.42308400  0.17256100  0.67379200  1
  K  K3  1  0.92301500  0.17223000  0.67374400  1
  K  K4  1  0.50000000  0.50000000  0.50000000  1
  K  K5  1  0.57691600  0.82743900  0.32620800  1
  K  K6  1  0.07698500  0.82777000  0.32625600  1
  K  K7  1  0.74910000  0.32588700  0.17266900  1
  K  K8  1  0.24941200  0.32582500  0.17299700  1
  W  W0  1  0.31583500  0.20657300  0.92508600  1
  W  W1  1  0.81614200  0.20635200  0.92588500  1
  W  W2  1  0.60830000  0.92408800  0.79254600  1
  W  W3  1  0.10986100  0.92625700  0.79343800  1
  W  W4  1  0.81848500  0.42453000  0.70852300  1
  W  W5  1  0.31493300  0.42412700  0.70873400  1
  W  W6  1  0.89607000  0.71139400  0.57689800  1
  W  W7  1  0.39073500  0.70869200  0.57582600  1
  W  W8  1  0.00000000  0.00000000  0.50000000  1
  W  W9  1  0.50000000  0.00000000  0.50000000  1
  W  W10  1  0.10393000  0.28860600  0.42310200  1
  W  W11  1  0.60926500  0.29130800  0.42417400  1
  W  W12  1  0.68506700  0.57587300  0.29126600  1
  W  W13  1  0.18151500  0.57547000  0.29147700  1
  W  W14  1  0.89013900  0.07374300  0.20656200  1
  W  W15  1  0.39170000  0.07591200  0.20745400  1
  W  W16  1  0.68416500  0.79342700  0.07491400  1
  W  W17  1  0.18385800  0.79364800  0.07411500  1
  W  W18  1  0.50000000  0.50000000  0.00000000  1
  W  W19  1  0.00000000  0.50000000  0.00000000  1
  O  O0  1  0.14301200  0.85586300  0.93020100  1
  O  O1  1  0.64294300  0.85562600  0.93023500  1
  O  O2  1  0.56796900  0.20788200  0.92568400  1
  O  O3  1  0.06558100  0.20782000  0.92574700  1
  O  O4  1  0.71398900  0.07209100  0.85592200  1
  O  O5  1  0.21531000  0.07312900  0.85750400  1
  O  O6  1  0.42218800  0.50082300  0.84429000  1
  O  O7  1  0.92368200  0.50125400  0.84536500  1
  O  O8  1  0.78919700  0.28797400  0.79022400  1
  O  O9  1  0.28808400  0.28500800  0.79170600  1
  O  O10  1  0.36514400  0.92576400  0.79298900  1
  O  O11  1  0.85350200  0.92569700  0.79291300  1
  O  O12  1  0.06069700  0.42372100  0.70980100  1
  O  O13  1  0.57258000  0.42466700  0.70849200  1
  O  O14  1  0.99887700  0.78707300  0.71052200  1
  O  O15  1  0.50290700  0.79118800  0.71506400  1
  O  O16  1  0.07744500  0.00043100  0.65443900  1
  O  O17  1  0.57803300  0.00124100  0.65476500  1
  O  O18  1  0.85641200  0.57002400  0.64399200  1
  O  O19  1  0.35840000  0.57339200  0.64268400  1
  O  O20  1  0.13601300  0.70852600  0.57621400  1
  O  O21  1  0.64772500  0.70717500  0.57524300  1
  O  O22  1  0.21494200  0.35725500  0.57189100  1
  O  O23  1  0.71479400  0.35718900  0.57371700  1
  O  O24  1  0.74329500  0.99980500  0.49997700  1
  O  O25  1  0.07976500  0.15863400  0.50160500  1
  O  O26  1  0.25670500  0.00019500  0.50002300  1
  O  O27  1  0.57882100  0.15578700  0.50114900  1
  O  O28  1  0.42117900  0.84421300  0.49885100  1
  O  O29  1  0.92023500  0.84136600  0.49839500  1
  O  O30  1  0.78505800  0.64274500  0.42810900  1
  O  O31  1  0.28520600  0.64281100  0.42628300  1
  O  O32  1  0.35227500  0.29282500  0.42475700  1
  O  O33  1  0.86398700  0.29147400  0.42378600  1
  O  O34  1  0.64160000  0.42660800  0.35731600  1
  O  O35  1  0.14358800  0.42997600  0.35600800  1
  O  O36  1  0.92255500  0.99956900  0.34556100  1
  O  O37  1  0.42196700  0.99875900  0.34523500  1
  O  O38  1  0.00112300  0.21292700  0.28947700  1
  O  O39  1  0.49709300  0.20881200  0.28493600  1
  O  O40  1  0.42742000  0.57533300  0.29150800  1
  O  O41  1  0.93930300  0.57627900  0.29019900  1
  O  O42  1  0.14649800  0.07430300  0.20708800  1
  O  O43  1  0.63485600  0.07423600  0.20701100  1
  O  O44  1  0.71191600  0.71499200  0.20829400  1
  O  O45  1  0.21080300  0.71202600  0.20977600  1
  O  O46  1  0.57781200  0.49917700  0.15571000  1
  O  O47  1  0.07631800  0.49874600  0.15463500  1
  O  O48  1  0.78469000  0.92687100  0.14249600  1
  O  O49  1  0.28601100  0.92790900  0.14407800  1
  O  O50  1  0.43203100  0.79211800  0.07431600  1
  O  O51  1  0.93441900  0.79218000  0.07425300  1
  O  O52  1  0.35705700  0.14437400  0.06976500  1
  O  O53  1  0.85698800  0.14413700  0.06979900  1
  O  O54  1  0.42288600  0.34497700  0.00069700  1
  O  O55  1  0.92254100  0.34483900  0.00030500  1
  O  O56  1  0.24985700  0.49998400  0.00019800  1
  O  O57  1  0.75014300  0.50001600  0.99980200  1
  O  O58  1  0.57711400  0.65502300  0.99930300  1
  O  O59  1  0.07745900  0.65516100  0.99969500  1
loop_
_geom_bond_atom_site_label_1
_geom_bond_atom_site_label_2
_geom_bond_distance
_geom_bond_site_symmetry_2
K0 O15 2.820914 1_555
K0 O14 2.823485 1_555
K0 O58 2.926442 1_555
K0 O59 2.929036 1_655
K0 O7 2.934318 1_555
K0 O6 2.937848 1_555
K0 O57 3.071745 1_555
K0 O21 3.181551 1_555
K0 O11 3.183887 1_555
K0 O1 3.274034 1_555
K0 O0 3.275952 1_655
K0 O19 3.284022 1_555
K0 O18 3.288534 1_555
K1 O15 2.820853 1_555
K1 O14 2.825240 1_455
K1 O58 2.921092 1_555
K1 O59 2.927355 1_555
K1 O7 2.931010 1_455
K1 O6 2.931646 1_555
K2 O9 2.834989 1_555
K2 O8 2.843998 1_555
K2 O17 2.920054 1_555
K2 O25 2.922101 1_555
K2 O16 2.927099 1_555
K2 O27 2.930442 1_555
K2 O26 3.074877 1_555
K2 O2 3.189465 1_555
K2 O13 3.195010 1_555
K2 O4 3.259289 1_555
K2 O5 3.268426 1_555
K2 O23 3.278630 1_555
K2 O22 3.287628 1_555
K3 O9 2.834555 1_655
K3 O8 2.845225 1_555
K3 O17 2.916678 1_555
K3 O25 2.918730 1_655
K3 O16 2.924039 1_655
K3 O27 2.924933 1_555
K4 O32 2.768807 1_555
K4 O21 2.768807 1_555
K4 O40 2.776328 1_555
K4 O13 2.776328 1_555
K4 O22 2.800513 1_555
K4 O30 2.800513 1_555
K4 O18 2.803956 1_555
K4 O35 2.803956 1_555
K4 O23 2.806114 1_555
K4 O31 2.806114 1_555
K4 O19 2.808813 1_555
K4 O34 2.808813 1_555
K5 O44 2.834989 1_555
K5 O45 2.843998 1_555
K5 O37 2.920054 1_555
K5 O29 2.922101 1_555
K5 O36 2.927099 1_555
K5 O28 2.930442 1_555
K5 O24 3.074877 1_555
K5 O50 3.189465 1_555
K5 O40 3.195010 1_555
K5 O49 3.259289 1_555
K5 O48 3.268426 1_555
K5 O31 3.278630 1_555
K5 O30 3.287628 1_555
K6 O44 2.834555 1_455
K6 O45 2.845225 1_555
K6 O37 2.916678 1_555
K6 O29 2.918730 1_455
K6 O36 2.924039 1_455
K6 O28 2.924933 1_555
K7 O39 2.820853 1_555
K7 O38 2.825236 1_655
K7 O54 2.921092 1_555
K7 O55 2.927355 1_555
K7 O47 2.931010 1_655
K7 O46 2.931646 1_555
K8 O39 2.820914 1_555
K8 O38 2.823476 1_555
K8 O54 2.926442 1_555
K8 O55 2.929036 1_455
K8 O47 2.934318 1_555
K8 O46 2.937848 1_555
K8 O56 3.071745 1_555
K8 O32 3.181551 1_555
K8 O42 3.183889 1_555
K8 O52 3.274034 1_555
K8 O53 3.275952 1_455
K8 O34 3.284022 1_555
K8 O35 3.288534 1_555
O0 W3 1.925760 1_555
O0 W17 1.963098 1_556
O1 W2 1.925211 1_555
O1 W16 1.971820 1_556
O2 W1 1.951176 1_555
O2 W0 1.969538 1_555
O3 W1 1.950677 1_455
O3 W0 1.969750 1_555
O4 W1 1.901810 1_555
O4 W2 2.022291 1_545
O5 W0 1.878993 1_555
O5 W3 2.012707 1_545
O6 W18 1.951571 1_556
O6 W5 1.955367 1_555
O7 W19 1.938118 1_656
O7 W4 1.969609 1_555
O8 W1 1.982087 1_555
O8 W4 1.993383 1_555
O9 W0 1.937157 1_555
O9 W5 2.029079 1_555
O10 W2 1.914965 1_555
O10 W3 2.005332 1_555
O11 W2 1.914946 1_555
O11 W3 2.005827 1_655
O12 W4 1.897384 1_455
O12 W5 1.996059 1_555
O13 W4 1.928506 1_555
O13 W5 2.019004 1_555
O14 W6 1.928009 1_555
O14 W3 2.035218 1_655
O15 W2 1.932539 1_555
O15 W7 2.031976 1_555
O16 W8 1.935671 1_555
O16 W3 1.972501 1_545
O17 W9 1.939845 1_555
O17 W2 1.976982 1_545
O18 W6 1.960796 1_555
O18 W4 1.994511 1_555
O19 W7 1.890916 1_555
O19 W5 2.045389 1_555
O20 W6 1.895627 1_455
O20 W7 1.998102 1_555
O21 W6 1.925039 1_555
O21 W7 2.023340 1_555
O22 W5 1.911890 1_555
O22 W10 2.056799 1_555
O23 W4 1.891672 1_555
O23 W11 2.051036 1_555
O24 W9 1.908482 1_565
O24 W8 2.011918 1_665
O25 W10 1.902017 1_555
O25 W8 1.990748 1_555
O26 W9 1.908482 1_555
O26 W8 2.011918 1_555
O27 W11 1.952445 1_555
O27 W9 1.954957 1_555
O28 W7 1.952445 1_555
O28 W9 1.954957 1_565
O29 W6 1.902017 1_555
O29 W8 1.990748 1_665
O30 W12 1.911890 1_555
O30 W6 2.056799 1_555
O31 W13 1.891672 1_555
O31 W7 2.051036 1_555
O32 W10 1.925039 1_555
O32 W11 2.023340 1_555
O33 W10 1.895627 1_655
O33 W11 1.998102 1_555
O34 W11 1.890916 1_555
O34 W12 2.045389 1_555
O35 W10 1.960796 1_555
O35 W13 1.994511 1_555
O36 W8 1.935671 1_665
O36 W14 1.972501 1_565
O37 W9 1.939845 1_565
O37 W15 1.976982 1_565
O38 W10 1.928020 1_555
O38 W14 2.035212 1_455
O39 W15 1.932539 1_555
O39 W11 2.031976 1_555
O40 W13 1.928506 1_555
O40 W12 2.019004 1_555
O41 W13 1.897384 1_655
O41 W12 1.996059 1_555
O42 W15 1.914950 1_555
O42 W14 2.005823 1_455
O43 W15 1.914965 1_555
O43 W14 2.005332 1_555
O44 W16 1.937157 1_555
O44 W12 2.029079 1_555
O45 W17 1.982087 1_555
O45 W13 1.993383 1_555
O46 W18 1.951571 1_555
O46 W12 1.955367 1_555
O47 W19 1.938118 1_555
O47 W13 1.969609 1_555
O48 W16 1.878993 1_555
O48 W14 2.012707 1_565
O49 W17 1.901810 1_555
O49 W15 2.022291 1_565
O50 W17 1.951176 1_555
O50 W16 1.969538 1_555
O51 W17 1.950677 1_655
O51 W16 1.969750 1_555
O52 W15 1.925211 1_555
O52 W0 1.971820 1_554
O53 W14 1.925760 1_555
O53 W1 1.963098 1_554
O54 W18 1.945259 1_555
O54 W0 1.981163 1_554
O55 W19 1.946990 1_655
O55 W1 1.974942 1_554
O56 W19 1.958365 1_555
O56 W18 1.962036 1_555
O57 W19 1.958365 1_656
O57 W18 1.962036 1_556
O58 W18 1.945259 1_556
O58 W16 1.981163 1_556
O59 W19 1.946990 1_556
O59 W17 1.974942 1_556
