# generated using pymatgen
data_Al2Si2H4O9
_symmetry_space_group_name_H-M   'P 1'
_cell_length_a   5.22580742
_cell_length_b   5.22580742
_cell_length_c   14.58991435
_cell_angle_alpha   86.80074722
_cell_angle_beta   86.80074722
_cell_angle_gamma   120.13460033
_symmetry_Int_Tables_number   1
_chemical_formula_structural   Al2Si2H4O9
_chemical_formula_sum   'Al4 Si4 H8 O18'
_cell_volume   342.42546978
_cell_formula_units_Z   2
loop_
 _symmetry_equiv_pos_site_id
 _symmetry_equiv_pos_as_xyz
  1  'x, y, z'
loop_
 _atom_site_type_symbol
 _atom_site_label
 _atom_site_symmetry_multiplicity
 _atom_site_fract_x
 _atom_site_fract_y
 _atom_site_fract_z
 _atom_site_occupancy
  Al  Al0  1  0.16895500  0.65991500  0.26917600  1
  Al  Al1  1  0.65991500  0.16895500  0.76917600  1
  Al  Al2  1  0.83909400  0.00106700  0.27085500  1
  Al  Al3  1  0.00106700  0.83909400  0.77085500  1
  Si  Si0  1  0.41453000  0.61246200  0.46064200  1
  Si  Si1  1  0.61246200  0.41453000  0.96064200  1
  Si  Si2  1  0.07264400  0.92733700  0.46130700  1
  Si  Si3  1  0.92733700  0.07264400  0.96130700  1
  H  H0  1  0.67601700  0.30972900  0.34604300  1
  H  H1  1  0.30972900  0.67601700  0.84604300  1
  H  H2  1  0.55501300  0.03721300  0.14169800  1
  H  H3  1  0.03721300  0.55501300  0.64169800  1
  H  H4  1  0.25617500  0.36094500  0.14822600  1
  H  H5  1  0.36094500  0.25617500  0.64822600  1
  H  H6  1  0.86472700  0.69881500  0.14364500  1
  H  H7  1  0.69881500  0.86472700  0.64364500  1
  O  O0  1  0.19794500  0.72234100  0.50807500  1
  O  O1  1  0.72234100  0.19794500  0.00807500  1
  O  O2  1  0.72954400  0.78565600  0.50835800  1
  O  O3  1  0.78565600  0.72954400  0.00835800  1
  O  O4  1  0.27157500  0.25983600  0.49505000  1
  O  O5  1  0.25983600  0.27157500  0.99505000  1
  O  O6  1  0.47023400  0.68875200  0.34973600  1
  O  O7  1  0.68875200  0.47023400  0.84973600  1
  O  O8  1  0.08740100  0.92297400  0.35017500  1
  O  O9  1  0.92297400  0.08740100  0.85017500  1
  O  O10  1  0.86239900  0.30907200  0.34393600  1
  O  O11  1  0.30907200  0.86239900  0.84393600  1
  O  O12  1  0.52374700  0.96206300  0.20627200  1
  O  O13  1  0.96206300  0.52374700  0.70627200  1
  O  O14  1  0.13837400  0.35030200  0.20340800  1
  O  O15  1  0.35030300  0.13837400  0.70340800  1
  O  O16  1  0.91168200  0.74066600  0.20652800  1
  O  O17  1  0.74066600  0.91168200  0.70652800  1
loop_
_geom_bond_atom_site_label_1
_geom_bond_atom_site_label_2
_geom_bond_distance
_geom_bond_site_symmetry_2
Al0 O12 1.865990 1_555
Al0 O16 1.866778 1_455
Al0 O14 1.869468 1_555
Al0 O10 1.936559 1_455
Al0 O6 1.967511 1_555
Al0 O8 2.044840 1_555
Al1 O13 1.865990 1_555
Al1 O17 1.866778 1_545
Al1 O15 1.869464 1_555
Al1 O11 1.936559 1_545
Al1 O7 1.967511 1_555
Al1 O9 2.044840 1_555
Al2 O16 1.870193 1_545
Al2 O12 1.871526 1_545
Al2 O14 1.872691 1_655
Al2 O10 1.936923 1_555
Al2 O8 1.958623 1_645
Al2 O6 2.021824 1_545
Al3 O17 1.870193 1_455
Al3 O13 1.871526 1_455
Al3 O15 1.872694 1_565
Al3 O11 1.936923 1_555
Al3 O9 1.958623 1_465
Al3 O7 2.021824 1_455
H0 O10 0.974502 1_555
H1 O11 0.974502 1_555
H2 O12 0.972433 1_545
H3 O13 0.972433 1_455
H4 O14 0.967240 1_555
H5 O15 0.967242 1_555
H6 O16 0.971293 1_555
H7 O17 0.971293 1_555
O0 Si0 1.642910 1_555
O0 Si2 1.647595 1_555
O1 Si1 1.642910 1_554
O1 Si3 1.647595 1_554
O2 Si2 1.645346 1_655
O2 Si0 1.648045 1_555
O3 Si3 1.645346 1_564
O3 Si1 1.648045 1_554
O4 Si0 1.636613 1_555
O4 Si2 1.637428 1_545
O5 Si1 1.636613 1_555
O5 Si3 1.637428 1_455
O6 Si0 1.618905 1_555
O7 Si1 1.618905 1_555
O8 Si2 1.620914 1_555
O9 Si3 1.620914 1_555
