# generated using pymatgen
data_Gd2HfO5
_symmetry_space_group_name_H-M   'P 1'
_cell_length_a   6.07581185
_cell_length_b   6.07581185
_cell_length_c   10.97259900
_cell_angle_alpha   90.00000000
_cell_angle_beta   90.00000000
_cell_angle_gamma   140.08260099
_symmetry_Int_Tables_number   1
_chemical_formula_structural   Gd2HfO5
_chemical_formula_sum   'Gd4 Hf2 O10'
_cell_volume   259.91921236
_cell_formula_units_Z   2
loop_
 _symmetry_equiv_pos_site_id
 _symmetry_equiv_pos_as_xyz
  1  'x, y, z'
loop_
 _atom_site_type_symbol
 _atom_site_label
 _atom_site_symmetry_multiplicity
 _atom_site_fract_x
 _atom_site_fract_y
 _atom_site_fract_z
 _atom_site_occupancy
  Gd  Gd0  1  0.86128300  0.13871700  0.56738700  1
  Gd  Gd1  1  0.86128300  0.13871700  0.93261300  1
  Gd  Gd2  1  0.13871700  0.86128300  0.06738700  1
  Gd  Gd3  1  0.13871700  0.86128300  0.43261300  1
  Hf  Hf0  1  0.82334200  0.17665800  0.25000000  1
  Hf  Hf1  1  0.17665800  0.82334200  0.75000000  1
  O  O0  1  0.94989800  0.05010200  0.11989900  1
  O  O1  1  0.94989800  0.05010200  0.38010100  1
  O  O2  1  0.71020300  0.28979700  0.40926100  1
  O  O3  1  0.71020300  0.28979700  0.09073900  1
  O  O4  1  0.73031900  0.26968100  0.75000000  1
  O  O5  1  0.26968100  0.73031900  0.25000000  1
  O  O6  1  0.05010200  0.94989800  0.61989900  1
  O  O7  1  0.05010200  0.94989800  0.88010100  1
  O  O8  1  0.28979700  0.71020300  0.59073900  1
  O  O9  1  0.28979700  0.71020300  0.90926100  1
loop_
_geom_bond_atom_site_label_1
_geom_bond_atom_site_label_2
_geom_bond_distance
_geom_bond_site_symmetry_2
Gd0 O6 2.232294 1_645
Gd0 O8 2.243552 1_655
Gd0 O8 2.243552 1_545
Gd0 O1 2.290745 1_555
Gd0 O2 2.447063 1_555
Gd0 O4 2.500503 1_555
Gd1 O7 2.232294 1_645
Gd1 O9 2.243552 1_655
Gd1 O9 2.243552 1_545
Gd1 O0 2.290745 1_556
Gd1 O3 2.447063 1_556
Gd1 O4 2.500503 1_555
Gd2 O0 2.232294 1_465
Gd2 O3 2.243552 1_455
Gd2 O3 2.243552 1_565
Gd2 O7 2.290745 1_554
Gd2 O9 2.447063 1_554
Gd2 O5 2.500503 1_555
Gd3 O1 2.232294 1_465
Gd3 O2 2.243552 1_455
Gd3 O2 2.243552 1_565
Gd3 O6 2.290745 1_555
Gd3 O8 2.447063 1_555
Gd3 O5 2.500503 1_555
Hf0 O0 2.031587 1_555
Hf0 O1 2.031587 1_555
Hf0 O5 2.162604 1_545
Hf0 O5 2.162604 1_655
Hf0 O2 2.173405 1_555
Hf0 O3 2.173405 1_555
Hf1 O6 2.031587 1_555
Hf1 O7 2.031587 1_555
Hf1 O4 2.162604 1_455
Hf1 O4 2.162604 1_565
Hf1 O9 2.173405 1_555
Hf1 O8 2.173405 1_555
