# generated using pymatgen
data_HC2S2N(O2F3)2
_symmetry_space_group_name_H-M   'P 1'
_cell_length_a   5.59100200
_cell_length_b   9.66387300
_cell_length_c   16.57507600
_cell_angle_alpha   90.00000000
_cell_angle_beta   90.00000000
_cell_angle_gamma   90.00000000
_symmetry_Int_Tables_number   1
_chemical_formula_structural   HC2S2N(O2F3)2
_chemical_formula_sum   'H4 C8 S8 N4 O16 F24'
_cell_volume   895.56351030
_cell_formula_units_Z   4
loop_
 _symmetry_equiv_pos_site_id
 _symmetry_equiv_pos_as_xyz
  1  'x, y, z'
loop_
 _atom_site_type_symbol
 _atom_site_label
 _atom_site_symmetry_multiplicity
 _atom_site_fract_x
 _atom_site_fract_y
 _atom_site_fract_z
 _atom_site_occupancy
  H  H0  1  0.25000000  0.59831700  0.25000000  1
  H  H1  1  0.75000000  0.90168300  0.75000000  1
  H  H2  1  0.75000000  0.40168300  0.75000000  1
  H  H3  1  0.25000000  0.09831700  0.25000000  1
  C  C0  1  0.22431500  0.40898200  0.09175500  1
  C  C1  1  0.27568500  0.40898200  0.40824500  1
  C  C2  1  0.77568500  0.09101800  0.59175500  1
  C  C3  1  0.72431500  0.09101800  0.90824500  1
  C  C4  1  0.77568500  0.59101800  0.90824500  1
  C  C5  1  0.72431500  0.59101800  0.59175500  1
  C  C6  1  0.22431500  0.90898200  0.40824500  1
  C  C7  1  0.27568500  0.90898200  0.09175500  1
  S  S0  1  0.42688900  0.41714500  0.18178600  1
  S  S1  1  0.07311100  0.41714500  0.31821400  1
  S  S2  1  0.57311100  0.08285500  0.68178600  1
  S  S3  1  0.92688900  0.08285500  0.81821400  1
  S  S4  1  0.57311100  0.58285500  0.81821400  1
  S  S5  1  0.92688900  0.58285500  0.68178600  1
  S  S6  1  0.42688900  0.91714500  0.31821400  1
  S  S7  1  0.07311100  0.91714500  0.18178600  1
  N  N0  1  0.25000000  0.49184900  0.25000000  1
  N  N1  1  0.75000000  0.00815100  0.75000000  1
  N  N2  1  0.75000000  0.50815100  0.75000000  1
  N  N3  1  0.25000000  0.99184900  0.25000000  1
  O  O0  1  0.47212500  0.27709000  0.20575400  1
  O  O1  1  0.02787500  0.27709000  0.29424600  1
  O  O2  1  0.52787500  0.22291000  0.70575400  1
  O  O3  1  0.97212500  0.22291000  0.79424600  1
  O  O4  1  0.52787500  0.72291000  0.79424600  1
  O  O5  1  0.97212500  0.72291000  0.70575400  1
  O  O6  1  0.47212500  0.77709000  0.29424600  1
  O  O7  1  0.02787500  0.77709000  0.20575400  1
  O  O8  1  0.60903500  0.51568200  0.16173100  1
  O  O9  1  0.89096500  0.51568200  0.33826900  1
  O  O10  1  0.39096500  0.98431800  0.66173100  1
  O  O11  1  0.10903500  0.98431800  0.83826900  1
  O  O12  1  0.39096500  0.48431800  0.83826900  1
  O  O13  1  0.10903500  0.48431800  0.66173100  1
  O  O14  1  0.60903500  0.01568200  0.33826900  1
  O  O15  1  0.89096500  0.01568200  0.16173100  1
  F  F0  1  0.03566200  0.32680800  0.10698400  1
  F  F1  1  0.46433800  0.32680800  0.39301600  1
  F  F2  1  0.96433800  0.17319200  0.60698400  1
  F  F3  1  0.53566200  0.17319200  0.89301600  1
  F  F4  1  0.96433800  0.67319200  0.89301600  1
  F  F5  1  0.53566200  0.67319200  0.60698400  1
  F  F6  1  0.03566200  0.82680800  0.39301600  1
  F  F7  1  0.46433800  0.82680800  0.10698400  1
  F  F8  1  0.14813700  0.53751300  0.07318900  1
  F  F9  1  0.35186300  0.53751300  0.42681100  1
  F  F10  1  0.85186300  0.96248700  0.57318900  1
  F  F11  1  0.64813700  0.96248700  0.92681100  1
  F  F12  1  0.85186300  0.46248700  0.92681100  1
  F  F13  1  0.64813700  0.46248700  0.57318900  1
  F  F14  1  0.14813700  0.03751300  0.42681100  1
  F  F15  1  0.35186300  0.03751300  0.07318900  1
  F  F16  1  0.35191400  0.35669800  0.02973500  1
  F  F17  1  0.14808600  0.35669800  0.47026500  1
  F  F18  1  0.64808600  0.14330200  0.52973500  1
  F  F19  1  0.85191400  0.14330200  0.97026500  1
  F  F20  1  0.64808600  0.64330200  0.97026500  1
  F  F21  1  0.85191400  0.64330200  0.52973500  1
  F  F22  1  0.35191400  0.85669800  0.47026500  1
  F  F23  1  0.14808600  0.85669800  0.02973500  1
loop_
_geom_bond_atom_site_label_1
_geom_bond_atom_site_label_2
_geom_bond_distance
_geom_bond_site_symmetry_2
H0 N0 1.028893 1_555
H1 N1 1.028893 1_565
H2 N2 1.028893 1_555
H3 N3 1.028893 1_545
C0 F0 1.344195 1_555
C0 F8 1.348677 1_555
C0 F16 1.349444 1_555
C0 S0 1.875062 1_555
C1 F1 1.344195 1_555
C1 F9 1.348677 1_555
C1 F17 1.349444 1_555
C1 S1 1.875062 1_555
C2 F2 1.344195 1_555
C2 F10 1.348677 1_545
C2 F18 1.349444 1_555
C2 S2 1.875062 1_555
C3 F3 1.344195 1_555
C3 F11 1.348677 1_545
C3 F19 1.349444 1_555
C3 S3 1.875062 1_555
C4 F4 1.344195 1_555
C4 F12 1.348677 1_555
C4 F20 1.349444 1_555
C4 S4 1.875062 1_555
C5 F5 1.344195 1_555
C5 F13 1.348677 1_555
C5 F21 1.349444 1_555
C5 S5 1.875062 1_555
C6 F6 1.344195 1_555
C6 F14 1.348677 1_565
C6 F22 1.349444 1_555
C6 S6 1.875062 1_555
C7 F7 1.344195 1_555
C7 F15 1.348677 1_565
C7 F23 1.349444 1_555
C7 S7 1.875062 1_555
N0 S0 1.666629 1_555
N0 S1 1.666629 1_555
N1 S3 1.666629 1_555
N1 S2 1.666629 1_555
N2 S5 1.666629 1_555
N2 S4 1.666629 1_555
N3 S6 1.666629 1_555
N3 S7 1.666629 1_555
O0 S0 1.433067 1_555
O1 S1 1.433067 1_555
O2 S2 1.433067 1_555
O3 S3 1.433067 1_555
O4 S4 1.433067 1_555
O5 S5 1.433067 1_555
O6 S6 1.433067 1_555
O7 S7 1.433067 1_555
O8 S0 1.433308 1_555
O9 S1 1.433308 1_655
O10 S2 1.433308 1_565
O11 S3 1.433308 1_465
O12 S4 1.433308 1_555
O13 S5 1.433308 1_455
O14 S6 1.433308 1_545
O15 S7 1.433308 1_645
