# generated using pymatgen
data_Li2Si2NiO6
_symmetry_space_group_name_H-M   'P 1'
_cell_length_a   5.56998683
_cell_length_b   10.86492264
_cell_length_c   9.91116819
_cell_angle_alpha   114.68633068
_cell_angle_beta   87.16278621
_cell_angle_gamma   75.59200253
_symmetry_Int_Tables_number   1
_chemical_formula_structural   Li2Si2NiO6
_chemical_formula_sum   'Li8 Si8 Ni4 O24'
_cell_volume   519.75826282
_cell_formula_units_Z   4
loop_
 _symmetry_equiv_pos_site_id
 _symmetry_equiv_pos_as_xyz
  1  'x, y, z'
loop_
 _atom_site_type_symbol
 _atom_site_label
 _atom_site_symmetry_multiplicity
 _atom_site_fract_x
 _atom_site_fract_y
 _atom_site_fract_z
 _atom_site_occupancy
  Li  Li0  1  0.53209400  0.88130500  0.07058900  1
  Li  Li1  1  0.03198500  0.88119700  0.57044200  1
  Li  Li2  1  0.26673700  0.38133400  0.99232800  1
  Li  Li3  1  0.76686800  0.38136900  0.49255800  1
  Li  Li4  1  0.73335300  0.61855900  0.00747100  1
  Li  Li5  1  0.23330800  0.61864200  0.50769400  1
  Li  Li6  1  0.46831700  0.11877600  0.92954200  1
  Li  Li7  1  0.96817400  0.11867800  0.42940400  1
  Si  Si0  1  0.22575300  0.63191800  0.91387400  1
  Si  Si1  1  0.72572300  0.63194500  0.41397100  1
  Si  Si2  1  0.55984700  0.13201800  0.63584600  1
  Si  Si3  1  0.05994800  0.13195400  0.13589700  1
  Si  Si4  1  0.44010400  0.86805100  0.36413400  1
  Si  Si5  1  0.94012400  0.86803700  0.86413600  1
  Si  Si6  1  0.77416000  0.36811700  0.08604900  1
  Si  Si7  1  0.27406700  0.36813600  0.58610600  1
  Ni  Ni0  1  0.51065400  0.75050100  0.74637300  1
  Ni  Ni1  1  0.98965200  0.24919700  0.75363100  1
  Ni  Ni2  1  0.01076000  0.75027800  0.24620200  1
  Ni  Ni3  1  0.48922500  0.24962200  0.25370200  1
  O  O0  1  0.95278000  0.74986000  0.93228300  1
  O  O1  1  0.45282400  0.74986600  0.43224800  1
  O  O2  1  0.04711000  0.25022800  0.06787300  1
  O  O3  1  0.54714000  0.25021500  0.56775700  1
  O  O4  1  0.74948000  0.50018700  0.24995700  1
  O  O5  1  0.24949300  0.50018400  0.74995200  1
  O  O6  1  0.00007900  0.00001300  0.00001000  1
  O  O7  1  0.49986300  0.00005500  0.50006400  1
  O  O8  1  0.45720800  0.69976600  0.91675700  1
  O  O9  1  0.95719500  0.69980600  0.41685100  1
  O  O10  1  0.34696000  0.19990700  0.78710000  1
  O  O11  1  0.84680000  0.19958700  0.28695300  1
  O  O12  1  0.65327000  0.80038600  0.21303400  1
  O  O13  1  0.15317000  0.80026100  0.71297700  1
  O  O14  1  0.54285200  0.30015900  0.08316300  1
  O  O15  1  0.04279300  0.30018600  0.58328800  1
  O  O16  1  0.18236400  0.58661100  0.04811300  1
  O  O17  1  0.68214900  0.58668400  0.54823300  1
  O  O18  1  0.85000700  0.08645400  0.65912300  1
  O  O19  1  0.35020700  0.08651200  0.15915900  1
  O  O20  1  0.14995700  0.91339800  0.34082200  1
  O  O21  1  0.64995100  0.91347900  0.84085300  1
  O  O22  1  0.81793200  0.41321000  0.95166800  1
  O  O23  1  0.31756500  0.41335400  0.45181100  1
loop_
_geom_bond_atom_site_label_1
_geom_bond_atom_site_label_2
_geom_bond_distance
_geom_bond_site_symmetry_2
Li0 O19 1.980139 1_565
Li0 O12 2.014324 1_555
Li0 O8 2.085517 1_554
Li0 O0 2.406386 1_554
Li0 O21 2.523635 1_554
Li1 O18 1.980630 1_465
Li1 O13 2.015259 1_555
Li1 O9 2.083329 1_455
Li1 O1 2.406623 1_555
Li1 O20 2.522877 1_555
Li2 O16 1.980783 1_556
Li2 O14 2.019643 1_556
Li2 O10 2.084506 1_555
Li2 O2 2.398666 1_556
Li2 O22 2.513363 1_455
Li3 O17 1.981289 1_555
Li3 O15 2.018274 1_655
Li3 O11 2.088620 1_555
Li3 O3 2.397638 1_555
Li3 O23 2.516229 1_555
Li4 O22 1.981425 1_554
Li4 O8 2.019108 1_554
Li4 O12 2.088561 1_555
Li4 O0 2.397863 1_554
Li4 O16 2.514393 1_655
Li5 O23 1.980737 1_555
Li5 O9 2.019637 1_455
Li5 O13 2.085862 1_555
Li5 O1 2.398835 1_555
Li5 O17 2.513199 1_555
Li6 O21 1.980578 1_545
Li6 O10 2.016048 1_555
Li6 O14 2.082702 1_556
Li6 O2 2.408779 1_556
Li6 O19 2.523438 1_556
Li7 O20 1.980657 1_645
Li7 O11 2.014595 1_555
Li7 O15 2.084762 1_655
Li7 O3 2.408174 1_555
Li7 O18 2.524223 1_555
Ni0 O21 1.996242 1_555
Ni0 O17 1.996360 1_555
Ni0 O13 2.011379 1_555
Ni0 O8 2.013368 1_555
Ni1 O18 1.995492 1_555
Ni1 O22 1.996792 1_555
Ni1 O10 2.010241 1_655
Ni1 O15 2.014513 1_655
Ni2 O16 1.995600 1_555
Ni2 O20 1.997269 1_555
Ni2 O12 2.011022 1_455
Ni2 O9 2.014081 1_455
Ni3 O23 1.996037 1_555
Ni3 O19 1.996463 1_555
Ni3 O11 2.011657 1_555
Ni3 O14 2.013576 1_555
O0 Si5 1.671477 1_555
O0 Si0 1.671760 1_655
O1 Si4 1.671273 1_555
O1 Si1 1.671688 1_555
O2 Si3 1.671436 1_555
O2 Si6 1.671976 1_455
O3 Si2 1.671223 1_555
O3 Si7 1.672197 1_555
O4 Si6 1.627749 1_555
O4 Si1 1.627860 1_555
O5 Si0 1.627191 1_555
O5 Si7 1.627368 1_555
O6 Si3 1.627801 1_555
O6 Si5 1.628186 1_444
O7 Si2 1.627751 1_555
O7 Si4 1.628118 1_545
O8 Si0 1.632563 1_555
O9 Si1 1.632743 1_555
O10 Si2 1.631738 1_555
O11 Si3 1.631520 1_655
O12 Si4 1.631840 1_555
O13 Si5 1.631728 1_455
O14 Si6 1.632586 1_555
O15 Si7 1.632448 1_555
O16 Si0 1.626437 1_554
O17 Si1 1.626500 1_555
O18 Si2 1.626193 1_555
O19 Si3 1.626502 1_555
O20 Si4 1.625963 1_555
O21 Si5 1.626125 1_555
O22 Si6 1.626565 1_556
O23 Si7 1.626410 1_555
