# generated using pymatgen
data_VOF
_symmetry_space_group_name_H-M   'P 1'
_cell_length_a   3.10144600
_cell_length_b   4.75446400
_cell_length_c   14.20651076
_cell_angle_alpha   88.25387240
_cell_angle_beta   90.00000000
_cell_angle_gamma   90.00000000
_symmetry_Int_Tables_number   1
_chemical_formula_structural   VOF
_chemical_formula_sum   'V6 O6 F6'
_cell_volume   209.38786151
_cell_formula_units_Z   6
loop_
 _symmetry_equiv_pos_site_id
 _symmetry_equiv_pos_as_xyz
  1  'x, y, z'
loop_
 _atom_site_type_symbol
 _atom_site_label
 _atom_site_symmetry_multiplicity
 _atom_site_fract_x
 _atom_site_fract_y
 _atom_site_fract_z
 _atom_site_occupancy
  V  V0  1  0.00000000  0.00000000  0.00000000  1
  V  V1  1  0.00000000  0.97515700  0.33307600  1
  V  V2  1  0.00000000  0.02484300  0.66692400  1
  V  V3  1  0.50000000  0.43025700  0.16682400  1
  V  V4  1  0.50000000  0.50000000  0.50000000  1
  V  V5  1  0.50000000  0.56974300  0.83317600  1
  O  O0  1  0.50000000  0.81479100  0.93534000  1
  O  O1  1  0.00000000  0.73463600  0.76507700  1
  O  O2  1  0.00000000  0.68875900  0.43271400  1
  O  O3  1  0.00000000  0.26536400  0.23492300  1
  O  O4  1  0.00000000  0.31124100  0.56728600  1
  O  O5  1  0.50000000  0.18520900  0.06466000  1
  F  F0  1  0.50000000  0.77372100  0.26566500  1
  F  F1  1  0.50000000  0.82104600  0.60107900  1
  F  F2  1  0.00000000  0.67915900  0.10516700  1
  F  F3  1  0.00000000  0.32084100  0.89483300  1
  F  F4  1  0.50000000  0.17895400  0.39892100  1
  F  F5  1  0.50000000  0.22627900  0.73433500  1
loop_
_geom_bond_atom_site_label_1
_geom_bond_atom_site_label_2
_geom_bond_distance
_geom_bond_site_symmetry_2
O0 V5 1.888647 1_555
O0 V0 2.018230 1_566
O0 V0 2.018230 1_666
O1 V2 1.931560 1_565
O1 V5 1.977144 1_555
O1 V5 1.977144 1_455
O2 V1 1.933997 1_555
O2 V4 2.017825 1_455
O2 V4 2.017825 1_555
O3 V1 1.931560 1_545
O3 V3 1.977144 1_555
O3 V3 1.977144 1_455
O4 V2 1.933997 1_555
O4 V4 2.017825 1_455
O4 V4 2.017825 1_555
O5 V3 1.888647 1_555
O5 V0 2.018230 1_655
O5 V0 2.018230 1_555
F0 V1 2.072440 1_555
F0 V1 2.072440 1_655
F0 V3 2.185892 1_555
F1 V2 2.067331 1_665
F1 V2 2.067331 1_565
F1 V4 2.127326 1_555
F2 V0 2.102437 1_565
F2 V3 2.123500 1_555
F2 V3 2.123500 1_455
F3 V0 2.102437 1_556
F3 V5 2.123500 1_555
F3 V5 2.123500 1_455
F4 V1 2.067331 1_545
F4 V1 2.067331 1_645
F4 V4 2.127326 1_555
F5 V2 2.072440 1_655
F5 V2 2.072440 1_555
F5 V5 2.185892 1_555
