# generated using pymatgen
data_Li3P2WO8
_symmetry_space_group_name_H-M   'P 1'
_cell_length_a   5.07913700
_cell_length_b   5.09500432
_cell_length_c   6.26778427
_cell_angle_alpha   89.97349197
_cell_angle_beta   90.38430369
_cell_angle_gamma   113.03003443
_symmetry_Int_Tables_number   1
_chemical_formula_structural   Li3P2WO8
_chemical_formula_sum   'Li3 P2 W1 O8'
_cell_volume   149.26807609
_cell_formula_units_Z   1
loop_
 _symmetry_equiv_pos_site_id
 _symmetry_equiv_pos_as_xyz
  1  'x, y, z'
loop_
 _atom_site_type_symbol
 _atom_site_label
 _atom_site_symmetry_multiplicity
 _atom_site_fract_x
 _atom_site_fract_y
 _atom_site_fract_z
 _atom_site_occupancy
  Li  Li0  1  0.17299800  0.33895200  0.28082200  1
  Li  Li1  1  0.50788500  0.00823400  0.49988400  1
  Li  Li2  1  0.83589200  0.67423500  0.71771700  1
  P  P0  1  0.14984000  0.35358500  0.76472000  1
  P  P1  1  0.85408600  0.65454900  0.23496400  1
  W  W0  1  0.50183700  0.00382200  0.99996700  1
  O  O0  1  0.74740200  0.76380000  0.42807200  1
  O  O1  1  0.75636500  0.74859100  0.02295700  1
  O  O2  1  0.25363400  0.68888500  0.76241000  1
  O  O3  1  0.81269400  0.24407100  0.75900600  1
  O  O4  1  0.19072200  0.76064100  0.23929600  1
  O  O5  1  0.74658200  0.31888200  0.23945800  1
  O  O6  1  0.24548600  0.25715800  0.97648000  1
  O  O7  1  0.26053700  0.24915500  0.57125600  1
loop_
_geom_bond_atom_site_label_1
_geom_bond_atom_site_label_2
_geom_bond_distance
_geom_bond_site_symmetry_2
Li0 O7 1.966804 1_555
Li0 O6 2.019451 1_554
Li0 O4 2.130820 1_555
Li0 O5 2.141887 1_455
Li1 O0 2.104010 1_545
Li1 O7 2.121279 1_555
Li1 O3 2.234047 1_555
Li1 O5 2.272027 1_555
Li1 O4 2.287072 1_545
Li1 O2 2.324778 1_545
Li2 O0 1.963366 1_555
Li2 O1 2.024278 1_556
Li2 O2 2.110468 1_655
Li2 O3 2.163835 1_555
O0 P1 1.521132 1_555
O1 P1 1.555094 1_555
O1 W0 2.166978 1_564
O2 P0 1.578614 1_555
O2 W0 2.185245 1_565
O3 P0 1.580054 1_655
O3 W0 2.188678 1_555
O4 P1 1.578815 1_455
O4 W0 2.186442 1_564
O5 P1 1.579024 1_555
O5 W0 2.188878 1_554
O6 P0 1.554509 1_555
O6 W0 2.166846 1_555
O7 P0 1.520988 1_555
