# generated using pymatgen
data_RbLiV(PO4)2
_symmetry_space_group_name_H-M   'P 1'
_cell_length_a   9.02814300
_cell_length_b   4.93873600
_cell_length_c   16.36741868
_cell_angle_alpha   84.67240548
_cell_angle_beta   90.00000000
_cell_angle_gamma   90.00000000
_symmetry_Int_Tables_number   1
_chemical_formula_structural   RbLiV(PO4)2
_chemical_formula_sum   'Rb4 Li4 V4 P8 O32'
_cell_volume   726.63156252
_cell_formula_units_Z   4
loop_
 _symmetry_equiv_pos_site_id
 _symmetry_equiv_pos_as_xyz
  1  'x, y, z'
loop_
 _atom_site_type_symbol
 _atom_site_label
 _atom_site_symmetry_multiplicity
 _atom_site_fract_x
 _atom_site_fract_y
 _atom_site_fract_z
 _atom_site_occupancy
  Rb  Rb0  1  0.63598300  0.09687700  0.58983000  1
  Rb  Rb1  1  0.13598300  0.90312300  0.91017000  1
  Rb  Rb2  1  0.86401700  0.09687700  0.08983000  1
  Rb  Rb3  1  0.36401700  0.90312300  0.41017000  1
  Li  Li0  1  0.48531300  0.24500400  0.98266100  1
  Li  Li1  1  0.01468700  0.24500400  0.48266100  1
  Li  Li2  1  0.98531300  0.75499600  0.51733900  1
  Li  Li3  1  0.51468700  0.75499600  0.01733900  1
  V  V0  1  0.56920000  0.09567000  0.83154200  1
  V  V1  1  0.93080000  0.09567000  0.33154200  1
  V  V2  1  0.06920000  0.90433000  0.66845800  1
  V  V3  1  0.43080000  0.90433000  0.16845800  1
  P  P0  1  0.27785100  0.42211500  0.59419200  1
  P  P1  1  0.88515900  0.35868300  0.75973000  1
  P  P2  1  0.22214900  0.42211500  0.09419200  1
  P  P3  1  0.61484100  0.35868300  0.25973000  1
  P  P4  1  0.38515900  0.64131700  0.74027000  1
  P  P5  1  0.77785100  0.57788500  0.90580800  1
  P  P6  1  0.11484100  0.64131700  0.24027000  1
  P  P7  1  0.72214900  0.57788500  0.40580800  1
  O  O0  1  0.90952300  0.43813600  0.85367900  1
  O  O1  1  0.42416100  0.40085100  0.80118700  1
  O  O2  1  0.65442800  0.35761500  0.91844900  1
  O  O3  1  0.59047700  0.43813600  0.35367900  1
  O  O4  1  0.34216500  0.35905500  0.51312200  1
  O  O5  1  0.72008600  0.28684800  0.75190800  1
  O  O6  1  0.07583900  0.40085100  0.30118700  1
  O  O7  1  0.84557200  0.35761500  0.41844900  1
  O  O8  1  0.15783500  0.35905500  0.01312200  1
  O  O9  1  0.77991400  0.28684800  0.25190800  1
  O  O10  1  0.23129200  0.17486800  0.65087600  1
  O  O11  1  0.98981000  0.11529000  0.75638700  1
  O  O12  1  0.96773800  0.04543400  0.58665200  1
  O  O13  1  0.26870800  0.17486800  0.15087600  1
  O  O14  1  0.51019000  0.11529000  0.25638700  1
  O  O15  1  0.46773800  0.95456600  0.91334800  1
  O  O16  1  0.53226200  0.04543400  0.08665200  1
  O  O17  1  0.48981000  0.88471000  0.74361300  1
  O  O18  1  0.73129200  0.82513200  0.84912400  1
  O  O19  1  0.03226200  0.95456600  0.41334800  1
  O  O20  1  0.01019000  0.88471000  0.24361300  1
  O  O21  1  0.76870800  0.82513200  0.34912400  1
  O  O22  1  0.22008600  0.71315200  0.74809200  1
  O  O23  1  0.84216500  0.64094500  0.98687800  1
  O  O24  1  0.15442800  0.64238500  0.58155100  1
  O  O25  1  0.92416100  0.59914900  0.69881300  1
  O  O26  1  0.27991400  0.71315200  0.24809200  1
  O  O27  1  0.65783500  0.64094500  0.48687800  1
  O  O28  1  0.40952300  0.56186400  0.64632100  1
  O  O29  1  0.34557200  0.64238500  0.08155100  1
  O  O30  1  0.57583900  0.59914900  0.19881300  1
  O  O31  1  0.09047700  0.56186400  0.14632100  1
loop_
_geom_bond_atom_site_label_1
_geom_bond_atom_site_label_2
_geom_bond_distance
_geom_bond_site_symmetry_2
Li0 O2 1.906944 1_555
Li0 O15 1.916218 1_545
Li0 O16 1.933030 1_556
Li1 O7 1.906944 1_455
Li1 O19 1.916218 1_545
Li1 O12 1.933030 1_455
Li2 O24 1.906944 1_655
Li2 O12 1.916218 1_565
Li2 O19 1.933030 1_655
Li3 O29 1.906944 1_555
Li3 O16 1.916218 1_565
Li3 O15 1.933030 1_554
O0 P1 1.636746 1_555
O0 P5 1.651309 1_555
O0 Rb1 3.271531 1_655
O0 Rb1 3.400433 1_645
O1 P4 1.519409 1_555
O1 V0 2.023382 1_555
O2 P5 1.557582 1_555
O2 V0 2.151911 1_555
O2 Rb2 3.526506 1_556
O3 P3 1.636746 1_555
O3 P7 1.651309 1_555
O3 Rb3 3.271531 1_555
O3 Rb3 3.400433 1_545
O4 P0 1.507167 1_555
O4 Rb3 2.941636 1_545
O4 Rb3 3.042622 1_555
O4 Rb0 3.160293 1_555
O5 P1 1.540030 1_555
O5 V0 2.053642 1_555
O5 Rb0 2.992709 1_555
O6 P6 1.519409 1_555
O6 V1 2.023382 1_455
O7 P7 1.557582 1_555
O7 V1 2.151911 1_555
O7 Rb0 3.526506 1_555
O8 P2 1.507167 1_555
O8 Rb1 2.941636 1_544
O8 Rb1 3.042622 1_554
O8 Rb2 3.160293 1_455
O9 P3 1.540030 1_555
O9 V1 2.053642 1_555
O9 Rb2 2.992709 1_555
O10 P0 1.522538 1_555
O10 V2 1.984471 1_545
O11 P1 1.533883 1_555
O11 V2 1.987180 1_645
O11 Rb1 2.947060 1_645
O12 V2 1.715878 1_645
O12 Rb0 3.006746 1_555
O13 P2 1.522538 1_555
O13 V3 1.984471 1_545
O14 P3 1.533883 1_555
O14 V3 1.987180 1_545
O14 Rb3 2.947060 1_545
O15 V0 1.715878 1_565
O15 Rb1 3.006746 1_555
O16 V3 1.715878 1_545
O16 Rb2 3.006746 1_555
O17 P4 1.533883 1_555
O17 V0 1.987180 1_565
O17 Rb0 2.947060 1_565
O18 P5 1.522538 1_555
O18 V0 1.984471 1_565
O19 V1 1.715878 1_465
O19 Rb3 3.006746 1_555
O20 P6 1.533883 1_555
O20 V1 1.987180 1_465
O20 Rb2 2.947060 1_465
O21 P7 1.522538 1_555
O21 V1 1.984471 1_565
O22 P4 1.540030 1_555
O22 V2 2.053642 1_555
O22 Rb1 2.992709 1_555
O23 P5 1.507167 1_555
O23 Rb2 2.941636 1_566
O23 Rb2 3.042622 1_556
O23 Rb1 3.160293 1_655
O24 P0 1.557582 1_555
O24 V2 2.151911 1_555
O24 Rb3 3.526506 1_555
O25 P1 1.519409 1_555
O25 V2 2.023382 1_655
O26 P6 1.540030 1_555
O26 V3 2.053642 1_555
O26 Rb3 2.992709 1_555
O27 P7 1.507167 1_555
O27 Rb0 2.941636 1_565
O27 Rb0 3.042622 1_555
O27 Rb3 3.160293 1_555
O28 P4 1.636746 1_555
O28 P0 1.651309 1_555
O28 Rb0 3.271531 1_555
O28 Rb0 3.400433 1_565
O29 P2 1.557582 1_555
O29 V3 2.151911 1_555
O29 Rb1 3.526506 1_554
O30 P3 1.519409 1_555
O30 V3 2.023382 1_555
O31 P6 1.636746 1_555
O31 P2 1.651309 1_555
O31 Rb2 3.271531 1_455
O31 Rb2 3.400433 1_465
