# generated using pymatgen
data_Li3MnVP2(HO5)2
_symmetry_space_group_name_H-M   'P 1'
_cell_length_a   7.29695382
_cell_length_b   8.01896545
_cell_length_c   7.61029526
_cell_angle_alpha   88.54670124
_cell_angle_beta   116.89663924
_cell_angle_gamma   89.08571653
_symmetry_Int_Tables_number   1
_chemical_formula_structural   Li3MnVP2(HO5)2
_chemical_formula_sum   'Li6 Mn2 V2 P4 H4 O20'
_cell_volume   396.82156102
_cell_formula_units_Z   2
loop_
 _symmetry_equiv_pos_site_id
 _symmetry_equiv_pos_as_xyz
  1  'x, y, z'
loop_
 _atom_site_type_symbol
 _atom_site_label
 _atom_site_symmetry_multiplicity
 _atom_site_fract_x
 _atom_site_fract_y
 _atom_site_fract_z
 _atom_site_occupancy
  Li  Li0  1  0.30057400  0.83270900  0.84908700  1
  Li  Li1  1  0.80067400  0.33264300  0.84907500  1
  Li  Li2  1  0.60948400  0.82064800  0.79785200  1
  Li  Li3  1  0.10940000  0.32069300  0.79776900  1
  Li  Li4  1  0.41777600  0.17777300  0.16934200  1
  Li  Li5  1  0.91785700  0.67767900  0.16942100  1
  Mn  Mn0  1  0.50469800  0.49777700  0.01056100  1
  Mn  Mn1  1  0.00476700  0.99785400  0.01071400  1
  V  V0  1  0.49430900  0.50376900  0.49423600  1
  V  V1  1  0.99432900  0.00372500  0.49436100  1
  P  P0  1  0.52879200  0.84857700  0.23454800  1
  P  P1  1  0.02868100  0.34859700  0.23450900  1
  P  P2  1  0.47495400  0.14976200  0.77394000  1
  P  P3  1  0.97504800  0.64973900  0.77400900  1
  H  H0  1  0.20054100  0.85472200  0.35693000  1
  H  H1  1  0.70054600  0.35494400  0.35672700  1
  H  H2  1  0.79187100  0.12559000  0.63917400  1
  H  H3  1  0.29184500  0.62540600  0.63913700  1
  O  O0  1  0.44235700  0.61543400  0.70843600  1
  O  O1  1  0.94236200  0.11537300  0.70857100  1
  O  O2  1  0.48919500  0.73530500  0.38050100  1
  O  O3  1  0.98931900  0.23527400  0.38057400  1
  O  O4  1  0.32135100  0.00951600  0.66748000  1
  O  O5  1  0.82151200  0.50943400  0.66751800  1
  O  O6  1  0.32229700  0.93833600  0.08534000  1
  O  O7  1  0.82214100  0.43826700  0.08523700  1
  O  O8  1  0.60489500  0.74597000  0.10655400  1
  O  O9  1  0.10488900  0.24598600  0.10657800  1
  O  O10  1  0.39303500  0.25300900  0.89501400  1
  O  O11  1  0.89311700  0.75301100  0.89500700  1
  O  O12  1  0.68124000  0.05778500  0.90591000  1
  O  O13  1  0.18134200  0.55786600  0.90594100  1
  O  O14  1  0.67561600  0.99008800  0.34090300  1
  O  O15  1  0.17541700  0.49022300  0.34075700  1
  O  O16  1  0.51951600  0.27183600  0.63566300  1
  O  O17  1  0.01947200  0.77180800  0.63561600  1
  O  O18  1  0.55390400  0.38774100  0.29533500  1
  O  O19  1  0.05398200  0.88782400  0.29538700  1
loop_
_geom_bond_atom_site_label_1
_geom_bond_atom_site_label_2
_geom_bond_distance
_geom_bond_site_symmetry_2
Li0 O6 1.949074 1_556
Li0 O4 2.010066 1_565
Li0 O17 2.035283 1_555
Li0 O8 2.280145 1_556
Li0 O13 2.480927 1_555
Li1 O7 1.949057 1_556
Li1 O5 2.009887 1_555
Li1 O16 2.035184 1_555
Li1 O9 2.279633 1_656
Li1 O12 2.481644 1_555
Li2 O11 1.919282 1_555
Li2 O0 2.007065 1_555
Li2 O12 2.070748 1_565
Li2 O4 2.373491 1_565
Li2 O8 2.424759 1_556
Li3 O10 1.919317 1_555
Li3 O1 2.007334 1_455
Li3 O13 2.071403 1_555
Li3 O5 2.371638 1_455
Li3 O9 2.425341 1_556
Li4 O18 2.003630 1_555
Li4 O6 2.069444 1_545
Li4 O10 2.084891 1_554
Li4 O9 2.167998 1_555
Li4 O14 2.257672 1_545
Li5 O19 2.004788 1_655
Li5 O7 2.069872 1_555
Li5 O11 2.085720 1_554
Li5 O8 2.168456 1_555
Li5 O15 2.255037 1_655
Mn0 O8 2.160156 1_555
Mn0 O7 2.162449 1_555
Mn0 O13 2.162857 1_554
Mn0 O10 2.186323 1_554
Mn0 O18 2.189331 1_555
Mn0 O0 2.305134 1_554
Mn1 O9 2.159384 1_565
Mn1 O6 2.163150 1_555
Mn1 O12 2.163575 1_464
Mn1 O11 2.187166 1_454
Mn1 O19 2.188598 1_555
Mn1 O1 2.304714 1_464
H0 O19 0.982327 1_555
H1 O18 0.982295 1_555
H2 O1 0.980677 1_555
H3 O0 0.980689 1_555
O0 V0 2.055517 1_555
O1 V1 2.055581 1_555
O2 P0 1.545918 1_555
O2 V0 2.021110 1_555
O3 P1 1.545931 1_655
O3 V1 2.021506 1_555
O4 P2 1.562787 1_555
O4 V1 2.143446 1_455
O5 P3 1.562948 1_555
O5 V0 2.144633 1_555
O6 P0 1.566452 1_555
O7 P1 1.566489 1_655
O8 P0 1.565145 1_555
O9 P1 1.565262 1_555
O10 P2 1.553388 1_555
O11 P3 1.553101 1_555
O12 P2 1.541970 1_555
O13 P3 1.541581 1_455
O14 P0 1.546437 1_555
O14 V1 2.083667 1_565
O15 P1 1.546650 1_555
O15 V0 2.084743 1_555
O16 P2 1.561694 1_555
O16 V0 2.088007 1_555
O17 P3 1.561807 1_455
O17 V1 2.087377 1_465
O18 V0 2.000039 1_555
O19 V1 2.000265 1_465
