# generated using pymatgen
data_LiP3(WO6)2
_symmetry_space_group_name_H-M   'P 1'
_cell_length_a   8.63204900
_cell_length_b   8.64366229
_cell_length_c   9.11755731
_cell_angle_alpha   90.41027850
_cell_angle_beta   118.22499754
_cell_angle_gamma   119.18054592
_symmetry_Int_Tables_number   1
_chemical_formula_structural   LiP3(WO6)2
_chemical_formula_sum   'Li2 P6 W4 O24'
_cell_volume   497.70603569
_cell_formula_units_Z   2
loop_
 _symmetry_equiv_pos_site_id
 _symmetry_equiv_pos_as_xyz
  1  'x, y, z'
loop_
 _atom_site_type_symbol
 _atom_site_label
 _atom_site_symmetry_multiplicity
 _atom_site_fract_x
 _atom_site_fract_y
 _atom_site_fract_z
 _atom_site_occupancy
  Li  Li0  1  0.34906100  0.81398300  0.58121500  1
  Li  Li1  1  0.65093900  0.18601700  0.41878500  1
  P  P0  1  0.00614200  0.54139900  0.25334300  1
  P  P1  1  0.71122300  0.74214400  0.75093700  1
  P  P2  1  0.28307200  0.02710400  0.74801300  1
  P  P3  1  0.71692800  0.97289600  0.25198700  1
  P  P4  1  0.28877700  0.25785600  0.24906300  1
  P  P5  1  0.99385800  0.45860100  0.74665700  1
  W  W0  1  0.79708600  0.14049600  0.93057500  1
  W  W1  1  0.79674800  0.64690900  0.43835900  1
  W  W2  1  0.20325200  0.35309100  0.56164100  1
  W  W3  1  0.20291400  0.85950400  0.06942500  1
  O  O0  1  0.64174100  0.87892900  0.74587200  1
  O  O1  1  0.17506300  0.54270600  0.42957900  1
  O  O2  1  0.90975800  0.38752600  0.09683900  1
  O  O3  1  0.13788800  0.73864000  0.24336500  1
  O  O4  1  0.50024300  0.09120200  0.77778000  1
  O  O5  1  0.90791700  0.80596500  0.93535100  1
  O  O6  1  0.82891300  0.52410300  0.27103100  1
  O  O7  1  0.22305700  0.23960300  0.38246800  1
  O  O8  1  0.13166300  0.83805100  0.59891600  1
  O  O9  1  0.53318200  0.54379600  0.71054800  1
  O  O10  1  0.28569500  0.00477800  0.91591700  1
  O  O11  1  0.22647600  0.16849300  0.69352200  1
  O  O12  1  0.77352400  0.83150700  0.30647800  1
  O  O13  1  0.71430500  0.99522200  0.08408300  1
  O  O14  1  0.46681800  0.45620400  0.28945200  1
  O  O15  1  0.86833700  0.16194900  0.40108400  1
  O  O16  1  0.77694300  0.76039700  0.61753200  1
  O  O17  1  0.17108700  0.47589700  0.72896900  1
  O  O18  1  0.09208300  0.19403500  0.06464900  1
  O  O19  1  0.49975700  0.90879800  0.22222000  1
  O  O20  1  0.86211200  0.26136000  0.75663500  1
  O  O21  1  0.09024200  0.61247400  0.90316100  1
  O  O22  1  0.82493700  0.45729400  0.57042100  1
  O  O23  1  0.35825900  0.12107100  0.25412800  1
loop_
_geom_bond_atom_site_label_1
_geom_bond_atom_site_label_2
_geom_bond_distance
_geom_bond_site_symmetry_2
Li0 O0 1.992282 1_555
Li0 O1 2.054445 1_555
Li0 O8 2.063393 1_555
Li0 O4 2.309485 1_565
Li0 O3 2.595792 1_555
Li1 O23 1.992282 1_555
Li1 O22 2.054445 1_555
Li1 O15 2.063393 1_555
Li1 O19 2.309485 1_545
Li1 O20 2.595792 1_555
O0 P1 1.557503 1_555
O0 W0 2.144517 1_565
O1 P0 1.573447 1_555
O1 W2 2.082129 1_555
O2 P0 1.506041 1_655
O2 W0 2.082603 1_554
O3 P0 1.554885 1_555
O3 W3 2.053166 1_555
O4 P2 1.548767 1_555
O4 W0 2.058752 1_555
O5 P1 1.545093 1_555
O5 W3 2.022684 1_656
O6 P0 1.549027 1_655
O6 W1 2.048473 1_555
O7 P4 1.547357 1_555
O7 W2 2.016172 1_555
O8 P2 1.559330 1_565
O8 W1 2.129612 1_455
O9 P1 1.524206 1_555
O9 W2 2.098629 1_555
O10 P2 1.535264 1_555
O10 W3 2.035316 1_546
O11 P2 1.529836 1_555
O11 W2 2.035527 1_555
O12 P3 1.529836 1_555
O12 W1 2.035527 1_555
O13 P3 1.535264 1_555
O13 W0 2.035316 1_564
O14 P4 1.524206 1_555
O14 W1 2.098629 1_555
O15 P3 1.559330 1_545
O15 W2 2.129612 1_655
O16 P1 1.547357 1_555
O16 W1 2.016172 1_555
O17 P5 1.549027 1_455
O17 W2 2.048473 1_555
O18 P4 1.545093 1_555
O18 W0 2.022684 1_454
O19 P3 1.548767 1_555
O19 W3 2.058752 1_555
O20 P5 1.554885 1_555
O20 W0 2.053166 1_555
O21 P5 1.506041 1_455
O21 W3 2.082603 1_556
O22 P5 1.573447 1_555
O22 W1 2.082129 1_555
O23 P4 1.557503 1_555
O23 W3 2.144517 1_545
