# generated using pymatgen
data_LiVP4(H2O7)2
_symmetry_space_group_name_H-M   'P 1'
_cell_length_a   5.16907671
_cell_length_b   13.54641702
_cell_length_c   7.44353951
_cell_angle_alpha   91.75722981
_cell_angle_beta   99.20704581
_cell_angle_gamma   91.76736937
_symmetry_Int_Tables_number   1
_chemical_formula_structural   LiVP4(H2O7)2
_chemical_formula_sum   'Li2 V2 P8 H8 O28'
_cell_volume   513.92038480
_cell_formula_units_Z   2
loop_
 _symmetry_equiv_pos_site_id
 _symmetry_equiv_pos_as_xyz
  1  'x, y, z'
loop_
 _atom_site_type_symbol
 _atom_site_label
 _atom_site_symmetry_multiplicity
 _atom_site_fract_x
 _atom_site_fract_y
 _atom_site_fract_z
 _atom_site_occupancy
  Li  Li0  1  0.24852200  0.24981100  0.00097900  1
  Li  Li1  1  0.75124500  0.75028500  0.99923900  1
  V  V0  1  0.50020100  0.49996400  0.99981000  1
  V  V1  1  0.00011600  0.00003900  0.00005200  1
  P  P0  1  0.42964900  0.09026100  0.72968100  1
  P  P1  1  0.92953400  0.59010500  0.72954600  1
  P  P2  1  0.07063300  0.40991700  0.27029500  1
  P  P3  1  0.57026900  0.90971100  0.27046500  1
  P  P4  1  0.69406200  0.30276700  0.76288400  1
  P  P5  1  0.19425600  0.80263300  0.76280600  1
  P  P6  1  0.80578000  0.19741600  0.23725000  1
  P  P7  1  0.30584400  0.69714800  0.23699500  1
  H  H0  1  0.46420900  0.37039700  0.52458300  1
  H  H1  1  0.96420600  0.87028600  0.52462700  1
  H  H2  1  0.03574300  0.12977500  0.47549200  1
  H  H3  1  0.53562700  0.62956500  0.47536600  1
  H  H4  1  0.20189000  0.48738200  0.63658000  1
  H  H5  1  0.70185700  0.98741800  0.63674900  1
  H  H6  1  0.29806800  0.01256300  0.36344300  1
  H  H7  1  0.79816800  0.51262900  0.36317700  1
  O  O0  1  0.27399400  0.06551500  0.87919200  1
  O  O1  1  0.77378200  0.56546200  0.87901900  1
  O  O2  1  0.22652000  0.43451300  0.12087400  1
  O  O3  1  0.72601500  0.93449000  0.12103200  1
  O  O4  1  0.29138100  0.07328100  0.53605700  1
  O  O5  1  0.79118800  0.57320900  0.53591200  1
  O  O6  1  0.20882700  0.42679600  0.46398300  1
  O  O7  1  0.70841900  0.92667300  0.46411400  1
  O  O8  1  0.56789200  0.37149700  0.88969400  1
  O  O9  1  0.06861300  0.87114200  0.89023500  1
  O  O10  1  0.93140900  0.12885400  0.10990400  1
  O  O11  1  0.43216600  0.62844900  0.11020400  1
  O  O12  1  0.52602400  0.21976700  0.18535700  1
  O  O13  1  0.02613700  0.71946900  0.18484100  1
  O  O14  1  0.97375400  0.28044700  0.81506500  1
  O  O15  1  0.47402400  0.78028100  0.81467400  1
  O  O16  1  0.50877900  0.20305600  0.76989000  1
  O  O17  1  0.00879700  0.70295000  0.76968700  1
  O  O18  1  0.99126600  0.29707600  0.23012900  1
  O  O19  1  0.49112500  0.79693200  0.23019000  1
  O  O20  1  0.63904000  0.33893600  0.56392700  1
  O  O21  1  0.13913800  0.83890400  0.56389300  1
  O  O22  1  0.86092600  0.16122000  0.43620600  1
  O  O23  1  0.36073000  0.66098200  0.43596700  1
  O  O24  1  0.69393700  0.02892100  0.75587800  1
  O  O25  1  0.19371500  0.52880200  0.75576900  1
  O  O26  1  0.80651700  0.47123100  0.24399400  1
  O  O27  1  0.30600600  0.97107300  0.24429100  1
loop_
_geom_bond_atom_site_label_1
_geom_bond_atom_site_label_2
_geom_bond_distance
_geom_bond_site_symmetry_2
Li0 O12 1.883366 1_555
Li0 O14 1.883388 1_454
Li0 O18 2.408109 1_455
Li0 O16 2.428171 1_554
Li0 O10 2.523923 1_455
Li0 O8 2.546019 1_554
Li1 O13 1.883011 1_656
Li1 O15 1.883104 1_555
Li1 O17 2.411747 1_655
Li1 O19 2.426508 1_556
Li1 O9 2.524217 1_655
Li1 O11 2.545224 1_556
H0 O20 1.015292 1_555
H0 O6 1.556472 1_555
H1 O21 1.015160 1_655
H1 O7 1.557988 1_555
H2 O22 1.015063 1_455
H2 O4 1.558186 1_555
H3 O23 1.015378 1_555
H3 O5 1.556854 1_555
H4 O25 1.042422 1_555
H4 O6 1.509073 1_555
H5 O24 1.042370 1_565
H5 O7 1.510087 1_555
H6 O27 1.042441 1_545
H6 O4 1.509879 1_555
H7 O26 1.042406 1_555
H7 O5 1.509932 1_555
O0 P0 1.513622 1_555
O0 V1 1.994811 1_556
O1 P1 1.513393 1_555
O1 V0 1.993465 1_555
O2 P2 1.513378 1_555
O2 V0 1.994760 1_554
O3 P3 1.513546 1_555
O3 V1 1.996645 1_665
O4 P0 1.510239 1_555
O5 P1 1.510308 1_555
O6 P2 1.510387 1_555
O7 P3 1.510182 1_555
O8 P4 1.537438 1_555
O8 V0 1.965871 1_555
O9 P5 1.537236 1_555
O9 V1 1.971194 1_566
O10 P6 1.537215 1_555
O10 V1 1.970624 1_655
O11 P7 1.537518 1_555
O11 V0 1.967435 1_554
O12 P6 1.479005 1_555
O13 P7 1.478885 1_555
O14 P4 1.478831 1_555
O15 P5 1.479047 1_555
O16 P0 1.576641 1_555
O16 P4 1.638584 1_555
O17 P1 1.577365 1_455
O17 P5 1.638652 1_555
O18 P2 1.577443 1_655
O18 P6 1.638748 1_555
O19 P3 1.576507 1_555
O19 P7 1.639152 1_555
O20 P4 1.559634 1_555
O21 P5 1.559832 1_555
O22 P6 1.559781 1_555
O23 P7 1.559696 1_555
O24 P0 1.609189 1_555
O24 V1 2.263311 1_656
O25 P1 1.608448 1_455
O25 V0 2.263406 1_555
O26 P2 1.608246 1_655
O26 V0 2.263329 1_554
O27 P3 1.609242 1_555
O27 V1 2.263037 1_565
