# generated using pymatgen
data_HfZrO4
_symmetry_space_group_name_H-M   'P 1'
_cell_length_a   6.35415935
_cell_length_b   6.35415935
_cell_length_c   6.35415935
_cell_angle_alpha   132.59500176
_cell_angle_beta   132.59500176
_cell_angle_gamma   69.29089418
_symmetry_Int_Tables_number   1
_chemical_formula_structural   HfZrO4
_chemical_formula_sum   'Hf2 Zr2 O8'
_cell_volume   136.42495066
_cell_formula_units_Z   2
loop_
 _symmetry_equiv_pos_site_id
 _symmetry_equiv_pos_as_xyz
  1  'x, y, z'
loop_
 _atom_site_type_symbol
 _atom_site_label
 _atom_site_symmetry_multiplicity
 _atom_site_fract_x
 _atom_site_fract_y
 _atom_site_fract_z
 _atom_site_occupancy
  Hf  Hf0  1  0.00000000  0.00000000  0.00000000  1
  Hf  Hf1  1  0.75000000  0.25000000  0.50000000  1
  Zr  Zr0  1  0.50000000  0.50000000  0.00000000  1
  Zr  Zr1  1  0.25000000  0.75000000  0.50000000  1
  O  O0  1  0.64874200  0.13668900  0.98712200  1
  O  O1  1  0.60043300  0.58838000  0.48712200  1
  O  O2  1  0.86331100  0.85043300  0.51205300  1
  O  O3  1  0.41162000  0.89874200  0.01205300  1
  O  O4  1  0.33838000  0.35125800  0.48794700  1
  O  O5  1  0.88668900  0.39956700  0.98794700  1
  O  O6  1  0.10125800  0.11331100  0.51287800  1
  O  O7  1  0.14956700  0.66162000  0.01287800  1
loop_
_geom_bond_atom_site_label_1
_geom_bond_atom_site_label_2
_geom_bond_distance
_geom_bond_site_symmetry_2
Hf0 O4 2.054413 1_555
Hf0 O7 2.054413 1_545
Hf0 O2 2.054413 1_444
Hf0 O0 2.054413 1_454
Hf0 O3 2.421993 1_545
Hf0 O6 2.421993 1_555
Hf0 O1 2.421993 1_444
Hf0 O5 2.421993 1_454
Hf1 O5 2.054413 1_555
Hf1 O1 2.054413 1_555
Hf1 O6 2.054413 1_655
Hf1 O3 2.054413 1_545
Hf1 O4 2.421993 1_555
Hf1 O2 2.421993 1_545
Hf1 O7 2.421993 1_656
Hf1 O0 2.421993 1_554
O0 Zr0 2.129593 1_556
O0 Zr1 2.351588 1_545
O1 Zr1 2.129593 1_555
O1 Zr0 2.351588 1_555
O2 Zr0 2.129593 1_555
O2 Zr1 2.351588 1_655
O3 Zr1 2.129593 1_554
O3 Zr0 2.351588 1_555
O4 Zr0 2.129593 1_556
O4 Zr1 2.351588 1_555
O5 Zr1 2.129593 1_656
O5 Zr0 2.351588 1_556
O6 Zr1 2.129593 1_545
O6 Zr0 2.351588 1_556
O7 Zr0 2.129593 1_555
O7 Zr1 2.351588 1_555
