# generated using pymatgen
data_LiLa3Ti2O9
_symmetry_space_group_name_H-M   'P 1'
_cell_length_a   5.64916800
_cell_length_b   7.90302700
_cell_length_c   18.50987092
_cell_angle_alpha   64.82142635
_cell_angle_beta   90.00000000
_cell_angle_gamma   90.00000000
_symmetry_Int_Tables_number   1
_chemical_formula_structural   LiLa3Ti2O9
_chemical_formula_sum   'Li4 La12 Ti8 O36'
_cell_volume   747.86517356
_cell_formula_units_Z   4
loop_
 _symmetry_equiv_pos_site_id
 _symmetry_equiv_pos_as_xyz
  1  'x, y, z'
loop_
 _atom_site_type_symbol
 _atom_site_label
 _atom_site_symmetry_multiplicity
 _atom_site_fract_x
 _atom_site_fract_y
 _atom_site_fract_z
 _atom_site_occupancy
  Li  Li0  1  0.49892900  0.33327200  0.66555800  1
  Li  Li1  1  0.50107100  0.66672800  0.33444200  1
  Li  Li2  1  0.00107100  0.33327200  0.16555800  1
  Li  Li3  1  0.99892900  0.66672800  0.83444200  1
  La  La0  1  0.95804500  0.09166800  0.66776100  1
  La  La1  1  0.46801900  0.25843800  0.50296800  1
  La  La2  1  0.53198100  0.74156200  0.49703200  1
  La  La3  1  0.04195500  0.90833200  0.33223900  1
  La  La4  1  0.94950600  0.42658600  0.32782300  1
  La  La5  1  0.44950600  0.57341400  0.17217700  1
  La  La6  1  0.54195500  0.09166800  0.16776100  1
  La  La7  1  0.03198100  0.25843800  0.00296800  1
  La  La8  1  0.96801900  0.74156200  0.99703200  1
  La  La9  1  0.45804500  0.90833200  0.83223900  1
  La  La10  1  0.55049400  0.42658600  0.82782300  1
  La  La11  1  0.05049400  0.57341400  0.67217700  1
  Ti  Ti0  1  0.50842800  0.82708500  0.66902200  1
  Ti  Ti1  1  0.00000000  0.50000000  0.50000000  1
  Ti  Ti2  1  0.00000000  0.00000000  0.50000000  1
  Ti  Ti3  1  0.49157200  0.17291500  0.33097800  1
  Ti  Ti4  1  0.99157200  0.82708500  0.16902200  1
  Ti  Ti5  1  0.50000000  0.00000000  0.00000000  1
  Ti  Ti6  1  0.50000000  0.50000000  0.00000000  1
  Ti  Ti7  1  0.00842800  0.17291500  0.83097800  1
  O  O0  1  0.47393700  0.62579700  0.63595000  1
  O  O1  1  0.19622600  0.36386300  0.59289200  1
  O  O2  1  0.20518000  0.95343500  0.59270200  1
  O  O3  1  0.72043100  0.39466700  0.56581400  1
  O  O4  1  0.71731900  0.97550300  0.56763600  1
  O  O5  1  0.98547100  0.72532700  0.52789100  1
  O  O6  1  0.01452900  0.27467300  0.47210900  1
  O  O7  1  0.28268100  0.02449700  0.43236400  1
  O  O8  1  0.27956900  0.60533300  0.43418600  1
  O  O9  1  0.79482000  0.04656500  0.40729800  1
  O  O10  1  0.80377400  0.63613700  0.40710800  1
  O  O11  1  0.52606300  0.37420300  0.36405000  1
  O  O12  1  0.47870400  0.95307600  0.30919900  1
  O  O13  1  0.19827800  0.70039800  0.25699300  1
  O  O14  1  0.21807600  0.27772400  0.26910800  1
  O  O15  1  0.71807600  0.72227600  0.23089200  1
  O  O16  1  0.69827800  0.29960200  0.24300700  1
  O  O17  1  0.97870400  0.04692400  0.19080100  1
  O  O18  1  0.02606300  0.62579700  0.13595000  1
  O  O19  1  0.30377400  0.36386300  0.09289200  1
  O  O20  1  0.29482000  0.95343500  0.09270200  1
  O  O21  1  0.77956900  0.39466700  0.06581400  1
  O  O22  1  0.78268100  0.97550300  0.06763600  1
  O  O23  1  0.51452900  0.72532700  0.02789100  1
  O  O24  1  0.48547100  0.27467300  0.97210900  1
  O  O25  1  0.21731900  0.02449700  0.93236400  1
  O  O26  1  0.22043100  0.60533300  0.93418600  1
  O  O27  1  0.70518000  0.04656500  0.90729800  1
  O  O28  1  0.69622600  0.63613700  0.90710800  1
  O  O29  1  0.97393700  0.37420300  0.86405000  1
  O  O30  1  0.02129600  0.95307600  0.80919900  1
  O  O31  1  0.30172200  0.70039800  0.75699300  1
  O  O32  1  0.28192400  0.27772400  0.76910800  1
  O  O33  1  0.78192400  0.72227600  0.73089200  1
  O  O34  1  0.80172200  0.29960200  0.74300700  1
  O  O35  1  0.52129600  0.04692400  0.69080100  1
loop_
_geom_bond_atom_site_label_1
_geom_bond_atom_site_label_2
_geom_bond_distance
_geom_bond_site_symmetry_2
Li0 O3 2.108930 1_555
Li0 O35 2.110881 1_555
Li0 O1 2.124866 1_555
Li0 O0 2.141683 1_555
Li0 O32 2.157155 1_555
Li0 O34 2.174226 1_555
Li1 O8 2.108930 1_555
Li1 O12 2.110881 1_555
Li1 O10 2.124866 1_555
Li1 O11 2.141683 1_555
Li1 O15 2.157155 1_555
Li1 O13 2.174226 1_555
Li2 O21 2.108930 1_455
Li2 O17 2.110881 1_455
Li2 O19 2.124866 1_555
Li2 O18 2.141683 1_555
Li2 O14 2.157155 1_555
Li2 O16 2.174226 1_455
Li3 O26 2.108930 1_655
Li3 O30 2.110881 1_655
Li3 O28 2.124866 1_555
Li3 O29 2.141683 1_555
Li3 O33 2.157155 1_555
Li3 O31 2.174226 1_655
La0 O30 2.396117 1_645
La0 O1 2.412851 1_655
La0 O35 2.503201 1_555
La0 O2 2.522754 1_645
La0 O3 2.692949 1_555
La0 O34 2.714347 1_555
La0 O4 2.752199 1_545
La0 O33 2.824029 1_545
La1 O11 2.356841 1_555
La1 O3 2.368798 1_555
La1 O4 2.477638 1_545
La1 O6 2.615989 1_555
La1 O1 2.646159 1_555
La1 O8 2.701906 1_555
La1 O2 2.714241 1_545
La1 O7 2.877194 1_555
La2 O0 2.356841 1_555
La2 O8 2.368798 1_555
La2 O7 2.477638 1_565
La2 O5 2.615989 1_555
La2 O10 2.646159 1_555
La2 O3 2.701906 1_555
La2 O9 2.714241 1_565
La2 O4 2.877194 1_555
La3 O17 2.396117 1_465
La3 O10 2.412851 1_455
La3 O12 2.503201 1_555
La3 O9 2.522754 1_465
La3 O8 2.692949 1_555
La3 O13 2.714347 1_555
La3 O7 2.752199 1_565
La3 O14 2.824029 1_565
La4 O14 2.440291 1_655
La4 O13 2.441832 1_655
La4 O6 2.445560 1_655
La4 O11 2.471229 1_555
La4 O15 2.611835 1_555
La4 O16 2.612778 1_555
La4 O10 2.764433 1_555
La4 O9 2.861520 1_555
La5 O15 2.440291 1_555
La5 O16 2.441832 1_555
La5 O23 2.445560 1_555
La5 O18 2.471229 1_555
La5 O14 2.611835 1_555
La5 O13 2.612778 1_555
La5 O19 2.764433 1_555
La5 O20 2.861520 1_555
La6 O12 2.396117 1_545
La6 O19 2.412851 1_555
La6 O17 2.503201 1_555
La6 O20 2.522754 1_545
La6 O21 2.692949 1_555
La6 O16 2.714347 1_555
La6 O22 2.752199 1_545
La6 O15 2.824029 1_545
La7 O29 2.356841 1_454
La7 O21 2.368798 1_455
La7 O22 2.477638 1_445
La7 O24 2.615989 1_554
La7 O19 2.646159 1_555
La7 O26 2.701906 1_554
La7 O20 2.714241 1_545
La7 O25 2.877194 1_554
La8 O18 2.356841 1_656
La8 O26 2.368798 1_655
La8 O25 2.477638 1_665
La8 O23 2.615989 1_556
La8 O28 2.646159 1_555
La8 O21 2.701906 1_556
La8 O27 2.714241 1_565
La8 O22 2.877194 1_556
La9 O35 2.396117 1_565
La9 O28 2.412851 1_555
La9 O30 2.503201 1_555
La9 O27 2.522754 1_565
La9 O26 2.692949 1_555
La9 O31 2.714347 1_555
La9 O25 2.752199 1_565
La9 O32 2.824029 1_565
La10 O32 2.440291 1_555
La10 O31 2.441832 1_555
La10 O24 2.445560 1_555
La10 O29 2.471229 1_555
La10 O33 2.611835 1_555
La10 O34 2.612778 1_555
La10 O28 2.764433 1_555
La10 O27 2.861520 1_555
La11 O33 2.440291 1_455
La11 O34 2.441832 1_455
La11 O5 2.445560 1_455
La11 O0 2.471229 1_555
La11 O32 2.611835 1_555
La11 O31 2.612778 1_555
La11 O1 2.764433 1_555
La11 O2 2.861520 1_555
O0 Ti0 1.942137 1_555
O1 Ti1 1.941313 1_555
O2 Ti2 1.971282 1_565
O2 Ti0 2.174208 1_555
O3 Ti1 1.951517 1_655
O4 Ti2 1.987138 1_665
O4 Ti0 2.101707 1_555
O5 Ti2 2.007947 1_665
O5 Ti1 2.055877 1_655
O6 Ti2 2.007947 1_555
O6 Ti1 2.055877 1_555
O7 Ti2 1.987138 1_555
O7 Ti3 2.101707 1_555
O8 Ti1 1.951517 1_555
O9 Ti2 1.971282 1_655
O9 Ti3 2.174208 1_555
O10 Ti1 1.941313 1_655
O11 Ti3 1.942137 1_555
O12 Ti3 1.944809 1_565
O13 Ti4 1.905323 1_455
O14 Ti3 1.891444 1_555
O15 Ti4 1.891444 1_555
O16 Ti3 1.905323 1_555
O17 Ti4 1.944809 1_545
O18 Ti4 1.942137 1_455
O19 Ti6 1.941313 1_555
O20 Ti5 1.971282 1_565
O20 Ti4 2.174208 1_455
O21 Ti6 1.951517 1_555
O22 Ti5 1.987138 1_565
O22 Ti4 2.101707 1_555
O23 Ti5 2.007947 1_565
O23 Ti6 2.055877 1_555
O24 Ti5 2.007947 1_556
O24 Ti6 2.055877 1_556
O25 Ti5 1.987138 1_556
O25 Ti7 2.101707 1_555
O26 Ti6 1.951517 1_556
O27 Ti5 1.971282 1_556
O27 Ti7 2.174208 1_655
O28 Ti6 1.941313 1_556
O29 Ti7 1.942137 1_655
O30 Ti7 1.944809 1_565
O31 Ti0 1.905323 1_555
O32 Ti7 1.891444 1_555
O33 Ti0 1.891444 1_555
O34 Ti7 1.905323 1_655
O35 Ti0 1.944809 1_545
