# generated using pymatgen
data_Zr4H22N4O3F20
_symmetry_space_group_name_H-M   'P 1'
_cell_length_a   12.40568450
_cell_length_b   12.40568450
_cell_length_c   15.22810405
_cell_angle_alpha   62.19607814
_cell_angle_beta   62.19607814
_cell_angle_gamma   32.30196964
_symmetry_Int_Tables_number   1
_chemical_formula_structural   Zr4H22N4O3F20
_chemical_formula_sum   'Zr8 H44 N8 O6 F40'
_cell_volume   1094.80399283
_cell_formula_units_Z   2
loop_
 _symmetry_equiv_pos_site_id
 _symmetry_equiv_pos_as_xyz
  1  'x, y, z'
loop_
 _atom_site_type_symbol
 _atom_site_label
 _atom_site_symmetry_multiplicity
 _atom_site_fract_x
 _atom_site_fract_y
 _atom_site_fract_z
 _atom_site_occupancy
  Zr  Zr0  1  0.95278200  0.04088300  0.50390100  1
  Zr  Zr1  1  0.04088300  0.95278200  0.00390100  1
  Zr  Zr2  1  0.12642300  0.17836700  0.26895700  1
  Zr  Zr3  1  0.17836700  0.12642300  0.76895700  1
  Zr  Zr4  1  0.33315000  0.23945200  0.32993900  1
  Zr  Zr5  1  0.23945200  0.33315000  0.82993900  1
  Zr  Zr6  1  0.48720500  0.39288000  0.08965000  1
  Zr  Zr7  1  0.39288000  0.48720500  0.58965000  1
  H  H0  1  0.55274600  0.72537900  0.85653300  1
  H  H1  1  0.72537900  0.55274600  0.35653300  1
  H  H2  1  0.65304500  0.60601800  0.94348600  1
  H  H3  1  0.60601800  0.65304500  0.44348600  1
  H  H4  1  0.61617500  0.69907100  0.93533000  1
  H  H5  1  0.69907100  0.61617500  0.43533000  1
  H  H6  1  0.79831400  0.79785000  0.73669100  1
  H  H7  1  0.79785000  0.79831400  0.23669100  1
  H  H8  1  0.55039100  0.47992900  0.22760200  1
  H  H9  1  0.47992900  0.55039100  0.72760200  1
  H  H10  1  0.41581700  0.67848200  0.27258900  1
  H  H11  1  0.67848200  0.41581700  0.77258900  1
  H  H12  1  0.46481500  0.49346000  0.35532300  1
  H  H13  1  0.49346000  0.46481500  0.85532300  1
  H  H14  1  0.64977500  0.44970400  0.29761100  1
  H  H15  1  0.44970400  0.64977500  0.79761100  1
  H  H16  1  0.01165400  0.75384100  0.31781900  1
  H  H17  1  0.75384100  0.01165400  0.81781900  1
  H  H18  1  0.77482600  0.99194700  0.30507700  1
  H  H19  1  0.99194700  0.77482600  0.80507700  1
  H  H20  1  0.90490900  0.93301200  0.36770800  1
  H  H21  1  0.93301200  0.90490900  0.86770800  1
  H  H22  1  0.96552700  0.94001100  0.23966100  1
  H  H23  1  0.94001100  0.96552700  0.73966100  1
  H  H24  1  0.78614100  0.89870200  0.61299400  1
  H  H25  1  0.89870200  0.78614100  0.11299400  1
  H  H26  1  0.83957200  0.70700900  0.65592100  1
  H  H27  1  0.70700900  0.83957200  0.15592100  1
  H  H28  1  0.08395000  0.49222000  0.55271600  1
  H  H29  1  0.49222000  0.08395000  0.05271600  1
  H  H30  1  0.94179900  0.60145300  0.18236000  1
  H  H31  1  0.60145300  0.94179900  0.68236000  1
  H  H32  1  0.89605500  0.57664200  0.51291300  1
  H  H33  1  0.57664200  0.89605500  0.01291300  1
  H  H34  1  0.80835600  0.54144800  0.61557600  1
  H  H35  1  0.54144800  0.80835600  0.11557600  1
  H  H36  1  0.16407700  0.00383600  0.65251900  1
  H  H37  1  0.00383600  0.16407700  0.15251900  1
  H  H38  1  0.28873400  0.02480700  0.58193000  1
  H  H39  1  0.02480700  0.28873400  0.08193000  1
  H  H40  1  0.40505000  0.16277400  0.51718700  1
  H  H41  1  0.16277400  0.40505000  0.01718700  1
  H  H42  1  0.40373300  0.30713400  0.45102200  1
  H  H43  1  0.30713400  0.40373300  0.95102200  1
  N  N0  1  0.81628500  0.37252900  0.59085900  1
  N  N1  1  0.37252900  0.81628500  0.09085900  1
  N  N2  1  0.51924300  0.52504300  0.28802000  1
  N  N3  1  0.52504300  0.51924300  0.78802000  1
  N  N4  1  0.91633400  0.90434900  0.30772600  1
  N  N5  1  0.90434900  0.91633400  0.80772600  1
  N  N6  1  0.75403900  0.83887000  0.67207900  1
  N  N7  1  0.83887000  0.75403900  0.17207900  1
  O  O0  1  0.76803900  0.64575800  0.55735100  1
  O  O1  1  0.64575800  0.76803900  0.05735100  1
  O  O2  1  0.25379000  0.99047700  0.65356100  1
  O  O3  1  0.99047700  0.25379000  0.15356100  1
  O  O4  1  0.43109600  0.20796100  0.44721700  1
  O  O5  1  0.20796100  0.43109600  0.94721700  1
  F  F0  1  0.36426500  0.66971800  0.97482100  1
  F  F1  1  0.66971800  0.36426500  0.47482100  1
  F  F2  1  0.50190700  0.77159300  0.79756700  1
  F  F3  1  0.77159300  0.50190700  0.29756700  1
  F  F4  1  0.11267300  0.97877100  0.83858200  1
  F  F5  1  0.97877100  0.11267300  0.33858200  1
  F  F6  1  0.59151900  0.43397500  0.11955900  1
  F  F7  1  0.43397500  0.59151900  0.61955900  1
  F  F8  1  0.17017900  0.68149900  0.12661000  1
  F  F9  1  0.68149900  0.17017900  0.62661000  1
  F  F10  1  0.44840000  0.38476500  0.97495900  1
  F  F11  1  0.38476500  0.44840000  0.47495900  1
  F  F12  1  0.06159800  0.37864800  0.31503200  1
  F  F13  1  0.37864800  0.06159800  0.81503200  1
  F  F14  1  0.13010200  0.07455900  0.92876400  1
  F  F15  1  0.07455900  0.13010200  0.42876400  1
  F  F16  1  0.34892500  0.11134100  0.64155000  1
  F  F17  1  0.11134100  0.34892500  0.14155000  1
  F  F18  1  0.35388700  0.89721100  0.23745400  1
  F  F19  1  0.89721100  0.35388700  0.73745400  1
  F  F20  1  0.09676100  0.53525400  0.34785300  1
  F  F21  1  0.53525400  0.09676100  0.84785300  1
  F  F22  1  0.76553900  0.06926400  0.11403600  1
  F  F23  1  0.06926400  0.76553900  0.61403600  1
  F  F24  1  0.75943600  0.26384600  0.96319400  1
  F  F25  1  0.26384600  0.75943600  0.46319400  1
  F  F26  1  0.46622500  0.32494100  0.25156800  1
  F  F27  1  0.32494100  0.46622500  0.75156800  1
  F  F28  1  0.64066800  0.96352800  0.31684300  1
  F  F29  1  0.96352800  0.64066800  0.81684300  1
  F  F30  1  0.39324100  0.03755600  0.27805600  1
  F  F31  1  0.03755600  0.39324100  0.77805600  1
  F  F32  1  0.35930400  0.31072000  0.16628200  1
  F  F33  1  0.31072000  0.35930400  0.66628200  1
  F  F34  1  0.01914200  0.01432600  0.11897900  1
  F  F35  1  0.01432600  0.01914200  0.61897900  1
  F  F36  1  0.99286600  0.85305000  0.97336400  1
  F  F37  1  0.85305000  0.99286600  0.47336400  1
  F  F38  1  0.28925000  0.12518100  0.46338600  1
  F  F39  1  0.12518100  0.28925000  0.96338600  1
loop_
_geom_bond_atom_site_label_1
_geom_bond_atom_site_label_2
_geom_bond_distance
_geom_bond_site_symmetry_2
H2 H4 0.764126 1_555
H3 H5 0.764126 1_555
H6 N6 1.045611 1_555
H7 N7 1.045611 1_555
H8 N2 1.045064 1_555
H9 N3 1.045064 1_555
H10 N2 1.029610 1_555
H11 N3 1.029610 1_555
H12 N2 1.042530 1_555
H13 N3 1.042530 1_555
H14 N2 1.025617 1_555
H15 N3 1.025617 1_555
H16 N4 1.038064 1_455
H17 N5 1.038064 1_545
H18 N4 1.031767 1_555
H19 N5 1.031767 1_555
H20 N4 1.038208 1_555
H21 N5 1.038208 1_555
H22 N4 1.039723 1_555
H23 N5 1.039723 1_555
H24 N6 1.030292 1_555
H25 N7 1.030292 1_555
H26 N6 1.029576 1_555
H27 N7 1.029576 1_555
H30 N7 1.030608 1_555
H31 N6 1.030608 1_555
H32 O0 0.975720 1_555
H33 O1 0.975720 1_555
H34 O0 0.979829 1_555
H35 O1 0.979829 1_555
H36 O2 0.984172 1_545
H37 O3 0.984172 1_455
H38 O2 0.998370 1_545
H39 O3 0.998370 1_455
H40 O4 0.990841 1_555
H41 O5 0.990841 1_554
H42 O4 0.987114 1_555
H43 O5 0.987114 1_555
O2 Zr3 2.317541 1_565
O3 Zr2 2.317541 1_655
O4 Zr4 2.321563 1_555
O5 Zr5 2.321563 1_555
F0 Zr1 2.144759 1_556
F0 Zr6 2.282439 1_556
F1 Zr0 2.144759 1_555
F1 Zr7 2.282439 1_555
F2 H0 0.984666 1_555
F2 Zr3 2.377232 1_565
F3 H1 0.984666 1_555
F3 Zr2 2.377232 1_655
F4 Zr1 2.207142 1_556
F4 Zr3 2.247056 1_565
F5 Zr0 2.207142 1_555
F5 Zr2 2.247056 1_655
F6 Zr6 2.005930 1_555
F7 Zr7 2.005930 1_555
F8 Zr6 2.148131 1_555
F8 Zr1 2.279180 1_555
F9 Zr7 2.148131 1_555
F9 Zr0 2.279180 1_555
F10 Zr6 2.079075 1_556
F11 Zr7 2.079075 1_555
F12 Zr4 2.212654 1_555
F12 Zr2 2.243767 1_555
F13 Zr5 2.212654 1_555
F13 Zr3 2.243767 1_555
F14 Zr3 2.127419 1_555
F14 Zr1 2.202091 1_546
F15 Zr2 2.127419 1_555
F15 Zr0 2.202091 1_455
F16 Zr3 2.028780 1_555
F17 Zr2 2.028780 1_555
F18 Zr2 2.004561 1_565
F19 Zr3 2.004561 1_655
F20 Zr4 2.033728 1_555
F21 Zr5 2.033728 1_555
F22 Zr6 2.132943 1_555
F22 Zr1 2.267399 1_645
F23 Zr7 2.132943 1_555
F23 Zr0 2.267399 1_465
F24 Zr1 2.115911 1_646
F24 Zr6 2.312138 1_556
F25 Zr0 2.115911 1_465
F25 Zr7 2.312138 1_555
F26 Zr6 2.165926 1_555
F26 Zr4 2.283744 1_555
F27 Zr7 2.165926 1_555
F27 Zr5 2.283744 1_555
F28 Zr4 2.040178 1_565
F29 Zr5 2.040178 1_655
F30 Zr2 2.110576 1_555
F30 Zr4 2.365059 1_555
F31 Zr3 2.110576 1_555
F31 Zr5 2.365059 1_555
F32 Zr4 2.184716 1_555
F32 Zr6 2.194367 1_555
F33 Zr5 2.184716 1_555
F33 Zr7 2.194367 1_555
F34 Zr1 2.045918 1_545
F35 Zr0 2.045918 1_455
F36 Zr1 2.035413 1_656
F37 Zr0 2.035413 1_565
F38 H38 1.647732 1_555
F38 Zr4 2.005251 1_555
F39 H39 1.647732 1_556
F39 Zr5 2.005251 1_555
