# generated using pymatgen
data_Li4Fe3Ni3(SbO8)2
_symmetry_space_group_name_H-M   'P 1'
_cell_length_a   5.90794700
_cell_length_b   5.91613955
_cell_length_c   9.70381310
_cell_angle_alpha   90.68905405
_cell_angle_beta   89.87693914
_cell_angle_gamma   119.60659393
_symmetry_Int_Tables_number   1
_chemical_formula_structural   Li4Fe3Ni3(SbO8)2
_chemical_formula_sum   'Li4 Fe3 Ni3 Sb2 O16'
_cell_volume   294.86317577
_cell_formula_units_Z   1
loop_
 _symmetry_equiv_pos_site_id
 _symmetry_equiv_pos_as_xyz
  1  'x, y, z'
loop_
 _atom_site_type_symbol
 _atom_site_label
 _atom_site_symmetry_multiplicity
 _atom_site_fract_x
 _atom_site_fract_y
 _atom_site_fract_z
 _atom_site_occupancy
  Li  Li0  1  0.66762300  0.33220400  0.90172900  1
  Li  Li1  1  0.99620400  0.99005700  0.98807200  1
  Li  Li2  1  0.99846300  0.99914000  0.49110200  1
  Li  Li3  1  0.33261500  0.67067800  0.40462800  1
  Fe  Fe0  1  0.34009400  0.17161700  0.21291700  1
  Fe  Fe1  1  0.83278400  0.17204700  0.21411600  1
  Fe  Fe2  1  0.16618100  0.33737300  0.71509100  1
  Ni  Ni0  1  0.82958400  0.65938700  0.21349000  1
  Ni  Ni1  1  0.16880100  0.82940900  0.71282600  1
  Ni  Ni2  1  0.65944500  0.82598800  0.71263000  1
  Sb  Sb0  1  0.66466500  0.33504600  0.48807400  1
  Sb  Sb1  1  0.33761300  0.66866400  0.98408600  1
  O  O0  1  0.33098900  0.16750100  0.59617300  1
  O  O1  1  0.51910500  0.03464700  0.34601800  1
  O  O2  1  0.66739400  0.33232400  0.10846200  1
  O  O3  1  0.99944700  0.99760300  0.30217300  1
  O  O4  1  0.99246500  0.98784000  0.79845400  1
  O  O5  1  0.83896400  0.17640100  0.59440100  1
  O  O6  1  0.50951900  0.47789100  0.34883600  1
  O  O7  1  0.96447200  0.48241500  0.34772500  1
  O  O8  1  0.16713600  0.33597900  0.09515100  1
  O  O9  1  0.83191000  0.67669900  0.59371400  1
  O  O10  1  0.03368000  0.51858300  0.84606500  1
  O  O11  1  0.47616300  0.50482700  0.84774800  1
  O  O12  1  0.33771100  0.67471700  0.61516900  1
  O  O13  1  0.17378000  0.84009300  0.09261200  1
  O  O14  1  0.49199900  0.96323300  0.84204700  1
  O  O15  1  0.67089100  0.83763600  0.09433100  1
loop_
_geom_bond_atom_site_label_1
_geom_bond_atom_site_label_2
_geom_bond_distance
_geom_bond_site_symmetry_2
Li0 O11 1.937438 1_555
Li0 O10 1.959010 1_655
Li0 O14 1.977678 1_545
Li0 O2 2.006088 1_556
Li1 O4 1.840009 1_555
Li1 O13 1.965390 1_656
Li1 O15 1.967633 1_556
Li1 O8 2.049155 1_666
Li2 O3 1.833256 1_555
Li2 O9 1.945623 1_555
Li2 O5 1.984844 1_565
Li2 O0 1.985404 1_665
Li3 O6 1.961337 1_555
Li3 O1 1.963830 1_565
Li3 O7 1.967916 1_455
Li3 O12 2.043015 1_555
Fe0 O3 1.956284 1_445
Fe0 O2 1.966888 1_555
Fe0 O6 2.044702 1_555
Fe0 O13 2.054467 1_545
Fe0 O8 2.075844 1_555
Fe0 O1 2.078739 1_555
Fe1 O3 1.947730 1_545
Fe1 O2 1.961677 1_555
Fe1 O7 2.047766 1_555
Fe1 O1 2.063918 1_555
Fe1 O15 2.063930 1_545
Fe1 O8 2.073502 1_655
Fe2 O4 1.980786 1_445
Fe2 O12 1.998542 1_555
Fe2 O10 2.041958 1_555
Fe2 O11 2.044306 1_555
Fe2 O5 2.044390 1_455
Fe2 O0 2.055192 1_555
Ni0 O3 1.931217 1_555
Ni0 O2 1.955934 1_555
Ni0 O7 2.071154 1_555
Ni0 O15 2.083022 1_555
Ni0 O6 2.114369 1_555
Ni0 O13 2.127382 1_655
Ni1 O4 1.896483 1_455
Ni1 O12 1.899704 1_555
Ni1 O10 2.071888 1_555
Ni1 O9 2.078857 1_455
Ni1 O14 2.082740 1_555
Ni1 O0 2.087191 1_565
Ni2 O4 1.899413 1_555
Ni2 O12 1.901285 1_555
Ni2 O14 1.994707 1_555
Ni2 O9 2.002364 1_555
Ni2 O11 2.126666 1_555
Ni2 O5 2.149017 1_565
O0 Sb0 2.013559 1_555
O1 Sb0 2.057731 1_555
O5 Sb0 1.997168 1_555
O6 Sb0 2.044030 1_555
O7 Sb0 2.060241 1_555
O8 Sb1 2.034074 1_554
O9 Sb0 2.023318 1_555
O10 Sb1 2.052515 1_555
O11 Sb1 2.026895 1_555
O13 Sb1 2.003599 1_554
O14 Sb1 2.061679 1_555
O15 Sb1 2.014737 1_554
