# generated using pymatgen
data_Li8Sb2S
_symmetry_space_group_name_H-M   'P 1'
_cell_length_a   7.92165226
_cell_length_b   7.92165226
_cell_length_c   9.60016497
_cell_angle_alpha   61.06445785
_cell_angle_beta   61.06445785
_cell_angle_gamma   61.57848672
_symmetry_Int_Tables_number   1
_chemical_formula_structural   Li8Sb2S
_chemical_formula_sum   'Li16 Sb4 S2'
_cell_volume   437.80199049
_cell_formula_units_Z   2
loop_
 _symmetry_equiv_pos_site_id
 _symmetry_equiv_pos_as_xyz
  1  'x, y, z'
loop_
 _atom_site_type_symbol
 _atom_site_label
 _atom_site_symmetry_multiplicity
 _atom_site_fract_x
 _atom_site_fract_y
 _atom_site_fract_z
 _atom_site_occupancy
  Li  Li0  1  0.12697000  0.61099300  0.70175400  1
  Li  Li1  1  0.42287300  0.22978800  0.87276500  1
  Li  Li2  1  0.77021200  0.57712700  0.62723500  1
  Li  Li3  1  0.38900700  0.87302900  0.79824600  1
  Li  Li4  1  0.50953600  0.22969300  0.54814700  1
  Li  Li5  1  0.22969300  0.50953600  0.04814700  1
  Li  Li6  1  0.92868500  0.93628500  0.41916000  1
  Li  Li7  1  0.93628500  0.92868500  0.91916000  1
  Li  Li8  1  0.06371500  0.07131500  0.08084000  1
  Li  Li9  1  0.07131500  0.06371500  0.58084000  1
  Li  Li10  1  0.77030700  0.49046400  0.95185300  1
  Li  Li11  1  0.49046400  0.77030700  0.45185300  1
  Li  Li12  1  0.61099300  0.12697000  0.20175400  1
  Li  Li13  1  0.22978800  0.42287300  0.37276500  1
  Li  Li14  1  0.57712700  0.77021200  0.12723500  1
  Li  Li15  1  0.87303000  0.38900700  0.29824600  1
  Sb  Sb0  1  0.74366800  0.90227800  0.75560700  1
  Sb  Sb1  1  0.09772200  0.25633200  0.74439300  1
  Sb  Sb2  1  0.90227800  0.74366800  0.25560700  1
  Sb  Sb3  1  0.25633200  0.09772200  0.24439300  1
  S  S0  1  0.59911600  0.40088400  0.25000000  1
  S  S1  1  0.40088400  0.59911600  0.75000000  1
loop_
_geom_bond_atom_site_label_1
_geom_bond_atom_site_label_2
_geom_bond_distance
_geom_bond_site_symmetry_2
Li0 S1 2.380678 1_555
Li0 Sb1 2.744004 1_555
Li0 Sb0 2.788769 1_455
Li1 S1 2.521106 1_555
Li1 Sb0 2.869813 1_545
Li1 Sb3 2.951442 1_556
Li1 Sb1 3.240790 1_555
Li2 S1 2.521106 1_555
Li2 Sb1 2.869813 1_655
Li2 Sb2 2.951442 1_555
Li2 Sb0 3.240790 1_555
Li3 S1 2.380671 1_555
Li3 Sb0 2.744008 1_555
Li3 Sb1 2.788774 1_565
Li4 S0 2.393698 1_555
Li4 Sb1 2.831676 1_555
Li4 Sb0 2.851393 1_545
Li5 S1 2.393698 1_554
Li5 Sb3 2.831676 1_555
Li5 Sb2 2.851393 1_455
Li6 Sb0 2.757952 1_555
Li6 Sb2 2.788769 1_555
Li6 Sb3 2.838422 1_665
Li7 Sb2 2.757952 1_556
Li7 Sb0 2.788769 1_555
Li7 Sb1 2.838422 1_665
Li8 Sb1 2.757952 1_554
Li8 Sb3 2.788769 1_555
Li8 Sb2 2.838422 1_445
Li9 Sb3 2.757952 1_555
Li9 Sb1 2.788769 1_555
Li9 Sb0 2.838422 1_445
Li10 S0 2.393698 1_556
Li10 Sb0 2.831676 1_555
Li10 Sb1 2.851393 1_655
Li11 S1 2.393698 1_555
Li11 Sb2 2.831676 1_555
Li11 Sb3 2.851393 1_565
Li12 S0 2.380678 1_555
Li12 Sb3 2.744004 1_555
Li12 Sb2 2.788769 1_545
Li13 S0 2.521106 1_555
Li13 Sb2 2.869813 1_455
Li13 Sb1 2.951442 1_555
Li13 Sb3 3.240790 1_555
Li14 S0 2.521106 1_555
Li14 Sb3 2.869813 1_565
Li14 Sb0 2.951442 1_554
Li14 Sb2 3.240790 1_555
Li15 S0 2.380678 1_555
Li15 Sb2 2.744004 1_555
Li15 Sb3 2.788769 1_655
