# generated using pymatgen
data_NiH10C2(N2O3)2
_symmetry_space_group_name_H-M   'P 1'
_cell_length_a   6.79805351
_cell_length_b   6.79805351
_cell_length_c   10.46150220
_cell_angle_alpha   73.04685202
_cell_angle_beta   73.04685202
_cell_angle_gamma   61.92979974
_symmetry_Int_Tables_number   1
_chemical_formula_structural   NiH10C2(N2O3)2
_chemical_formula_sum   'Ni2 H20 C4 N8 O12'
_cell_volume   401.17170506
_cell_formula_units_Z   2
loop_
 _symmetry_equiv_pos_site_id
 _symmetry_equiv_pos_as_xyz
  1  'x, y, z'
loop_
 _atom_site_type_symbol
 _atom_site_label
 _atom_site_symmetry_multiplicity
 _atom_site_fract_x
 _atom_site_fract_y
 _atom_site_fract_z
 _atom_site_occupancy
  Ni  Ni0  1  0.00000000  0.00000000  0.00000000  1
  Ni  Ni1  1  0.00000000  0.00000000  0.50000000  1
  H  H0  1  0.48480700  0.14996700  0.78463600  1
  H  H1  1  0.85003300  0.51519300  0.71536400  1
  H  H2  1  0.51519300  0.85003300  0.21536400  1
  H  H3  1  0.14996700  0.48480700  0.28463600  1
  H  H4  1  0.40057200  0.82794100  0.84596600  1
  H  H5  1  0.17205900  0.59942800  0.65403400  1
  H  H6  1  0.59942800  0.17205900  0.15403400  1
  H  H7  1  0.82794100  0.40057200  0.34596600  1
  H  H8  1  0.22787400  0.03205100  0.74245700  1
  H  H9  1  0.96794900  0.77212600  0.75754300  1
  H  H10  1  0.77212600  0.96794900  0.25754300  1
  H  H11  1  0.03205100  0.22787400  0.24245700  1
  H  H12  1  0.24845400  0.55664100  0.06271000  1
  H  H13  1  0.44335900  0.75154600  0.43729000  1
  H  H14  1  0.75154600  0.44335900  0.93729000  1
  H  H15  1  0.55664100  0.24845400  0.56271000  1
  H  H16  1  0.36305300  0.68618400  0.09500600  1
  H  H17  1  0.31381600  0.63694700  0.40499400  1
  H  H18  1  0.63694700  0.31381600  0.90499400  1
  H  H19  1  0.68618400  0.36305300  0.59500600  1
  C  C0  1  0.27321300  0.22205700  0.96832400  1
  C  C1  1  0.77794300  0.72678700  0.53167600  1
  C  C2  1  0.72678700  0.77794300  0.03167600  1
  C  C3  1  0.22205700  0.27321300  0.46832400  1
  N  N0  1  0.34134400  0.14288400  0.84916800  1
  N  N1  1  0.85711600  0.65865600  0.65083200  1
  N  N2  1  0.65865600  0.85711600  0.15083200  1
  N  N3  1  0.14288400  0.34134400  0.34916800  1
  N  N4  1  0.26867300  0.98612900  0.83785000  1
  N  N5  1  0.01387100  0.73132700  0.66215000  1
  N  N6  1  0.73132700  0.01387100  0.16215000  1
  N  N7  1  0.98612900  0.26867300  0.33785000  1
  O  O0  1  0.11838400  0.17920200  0.05924400  1
  O  O1  1  0.82079800  0.88161600  0.44075600  1
  O  O2  1  0.88161600  0.82079800  0.94075600  1
  O  O3  1  0.17920200  0.11838400  0.55924400  1
  O  O4  1  0.36917600  0.33770100  0.97933600  1
  O  O5  1  0.66229900  0.63082400  0.52066400  1
  O  O6  1  0.63082400  0.66229900  0.02066400  1
  O  O7  1  0.33770100  0.36917600  0.47933600  1
  O  O8  1  0.21288500  0.68121400  0.11056300  1
  O  O9  1  0.31878600  0.78711500  0.38943700  1
  O  O10  1  0.78711500  0.31878600  0.88943700  1
  O  O11  1  0.68121400  0.21288500  0.61056300  1
loop_
_geom_bond_atom_site_label_1
_geom_bond_atom_site_label_2
_geom_bond_distance
_geom_bond_site_symmetry_2
Ni0 O0 2.041994 1_555
Ni0 O2 2.041994 1_444
Ni0 O8 2.165987 1_545
Ni0 O10 2.165987 1_454
Ni1 O3 2.041994 1_555
Ni1 O1 2.041994 1_445
Ni1 O9 2.165987 1_545
Ni1 O11 2.165987 1_455
H0 N0 1.024939 1_555
H1 N1 1.024939 1_555
H2 N2 1.024939 1_555
H3 N3 1.024939 1_555
H4 N4 1.025341 1_555
H5 N5 1.025341 1_555
H6 N6 1.025341 1_555
H7 N7 1.025341 1_555
H8 N4 1.033702 1_545
H9 N5 1.033702 1_655
H10 N6 1.033702 1_565
H11 N7 1.033702 1_455
H12 O8 1.005076 1_555
H12 O4 1.685112 1_554
H13 O9 1.005076 1_555
H13 O5 1.685112 1_555
H14 O10 1.005076 1_555
H14 O6 1.685112 1_556
H15 O11 1.005076 1_555
H15 O7 1.685112 1_555
H16 O8 1.001062 1_555
H16 O6 1.707239 1_555
H17 O9 1.001062 1_555
H17 O7 1.707239 1_555
H18 O10 1.001062 1_555
H18 O4 1.707239 1_555
H19 O11 1.001062 1_555
H19 O5 1.707239 1_555
C0 O4 1.279133 1_555
C0 O0 1.280839 1_556
C0 N0 1.370422 1_555
C1 O5 1.279133 1_555
C1 O1 1.280839 1_555
C1 N1 1.370422 1_555
C2 O6 1.279133 1_555
C2 O2 1.280839 1_554
C2 N2 1.370422 1_555
C3 O7 1.279133 1_555
C3 O3 1.280839 1_555
C3 N3 1.370422 1_555
N0 N4 1.413073 1_545
N1 N5 1.413073 1_655
N2 N6 1.413073 1_565
N3 N7 1.413073 1_455
N4 Ni0 2.084879 1_566
N5 Ni1 2.084879 1_565
N6 Ni0 2.084879 1_655
N7 Ni1 2.084879 1_655
