# generated using pymatgen
data_K2PHO4
_symmetry_space_group_name_H-M   'P 1'
_cell_length_a   6.04479700
_cell_length_b   10.48376900
_cell_length_c   22.81466100
_cell_angle_alpha   90.00000000
_cell_angle_beta   90.00000000
_cell_angle_gamma   90.00000000
_symmetry_Int_Tables_number   1
_chemical_formula_structural   K2PHO4
_chemical_formula_sum   'K24 P12 H12 O48'
_cell_volume   1445.81652375
_cell_formula_units_Z   12
loop_
 _symmetry_equiv_pos_site_id
 _symmetry_equiv_pos_as_xyz
  1  'x, y, z'
loop_
 _atom_site_type_symbol
 _atom_site_label
 _atom_site_symmetry_multiplicity
 _atom_site_fract_x
 _atom_site_fract_y
 _atom_site_fract_z
 _atom_site_occupancy
  K  K0  1  0.75082800  0.59647600  0.45047900  1
  K  K1  1  0.25082800  0.40352400  0.54952100  1
  K  K2  1  0.25082800  0.09647600  0.04952100  1
  K  K3  1  0.75082800  0.90352400  0.95047900  1
  K  K4  1  0.74109500  0.63401600  0.09879900  1
  K  K5  1  0.24109500  0.36598400  0.90120100  1
  K  K6  1  0.24109500  0.13401600  0.40120100  1
  K  K7  1  0.74109500  0.86598400  0.59879900  1
  K  K8  1  0.73894400  0.36275600  0.32810900  1
  K  K9  1  0.23894400  0.63724400  0.67189100  1
  K  K10  1  0.23894400  0.86275600  0.17189100  1
  K  K11  1  0.73894400  0.13724400  0.82810900  1
  K  K12  1  0.77305600  0.27560900  0.16415100  1
  K  K13  1  0.27305600  0.72439100  0.83584900  1
  K  K14  1  0.27305600  0.77560900  0.33584900  1
  K  K15  1  0.77305600  0.22439100  0.66415100  1
  K  K16  1  0.79373000  0.00743000  0.28263300  1
  K  K17  1  0.29373000  0.99257000  0.71736700  1
  K  K18  1  0.29373000  0.50743000  0.21736700  1
  K  K19  1  0.79373000  0.49257000  0.78263300  1
  K  K20  1  0.73917400  0.24752900  0.48699500  1
  K  K21  1  0.23917400  0.75247100  0.51300500  1
  K  K22  1  0.23917400  0.74752900  0.01300500  1
  K  K23  1  0.73917400  0.25247100  0.98699500  1
  P  P0  1  0.74635300  0.95601100  0.09420000  1
  P  P1  1  0.24635300  0.04398900  0.90580000  1
  P  P2  1  0.24635300  0.45601100  0.40580000  1
  P  P3  1  0.74635300  0.54398900  0.59420000  1
  P  P4  1  0.76085400  0.93162700  0.42471000  1
  P  P5  1  0.26085400  0.06837300  0.57529000  1
  P  P6  1  0.26085400  0.43162700  0.07529000  1
  P  P7  1  0.76085400  0.56837300  0.92471000  1
  P  P8  1  0.78579400  0.65036800  0.24459000  1
  P  P9  1  0.28579400  0.34963200  0.75541000  1
  P  P10  1  0.28579400  0.15036800  0.25541000  1
  P  P11  1  0.78579400  0.84963200  0.74459000  1
  H  H0  1  0.69387300  0.86644800  0.18300800  1
  H  H1  1  0.19387300  0.13355200  0.81699200  1
  H  H2  1  0.19387300  0.36644800  0.31699200  1
  H  H3  1  0.69387300  0.63355200  0.68300800  1
  H  H4  1  0.46622000  0.97910800  0.47872500  1
  H  H5  1  0.96622000  0.02089200  0.52127500  1
  H  H6  1  0.96622000  0.47910800  0.02127500  1
  H  H7  1  0.46622000  0.52089200  0.97872500  1
  H  H8  1  0.73717600  0.70623800  0.33687300  1
  H  H9  1  0.23717600  0.29376200  0.66312700  1
  H  H10  1  0.23717600  0.20623800  0.16312700  1
  H  H11  1  0.73717600  0.79376200  0.83687300  1
  O  O0  1  0.73666200  0.95325900  0.16597200  1
  O  O1  1  0.23666200  0.04674100  0.83402800  1
  O  O2  1  0.23666200  0.45325900  0.33402800  1
  O  O3  1  0.73666200  0.54674100  0.66597200  1
  O  O4  1  0.75489000  0.09763000  0.07778900  1
  O  O5  1  0.25489000  0.90237000  0.92221100  1
  O  O6  1  0.25489000  0.59763000  0.42221100  1
  O  O7  1  0.75489000  0.40237000  0.57778900  1
  O  O8  1  0.53617600  0.88734200  0.07237400  1
  O  O9  1  0.03617600  0.11265800  0.92762600  1
  O  O10  1  0.03617600  0.38734200  0.42762600  1
  O  O11  1  0.53617600  0.61265800  0.57237400  1
  O  O12  1  0.95696000  0.88360300  0.07523000  1
  O  O13  1  0.45696000  0.11639700  0.92477000  1
  O  O14  1  0.45696000  0.38360300  0.42477000  1
  O  O15  1  0.95696000  0.61639700  0.57523000  1
  O  O16  1  0.90823300  0.90958800  0.47937700  1
  O  O17  1  0.40823300  0.09041200  0.52062300  1
  O  O18  1  0.40823300  0.40958800  0.02062300  1
  O  O19  1  0.90823300  0.59041200  0.97937700  1
  O  O20  1  0.78629100  0.06689600  0.40001800  1
  O  O21  1  0.28629100  0.93310400  0.59998200  1
  O  O22  1  0.28629100  0.56689600  0.09998200  1
  O  O23  1  0.78629100  0.43310400  0.90001800  1
  O  O24  1  0.79361300  0.82749300  0.37805000  1
  O  O25  1  0.29361300  0.17250700  0.62195000  1
  O  O26  1  0.29361300  0.32749300  0.12195000  1
  O  O27  1  0.79361300  0.67250700  0.87805000  1
  O  O28  1  0.50453300  0.91301000  0.44652600  1
  O  O29  1  0.00453300  0.08699000  0.55347400  1
  O  O30  1  0.00453300  0.41301000  0.05347400  1
  O  O31  1  0.50453300  0.58699000  0.94652600  1
  O  O32  1  0.70465000  0.62811500  0.31262500  1
  O  O33  1  0.20465000  0.37188500  0.68737500  1
  O  O34  1  0.20465000  0.12811500  0.18737500  1
  O  O35  1  0.70465000  0.87188500  0.81262500  1
  O  O36  1  0.78216200  0.51629500  0.21747800  1
  O  O37  1  0.28216200  0.48370500  0.78252200  1
  O  O38  1  0.28216200  0.01629500  0.28252200  1
  O  O39  1  0.78216200  0.98370500  0.71747800  1
  O  O40  1  0.61014200  0.73994500  0.21658000  1
  O  O41  1  0.11014200  0.26005500  0.78342000  1
  O  O42  1  0.11014200  0.23994500  0.28342000  1
  O  O43  1  0.61014200  0.76005500  0.71658000  1
  O  O44  1  0.01478900  0.71335700  0.24615500  1
  O  O45  1  0.51478900  0.28664300  0.75384500  1
  O  O46  1  0.51478900  0.21335700  0.25384500  1
  O  O47  1  0.01478900  0.78664300  0.74615500  1
loop_
_geom_bond_atom_site_label_1
_geom_bond_atom_site_label_2
_geom_bond_distance
_geom_bond_site_symmetry_2
K0 O10 2.837980 1_655
K0 O14 2.912055 1_555
K0 O24 2.943331 1_555
K0 O6 3.066455 1_555
K0 O11 3.073480 1_555
K0 O15 3.113965 1_555
K0 O6 3.114481 1_655
K1 O11 2.837980 1_555
K1 O15 2.912055 1_455
K1 O25 2.943331 1_555
K1 O7 3.066455 1_455
K1 O10 3.073480 1_555
K1 O14 3.113965 1_555
K1 O7 3.114481 1_555
K2 O8 2.837980 1_545
K2 O12 2.912055 1_445
K2 O26 2.943331 1_555
K2 O4 3.066455 1_455
K2 O9 3.073480 1_554
K2 O13 3.113965 1_554
K2 O4 3.114481 1_555
K3 O9 2.837980 1_665
K3 O13 2.912055 1_565
K3 O27 2.943331 1_555
K3 O5 3.066455 1_555
K3 O8 3.073480 1_556
K3 O12 3.113965 1_556
K3 O5 3.114481 1_655
K4 O22 2.837952 1_555
K4 O19 2.941599 1_554
K4 O12 2.972955 1_555
K4 O36 2.985965 1_555
K4 O8 2.991848 1_555
K4 O30 2.995583 1_655
K4 O40 3.013400 1_555
K4 O22 3.369993 1_655
K5 O23 2.837952 1_455
K5 O18 2.941599 1_556
K5 O13 2.972955 1_555
K5 O37 2.985965 1_555
K5 O9 2.991848 1_555
K5 O31 2.995583 1_555
K5 O41 3.013400 1_555
K5 O23 3.369993 1_555
K6 O20 2.837952 1_455
K6 O17 2.941599 1_555
K6 O14 2.972955 1_555
K6 O38 2.985965 1_555
K6 O10 2.991848 1_555
K6 O28 2.995583 1_545
K6 O42 3.013400 1_555
K6 O20 3.369993 1_555
K7 O21 2.837952 1_555
K7 O16 2.941599 1_555
K7 O15 2.972955 1_555
K7 O39 2.985965 1_555
K7 O11 2.991848 1_555
K7 O29 2.995583 1_665
K7 O43 3.013400 1_555
K7 O21 3.369993 1_655
K8 O46 2.675783 1_555
K8 O42 2.780636 1_655
K8 O14 2.795801 1_555
K8 O32 2.811954 1_555
K8 O10 2.906806 1_655
K8 O36 3.004979 1_555
K8 O2 3.183857 1_555
K9 O47 2.675783 1_555
K9 O43 2.780636 1_555
K9 O15 2.795801 1_455
K9 O33 2.811954 1_555
K9 O11 2.906806 1_555
K9 O37 3.004979 1_555
K9 O3 3.183857 1_455
K10 O44 2.675783 1_555
K10 O40 2.780636 1_555
K10 O12 2.795801 1_455
K10 O34 2.811954 1_565
K10 O8 2.906806 1_555
K10 O38 3.004979 1_565
K10 O0 3.183857 1_455
K11 O45 2.675783 1_555
K11 O41 2.780636 1_655
K11 O13 2.795801 1_555
K11 O35 2.811954 1_545
K11 O9 2.906806 1_655
K11 O39 3.004979 1_545
K11 O1 3.183857 1_555
K12 O46 2.655314 1_555
K12 O4 2.715836 1_555
K12 O36 2.801832 1_555
K13 O47 2.655314 1_555
K13 O5 2.715836 1_555
K13 O37 2.801832 1_555
K14 O44 2.655314 1_555
K14 O6 2.715836 1_555
K14 O38 2.801832 1_565
K15 O45 2.655314 1_555
K15 O7 2.715836 1_555
K15 O39 2.801832 1_545
K16 O0 2.743272 1_545
K16 O20 2.750072 1_555
K16 O46 2.816959 1_555
K16 O24 2.880537 1_545
K16 O38 2.953936 1_655
K16 O38 3.093722 1_555
K16 O42 3.098483 1_655
K17 O1 2.743272 1_565
K17 O21 2.750072 1_555
K17 O47 2.816959 1_555
K17 O25 2.880537 1_565
K17 O39 2.953936 1_555
K17 O39 3.093722 1_455
K17 O43 3.098483 1_555
K18 O2 2.743272 1_555
K18 O22 2.750072 1_555
K18 O44 2.816959 1_555
K18 O26 2.880537 1_555
K18 O36 2.953936 1_555
K18 O36 3.093722 1_455
K18 O40 3.098483 1_555
K19 O3 2.743272 1_555
K19 O23 2.750072 1_555
K19 O45 2.816959 1_555
K19 O27 2.880537 1_555
K19 O37 2.953936 1_655
K19 O37 3.093722 1_555
K19 O41 3.098483 1_655
K20 O7 2.633443 1_555
K20 O14 2.638307 1_555
K20 O10 2.684448 1_655
K20 O17 2.702535 1_555
K20 O20 2.757702 1_555
K20 O29 2.775966 1_655
K21 O6 2.633443 1_555
K21 O15 2.638307 1_455
K21 O11 2.684448 1_555
K21 O16 2.702535 1_455
K21 O21 2.757702 1_555
K21 O28 2.775966 1_555
K22 O5 2.633443 1_554
K22 O12 2.638307 1_455
K22 O8 2.684448 1_555
K22 O19 2.702535 1_454
K22 O22 2.757702 1_555
K22 O31 2.775966 1_554
K23 O4 2.633443 1_556
K23 O13 2.638307 1_555
K23 O9 2.684448 1_655
K23 O18 2.702535 1_556
K23 O23 2.757702 1_555
K23 O30 2.775966 1_656
H0 O0 1.022868 1_555
H0 O40 1.612982 1_555
H0 K10 2.761896 1_555
H0 K16 2.777593 1_565
H1 O1 1.022868 1_555
H1 O41 1.612982 1_555
H1 K11 2.761896 1_455
H1 K17 2.777593 1_545
H2 O2 1.022868 1_555
H2 O42 1.612982 1_555
H2 K8 2.761896 1_455
H2 K18 2.777593 1_555
H3 O3 1.022868 1_555
H3 O43 1.612982 1_555
H3 K9 2.761896 1_555
H3 K19 2.777593 1_555
H4 O28 1.036086 1_555
H4 O17 1.548615 1_565
H4 K6 2.759992 1_565
H4 K21 2.853190 1_555
H5 O29 1.036086 1_655
H5 O16 1.548615 1_545
H5 K7 2.759992 1_545
H5 K20 2.853190 1_555
H6 O30 1.036086 1_655
H6 O19 1.548615 1_554
H6 K4 2.759992 1_555
H6 K23 2.853190 1_554
H7 O31 1.036086 1_555
H7 O18 1.548615 1_556
H7 K5 2.759992 1_555
H7 K22 2.853190 1_556
H8 O32 1.007719 1_555
H8 O24 1.617066 1_555
H8 K0 2.837044 1_555
H9 O33 1.007719 1_555
H9 O25 1.617066 1_555
H9 K1 2.837044 1_555
H10 O34 1.007719 1_555
H10 O26 1.617066 1_555
H10 K2 2.837044 1_555
H11 O35 1.007719 1_555
H11 O27 1.617066 1_555
H11 K3 2.837044 1_555
O0 P0 1.638755 1_555
O1 P1 1.638755 1_555
O2 P2 1.638755 1_555
O3 P3 1.638755 1_555
O4 P0 1.532052 1_545
O5 P1 1.532052 1_565
O6 P2 1.532052 1_555
O7 P3 1.532052 1_555
O8 P0 1.542835 1_555
O9 P1 1.542835 1_555
O10 P2 1.542835 1_555
O11 P3 1.542835 1_555
O12 P0 1.544112 1_555
O13 P1 1.544112 1_555
O14 P2 1.544112 1_555
O15 P3 1.544112 1_555
O16 P4 1.550024 1_555
O17 P5 1.550024 1_555
O18 P6 1.550024 1_555
O19 P7 1.550024 1_555
O20 P4 1.533650 1_545
O21 P5 1.533650 1_565
O22 P6 1.533650 1_555
O23 P7 1.533650 1_555
O24 P4 1.537624 1_555
O25 P5 1.537624 1_555
O26 P6 1.537624 1_555
O27 P7 1.537624 1_555
O28 P4 1.639052 1_555
O29 P5 1.639052 1_555
O30 P6 1.639052 1_555
O31 P7 1.639052 1_555
O32 P8 1.644484 1_555
O33 P9 1.644484 1_555
O34 P10 1.644484 1_555
O35 P11 1.644484 1_555
O36 P8 1.535829 1_555
O37 P9 1.535829 1_555
O38 P10 1.535829 1_555
O39 P11 1.535829 1_555
O40 P8 1.554885 1_555
O41 P9 1.554885 1_555
O42 P10 1.554885 1_555
O43 P11 1.554885 1_555
O44 P8 1.534093 1_455
O45 P9 1.534093 1_555
O46 P10 1.534093 1_555
O47 P11 1.534093 1_455
