# generated using pymatgen
data_Na5Fe2P2(CO7)2
_symmetry_space_group_name_H-M   'P 1'
_cell_length_a   10.41179353
_cell_length_b   10.49506472
_cell_length_c   6.62867700
_cell_angle_alpha   90.00000000
_cell_angle_beta   90.00000000
_cell_angle_gamma   60.05885639
_symmetry_Int_Tables_number   1
_chemical_formula_structural   Na5Fe2P2(CO7)2
_chemical_formula_sum   'Na10 Fe4 P4 C4 O28'
_cell_volume   627.66140081
_cell_formula_units_Z   2
loop_
 _symmetry_equiv_pos_site_id
 _symmetry_equiv_pos_as_xyz
  1  'x, y, z'
loop_
 _atom_site_type_symbol
 _atom_site_label
 _atom_site_symmetry_multiplicity
 _atom_site_fract_x
 _atom_site_fract_y
 _atom_site_fract_z
 _atom_site_occupancy
  Na  Na0  1  0.91430600  0.41738700  0.75825300  1
  Na  Na1  1  0.92210600  0.92608400  0.75094300  1
  Na  Na2  1  0.73537700  0.25832500  0.51288000  1
  Na  Na3  1  0.73657800  0.75630300  0.99885300  1
  Na  Na4  1  0.73752800  0.75575900  0.50069900  1
  Na  Na5  1  0.26342200  0.24369700  0.49885300  1
  Na  Na6  1  0.26247200  0.24424100  0.00069900  1
  Na  Na7  1  0.26462300  0.74167500  0.01288000  1
  Na  Na8  1  0.07789400  0.07391600  0.25094300  1
  Na  Na9  1  0.08569400  0.58261300  0.25825300  1
  Fe  Fe0  1  0.65220900  0.06959100  0.24010500  1
  Fe  Fe1  1  0.64817400  0.55746500  0.24436800  1
  Fe  Fe2  1  0.35182600  0.44253500  0.74436800  1
  Fe  Fe3  1  0.34779100  0.93040900  0.74010500  1
  P  P0  1  0.58046000  0.05925300  0.74842300  1
  P  P1  1  0.58060100  0.56744600  0.74749400  1
  P  P2  1  0.41939900  0.43255400  0.24749400  1
  P  P3  1  0.41954000  0.94074700  0.24842300  1
  C  C0  1  0.94246800  0.39659200  0.25568800  1
  C  C1  1  0.93171400  0.89658900  0.24904500  1
  C  C2  1  0.06828600  0.10341100  0.74904500  1
  C  C3  1  0.05753200  0.60340800  0.75568800  1
  O  O0  1  0.92802700  0.18422100  0.73126300  1
  O  O1  1  0.91580500  0.68656800  0.75032700  1
  O  O2  1  0.86865400  0.03947600  0.26404400  1
  O  O3  1  0.88073700  0.53963300  0.24583000  1
  O  O4  1  0.85499300  0.34157800  0.26915700  1
  O  O5  1  0.84343100  0.84076800  0.25124200  1
  O  O6  1  0.67901700  0.03433100  0.93779800  1
  O  O7  1  0.67680100  0.04610400  0.56140300  1
  O  O8  1  0.67867100  0.55207600  0.93498500  1
  O  O9  1  0.67689500  0.55677300  0.56069700  1
  O  O10  1  0.56758500  0.28560100  0.25677600  1
  O  O11  1  0.56546500  0.79118400  0.25250000  1
  O  O12  1  0.54433400  0.44045200  0.73687400  1
  O  O13  1  0.54543100  0.93014200  0.74281400  1
  O  O14  1  0.45456900  0.06985800  0.24281400  1
  O  O15  1  0.45566600  0.55954800  0.23687400  1
  O  O16  1  0.43453500  0.20881600  0.75250000  1
  O  O17  1  0.43241500  0.71439900  0.75677600  1
  O  O18  1  0.32132900  0.44792400  0.43498500  1
  O  O19  1  0.32310500  0.44322600  0.06069700  1
  O  O20  1  0.32319900  0.95389600  0.06140300  1
  O  O21  1  0.32098300  0.96566900  0.43779800  1
  O  O22  1  0.15656900  0.15923200  0.75124200  1
  O  O23  1  0.14500700  0.65842200  0.76915700  1
  O  O24  1  0.11926300  0.46036700  0.74583000  1
  O  O25  1  0.13134600  0.96052400  0.76404400  1
  O  O26  1  0.08419500  0.31343200  0.25032700  1
  O  O27  1  0.07197300  0.81577900  0.23126300  1
loop_
_geom_bond_atom_site_label_1
_geom_bond_atom_site_label_2
_geom_bond_distance
_geom_bond_site_symmetry_2
Na0 O0 2.385730 1_555
Na0 O24 2.392688 1_655
Na0 O8 2.434712 1_555
Na0 O9 2.520999 1_555
Na0 O22 2.623610 1_655
Na0 O1 2.833381 1_555
Na1 O25 2.381253 1_655
Na1 O6 2.521993 1_565
Na1 O7 2.544996 1_565
Na1 O1 2.547118 1_555
Na1 O23 2.604625 1_655
Na1 O0 2.743558 1_565
Na2 O0 2.272999 1_555
Na2 O10 2.348775 1_555
Na2 O4 2.451688 1_555
Na2 O12 2.453450 1_555
Na2 O2 2.596187 1_555
Na2 O7 2.606168 1_555
Na2 O9 2.894524 1_555
Na3 O1 2.317001 1_555
Na3 O11 2.341786 1_556
Na3 O5 2.409763 1_556
Na3 O8 2.535109 1_555
Na3 O13 2.558400 1_555
Na3 O3 2.587844 1_556
Na3 O6 2.700296 1_565
Na4 O1 2.316307 1_555
Na4 O11 2.321543 1_555
Na4 O5 2.393341 1_555
Na4 O9 2.496806 1_555
Na4 O13 2.504307 1_555
Na4 O3 2.616560 1_555
Na4 O7 2.814927 1_565
Na5 O26 2.317001 1_555
Na5 O16 2.341786 1_555
Na5 O22 2.409763 1_555
Na5 O18 2.535109 1_555
Na5 O14 2.558400 1_555
Na5 O24 2.587844 1_555
Na5 O21 2.700296 1_545
Na6 O26 2.316307 1_555
Na6 O16 2.321543 1_554
Na6 O22 2.393341 1_554
Na6 O19 2.496796 1_555
Na6 O14 2.504307 1_555
Na6 O24 2.616560 1_554
Na6 O20 2.814927 1_545
Na7 O27 2.272999 1_555
Na7 O17 2.348775 1_554
Na7 O23 2.451688 1_554
Na7 O15 2.453450 1_555
Na7 O25 2.596187 1_554
Na7 O20 2.606168 1_555
Na7 O19 2.894535 1_555
Na8 O2 2.381253 1_455
Na8 O21 2.521993 1_545
Na8 O20 2.544996 1_545
Na8 O26 2.547118 1_555
Na8 O4 2.604625 1_455
Na8 O27 2.743558 1_545
Na9 O27 2.385730 1_555
Na9 O3 2.392688 1_455
Na9 O18 2.434712 1_555
Na9 O19 2.521000 1_555
Na9 O5 2.623610 1_455
Na9 O26 2.833381 1_555
Fe0 O10 1.983453 1_555
Fe0 O6 2.031586 1_554
Fe0 O14 2.056468 1_555
Fe0 O2 2.119600 1_555
Fe0 O7 2.144594 1_555
Fe0 O5 2.227966 1_545
Fe1 O15 1.994151 1_555
Fe1 O8 2.071685 1_554
Fe1 O9 2.117559 1_555
Fe1 O11 2.156996 1_555
Fe1 O4 2.219748 1_555
Fe1 O3 2.333652 1_555
Fe2 O12 1.994151 1_555
Fe2 O18 2.071685 1_555
Fe2 O19 2.117560 1_556
Fe2 O16 2.156996 1_555
Fe2 O23 2.219748 1_555
Fe2 O24 2.333652 1_555
Fe3 O17 1.983453 1_555
Fe3 O21 2.031586 1_555
Fe3 O13 2.056468 1_555
Fe3 O25 2.119600 1_555
Fe3 O20 2.144594 1_556
Fe3 O22 2.227966 1_565
C0 O26 1.286423 1_655
C0 O4 1.302213 1_555
C0 O3 1.306860 1_555
C1 O27 1.276506 1_655
C1 O2 1.306503 1_565
C1 O5 1.313723 1_555
C2 O0 1.276506 1_455
C2 O25 1.306503 1_545
C2 O22 1.313723 1_555
C3 O1 1.286423 1_455
C3 O23 1.302213 1_555
C3 O24 1.306860 1_555
O6 P0 1.558614 1_555
O7 P0 1.556883 1_555
O8 P1 1.564868 1_555
O9 P1 1.561671 1_555
O10 P2 1.545179 1_555
O11 P3 1.546731 1_555
O12 P1 1.557660 1_555
O13 P0 1.569656 1_565
O14 P3 1.569656 1_545
O15 P2 1.557660 1_555
O16 P0 1.546731 1_555
O17 P1 1.545179 1_555
O18 P2 1.564868 1_555
O19 P2 1.561674 1_555
O20 P3 1.556883 1_555
O21 P3 1.558614 1_555
