# generated using pymatgen
data_Na3CuO2
_symmetry_space_group_name_H-M   'P 1'
_cell_length_a   6.01174696
_cell_length_b   6.01174696
_cell_length_c   6.01174688
_cell_angle_alpha   68.06923796
_cell_angle_beta   68.06923796
_cell_angle_gamma   68.06923770
_symmetry_Int_Tables_number   1
_chemical_formula_structural   Na3CuO2
_chemical_formula_sum   'Na6 Cu2 O4'
_cell_volume   179.91852223
_cell_formula_units_Z   2
loop_
 _symmetry_equiv_pos_site_id
 _symmetry_equiv_pos_as_xyz
  1  'x, y, z'
loop_
 _atom_site_type_symbol
 _atom_site_label
 _atom_site_symmetry_multiplicity
 _atom_site_fract_x
 _atom_site_fract_y
 _atom_site_fract_z
 _atom_site_occupancy
  Na  Na0  1  0.99087900  0.25000000  0.50912100  1
  Na  Na1  1  0.49087900  0.00912100  0.75000000  1
  Na  Na2  1  0.75000000  0.49087900  0.00912100  1
  Na  Na3  1  0.25000000  0.50912100  0.99087900  1
  Na  Na4  1  0.50912100  0.99087900  0.25000000  1
  Na  Na5  1  0.00912100  0.75000000  0.49087900  1
  Cu  Cu0  1  0.00000000  0.00000000  0.00000000  1
  Cu  Cu1  1  0.50000000  0.50000000  0.50000000  1
  O  O0  1  0.36867900  0.36867900  0.36867900  1
  O  O1  1  0.86867900  0.86867900  0.86867900  1
  O  O2  1  0.63132100  0.63132100  0.63132100  1
  O  O3  1  0.13132100  0.13132100  0.13132100  1
loop_
_geom_bond_atom_site_label_1
_geom_bond_atom_site_label_2
_geom_bond_distance
_geom_bond_site_symmetry_2
Na0 O3 2.389242 1_655
Na0 O0 2.389242 1_655
Na0 O2 2.614882 1_555
Na0 O1 2.614882 1_545
Na1 O2 2.389242 1_545
Na1 O1 2.389242 1_545
Na1 O3 2.614882 1_556
Na1 O0 2.614882 1_555
Na2 O2 2.389242 1_554
Na2 O1 2.389242 1_554
Na2 O3 2.614882 1_655
Na2 O0 2.614882 1_555
Na3 O0 2.389242 1_556
Na3 O3 2.389242 1_556
Na3 O1 2.614882 1_455
Na3 O2 2.614882 1_555
Na4 O3 2.389242 1_565
Na4 O0 2.389242 1_565
Na4 O2 2.614882 1_555
Na4 O1 2.614882 1_554
Na5 O1 2.389242 1_455
Na5 O2 2.389242 1_455
Na5 O0 2.614882 1_555
Na5 O3 2.614882 1_565
Cu0 O3 1.807334 1_555
Cu0 O1 1.807334 1_444
Cu0 Na5 2.777911 1_545
Cu0 Na0 2.777911 1_454
Cu0 Na2 2.777911 1_455
Cu0 Na3 2.777911 1_544
Cu0 Na1 2.777911 1_554
Cu0 Na4 2.777911 1_445
Cu1 O0 1.807334 1_555
Cu1 O2 1.807334 1_555
Cu1 Na3 2.777911 1_555
Cu1 Na2 2.777911 1_555
Cu1 Na0 2.777911 1_555
Cu1 Na5 2.777911 1_555
Cu1 Na4 2.777911 1_555
Cu1 Na1 2.777911 1_555
