# generated using pymatgen
data_MgH18C4SN8O9
_symmetry_space_group_name_H-M   'P 1'
_cell_length_a   14.45289192
_cell_length_b   9.20308468
_cell_length_c   14.07471682
_cell_angle_alpha   52.34421284
_cell_angle_beta   90.00000000
_cell_angle_gamma   90.00000000
_symmetry_Int_Tables_number   1
_chemical_formula_structural   MgH18C4SN8O9
_chemical_formula_sum   'Mg4 H72 C16 S4 N32 O36'
_cell_volume   1482.12845110
_cell_formula_units_Z   4
loop_
 _symmetry_equiv_pos_site_id
 _symmetry_equiv_pos_as_xyz
  1  'x, y, z'
loop_
 _atom_site_type_symbol
 _atom_site_label
 _atom_site_symmetry_multiplicity
 _atom_site_fract_x
 _atom_site_fract_y
 _atom_site_fract_z
 _atom_site_occupancy
  Mg  Mg0  1  0.82507324  0.71158414  0.16086581  1
  Mg  Mg1  1  0.67492676  0.71158414  0.66086581  1
  Mg  Mg2  1  0.17492676  0.28841586  0.83913419  1
  Mg  Mg3  1  0.32507324  0.28841586  0.33913419  1
  H  H0  1  0.99983474  0.81419574  0.11606202  1
  H  H1  1  0.50016526  0.81419574  0.61606202  1
  H  H2  1  0.00016526  0.18580426  0.88393798  1
  H  H3  1  0.49983474  0.18580426  0.38393798  1
  H  H4  1  0.98312653  0.77638712  0.02167415  1
  H  H5  1  0.51687347  0.77638712  0.52167415  1
  H  H6  1  0.01687347  0.22361288  0.97832585  1
  H  H7  1  0.48312653  0.22361288  0.47832585  1
  H  H8  1  0.67129694  0.70029622  0.89702267  1
  H  H9  1  0.82870306  0.70029622  0.39702267  1
  H  H10  1  0.32870306  0.29970378  0.10297733  1
  H  H11  1  0.17129694  0.29970378  0.60297733  1
  H  H12  1  0.70096833  0.78261586  0.97480260  1
  H  H13  1  0.79903167  0.78261586  0.47480260  1
  H  H14  1  0.29903167  0.21738414  0.02519740  1
  H  H15  1  0.20096833  0.21738414  0.52519740  1
  H  H16  1  0.73638188  0.43212487  0.95242681  1
  H  H17  1  0.76361812  0.43212487  0.45242681  1
  H  H18  1  0.26361812  0.56787513  0.04757319  1
  H  H19  1  0.23638188  0.56787513  0.54757319  1
  H  H20  1  0.82699957  0.33351640  0.05756154  1
  H  H21  1  0.67300043  0.33351640  0.55756154  1
  H  H22  1  0.17300043  0.66648360  0.94243846  1
  H  H23  1  0.32699957  0.66648360  0.44243846  1
  H  H24  1  0.07336172  0.43510528  0.42654723  1
  H  H25  1  0.42663828  0.43510528  0.92654723  1
  H  H26  1  0.92663828  0.56489472  0.57345277  1
  H  H27  1  0.57336172  0.56489472  0.07345277  1
  H  H28  1  0.01962440  0.64003091  0.31218746  1
  H  H29  1  0.48037560  0.64003091  0.81218746  1
  H  H30  1  0.98037560  0.35996909  0.68781254  1
  H  H31  1  0.51962440  0.35996909  0.18781254  1
  H  H32  1  0.98298989  0.16931324  0.55412301  1
  H  H33  1  0.51701011  0.16931324  0.05412301  1
  H  H34  1  0.01701011  0.83068676  0.44587699  1
  H  H35  1  0.48298989  0.83068676  0.94587699  1
  H  H36  1  0.87247532  0.16813528  0.50725087  1
  H  H37  1  0.62752468  0.16813528  0.00725087  1
  H  H38  1  0.12752468  0.83186472  0.49274913  1
  H  H39  1  0.37247532  0.83186472  0.99274913  1
  H  H40  1  0.81177449  0.35859866  0.84484546  1
  H  H41  1  0.68822551  0.35859866  0.34484546  1
  H  H42  1  0.18822551  0.64140134  0.15515454  1
  H  H43  1  0.31177449  0.64140134  0.65515454  1
  H  H44  1  0.85823721  0.17876575  0.98299283  1
  H  H45  1  0.64176279  0.17876575  0.48299283  1
  H  H46  1  0.14176279  0.82123425  0.01700717  1
  H  H47  1  0.35823721  0.82123425  0.51700717  1
  H  H48  1  0.69871432  0.30127514  0.75737849  1
  H  H49  1  0.80128568  0.30127514  0.25737849  1
  H  H50  1  0.30128568  0.69872486  0.24262151  1
  H  H51  1  0.19871432  0.69872486  0.74262151  1
  H  H52  1  0.65742335  0.08029969  0.82818537  1
  H  H53  1  0.84257665  0.08029969  0.32818537  1
  H  H54  1  0.34257665  0.91970031  0.17181463  1
  H  H55  1  0.15742335  0.91970031  0.67181463  1
  H  H56  1  0.61321445  0.93894654  0.26611793  1
  H  H57  1  0.88678555  0.93894654  0.76611793  1
  H  H58  1  0.38678555  0.06105346  0.73388207  1
  H  H59  1  0.11321445  0.06105346  0.23388207  1
  H  H60  1  0.72307461  0.92002570  0.22445384  1
  H  H61  1  0.77692539  0.92002570  0.72445384  1
  H  H62  1  0.27692539  0.07997430  0.77554616  1
  H  H63  1  0.22307461  0.07997430  0.27554616  1
  H  H64  1  0.50508894  0.70336006  0.32560661  1
  H  H65  1  0.99491106  0.70336006  0.82560661  1
  H  H66  1  0.49491106  0.29663994  0.67439339  1
  H  H67  1  0.00508894  0.29663994  0.17439339  1
  H  H68  1  0.53292084  0.53560427  0.30920166  1
  H  H69  1  0.96707916  0.53560427  0.80920166  1
  H  H70  1  0.46707916  0.46439573  0.69079834  1
  H  H71  1  0.03292084  0.46439573  0.19079834  1
  C  C0  1  0.76062789  0.54507426  0.03738523  1
  C  C1  1  0.73937211  0.54507426  0.53738523  1
  C  C2  1  0.23937211  0.45492574  0.96261477  1
  C  C3  1  0.26062789  0.45492574  0.46261477  1
  C  C4  1  0.93654506  0.41320755  0.39667430  1
  C  C5  1  0.56345494  0.41320755  0.89667430  1
  C  C6  1  0.06345494  0.58679245  0.60332570  1
  C  C7  1  0.43654506  0.58679245  0.10332570  1
  C  C8  1  0.76458328  0.09952833  0.91410452  1
  C  C9  1  0.73541672  0.09952833  0.41410452  1
  C  C10  1  0.23541672  0.90047167  0.08589548  1
  C  C11  1  0.26458328  0.90047167  0.58589548  1
  C  C12  1  0.63514570  0.72236418  0.25902274  1
  C  C13  1  0.86485430  0.72236418  0.75902274  1
  C  C14  1  0.36485430  0.27763582  0.74097726  1
  C  C15  1  0.13514570  0.27763582  0.24097726  1
  S  S0  1  0.94082988  0.98400272  0.20423059  1
  S  S1  1  0.55917012  0.98400272  0.70423059  1
  S  S2  1  0.05917012  0.01599728  0.79576941  1
  S  S3  1  0.44082988  0.01599728  0.29576941  1
  N  N0  1  0.69259193  0.67182546  0.97543350  1
  N  N1  1  0.80740807  0.67182546  0.47543350  1
  N  N2  1  0.30740807  0.32817454  0.02456650  1
  N  N3  1  0.19259193  0.32817454  0.52456650  1
  N  N4  1  0.77213092  0.42003578  0.01906621  1
  N  N5  1  0.72786908  0.42003578  0.51906621  1
  N  N6  1  0.22786908  0.57996422  0.98093379  1
  N  N7  1  0.27213092  0.57996422  0.48093379  1
  N  N8  1  0.01702366  0.50136766  0.37390899  1
  N  N9  1  0.48297634  0.50136766  0.87390899  1
  N  N10  1  0.98297634  0.49863234  0.62609101  1
  N  N11  1  0.51702366  0.49863234  0.12609101  1
  N  N12  1  0.93285586  0.23418211  0.49018491  1
  N  N13  1  0.56714414  0.23418211  0.99018491  1
  N  N14  1  0.06714414  0.76581789  0.50981509  1
  N  N15  1  0.43285586  0.76581789  0.00981509  1
  N  N16  1  0.81805334  0.22161742  0.91146129  1
  N  N17  1  0.68194666  0.22161742  0.41146129  1
  N  N18  1  0.18194666  0.77838258  0.08853871  1
  N  N19  1  0.31805334  0.77838258  0.58853871  1
  N  N20  1  0.70753046  0.16383826  0.82128726  1
  N  N21  1  0.79246954  0.16383826  0.32128726  1
  N  N22  1  0.29246954  0.83616174  0.17871274  1
  N  N23  1  0.20753046  0.83616174  0.67871274  1
  N  N24  1  0.65600526  0.88012222  0.24156144  1
  N  N25  1  0.84399474  0.88012222  0.74156144  1
  N  N26  1  0.34399474  0.11987778  0.75843856  1
  N  N27  1  0.15600526  0.11987778  0.25843856  1
  N  N28  1  0.55099342  0.64866377  0.30118996  1
  N  N29  1  0.94900658  0.64866377  0.80118996  1
  N  N30  1  0.44900658  0.35133623  0.69881004  1
  N  N31  1  0.05099342  0.35133623  0.19881004  1
  O  O0  1  0.94016891  0.96738009  0.31462446  1
  O  O1  1  0.55983109  0.96738009  0.81462446  1
  O  O2  1  0.05983109  0.03261991  0.68537554  1
  O  O3  1  0.44016891  0.03261991  0.18537554  1
  O  O4  1  0.85759538  0.89102535  0.20183968  1
  O  O5  1  0.64240462  0.89102535  0.70183968  1
  O  O6  1  0.14240462  0.10897465  0.79816032  1
  O  O7  1  0.35759538  0.10897465  0.29816032  1
  O  O8  1  0.93817150  0.18121342  0.09838749  1
  O  O9  1  0.56182850  0.18121342  0.59838749  1
  O  O10  1  0.06182850  0.81878658  0.90161251  1
  O  O11  1  0.43817150  0.81878658  0.40161251  1
  O  O12  1  0.02553077  0.90092613  0.19764501  1
  O  O13  1  0.47446923  0.90092613  0.69764501  1
  O  O14  1  0.97446923  0.09907387  0.80235499  1
  O  O15  1  0.52553077  0.09907387  0.30235499  1
  O  O16  1  0.96094128  0.74766164  0.09704291  1
  O  O17  1  0.53905872  0.74766164  0.59704291  1
  O  O18  1  0.03905872  0.25233836  0.90295709  1
  O  O19  1  0.46094128  0.25233836  0.40295709  1
  O  O20  1  0.80849239  0.54076433  0.11443660  1
  O  O21  1  0.69150761  0.54076433  0.61443660  1
  O  O22  1  0.19150761  0.45923567  0.88556340  1
  O  O23  1  0.30849239  0.45923567  0.38556340  1
  O  O24  1  0.86494572  0.49406480  0.33264079  1
  O  O25  1  0.63505428  0.49406480  0.83264079  1
  O  O26  1  0.13505428  0.50593520  0.66735921  1
  O  O27  1  0.36494572  0.50593520  0.16735921  1
  O  O28  1  0.76750231  0.92945533  0.00086655  1
  O  O29  1  0.73249769  0.92945533  0.50086655  1
  O  O30  1  0.23249769  0.07054467  0.99913345  1
  O  O31  1  0.26750231  0.07054467  0.49913345  1
  O  O32  1  0.69395000  0.64560044  0.23597193  1
  O  O33  1  0.80605000  0.64560044  0.73597193  1
  O  O34  1  0.30605000  0.35439956  0.76402807  1
  O  O35  1  0.19395000  0.35439956  0.26402807  1
loop_
_geom_bond_atom_site_label_1
_geom_bond_atom_site_label_2
_geom_bond_distance
_geom_bond_site_symmetry_2
Mg0 O20 2.052088 1_555
Mg0 O28 2.065664 1_555
Mg0 O24 2.066691 1_555
Mg0 O32 2.072035 1_555
Mg0 O16 2.099717 1_555
Mg0 O4 2.108152 1_555
Mg1 O21 2.052088 1_555
Mg1 O29 2.065664 1_555
Mg1 O25 2.066691 1_555
Mg1 O33 2.072035 1_555
Mg1 O17 2.099717 1_555
Mg1 O5 2.108152 1_555
Mg2 O22 2.052088 1_555
Mg2 O30 2.065664 1_555
Mg2 O26 2.066691 1_555
Mg2 O34 2.072035 1_555
Mg2 O18 2.099717 1_555
Mg2 O6 2.108152 1_555
Mg3 O23 2.052088 1_555
Mg3 O31 2.065664 1_555
Mg3 O27 2.066691 1_555
Mg3 O35 2.072035 1_555
Mg3 O19 2.099717 1_555
Mg3 O7 2.108152 1_555
H0 O16 0.981247 1_555
H1 O17 0.981247 1_555
H2 O18 0.981247 1_555
H3 O19 0.981247 1_555
H4 O16 0.977414 1_555
H5 O17 0.977414 1_555
H6 O18 0.977414 1_555
H7 O19 0.977414 1_555
H8 N0 1.013914 1_555
H9 N1 1.013914 1_555
H10 N2 1.013914 1_555
H11 N3 1.013914 1_555
H12 N0 1.021413 1_555
H13 N1 1.021413 1_555
H14 N2 1.021413 1_555
H15 N3 1.021413 1_555
H16 N4 1.015651 1_556
H17 N5 1.015651 1_555
H18 N6 1.015651 1_554
H19 N7 1.015651 1_555
H20 N4 1.014552 1_555
H21 N5 1.014552 1_555
H22 N6 1.014552 1_555
H23 N7 1.014552 1_555
H24 N8 1.015749 1_555
H25 N9 1.015749 1_555
H26 N10 1.015749 1_555
H27 N11 1.015749 1_555
H28 N8 1.014924 1_555
H29 N9 1.014924 1_555
H30 N10 1.014924 1_555
H31 N11 1.014924 1_555
H32 N12 1.017271 1_555
H33 N13 1.017271 1_554
H34 N14 1.017271 1_555
H35 N15 1.017271 1_556
H36 N12 1.005151 1_555
H37 N13 1.005151 1_554
H38 N14 1.005151 1_555
H39 N15 1.005151 1_556
H40 N16 1.016060 1_555
H41 N17 1.016060 1_555
H42 N18 1.016060 1_555
H43 N19 1.016060 1_555
H44 N16 1.010604 1_555
H45 N17 1.010604 1_555
H46 N18 1.010604 1_555
H47 N19 1.010604 1_555
H48 N20 1.017375 1_555
H49 N21 1.017375 1_555
H50 N22 1.017375 1_555
H51 N23 1.017375 1_555
H52 N20 1.016736 1_555
H53 N21 1.016736 1_555
H54 N22 1.016736 1_555
H55 N23 1.016736 1_555
H56 N24 1.011747 1_555
H57 N25 1.011747 1_555
H58 N26 1.011747 1_555
H59 N27 1.011747 1_555
H60 N24 1.012142 1_555
H61 N25 1.012142 1_555
H62 N26 1.012142 1_555
H63 N27 1.012142 1_555
H64 N28 1.011444 1_555
H65 N29 1.011444 1_555
H66 N30 1.011444 1_555
H67 N31 1.011444 1_555
H68 N28 1.010058 1_555
H69 N29 1.010058 1_555
H70 N30 1.010058 1_555
H71 N31 1.010058 1_555
C0 O20 1.266359 1_555
C0 N4 1.334481 1_555
C0 N0 1.358371 1_554
C1 O21 1.266359 1_555
C1 N5 1.334481 1_555
C1 N1 1.358371 1_555
C2 O22 1.266359 1_555
C2 N6 1.334481 1_555
C2 N2 1.358371 1_556
C3 O23 1.266359 1_555
C3 N7 1.334481 1_555
C3 N3 1.358371 1_555
C4 O24 1.271776 1_555
C4 N8 1.340233 1_655
C4 N12 1.341684 1_555
C5 O25 1.271776 1_555
C5 N9 1.340233 1_555
C5 N13 1.341684 1_555
C6 O26 1.271776 1_555
C6 N10 1.340233 1_455
C6 N14 1.341684 1_555
C7 O27 1.271776 1_555
C7 N11 1.340233 1_555
C7 N15 1.341684 1_555
C8 O28 1.267868 1_546
C8 N20 1.338708 1_555
C8 N16 1.345360 1_555
C9 O29 1.267868 1_545
C9 N21 1.338708 1_555
C9 N17 1.345360 1_555
C10 O30 1.267868 1_564
C10 N22 1.338708 1_555
C10 N18 1.345360 1_555
C11 O31 1.267868 1_565
C11 N23 1.338708 1_555
C11 N19 1.345360 1_555
C12 O32 1.267560 1_555
C12 N28 1.341524 1_555
C12 N24 1.350268 1_555
C13 O33 1.267560 1_555
C13 N29 1.341524 1_555
C13 N25 1.350268 1_555
C14 O34 1.267560 1_555
C14 N30 1.341524 1_555
C14 N26 1.350268 1_555
C15 O35 1.267560 1_555
C15 N31 1.341524 1_555
C15 N27 1.350268 1_555
O0 S0 1.465350 1_555
O1 S1 1.465350 1_555
O2 S2 1.465350 1_555
O3 S3 1.465350 1_555
O4 S0 1.488509 1_555
O5 S1 1.488509 1_555
O6 S2 1.488509 1_555
O7 S3 1.488509 1_555
O8 S0 1.487018 1_545
O9 S1 1.487018 1_545
O10 S2 1.487018 1_565
O11 S3 1.487018 1_565
O12 S0 1.475917 1_455
O13 S1 1.475917 1_555
O14 S2 1.475917 1_655
O15 S3 1.475917 1_555
