# generated using pymatgen
data_Li2V6O15
_symmetry_space_group_name_H-M   'P 1'
_cell_length_a   3.67162000
_cell_length_b   10.40115196
_cell_length_c   8.09397105
_cell_angle_alpha   112.34314237
_cell_angle_beta   76.88772396
_cell_angle_gamma   90.00101345
_symmetry_Int_Tables_number   1
_chemical_formula_structural   Li2V6O15
_chemical_formula_sum   'Li2 V6 O15'
_cell_volume   277.16261466
_cell_formula_units_Z   1
loop_
 _symmetry_equiv_pos_site_id
 _symmetry_equiv_pos_as_xyz
  1  'x, y, z'
loop_
 _atom_site_type_symbol
 _atom_site_label
 _atom_site_symmetry_multiplicity
 _atom_site_fract_x
 _atom_site_fract_y
 _atom_site_fract_z
 _atom_site_occupancy
  Li  Li0  1  0.00770700  0.68088200  0.98474900  1
  Li  Li1  1  0.99228200  0.31913400  0.01527800  1
  V  V0  1  0.66233400  0.10352300  0.67534100  1
  V  V1  1  0.33767200  0.89647900  0.32465200  1
  V  V2  1  0.12150700  0.88802300  0.75682100  1
  V  V3  1  0.87848800  0.11199800  0.24318600  1
  V  V4  1  0.28877200  0.58579400  0.42264500  1
  V  V5  1  0.71121700  0.41420400  0.57737500  1
  O  O0  1  0.00000000  0.00001000  0.99999500  1
  O  O1  1  0.18581400  0.03973900  0.62837000  1
  O  O2  1  0.81420000  0.96024600  0.37160300  1
  O  O3  1  0.36650700  0.07313000  0.26706100  1
  O  O4  1  0.63349300  0.92687000  0.73293600  1
  O  O5  1  0.55754000  0.23545400  0.88474000  1
  O  O6  1  0.44250700  0.76451500  0.11520900  1
  O  O7  1  0.24056000  0.43146200  0.51878200  1
  O  O8  1  0.75943100  0.56854200  0.48123100  1
  O  O9  1  0.73350900  0.23018200  0.53291600  1
  O  O10  1  0.26649200  0.76981000  0.46707600  1
  O  O11  1  0.40104000  0.50872500  0.19817500  1
  O  O12  1  0.59895400  0.49125400  0.80182600  1
  O  O13  1  0.88414600  0.26827100  0.23152400  1
  O  O14  1  0.11582600  0.73175300  0.76851000  1
loop_
_geom_bond_atom_site_label_1
_geom_bond_atom_site_label_2
_geom_bond_distance
_geom_bond_site_symmetry_2
Li0 O14 1.972237 1_555
Li0 O6 2.117927 1_456
Li0 O6 2.118179 1_556
Li1 O13 1.972240 1_555
Li1 O5 2.118296 1_654
Li1 O5 2.118427 1_554
O0 V2 1.813365 1_545
O0 V3 1.813476 1_456
O1 V0 1.937930 1_455
O1 V0 1.937980 1_555
O1 V2 2.182389 1_545
O1 V1 2.273208 1_545
O2 V1 1.937880 1_655
O2 V1 1.937917 1_555
O2 V3 2.182528 1_565
O2 V0 2.273377 1_565
O3 V3 1.904712 1_455
O3 V3 1.904988 1_555
O3 V1 2.057479 1_545
O4 V2 1.904671 1_655
O4 V2 1.904947 1_555
O4 V0 2.057518 1_565
O5 V0 1.685083 1_555
O6 V1 1.685460 1_555
O7 V5 1.918319 1_555
O7 V5 1.918597 1_455
O7 V4 2.025034 1_555
O8 V4 1.918287 1_555
O8 V4 1.918575 1_655
O8 V5 2.025130 1_555
O9 V5 1.806298 1_555
O9 V0 2.037328 1_555
O9 V3 2.129713 1_555
O10 V4 1.806285 1_555
O10 V1 2.037411 1_555
O10 V2 2.129861 1_555
O11 V4 1.632895 1_555
O12 V5 1.632748 1_555
O13 V3 1.663457 1_555
O14 V2 1.663519 1_555
