# generated using pymatgen
data_Li3Ni4SnO8
_symmetry_space_group_name_H-M   'P 1'
_cell_length_a   6.00955227
_cell_length_b   6.00955259
_cell_length_c   5.98198471
_cell_angle_alpha   89.89423812
_cell_angle_beta   60.09990103
_cell_angle_gamma   59.62648050
_symmetry_Int_Tables_number   1
_chemical_formula_structural   Li3Ni4SnO8
_chemical_formula_sum   'Li3 Ni4 Sn1 O8'
_cell_volume   152.26731723
_cell_formula_units_Z   1
loop_
 _symmetry_equiv_pos_site_id
 _symmetry_equiv_pos_as_xyz
  1  'x, y, z'
loop_
 _atom_site_type_symbol
 _atom_site_label
 _atom_site_symmetry_multiplicity
 _atom_site_fract_x
 _atom_site_fract_y
 _atom_site_fract_z
 _atom_site_occupancy
  Li  Li0  1  0.00000000  0.00000000  0.50000000  1
  Li  Li1  1  0.50000000  0.00000000  0.50000000  1
  Li  Li2  1  0.50000000  0.50000000  0.50000000  1
  Ni  Ni0  1  0.00000000  0.50000000  0.50000000  1
  Ni  Ni1  1  0.00000000  0.00000000  0.00000000  1
  Ni  Ni2  1  0.50000000  0.00000000  0.00000000  1
  Ni  Ni3  1  0.00000000  0.50000000  0.00000000  1
  Sn  Sn0  1  0.50000000  0.50000000  0.00000000  1
  O  O0  1  0.48562000  0.25438200  0.76876200  1
  O  O1  1  0.99175900  0.25332000  0.75400200  1
  O  O2  1  0.49931800  0.74576100  0.75400200  1
  O  O3  1  0.97704400  0.74925400  0.77221000  1
  O  O4  1  0.02295600  0.25074600  0.22779000  1
  O  O5  1  0.50068200  0.25423900  0.24599800  1
  O  O6  1  0.00824100  0.74668000  0.24599800  1
  O  O7  1  0.51438000  0.74561800  0.23123800  1
loop_
_geom_bond_atom_site_label_1
_geom_bond_atom_site_label_2
_geom_bond_distance
_geom_bond_site_symmetry_2
Li0 O1 2.118002 1_455
Li0 O6 2.118002 1_545
Li0 O7 2.180072 1_545
Li0 O0 2.180072 1_455
Li0 O3 2.217756 1_445
Li0 O4 2.217756 1_555
Li1 O6 2.152816 1_645
Li1 O1 2.152816 1_455
Li1 O5 2.152817 1_555
Li1 O2 2.152817 1_545
Li1 O0 2.160143 1_555
Li1 O7 2.160143 1_545
Li2 O2 2.118002 1_555
Li2 O5 2.118002 1_555
Li2 O0 2.180073 1_555
Li2 O7 2.180073 1_555
Li2 O3 2.217755 1_455
Li2 O4 2.217755 1_655
Ni0 O4 2.119048 1_555
Ni0 O3 2.119048 1_455
Ni0 O5 2.121241 1_555
Ni0 O2 2.121241 1_455
Ni0 O1 2.121241 1_455
Ni0 O6 2.121241 1_555
Ni1 O2 2.115087 1_544
Ni1 O5 2.115087 1_455
Ni1 O6 2.115087 1_545
Ni1 O1 2.115087 1_454
Ni1 O3 2.133469 1_444
Ni1 O4 2.133469 1_555
Ni2 O4 2.022482 1_555
Ni2 O3 2.022482 1_544
Ni2 O7 2.058069 1_545
Ni2 O0 2.058069 1_554
Ni2 O5 2.126148 1_555
Ni2 O2 2.126148 1_544
Ni3 O3 2.022483 1_454
Ni3 O4 2.022483 1_555
Ni3 O0 2.058068 1_554
Ni3 O7 2.058068 1_455
Ni3 O6 2.126148 1_555
Ni3 O1 2.126148 1_454
O0 Sn0 2.086942 1_556
O1 Sn0 2.082939 1_556
O2 Sn0 2.082939 1_556
O5 Sn0 2.082939 1_555
O6 Sn0 2.082939 1_555
O7 Sn0 2.086942 1_555
