# generated using pymatgen
data_Na2TmPCO7
_symmetry_space_group_name_H-M   'P 1'
_cell_length_a   6.93622600
_cell_length_b   5.33283500
_cell_length_c   9.19329967
_cell_angle_alpha   88.93113513
_cell_angle_beta   90.00000000
_cell_angle_gamma   90.00000000
_symmetry_Int_Tables_number   1
_chemical_formula_structural   Na2TmPCO7
_chemical_formula_sum   'Na4 Tm2 P2 C2 O14'
_cell_volume   339.99867387
_cell_formula_units_Z   2
loop_
 _symmetry_equiv_pos_site_id
 _symmetry_equiv_pos_as_xyz
  1  'x, y, z'
loop_
 _atom_site_type_symbol
 _atom_site_label
 _atom_site_symmetry_multiplicity
 _atom_site_fract_x
 _atom_site_fract_y
 _atom_site_fract_z
 _atom_site_occupancy
  Na  Na0  1  0.49564900  0.23414900  0.77625400  1
  Na  Na1  1  0.00435100  0.23414900  0.77625400  1
  Na  Na2  1  0.50435100  0.76585100  0.22374600  1
  Na  Na3  1  0.99564900  0.76585100  0.22374600  1
  Tm  Tm0  1  0.75000000  0.77299600  0.64131500  1
  Tm  Tm1  1  0.25000000  0.22700400  0.35868500  1
  P  P0  1  0.25000000  0.70913200  0.58110300  1
  P  P1  1  0.75000000  0.29086800  0.41889700  1
  C  C0  1  0.75000000  0.73119000  0.93281000  1
  C  C1  1  0.25000000  0.26881000  0.06719000  1
  O  O0  1  0.25000000  0.29224200  0.93133200  1
  O  O1  1  0.75000000  0.95098700  0.86420500  1
  O  O2  1  0.75000000  0.53508400  0.84446400  1
  O  O3  1  0.06664100  0.79686800  0.66019700  1
  O  O4  1  0.43335900  0.79686800  0.66019700  1
  O  O5  1  0.75000000  0.18204000  0.57931200  1
  O  O6  1  0.25000000  0.41642000  0.57179300  1
  O  O7  1  0.75000000  0.58358000  0.42820700  1
  O  O8  1  0.25000000  0.81796000  0.42068800  1
  O  O9  1  0.56664100  0.20313200  0.33980300  1
  O  O10  1  0.93335900  0.20313200  0.33980300  1
  O  O11  1  0.25000000  0.46491600  0.15553600  1
  O  O12  1  0.25000000  0.04901300  0.13579500  1
  O  O13  1  0.75000000  0.70775800  0.06866800  1
loop_
_geom_bond_atom_site_label_1
_geom_bond_atom_site_label_2
_geom_bond_distance
_geom_bond_site_symmetry_2
Na0 O0 2.246822 1_555
Na0 O1 2.449697 1_545
Na0 O2 2.473620 1_555
Na0 O5 2.546881 1_555
Na0 O4 2.618368 1_545
Na0 O6 2.704260 1_555
Na1 O0 2.246822 1_555
Na1 O1 2.449697 1_445
Na1 O2 2.473620 1_455
Na1 O5 2.546881 1_455
Na1 O3 2.618368 1_545
Na1 O6 2.704260 1_555
Na2 O13 2.246822 1_555
Na2 O12 2.449697 1_565
Na2 O11 2.473620 1_555
Na2 O8 2.546881 1_555
Na2 O9 2.618368 1_565
Na2 O7 2.704260 1_555
Na3 O13 2.246822 1_555
Na3 O12 2.449697 1_665
Na3 O11 2.473620 1_655
Na3 O8 2.546881 1_655
Na3 O10 2.618368 1_565
Na3 O7 2.704260 1_555
C0 O13 1.252897 1_556
C0 O1 1.320653 1_555
C0 O2 1.336055 1_555
C1 O0 1.252897 1_554
C1 O12 1.320653 1_555
C1 O11 1.336055 1_555
O1 Tm0 2.274275 1_555
O2 Tm0 2.238142 1_555
O3 P0 1.542030 1_555
O3 Tm0 2.207005 1_455
O4 P0 1.542030 1_555
O4 Tm0 2.207005 1_555
O5 P1 1.574724 1_555
O5 Tm0 2.244298 1_545
O6 P0 1.564923 1_555
O6 Tm1 2.220926 1_555
O7 P1 1.564923 1_555
O7 Tm0 2.220926 1_555
O8 P0 1.574724 1_555
O8 Tm1 2.244298 1_565
O9 P1 1.542030 1_555
O9 Tm1 2.207005 1_555
O10 P1 1.542030 1_555
O10 Tm1 2.207005 1_655
O11 Tm1 2.238142 1_555
O12 Tm1 2.274275 1_555
