# generated using pymatgen
data_Ca3La7Ti5Cr5O30
_symmetry_space_group_name_H-M   'P 1'
_cell_length_a   5.56401030
_cell_length_b   5.57158498
_cell_length_c   39.25082494
_cell_angle_alpha   90.00000000
_cell_angle_beta   90.00000000
_cell_angle_gamma   90.30540071
_symmetry_Int_Tables_number   1
_chemical_formula_structural   Ca3La7Ti5Cr5O30
_chemical_formula_sum   'Ca6 La14 Ti10 Cr10 O60'
_cell_volume   1216.77226896
_cell_formula_units_Z   2
loop_
 _symmetry_equiv_pos_site_id
 _symmetry_equiv_pos_as_xyz
  1  'x, y, z'
loop_
 _atom_site_type_symbol
 _atom_site_label
 _atom_site_symmetry_multiplicity
 _atom_site_fract_x
 _atom_site_fract_y
 _atom_site_fract_z
 _atom_site_occupancy
  Ca  Ca0  1  0.03758283  0.99033061  0.25000000  1
  Ca  Ca1  1  0.53074160  0.51037438  0.04954123  1
  Ca  Ca2  1  0.53074160  0.51037438  0.45045877  1
  Ca  Ca3  1  0.96170921  0.00981574  0.54917574  1
  Ca  Ca4  1  0.96320813  0.01045889  0.75000000  1
  Ca  Ca5  1  0.96170921  0.00981574  0.95082426  1
  La  La0  1  0.03169288  0.99443527  0.04866070  1
  La  La1  1  0.03169288  0.99443527  0.45133930  1
  La  La2  1  0.02668864  0.99356518  0.64961017  1
  La  La3  1  0.02668864  0.99356518  0.85038983  1
  La  La4  1  0.47565932  0.49317074  0.35093658  1
  La  La5  1  0.47565932  0.49317074  0.14906342  1
  La  La6  1  0.47638600  0.49321665  0.54812053  1
  La  La7  1  0.47741971  0.49330197  0.75000000  1
  La  La8  1  0.47638600  0.49321665  0.95187947  1
  La  La9  1  0.52412106  0.50796790  0.25000000  1
  La  La10  1  0.52516733  0.50657551  0.64936684  1
  La  La11  1  0.52516733  0.50657551  0.85063316  1
  La  La12  1  0.97228891  0.00548406  0.15048329  1
  La  La13  1  0.97228891  0.00548406  0.34951671  1
  Ti  Ti0  1  0.99946603  0.50144139  0.09877718  1
  Ti  Ti1  1  0.99946603  0.50144139  0.40122282  1
  Ti  Ti2  1  0.00100019  0.49927597  0.79910474  1
  Ti  Ti3  1  0.00088645  0.49844161  0.90167563  1
  Ti  Ti4  1  0.99959963  0.49924618  0.99995239  1
  Ti  Ti5  1  0.99986267  0.50166194  0.20101408  1
  Ti  Ti6  1  0.99986267  0.50166194  0.29898592  1
  Ti  Ti7  1  0.99959963  0.49924618  0.50004761  1
  Ti  Ti8  1  0.00100019  0.49927597  0.70089526  1
  Ti  Ti9  1  0.00088645  0.49844161  0.59832437  1
  Cr  Cr0  1  0.50022821  0.99988615  0.09915924  1
  Cr  Cr1  1  0.50056878  0.99877751  0.49964488  1
  Cr  Cr2  1  0.49942916  0.00125770  0.29946274  1
  Cr  Cr3  1  0.50056878  0.99877751  0.00035512  1
  Cr  Cr4  1  0.50008142  0.99979407  0.70037923  1
  Cr  Cr5  1  0.50003941  0.00000099  0.90107615  1
  Cr  Cr6  1  0.49942916  0.00125770  0.20053726  1
  Cr  Cr7  1  0.50022821  0.99988615  0.40084076  1
  Cr  Cr8  1  0.50003941  0.00000099  0.59892385  1
  Cr  Cr9  1  0.50008142  0.99979407  0.79962077  1
  O  O0  1  0.01008093  0.57266038  0.14988596  1
  O  O1  1  0.01008093  0.57266038  0.35011404  1
  O  O2  1  0.01241086  0.58201275  0.54967623  1
  O  O3  1  0.01041383  0.58225484  0.75000000  1
  O  O4  1  0.01241086  0.58201275  0.95032377  1
  O  O5  1  0.22067847  0.22380415  0.10864454  1
  O  O6  1  0.22571943  0.23034073  0.19111789  1
  O  O7  1  0.22571943  0.23034073  0.30888211  1
  O  O8  1  0.22067847  0.22380415  0.39135546  1
  O  O9  1  0.21694883  0.21943537  0.50856610  1
  O  O10  1  0.22235114  0.22735760  0.59134553  1
  O  O11  1  0.22194489  0.22626744  0.70848261  1
  O  O12  1  0.22194489  0.22626744  0.79151739  1
  O  O13  1  0.22235114  0.22735760  0.90865447  1
  O  O14  1  0.21694883  0.21943537  0.99143390  1
  O  O15  1  0.27703542  0.71448894  0.00915858  1
  O  O16  1  0.27365000  0.71920371  0.09157344  1
  O  O17  1  0.27372863  0.72447267  0.20802637  1
  O  O18  1  0.27372863  0.72447267  0.29197363  1
  O  O19  1  0.27365000  0.71920371  0.40842656  1
  O  O20  1  0.27226352  0.72379197  0.60841408  1
  O  O21  1  0.27399100  0.72268108  0.80887467  1
  O  O22  1  0.27703542  0.71448894  0.49084142  1
  O  O23  1  0.27226352  0.72379197  0.89158592  1
  O  O24  1  0.27399100  0.72268108  0.69112533  1
  O  O25  1  0.47883797  0.09138947  0.05000866  1
  O  O26  1  0.48440098  0.08093206  0.64973717  1
  O  O27  1  0.47558601  0.08670048  0.25000000  1
  O  O28  1  0.47883797  0.09138947  0.44999134  1
  O  O29  1  0.48440098  0.08093206  0.85026283  1
  O  O30  1  0.51438578  0.91873868  0.34994503  1
  O  O31  1  0.51438578  0.91873868  0.15005497  1
  O  O32  1  0.52421262  0.91355224  0.54961518  1
  O  O33  1  0.52474745  0.91431524  0.75000000  1
  O  O34  1  0.52421262  0.91355224  0.95038482  1
  O  O35  1  0.73084137  0.27323305  0.10892960  1
  O  O36  1  0.72472853  0.27872056  0.30870946  1
  O  O37  1  0.72472853  0.27872056  0.19129054  1
  O  O38  1  0.73084137  0.27323305  0.39107040  1
  O  O39  1  0.72857493  0.27611145  0.50814350  1
  O  O40  1  0.72624563  0.27946486  0.59170524  1
  O  O41  1  0.72613444  0.27742788  0.70790798  1
  O  O42  1  0.72624563  0.27946486  0.90829476  1
  O  O43  1  0.72613444  0.27742788  0.79209202  1
  O  O44  1  0.72857493  0.27611145  0.99185650  1
  O  O45  1  0.77833466  0.77184405  0.00869666  1
  O  O46  1  0.77848600  0.77392608  0.09224199  1
  O  O47  1  0.77816601  0.77604535  0.20851138  1
  O  O48  1  0.77816601  0.77604535  0.29148862  1
  O  O49  1  0.77848600  0.77392608  0.40775801  1
  O  O50  1  0.77833466  0.77184405  0.49130334  1
  O  O51  1  0.77528497  0.77091658  0.60875901  1
  O  O52  1  0.77490470  0.77027860  0.69085465  1
  O  O53  1  0.77490470  0.77027860  0.80914535  1
  O  O54  1  0.77528497  0.77091658  0.89124099  1
  O  O55  1  0.98913759  0.41822946  0.25000000  1
  O  O56  1  0.98155278  0.42601479  0.05010136  1
  O  O57  1  0.99150137  0.42668675  0.64971159  1
  O  O58  1  0.98155278  0.42601479  0.44989864  1
  O  O59  1  0.99150137  0.42668675  0.85028841  1
loop_
_geom_bond_atom_site_label_1
_geom_bond_atom_site_label_2
_geom_bond_distance
_geom_bond_site_symmetry_2
Ca0 O55 2.400692 1_465
Ca0 O48 2.478373 1_455
Ca0 O47 2.478373 1_455
Ca0 O27 2.492705 1_565
Ca0 O18 2.579823 1_555
Ca0 O17 2.579823 1_555
Ca0 O6 2.865409 1_565
Ca0 O7 2.865409 1_565
Ca1 O25 2.350749 1_555
Ca1 O15 2.411536 1_555
Ca1 O16 2.477812 1_555
Ca1 O56 2.554531 1_555
Ca1 O45 2.562983 1_555
Ca1 O46 2.616078 1_555
Ca1 O44 2.838490 1_554
Ca1 O35 2.904258 1_555
Ca2 O28 2.350749 1_555
Ca2 O22 2.411536 1_555
Ca2 O19 2.477812 1_555
Ca2 O58 2.554531 1_555
Ca2 O50 2.562983 1_555
Ca2 O49 2.616078 1_555
Ca2 O39 2.838490 1_555
Ca2 O38 2.904258 1_555
Ca3 O2 2.401750 1_645
Ca3 O9 2.429794 1_655
Ca3 O32 2.489888 1_545
Ca3 O10 2.508613 1_655
Ca3 O39 2.549186 1_555
Ca3 O40 2.604064 1_555
Ca3 O50 2.818587 1_545
Ca3 O51 2.881384 1_545
Ca4 O3 2.401581 1_645
Ca4 O11 2.481000 1_655
Ca4 O12 2.481000 1_655
Ca4 O33 2.494927 1_545
Ca4 O43 2.589007 1_555
Ca4 O41 2.589007 1_555
Ca4 O53 2.874525 1_545
Ca4 O52 2.874525 1_545
Ca5 O4 2.401750 1_645
Ca5 O14 2.429794 1_655
Ca5 O34 2.489888 1_545
Ca5 O13 2.508613 1_655
Ca5 O44 2.549186 1_555
Ca5 O42 2.604064 1_555
Ca5 O45 2.818587 1_546
Ca5 O54 2.881384 1_545
La0 O56 2.422848 1_465
La0 O45 2.442789 1_455
La0 O46 2.530212 1_455
La0 O25 2.543624 1_565
La0 O15 2.592873 1_555
La0 O16 2.650098 1_555
La0 O14 2.768690 1_564
La0 O5 2.875376 1_565
La0 O25 3.126444 1_465
La0 O56 3.178288 1_455
La0 O44 3.210421 1_464
La0 O35 3.292228 1_465
La1 O58 2.422848 1_465
La1 O50 2.442789 1_455
La1 O49 2.530212 1_455
La1 O28 2.543624 1_565
La1 O22 2.592873 1_555
La1 O19 2.650098 1_555
La1 O9 2.768690 1_565
La1 O8 2.875376 1_565
La1 O28 3.126444 1_465
La1 O58 3.178288 1_455
La1 O39 3.210421 1_465
La1 O38 3.292228 1_465
La2 O57 2.422146 1_465
La2 O51 2.459280 1_455
La2 O52 2.472343 1_455
La2 O26 2.590274 1_565
La2 O20 2.600523 1_555
La2 O24 2.616988 1_555
La2 O10 2.845506 1_565
La2 O11 2.861117 1_565
La3 O59 2.422146 1_465
La3 O54 2.459280 1_455
La3 O53 2.472343 1_455
La3 O29 2.590274 1_565
La3 O23 2.600523 1_555
La3 O21 2.616988 1_555
La3 O13 2.845506 1_565
La3 O12 2.861117 1_565
La4 O30 2.380033 1_555
La4 O38 2.453083 1_555
La4 O36 2.472430 1_555
La4 O8 2.599876 1_555
La4 O7 2.604108 1_555
La4 O1 2.630593 1_555
La4 O19 2.820699 1_555
La4 O18 2.880065 1_555
La4 O1 3.004166 1_655
La4 O49 3.198744 1_555
La4 O30 3.209124 1_545
La4 O48 3.276179 1_555
La5 O31 2.380033 1_555
La5 O35 2.453083 1_555
La5 O37 2.472430 1_555
La5 O5 2.599876 1_555
La5 O6 2.604108 1_555
La5 O0 2.630593 1_555
La5 O16 2.820699 1_555
La5 O17 2.880065 1_555
La5 O0 3.004166 1_655
La5 O46 3.198744 1_555
La5 O31 3.209124 1_545
La5 O47 3.276179 1_555
La6 O32 2.356326 1_555
La6 O39 2.431536 1_555
La6 O40 2.509046 1_555
La6 O9 2.607197 1_555
La6 O2 2.631838 1_555
La6 O10 2.654837 1_555
La6 O22 2.796320 1_555
La6 O20 2.925149 1_555
La6 O2 3.021218 1_655
La7 O33 2.359051 1_555
La7 O41 2.471641 1_555
La7 O43 2.471641 1_555
La7 O11 2.620525 1_555
La7 O12 2.620525 1_555
La7 O3 2.647862 1_555
La7 O24 2.875766 1_555
La7 O21 2.875766 1_555
La8 O34 2.356326 1_555
La8 O44 2.431536 1_555
La8 O42 2.509046 1_555
La8 O14 2.607197 1_555
La8 O4 2.631838 1_555
La8 O13 2.654837 1_555
La8 O15 2.796320 1_556
La8 O23 2.925149 1_555
La8 O4 3.021218 1_655
La9 O27 2.361181 1_555
La9 O18 2.475528 1_555
La9 O17 2.475528 1_555
La9 O48 2.618832 1_555
La9 O47 2.618832 1_555
La9 O55 2.637838 1_555
La9 O37 2.864039 1_555
La9 O36 2.864039 1_555
La10 O26 2.381172 1_555
La10 O20 2.459017 1_555
La10 O24 2.471299 1_555
La10 O51 2.573807 1_555
La10 O52 2.592205 1_555
La10 O57 2.634961 1_555
La10 O40 2.826717 1_555
La10 O41 2.859263 1_555
La10 O57 3.000182 1_455
La11 O29 2.381172 1_555
La11 O23 2.459017 1_555
La11 O21 2.471299 1_555
La11 O54 2.573807 1_555
La11 O53 2.592205 1_555
La11 O59 2.634961 1_555
La11 O42 2.826717 1_555
La11 O43 2.859263 1_555
La11 O59 3.000182 1_455
La12 O0 2.421894 1_645
La12 O5 2.463445 1_655
La12 O6 2.466351 1_655
La12 O35 2.590709 1_555
La12 O31 2.590736 1_545
La12 O37 2.608207 1_555
La12 O47 2.823781 1_545
La13 O1 2.421894 1_645
La13 O8 2.463445 1_655
La13 O7 2.466351 1_655
La13 O38 2.590709 1_555
La13 O30 2.590736 1_545
La13 O36 2.608207 1_555
La13 O48 2.823781 1_545
Cr0 O25 1.999135 1_565
Cr0 O46 2.019029 1_555
Cr0 O35 2.022900 1_565
Cr0 O16 2.025481 1_555
Cr0 O5 2.033488 1_565
Cr0 O31 2.049829 1_555
Cr1 O28 2.019879 1_565
Cr1 O39 2.021733 1_565
Cr1 O32 2.022483 1_555
Cr1 O50 2.028603 1_555
Cr1 O9 2.035938 1_565
Cr1 O22 2.038174 1_555
Cr2 O27 2.003532 1_555
Cr2 O18 2.005235 1_545
Cr2 O36 2.018002 1_555
Cr2 O48 2.024470 1_545
Cr2 O7 2.026276 1_555
Cr2 O30 2.035913 1_545
Cr3 O25 2.019879 1_565
Cr3 O44 2.021733 1_564
Cr3 O34 2.022483 1_554
Cr3 O45 2.028603 1_555
Cr3 O14 2.035938 1_564
Cr3 O15 2.038174 1_555
Cr4 O33 2.009904 1_555
Cr4 O41 2.010305 1_565
Cr4 O24 2.019287 1_555
Cr4 O11 2.027088 1_565
Cr4 O52 2.033237 1_555
Cr4 O26 2.040470 1_565
Cr5 O34 1.999142 1_545
Cr5 O42 2.016909 1_555
Cr5 O23 2.022972 1_545
Cr5 O13 2.025136 1_555
Cr5 O54 2.035771 1_545
Cr5 O29 2.046754 1_555
Cr6 O27 2.003532 1_555
Cr6 O17 2.005235 1_545
Cr6 O37 2.018002 1_555
Cr6 O47 2.024470 1_545
Cr6 O6 2.026276 1_555
Cr6 O31 2.035913 1_545
Cr7 O28 1.999135 1_565
Cr7 O49 2.019029 1_555
Cr7 O38 2.022900 1_565
Cr7 O19 2.025481 1_555
Cr7 O8 2.033488 1_565
Cr7 O30 2.049829 1_555
Cr8 O32 1.999142 1_545
Cr8 O40 2.016909 1_555
Cr8 O20 2.022972 1_545
Cr8 O10 2.025136 1_555
Cr8 O51 2.035771 1_545
Cr8 O26 2.046754 1_555
Cr9 O33 2.009904 1_555
Cr9 O43 2.010305 1_565
Cr9 O21 2.019287 1_555
Cr9 O12 2.027088 1_565
Cr9 O53 2.033237 1_555
Cr9 O29 2.040470 1_565
O0 Ti0 2.045721 1_455
O0 Ti5 2.046167 1_455
O1 Ti1 2.045721 1_455
O1 Ti6 2.046167 1_455
O2 Ti9 1.966395 1_555
O2 Ti7 2.002984 1_455
O3 Ti8 1.982702 1_555
O3 Ti2 1.982702 1_555
O4 Ti3 1.966395 1_555
O4 Ti4 2.002984 1_455
O5 Ti0 2.019424 1_455
O6 Ti5 2.008869 1_455
O7 Ti6 2.008869 1_455
O8 Ti1 2.019424 1_455
O9 Ti7 2.006198 1_455
O10 Ti9 1.973444 1_555
O11 Ti8 1.983334 1_555
O12 Ti2 1.983334 1_555
O13 Ti3 1.973444 1_555
O14 Ti4 2.006198 1_455
O15 Ti4 1.982901 1_454
O16 Ti0 1.964589 1_455
O17 Ti5 1.979553 1_455
O18 Ti6 1.979553 1_455
O19 Ti1 1.964589 1_455
O20 Ti9 1.998247 1_555
O21 Ti2 1.995835 1_555
O22 Ti7 1.982901 1_455
O23 Ti3 1.998247 1_555
O24 Ti8 1.995835 1_555
O35 Ti0 1.997279 1_555
O36 Ti6 2.002946 1_555
O37 Ti5 2.002946 1_555
O38 Ti1 1.997279 1_555
O39 Ti7 1.974991 1_555
O40 Ti9 1.967548 1_655
O41 Ti8 1.980493 1_655
O42 Ti3 1.967548 1_655
O43 Ti2 1.980493 1_655
O44 Ti4 1.974991 1_555
O45 Ti4 1.990013 1_554
O46 Ti0 1.975424 1_555
O47 Ti5 1.991320 1_555
O48 Ti6 1.991320 1_555
O49 Ti1 1.975424 1_555
O50 Ti7 1.990013 1_555
O51 Ti9 2.017025 1_655
O52 Ti8 2.009469 1_655
O53 Ti2 2.009469 1_655
O54 Ti3 2.017025 1_655
O55 Ti5 1.978957 1_555
O55 Ti6 1.978957 1_555
O56 Ti0 1.958662 1_555
O56 Ti4 2.012629 1_554
O57 Ti8 2.049932 1_655
O57 Ti9 2.056839 1_655
O58 Ti1 1.958662 1_555
O58 Ti7 2.012629 1_555
O59 Ti2 2.049932 1_655
O59 Ti3 2.056839 1_655
