# generated using pymatgen
data_Li2MnV2O6
_symmetry_space_group_name_H-M   'P 1'
_cell_length_a   5.92326500
_cell_length_b   6.59936892
_cell_length_c   6.83021497
_cell_angle_alpha   72.34748064
_cell_angle_beta   76.43063810
_cell_angle_gamma   64.46541024
_symmetry_Int_Tables_number   1
_chemical_formula_structural   Li2MnV2O6
_chemical_formula_sum   'Li4 Mn2 V4 O12'
_cell_volume   227.88714042
_cell_formula_units_Z   2
loop_
 _symmetry_equiv_pos_site_id
 _symmetry_equiv_pos_as_xyz
  1  'x, y, z'
loop_
 _atom_site_type_symbol
 _atom_site_label
 _atom_site_symmetry_multiplicity
 _atom_site_fract_x
 _atom_site_fract_y
 _atom_site_fract_z
 _atom_site_occupancy
  Li  Li0  1  0.74905800  0.49654100  0.50017500  1
  Li  Li1  1  0.25094200  0.50345900  0.49982500  1
  Li  Li2  1  0.91389700  0.84550500  0.16121500  1
  Li  Li3  1  0.08610300  0.15449500  0.83878500  1
  Mn  Mn0  1  0.50000000  0.00000000  0.50000000  1
  Mn  Mn1  1  0.00000000  0.00000000  0.50000000  1
  V  V0  1  0.66990900  0.34273600  0.16351400  1
  V  V1  1  0.18059700  0.31626400  0.15823200  1
  V  V2  1  0.81940300  0.68373600  0.84176800  1
  V  V3  1  0.33009100  0.65726400  0.83648600  1
  O  O0  1  0.63918700  0.24516100  0.46880600  1
  O  O1  1  0.11821000  0.23950900  0.47989000  1
  O  O2  1  0.81122800  0.55641500  0.16089300  1
  O  O3  1  0.30902900  0.56120900  0.14703600  1
  O  O4  1  0.36081300  0.75483900  0.53119400  1
  O  O5  1  0.88179000  0.76049100  0.52011000  1
  O  O6  1  0.54090100  0.10196200  0.19637100  1
  O  O7  1  0.01696000  0.10910600  0.15776400  1
  O  O8  1  0.69097100  0.43879100  0.85296400  1
  O  O9  1  0.18877200  0.44358500  0.83910700  1
  O  O10  1  0.45909900  0.89803800  0.80362900  1
  O  O11  1  0.98304000  0.89089400  0.84223600  1
loop_
_geom_bond_atom_site_label_1
_geom_bond_atom_site_label_2
_geom_bond_distance
_geom_bond_site_symmetry_2
Li0 O0 2.105545 1_555
Li0 O1 2.116700 1_655
Li0 O2 2.198090 1_555
Li0 O4 2.202265 1_555
Li0 O5 2.246247 1_555
Li0 O8 2.288443 1_555
Li1 O4 2.105545 1_555
Li1 O5 2.116700 1_455
Li1 O9 2.198090 1_555
Li1 O0 2.202265 1_555
Li1 O1 2.246247 1_555
Li1 O3 2.288443 1_555
Li2 O7 2.069627 1_665
Li2 O11 2.072543 1_554
Li2 O6 2.139440 1_565
Li2 O2 2.238969 1_555
Li2 O3 2.285915 1_655
Li2 O5 2.323593 1_555
Li3 O11 2.069627 1_445
Li3 O7 2.072543 1_556
Li3 O10 2.139440 1_545
Li3 O9 2.238969 1_555
Li3 O8 2.285915 1_455
Li3 O1 2.323593 1_555
Mn0 O6 1.967429 1_555
Mn0 O10 1.967429 1_545
Mn0 O4 2.049678 1_545
Mn0 O0 2.049678 1_555
Mn0 O5 2.136310 1_545
Mn0 O1 2.136310 1_555
Mn1 O1 1.945449 1_555
Mn1 O5 1.945449 1_445
Mn1 O4 2.062577 1_545
Mn1 O0 2.062577 1_455
Mn1 O11 2.219018 1_445
Mn1 O7 2.219018 1_555
O0 V0 1.975975 1_555
O1 V1 2.079757 1_555
O2 V0 1.919585 1_555
O2 V1 2.075653 1_655
O2 V2 2.081873 1_554
O3 V0 2.004542 1_555
O3 V3 2.011242 1_554
O3 V1 2.038497 1_555
O4 V3 1.975975 1_555
O5 V2 2.079757 1_555
O6 V0 1.977146 1_555
O6 V1 2.014458 1_555
O7 V0 1.967468 1_455
O7 V1 1.988709 1_555
O8 V3 2.004542 1_555
O8 V0 2.011242 1_556
O8 V2 2.038497 1_555
O9 V3 1.919585 1_555
O9 V2 2.075653 1_455
O9 V1 2.081873 1_556
O10 V3 1.977146 1_555
O10 V2 2.014458 1_555
O11 V3 1.967468 1_655
O11 V2 1.988709 1_555
