# generated using pymatgen
data_Na2NiO2
_symmetry_space_group_name_H-M   'P 1'
_cell_length_a   5.52341800
_cell_length_b   5.52341800
_cell_length_c   5.52341800
_cell_angle_alpha   149.88702553
_cell_angle_beta   131.34169245
_cell_angle_gamma   58.29229922
_symmetry_Int_Tables_number   1
_chemical_formula_structural   Na2NiO2
_chemical_formula_sum   'Na2 Ni1 O2'
_cell_volume   63.00168714
_cell_formula_units_Z   1
loop_
 _symmetry_equiv_pos_site_id
 _symmetry_equiv_pos_as_xyz
  1  'x, y, z'
loop_
 _atom_site_type_symbol
 _atom_site_label
 _atom_site_symmetry_multiplicity
 _atom_site_fract_x
 _atom_site_fract_y
 _atom_site_fract_z
 _atom_site_occupancy
  Na  Na0  1  0.32114200  0.32114200  0.00000000  1
  Na  Na1  1  0.67885800  0.67885800  0.00000000  1
  Ni  Ni0  1  0.00000000  0.00000000  0.00000000  1
  O  O0  1  0.13078400  0.63078400  0.50000000  1
  O  O1  1  0.86921600  0.36921600  0.50000000  1
loop_
_geom_bond_atom_site_label_1
_geom_bond_atom_site_label_2
_geom_bond_distance
_geom_bond_site_symmetry_2
Na0 O1 2.322317 1_555
Na0 O1 2.322317 1_454
Na0 O0 2.330620 1_544
Na0 O0 2.330620 1_555
Na1 O0 2.322317 1_655
Na1 O0 2.322317 1_554
Na1 O1 2.330620 1_554
Na1 O1 2.330620 1_565
Ni0 O0 1.910733 1_544
Ni0 O0 1.910733 1_555
Ni0 O1 1.910733 1_455
Ni0 O1 1.910733 1_444
