# generated using pymatgen
data_Mn3OF6
_symmetry_space_group_name_H-M   'P 1'
_cell_length_a   6.62645630
_cell_length_b   5.94582585
_cell_length_c   8.08164473
_cell_angle_alpha   106.44800867
_cell_angle_beta   70.21554820
_cell_angle_gamma   95.01076592
_symmetry_Int_Tables_number   1
_chemical_formula_structural   Mn3OF6
_chemical_formula_sum   'Mn6 O2 F12'
_cell_volume   287.34558970
_cell_formula_units_Z   2
loop_
 _symmetry_equiv_pos_site_id
 _symmetry_equiv_pos_as_xyz
  1  'x, y, z'
loop_
 _atom_site_type_symbol
 _atom_site_label
 _atom_site_symmetry_multiplicity
 _atom_site_fract_x
 _atom_site_fract_y
 _atom_site_fract_z
 _atom_site_occupancy
  Mn  Mn0  1  0.28117000  0.35485700  0.06568600  1
  Mn  Mn1  1  0.14607000  0.92953600  0.78143700  1
  Mn  Mn2  1  0.43172300  0.77984900  0.35163700  1
  Mn  Mn3  1  0.56827700  0.22015100  0.64836300  1
  Mn  Mn4  1  0.85393000  0.07046400  0.21856300  1
  Mn  Mn5  1  0.71883000  0.64514300  0.93431400  1
  O  O0  1  0.61060100  0.90090200  0.15128400  1
  O  O1  1  0.38939900  0.09909800  0.84871600  1
  F  F0  1  0.01267700  0.76957700  0.99515800  1
  F  F1  1  0.19027900  0.65224700  0.25378500  1
  F  F2  1  0.13786800  0.16755400  0.24535500  1
  F  F3  1  0.30503200  0.65993400  0.56384600  1
  F  F4  1  0.30513700  0.09484800  0.55863600  1
  F  F5  1  0.56776300  0.45776100  0.12800300  1
  F  F6  1  0.43223700  0.54223900  0.87199700  1
  F  F7  1  0.69486300  0.90515200  0.44136400  1
  F  F8  1  0.69496800  0.34006600  0.43615400  1
  F  F9  1  0.86213200  0.83244600  0.75464500  1
  F  F10  1  0.80972100  0.34775300  0.74621500  1
  F  F11  1  0.98732300  0.23042300  0.00484200  1
loop_
_geom_bond_atom_site_label_1
_geom_bond_atom_site_label_2
_geom_bond_distance
_geom_bond_site_symmetry_2
Mn0 O1 1.931506 1_554
Mn1 O1 1.977635 1_565
Mn2 O0 1.938161 1_555
Mn3 O1 1.938161 1_555
Mn4 O0 1.977635 1_545
Mn5 O0 1.931506 1_556
F0 Mn1 2.102150 1_555
F0 Mn5 2.184290 1_455
F0 Mn4 2.186504 1_466
F1 Mn0 1.960687 1_555
F1 Mn2 2.016293 1_555
F2 Mn4 1.983799 1_455
F2 Mn0 2.011946 1_555
F3 Mn2 1.941025 1_555
F3 Mn1 2.053337 1_555
F4 Mn3 2.108183 1_555
F4 Mn2 2.135469 1_545
F4 Mn1 2.203573 1_545
F5 Mn5 2.103721 1_554
F5 Mn0 2.122394 1_555
F5 Mn2 2.232758 1_555
F6 Mn0 2.103721 1_556
F6 Mn5 2.122394 1_555
F6 Mn3 2.232758 1_555
F7 Mn2 2.108183 1_555
F7 Mn3 2.135469 1_565
F7 Mn4 2.203573 1_565
F8 Mn3 1.941025 1_555
F8 Mn4 2.053337 1_555
F9 Mn1 1.983799 1_655
F9 Mn5 2.011946 1_555
F10 Mn5 1.960687 1_555
F10 Mn3 2.016293 1_555
F11 Mn4 2.102150 1_555
F11 Mn0 2.184290 1_655
F11 Mn1 2.186504 1_644
