# generated using pymatgen
data_BaAl2(PO5)2
_symmetry_space_group_name_H-M   'P 1'
_cell_length_a   4.97957800
_cell_length_b   6.12097540
_cell_length_c   6.69904667
_cell_angle_alpha   110.70578578
_cell_angle_beta   106.64943446
_cell_angle_gamma   93.11801674
_symmetry_Int_Tables_number   1
_chemical_formula_structural   BaAl2(PO5)2
_chemical_formula_sum   'Ba1 Al2 P2 O10'
_cell_volume   180.20727385
_cell_formula_units_Z   1
loop_
 _symmetry_equiv_pos_site_id
 _symmetry_equiv_pos_as_xyz
  1  'x, y, z'
loop_
 _atom_site_type_symbol
 _atom_site_label
 _atom_site_symmetry_multiplicity
 _atom_site_fract_x
 _atom_site_fract_y
 _atom_site_fract_z
 _atom_site_occupancy
  Ba  Ba0  1  0.00000000  0.00000000  0.00000000  1
  Al  Al0  1  0.31318100  0.35760400  0.73498900  1
  Al  Al1  1  0.68681900  0.64239600  0.26501100  1
  P  P0  1  0.31885800  0.80087800  0.58837200  1
  P  P1  1  0.68114200  0.19912200  0.41162800  1
  O  O0  1  0.59671500  0.74575300  0.53485200  1
  O  O1  1  0.40328500  0.25424700  0.46514800  1
  O  O2  1  0.07343900  0.76711500  0.37342900  1
  O  O3  1  0.92656100  0.23288500  0.62657100  1
  O  O4  1  0.38756700  0.06156600  0.76678900  1
  O  O5  1  0.61243300  0.93843400  0.23321100  1
  O  O6  1  0.23718000  0.65056800  0.71190900  1
  O  O7  1  0.76282000  0.34943200  0.28809100  1
  O  O8  1  0.67315700  0.52458300  0.95151500  1
  O  O9  1  0.32684300  0.47541700  0.04848500  1
loop_
_geom_bond_atom_site_label_1
_geom_bond_atom_site_label_2
_geom_bond_distance
_geom_bond_site_symmetry_2
Ba0 O7 2.890719 1_455
Ba0 O6 2.890719 1_544
Ba0 O4 2.893493 1_554
Ba0 O5 2.893493 1_445
Ba0 O0 2.968087 1_444
Ba0 O1 2.968087 1_555
Ba0 O4 3.113574 1_454
Ba0 O5 3.113574 1_545
Ba0 O8 3.120265 1_444
Ba0 O9 3.120265 1_555
Ba0 O3 3.236971 1_454
Ba0 O2 3.236971 1_545
Al0 O3 1.861046 1_455
Al0 O1 1.885789 1_555
Al0 O6 1.902405 1_555
Al0 O8 1.903733 1_555
Al0 O4 1.940837 1_555
Al0 O9 1.943460 1_556
Al1 O2 1.861046 1_655
Al1 O0 1.885789 1_555
Al1 O7 1.902405 1_555
Al1 O9 1.903733 1_555
Al1 O5 1.940837 1_555
Al1 O8 1.943460 1_554
O0 P0 1.551219 1_555
O1 P1 1.551219 1_555
O2 P0 1.537298 1_555
O3 P1 1.537298 1_555
O4 P0 1.565058 1_545
O5 P1 1.565058 1_565
O6 P0 1.545117 1_555
O7 P1 1.545117 1_555
