# generated using pymatgen
data_V4O7F5
_symmetry_space_group_name_H-M   'P 1'
_cell_length_a   5.23917100
_cell_length_b   5.32672773
_cell_length_c   9.03579160
_cell_angle_alpha   74.11156390
_cell_angle_beta   74.81824501
_cell_angle_gamma   61.75586091
_symmetry_Int_Tables_number   1
_chemical_formula_structural   V4O7F5
_chemical_formula_sum   'V4 O7 F5'
_cell_volume   211.03578888
_cell_formula_units_Z   1
loop_
 _symmetry_equiv_pos_site_id
 _symmetry_equiv_pos_as_xyz
  1  'x, y, z'
loop_
 _atom_site_type_symbol
 _atom_site_label
 _atom_site_symmetry_multiplicity
 _atom_site_fract_x
 _atom_site_fract_y
 _atom_site_fract_z
 _atom_site_occupancy
  V  V0  1  0.21145900  0.26053900  0.26868500  1
  V  V1  1  0.45744500  0.51148600  0.49615300  1
  V  V2  1  0.70460200  0.74514000  0.76018100  1
  V  V3  1  0.95804700  0.02124900  0.02020100  1
  O  O0  1  0.11668300  0.64735100  0.58646100  1
  O  O1  1  0.09457800  0.08032300  0.15185300  1
  O  O2  1  0.60128100  0.15637300  0.08485900  1
  O  O3  1  0.60894600  0.59383300  0.65661700  1
  O  O4  1  0.42766800  0.40522300  0.34110000  1
  O  O5  1  0.42471200  0.83891800  0.90235800  1
  O  O6  1  0.92441200  0.34106300  0.40830400  1
  F  F0  1  0.05079500  0.62182000  0.11303700  1
  F  F1  1  0.46269300  0.87238000  0.37751700  1
  F  F2  1  0.57432500  0.12261200  0.62440200  1
  F  F3  1  0.95555200  0.37485500  0.87419600  1
  F  F4  1  0.92680000  0.90683500  0.83407600  1
loop_
_geom_bond_atom_site_label_1
_geom_bond_atom_site_label_2
_geom_bond_distance
_geom_bond_site_symmetry_2
O0 V1 1.647543 1_555
O0 V2 2.237122 1_455
O1 V3 1.699840 1_455
O1 V0 1.964885 1_555
O2 V3 1.654721 1_555
O2 V0 2.212078 1_555
O3 V2 1.678487 1_555
O3 V1 2.050664 1_555
O4 V1 1.714605 1_555
O4 V0 1.948289 1_555
O5 V2 1.649738 1_555
O5 V3 2.238312 1_466
O6 V0 1.652046 1_655
O6 V1 2.171408 1_555
F0 V3 1.929880 1_465
F0 V0 1.998741 1_555
F1 V1 1.936933 1_555
F1 V0 1.990853 1_565
F2 V2 1.950119 1_545
F2 V1 1.966088 1_555
F3 V2 1.955196 1_555
F3 V3 1.978285 1_556
F4 V3 2.006608 1_566
F4 V2 2.052770 1_555
