# generated using pymatgen
data_TiNb2O7
_symmetry_space_group_name_H-M   'P 1'
_cell_length_a   7.67666000
_cell_length_b   10.56089120
_cell_length_c   11.46526170
_cell_angle_alpha   66.87256091
_cell_angle_beta   80.36574825
_cell_angle_gamma   79.52607849
_symmetry_Int_Tables_number   1
_chemical_formula_structural   TiNb2O7
_chemical_formula_sum   'Ti6 Nb12 O42'
_cell_volume   835.82539994
_cell_formula_units_Z   6
loop_
 _symmetry_equiv_pos_site_id
 _symmetry_equiv_pos_as_xyz
  1  'x, y, z'
loop_
 _atom_site_type_symbol
 _atom_site_label
 _atom_site_symmetry_multiplicity
 _atom_site_fract_x
 _atom_site_fract_y
 _atom_site_fract_z
 _atom_site_occupancy
  Ti  Ti0  1  0.40849800  0.36867400  0.00228800  1
  Ti  Ti1  1  0.54121800  0.47881100  0.35951100  1
  Ti  Ti2  1  0.64638000  0.78058500  0.63677900  1
  Ti  Ti3  1  0.14468100  0.79106200  0.62738300  1
  Ti  Ti4  1  0.85203900  0.21846400  0.37309200  1
  Ti  Ti5  1  0.05676100  0.14443600  0.62717800  1
  Nb  Nb0  1  0.94260900  0.85931900  0.36710100  1
  Nb  Nb1  1  0.44848800  0.83940400  0.37109700  1
  Nb  Nb2  1  0.90458800  0.35970700  0.01603700  1
  Nb  Nb3  1  0.03762800  0.48163500  0.36106200  1
  Nb  Nb4  1  0.00290700  0.00409400  0.98407100  1
  Nb  Nb5  1  0.49745500  0.01126500  0.99889400  1
  Nb  Nb6  1  0.35483100  0.21642400  0.36481700  1
  Nb  Nb7  1  0.96102300  0.51903300  0.64017200  1
  Nb  Nb8  1  0.45963700  0.51923900  0.63952000  1
  Nb  Nb9  1  0.59036100  0.63619200  0.99772700  1
  Nb  Nb10  1  0.09663400  0.63489500  0.98465700  1
  Nb  Nb11  1  0.55746000  0.14397700  0.62961200  1
  O  O0  1  0.97326800  0.91235800  0.19632600  1
  O  O1  1  0.47296600  0.90876900  0.19760700  1
  O  O2  1  0.85450400  0.58301400  0.99733900  1
  O  O3  1  0.35584900  0.58158400  0.99708100  1
  O  O4  1  0.56428400  0.55297000  0.19041900  1
  O  O5  1  0.06374900  0.55564800  0.18735200  1
  O  O6  1  0.68621000  0.83411200  0.41883100  1
  O  O7  1  0.18657800  0.83421700  0.42175100  1
  O  O8  1  0.95174400  0.18616600  0.00657900  1
  O  O9  1  0.45025000  0.19222500  0.00657000  1
  O  O10  1  0.60535200  0.96682600  0.61117200  1
  O  O11  1  0.10501800  0.96911400  0.61174400  1
  O  O12  1  0.98695000  0.63638000  0.41385800  1
  O  O13  1  0.48903300  0.63187700  0.41292700  1
  O  O14  1  0.87687800  0.29461500  0.19967500  1
  O  O15  1  0.37803400  0.29635600  0.19079300  1
  O  O16  1  0.75016900  0.99653100  0.00404600  1
  O  O17  1  0.24946200  0.99739700  0.00343100  1
  O  O18  1  0.91282400  0.75175300  0.59858600  1
  O  O19  1  0.41261100  0.75041400  0.59772100  1
  O  O20  1  0.79712400  0.42631600  0.37652300  1
  O  O21  1  0.30094000  0.42704300  0.37620100  1
  O  O22  1  0.69966100  0.57715600  0.62245200  1
  O  O23  1  0.20138300  0.57472000  0.62206000  1
  O  O24  1  0.58773100  0.24947000  0.40370900  1
  O  O25  1  0.08565600  0.25007300  0.40317900  1
  O  O26  1  0.62250000  0.70450000  0.80547600  1
  O  O27  1  0.12313700  0.70559300  0.80230500  1
  O  O28  1  0.51241600  0.36622700  0.58660500  1
  O  O29  1  0.01123500  0.36674000  0.58581300  1
  O  O30  1  0.89317500  0.03693600  0.38845300  1
  O  O31  1  0.39560000  0.02862300  0.39049600  1
  O  O32  1  0.54670300  0.81315100  0.99487200  1
  O  O33  1  0.04986800  0.80901800  0.99631100  1
  O  O34  1  0.81524200  0.16632200  0.57991700  1
  O  O35  1  0.31128700  0.16591400  0.58179500  1
  O  O36  1  0.93608900  0.44320300  0.81350200  1
  O  O37  1  0.43556100  0.44315100  0.81431900  1
  O  O38  1  0.64446000  0.41263600  0.00406200  1
  O  O39  1  0.14645800  0.41478100  0.00370700  1
  O  O40  1  0.02706100  0.08933000  0.79889400  1
  O  O41  1  0.52778300  0.08955300  0.80454800  1
loop_
_geom_bond_atom_site_label_1
_geom_bond_atom_site_label_2
_geom_bond_distance
_geom_bond_site_symmetry_2
Nb0 O0 1.798602 1_555
Nb0 O30 1.947658 1_565
Nb0 O6 1.993118 1_555
Nb0 O7 2.013032 1_655
Nb0 O12 2.173662 1_555
Nb0 O18 2.430959 1_555
Nb1 O1 1.819006 1_555
Nb1 O6 1.976393 1_555
Nb1 O7 2.001746 1_555
Nb1 O13 2.026462 1_555
Nb1 O31 2.057070 1_565
Nb1 O19 2.376258 1_555
Nb2 O8 1.844867 1_555
Nb2 O14 1.927963 1_555
Nb2 O38 1.986107 1_555
Nb2 O39 2.011469 1_655
Nb2 O36 2.123514 1_554
Nb2 O2 2.248606 1_554
Nb3 O5 1.821585 1_555
Nb3 O12 1.911974 1_455
Nb3 O20 1.995670 1_455
Nb3 O21 2.015818 1_555
Nb3 O25 2.270178 1_555
Nb3 O29 2.368935 1_555
Nb4 O17 1.927764 1_546
Nb4 O16 1.927793 1_446
Nb4 O40 1.944184 1_555
Nb4 O33 1.978326 1_545
Nb4 O8 1.999869 1_456
Nb4 O0 2.226053 1_446
Nb5 O9 1.913379 1_556
Nb5 O17 1.926316 1_546
Nb5 O16 1.926832 1_546
Nb5 O41 2.037626 1_555
Nb5 O32 2.074844 1_545
Nb5 O1 2.095473 1_546
Nb6 O15 1.826988 1_555
Nb6 O31 1.861382 1_555
Nb6 O24 2.033015 1_555
Nb6 O25 2.034993 1_555
Nb6 O21 2.238577 1_555
Nb6 O35 2.308468 1_555
Nb7 O36 1.818089 1_555
Nb7 O29 1.898794 1_655
Nb7 O23 1.990969 1_655
Nb7 O22 2.008570 1_555
Nb7 O18 2.283103 1_555
Nb7 O12 2.387243 1_555
Nb8 O37 1.833381 1_555
Nb8 O28 1.895603 1_555
Nb8 O23 1.982969 1_555
Nb8 O22 2.000642 1_555
Nb8 O19 2.266903 1_555
Nb8 O13 2.385159 1_555
Nb9 O32 1.825889 1_555
Nb9 O3 1.989701 1_555
Nb9 O2 2.003008 1_555
Nb9 O26 2.018263 1_555
Nb9 O4 2.020889 1_556
Nb9 O38 2.295809 1_556
Nb10 O33 1.861506 1_555
Nb10 O27 1.912209 1_555
Nb10 O3 1.980289 1_555
Nb10 O2 1.998381 1_455
Nb10 O5 2.125438 1_556
Nb10 O39 2.214411 1_556
Nb11 O41 1.842312 1_555
Nb11 O10 1.927343 1_545
Nb11 O34 1.995784 1_555
Nb11 O35 2.003336 1_555
Nb11 O28 2.173632 1_555
Nb11 O24 2.372639 1_555
O3 Ti0 2.189742 1_556
O4 Ti1 1.773697 1_555
O6 Ti2 2.314012 1_555
O7 Ti3 2.196579 1_555
O9 Ti0 1.814901 1_555
O10 Ti2 1.845555 1_555
O11 Ti3 1.790522 1_555
O11 Ti5 1.892846 1_565
O13 Ti1 1.899685 1_555
O14 Ti4 1.819093 1_555
O15 Ti0 1.976897 1_555
O18 Ti3 2.005583 1_655
O18 Ti2 2.011625 1_555
O19 Ti3 2.022358 1_555
O19 Ti2 2.027682 1_555
O20 Ti1 1.962652 1_555
O20 Ti4 2.173379 1_555
O21 Ti1 1.975888 1_555
O22 Ti2 2.178328 1_555
O23 Ti3 2.269891 1_555
O24 Ti4 1.989381 1_555
O24 Ti1 2.243338 1_555
O25 Ti4 1.990452 1_455
O25 Ti5 2.353309 1_555
O26 Ti2 1.770375 1_555
O27 Ti3 1.839955 1_555
O28 Ti1 2.390145 1_555
O29 Ti5 2.177474 1_555
O30 Ti4 1.827369 1_555
O34 Ti5 1.966380 1_655
O34 Ti4 2.193781 1_555
O35 Ti5 1.966743 1_555
O37 Ti0 1.970860 1_556
O38 Ti0 1.955160 1_555
O39 Ti0 1.980660 1_555
O40 Ti5 1.806837 1_555
