# generated using pymatgen
data_Na3Mn2P2(CO7)2
_symmetry_space_group_name_H-M   'P 1'
_cell_length_a   6.57663800
_cell_length_b   9.02480526
_cell_length_c   10.41287741
_cell_angle_alpha   91.87790742
_cell_angle_beta   90.41630947
_cell_angle_gamma   91.24930091
_symmetry_Int_Tables_number   1
_chemical_formula_structural   Na3Mn2P2(CO7)2
_chemical_formula_sum   'Na6 Mn4 P4 C4 O28'
_cell_volume   617.53577608
_cell_formula_units_Z   2
loop_
 _symmetry_equiv_pos_site_id
 _symmetry_equiv_pos_as_xyz
  1  'x, y, z'
loop_
 _atom_site_type_symbol
 _atom_site_label
 _atom_site_symmetry_multiplicity
 _atom_site_fract_x
 _atom_site_fract_y
 _atom_site_fract_z
 _atom_site_occupancy
  Na  Na0  1  0.02720600  0.24087200  0.38197700  1
  Na  Na1  1  0.00506600  0.23994900  0.87622100  1
  Na  Na2  1  0.48518900  0.23978700  0.87378400  1
  Na  Na3  1  0.51481100  0.76021300  0.12621600  1
  Na  Na4  1  0.99493400  0.76005100  0.12377900  1
  Na  Na5  1  0.97279400  0.75912800  0.61802300  1
  Mn  Mn0  1  0.74601600  0.34812900  0.11115500  1
  Mn  Mn1  1  0.74005200  0.34593400  0.60346200  1
  Mn  Mn2  1  0.25994800  0.65406600  0.39653800  1
  Mn  Mn3  1  0.25398400  0.65187100  0.88884500  1
  P  P0  1  0.24926900  0.42869700  0.14192000  1
  P  P1  1  0.24631000  0.42621900  0.64155800  1
  P  P2  1  0.75369000  0.57378100  0.35844200  1
  P  P3  1  0.75073100  0.57130300  0.85808000  1
  C  C0  1  0.75173300  0.07990500  0.13578700  1
  C  C1  1  0.74743500  0.07824900  0.63384400  1
  C  C2  1  0.25256500  0.92175100  0.36615600  1
  C  C3  1  0.24826700  0.92009500  0.86421300  1
  O  O0  1  0.24494200  0.05533900  0.34903800  1
  O  O1  1  0.24078900  0.05704600  0.85410300  1
  O  O2  1  0.73957100  0.14575100  0.02393900  1
  O  O3  1  0.74583500  0.14251800  0.52204000  1
  O  O4  1  0.75594800  0.17706800  0.23213000  1
  O  O5  1  0.74118500  0.18102400  0.72973800  1
  O  O6  1  0.06125800  0.33011500  0.10417800  1
  O  O7  1  0.43438900  0.33574300  0.10379200  1
  O  O8  1  0.05795500  0.32551400  0.60819000  1
  O  O9  1  0.43303700  0.33144700  0.61459000  1
  O  O10  1  0.24312300  0.46963100  0.28810300  1
  O  O11  1  0.75739200  0.42778600  0.43062200  1
  O  O12  1  0.24155300  0.46407200  0.79077800  1
  O  O13  1  0.75006700  0.42272200  0.93084200  1
  O  O14  1  0.24993300  0.57727800  0.06915800  1
  O  O15  1  0.75844700  0.53592800  0.20922200  1
  O  O16  1  0.24260800  0.57221400  0.56937800  1
  O  O17  1  0.75687700  0.53036900  0.71189700  1
  O  O18  1  0.56696300  0.66855300  0.38541000  1
  O  O19  1  0.94204500  0.67448600  0.39181000  1
  O  O20  1  0.56561100  0.66425700  0.89620800  1
  O  O21  1  0.93874200  0.66988500  0.89582200  1
  O  O22  1  0.25881500  0.81897600  0.27026200  1
  O  O23  1  0.24405200  0.82293200  0.76787000  1
  O  O24  1  0.25416500  0.85748200  0.47796000  1
  O  O25  1  0.26042900  0.85424900  0.97606100  1
  O  O26  1  0.75921100  0.94295400  0.14589700  1
  O  O27  1  0.75505800  0.94466100  0.65096200  1
loop_
_geom_bond_atom_site_label_1
_geom_bond_atom_site_label_2
_geom_bond_distance
_geom_bond_site_symmetry_2
Na0 O0 2.246296 1_555
Na0 O4 2.409279 1_455
Na0 O8 2.457912 1_555
Na0 O11 2.517619 1_455
Na0 O3 2.528177 1_455
Na0 O10 2.694199 1_555
Na1 O1 2.296283 1_555
Na1 O5 2.342921 1_455
Na1 O13 2.435109 1_455
Na1 O2 2.489460 1_456
Na1 O6 2.506127 1_556
Na1 O12 2.702325 1_555
Na2 O1 2.280975 1_555
Na2 O5 2.321428 1_555
Na2 O13 2.430740 1_555
Na2 O2 2.464673 1_556
Na2 O7 2.546782 1_556
Na2 O12 2.765413 1_555
Na2 O9 2.869063 1_555
Na3 O26 2.280975 1_555
Na3 O22 2.321428 1_555
Na3 O14 2.430740 1_555
Na3 O25 2.464673 1_554
Na3 O20 2.546782 1_554
Na3 O15 2.765413 1_555
Na3 O18 2.869063 1_555
Na4 O26 2.296283 1_555
Na4 O22 2.342921 1_655
Na4 O14 2.435109 1_655
Na4 O25 2.489460 1_654
Na4 O21 2.506127 1_554
Na4 O15 2.702325 1_555
Na5 O27 2.246296 1_555
Na5 O23 2.409279 1_655
Na5 O19 2.457912 1_555
Na5 O16 2.517619 1_655
Na5 O24 2.528177 1_655
Na5 O17 2.694199 1_555
Mn0 O15 1.949687 1_555
Mn0 O2 2.012397 1_555
Mn0 O13 2.015433 1_554
Mn0 O4 2.026094 1_555
Mn0 O7 2.050809 1_555
Mn0 O6 2.084733 1_655
Mn1 O11 1.970854 1_555
Mn1 O17 1.981076 1_555
Mn1 O3 1.997975 1_555
Mn1 O5 2.018065 1_555
Mn1 O9 2.024913 1_555
Mn1 O8 2.103200 1_655
Mn2 O16 1.970854 1_555
Mn2 O10 1.981076 1_555
Mn2 O24 1.997975 1_555
Mn2 O22 2.018065 1_555
Mn2 O18 2.024913 1_555
Mn2 O19 2.103200 1_455
Mn3 O12 1.949687 1_555
Mn3 O25 2.012397 1_555
Mn3 O14 2.015433 1_556
Mn3 O23 2.026094 1_555
Mn3 O20 2.050809 1_555
Mn3 O21 2.084733 1_455
C0 O26 1.245870 1_545
C0 O4 1.310339 1_555
C0 O2 1.327418 1_555
C1 O27 1.226524 1_545
C1 O3 1.317664 1_555
C1 O5 1.341871 1_555
C2 O0 1.226524 1_565
C2 O24 1.317664 1_555
C2 O22 1.341871 1_555
C3 O1 1.245870 1_565
C3 O23 1.310339 1_555
C3 O25 1.327418 1_555
O6 P0 1.548200 1_555
O7 P0 1.540559 1_555
O8 P1 1.550859 1_555
O9 P1 1.534124 1_555
O10 P0 1.555585 1_555
O11 P2 1.538682 1_555
O12 P1 1.580629 1_555
O13 P3 1.561570 1_555
O14 P0 1.561570 1_555
O15 P2 1.580629 1_555
O16 P1 1.538682 1_555
O17 P3 1.555585 1_555
O18 P2 1.534124 1_555
O19 P2 1.550859 1_555
O20 P3 1.540559 1_555
O21 P3 1.548200 1_555
