# generated using pymatgen
data_NdO
_symmetry_space_group_name_H-M   'P 1'
_cell_length_a   3.55937510
_cell_length_b   3.55937510
_cell_length_c   5.97491200
_cell_angle_alpha   90.00000000
_cell_angle_beta   90.00000000
_cell_angle_gamma   119.99998330
_symmetry_Int_Tables_number   1
_chemical_formula_structural   NdO
_chemical_formula_sum   'Nd2 O2'
_cell_volume   65.55559059
_cell_formula_units_Z   2
loop_
 _symmetry_equiv_pos_site_id
 _symmetry_equiv_pos_as_xyz
  1  'x, y, z'
loop_
 _atom_site_type_symbol
 _atom_site_label
 _atom_site_symmetry_multiplicity
 _atom_site_fract_x
 _atom_site_fract_y
 _atom_site_fract_z
 _atom_site_occupancy
  Nd  Nd0  1  0.33333300  0.66666700  0.75000000  1
  Nd  Nd1  1  0.66666700  0.33333300  0.25000000  1
  O  O0  1  0.00000000  0.00000000  0.00000000  1
  O  O1  1  0.00000000  0.00000000  0.50000000  1
loop_
_geom_bond_atom_site_label_1
_geom_bond_atom_site_label_2
_geom_bond_distance
_geom_bond_site_symmetry_2
Nd0 O0 2.540524 1_566
Nd0 O1 2.540524 1_565
Nd0 O0 2.540527 1_666
Nd0 O1 2.540527 1_555
Nd0 O1 2.540527 1_665
Nd0 O0 2.540527 1_556
Nd1 O0 2.540524 1_655
Nd1 O1 2.540524 1_655
Nd1 O0 2.540527 1_555
Nd1 O0 2.540527 1_665
Nd1 O1 2.540527 1_665
Nd1 O1 2.540527 1_555
