# generated using pymatgen
data_NaNi2P3O10
_symmetry_space_group_name_H-M   'P 1'
_cell_length_a   8.52737300
_cell_length_b   4.70003400
_cell_length_c   9.03820111
_cell_angle_alpha   81.97807700
_cell_angle_beta   90.00000000
_cell_angle_gamma   90.00000000
_symmetry_Int_Tables_number   1
_chemical_formula_structural   NaNi2P3O10
_chemical_formula_sum   'Na2 Ni4 P6 O20'
_cell_volume   358.69692118
_cell_formula_units_Z   2
loop_
 _symmetry_equiv_pos_site_id
 _symmetry_equiv_pos_as_xyz
  1  'x, y, z'
loop_
 _atom_site_type_symbol
 _atom_site_label
 _atom_site_symmetry_multiplicity
 _atom_site_fract_x
 _atom_site_fract_y
 _atom_site_fract_z
 _atom_site_occupancy
  Na  Na0  1  0.00000000  0.00000000  0.00000000  1
  Na  Na1  1  0.50000000  0.00000000  0.00000000  1
  Ni  Ni0  1  0.92898800  0.95697700  0.34195300  1
  Ni  Ni1  1  0.57101200  0.95697700  0.34195300  1
  Ni  Ni2  1  0.42898800  0.04302300  0.65804700  1
  Ni  Ni3  1  0.07101200  0.04302300  0.65804700  1
  P  P0  1  0.75000000  0.66621400  0.81508700  1
  P  P1  1  0.25000000  0.60784000  0.46319400  1
  P  P2  1  0.25000000  0.47672900  0.84647200  1
  P  P3  1  0.75000000  0.52327100  0.15352800  1
  P  P4  1  0.75000000  0.39216000  0.53680600  1
  P  P5  1  0.25000000  0.33378600  0.18491300  1
  O  O0  1  0.90056800  0.83540700  0.79758800  1
  O  O1  1  0.59943200  0.83540700  0.79758800  1
  O  O2  1  0.25000000  0.78976700  0.76653600  1
  O  O3  1  0.40128200  0.77359800  0.48808900  1
  O  O4  1  0.09871800  0.77359800  0.48808900  1
  O  O5  1  0.75000000  0.69865700  0.45125500  1
  O  O6  1  0.90059200  0.68482600  0.17722000  1
  O  O7  1  0.59940800  0.68482600  0.17722000  1
  O  O8  1  0.75000000  0.46489900  0.97592100  1
  O  O9  1  0.25000000  0.58294200  0.28694300  1
  O  O10  1  0.75000000  0.41705800  0.71305600  1
  O  O11  1  0.25000000  0.53510100  0.02407900  1
  O  O12  1  0.09940800  0.31517400  0.82278000  1
  O  O13  1  0.40059200  0.31517400  0.82278000  1
  O  O14  1  0.25000000  0.30134300  0.54874500  1
  O  O15  1  0.90128200  0.22640200  0.51191100  1
  O  O16  1  0.59871800  0.22640200  0.51191100  1
  O  O17  1  0.75000000  0.21023300  0.23346400  1
  O  O18  1  0.40056800  0.16459300  0.20241200  1
  O  O19  1  0.09943200  0.16459300  0.20241200  1
loop_
_geom_bond_atom_site_label_1
_geom_bond_atom_site_label_2
_geom_bond_distance
_geom_bond_site_symmetry_2
Na0 O12 2.194602 1_554
Na0 O6 2.194602 1_445
Na0 O19 2.249271 1_555
Na0 O0 2.249271 1_444
Na1 O7 2.194602 1_545
Na1 O13 2.194602 1_554
Na1 O18 2.249271 1_555
Na1 O1 2.249271 1_544
Ni0 O4 2.065061 1_655
Ni0 O19 2.076491 1_665
Ni0 O17 2.093356 1_565
Ni0 O6 2.107870 1_555
Ni0 O5 2.108276 1_555
Ni0 O15 2.135863 1_565
Ni1 O3 2.065061 1_555
Ni1 O18 2.076491 1_565
Ni1 O17 2.093356 1_565
Ni1 O7 2.107870 1_555
Ni1 O5 2.108276 1_555
Ni1 O16 2.135863 1_565
Ni2 O16 2.065061 1_555
Ni2 O1 2.076491 1_545
Ni2 O2 2.093356 1_545
Ni2 O13 2.107870 1_555
Ni2 O14 2.108276 1_555
Ni2 O3 2.135863 1_545
Ni3 O15 2.065061 1_455
Ni3 O0 2.076491 1_445
Ni3 O2 2.093356 1_545
Ni3 O12 2.107870 1_555
Ni3 O14 2.108276 1_555
Ni3 O4 2.135863 1_545
O0 P0 1.506918 1_555
O1 P0 1.506918 1_555
O2 P2 1.545958 1_555
O3 P1 1.539707 1_555
O4 P1 1.539707 1_555
O5 P4 1.536935 1_555
O6 P3 1.522118 1_555
O7 P3 1.522118 1_555
O8 P0 1.620025 1_555
O8 P3 1.665835 1_556
O9 P5 1.588438 1_555
O9 P1 1.613489 1_555
O10 P0 1.588444 1_555
O10 P4 1.613480 1_555
O11 P5 1.620025 1_555
O11 P2 1.665835 1_554
O12 P2 1.522118 1_555
O13 P2 1.522118 1_555
O14 P1 1.536935 1_555
O15 P4 1.539707 1_555
O16 P4 1.539707 1_555
O17 P3 1.545958 1_555
O18 P5 1.506918 1_555
O19 P5 1.506918 1_555
