# generated using pymatgen
data_Li4Mn3OF8
_symmetry_space_group_name_H-M   'P 1'
_cell_length_a   5.06022854
_cell_length_b   10.25239477
_cell_length_c   10.33620093
_cell_angle_alpha   82.80792108
_cell_angle_beta   90.26755920
_cell_angle_gamma   88.51203955
_symmetry_Int_Tables_number   1
_chemical_formula_structural   Li4Mn3OF8
_chemical_formula_sum   'Li12 Mn9 O3 F24'
_cell_volume   531.82107559
_cell_formula_units_Z   3
loop_
 _symmetry_equiv_pos_site_id
 _symmetry_equiv_pos_as_xyz
  1  'x, y, z'
loop_
 _atom_site_type_symbol
 _atom_site_label
 _atom_site_symmetry_multiplicity
 _atom_site_fract_x
 _atom_site_fract_y
 _atom_site_fract_z
 _atom_site_occupancy
  Li  Li0  1  0.49304934  0.78771998  0.99208085  1
  Li  Li1  1  0.49950043  0.99217464  0.19464731  1
  Li  Li2  1  0.44055995  0.87402142  0.46159784  1
  Li  Li3  1  0.40127209  0.54519409  0.13025870  1
  Li  Li4  1  0.37623908  0.60545131  0.39279597  1
  Li  Li5  1  0.49280153  0.73363641  0.72048785  1
  Li  Li6  1  0.45415035  0.26875669  0.26562847  1
  Li  Li7  1  0.39493034  0.38745781  0.63406995  1
  Li  Li8  1  0.45214907  0.49223572  0.87845227  1
  Li  Li9  1  0.43922743  0.13603503  0.54346737  1
  Li  Li10  1  0.49788285  0.21100233  0.98512223  1
  Li  Li11  1  0.51240276  0.01263921  0.79052564  1
  Mn  Mn0  1  0.98877087  0.80082355  0.25095375  1
  Mn  Mn1  1  0.97904661  0.90585194  0.66544538  1
  Mn  Mn2  1  0.93462299  0.33957693  0.10385781  1
  Mn  Mn3  1  0.95625171  0.61734408  0.59425621  1
  Mn  Mn4  1  0.00033539  0.99548707  0.00745070  1
  Mn  Mn5  1  0.88662028  0.38354938  0.40669345  1
  Mn  Mn6  1  0.95861339  0.65699638  0.89035735  1
  Mn  Mn7  1  0.97050023  0.09273716  0.32407398  1
  Mn  Mn8  1  0.95294424  0.26543058  0.77976917  1
  O  O0  1  0.13883911  0.98027459  0.19321437  1
  O  O1  1  0.09529634  0.28175844  0.28087838  1
  O  O2  1  0.13454784  0.72593074  0.72311432  1
  F  F0  1  0.67883191  0.87499108  0.10248252  1
  F  F1  1  0.13433877  0.79046224  0.00676328  1
  F  F2  1  0.69380541  0.93152485  0.34301383  1
  F  F3  1  0.61727445  0.61749814  0.00005554  1
  F  F4  1  0.19838457  0.00845010  0.49924028  1
  F  F5  1  0.18366811  0.75295830  0.43764447  1
  F  F6  1  0.20375421  0.63110991  0.23627031  1
  F  F7  1  0.73237254  0.57791812  0.42326368  1
  F  F8  1  0.62790755  0.42322827  0.21850132  1
  F  F9  1  0.67880748  0.79074754  0.57564166  1
  F  F10  1  0.20495846  0.47955563  0.49874006  1
  F  F11  1  0.65395119  0.84053687  0.83386041  1
  F  F12  1  0.63131371  0.16455871  0.15062109  1
  F  F13  1  0.64511894  0.20708014  0.41021884  1
  F  F14  1  0.67501306  0.57556621  0.75064779  1
  F  F15  1  0.75198792  0.35674381  0.61186227  1
  F  F16  1  0.18832523  0.43602530  0.76897801  1
  F  F17  1  0.24795010  0.22415370  0.65266400  1
  F  F18  1  0.15885857  0.49530403  0.01173766  1
  F  F19  1  0.69582469  0.04940894  0.64188242  1
  F  F20  1  0.69155663  0.35589488  0.93252539  1
  F  F21  1  0.14159801  0.21119865  0.97388767  1
  F  F22  1  0.15901566  0.00320951  0.81901677  1
  F  F23  1  0.70006563  0.10979460  0.89128540  1
loop_
_geom_bond_atom_site_label_1
_geom_bond_atom_site_label_2
_geom_bond_distance
_geom_bond_site_symmetry_2
Li1 O0 1.832375 1_555
Li5 O2 1.816796 1_555
Li6 O1 1.826311 1_555
Mn0 O0 2.029672 1_655
Mn1 O2 2.005501 1_655
Mn2 O1 2.012411 1_655
Mn3 O2 2.059019 1_655
Mn4 O0 2.027079 1_555
Mn5 O1 2.047123 1_655
Mn6 O2 2.005358 1_655
Mn7 O1 2.050173 1_655
Mn7 O0 2.057865 1_645
F0 Li0 1.809932 1_554
F0 Li1 1.847271 1_555
F0 Mn4 2.225578 1_655
F0 Mn0 2.239741 1_555
F1 Li0 1.821979 1_554
F1 Mn6 2.139201 1_454
F1 Mn4 2.192715 1_555
F1 Mn0 2.646676 1_455
F2 Li2 1.834417 1_555
F2 Li1 1.849471 1_555
F2 Mn7 2.184543 1_565
F2 Mn0 2.271024 1_555
F3 Li0 1.831427 1_554
F3 Li3 1.833417 1_555
F3 Mn6 2.091095 1_554
F3 Li8 2.092221 1_554
F4 Li2 1.898323 1_545
F4 Li9 1.905929 1_555
F4 Mn7 2.211694 1_455
F4 Mn1 2.217109 1_445
F5 Li2 1.857256 1_555
F5 Li4 1.885397 1_555
F5 Mn0 2.158026 1_455
F5 Mn3 2.326967 1_455
F6 Li3 1.783738 1_555
F6 Li4 1.821225 1_555
F6 Mn0 2.050206 1_455
F7 Li4 1.836438 1_555
F7 Mn5 2.148377 1_555
F7 Mn3 2.180485 1_555
F8 Li3 1.827816 1_555
F8 Li6 1.844352 1_555
F8 Mn2 2.179695 1_555
F8 Mn5 2.326702 1_555
F9 Li2 1.803647 1_555
F9 Li5 1.814532 1_555
F9 Mn1 2.217355 1_555
F9 Mn3 2.225045 1_555
F10 Li4 1.824664 1_555
F10 Li7 1.838989 1_555
F10 Mn5 2.184358 1_455
F10 Mn3 2.196058 1_455
F11 Li0 1.855873 1_555
F11 Li11 1.886920 1_565
F11 Li5 1.896955 1_555
F11 Mn6 2.413384 1_555
F11 Mn1 2.444788 1_555
F12 Li10 1.837778 1_554
F12 Li6 1.906882 1_555
F12 Li1 1.907401 1_545
F12 Mn2 2.396202 1_555
F12 Mn7 2.505485 1_555
F13 Li6 1.812565 1_555
F13 Li9 1.820588 1_555
F13 Mn5 2.206081 1_555
F13 Mn7 2.247862 1_555
F14 Li5 1.834905 1_555
F14 Li8 1.878332 1_555
F14 Mn3 2.168316 1_555
F14 Mn6 2.277390 1_555
F15 Li7 1.846286 1_555
F15 Mn8 2.109447 1_555
F15 Mn5 2.216792 1_555
F16 Li7 1.856296 1_555
F16 Li8 1.893116 1_555
F16 Mn8 2.133241 1_455
F16 Mn3 2.668798 1_455
F17 Li9 1.801957 1_555
F17 Li7 1.838119 1_555
F17 Mn8 2.063560 1_455
F18 Li3 1.855411 1_555
F18 Li8 2.032013 1_554
F18 Mn2 2.113461 1_455
F18 Mn6 2.174627 1_454
F19 Li9 1.791940 1_555
F19 Li11 1.802941 1_555
F19 Mn1 2.019141 1_545
F20 Li10 1.827864 1_555
F20 Li8 1.855807 1_555
F20 Mn2 2.138173 1_556
F20 Mn8 2.329196 1_555
F21 Li10 1.806010 1_555
F21 Mn8 2.218447 1_455
F21 Mn2 2.240149 1_456
F21 Mn4 2.326935 1_546
F22 Li11 1.816746 1_555
F22 Mn4 2.103285 1_546
F22 Mn1 2.185346 1_445
F23 Li10 1.808381 1_555
F23 Li11 1.810592 1_555
F23 Mn4 2.159152 1_646
F23 Mn8 2.274073 1_555
