# generated using pymatgen
data_LiMn4O8
_symmetry_space_group_name_H-M   'P 1'
_cell_length_a   5.94136070
_cell_length_b   5.94136070
_cell_length_c   6.04281549
_cell_angle_alpha   60.17818710
_cell_angle_beta   60.17818710
_cell_angle_gamma   58.67751823
_symmetry_Int_Tables_number   1
_chemical_formula_structural   LiMn4O8
_chemical_formula_sum   'Li1 Mn4 O8'
_cell_volume   149.66098085
_cell_formula_units_Z   1
loop_
 _symmetry_equiv_pos_site_id
 _symmetry_equiv_pos_as_xyz
  1  'x, y, z'
loop_
 _atom_site_type_symbol
 _atom_site_label
 _atom_site_symmetry_multiplicity
 _atom_site_fract_x
 _atom_site_fract_y
 _atom_site_fract_z
 _atom_site_occupancy
  Li  Li0  1  0.50000000  0.50000000  0.50000000  1
  Mn  Mn0  1  0.00000000  0.50000000  0.00000000  1
  Mn  Mn1  1  0.50000000  0.50000000  0.00000000  1
  Mn  Mn2  1  0.50000000  0.00000000  0.00000000  1
  Mn  Mn3  1  0.00000000  0.00000000  0.00000000  1
  O  O0  1  0.23057600  0.72394300  0.80680700  1
  O  O1  1  0.74219800  0.74219800  0.21363300  1
  O  O2  1  0.72963100  0.72963100  0.80271200  1
  O  O3  1  0.72394300  0.23057600  0.80680700  1
  O  O4  1  0.27605700  0.76942400  0.19319300  1
  O  O5  1  0.27036900  0.27036900  0.19728800  1
  O  O6  1  0.25780200  0.25780200  0.78636700  1
  O  O7  1  0.76942400  0.27605700  0.19319300  1
loop_
_geom_bond_atom_site_label_1
_geom_bond_atom_site_label_2
_geom_bond_distance
_geom_bond_site_symmetry_2
Li0 O1 2.082161 1_555
Li0 O6 2.082161 1_555
Li0 O7 2.248830 1_555
Li0 O4 2.248830 1_555
Li0 O3 2.248830 1_555
Li0 O0 2.248830 1_555
Mn0 O6 1.916419 1_554
Mn0 O1 1.916419 1_455
Mn0 O0 1.941501 1_554
Mn0 O7 1.941501 1_455
Mn0 O5 1.967594 1_555
Mn0 O2 1.967594 1_454
Mn1 O3 1.948058 1_554
Mn1 O0 1.948058 1_554
Mn1 O7 1.948058 1_555
Mn1 O4 1.948058 1_555
Mn1 O5 1.960568 1_555
Mn1 O2 1.960568 1_554
Mn2 O1 1.916419 1_545
Mn2 O6 1.916419 1_554
Mn2 O4 1.941501 1_545
Mn2 O3 1.941501 1_554
Mn2 O5 1.967594 1_555
Mn2 O2 1.967594 1_544
Mn3 O0 1.976703 1_544
Mn3 O3 1.976703 1_454
Mn3 O4 1.976703 1_545
Mn3 O7 1.976703 1_455
Mn3 O6 2.205588 1_554
Mn3 O1 2.205588 1_445
