# generated using pymatgen
data_Fe4(PO4)3
_symmetry_space_group_name_H-M   'P 1'
_cell_length_a   6.17848600
_cell_length_b   10.14547000
_cell_length_c   14.84340500
_cell_angle_alpha   90.00000000
_cell_angle_beta   90.00000000
_cell_angle_gamma   90.00000000
_symmetry_Int_Tables_number   1
_chemical_formula_structural   Fe4(PO4)3
_chemical_formula_sum   'Fe16 P12 O48'
_cell_volume   930.43872009
_cell_formula_units_Z   4
loop_
 _symmetry_equiv_pos_site_id
 _symmetry_equiv_pos_as_xyz
  1  'x, y, z'
loop_
 _atom_site_type_symbol
 _atom_site_label
 _atom_site_symmetry_multiplicity
 _atom_site_fract_x
 _atom_site_fract_y
 _atom_site_fract_z
 _atom_site_occupancy
  Fe  Fe0  1  0.36169700  0.92825300  0.11326200  1
  Fe  Fe1  1  0.63830300  0.07174700  0.88673800  1
  Fe  Fe2  1  0.64645100  0.65178400  0.61323100  1
  Fe  Fe3  1  0.36169700  0.92825300  0.38673800  1
  Fe  Fe4  1  0.85354900  0.15178400  0.38676900  1
  Fe  Fe5  1  0.35354900  0.34821600  0.11323100  1
  Fe  Fe6  1  0.86169700  0.57174700  0.38673800  1
  Fe  Fe7  1  0.85354900  0.15178400  0.11323100  1
  Fe  Fe8  1  0.86169700  0.57174700  0.11326200  1
  Fe  Fe9  1  0.14645100  0.84821600  0.61323100  1
  Fe  Fe10  1  0.63830300  0.07174700  0.61326200  1
  Fe  Fe11  1  0.14645100  0.84821600  0.88676900  1
  Fe  Fe12  1  0.64645100  0.65178400  0.88676900  1
  Fe  Fe13  1  0.13830300  0.42825300  0.61326200  1
  Fe  Fe14  1  0.35354900  0.34821600  0.38676900  1
  Fe  Fe15  1  0.13830300  0.42825300  0.88673800  1
  P  P0  1  0.64139900  0.36741500  0.57031300  1
  P  P1  1  0.99584100  0.39860200  0.25000000  1
  P  P2  1  0.85860100  0.86741500  0.07031300  1
  P  P3  1  0.64139900  0.36741500  0.92968700  1
  P  P4  1  0.14139900  0.13258500  0.57031300  1
  P  P5  1  0.49584100  0.10139800  0.25000000  1
  P  P6  1  0.00415900  0.60139800  0.75000000  1
  P  P7  1  0.85860100  0.86741500  0.42968700  1
  P  P8  1  0.35860100  0.63258500  0.07031300  1
  P  P9  1  0.14139900  0.13258500  0.92968700  1
  P  P10  1  0.50415900  0.89860200  0.75000000  1
  P  P11  1  0.35860100  0.63258500  0.42968700  1
  O  O0  1  0.24607300  0.38075700  0.25000000  1
  O  O1  1  0.07674500  0.20134100  0.01890400  1
  O  O2  1  0.20510900  0.24031200  0.86279700  1
  O  O3  1  0.75392700  0.61924300  0.75000000  1
  O  O4  1  0.90228000  0.34615100  0.16036900  1
  O  O5  1  0.42325500  0.70134100  0.98109600  1
  O  O6  1  0.96026400  0.03695500  0.89464500  1
  O  O7  1  0.25392700  0.88075700  0.75000000  1
  O  O8  1  0.29489100  0.74031200  0.13720300  1
  O  O9  1  0.42325500  0.70134100  0.51890400  1
  O  O10  1  0.09772000  0.65384900  0.66036900  1
  O  O11  1  0.33685800  0.03239200  0.94196800  1
  O  O12  1  0.03973600  0.96304500  0.39464500  1
  O  O13  1  0.74607300  0.11924300  0.25000000  1
  O  O14  1  0.06504400  0.45151000  0.75000000  1
  O  O15  1  0.79489100  0.75968800  0.13720300  1
  O  O16  1  0.66314200  0.96760800  0.05803200  1
  O  O17  1  0.93495600  0.54849000  0.25000000  1
  O  O18  1  0.66314200  0.96760800  0.44196800  1
  O  O19  1  0.46026400  0.46304500  0.60535500  1
  O  O20  1  0.07674500  0.20134100  0.48109600  1
  O  O21  1  0.57674500  0.29865900  0.01890400  1
  O  O22  1  0.40228000  0.15384900  0.33963100  1
  O  O23  1  0.43495600  0.95151000  0.25000000  1
  O  O24  1  0.59772000  0.84615100  0.66036900  1
  O  O25  1  0.92325500  0.79865900  0.98109600  1
  O  O26  1  0.09772000  0.65384900  0.83963100  1
  O  O27  1  0.40228000  0.15384900  0.16036900  1
  O  O28  1  0.79489100  0.75968800  0.36279700  1
  O  O29  1  0.29489100  0.74031200  0.36279700  1
  O  O30  1  0.53973600  0.53695500  0.10535500  1
  O  O31  1  0.59772000  0.84615100  0.83963100  1
  O  O32  1  0.70510900  0.25968800  0.63720300  1
  O  O33  1  0.46026400  0.46304500  0.89464500  1
  O  O34  1  0.03973600  0.96304500  0.10535500  1
  O  O35  1  0.20510900  0.24031200  0.63720300  1
  O  O36  1  0.57674500  0.29865900  0.48109600  1
  O  O37  1  0.70510900  0.25968800  0.86279700  1
  O  O38  1  0.90228000  0.34615100  0.33963100  1
  O  O39  1  0.92325500  0.79865900  0.51890400  1
  O  O40  1  0.16314200  0.53239200  0.05803200  1
  O  O41  1  0.53973600  0.53695500  0.39464500  1
  O  O42  1  0.56504400  0.04849000  0.75000000  1
  O  O43  1  0.16314200  0.53239200  0.44196800  1
  O  O44  1  0.83685800  0.46760800  0.55803200  1
  O  O45  1  0.33685800  0.03239200  0.55803200  1
  O  O46  1  0.83685800  0.46760800  0.94196800  1
  O  O47  1  0.96026400  0.03695500  0.60535500  1
loop_
_geom_bond_atom_site_label_1
_geom_bond_atom_site_label_2
_geom_bond_distance
_geom_bond_site_symmetry_2
Fe0 O8 1.983015 1_555
Fe0 O34 2.023713 1_555
Fe0 O16 2.073717 1_555
Fe0 O23 2.092859 1_555
Fe0 O27 2.406303 1_565
Fe1 O37 1.983015 1_555
Fe1 O6 2.023713 1_555
Fe1 O11 2.073717 1_555
Fe1 O42 2.092859 1_555
Fe1 O31 2.406303 1_545
Fe2 O9 2.028507 1_555
Fe2 O24 2.113949 1_555
Fe2 O3 2.161324 1_555
Fe2 O19 2.236876 1_555
Fe2 O44 2.355162 1_555
Fe2 O39 2.665653 1_555
Fe3 O29 1.983015 1_555
Fe3 O12 2.023713 1_555
Fe3 O18 2.073717 1_555
Fe3 O23 2.092859 1_555
Fe3 O22 2.406303 1_565
Fe4 O20 2.028507 1_655
Fe4 O38 2.113949 1_555
Fe4 O13 2.161324 1_555
Fe4 O12 2.236876 1_645
Fe4 O18 2.355162 1_545
Fe4 O36 2.665653 1_555
Fe5 O21 2.028507 1_555
Fe5 O27 2.113949 1_555
Fe5 O0 2.161324 1_555
Fe5 O30 2.236876 1_555
Fe5 O40 2.355162 1_555
Fe5 O1 2.665653 1_555
Fe6 O28 1.983015 1_555
Fe6 O41 2.023713 1_555
Fe6 O43 2.073717 1_655
Fe6 O17 2.092859 1_555
Fe6 O38 2.406303 1_555
Fe7 O1 2.028507 1_655
Fe7 O4 2.113949 1_555
Fe7 O13 2.161324 1_555
Fe7 O34 2.236876 1_645
Fe7 O16 2.355162 1_545
Fe7 O21 2.665653 1_555
Fe8 O15 1.983015 1_555
Fe8 O30 2.023713 1_555
Fe8 O40 2.073717 1_655
Fe8 O17 2.092859 1_555
Fe8 O4 2.406303 1_555
Fe9 O39 2.028507 1_455
Fe9 O10 2.113949 1_555
Fe9 O7 2.161324 1_555
Fe9 O47 2.236876 1_465
Fe9 O45 2.355162 1_565
Fe9 O9 2.665653 1_555
Fe10 O32 1.983015 1_555
Fe10 O47 2.023713 1_555
Fe10 O45 2.073717 1_555
Fe10 O42 2.092859 1_555
Fe10 O24 2.406303 1_545
Fe11 O25 2.028507 1_455
Fe11 O26 2.113949 1_555
Fe11 O7 2.161324 1_555
Fe11 O6 2.236876 1_465
Fe11 O11 2.355162 1_565
Fe11 O5 2.665653 1_555
Fe12 O5 2.028507 1_555
Fe12 O31 2.113949 1_555
Fe12 O3 2.161324 1_555
Fe12 O33 2.236876 1_555
Fe12 O46 2.355162 1_555
Fe12 O25 2.665653 1_555
Fe13 O35 1.983015 1_555
Fe13 O19 2.023713 1_555
Fe13 O44 2.073717 1_455
Fe13 O14 2.092859 1_555
Fe13 O10 2.406303 1_555
Fe14 O36 2.028507 1_555
Fe14 O22 2.113949 1_555
Fe14 O0 2.161324 1_555
Fe14 O41 2.236876 1_555
Fe14 O43 2.355162 1_555
Fe14 O20 2.665653 1_555
Fe15 O2 1.983015 1_555
Fe15 O33 2.023713 1_555
Fe15 O46 2.073717 1_455
Fe15 O14 2.092859 1_555
Fe15 O26 2.406303 1_555
O0 P1 1.556619 1_455
O1 P9 1.549159 1_554
O2 P9 1.528158 1_555
O3 P6 1.556619 1_655
O4 P1 1.545113 1_555
O5 P8 1.549159 1_556
O6 P9 1.569819 1_655
O7 P10 1.556619 1_555
O8 P8 1.528158 1_555
O9 P11 1.549159 1_555
O10 P6 1.545113 1_555
O11 P9 1.588996 1_555
O12 P7 1.569819 1_455
O13 P5 1.556619 1_555
O14 P6 1.566522 1_555
O15 P2 1.528158 1_555
O16 P2 1.588996 1_555
O17 P1 1.566522 1_555
O18 P7 1.588996 1_555
O19 P0 1.569819 1_555
O20 P4 1.549159 1_555
O21 P3 1.549159 1_554
O22 P5 1.545113 1_555
O23 P5 1.566522 1_565
O24 P10 1.545113 1_555
O25 P2 1.549159 1_556
O26 P6 1.545113 1_555
O27 P5 1.545113 1_555
O28 P7 1.528158 1_555
O29 P11 1.528158 1_555
O30 P8 1.569819 1_555
O31 P10 1.545113 1_555
O32 P0 1.528158 1_555
O33 P3 1.569819 1_555
O34 P2 1.569819 1_455
O35 P4 1.528158 1_555
O36 P0 1.549159 1_555
O37 P3 1.528158 1_555
O38 P1 1.545113 1_555
O39 P7 1.549159 1_555
O40 P8 1.588996 1_555
O41 P11 1.569819 1_555
O42 P10 1.566522 1_545
O43 P11 1.588996 1_555
O44 P0 1.588996 1_555
O45 P4 1.588996 1_555
O46 P3 1.588996 1_555
O47 P4 1.569819 1_655
