# generated using pymatgen
data_MnTlO3
_symmetry_space_group_name_H-M   'P 1'
_cell_length_a   5.42177400
_cell_length_b   5.56038700
_cell_length_c   7.96530400
_cell_angle_alpha   90.00000000
_cell_angle_beta   90.00000000
_cell_angle_gamma   90.00000000
_symmetry_Int_Tables_number   1
_chemical_formula_structural   MnTlO3
_chemical_formula_sum   'Mn4 Tl4 O12'
_cell_volume   240.13130741
_cell_formula_units_Z   4
loop_
 _symmetry_equiv_pos_site_id
 _symmetry_equiv_pos_as_xyz
  1  'x, y, z'
loop_
 _atom_site_type_symbol
 _atom_site_label
 _atom_site_symmetry_multiplicity
 _atom_site_fract_x
 _atom_site_fract_y
 _atom_site_fract_z
 _atom_site_occupancy
  Mn  Mn0  1  0.50000000  0.00000000  0.50000000  1
  Mn  Mn1  1  0.50000000  0.00000000  0.00000000  1
  Mn  Mn2  1  0.00000000  0.50000000  0.50000000  1
  Mn  Mn3  1  0.00000000  0.50000000  0.00000000  1
  Tl  Tl0  1  0.98465100  0.04942600  0.75000000  1
  Tl  Tl1  1  0.48465100  0.45057400  0.25000000  1
  Tl  Tl2  1  0.51534900  0.54942600  0.75000000  1
  Tl  Tl3  1  0.01534900  0.95057400  0.25000000  1
  O  O0  1  0.60854900  0.05161300  0.25000000  1
  O  O1  1  0.19758600  0.19697400  0.05872800  1
  O  O2  1  0.19758600  0.19697400  0.44127200  1
  O  O3  1  0.69758600  0.30302600  0.55872800  1
  O  O4  1  0.69758600  0.30302600  0.94127200  1
  O  O5  1  0.10854900  0.44838700  0.75000000  1
  O  O6  1  0.89145100  0.55161300  0.25000000  1
  O  O7  1  0.30241400  0.69697400  0.44127200  1
  O  O8  1  0.30241400  0.69697400  0.05872800  1
  O  O9  1  0.80241400  0.80302600  0.55872800  1
  O  O10  1  0.80241400  0.80302600  0.94127200  1
  O  O11  1  0.39145100  0.94838700  0.75000000  1
loop_
_geom_bond_atom_site_label_1
_geom_bond_atom_site_label_2
_geom_bond_distance
_geom_bond_site_symmetry_2
Mn0 O9 2.026513 1_545
Mn0 O2 2.026513 1_555
Mn0 O3 2.050723 1_555
Mn0 O7 2.050723 1_545
Mn0 O0 2.096213 1_555
Mn0 O11 2.096213 1_545
Mn1 O1 2.026513 1_555
Mn1 O10 2.026513 1_544
Mn1 O4 2.050723 1_554
Mn1 O8 2.050723 1_545
Mn1 O0 2.096213 1_555
Mn1 O11 2.096213 1_544
Mn2 O7 2.026513 1_555
Mn2 O3 2.026513 1_455
Mn2 O9 2.050723 1_455
Mn2 O2 2.050723 1_555
Mn2 O5 2.096213 1_555
Mn2 O6 2.096213 1_455
Mn3 O8 2.026513 1_555
Mn3 O4 2.026513 1_454
Mn3 O1 2.050723 1_555
Mn3 O10 2.050723 1_454
Mn3 O5 2.096213 1_554
Mn3 O6 2.096213 1_455
O0 Tl3 2.276007 1_645
O0 Tl1 2.317853 1_555
O1 Tl3 2.274759 1_545
O1 Tl1 2.594606 1_555
O2 Tl3 2.274759 1_545
O2 Tl1 2.594606 1_555
O3 Tl2 2.274759 1_555
O3 Tl0 2.594606 1_555
O4 Tl2 2.274759 1_555
O4 Tl0 2.594606 1_555
O5 Tl2 2.276007 1_555
O5 Tl0 2.317853 1_455
O6 Tl1 2.276007 1_555
O6 Tl3 2.317853 1_655
O7 Tl1 2.274759 1_555
O7 Tl3 2.594606 1_555
O8 Tl1 2.274759 1_555
O8 Tl3 2.594606 1_555
O9 Tl0 2.274759 1_565
O9 Tl2 2.594606 1_555
O10 Tl0 2.274759 1_565
O10 Tl2 2.594606 1_555
O11 Tl0 2.276007 1_465
O11 Tl2 2.317853 1_555
