# generated using pymatgen
data_Li5Co4(NiO6)2
_symmetry_space_group_name_H-M   'P 1'
_cell_length_a   8.70283900
_cell_length_b   8.71786911
_cell_length_c   10.05370316
_cell_angle_alpha   90.77324192
_cell_angle_beta   89.82371910
_cell_angle_gamma   119.85542520
_symmetry_Int_Tables_number   1
_chemical_formula_structural   Li5Co4(NiO6)2
_chemical_formula_sum   'Li15 Co12 Ni6 O36'
_cell_volume   661.47807929
_cell_formula_units_Z   3
loop_
 _symmetry_equiv_pos_site_id
 _symmetry_equiv_pos_as_xyz
  1  'x, y, z'
loop_
 _atom_site_type_symbol
 _atom_site_label
 _atom_site_symmetry_multiplicity
 _atom_site_fract_x
 _atom_site_fract_y
 _atom_site_fract_z
 _atom_site_occupancy
  Li  Li0  1  0.57741600  0.96292300  0.73304400  1
  Li  Li1  1  0.24168900  0.96225600  0.72725200  1
  Li  Li2  1  0.41498100  0.84172600  0.23786200  1
  Li  Li3  1  0.09804600  0.91851400  0.23778100  1
  Li  Li4  1  0.74285300  0.83687100  0.24439600  1
  Li  Li5  1  0.90885700  0.62528400  0.72936600  1
  Li  Li6  1  0.58515900  0.64503900  0.73703300  1
  Li  Li7  1  0.77990500  0.53927300  0.22858000  1
  Li  Li8  1  0.22484100  0.45610100  0.77132400  1
  Li  Li9  1  0.42961500  0.34546900  0.26969800  1
  Li  Li10  1  0.12370000  0.40886800  0.27694300  1
  Li  Li11  1  0.55938100  0.29776900  0.72968300  1
  Li  Li12  1  0.89571200  0.30745700  0.73005400  1
  Li  Li13  1  0.73203700  0.18405700  0.24426800  1
  Li  Li14  1  0.93706100  0.01837800  0.74645100  1
  Co  Co0  1  0.32891100  0.99057800  0.99993900  1
  Co  Co1  1  0.35459700  0.84625700  0.49947700  1
  Co  Co2  1  0.00936100  0.83657400  0.50006900  1
  Co  Co3  1  0.65334900  0.65434100  0.99836200  1
  Co  Co4  1  0.98543500  0.65905500  0.99685300  1
  Co  Co5  1  0.67866600  0.51254900  0.50291200  1
  Co  Co6  1  0.35122300  0.51541100  0.49750400  1
  Co  Co7  1  0.31159100  0.31509600  0.99790300  1
  Co  Co8  1  0.98025900  0.31820500  0.99437200  1
  Co  Co9  1  0.67991100  0.18149800  0.50188900  1
  Co  Co10  1  0.01441200  0.17089900  0.49543100  1
  Co  Co11  1  0.65427300  0.98839400  0.99717000  1
  Ni  Ni0  1  0.99007800  0.99125900  0.99890200  1
  Ni  Ni1  1  0.68548300  0.85028100  0.49849700  1
  Ni  Ni2  1  0.32041400  0.65845400  0.99768700  1
  Ni  Ni3  1  0.01462400  0.51427500  0.49725900  1
  Ni  Ni4  1  0.64839100  0.31909800  0.99693600  1
  Ni  Ni5  1  0.34368000  0.17438900  0.50191600  1
  O  O0  1  0.91876900  0.94605700  0.38988200  1
  O  O1  1  0.57635100  0.96756000  0.38581400  1
  O  O2  1  0.22184100  0.93409600  0.40143000  1
  O  O3  1  0.75196000  0.88363700  0.88791000  1
  O  O4  1  0.43792600  0.87933700  0.90074600  1
  O  O5  1  0.11988700  0.88519700  0.89524900  1
  O  O6  1  0.88477100  0.76282900  0.11467500  1
  O  O7  1  0.56355500  0.78434800  0.10430300  1
  O  O8  1  0.22446000  0.77878800  0.09678000  1
  O  O9  1  0.79804200  0.72790900  0.60514500  1
  O  O10  1  0.45387700  0.72724300  0.60568000  1
  O  O11  1  0.11201500  0.72810200  0.60071300  1
  O  O12  1  0.89303700  0.61646400  0.40324400  1
  O  O13  1  0.56828100  0.60700500  0.39734800  1
  O  O14  1  0.25212900  0.61829400  0.39180200  1
  O  O15  1  0.75568800  0.55413600  0.88444600  1
  O  O16  1  0.41823300  0.54353300  0.89552900  1
  O  O17  1  0.07000600  0.52306100  0.88809600  1
  O  O18  1  0.85744700  0.42242200  0.09975500  1
  O  O19  1  0.54784300  0.43107700  0.10305000  1
  O  O20  1  0.19811800  0.43941600  0.09491800  1
  O  O21  1  0.77967000  0.40738800  0.61599600  1
  O  O22  1  0.46865500  0.42206600  0.60550900  1
  O  O23  1  0.13173300  0.41207100  0.59616700  1
  O  O24  1  0.90761500  0.30015200  0.39578600  1
  O  O25  1  0.58152100  0.30603000  0.39733900  1
  O  O26  1  0.23893500  0.30361700  0.39530300  1
  O  O27  1  0.74970800  0.20093400  0.89474200  1
  O  O28  1  0.43191400  0.19955300  0.89848800  1
  O  O29  1  0.08829800  0.21948500  0.87984800  1
  O  O30  1  0.86491200  0.11062500  0.09974200  1
  O  O31  1  0.53734700  0.07811200  0.10357600  1
  O  O32  1  0.22691200  0.10403600  0.10327300  1
  O  O33  1  0.80671600  0.08563200  0.61449200  1
  O  O34  1  0.46453200  0.06658200  0.61839400  1
  O  O35  1  0.11050900  0.04296200  0.60668300  1
loop_
_geom_bond_atom_site_label_1
_geom_bond_atom_site_label_2
_geom_bond_distance
_geom_bond_site_symmetry_2
Li0 O4 1.996799 1_555
Li0 O34 2.007334 1_565
Li0 O33 2.107507 1_565
Li0 O10 2.180633 1_555
Li0 O27 2.454141 1_565
Li0 O3 2.509653 1_555
Li1 O5 1.933457 1_555
Li1 O34 2.010912 1_565
Li1 O35 2.024592 1_565
Li1 O11 2.168908 1_555
Li1 O28 2.548661 1_565
Li2 O1 1.955298 1_555
Li2 O8 2.037105 1_555
Li2 O7 2.083329 1_555
Li2 O31 2.254961 1_565
Li2 O14 2.348908 1_555
Li3 O2 1.935272 1_555
Li3 O32 1.986479 1_565
Li3 O6 2.068738 1_455
Li3 O0 2.275682 1_455
Li3 O8 2.445761 1_555
Li4 O7 1.978132 1_555
Li4 O0 1.978541 1_555
Li4 O6 2.098593 1_555
Li4 O13 2.392943 1_555
Li4 O30 2.549345 1_565
Li5 O15 1.944897 1_555
Li5 O21 1.998671 1_555
Li5 O11 2.010421 1_655
Li5 O9 2.046177 1_555
Li5 O17 2.569868 1_655
Li6 O16 2.043660 1_555
Li6 O9 2.095395 1_555
Li6 O10 2.100694 1_555
Li6 O22 2.128769 1_555
Li6 O3 2.378429 1_555
Li6 O15 2.498640 1_555
Li7 O18 1.952959 1_555
Li7 O12 1.955740 1_555
Li7 O6 2.055619 1_555
Li7 O19 2.155956 1_555
Li7 O25 2.563960 1_555
Li8 O23 1.893630 1_555
Li8 O16 1.919105 1_555
Li8 O17 2.071163 1_555
Li8 O29 2.114204 1_555
Li9 O19 1.918679 1_555
Li9 O26 1.969338 1_555
Li9 O25 1.996898 1_555
Li9 O13 2.343709 1_555
Li9 O32 2.562812 1_555
Li10 O20 1.916638 1_555
Li10 O14 1.958418 1_555
Li10 O24 2.025963 1_455
Li10 O26 2.053451 1_555
Li11 O28 1.981385 1_555
Li11 O21 2.021628 1_555
Li11 O22 2.061692 1_555
Li11 O34 2.069718 1_555
Li11 O15 2.540806 1_555
Li12 O21 2.000958 1_555
Li12 O27 2.017943 1_555
Li12 O33 2.035463 1_555
Li12 O23 2.239145 1_655
Li12 O17 2.335380 1_655
Li13 O24 2.027971 1_555
Li13 O31 2.036184 1_555
Li13 O30 2.135399 1_555
Li13 O1 2.222094 1_545
Li13 O18 2.331086 1_555
Li13 O25 2.558343 1_555
Li14 O35 1.992992 1_655
Li14 O33 2.020661 1_555
Li14 O3 2.035793 1_545
Li14 O29 2.062694 1_655
Li14 O9 2.599535 1_545
Co0 O8 1.885553 1_556
Co0 O31 1.889567 1_566
Co0 O28 1.892474 1_565
Co0 O5 1.892810 1_555
Co0 O32 1.919994 1_566
Co0 O4 1.928532 1_555
Co1 O2 1.949658 1_555
Co1 O10 1.972614 1_555
Co1 O14 2.024861 1_555
Co1 O1 2.033651 1_555
Co1 O34 2.037024 1_565
Co1 O11 2.098540 1_555
Co2 O35 1.880947 1_565
Co2 O0 1.882258 1_455
Co2 O2 1.889954 1_555
Co2 O11 1.894391 1_555
Co2 O9 1.917312 1_455
Co2 O12 1.917329 1_455
Co3 O15 1.899839 1_555
Co3 O7 1.968197 1_556
Co3 O19 2.002314 1_556
Co3 O16 2.051084 1_555
Co3 O3 2.076424 1_555
Co3 O6 2.099142 1_556
Co4 O6 1.934654 1_556
Co4 O17 1.992909 1_655
Co4 O5 2.012356 1_655
Co4 O8 2.061255 1_656
Co4 O15 2.068026 1_555
Co4 O18 2.080724 1_556
Co5 O25 1.876503 1_555
Co5 O13 1.882762 1_555
Co5 O22 1.897786 1_555
Co5 O12 1.906733 1_555
Co5 O9 1.916550 1_555
Co5 O21 1.934518 1_555
Co6 O14 1.865210 1_555
Co6 O26 1.891669 1_555
Co6 O10 1.923664 1_555
Co6 O13 1.930838 1_555
Co6 O23 1.934801 1_555
Co6 O22 1.935062 1_555
Co7 O32 1.936147 1_556
Co7 O16 2.023843 1_555
Co7 O28 2.031426 1_555
Co7 O20 2.032818 1_556
Co7 O29 2.062673 1_555
Co7 O19 2.069287 1_556
Co8 O17 1.897027 1_655
Co8 O30 1.908227 1_556
Co8 O20 1.929111 1_656
Co8 O29 1.929430 1_655
Co8 O27 2.004182 1_555
Co8 O18 2.006045 1_556
Co9 O1 1.981618 1_545
Co9 O25 1.994637 1_555
Co9 O34 2.009370 1_555
Co9 O24 2.027514 1_555
Co9 O33 2.037011 1_555
Co9 O21 2.047145 1_555
Co10 O33 1.981299 1_455
Co10 O26 1.984575 1_555
Co10 O0 1.996478 1_445
Co10 O35 2.040235 1_555
Co10 O24 2.053309 1_455
Co10 O23 2.073715 1_555
Co11 O3 1.871797 1_555
Co11 O31 1.885419 1_566
Co11 O4 1.895478 1_555
Co11 O7 1.896295 1_556
Co11 O30 1.896445 1_566
Co11 O27 1.922896 1_565
Ni0 O5 2.055212 1_655
Ni0 O32 2.069739 1_666
Ni0 O30 2.095375 1_566
Ni0 O6 2.097464 1_556
Ni0 O3 2.114257 1_555
Ni0 O29 2.118181 1_665
Ni1 O1 2.058033 1_555
Ni1 O10 2.059066 1_555
Ni1 O9 2.079695 1_555
Ni1 O0 2.081995 1_555
Ni1 O13 2.089712 1_555
Ni1 O33 2.114373 1_565
Ni2 O16 1.897189 1_555
Ni2 O8 1.905062 1_556
Ni2 O20 1.937836 1_556
Ni2 O4 1.946184 1_555
Ni2 O7 2.121558 1_556
Ni2 O17 2.185174 1_555
Ni3 O24 1.901640 1_455
Ni3 O11 1.911841 1_555
Ni3 O23 1.937962 1_555
Ni3 O12 1.942723 1_455
Ni3 O14 2.089274 1_555
Ni3 O21 2.142982 1_455
Ni4 O18 1.882779 1_556
Ni4 O28 1.908898 1_555
Ni4 O19 1.916642 1_556
Ni4 O27 1.940225 1_555
Ni4 O15 2.121455 1_555
Ni4 O31 2.128404 1_556
Ni5 O35 2.060245 1_555
Ni5 O2 2.066699 1_545
Ni5 O26 2.076091 1_555
Ni5 O25 2.088304 1_555
Ni5 O34 2.093389 1_555
Ni5 O22 2.130253 1_555
