# generated using pymatgen
data_Fe(SO4)2
_symmetry_space_group_name_H-M   'P 1'
_cell_length_a   8.94592682
_cell_length_b   8.94592682
_cell_length_c   8.94592698
_cell_angle_alpha   55.71331887
_cell_angle_beta   55.71331887
_cell_angle_gamma   55.71331565
_symmetry_Int_Tables_number   1
_chemical_formula_structural   Fe(SO4)2
_chemical_formula_sum   'Fe3 S6 O24'
_cell_volume   455.90593403
_cell_formula_units_Z   3
loop_
 _symmetry_equiv_pos_site_id
 _symmetry_equiv_pos_as_xyz
  1  'x, y, z'
loop_
 _atom_site_type_symbol
 _atom_site_label
 _atom_site_symmetry_multiplicity
 _atom_site_fract_x
 _atom_site_fract_y
 _atom_site_fract_z
 _atom_site_occupancy
  Fe  Fe0  1  0.85115900  0.85115900  0.85115900  1
  Fe  Fe1  1  0.35608700  0.35608700  0.35608700  1
  Fe  Fe2  1  0.15066600  0.15066600  0.15066600  1
  S  S0  1  0.95853100  0.24762400  0.54116100  1
  S  S1  1  0.54116100  0.95853100  0.24762400  1
  S  S2  1  0.24762400  0.54116100  0.95853100  1
  S  S3  1  0.75129900  0.45805900  0.04234700  1
  S  S4  1  0.45805900  0.04234700  0.75129900  1
  S  S5  1  0.04234700  0.75129900  0.45805900  1
  O  O0  1  0.88881700  0.71082100  0.48719800  1
  O  O1  1  0.71082100  0.48719800  0.88881700  1
  O  O2  1  0.99379200  0.03879400  0.66910600  1
  O  O3  1  0.48719800  0.88881700  0.71082100  1
  O  O4  1  0.97808200  0.27898500  0.34718400  1
  O  O5  1  0.76244400  0.37263900  0.62006200  1
  O  O6  1  0.62006200  0.76244400  0.37263900  1
  O  O7  1  0.66910600  0.99379200  0.03879400  1
  O  O8  1  0.37263900  0.62006200  0.76244400  1
  O  O9  1  0.95594300  0.32228100  0.02216500  1
  O  O10  1  0.72468500  0.64765800  0.02515100  1
  O  O11  1  0.64765800  0.02515100  0.72468500  1
  O  O12  1  0.34718400  0.97808200  0.27898500  1
  O  O13  1  0.27898500  0.34718400  0.97808200  1
  O  O14  1  0.03879400  0.66910600  0.99379200  1
  O  O15  1  0.61900800  0.37612000  0.24024600  1
  O  O16  1  0.32228100  0.02216500  0.95594300  1
  O  O17  1  0.37612000  0.24024600  0.61900800  1
  O  O18  1  0.24024600  0.61900800  0.37612000  1
  O  O19  1  0.02515100  0.72468500  0.64765800  1
  O  O20  1  0.51096500  0.10995800  0.29600200  1
  O  O21  1  0.02216500  0.95594300  0.32228100  1
  O  O22  1  0.29600200  0.51096500  0.10995800  1
  O  O23  1  0.10995800  0.29600200  0.51096500  1
loop_
_geom_bond_atom_site_label_1
_geom_bond_atom_site_label_2
_geom_bond_distance
_geom_bond_site_symmetry_2
Fe0 O14 2.022352 1_655
Fe0 O7 2.022352 1_556
Fe0 O2 2.022353 1_565
Fe0 O11 2.039865 1_565
Fe0 O19 2.039865 1_655
Fe0 O10 2.039865 1_556
Fe1 O20 2.028293 1_555
Fe1 O22 2.028293 1_555
Fe1 O23 2.028293 1_555
Fe1 O18 2.039056 1_555
Fe1 O15 2.039056 1_555
Fe1 O17 2.039056 1_555
Fe2 O9 1.991880 1_455
Fe2 O16 1.991880 1_554
Fe2 O21 1.991880 1_545
Fe2 O12 2.002741 1_545
Fe2 O4 2.002741 1_455
Fe2 O13 2.002741 1_554
O0 S5 1.461544 1_655
O1 S3 1.461544 1_556
O2 S0 1.494444 1_555
O3 S4 1.461544 1_565
O4 S0 1.511754 1_555
O5 S0 1.452641 1_555
O6 S1 1.452642 1_555
O7 S1 1.494444 1_555
O8 S2 1.452642 1_555
O9 S3 1.492937 1_555
O10 S3 1.499849 1_555
O11 S4 1.499849 1_555
O12 S1 1.511754 1_555
O13 S2 1.511754 1_555
O14 S2 1.494444 1_555
O15 S3 1.492272 1_555
O16 S4 1.492938 1_555
O17 S4 1.492272 1_555
O18 S5 1.492272 1_555
O19 S5 1.499849 1_555
O20 S1 1.487245 1_545
O21 S5 1.492937 1_555
O22 S2 1.487245 1_554
O23 S0 1.487245 1_455
