# generated using pymatgen
data_Li3FeO4
_symmetry_space_group_name_H-M   'P 1'
_cell_length_a   5.02390408
_cell_length_b   10.20119917
_cell_length_c   9.77647627
_cell_angle_alpha   16.45387831
_cell_angle_beta   29.31319795
_cell_angle_gamma   33.23079839
_symmetry_Int_Tables_number   1
_chemical_formula_structural   Li3FeO4
_chemical_formula_sum   'Li3 Fe1 O4'
_cell_volume   69.48016048
_cell_formula_units_Z   1
loop_
 _symmetry_equiv_pos_site_id
 _symmetry_equiv_pos_as_xyz
  1  'x, y, z'
loop_
 _atom_site_type_symbol
 _atom_site_label
 _atom_site_symmetry_multiplicity
 _atom_site_fract_x
 _atom_site_fract_y
 _atom_site_fract_z
 _atom_site_occupancy
  Li  Li0  1  0.00446900  0.99391400  0.00365800  1
  Li  Li1  1  0.98854000  0.49322000  0.00971800  1
  Li  Li2  1  0.50313300  0.99553500  0.50116000  1
  Fe  Fe0  1  0.50488100  0.49271600  0.50493400  1
  O  O0  1  0.27474500  0.99157600  0.23566400  1
  O  O1  1  0.19101400  0.49070000  0.27798200  1
  O  O2  1  0.73386200  0.99376600  0.77462300  1
  O  O3  1  0.82162400  0.49579800  0.72917800  1
loop_
_geom_bond_atom_site_label_1
_geom_bond_atom_site_label_2
_geom_bond_distance
_geom_bond_site_symmetry_2
Li0 O0 2.031393 1_455
Li0 O2 2.032188 1_554
Li0 O1 2.069113 1_564
Li0 O3 2.070921 1_455
Li0 O3 2.082264 1_464
Li0 O1 2.085772 1_555
Li1 O0 2.154180 1_654
Li1 O1 2.156429 1_555
Li1 O2 2.157924 1_545
Li1 O2 2.163463 1_554
Li1 O0 2.163682 1_645
Li1 O3 2.251075 1_654
Li2 O2 2.022253 1_455
Li2 O0 2.039164 1_655
Li2 O3 2.070913 1_564
Li2 O3 2.072347 1_555
Li2 O1 2.076180 1_565
Li2 O1 2.092930 1_556
Fe0 O3 1.848824 1_455
Fe0 O1 1.853819 1_655
Fe0 O0 1.983148 1_555
Fe0 O2 1.983685 1_545
Fe0 O0 1.984923 1_546
Fe0 O2 1.985068 1_554
