# generated using pymatgen
data_LuBO3
_symmetry_space_group_name_H-M   'P 1'
_cell_length_a   4.60040527
_cell_length_b   4.60040527
_cell_length_c   7.96624800
_cell_angle_alpha   90.00000000
_cell_angle_beta   90.00000000
_cell_angle_gamma   135.72866937
_symmetry_Int_Tables_number   1
_chemical_formula_structural   LuBO3
_chemical_formula_sum   'Lu2 B2 O6'
_cell_volume   117.68929087
_cell_formula_units_Z   2
loop_
 _symmetry_equiv_pos_site_id
 _symmetry_equiv_pos_as_xyz
  1  'x, y, z'
loop_
 _atom_site_type_symbol
 _atom_site_label
 _atom_site_symmetry_multiplicity
 _atom_site_fract_x
 _atom_site_fract_y
 _atom_site_fract_z
 _atom_site_occupancy
  Lu  Lu0  1  0.00000000  0.00000000  0.00000000  1
  Lu  Lu1  1  0.00000000  0.00000000  0.50000000  1
  B  B0  1  0.28186300  0.71813700  0.25000000  1
  B  B1  1  0.71813700  0.28186300  0.75000000  1
  O  O0  1  0.12089700  0.87910300  0.25000000  1
  O  O1  1  0.36494500  0.63505500  0.09999300  1
  O  O2  1  0.36494500  0.63505500  0.40000700  1
  O  O3  1  0.63505500  0.36494500  0.59999300  1
  O  O4  1  0.63505500  0.36494500  0.90000700  1
  O  O5  1  0.87910300  0.12089700  0.75000000  1
loop_
_geom_bond_atom_site_label_1
_geom_bond_atom_site_label_2
_geom_bond_distance
_geom_bond_site_symmetry_2
Lu0 O4 2.228046 1_444
Lu0 O1 2.228046 1_445
Lu0 O4 2.228046 1_554
Lu0 O1 2.228046 1_555
Lu0 O0 2.242313 1_545
Lu0 O5 2.242313 1_454
Lu1 O3 2.228046 1_445
Lu1 O2 2.228046 1_445
Lu1 O3 2.228046 1_555
Lu1 O2 2.228046 1_555
Lu1 O5 2.242313 1_455
Lu1 O0 2.242313 1_545
B0 O0 1.371858 1_555
B0 O1 1.389023 1_555
B0 O2 1.389023 1_555
B1 O5 1.371858 1_555
B1 O3 1.389023 1_555
B1 O4 1.389023 1_555
