# generated using pymatgen
data_LiVF3
_symmetry_space_group_name_H-M   'P 1'
_cell_length_a   5.61968400
_cell_length_b   3.26982900
_cell_length_c   6.70365029
_cell_angle_alpha   75.84122078
_cell_angle_beta   90.00000000
_cell_angle_gamma   90.00000000
_symmetry_Int_Tables_number   1
_chemical_formula_structural   LiVF3
_chemical_formula_sum   'Li2 V2 F6'
_cell_volume   119.44021064
_cell_formula_units_Z   2
loop_
 _symmetry_equiv_pos_site_id
 _symmetry_equiv_pos_as_xyz
  1  'x, y, z'
loop_
 _atom_site_type_symbol
 _atom_site_label
 _atom_site_symmetry_multiplicity
 _atom_site_fract_x
 _atom_site_fract_y
 _atom_site_fract_z
 _atom_site_occupancy
  Li  Li0  1  0.25000000  0.92799800  0.12767600  1
  Li  Li1  1  0.75000000  0.07200200  0.87232400  1
  V  V0  1  0.25000000  0.66502200  0.66686000  1
  V  V1  1  0.75000000  0.33497800  0.33314000  1
  F  F0  1  0.99701900  0.83665400  0.32921300  1
  F  F1  1  0.50298100  0.83665400  0.32921300  1
  F  F2  1  0.25000000  0.49967300  0.98452600  1
  F  F3  1  0.75000000  0.50032700  0.01547400  1
  F  F4  1  0.49701900  0.16334600  0.67078700  1
  F  F5  1  0.00298100  0.16334600  0.67078700  1
loop_
_geom_bond_atom_site_label_1
_geom_bond_atom_site_label_2
_geom_bond_distance
_geom_bond_site_symmetry_2
F0 Li0 1.933454 1_655
F0 V1 2.144172 1_555
F0 V1 2.145634 1_565
F0 V0 2.614947 1_655
F1 Li0 1.933454 1_555
F1 V1 2.144172 1_555
F1 V1 2.145634 1_565
F1 V0 2.614947 1_555
F2 Li0 1.880830 1_546
F2 Li0 1.881472 1_556
F2 V0 2.064925 1_555
F3 Li1 1.880830 1_564
F3 Li1 1.881472 1_554
F3 V1 2.064925 1_555
F4 Li1 1.933454 1_555
F4 V0 2.144172 1_555
F4 V0 2.145634 1_545
F4 V1 2.614947 1_555
F5 Li1 1.933454 1_455
F5 V0 2.144172 1_555
F5 V0 2.145634 1_545
F5 V1 2.614947 1_455
