# generated using pymatgen
data_Na3MnBAsO7
_symmetry_space_group_name_H-M   'P 1'
_cell_length_a   5.28798920
_cell_length_b   11.49068346
_cell_length_c   11.48574705
_cell_angle_alpha   102.33239959
_cell_angle_beta   91.61020082
_cell_angle_gamma   88.38149425
_symmetry_Int_Tables_number   1
_chemical_formula_structural   Na3MnBAsO7
_chemical_formula_sum   'Na12 Mn4 B4 As4 O28'
_cell_volume   681.35376624
_cell_formula_units_Z   4
loop_
 _symmetry_equiv_pos_site_id
 _symmetry_equiv_pos_as_xyz
  1  'x, y, z'
loop_
 _atom_site_type_symbol
 _atom_site_label
 _atom_site_symmetry_multiplicity
 _atom_site_fract_x
 _atom_site_fract_y
 _atom_site_fract_z
 _atom_site_occupancy
  Na  Na0  1  0.76533700  0.16350500  0.08640300  1
  Na  Na1  1  0.76531000  0.66349500  0.58638700  1
  Na  Na2  1  0.23468400  0.83652300  0.91360200  1
  Na  Na3  1  0.23469800  0.33651900  0.41358400  1
  Na  Na4  1  0.25490800  0.12798900  0.87668400  1
  Na  Na5  1  0.25485000  0.62793800  0.37667800  1
  Na  Na6  1  0.25484200  0.37325500  0.12217800  1
  Na  Na7  1  0.25486100  0.87326600  0.62213900  1
  Na  Na8  1  0.74518100  0.62672500  0.87781400  1
  Na  Na9  1  0.74516300  0.12673300  0.37781700  1
  Na  Na10  1  0.74513700  0.87205400  0.12329800  1
  Na  Na11  1  0.74514100  0.37200400  0.62326200  1
  Mn  Mn0  1  0.78365700  0.04042700  0.70978200  1
  Mn  Mn1  1  0.21616900  0.95962500  0.29034300  1
  Mn  Mn2  1  0.78411000  0.54035200  0.20972400  1
  Mn  Mn3  1  0.21602900  0.45954600  0.79025700  1
  B  B0  1  0.72198100  0.40704700  0.34298400  1
  B  B1  1  0.72195200  0.90706700  0.84298700  1
  B  B2  1  0.27806000  0.59295500  0.65699500  1
  B  B3  1  0.27800500  0.09296700  0.15703300  1
  As  As0  1  0.71893500  0.33434300  0.91572200  1
  As  As1  1  0.71896600  0.83433700  0.41573300  1
  As  As2  1  0.28109200  0.66566200  0.08427200  1
  As  As3  1  0.28099300  0.16565800  0.58427400  1
  O  O0  1  0.31108500  0.16689300  0.08315600  1
  O  O1  1  0.31108200  0.66689000  0.58314200  1
  O  O2  1  0.68893000  0.83312200  0.91688100  1
  O  O3  1  0.68896100  0.33309600  0.41687100  1
  O  O4  1  0.95849500  0.44092000  0.30908200  1
  O  O5  1  0.95836400  0.94097500  0.80905200  1
  O  O6  1  0.04155400  0.55903500  0.69090100  1
  O  O7  1  0.04154600  0.05907600  0.19095900  1
  O  O8  1  0.52639900  0.46284500  0.28732600  1
  O  O9  1  0.52626600  0.96285500  0.78734100  1
  O  O10  1  0.47365800  0.53712600  0.71266200  1
  O  O11  1  0.47365500  0.03715500  0.21270200  1
  O  O12  1  0.39610600  0.35844200  0.89153100  1
  O  O13  1  0.39610700  0.85848000  0.39157500  1
  O  O14  1  0.60392400  0.64151800  0.10846800  1
  O  O15  1  0.60384000  0.14155200  0.60844000  1
  O  O16  1  0.12896300  0.58213000  0.16769600  1
  O  O17  1  0.12886100  0.08215500  0.66770800  1
  O  O18  1  0.87105100  0.41784900  0.83228400  1
  O  O19  1  0.87107900  0.91787700  0.33231200  1
  O  O20  1  0.78844600  0.18482200  0.87637400  1
  O  O21  1  0.78843600  0.68481900  0.37639000  1
  O  O22  1  0.78822200  0.37349200  0.06531000  1
  O  O23  1  0.78820400  0.87348600  0.56531800  1
  O  O24  1  0.21179200  0.62651000  0.93467700  1
  O  O25  1  0.21178900  0.12651900  0.43467200  1
  O  O26  1  0.21156200  0.81518400  0.12362800  1
  O  O27  1  0.21156200  0.31518500  0.62359300  1
loop_
_geom_bond_atom_site_label_1
_geom_bond_atom_site_label_2
_geom_bond_distance
_geom_bond_site_symmetry_2
Na0 O7 2.330961 1_655
Na0 O0 2.400666 1_555
Na0 O22 2.482589 1_555
Na0 O20 2.482939 1_554
Na0 O11 2.782651 1_555
Na0 O0 2.888667 1_655
Na1 O6 2.330995 1_655
Na1 O1 2.400538 1_555
Na1 O23 2.482554 1_555
Na1 O21 2.482605 1_555
Na1 O10 2.782521 1_555
Na1 O1 2.888796 1_655
Na2 O5 2.331431 1_455
Na2 O2 2.400629 1_555
Na2 O24 2.482825 1_555
Na2 O26 2.482988 1_556
Na2 O9 2.781925 1_555
Na2 O2 2.888721 1_455
Na3 O4 2.330370 1_455
Na3 O3 2.400716 1_555
Na3 O25 2.482730 1_555
Na3 O27 2.482782 1_555
Na3 O8 2.782225 1_555
Na3 O3 2.888647 1_455
Na4 O0 2.329611 1_556
Na4 O9 2.410347 1_545
Na4 O17 2.423376 1_555
Na4 O20 2.533838 1_455
Na4 O5 2.662539 1_445
Na4 O12 2.740519 1_555
Na4 O20 2.914121 1_555
Na5 O1 2.329539 1_555
Na5 O8 2.410647 1_555
Na5 O16 2.423222 1_555
Na5 O21 2.533713 1_455
Na5 O4 2.661929 1_455
Na5 O13 2.741507 1_555
Na5 O21 2.914488 1_555
Na6 O0 2.329331 1_555
Na6 O8 2.411673 1_555
Na6 O16 2.422865 1_555
Na6 O22 2.534741 1_455
Na6 O4 2.660070 1_455
Na6 O12 2.741608 1_554
Na6 O22 2.913182 1_555
Na7 O1 2.329482 1_555
Na7 O9 2.411620 1_555
Na7 O17 2.423185 1_565
Na7 O23 2.534800 1_455
Na7 O5 2.660679 1_455
Na7 O13 2.740711 1_555
Na7 O23 2.912841 1_555
Na8 O2 2.329716 1_555
Na8 O10 2.411627 1_555
Na8 O18 2.422865 1_555
Na8 O24 2.534674 1_655
Na8 O6 2.660261 1_655
Na8 O14 2.741709 1_556
Na8 O24 2.913195 1_555
Na9 O3 2.329312 1_555
Na9 O11 2.411226 1_555
Na9 O19 2.422708 1_545
Na9 O25 2.534729 1_655
Na9 O7 2.659773 1_655
Na9 O15 2.741425 1_555
Na9 O25 2.913094 1_555
Na10 O2 2.329005 1_554
Na10 O11 2.410666 1_565
Na10 O19 2.423643 1_555
Na10 O26 2.533754 1_655
Na10 O7 2.662213 1_665
Na10 O14 2.741488 1_555
Na10 O26 2.914436 1_555
Na11 O3 2.328706 1_555
Na11 O10 2.410820 1_555
Na11 O18 2.423689 1_555
Na11 O27 2.533598 1_655
Na11 O6 2.662278 1_655
Na11 O15 2.740714 1_555
Na11 O27 2.914310 1_555
Mn0 O5 1.974135 1_545
Mn0 O9 1.979010 1_545
Mn0 O17 1.998411 1_655
Mn0 O15 2.015540 1_555
Mn0 O20 2.249068 1_555
Mn0 O23 2.252447 1_545
Mn1 O7 1.974835 1_565
Mn1 O11 1.979628 1_565
Mn1 O19 1.997541 1_455
Mn1 O13 2.015111 1_555
Mn1 O26 2.250333 1_555
Mn1 O25 2.251206 1_565
Mn2 O4 1.973931 1_555
Mn2 O8 1.980074 1_555
Mn2 O16 1.996705 1_655
Mn2 O14 2.016043 1_555
Mn2 O21 2.250098 1_555
Mn2 O22 2.251467 1_555
Mn3 O6 1.974574 1_555
Mn3 O10 1.980194 1_555
Mn3 O18 1.997018 1_455
Mn3 O12 2.015443 1_555
Mn3 O27 2.249410 1_555
Mn3 O24 2.252339 1_555
B0 O3 1.340715 1_555
B0 O4 1.409588 1_555
B0 O8 1.410626 1_555
B1 O2 1.340725 1_555
B1 O5 1.409382 1_555
B1 O9 1.410881 1_555
B2 O1 1.340273 1_555
B2 O6 1.409761 1_555
B2 O10 1.410930 1_555
B3 O0 1.340457 1_555
B3 O7 1.409499 1_555
B3 O11 1.411033 1_555
As0 O22 1.712411 1_556
As0 O20 1.712659 1_555
As0 O18 1.722186 1_555
As0 O12 1.745748 1_555
As1 O23 1.712329 1_555
As1 O21 1.712581 1_555
As1 O19 1.722313 1_555
As1 O13 1.745922 1_555
As2 O24 1.712502 1_554
As2 O26 1.712694 1_555
As2 O16 1.722315 1_555
As2 O14 1.745858 1_555
As3 O25 1.712472 1_555
As3 O27 1.712623 1_555
As3 O17 1.722172 1_555
As3 O15 1.745806 1_555
