# generated using pymatgen
data_Li5Ti3Mn2(PO4)6
_symmetry_space_group_name_H-M   'P 1'
_cell_length_a   8.52967908
_cell_length_b   8.61100242
_cell_length_c   8.60783596
_cell_angle_alpha   62.61957827
_cell_angle_beta   63.08521256
_cell_angle_gamma   63.04280769
_symmetry_Int_Tables_number   1
_chemical_formula_structural   Li5Ti3Mn2(PO4)6
_chemical_formula_sum   'Li5 Ti3 Mn2 P6 O24'
_cell_volume   476.00061877
_cell_formula_units_Z   1
loop_
 _symmetry_equiv_pos_site_id
 _symmetry_equiv_pos_as_xyz
  1  'x, y, z'
loop_
 _atom_site_type_symbol
 _atom_site_label
 _atom_site_symmetry_multiplicity
 _atom_site_fract_x
 _atom_site_fract_y
 _atom_site_fract_z
 _atom_site_occupancy
  Li  Li0  1  0.75636200  0.14212000  0.35544500  1
  Li  Li1  1  0.19459700  0.85242200  0.66696600  1
  Li  Li2  1  0.66681700  0.19256700  0.85417100  1
  Li  Li3  1  0.85359900  0.66534500  0.19419900  1
  Li  Li4  1  0.84183600  0.83640400  0.84252300  1
  Ti  Ti0  1  0.14830800  0.14755200  0.14332900  1
  Ti  Ti1  1  0.35482100  0.35753800  0.35516400  1
  Ti  Ti2  1  0.64793000  0.64884100  0.65278000  1
  Mn  Mn0  1  0.00874200  0.99738900  0.99128600  1
  Mn  Mn1  1  0.48567500  0.50571600  0.49952400  1
  P  P0  1  0.25381600  0.54419600  0.95742000  1
  P  P1  1  0.55104400  0.95828600  0.25495700  1
  P  P2  1  0.95074800  0.25313800  0.54347600  1
  P  P3  1  0.05084100  0.75427800  0.45096700  1
  P  P4  1  0.45106300  0.05109500  0.75598600  1
  P  P5  1  0.75453800  0.45010600  0.05306600  1
  O  O0  1  0.11064400  0.32346200  0.48540900  1
  O  O1  1  0.33404600  0.49472600  0.10679600  1
  O  O2  1  0.04943200  0.91770400  0.26409700  1
  O  O3  1  0.52235100  0.10707600  0.32567400  1
  O  O4  1  0.03006800  0.81163200  0.60332200  1
  O  O5  1  0.24043600  0.59933700  0.41930700  1
  O  O6  1  0.25782800  0.06989000  0.90728200  1
  O  O7  1  0.43810900  0.23707800  0.58970700  1
  O  O8  1  0.18610500  0.39001500  0.99323600  1
  O  O9  1  0.60197000  0.41831100  0.24851300  1
  O  O10  1  0.09934200  0.73324100  0.94830900  1
  O  O11  1  0.38599800  0.00358300  0.19565700  1
  O  O12  1  0.60554000  0.02475600  0.81687500  1
  O  O13  1  0.90363000  0.25277800  0.07475500  1
  O  O14  1  0.40237000  0.57110700  0.75957400  1
  O  O15  1  0.81573900  0.60112400  0.02894000  1
  O  O16  1  0.56878700  0.76200400  0.40640000  1
  O  O17  1  0.73865400  0.94305900  0.09833800  1
  O  O18  1  0.75524000  0.40437900  0.57528700  1
  O  O19  1  0.96815000  0.19248500  0.39105200  1
  O  O20  1  0.48693800  0.89008700  0.69504600  1
  O  O21  1  0.94873200  0.09684900  0.73125200  1
  O  O22  1  0.69089400  0.48552500  0.89446500  1
  O  O23  1  0.88825900  0.68980100  0.49244600  1
loop_
_geom_bond_atom_site_label_1
_geom_bond_atom_site_label_2
_geom_bond_distance
_geom_bond_site_symmetry_2
Li0 O9 2.117071 1_555
Li0 O13 2.131546 1_555
Li0 O19 2.208907 1_555
Li0 O3 2.285000 1_555
Li0 O2 2.416595 1_645
Li0 O7 2.579198 1_555
Li1 O4 1.926892 1_555
Li1 O10 2.065637 1_555
Li1 O21 2.270017 1_465
Li1 O14 2.292349 1_555
Li2 O12 1.930730 1_555
Li2 O21 2.069529 1_555
Li2 O17 2.286436 1_546
Li2 O18 2.288908 1_555
Li3 O15 1.932627 1_555
Li3 O17 2.037792 1_555
Li3 O10 2.274141 1_654
Li3 O16 2.340673 1_555
Li4 O15 1.955596 1_556
Li4 O12 1.962481 1_565
Li4 O4 1.990828 1_655
Li4 O10 2.395897 1_655
Li4 O17 2.416543 1_556
Li4 O21 2.421979 1_565
Mn0 O6 2.196169 1_565
Mn0 O10 2.197551 1_555
Mn0 O21 2.209563 1_465
Mn0 O17 2.243673 1_456
Mn0 O2 2.268417 1_556
Mn0 O13 2.288853 1_466
Mn1 O5 2.183819 1_555
Mn1 O7 2.243302 1_555
Mn1 O9 2.257745 1_555
Mn1 O14 2.278002 1_555
Mn1 O16 2.300513 1_555
Mn1 O18 2.342768 1_555
O0 P2 1.526398 1_455
O0 Ti1 1.954076 1_555
O1 P0 1.526953 1_554
O1 Ti1 1.956472 1_555
O2 P3 1.577350 1_555
O2 Ti0 2.129901 1_565
O3 P1 1.539537 1_545
O3 Ti1 2.034414 1_555
O4 P3 1.516981 1_555
O5 P3 1.564880 1_555
O5 Ti1 2.078443 1_555
O6 P4 1.564485 1_555
O6 Ti0 2.100793 1_556
O7 P4 1.581139 1_555
O7 Ti1 2.088254 1_555
O8 P0 1.532580 1_555
O8 Ti0 1.970874 1_556
O9 P5 1.586234 1_555
O9 Ti1 2.089731 1_555
O10 P0 1.556811 1_555
O11 P1 1.537580 1_545
O11 Ti0 1.970928 1_555
O12 P4 1.518965 1_555
O13 P5 1.582198 1_555
O13 Ti0 2.105690 1_655
O14 P0 1.584036 1_555
O14 Ti2 2.154586 1_555
O15 P5 1.508526 1_555
O16 P1 1.580851 1_555
O16 Ti2 2.168393 1_555
O17 P1 1.553938 1_555
O18 P2 1.580366 1_555
O18 Ti2 2.169310 1_555
O19 P2 1.549179 1_555
O19 Ti0 2.076372 1_655
O20 P4 1.558842 1_565
O20 Ti2 1.997507 1_555
O21 P2 1.555334 1_555
O22 P5 1.545764 1_556
O22 Ti2 1.992979 1_555
O23 P3 1.557676 1_655
O23 Ti2 1.969221 1_555
