# generated using pymatgen
data_Li4ZrO4
_symmetry_space_group_name_H-M   'P 1'
_cell_length_a   5.58378218
_cell_length_b   5.58378218
_cell_length_c   6.46217700
_cell_angle_alpha   90.00000000
_cell_angle_beta   90.00000000
_cell_angle_gamma   95.89577988
_symmetry_Int_Tables_number   1
_chemical_formula_structural   Li4ZrO4
_chemical_formula_sum   'Li8 Zr2 O8'
_cell_volume   200.41602219
_cell_formula_units_Z   2
loop_
 _symmetry_equiv_pos_site_id
 _symmetry_equiv_pos_as_xyz
  1  'x, y, z'
loop_
 _atom_site_type_symbol
 _atom_site_label
 _atom_site_symmetry_multiplicity
 _atom_site_fract_x
 _atom_site_fract_y
 _atom_site_fract_z
 _atom_site_occupancy
  Li  Li0  1  0.84349600  0.15650400  0.00000000  1
  Li  Li1  1  0.84349600  0.15650400  0.50000000  1
  Li  Li2  1  0.88186500  0.59855000  0.25000000  1
  Li  Li3  1  0.40145000  0.11813500  0.75000000  1
  Li  Li4  1  0.59855000  0.88186500  0.25000000  1
  Li  Li5  1  0.11813500  0.40145000  0.75000000  1
  Li  Li6  1  0.15650400  0.84349600  0.00000000  1
  Li  Li7  1  0.15650400  0.84349600  0.50000000  1
  Zr  Zr0  1  0.65426700  0.65426700  0.75000000  1
  Zr  Zr1  1  0.34573300  0.34573300  0.25000000  1
  O  O0  1  0.69057500  0.27320400  0.25000000  1
  O  O1  1  0.72679600  0.30942500  0.75000000  1
  O  O2  1  0.20195200  0.20195200  0.51103600  1
  O  O3  1  0.20195200  0.20195200  0.98896400  1
  O  O4  1  0.79804800  0.79804800  0.01103600  1
  O  O5  1  0.79804800  0.79804800  0.48896400  1
  O  O6  1  0.27320400  0.69057500  0.25000000  1
  O  O7  1  0.30942500  0.72679600  0.75000000  1
loop_
_geom_bond_atom_site_label_1
_geom_bond_atom_site_label_2
_geom_bond_distance
_geom_bond_site_symmetry_2
Li0 O1 1.969268 1_554
Li0 O0 1.969268 1_555
Li0 O4 1.992812 1_545
Li0 O3 1.992812 1_654
Li1 O1 1.969268 1_555
Li1 O0 1.969268 1_555
Li1 O5 1.992812 1_545
Li1 O2 1.992812 1_655
Li2 O5 1.987882 1_555
Li2 O4 1.987882 1_555
Li2 O0 2.010598 1_555
Li2 O6 2.192773 1_655
Li3 O3 1.987882 1_555
Li3 O2 1.987882 1_555
Li3 O1 2.010598 1_555
Li3 O7 2.192773 1_545
Li4 O5 1.987882 1_555
Li4 O4 1.987882 1_555
Li4 O6 2.010598 1_555
Li4 O0 2.192773 1_565
Li5 O3 1.987882 1_555
Li5 O2 1.987882 1_555
Li5 O7 2.010598 1_555
Li5 O1 2.192773 1_455
Li6 O7 1.969268 1_554
Li6 O6 1.969268 1_555
Li6 O4 1.992812 1_455
Li6 O3 1.992812 1_564
Li7 O7 1.969268 1_555
Li7 O6 1.969268 1_555
Li7 O5 1.992812 1_455
Li7 O2 1.992812 1_565
O0 Zr1 2.007948 1_555
O1 Zr0 2.007948 1_555
O2 Zr1 2.000548 1_555
O3 Zr1 2.000548 1_556
O4 Zr0 2.000548 1_554
O5 Zr0 2.000548 1_555
O6 Zr1 2.007948 1_555
O7 Zr0 2.007948 1_555
