# generated using pymatgen
data_Ce2H16S3O20
_symmetry_space_group_name_H-M   'P 1'
_cell_length_a   7.49634948
_cell_length_b   7.49634948
_cell_length_c   20.90578648
_cell_angle_alpha   83.57136219
_cell_angle_beta   83.57136219
_cell_angle_gamma   63.58005795
_symmetry_Int_Tables_number   1
_chemical_formula_structural   Ce2H16S3O20
_chemical_formula_sum   'Ce4 H32 S6 O40'
_cell_volume   1042.93771709
_cell_formula_units_Z   2
loop_
 _symmetry_equiv_pos_site_id
 _symmetry_equiv_pos_as_xyz
  1  'x, y, z'
loop_
 _atom_site_type_symbol
 _atom_site_label
 _atom_site_symmetry_multiplicity
 _atom_site_fract_x
 _atom_site_fract_y
 _atom_site_fract_z
 _atom_site_occupancy
  Ce  Ce0  1  0.10654200  0.26786400  0.09063500  1
  Ce  Ce1  1  0.73213600  0.89345800  0.40936500  1
  Ce  Ce2  1  0.89345800  0.73213600  0.90936500  1
  Ce  Ce3  1  0.26786400  0.10654200  0.59063500  1
  H  H0  1  0.48957100  0.13569100  0.99706500  1
  H  H1  1  0.86430900  0.51042900  0.50293500  1
  H  H2  1  0.51042900  0.86430900  0.00293500  1
  H  H3  1  0.13569100  0.48957100  0.49706500  1
  H  H4  1  0.22345900  0.65857000  0.97936100  1
  H  H5  1  0.34143000  0.77654100  0.52063900  1
  H  H6  1  0.77654100  0.34143000  0.02063900  1
  H  H7  1  0.65857000  0.22345900  0.47936100  1
  H  H8  1  0.17380100  0.42301700  0.27353300  1
  H  H9  1  0.57698300  0.82619900  0.22646700  1
  H  H10  1  0.82619900  0.57698300  0.72646700  1
  H  H11  1  0.42301700  0.17380100  0.77353300  1
  H  H12  1  0.30763600  0.38023100  0.16802000  1
  H  H13  1  0.61976900  0.69236400  0.33198000  1
  H  H14  1  0.69236400  0.61976900  0.83198000  1
  H  H15  1  0.38023100  0.30763600  0.66802000  1
  H  H16  1  0.55227300  0.42936700  0.12014600  1
  H  H17  1  0.57063300  0.44772700  0.37985400  1
  H  H18  1  0.44772700  0.57063300  0.87985400  1
  H  H19  1  0.42936700  0.55227300  0.62014600  1
  H  H20  1  0.79022600  0.14017200  0.05845700  1
  H  H21  1  0.85982800  0.20977400  0.44154300  1
  H  H22  1  0.20977400  0.85982800  0.94154300  1
  H  H23  1  0.14017200  0.79022600  0.55845700  1
  H  H24  1  0.54095700  0.81457100  0.19579400  1
  H  H25  1  0.18542900  0.45904300  0.30420600  1
  H  H26  1  0.45904300  0.18542900  0.80420600  1
  H  H27  1  0.81457100  0.54095700  0.69579400  1
  H  H28  1  0.37921900  0.61848700  0.15297500  1
  H  H29  1  0.38151300  0.62078100  0.34702500  1
  H  H30  1  0.62078100  0.38151300  0.84702500  1
  H  H31  1  0.61848700  0.37921900  0.65297500  1
  S  S0  1  0.04263700  0.27038000  0.92098300  1
  S  S1  1  0.72962000  0.95736300  0.57901700  1
  S  S2  1  0.95736300  0.72962000  0.07901700  1
  S  S3  1  0.27038000  0.04263700  0.42098300  1
  S  S4  1  0.76297500  0.23702500  0.25000000  1
  S  S5  1  0.23702500  0.76297500  0.75000000  1
  O  O0  1  0.14152100  0.11698900  0.97388500  1
  O  O1  1  0.88301100  0.85847900  0.52611500  1
  O  O2  1  0.85847900  0.88301100  0.02611500  1
  O  O3  1  0.11698900  0.14152100  0.47388500  1
  O  O4  1  0.16238200  0.38344800  0.89733500  1
  O  O5  1  0.61655200  0.83761800  0.60266500  1
  O  O6  1  0.83761800  0.61655200  0.10266500  1
  O  O7  1  0.38344800  0.16238200  0.39733500  1
  O  O8  1  0.85344800  0.43446500  0.95389100  1
  O  O9  1  0.56553500  0.14655200  0.54610900  1
  O  O10  1  0.14655200  0.56553500  0.04610900  1
  O  O11  1  0.43446500  0.85344800  0.45389100  1
  O  O12  1  0.99319500  0.18488400  0.87081800  1
  O  O13  1  0.81511600  0.00680500  0.62918200  1
  O  O14  1  0.00680500  0.81511600  0.12918200  1
  O  O15  1  0.18488400  0.99319500  0.37081800  1
  O  O16  1  0.91527900  0.19051300  0.19674000  1
  O  O17  1  0.80948700  0.08472100  0.30326000  1
  O  O18  1  0.08472100  0.80948700  0.80326000  1
  O  O19  1  0.19051300  0.91527900  0.69674000  1
  O  O20  1  0.46071400  0.47476800  0.15899600  1
  O  O21  1  0.52523200  0.53928600  0.34100400  1
  O  O22  1  0.53928600  0.52523200  0.84100400  1
  O  O23  1  0.47476800  0.46071400  0.65899600  1
  O  O24  1  0.44222300  0.16477900  0.04396400  1
  O  O25  1  0.83522100  0.55777700  0.45603600  1
  O  O26  1  0.55777700  0.83522100  0.95603600  1
  O  O27  1  0.16477900  0.44222300  0.54396400  1
  O  O28  1  0.21196800  0.31703900  0.16762200  1
  O  O29  1  0.68296100  0.78803200  0.33237800  1
  O  O30  1  0.78803200  0.68296100  0.83237800  1
  O  O31  1  0.31703900  0.21196800  0.66762200  1
  O  O32  1  0.77741300  0.27436800  0.06521100  1
  O  O33  1  0.72563200  0.22258700  0.43478900  1
  O  O34  1  0.22258700  0.72563200  0.93478900  1
  O  O35  1  0.27436800  0.77741300  0.56521100  1
  O  O36  1  0.40232100  0.99617000  0.06956900  1
  O  O37  1  0.00383000  0.59767900  0.43043100  1
  O  O38  1  0.59767900  0.00383000  0.93043100  1
  O  O39  1  0.99617000  0.40232100  0.56956900  1
loop_
_geom_bond_atom_site_label_1
_geom_bond_atom_site_label_2
_geom_bond_distance
_geom_bond_site_symmetry_2
Ce0 O28 2.006948 1_555
Ce0 O36 2.285149 1_545
Ce0 O24 2.402062 1_555
Ce0 O10 2.450249 1_555
Ce0 O6 2.510800 1_455
Ce0 O32 2.559899 1_455
Ce0 O16 2.655560 1_455
Ce0 O0 2.741559 1_554
Ce1 O29 2.006948 1_555
Ce1 O37 2.285149 1_655
Ce1 O25 2.402062 1_555
Ce1 O11 2.450249 1_555
Ce1 O7 2.510800 1_565
Ce1 O33 2.559899 1_565
Ce1 O17 2.655560 1_565
Ce1 O1 2.741559 1_555
Ce2 O30 2.006948 1_555
Ce2 O38 2.285149 1_565
Ce2 O26 2.402062 1_555
Ce2 O8 2.450249 1_555
Ce2 O4 2.510800 1_655
Ce2 O34 2.559899 1_655
Ce2 O18 2.655560 1_655
Ce2 O2 2.741559 1_556
Ce3 O31 2.006948 1_555
Ce3 O39 2.285149 1_455
Ce3 O27 2.402062 1_555
Ce3 O9 2.450249 1_555
Ce3 O5 2.510800 1_545
Ce3 O35 2.559899 1_545
Ce3 O19 2.655560 1_545
Ce3 O3 2.741559 1_555
H0 O24 1.017793 1_556
H0 O38 1.707946 1_555
H1 O25 1.017793 1_555
H1 O39 1.707946 1_555
H2 O26 1.017793 1_554
H2 O36 1.707946 1_555
H3 O27 1.017793 1_555
H3 O37 1.707946 1_555
H4 O34 1.007267 1_555
H4 O10 1.650969 1_556
H5 O35 1.007267 1_555
H5 O11 1.650969 1_555
H6 O32 1.007267 1_555
H6 O8 1.650969 1_554
H7 O33 1.007267 1_555
H7 O9 1.650969 1_555
H10 H27 0.750980 1_555
H11 H26 0.750980 1_555
H12 O28 1.021434 1_555
H12 O20 1.581111 1_555
H13 O29 1.021434 1_555
H13 O21 1.581111 1_555
H14 O30 1.021434 1_555
H14 O22 1.581111 1_555
H15 O31 1.021434 1_555
H15 O23 1.581111 1_555
H16 O20 0.987808 1_555
H17 O21 0.987808 1_555
H18 O22 0.987808 1_555
H19 O23 0.987808 1_555
H20 O32 0.991939 1_555
H21 O33 0.991939 1_555
H22 O34 0.991939 1_555
H23 O35 0.991939 1_555
H24 H9 0.750980 1_555
H25 H8 0.750980 1_555
H28 O20 0.975154 1_555
H29 O21 0.975154 1_555
H30 O22 0.975154 1_555
H31 O23 0.975154 1_555
O0 S0 1.495032 1_555
O1 S1 1.495032 1_555
O2 S2 1.495032 1_555
O3 S3 1.495032 1_555
O4 S0 1.500823 1_555
O5 S1 1.500823 1_555
O6 S2 1.500823 1_555
O7 S3 1.500823 1_555
O8 S0 1.554437 1_655
O9 S1 1.554437 1_545
O10 S2 1.554437 1_455
O11 S3 1.554437 1_565
O12 S0 1.448078 1_655
O13 S1 1.448078 1_545
O14 S2 1.448078 1_455
O15 S3 1.448078 1_565
O16 S4 1.453571 1_555
O17 S4 1.453571 1_555
O18 S5 1.453571 1_555
O19 S5 1.453571 1_555
O24 O36 1.456937 1_545
O25 O37 1.456937 1_655
O26 O38 1.456937 1_565
O27 O39 1.456937 1_455
