# generated using pymatgen
data_Na2Co6O7
_symmetry_space_group_name_H-M   'P 1'
_cell_length_a   10.85584200
_cell_length_b   10.85584200
_cell_length_c   3.24817100
_cell_angle_alpha   90.00000000
_cell_angle_beta   90.00000000
_cell_angle_gamma   90.00000000
_symmetry_Int_Tables_number   1
_chemical_formula_structural   Na2Co6O7
_chemical_formula_sum   'Na4 Co12 O14'
_cell_volume   382.79469659
_cell_formula_units_Z   2
loop_
 _symmetry_equiv_pos_site_id
 _symmetry_equiv_pos_as_xyz
  1  'x, y, z'
loop_
 _atom_site_type_symbol
 _atom_site_label
 _atom_site_symmetry_multiplicity
 _atom_site_fract_x
 _atom_site_fract_y
 _atom_site_fract_z
 _atom_site_occupancy
  Na  Na0  1  0.36118800  0.63881200  0.98478800  1
  Na  Na1  1  0.86118800  0.86118800  0.48478800  1
  Na  Na2  1  0.13881200  0.13881200  0.48478800  1
  Na  Na3  1  0.63881200  0.36118800  0.98478800  1
  Co  Co0  1  0.84504100  0.58747700  0.98815900  1
  Co  Co1  1  0.61909000  0.61909000  0.49727700  1
  Co  Co2  1  0.08747700  0.65495900  0.48815900  1
  Co  Co3  1  0.58747700  0.84504100  0.98815900  1
  Co  Co4  1  0.11909000  0.88091000  0.99727700  1
  Co  Co5  1  0.34504100  0.91252300  0.48815900  1
  Co  Co6  1  0.65495900  0.08747700  0.48815900  1
  Co  Co7  1  0.88091000  0.11909000  0.99727700  1
  Co  Co8  1  0.41252300  0.15495900  0.98815900  1
  Co  Co9  1  0.91252300  0.34504100  0.48815900  1
  Co  Co10  1  0.38091000  0.38091000  0.49727700  1
  Co  Co11  1  0.15495900  0.41252300  0.98815900  1
  O  O0  1  0.50000000  0.50000000  0.63596700  1
  O  O1  1  0.19619700  0.50963900  0.48808200  1
  O  O2  1  0.99036100  0.69619700  0.98808200  1
  O  O3  1  0.69587200  0.69587200  0.00298100  1
  O  O4  1  0.19587200  0.80412800  0.50298100  1
  O  O5  1  0.49036100  0.80380300  0.48808200  1
  O  O6  1  0.69619700  0.99036100  0.98808200  1
  O  O7  1  0.00000000  0.00000000  0.13596700  1
  O  O8  1  0.30380300  0.00963900  0.98808200  1
  O  O9  1  0.50963900  0.19619700  0.48808200  1
  O  O10  1  0.80412800  0.19587200  0.50298100  1
  O  O11  1  0.30412800  0.30412800  0.00298100  1
  O  O12  1  0.00963900  0.30380300  0.98808200  1
  O  O13  1  0.80380300  0.49036100  0.48808200  1
loop_
_geom_bond_atom_site_label_1
_geom_bond_atom_site_label_2
_geom_bond_distance
_geom_bond_site_symmetry_2
Na0 O0 2.413582 1_555
Na0 O5 2.788818 1_555
Na0 O1 2.788818 1_555
Na0 O5 2.801252 1_556
Na0 O1 2.801252 1_556
Na1 O7 2.413582 1_665
Na1 O2 2.788818 1_554
Na1 O6 2.788818 1_554
Na1 O6 2.801252 1_555
Na1 O2 2.801252 1_555
Na2 O7 2.413582 1_555
Na2 O12 2.788818 1_554
Na2 O8 2.788818 1_554
Na2 O8 2.801252 1_555
Na2 O12 2.801252 1_555
Na3 O0 2.413582 1_555
Na3 O13 2.788818 1_555
Na3 O9 2.788818 1_555
Na3 O13 2.801252 1_556
Na3 O9 2.801252 1_556
Co0 O2 1.970206 1_555
Co0 O13 1.987146 1_556
Co0 O13 1.987555 1_555
Co0 O3 2.002323 1_556
Co1 O0 1.883008 1_555
Co1 O3 1.991826 1_555
Co1 O3 2.021814 1_556
Co1 O13 2.444316 1_555
Co1 O5 2.444316 1_555
Co2 O1 1.970206 1_555
Co2 O2 1.987146 1_455
Co2 O2 1.987555 1_454
Co2 O4 2.002323 1_555
Co3 O6 1.970206 1_555
Co3 O5 1.987146 1_556
Co3 O5 1.987555 1_555
Co3 O3 2.002323 1_556
Co4 O7 1.883008 1_566
Co4 O4 1.991826 1_555
Co4 O4 2.021814 1_556
Co4 O8 2.444316 1_565
Co4 O2 2.444316 1_455
Co5 O5 1.970206 1_555
Co5 O8 1.987146 1_565
Co5 O8 1.987555 1_564
Co5 O4 2.002323 1_555
Co6 O9 1.970206 1_555
Co6 O6 1.987146 1_545
Co6 O6 1.987555 1_544
Co6 O10 2.002323 1_555
Co7 O7 1.883008 1_656
Co7 O10 1.991826 1_555
Co7 O10 2.021814 1_556
Co7 O12 2.444316 1_655
Co7 O6 2.444316 1_545
Co8 O8 1.970206 1_555
Co8 O9 1.987146 1_556
Co8 O9 1.987555 1_555
Co8 O11 2.002323 1_556
Co9 O13 1.970206 1_555
Co9 O12 1.987146 1_655
Co9 O12 1.987555 1_654
Co9 O10 2.002323 1_555
Co10 O0 1.883008 1_555
Co10 O11 1.991826 1_555
Co10 O11 2.021814 1_556
Co10 O9 2.444316 1_555
Co10 O1 2.444316 1_555
Co11 O12 1.970206 1_555
Co11 O1 1.987146 1_556
Co11 O1 1.987555 1_555
Co11 O11 2.002323 1_556
