# generated using pymatgen
data_V6O11F
_symmetry_space_group_name_H-M   'P 1'
_cell_length_a   5.47920456
_cell_length_b   5.47920456
_cell_length_c   7.23141351
_cell_angle_alpha   71.74156994
_cell_angle_beta   71.74156994
_cell_angle_gamma   71.54261739
_symmetry_Int_Tables_number   1
_chemical_formula_structural   V6O11F
_chemical_formula_sum   'V6 O11 F1'
_cell_volume   189.95881495
_cell_formula_units_Z   1
loop_
 _symmetry_equiv_pos_site_id
 _symmetry_equiv_pos_as_xyz
  1  'x, y, z'
loop_
 _atom_site_type_symbol
 _atom_site_label
 _atom_site_symmetry_multiplicity
 _atom_site_fract_x
 _atom_site_fract_y
 _atom_site_fract_z
 _atom_site_occupancy
  V  V0  1  0.32673100  0.32673100  0.16951600  1
  V  V1  1  0.66062400  0.66062400  0.33168900  1
  V  V2  1  0.34884800  0.34884800  0.66974300  1
  V  V3  1  0.66922900  0.66922900  0.84181200  1
  V  V4  1  0.99550600  0.99550600  0.48926400  1
  V  V5  1  0.99833400  0.99833400  0.01444500  1
  O  O0  1  0.97505300  0.37286200  0.32588600  1
  O  O1  1  0.62369800  0.03416600  0.67172600  1
  O  O2  1  0.76273500  0.76273500  0.03192700  1
  O  O3  1  0.44093700  0.44093700  0.36502800  1
  O  O4  1  0.89300500  0.89300500  0.29683200  1
  O  O5  1  0.23086600  0.23086600  0.96663100  1
  O  O6  1  0.57253800  0.57253800  0.63161600  1
  O  O7  1  0.70023100  0.29355800  0.99823600  1
  O  O8  1  0.37286200  0.97505300  0.32588600  1
  O  O9  1  0.03416600  0.62369800  0.67172600  1
  O  O10  1  0.29355800  0.70023100  0.99823600  1
  F  F0  1  0.10108000  0.10108000  0.69979900  1
loop_
_geom_bond_atom_site_label_1
_geom_bond_atom_site_label_2
_geom_bond_distance
_geom_bond_site_symmetry_2
O0 V0 1.887041 1_655
O0 V1 1.931845 1_555
O0 V4 2.022124 1_545
O1 V2 1.896021 1_555
O1 V3 1.977028 1_545
O1 V4 2.038046 1_545
O2 V3 1.861178 1_554
O2 V1 2.000824 1_555
O2 V5 2.049257 1_555
O3 V1 1.873427 1_555
O3 V2 2.032862 1_555
O3 V0 2.034388 1_555
O4 V5 1.889471 1_555
O4 V4 1.935567 1_555
O4 V1 1.982489 1_555
O5 V5 1.960091 1_446
O5 V0 1.960815 1_556
O5 V2 1.992577 1_555
O6 V2 1.899505 1_555
O6 V1 2.001407 1_555
O6 V3 2.014627 1_555
O7 V5 1.904312 1_546
O7 V3 1.996333 1_555
O7 V0 2.018040 1_556
O8 V0 1.887041 1_565
O8 V1 1.931845 1_555
O8 V4 2.022124 1_455
O9 V2 1.896021 1_555
O9 V3 1.977028 1_455
O9 V4 2.038046 1_455
O10 V5 1.904312 1_456
O10 V3 1.996333 1_555
O10 V0 2.018040 1_556
F0 V4 2.074297 1_445
F0 V5 2.099144 1_446
F0 V2 2.128485 1_555
