# generated using pymatgen
data_CuH12N2(OF2)2
_symmetry_space_group_name_H-M   'P 1'
_cell_length_a   6.81334207
_cell_length_b   6.81644992
_cell_length_c   30.28747584
_cell_angle_alpha   90.00508305
_cell_angle_beta   91.60791260
_cell_angle_gamma   90.00141664
_symmetry_Int_Tables_number   1
_chemical_formula_structural   CuH12N2(OF2)2
_chemical_formula_sum   'Cu8 H96 N16 O16 F32'
_cell_volume   1406.08146586
_cell_formula_units_Z   8
loop_
 _symmetry_equiv_pos_site_id
 _symmetry_equiv_pos_as_xyz
  1  'x, y, z'
loop_
 _atom_site_type_symbol
 _atom_site_label
 _atom_site_symmetry_multiplicity
 _atom_site_fract_x
 _atom_site_fract_y
 _atom_site_fract_z
 _atom_site_occupancy
  Cu  Cu0  1  0.61804956  0.55794696  0.81264021  1
  Cu  Cu1  1  0.11816089  0.94207547  0.31271396  1
  Cu  Cu2  1  0.38182349  0.44195582  0.18730991  1
  Cu  Cu3  1  0.88176848  0.05803165  0.68726105  1
  Cu  Cu4  1  0.14149537  0.25090438  0.93723210  1
  Cu  Cu5  1  0.64172012  0.24913718  0.43720496  1
  Cu  Cu6  1  0.85845791  0.74924106  0.06287492  1
  Cu  Cu7  1  0.35853815  0.75096964  0.56278756  1
  H  H0  1  0.74605489  0.51750572  0.90463349  1
  H  H1  1  0.24622840  0.98265546  0.40467708  1
  H  H2  1  0.25391983  0.48242819  0.09535871  1
  H  H3  1  0.75383893  0.01747412  0.59534007  1
  H  H4  1  0.51393076  0.51826676  0.90637044  1
  H  H5  1  0.01387689  0.98182031  0.40635813  1
  H  H6  1  0.48597155  0.48169719  0.09365944  1
  H  H7  1  0.98603114  0.01820063  0.59364605  1
  H  H8  1  0.62713397  0.68160786  0.72030420  1
  H  H9  1  0.12713542  0.81820179  0.22030084  1
  H  H10  1  0.37299677  0.31836314  0.27968327  1
  H  H11  1  0.87285888  0.18182809  0.77968763  1
  H  H12  1  0.63190149  0.45008806  0.71937309  1
  H  H13  1  0.13204090  0.04999725  0.21937386  1
  H  H14  1  0.36806962  0.54984161  0.28059859  1
  H  H15  1  0.86794609  0.95000466  0.78061717  1
  H  H16  1  0.89123904  0.64318823  0.97183266  1
  H  H17  1  0.39146976  0.85670231  0.47180501  1
  H  H18  1  0.10865168  0.35685521  0.02811615  1
  H  H19  1  0.60861036  0.14336518  0.52811607  1
  H  H20  1  0.88661280  0.87613026  0.97053397  1
  H  H21  1  0.38688414  0.62399565  0.47051416  1
  H  H22  1  0.11318779  0.12372742  0.02942999  1
  H  H23  1  0.61315259  0.37595953  0.52940812  1
  H  H24  1  0.02242963  0.29384797  0.84642528  1
  H  H25  1  0.52271543  0.20633879  0.34644963  1
  H  H26  1  0.97730753  0.70615701  0.15365016  1
  H  H27  1  0.47743929  0.79375639  0.65361534  1
  H  H28  1  0.25396247  0.28432351  0.84369555  1
  H  H29  1  0.75368645  0.21569456  0.34369612  1
  H  H30  1  0.74627631  0.71567409  0.15637711  1
  H  H31  1  0.24625494  0.78427782  0.65636093  1
  H  H32  1  0.64933712  0.12799691  0.02112061  1
  H  H33  1  0.14938971  0.37206572  0.52111536  1
  H  H34  1  0.35062153  0.87211039  0.97890310  1
  H  H35  1  0.85061119  0.62793479  0.47888496  1
  H  H36  1  0.66189706  0.37513078  0.01954967  1
  H  H37  1  0.16186163  0.12481788  0.51954870  1
  H  H38  1  0.33806992  0.62475003  0.98047844  1
  H  H39  1  0.83811936  0.87519350  0.48044960  1
  H  H40  1  0.51421230  0.25749101  0.98229874  1
  H  H41  1  0.01424117  0.24251852  0.48228989  1
  H  H42  1  0.48577198  0.74257018  0.01773239  1
  H  H43  1  0.98574412  0.75747749  0.51770131  1
  H  H44  1  0.75960638  0.23952196  0.97761655  1
  H  H45  1  0.25958928  0.26049143  0.47761132  1
  H  H46  1  0.24046401  0.76051272  0.02235440  1
  H  H47  1  0.74041434  0.73948320  0.52238426  1
  H  H48  1  0.99327772  0.50035707  0.77040048  1
  H  H49  1  0.49331844  0.99966553  0.27038481  1
  H  H50  1  0.00663116  0.49967854  0.22959899  1
  H  H51  1  0.50668971  0.00034726  0.72962510  1
  H  H52  1  0.07766946  0.65520576  0.72976609  1
  H  H53  1  0.57763270  0.84486025  0.22973759  1
  H  H54  1  0.92239936  0.34482179  0.27023332  1
  H  H55  1  0.42235612  0.15522362  0.77025794  1
  H  H56  1  0.10810263  0.40856363  0.72544080  1
  H  H57  1  0.60810210  0.09147253  0.22542634  1
  H  H58  1  0.89188079  0.59143246  0.27454471  1
  H  H59  1  0.39188292  0.90847959  0.77457062  1
  H  H60  1  0.23719923  0.53787014  0.76485828  1
  H  H61  1  0.73716305  0.96211911  0.26482186  1
  H  H62  1  0.76288689  0.46210023  0.23514957  1
  H  H63  1  0.26286861  0.03781331  0.73515182  1
  H  H64  1  0.74440575  0.08174537  0.89635377  1
  H  H65  1  0.24439071  0.41828691  0.39637640  1
  H  H66  1  0.25560508  0.91834006  0.10363520  1
  H  H67  1  0.75563674  0.58164517  0.60360524  1
  H  H68  1  0.49842761  0.04739956  0.89657412  1
  H  H69  1  0.99850339  0.45254040  0.39660403  1
  H  H70  1  0.50151478  0.95263266  0.10341883  1
  H  H71  1  0.00148665  0.54738715  0.60339104  1
  H  H72  1  0.64106176  0.93361801  0.85805930  1
  H  H73  1  0.14109098  0.56634935  0.35810186  1
  H  H74  1  0.35889988  0.06630341  0.14191744  1
  H  H75  1  0.85893250  0.43366622  0.64190193  1
  H  H76  1  0.59693158  0.17663186  0.85422337  1
  H  H77  1  0.09696373  0.32337041  0.35419240  1
  H  H78  1  0.40304036  0.82339639  0.14579404  1
  H  H79  1  0.90300348  0.67672168  0.64578492  1
  H  H80  1  0.23344511  0.74356009  0.85272745  1
  H  H81  1  0.73343469  0.75647509  0.35273570  1
  H  H82  1  0.76659804  0.25643852  0.14727835  1
  H  H83  1  0.26648551  0.24358208  0.64725934  1
  H  H84  1  0.98513539  0.75093890  0.85365423  1
  H  H85  1  0.48513682  0.74908339  0.35365635  1
  H  H86  1  0.01481966  0.24903546  0.14634748  1
  H  H87  1  0.51482711  0.25096261  0.64634698  1
  H  H88  1  0.11130065  0.62821174  0.89452228  1
  H  H89  1  0.61131197  0.87177127  0.39454055  1
  H  H90  1  0.88869454  0.37180270  0.10549297  1
  H  H91  1  0.38865281  0.12823430  0.60548158  1
  H  H92  1  0.11896949  0.87478689  0.89270207  1
  H  H93  1  0.61896584  0.62522739  0.39269423  1
  H  H94  1  0.88102789  0.12524630  0.10731780  1
  H  H95  1  0.38102220  0.37476003  0.60729453  1
  N  N0  1  0.64677511  0.24931476  0.99963837  1
  N  N1  1  0.14679673  0.25068611  0.49963931  1
  N  N2  1  0.35333169  0.75068794  0.00032979  1
  N  N3  1  0.85319313  0.74931468  0.50033423  1
  N  N4  1  0.10377529  0.52643910  0.74791113  1
  N  N5  1  0.60373008  0.97358490  0.24789314  1
  N  N6  1  0.89622436  0.47360182  0.25207947  1
  N  N7  1  0.39623809  0.02638757  0.75209333  1
  N  N8  1  0.61933277  0.06108184  0.87595102  1
  N  N9  1  0.11932925  0.43878071  0.37594450  1
  N  N10  1  0.38067918  0.93881839  0.12407475  1
  N  N11  1  0.88067373  0.56122128  0.62405563  1
  N  N12  1  0.11317358  0.74867434  0.87381762  1
  N  N13  1  0.61319336  0.75134849  0.37380976  1
  N  N14  1  0.88681503  0.25135682  0.12621284  1
  N  N15  1  0.38676669  0.24868077  0.62620465  1
  O  O0  1  0.62580127  0.55758800  0.88776910  1
  O  O1  1  0.12583199  0.94198578  0.38764919  1
  O  O2  1  0.37414723  0.44257307  0.11229727  1
  O  O3  1  0.87415090  0.05758112  0.61235699  1
  O  O4  1  0.59094848  0.56383997  0.73758577  1
  O  O5  1  0.09056080  0.93616862  0.23770096  1
  O  O6  1  0.40907710  0.43611977  0.26240200  1
  O  O7  1  0.90915944  0.06386662  0.76233020  1
  O  O8  1  0.14330730  0.23904269  0.01048204  1
  O  O9  1  0.64344721  0.26106030  0.51059371  1
  O  O10  1  0.85696404  0.76090626  0.98934488  1
  O  O11  1  0.35669949  0.73907393  0.48937618  1
  O  O12  1  0.14252282  0.24694194  0.86272844  1
  O  O13  1  0.64258684  0.25299417  0.36262684  1
  O  O14  1  0.85743019  0.75256841  0.13742350  1
  O  O15  1  0.35745583  0.74738074  0.63734875  1
  F  F0  1  0.38729043  0.73855009  0.81253264  1
  F  F1  1  0.88801906  0.76197935  0.31253443  1
  F  F2  1  0.61288350  0.26131475  0.18746967  1
  F  F3  1  0.11179149  0.23818424  0.68743533  1
  F  F4  1  0.84784016  0.37678492  0.81152257  1
  F  F5  1  0.34713296  0.12254669  0.31154318  1
  F  F6  1  0.15183728  0.62336119  0.18846223  1
  F  F7  1  0.65285892  0.87728438  0.68839990  1
  F  F8  1  0.43773511  0.32645199  0.80983624  1
  F  F9  1  0.93845785  0.17291862  0.30987397  1
  F  F10  1  0.56253738  0.67376060  0.19013216  1
  F  F11  1  0.06189744  0.82741754  0.69012109  1
  F  F12  1  0.80127133  0.78595564  0.81724502  1
  F  F13  1  0.30068947  0.71467416  0.31722502  1
  F  F14  1  0.19849844  0.21363061  0.18277528  1
  F  F15  1  0.69911902  0.28530619  0.68275559  1
  F  F16  1  0.34093219  0.03372380  0.93726207  1
  F  F17  1  0.84196645  0.46727763  0.43727601  1
  F  F18  1  0.65787524  0.96760572  0.06275794  1
  F  F19  1  0.15835149  0.53299213  0.56269128  1
  F  F20  1  0.94316658  0.46560360  0.93720384  1
  F  F21  1  0.44221424  0.03334260  0.43716739  1
  F  F22  1  0.05820522  0.53322007  0.06287387  1
  F  F23  1  0.55766941  0.96612296  0.56282061  1
  F  F24  1  0.92587116  0.05713457  0.93447672  1
  F  F25  1  0.42464643  0.44380190  0.43447068  1
  F  F26  1  0.07550439  0.94396184  0.06555309  1
  F  F27  1  0.57498085  0.55657581  0.56546936  1
  F  F28  1  0.35042197  0.45135909  0.94203302  1
  F  F29  1  0.85150193  0.04761461  0.44201030  1
  F  F30  1  0.64832600  0.54736823  0.05803476  1
  F  F31  1  0.14882321  0.95203791  0.55800305  1
loop_
_geom_bond_atom_site_label_1
_geom_bond_atom_site_label_2
_geom_bond_distance
_geom_bond_site_symmetry_2
Cu0 F4 1.995088 1_555
Cu0 F12 1.995870 1_555
Cu0 F0 1.996822 1_555
Cu0 F8 2.000140 1_555
Cu0 O0 2.274597 1_555
Cu0 O4 2.275885 1_555
Cu1 F5 1.987814 1_565
Cu1 F13 1.989622 1_555
Cu1 F1 1.991289 1_455
Cu1 F9 1.994169 1_465
Cu1 O1 2.268734 1_555
Cu1 O5 2.274812 1_555
Cu2 F6 1.997202 1_555
Cu2 F14 1.997880 1_555
Cu2 F2 1.998565 1_555
Cu2 F10 2.003488 1_555
Cu2 O2 2.271082 1_555
Cu2 O6 2.277070 1_555
Cu3 F7 1.988606 1_545
Cu3 F15 1.989454 1_555
Cu3 F3 1.990892 1_655
Cu3 F11 1.994734 1_645
Cu3 O3 2.267794 1_555
Cu3 O7 2.276420 1_555
Cu4 F28 1.975534 1_555
Cu4 F24 1.975565 1_455
Cu4 F20 1.991931 1_455
Cu4 F16 2.009487 1_555
Cu4 O8 2.219724 1_556
Cu4 O12 2.256894 1_555
Cu5 F29 1.984829 1_555
Cu5 F25 1.987022 1_555
Cu5 F21 2.002803 1_555
Cu5 F17 2.017965 1_555
Cu5 O9 2.223939 1_555
Cu5 O13 2.259112 1_555
Cu6 F26 1.987046 1_655
Cu6 F30 1.988184 1_555
Cu6 F22 2.005124 1_655
Cu6 F18 2.020666 1_555
Cu6 O10 2.228203 1_554
Cu6 O14 2.258208 1_555
Cu7 F31 1.982326 1_555
Cu7 F27 1.982562 1_555
Cu7 F23 1.997863 1_555
Cu7 F19 2.016858 1_555
Cu7 O11 2.224600 1_555
Cu7 O15 2.258624 1_555
H0 O0 0.991663 1_555
H1 O1 0.995966 1_555
H2 O2 0.992200 1_555
H3 O3 0.994275 1_555
H4 O0 0.997161 1_555
H5 O1 1.000451 1_555
H6 O2 0.997203 1_555
H7 O3 0.999254 1_555
H8 O4 0.993215 1_555
H9 O5 0.996865 1_555
H10 O6 0.992960 1_555
H11 O7 0.995650 1_555
H12 O4 0.995957 1_555
H13 O5 0.999445 1_545
H14 O6 0.995633 1_555
H15 O7 0.998396 1_565
H16 O10 0.993288 1_555
H17 O11 0.994677 1_555
H18 O8 0.996458 1_555
H19 O9 0.994359 1_555
H20 O10 0.994393 1_555
H21 O11 0.995241 1_555
H22 O8 0.997997 1_555
H23 O9 0.993611 1_555
H24 O12 0.996457 1_555
H25 O13 0.992849 1_555
H26 O14 0.993097 1_555
H27 O15 0.994134 1_555
H28 O12 0.999156 1_555
H29 O13 0.995348 1_555
H30 O14 0.995364 1_555
H31 O15 0.996663 1_555
H32 N0 1.052121 1_554
H33 N1 1.052244 1_555
H34 N2 1.051642 1_556
H35 N3 1.051745 1_555
H36 N0 1.051773 1_554
H37 N1 1.052090 1_555
H38 N2 1.051495 1_556
H39 N3 1.051726 1_555
H40 N0 1.033472 1_555
H41 N1 1.033562 1_555
H42 N2 1.033657 1_555
H43 N3 1.033793 1_555
H44 N0 1.033965 1_555
H45 N1 1.033899 1_555
H46 N2 1.034225 1_555
H47 N3 1.034284 1_555
H48 N4 1.044584 1_655
H49 N5 1.044183 1_555
H50 N6 1.043940 1_455
H51 N7 1.043860 1_555
H52 N4 1.048180 1_555
H53 N5 1.048008 1_555
H54 N6 1.048468 1_555
H55 N7 1.048808 1_555
H56 N4 1.053885 1_555
H57 N5 1.053984 1_545
H58 N6 1.053558 1_555
H59 N7 1.054290 1_565
H60 N4 1.034279 1_555
H61 N5 1.034097 1_555
H62 N6 1.033559 1_555
H63 N7 1.033885 1_555
H64 N8 1.048003 1_555
H65 N9 1.048307 1_555
H66 N10 1.048473 1_555
H67 N11 1.048429 1_555
H68 N8 1.051821 1_555
H69 N9 1.052109 1_655
H70 N10 1.052135 1_555
H71 N11 1.052179 1_455
H72 N8 1.036771 1_565
H73 N9 1.036698 1_555
H74 N10 1.036165 1_545
H75 N11 1.036657 1_555
H76 N8 1.034987 1_555
H77 N9 1.034605 1_555
H78 N10 1.034128 1_555
H79 N11 1.034603 1_555
H80 N12 1.053619 1_555
H81 N13 1.053154 1_555
H82 N14 1.052847 1_555
H83 N15 1.052995 1_555
H84 N12 1.050867 1_655
H85 N13 1.050798 1_555
H86 N14 1.050201 1_455
H87 N15 1.050634 1_555
H88 N12 1.033536 1_555
H89 N13 1.033715 1_555
H90 N14 1.033727 1_555
H91 N15 1.033702 1_555
H92 N12 1.032630 1_555
H93 N13 1.032761 1_555
H94 N14 1.032794 1_555
H95 N15 1.032949 1_555
F0 H80 1.628975 1_555
F0 H59 1.633067 1_555
F1 H81 1.632552 1_555
F1 H58 1.636315 1_555
F2 H82 1.628283 1_555
F2 H57 1.632581 1_555
F3 H83 1.632449 1_555
F3 H56 1.635798 1_555
F4 H11 1.653408 1_555
F4 H24 1.667833 1_655
F5 H10 1.659389 1_555
F5 H25 1.674510 1_555
F6 H9 1.652580 1_555
F6 H26 1.665540 1_455
F7 H8 1.659293 1_555
F7 H27 1.670868 1_555
F8 H28 1.665535 1_555
F8 H55 1.674188 1_555
F9 H29 1.670803 1_555
F9 H54 1.679100 1_555
F10 H30 1.663096 1_555
F10 H53 1.674083 1_555
F11 H31 1.667874 1_555
F11 H52 1.680575 1_555
F12 H15 1.648023 1_555
F12 H84 1.662793 1_555
F13 H14 1.652923 1_555
F13 H85 1.665520 1_555
F14 H13 1.645061 1_555
F14 H86 1.662610 1_555
F15 H12 1.652176 1_555
F15 H87 1.664236 1_555
F16 H68 1.659231 1_555
F16 H34 1.674561 1_545
F17 H69 1.654923 1_555
F17 H35 1.669283 1_555
F18 H70 1.653976 1_555
F18 H32 1.668881 1_565
F19 H71 1.656912 1_555
F19 H33 1.669765 1_555
F20 H16 1.646548 1_555
F20 H0 1.681563 1_555
F21 H17 1.640255 1_545
F21 H1 1.672417 1_545
F22 H18 1.640642 1_555
F22 H2 1.671076 1_555
F23 H19 1.644882 1_565
F23 H3 1.674835 1_565
F24 H20 1.674242 1_545
F24 H64 1.676286 1_555
F25 H21 1.667977 1_555
F25 H65 1.670397 1_555
F26 H22 1.667461 1_565
F26 H66 1.669498 1_555
F27 H23 1.670936 1_555
F27 H67 1.672880 1_555
F28 H4 1.638097 1_555
F28 H38 1.662864 1_555
F29 H5 1.630353 1_645
F29 H39 1.658695 1_545
F30 H6 1.629495 1_555
F30 H36 1.658738 1_555
F31 H7 1.632838 1_465
F31 H37 1.660576 1_565
