# generated using pymatgen
data_Li2FeBO4
_symmetry_space_group_name_H-M   'P 1'
_cell_length_a   5.20657400
_cell_length_b   6.44545800
_cell_length_c   10.71563170
_cell_angle_alpha   85.22476224
_cell_angle_beta   90.00000000
_cell_angle_gamma   90.00000000
_symmetry_Int_Tables_number   1
_chemical_formula_structural   Li2FeBO4
_chemical_formula_sum   'Li8 Fe4 B4 O16'
_cell_volume   358.35504082
_cell_formula_units_Z   4
loop_
 _symmetry_equiv_pos_site_id
 _symmetry_equiv_pos_as_xyz
  1  'x, y, z'
loop_
 _atom_site_type_symbol
 _atom_site_label
 _atom_site_symmetry_multiplicity
 _atom_site_fract_x
 _atom_site_fract_y
 _atom_site_fract_z
 _atom_site_occupancy
  Li  Li0  1  0.64874300  0.90458200  0.79063100  1
  Li  Li1  1  0.85125700  0.90458200  0.29063100  1
  Li  Li2  1  0.82694800  0.78359800  0.57195300  1
  Li  Li3  1  0.67305200  0.78359800  0.07195300  1
  Li  Li4  1  0.32694800  0.21640200  0.92804700  1
  Li  Li5  1  0.17305200  0.21640200  0.42804700  1
  Li  Li6  1  0.14874300  0.09541800  0.70936900  1
  Li  Li7  1  0.35125700  0.09541800  0.20936900  1
  Fe  Fe0  1  0.85285100  0.49484100  0.84730000  1
  Fe  Fe1  1  0.35285100  0.50515900  0.65270000  1
  Fe  Fe2  1  0.64714900  0.49484100  0.34730000  1
  Fe  Fe3  1  0.14714900  0.50515900  0.15270000  1
  B  B0  1  0.18381000  0.80530200  0.93916400  1
  B  B1  1  0.31619000  0.80530200  0.43916400  1
  B  B2  1  0.68381000  0.19469800  0.56083600  1
  B  B3  1  0.81619000  0.19469800  0.06083600  1
  O  O0  1  0.30340800  0.94225900  0.85537500  1
  O  O1  1  0.19659200  0.94225900  0.35537500  1
  O  O2  1  0.92012100  0.75104400  0.92626700  1
  O  O3  1  0.57987900  0.75104400  0.42626700  1
  O  O4  1  0.18533000  0.71225100  0.54368100  1
  O  O5  1  0.65951600  0.61648200  0.71134900  1
  O  O6  1  0.31467000  0.71225100  0.04368100  1
  O  O7  1  0.84048400  0.61648200  0.21134900  1
  O  O8  1  0.15951600  0.38351800  0.78865100  1
  O  O9  1  0.68533000  0.28774900  0.95631900  1
  O  O10  1  0.34048400  0.38351800  0.28865100  1
  O  O11  1  0.81467000  0.28774900  0.45631900  1
  O  O12  1  0.42012100  0.24895600  0.57373300  1
  O  O13  1  0.07987900  0.24895600  0.07373300  1
  O  O14  1  0.80340800  0.05774100  0.64462500  1
  O  O15  1  0.69659200  0.05774100  0.14462500  1
loop_
_geom_bond_atom_site_label_1
_geom_bond_atom_site_label_2
_geom_bond_distance
_geom_bond_site_symmetry_2
Li0 O0 1.949665 1_555
Li0 O14 1.952857 1_565
Li0 O5 2.106125 1_555
Li0 O2 2.201988 1_555
Li1 O1 1.949665 1_655
Li1 O15 1.952857 1_565
Li1 O7 2.106125 1_555
Li1 O3 2.201988 1_555
Li2 O4 1.951459 1_655
Li2 O5 1.970655 1_555
Li2 O14 1.993173 1_565
Li2 O3 2.047055 1_555
Li3 O6 1.951459 1_555
Li3 O7 1.970655 1_555
Li3 O15 1.993173 1_565
Li3 O2 2.047055 1_554
Li4 O9 1.951459 1_555
Li4 O8 1.970655 1_555
Li4 O0 1.993173 1_545
Li4 O13 2.047055 1_556
Li5 O11 1.951459 1_455
Li5 O10 1.970655 1_555
Li5 O1 1.993173 1_545
Li5 O12 2.047055 1_555
Li6 O14 1.949665 1_455
Li6 O0 1.952857 1_545
Li6 O8 2.106125 1_555
Li6 O12 2.201988 1_555
Li7 O15 1.949665 1_555
Li7 O1 1.952857 1_545
Li7 O10 2.106125 1_555
Li7 O13 2.201988 1_555
Fe0 O8 1.879962 1_655
Fe0 O5 1.886817 1_555
Fe0 O9 1.909853 1_555
Fe0 O2 1.948919 1_555
Fe1 O5 1.879962 1_555
Fe1 O8 1.886817 1_555
Fe1 O4 1.909853 1_555
Fe1 O12 1.948919 1_555
Fe2 O10 1.879962 1_555
Fe2 O7 1.886817 1_555
Fe2 O11 1.909853 1_555
Fe2 O3 1.948919 1_555
Fe3 O7 1.879962 1_455
Fe3 O10 1.886817 1_555
Fe3 O6 1.909853 1_555
Fe3 O13 1.948919 1_555
B0 O0 1.356900 1_555
B0 O6 1.402287 1_556
B0 O2 1.426306 1_455
B1 O1 1.356900 1_555
B1 O4 1.402287 1_555
B1 O3 1.426306 1_555
B2 O14 1.356900 1_555
B2 O11 1.402287 1_555
B2 O12 1.426306 1_555
B3 O15 1.356900 1_555
B3 O9 1.402287 1_554
B3 O13 1.426306 1_655
