# generated using pymatgen
data_SmH8(NO5)3
_symmetry_space_group_name_H-M   'P 1'
_cell_length_a   6.80610947
_cell_length_b   8.82664685
_cell_length_c   12.03004984
_cell_angle_alpha   68.70142431
_cell_angle_beta   91.11333889
_cell_angle_gamma   69.58113973
_symmetry_Int_Tables_number   1
_chemical_formula_structural   SmH8(NO5)3
_chemical_formula_sum   'Sm2 H16 N6 O30'
_cell_volume   622.13494596
_cell_formula_units_Z   2
loop_
 _symmetry_equiv_pos_site_id
 _symmetry_equiv_pos_as_xyz
  1  'x, y, z'
loop_
 _atom_site_type_symbol
 _atom_site_label
 _atom_site_symmetry_multiplicity
 _atom_site_fract_x
 _atom_site_fract_y
 _atom_site_fract_z
 _atom_site_occupancy
  Sm  Sm0  1  0.79493800  0.59873400  0.72407000  1
  Sm  Sm1  1  0.20506200  0.40126600  0.27593000  1
  H  H0  1  0.44900400  0.36623700  0.51526300  1
  H  H1  1  0.55099600  0.63376300  0.48473700  1
  H  H2  1  0.21526300  0.51626900  0.49643500  1
  H  H3  1  0.78473700  0.48373100  0.50356500  1
  H  H4  1  0.64217700  0.31656400  0.72825200  1
  H  H5  1  0.35782300  0.68343600  0.27174800  1
  H  H6  1  0.66417100  0.29393200  0.86899000  1
  H  H7  1  0.33582900  0.70606800  0.13101000  1
  H  H8  1  0.29506700  0.84254400  0.65010900  1
  H  H9  1  0.70493300  0.15745600  0.34989100  1
  H  H10  1  0.36102800  0.63750800  0.72763700  1
  H  H11  1  0.63897200  0.36249200  0.27236300  1
  H  H12  1  0.42467000  0.34890800  0.06409600  1
  H  H13  1  0.57533000  0.65109200  0.93590400  1
  H  H14  1  0.21364200  0.51928800  0.99270300  1
  H  H15  1  0.78635800  0.48071200  0.00729700  1
  N  N0  1  0.93011000  0.82340500  0.82651600  1
  N  N1  1  0.06989000  0.17659500  0.17348400  1
  N  N2  1  0.90893100  0.83218100  0.50048100  1
  N  N3  1  0.09106900  0.16781900  0.49951900  1
  N  N4  1  0.17812000  0.26578500  0.81503700  1
  N  N5  1  0.82188000  0.73421500  0.18496300  1
  O  O0  1  0.74642300  0.88328700  0.76607600  1
  O  O1  1  0.25357700  0.11671300  0.23392400  1
  O  O2  1  0.05714900  0.66836700  0.83767800  1
  O  O3  1  0.94285100  0.33163300  0.16232200  1
  O  O4  1  0.98752400  0.90880000  0.87433900  1
  O  O5  1  0.01247600  0.09120000  0.12566100  1
  O  O6  1  0.04323200  0.68085300  0.57347900  1
  O  O7  1  0.95676800  0.31914700  0.42652100  1
  O  O8  1  0.72146100  0.88193200  0.52318600  1
  O  O9  1  0.27853900  0.11806800  0.47681400  1
  O  O10  1  0.96190000  0.92723400  0.41082000  1
  O  O11  1  0.03810000  0.07276600  0.58918000  1
  O  O12  1  0.09320100  0.34332800  0.70250700  1
  O  O13  1  0.90679900  0.65667200  0.29749300  1
  O  O14  1  0.08195700  0.33847700  0.88443200  1
  O  O15  1  0.91804300  0.66152300  0.11556800  1
  O  O16  1  0.34194200  0.13264200  0.85347400  1
  O  O17  1  0.65805800  0.86735800  0.14652600  1
  O  O18  1  0.68825600  0.54784300  0.54516900  1
  O  O19  1  0.31174400  0.45215700  0.45483100  1
  O  O20  1  0.63418900  0.38038400  0.78372100  1
  O  O21  1  0.36581100  0.61961600  0.21627900  1
  O  O22  1  0.41488000  0.73172900  0.69518800  1
  O  O23  1  0.58512000  0.26827100  0.30481200  1
  O  O24  1  0.69822300  0.55670600  0.92682000  1
  O  O25  1  0.30177700  0.44329400  0.07318000  1
  O  O26  1  0.64111100  0.26217100  0.61519600  1
  O  O27  1  0.35888900  0.73782900  0.38480400  1
  O  O28  1  0.65455900  0.21882900  0.02205800  1
  O  O29  1  0.34544100  0.78117100  0.97794200  1
loop_
_geom_bond_atom_site_label_1
_geom_bond_atom_site_label_2
_geom_bond_distance
_geom_bond_site_symmetry_2
H0 O19 1.027201 1_555
H0 O26 1.515674 1_555
H1 O18 1.027201 1_555
H1 O27 1.515674 1_555
H2 O19 0.980395 1_555
H3 O18 0.980395 1_555
H4 O20 1.009296 1_555
H4 O26 1.598985 1_555
H5 O21 1.009296 1_555
H5 O27 1.598985 1_555
H6 O20 0.995365 1_555
H7 O21 0.995365 1_555
H8 O22 0.978121 1_555
H9 O23 0.978121 1_555
H10 O22 0.980195 1_555
H11 O23 0.980195 1_555
H12 O25 0.994529 1_555
H13 O24 0.994529 1_555
H14 O25 0.985888 1_556
H15 O24 0.985888 1_554
N0 O4 1.250452 1_555
N0 O0 1.263106 1_555
N0 O2 1.294109 1_655
N1 O5 1.250452 1_555
N1 O1 1.263106 1_555
N1 O3 1.294109 1_455
N2 O10 1.251427 1_555
N2 O8 1.266960 1_555
N2 O6 1.286703 1_655
N3 O11 1.251427 1_555
N3 O9 1.266960 1_555
N3 O7 1.286703 1_455
N4 O16 1.228421 1_555
N4 O14 1.286204 1_555
N4 O12 1.286698 1_555
N5 O17 1.228421 1_555
N5 O15 1.286204 1_555
N5 O13 1.286698 1_555
O0 Sm0 2.650021 1_555
O1 Sm1 2.650021 1_555
O2 Sm0 2.590638 1_455
O3 Sm1 2.590638 1_655
O6 Sm0 2.585130 1_455
O7 Sm1 2.585130 1_655
O8 Sm0 2.651616 1_555
O9 Sm1 2.651616 1_555
O12 Sm0 2.553920 1_455
O13 Sm1 2.553920 1_655
O14 Sm0 2.513521 1_455
O15 Sm1 2.513521 1_655
O18 Sm0 2.496008 1_555
O19 Sm1 2.496008 1_555
O20 Sm0 2.433831 1_555
O21 Sm1 2.433831 1_555
O22 Sm0 2.395799 1_555
O23 Sm1 2.395799 1_555
O24 Sm0 2.468917 1_555
O25 Sm1 2.468917 1_555
