# generated using pymatgen
data_Li3Cu4F15
_symmetry_space_group_name_H-M   'P 1'
_cell_length_a   3.80176100
_cell_length_b   16.64234600
_cell_length_c   18.13714600
_cell_angle_alpha   90.00000000
_cell_angle_beta   90.00000000
_cell_angle_gamma   90.00000000
_symmetry_Int_Tables_number   1
_chemical_formula_structural   Li3Cu4F15
_chemical_formula_sum   'Li12 Cu16 F60'
_cell_volume   1147.54125335
_cell_formula_units_Z   4
loop_
 _symmetry_equiv_pos_site_id
 _symmetry_equiv_pos_as_xyz
  1  'x, y, z'
loop_
 _atom_site_type_symbol
 _atom_site_label
 _atom_site_symmetry_multiplicity
 _atom_site_fract_x
 _atom_site_fract_y
 _atom_site_fract_z
 _atom_site_occupancy
  Li  Li0  1  0.00000000  0.04226900  0.16550700  1
  Li  Li1  1  0.00000000  0.34630500  0.01485400  1
  Li  Li2  1  0.00000000  0.32299900  0.39459100  1
  Li  Li3  1  0.00000000  0.81850000  0.14595000  1
  Li  Li4  1  0.00000000  0.57779200  0.38513500  1
  Li  Li5  1  0.00000000  0.82404800  0.52815000  1
  Li  Li6  1  0.50000000  0.17595200  0.02815000  1
  Li  Li7  1  0.50000000  0.18150000  0.64595000  1
  Li  Li8  1  0.50000000  0.42220800  0.88513500  1
  Li  Li9  1  0.50000000  0.65369500  0.51485400  1
  Li  Li10  1  0.50000000  0.67700100  0.89459100  1
  Li  Li11  1  0.50000000  0.95773100  0.66550700  1
  Cu  Cu0  1  0.00000000  0.02928000  0.82450300  1
  Cu  Cu1  1  0.00000000  0.96629600  0.01683200  1
  Cu  Cu2  1  0.00000000  0.46787100  0.53157600  1
  Cu  Cu3  1  0.00000000  0.31827800  0.67924200  1
  Cu  Cu4  1  0.00000000  0.24714100  0.87642300  1
  Cu  Cu5  1  0.00000000  0.53139600  0.72367500  1
  Cu  Cu6  1  0.00000000  0.74772000  0.67118200  1
  Cu  Cu7  1  0.00000000  0.81643100  0.87008700  1
  Cu  Cu8  1  0.50000000  0.25228000  0.17118200  1
  Cu  Cu9  1  0.50000000  0.53212900  0.03157600  1
  Cu  Cu10  1  0.50000000  0.46860400  0.22367500  1
  Cu  Cu11  1  0.50000000  0.68172200  0.17924200  1
  Cu  Cu12  1  0.50000000  0.03370400  0.51683200  1
  Cu  Cu13  1  0.50000000  0.18356900  0.37008700  1
  Cu  Cu14  1  0.50000000  0.75285900  0.37642300  1
  Cu  Cu15  1  0.50000000  0.97072000  0.32450300  1
  F  F0  1  0.00000000  0.06785000  0.06226200  1
  F  F1  1  0.00000000  0.25172900  0.16721500  1
  F  F2  1  0.00000000  0.52925800  0.03263400  1
  F  F3  1  0.00000000  0.19289900  0.37175200  1
  F  F4  1  0.00000000  0.03363800  0.51589300  1
  F  F5  1  0.00000000  0.47016700  0.22339700  1
  F  F6  1  0.00000000  0.02416600  0.72297600  1
  F  F7  1  0.00000000  0.69178800  0.17752700  1
  F  F8  1  0.00000000  0.42425900  0.43785900  1
  F  F9  1  0.00000000  0.21276000  0.64210700  1
  F  F10  1  0.00000000  0.36703600  0.58151900  1
  F  F11  1  0.00000000  0.02835500  0.92774900  1
  F  F12  1  0.00000000  0.92514400  0.11359800  1
  F  F13  1  0.00000000  0.14269400  0.83558000  1
  F  F14  1  0.00000000  0.57352400  0.48867800  1
  F  F15  1  0.00000000  0.27688200  0.77749500  1
  F  F16  1  0.00000000  0.74910100  0.38204900  1
  F  F17  1  0.00000000  0.52930300  0.62040600  1
  F  F18  1  0.00000000  0.41636600  0.72913900  1
  F  F19  1  0.00000000  0.21772300  0.97861800  1
  F  F20  1  0.00000000  0.97109300  0.32235900  1
  F  F21  1  0.00000000  0.71231500  0.57024100  1
  F  F22  1  0.00000000  0.36022800  0.90415000  1
  F  F23  1  0.00000000  0.64513600  0.71345700  1
  F  F24  1  0.00000000  0.53369500  0.82337800  1
  F  F25  1  0.00000000  0.85430300  0.63675800  1
  F  F26  1  0.00000000  0.77921400  0.77002100  1
  F  F27  1  0.00000000  0.70983800  0.90332400  1
  F  F28  1  0.00000000  0.91557600  0.82307000  1
  F  F29  1  0.00000000  0.86374000  0.96987800  1
  F  F30  1  0.50000000  0.28768500  0.07024100  1
  F  F31  1  0.50000000  0.22078600  0.27002100  1
  F  F32  1  0.50000000  0.08442400  0.32307000  1
  F  F33  1  0.50000000  0.30821200  0.67752700  1
  F  F34  1  0.50000000  0.07485600  0.61359800  1
  F  F35  1  0.50000000  0.29016200  0.40332400  1
  F  F36  1  0.50000000  0.35486400  0.21345700  1
  F  F37  1  0.50000000  0.63296400  0.08151900  1
  F  F38  1  0.50000000  0.72311800  0.27749500  1
  F  F39  1  0.50000000  0.96636200  0.01589300  1
  F  F40  1  0.50000000  0.02890700  0.82235900  1
  F  F41  1  0.50000000  0.14569700  0.13675800  1
  F  F42  1  0.50000000  0.25089900  0.88204900  1
  F  F43  1  0.50000000  0.46630500  0.32337800  1
  F  F44  1  0.50000000  0.58363400  0.22913900  1
  F  F45  1  0.50000000  0.74827100  0.66721500  1
  F  F46  1  0.50000000  0.13626000  0.46987800  1
  F  F47  1  0.50000000  0.47069700  0.12040600  1
  F  F48  1  0.50000000  0.63977200  0.40415000  1
  F  F49  1  0.50000000  0.78227700  0.47861800  1
  F  F50  1  0.50000000  0.97583400  0.22297600  1
  F  F51  1  0.50000000  0.52983300  0.72339700  1
  F  F52  1  0.50000000  0.85730600  0.33558000  1
  F  F53  1  0.50000000  0.97164500  0.42774900  1
  F  F54  1  0.50000000  0.42647600  0.98867800  1
  F  F55  1  0.50000000  0.47074200  0.53263400  1
  F  F56  1  0.50000000  0.78724000  0.14210700  1
  F  F57  1  0.50000000  0.80710100  0.87175200  1
  F  F58  1  0.50000000  0.93215000  0.56226200  1
  F  F59  1  0.50000000  0.57574100  0.93785900  1
loop_
_geom_bond_atom_site_label_1
_geom_bond_atom_site_label_2
_geom_bond_distance
_geom_bond_site_symmetry_2
Cu0 F6 1.843376 1_555
Cu0 F11 1.872651 1_555
Cu0 F28 1.892480 1_545
Cu0 F13 1.898137 1_555
Cu0 F40 1.901288 1_555
Cu0 F40 1.901288 1_455
Cu1 F0 1.880254 1_565
Cu1 F12 1.883952 1_555
Cu1 F39 1.900957 1_455
Cu1 F39 1.900957 1_555
Cu1 F29 1.907437 1_554
Cu1 F11 1.917606 1_564
Cu2 F8 1.848236 1_555
Cu2 F55 1.901578 1_455
Cu2 F55 1.901578 1_555
Cu2 F10 1.906998 1_555
Cu2 F17 1.908131 1_555
Cu2 F14 1.922765 1_555
Cu3 F18 1.866489 1_555
Cu3 F9 1.880799 1_555
Cu3 F33 1.908501 1_455
Cu3 F33 1.908501 1_555
Cu3 F15 1.910562 1_555
Cu3 F10 1.949335 1_555
Cu4 F15 1.861289 1_555
Cu4 F13 1.889507 1_555
Cu4 F42 1.904644 1_555
Cu4 F42 1.904644 1_455
Cu4 F19 1.917094 1_555
Cu4 F22 1.948062 1_555
Cu5 F24 1.808733 1_555
Cu5 F17 1.873329 1_555
Cu5 F51 1.901065 1_555
Cu5 F51 1.901065 1_455
Cu5 F23 1.901951 1_555
Cu5 F18 1.916932 1_555
Cu6 F26 1.867709 1_555
Cu6 F23 1.871514 1_555
Cu6 F25 1.880466 1_555
Cu6 F45 1.902264 1_555
Cu6 F45 1.902264 1_455
Cu6 F21 1.923264 1_555
Cu7 F28 1.857339 1_555
Cu7 F27 1.873586 1_555
Cu7 F57 1.907451 1_555
Cu7 F57 1.907451 1_455
Cu7 F26 1.917690 1_555
Cu7 F29 1.973757 1_555
Cu8 F31 1.867709 1_555
Cu8 F36 1.871514 1_555
Cu8 F41 1.880466 1_555
Cu8 F1 1.902264 1_555
Cu8 F1 1.902264 1_655
Cu8 F30 1.923264 1_555
Cu9 F59 1.848236 1_554
Cu9 F2 1.901578 1_655
Cu9 F2 1.901578 1_555
Cu9 F37 1.906998 1_555
Cu9 F47 1.908131 1_555
Cu9 F54 1.922765 1_554
Cu10 F43 1.808733 1_555
Cu10 F47 1.873329 1_555
Cu10 F5 1.901065 1_655
Cu10 F5 1.901065 1_555
Cu10 F36 1.901951 1_555
Cu10 F44 1.916932 1_555
Cu11 F44 1.866489 1_555
Cu11 F56 1.880799 1_555
Cu11 F7 1.908501 1_555
Cu11 F7 1.908501 1_655
Cu11 F38 1.910562 1_555
Cu11 F37 1.949335 1_555
Cu12 F58 1.880254 1_545
Cu12 F34 1.883952 1_555
Cu12 F4 1.900957 1_555
Cu12 F4 1.900957 1_655
Cu12 F46 1.907437 1_555
Cu12 F53 1.917606 1_545
Cu13 F32 1.857339 1_555
Cu13 F35 1.873586 1_555
Cu13 F3 1.907451 1_655
Cu13 F3 1.907451 1_555
Cu13 F31 1.917690 1_555
Cu13 F46 1.973757 1_555
Cu14 F38 1.861289 1_555
Cu14 F52 1.889507 1_555
Cu14 F16 1.904644 1_555
Cu14 F16 1.904644 1_655
Cu14 F49 1.917094 1_555
Cu14 F48 1.948062 1_555
Cu15 F50 1.843376 1_555
Cu15 F53 1.872651 1_555
Cu15 F32 1.892480 1_565
Cu15 F52 1.898137 1_555
Cu15 F20 1.901288 1_555
Cu15 F20 1.901288 1_655
F0 Li0 1.920354 1_555
F3 Li2 2.204438 1_555
F6 Li11 2.433560 1_545
F6 Li11 2.433560 1_445
F7 Li3 2.185172 1_555
F8 Li2 1.858967 1_555
F9 Li7 1.972018 1_455
F9 Li7 1.972018 1_555
F12 Li3 1.869289 1_555
F12 Li0 2.164695 1_565
F14 Li4 1.879317 1_555
F14 Li9 2.370426 1_555
F14 Li9 2.370426 1_455
F19 Li6 2.214424 1_556
F19 Li6 2.214424 1_456
F19 Li1 2.238556 1_556
F21 Li5 2.010108 1_555
F21 Li9 2.360982 1_555
F21 Li9 2.360982 1_455
F22 Li1 2.021180 1_556
F22 Li8 2.190038 1_455
F22 Li8 2.190038 1_555
F25 Li5 2.033173 1_555
F27 Li10 1.984208 1_455
F27 Li10 1.984208 1_555
F30 Li6 2.010108 1_555
F30 Li1 2.360982 1_555
F30 Li1 2.360982 1_655
F33 Li7 2.185172 1_555
F34 Li7 1.869289 1_555
F34 Li11 2.164695 1_545
F35 Li2 1.984208 1_555
F35 Li2 1.984208 1_655
F41 Li6 2.033173 1_555
F48 Li9 2.021180 1_555
F48 Li4 2.190038 1_655
F48 Li4 2.190038 1_555
F49 Li5 2.214424 1_555
F49 Li5 2.214424 1_655
F49 Li9 2.238556 1_555
F50 Li0 2.433560 1_665
F50 Li0 2.433560 1_565
F54 Li8 1.879317 1_555
F54 Li1 2.370426 1_556
F54 Li1 2.370426 1_656
F56 Li3 1.972018 1_555
F56 Li3 1.972018 1_655
F57 Li10 2.204438 1_555
F58 Li11 1.920354 1_555
F59 Li10 1.858967 1_555
