# generated using pymatgen
data_Li2VF5
_symmetry_space_group_name_H-M   'P 1'
_cell_length_a   5.30800100
_cell_length_b   13.75571400
_cell_length_c   14.52497532
_cell_angle_alpha   83.31356567
_cell_angle_beta   90.00000000
_cell_angle_gamma   90.00000000
_symmetry_Int_Tables_number   1
_chemical_formula_structural   Li2VF5
_chemical_formula_sum   'Li24 V12 F60'
_cell_volume   1053.33249051
_cell_formula_units_Z   12
loop_
 _symmetry_equiv_pos_site_id
 _symmetry_equiv_pos_as_xyz
  1  'x, y, z'
loop_
 _atom_site_type_symbol
 _atom_site_label
 _atom_site_symmetry_multiplicity
 _atom_site_fract_x
 _atom_site_fract_y
 _atom_site_fract_z
 _atom_site_occupancy
  Li  Li0  1  0.30542800  0.57115900  0.02362100  1
  Li  Li1  1  0.19457200  0.07115900  0.02362100  1
  Li  Li2  1  0.70001600  0.71543600  0.07345900  1
  Li  Li3  1  0.79998400  0.21543600  0.07345900  1
  Li  Li4  1  0.20572400  0.61306900  0.23515600  1
  Li  Li5  1  0.29427600  0.11306900  0.23515600  1
  Li  Li6  1  0.78797800  0.74493100  0.28767700  1
  Li  Li7  1  0.71202200  0.24493100  0.28767700  1
  Li  Li8  1  0.26438700  0.94025400  0.37962600  1
  Li  Li9  1  0.23561300  0.44025400  0.37962600  1
  Li  Li10  1  0.70186000  0.55717300  0.42279700  1
  Li  Li11  1  0.79814000  0.05717300  0.42279700  1
  Li  Li12  1  0.20186000  0.94282700  0.57720300  1
  Li  Li13  1  0.29814000  0.44282700  0.57720300  1
  Li  Li14  1  0.76438700  0.55974600  0.62037400  1
  Li  Li15  1  0.73561300  0.05974600  0.62037400  1
  Li  Li16  1  0.28797800  0.75506900  0.71232300  1
  Li  Li17  1  0.21202200  0.25506900  0.71232300  1
  Li  Li18  1  0.70572400  0.88693100  0.76484400  1
  Li  Li19  1  0.79427600  0.38693100  0.76484400  1
  Li  Li20  1  0.20001600  0.78456400  0.92654100  1
  Li  Li21  1  0.29998400  0.28456400  0.92654100  1
  Li  Li22  1  0.80542800  0.92884100  0.97637900  1
  Li  Li23  1  0.69457200  0.42884100  0.97637900  1
  V  V0  1  0.28450100  0.84938700  0.13144600  1
  V  V1  1  0.21549900  0.34938700  0.13144600  1
  V  V2  1  0.74612500  0.98904200  0.20846700  1
  V  V3  1  0.75387500  0.48904200  0.20846700  1
  V  V4  1  0.24592900  0.67956100  0.45539500  1
  V  V5  1  0.25407100  0.17956100  0.45539500  1
  V  V6  1  0.74592900  0.82043900  0.54460500  1
  V  V7  1  0.75407100  0.32043900  0.54460500  1
  V  V8  1  0.24612500  0.51095800  0.79153300  1
  V  V9  1  0.25387500  0.01095800  0.79153300  1
  V  V10  1  0.78450100  0.65061300  0.86855400  1
  V  V11  1  0.71549900  0.15061300  0.86855400  1
  F  F0  1  0.53302100  0.85064700  0.03480100  1
  F  F1  1  0.03669600  0.82719600  0.03545300  1
  F  F2  1  0.96697900  0.35064700  0.03480100  1
  F  F3  1  0.46330400  0.32719600  0.03545300  1
  F  F4  1  0.33654600  0.70540000  0.14284100  1
  F  F5  1  0.16345400  0.20540000  0.14284100  1
  F  F6  1  0.60907200  0.50446300  0.08468800  1
  F  F7  1  0.89092800  0.00446300  0.08468800  1
  F  F8  1  0.11372600  0.49987800  0.13261000  1
  F  F9  1  0.38627400  0.99987800  0.13261000  1
  F  F10  1  0.99705500  0.85503500  0.21439300  1
  F  F11  1  0.50294500  0.35503500  0.21439300  1
  F  F12  1  0.54029800  0.85398000  0.22816400  1
  F  F13  1  0.95970200  0.35398000  0.22816400  1
  F  F14  1  0.81440200  0.63471400  0.19026300  1
  F  F15  1  0.68559800  0.13471400  0.19026300  1
  F  F16  1  0.45396000  0.51678000  0.28078600  1
  F  F17  1  0.91889200  0.49572300  0.32974300  1
  F  F18  1  0.04604000  0.01678000  0.28078600  1
  F  F19  1  0.58110800  0.99572300  0.32974300  1
  F  F20  1  0.09019600  0.68157100  0.33441400  1
  F  F21  1  0.55936800  0.69483600  0.38155200  1
  F  F22  1  0.40980400  0.18157100  0.33441400  1
  F  F23  1  0.94063200  0.19483600  0.38155200  1
  F  F24  1  0.31249700  0.53795900  0.45982800  1
  F  F25  1  0.97610100  0.82019400  0.43701600  1
  F  F26  1  0.18750300  0.03795900  0.45982800  1
  F  F27  1  0.52389900  0.32019400  0.43701600  1
  F  F28  1  0.43746700  0.85795400  0.48020600  1
  F  F29  1  0.06253300  0.35795400  0.48020600  1
  F  F30  1  0.93746700  0.64204600  0.51979400  1
  F  F31  1  0.56253300  0.14204600  0.51979400  1
  F  F32  1  0.47610100  0.67980600  0.56298400  1
  F  F33  1  0.81249700  0.96204100  0.54017200  1
  F  F34  1  0.02389900  0.17980600  0.56298400  1
  F  F35  1  0.68750300  0.46204100  0.54017200  1
  F  F36  1  0.05936800  0.80516400  0.61844800  1
  F  F37  1  0.59019600  0.81842900  0.66558600  1
  F  F38  1  0.44063200  0.30516400  0.61844800  1
  F  F39  1  0.90980400  0.31842900  0.66558600  1
  F  F40  1  0.41889200  0.00427700  0.67025700  1
  F  F41  1  0.95396000  0.98322000  0.71921400  1
  F  F42  1  0.08110800  0.50427700  0.67025700  1
  F  F43  1  0.54604000  0.48322000  0.71921400  1
  F  F44  1  0.31440200  0.86528600  0.80973700  1
  F  F45  1  0.18559800  0.36528600  0.80973700  1
  F  F46  1  0.04029800  0.64602000  0.77183600  1
  F  F47  1  0.45970200  0.14602000  0.77183600  1
  F  F48  1  0.49705500  0.64496500  0.78560700  1
  F  F49  1  0.00294500  0.14496500  0.78560700  1
  F  F50  1  0.61372600  0.00012200  0.86739000  1
  F  F51  1  0.88627400  0.50012200  0.86739000  1
  F  F52  1  0.10907200  0.99553700  0.91531200  1
  F  F53  1  0.39092800  0.49553700  0.91531200  1
  F  F54  1  0.83654600  0.79460000  0.85715900  1
  F  F55  1  0.66345400  0.29460000  0.85715900  1
  F  F56  1  0.53669600  0.67280400  0.96454700  1
  F  F57  1  0.03302100  0.64935300  0.96519900  1
  F  F58  1  0.96330400  0.17280400  0.96454700  1
  F  F59  1  0.46697900  0.14935300  0.96519900  1
loop_
_geom_bond_atom_site_label_1
_geom_bond_atom_site_label_2
_geom_bond_distance
_geom_bond_site_symmetry_2
F0 V0 1.924925 1_555
F0 Li22 1.937837 1_554
F0 Li2 2.077770 1_555
F1 Li20 1.952948 1_554
F1 V0 1.966341 1_555
F1 Li22 1.979585 1_454
F1 Li2 2.379967 1_455
F2 V1 1.924925 1_655
F2 Li23 1.937837 1_554
F2 Li3 2.077770 1_555
F3 Li21 1.952948 1_554
F3 V1 1.966341 1_555
F3 Li23 1.979585 1_554
F3 Li3 2.379967 1_555
F4 Li4 1.869934 1_555
F4 V0 1.987542 1_555
F4 Li2 2.173582 1_555
F5 Li5 1.869934 1_555
F5 V1 1.987542 1_555
F5 Li3 2.173582 1_455
F6 V3 1.944055 1_555
F6 Li0 2.009151 1_555
F6 Li23 2.035695 1_554
F7 V2 1.944055 1_545
F7 Li1 2.009151 1_655
F7 Li22 2.035695 1_544
F8 Li0 2.035057 1_555
F8 V1 2.141407 1_555
F8 V3 2.201460 1_455
F8 Li4 2.328388 1_555
F9 Li1 2.035057 1_565
F9 V0 2.141407 1_555
F9 V2 2.201460 1_555
F9 Li5 2.328388 1_565
F10 V0 1.951240 1_655
F10 Li6 2.069571 1_555
F10 V2 2.267708 1_555
F11 V1 1.951240 1_555
F11 Li7 2.069571 1_555
F11 V3 2.267708 1_555
F12 V0 1.960036 1_555
F12 Li6 2.103286 1_555
F12 V2 2.145552 1_555
F13 V1 1.960036 1_655
F13 Li7 2.103286 1_555
F13 V3 2.145552 1_555
F14 Li2 2.010293 1_555
F14 V3 2.016198 1_555
F14 Li4 2.187038 1_655
F14 Li6 2.195421 1_555
F15 Li3 2.010293 1_555
F15 V2 2.016198 1_545
F15 Li5 2.187038 1_555
F15 Li7 2.195421 1_555
F16 Li4 1.930122 1_555
F16 V3 1.968915 1_555
F16 Li9 2.039735 1_555
F17 Li9 1.950566 1_655
F17 V3 1.978978 1_555
F17 Li10 2.033354 1_555
F17 Li4 2.508921 1_655
F18 Li5 1.930122 1_555
F18 V2 1.968915 1_445
F18 Li8 2.039735 1_545
F19 Li8 1.950566 1_555
F19 V2 1.978978 1_555
F19 Li11 2.033354 1_565
F19 Li5 2.508921 1_565
F20 Li6 1.912081 1_455
F20 Li4 1.912819 1_555
F20 V4 1.939248 1_555
F21 Li6 1.894136 1_555
F21 V4 1.977393 1_555
F21 Li10 2.062208 1_555
F22 Li7 1.912081 1_555
F22 Li5 1.912819 1_555
F22 V5 1.939248 1_555
F23 Li7 1.894136 1_555
F23 V5 1.977393 1_655
F23 Li11 2.062208 1_555
F24 Li9 1.922122 1_555
F24 V4 1.973286 1_555
F24 Li13 2.026155 1_555
F24 Li10 2.144171 1_555
F25 V6 1.983945 1_555
F25 Li8 2.333099 1_655
F25 V4 2.396801 1_655
F26 Li8 1.922122 1_545
F26 V5 1.973286 1_555
F26 Li12 2.026155 1_545
F26 Li11 2.144171 1_455
F27 V7 1.983945 1_555
F27 Li9 2.333099 1_555
F27 V5 2.396801 1_555
F28 V6 1.926048 1_555
F28 Li8 1.968454 1_555
F28 Li12 2.301090 1_555
F29 V7 1.926048 1_455
F29 Li9 1.968454 1_555
F29 Li13 2.301090 1_555
F30 V4 1.926048 1_655
F30 Li14 1.968454 1_555
F30 Li10 2.301090 1_555
F31 V5 1.926048 1_555
F31 Li15 1.968454 1_555
F31 Li11 2.301090 1_555
F32 V4 1.983945 1_555
F32 Li14 2.333099 1_555
F32 V6 2.396801 1_555
F33 Li15 1.922122 1_565
F33 V6 1.973286 1_555
F33 Li11 2.026155 1_565
F33 Li12 2.144171 1_655
F34 V5 1.983945 1_555
F34 Li15 2.333099 1_455
F34 V7 2.396801 1_455
F35 Li14 1.922122 1_555
F35 V7 1.973286 1_555
F35 Li10 2.026155 1_555
F35 Li13 2.144171 1_555
F36 Li16 1.894136 1_555
F36 V6 1.977393 1_455
F36 Li12 2.062208 1_555
F37 Li16 1.912081 1_555
F37 Li18 1.912819 1_555
F37 V6 1.939248 1_555
F38 Li17 1.894136 1_555
F38 V7 1.977393 1_555
F38 Li13 2.062208 1_555
F39 Li17 1.912081 1_655
F39 Li19 1.912819 1_555
F39 V7 1.939248 1_555
F40 Li15 1.950566 1_555
F40 V9 1.978978 1_555
F40 Li12 2.033354 1_545
F40 Li18 2.508921 1_545
F41 Li18 1.930122 1_555
F41 V9 1.968915 1_665
F41 Li15 2.039735 1_565
F42 Li14 1.950566 1_455
F42 V8 1.978978 1_555
F42 Li13 2.033354 1_555
F42 Li19 2.508921 1_455
F43 Li19 1.930122 1_555
F43 V8 1.968915 1_555
F43 Li14 2.039735 1_555
F44 Li20 2.010293 1_555
F44 V9 2.016198 1_565
F44 Li18 2.187038 1_555
F44 Li16 2.195421 1_555
F45 Li21 2.010293 1_555
F45 V8 2.016198 1_555
F45 Li19 2.187038 1_455
F45 Li17 2.195421 1_555
F46 V10 1.960036 1_455
F46 Li16 2.103286 1_555
F46 V8 2.145552 1_555
F47 V11 1.960036 1_555
F47 Li17 2.103286 1_555
F47 V9 2.145552 1_555
F48 V10 1.951240 1_555
F48 Li16 2.069571 1_555
F48 V8 2.267708 1_555
F49 V11 1.951240 1_455
F49 Li17 2.069571 1_555
F49 V9 2.267708 1_555
F50 Li22 2.035057 1_545
F50 V11 2.141407 1_555
F50 V9 2.201460 1_555
F50 Li18 2.328388 1_545
F51 Li23 2.035057 1_555
F51 V10 2.141407 1_555
F51 V8 2.201460 1_655
F51 Li19 2.328388 1_555
F52 V9 1.944055 1_565
F52 Li22 2.009151 1_455
F52 Li1 2.035695 1_566
F53 V8 1.944055 1_555
F53 Li23 2.009151 1_555
F53 Li0 2.035695 1_556
F54 Li18 1.869934 1_555
F54 V10 1.987542 1_555
F54 Li20 2.173582 1_655
F55 Li19 1.869934 1_555
F55 V11 1.987542 1_555
F55 Li21 2.173582 1_555
F56 Li2 1.952948 1_556
F56 V10 1.966341 1_555
F56 Li0 1.979585 1_556
F56 Li20 2.379967 1_555
F57 V10 1.924925 1_455
F57 Li0 1.937837 1_556
F57 Li20 2.077770 1_555
F58 Li3 1.952948 1_556
F58 V11 1.966341 1_555
F58 Li1 1.979585 1_656
F58 Li21 2.379967 1_655
F59 V11 1.924925 1_555
F59 Li1 1.937837 1_556
F59 Li21 2.077770 1_555
