# generated using pymatgen
data_Li3MnV(PO4)3
_symmetry_space_group_name_H-M   'P 1'
_cell_length_a   8.52107000
_cell_length_b   8.72504799
_cell_length_c   12.23578886
_cell_angle_alpha   89.68326875
_cell_angle_beta   88.28009881
_cell_angle_gamma   89.84485880
_symmetry_Int_Tables_number   1
_chemical_formula_structural   Li3MnV(PO4)3
_chemical_formula_sum   'Li12 Mn4 V4 P12 O48'
_cell_volume   909.26441654
_cell_formula_units_Z   4
loop_
 _symmetry_equiv_pos_site_id
 _symmetry_equiv_pos_as_xyz
  1  'x, y, z'
loop_
 _atom_site_type_symbol
 _atom_site_label
 _atom_site_symmetry_multiplicity
 _atom_site_fract_x
 _atom_site_fract_y
 _atom_site_fract_z
 _atom_site_occupancy
  Li  Li0  1  0.93604900  0.51497200  0.34384200  1
  Li  Li1  1  0.91941800  0.08473700  0.69073400  1
  Li  Li2  1  0.82155400  0.78346800  0.17664100  1
  Li  Li3  1  0.68158900  0.28067800  0.32253900  1
  Li  Li4  1  0.58079700  0.58602500  0.80913000  1
  Li  Li5  1  0.56365200  0.01602100  0.15613500  1
  Li  Li6  1  0.43661500  0.98591500  0.84426100  1
  Li  Li7  1  0.41986100  0.41566100  0.19189100  1
  Li  Li8  1  0.31891100  0.71772700  0.67700400  1
  Li  Li9  1  0.18008200  0.21716500  0.82421300  1
  Li  Li10  1  0.08172200  0.91517700  0.30843600  1
  Li  Li11  1  0.06228100  0.48289400  0.65432300  1
  Mn  Mn0  1  0.75409000  0.03030700  0.89621500  1
  Mn  Mn1  1  0.25456800  0.46931100  0.39664000  1
  Mn  Mn2  1  0.24563600  0.53749500  0.89044800  1
  Mn  Mn3  1  0.24552200  0.97053800  0.10327900  1
  V  V0  1  0.75625100  0.46487900  0.10779400  1
  V  V1  1  0.74231100  0.52658800  0.60390400  1
  V  V2  1  0.74551100  0.96427000  0.39112100  1
  V  V3  1  0.25531900  0.03445300  0.61005600  1
  P  P0  1  0.95974500  0.24773500  0.49113700  1
  P  P1  1  0.88269700  0.37944600  0.84720400  1
  P  P2  1  0.88567200  0.10948800  0.14864600  1
  P  P3  1  0.61384700  0.88287900  0.64994800  1
  P  P4  1  0.61391700  0.60898800  0.35253700  1
  P  P5  1  0.54660200  0.75129500  0.00971100  1
  P  P6  1  0.45491800  0.25258100  0.99152600  1
  P  P7  1  0.38181400  0.39021200  0.65220600  1
  P  P8  1  0.38572500  0.11934200  0.35185400  1
  P  P9  1  0.11437600  0.88850400  0.85204500  1
  P  P10  1  0.11623800  0.61946000  0.14522600  1
  P  P11  1  0.04360500  0.74881200  0.50911100  1
  O  O0  1  0.94611400  0.88746200  0.89854500  1
  O  O1  1  0.95138200  0.86775100  0.44336700  1
  O  O2  1  0.94570300  0.66234300  0.59753700  1
  O  O3  1  0.94313900  0.58104300  0.18484300  1
  O  O4  1  0.89892200  0.35843300  0.58164600  1
  O  O5  1  0.87462400  0.19953100  0.83403900  1
  O  O6  1  0.85669200  0.41882900  0.96804100  1
  O  O7  1  0.87613700  0.99482900  0.24913800  1
  O  O8  1  0.82926400  0.27048400  0.18784500  1
  O  O9  1  0.81570600  0.17704800  0.43446900  1
  O  O10  1  0.76699500  0.46704100  0.77526800  1
  O  O11  1  0.76348300  0.04703900  0.06885300  1
  O  O12  1  0.73332000  0.54714900  0.43682900  1
  O  O13  1  0.72814900  0.97316500  0.71880100  1
  O  O14  1  0.69024300  0.67951000  0.06688200  1
  O  O15  1  0.67262600  0.76906100  0.31298400  1
  O  O16  1  0.63691900  0.91824200  0.52782300  1
  O  O17  1  0.62901400  0.49410100  0.25385300  1
  O  O18  1  0.62465800  0.70513400  0.66900400  1
  O  O19  1  0.60720300  0.86476200  0.91818400  1
  O  O20  1  0.55152300  0.16782400  0.90128600  1
  O  O21  1  0.55945500  0.08202500  0.31259200  1
  O  O22  1  0.55016100  0.39228700  0.60647500  1
  O  O23  1  0.54751300  0.36945700  0.05713400  1
  O  O24  1  0.45813900  0.63266900  0.94473100  1
  O  O25  1  0.44400500  0.61014600  0.39680900  1
  O  O26  1  0.43973500  0.91977900  0.68799200  1
  O  O27  1  0.44756900  0.83608700  0.09932900  1
  O  O28  1  0.39387700  0.13869800  0.08289500  1
  O  O29  1  0.37877800  0.29909900  0.33449700  1
  O  O30  1  0.37362500  0.50557000  0.75243500  1
  O  O31  1  0.36361800  0.08332100  0.47333600  1
  O  O32  1  0.32739200  0.22884700  0.69119300  1
  O  O33  1  0.30975300  0.32633400  0.93745000  1
  O  O34  1  0.27081400  0.03131000  0.28221000  1
  O  O35  1  0.26159800  0.45477700  0.57126400  1
  O  O36  1  0.23756100  0.95227400  0.93073500  1
  O  O37  1  0.23197500  0.53143600  0.21529800  1
  O  O38  1  0.18665200  0.82149400  0.56447000  1
  O  O39  1  0.17212300  0.72729500  0.81190900  1
  O  O40  1  0.12345200  0.00190100  0.75082000  1
  O  O41  1  0.13483000  0.58703500  0.02288900  1
  O  O42  1  0.12265300  0.79896800  0.16366900  1
  O  O43  1  0.10466200  0.63736500  0.41654700  1
  O  O44  1  0.05488200  0.41338200  0.80780600  1
  O  O45  1  0.05720900  0.33402900  0.40038300  1
  O  O46  1  0.05068400  0.12580900  0.55386900  1
  O  O47  1  0.05458100  0.11080700  0.10226700  1
loop_
_geom_bond_atom_site_label_1
_geom_bond_atom_site_label_2
_geom_bond_distance
_geom_bond_site_symmetry_2
Li0 O45 2.014665 1_655
Li0 O43 2.022769 1_655
Li0 O3 2.025238 1_555
Li0 O12 2.059225 1_555
Li1 O13 1.921766 1_545
Li1 O46 2.016699 1_655
Li1 O40 2.037061 1_655
Li1 O5 2.049540 1_555
Li2 O14 1.996863 1_555
Li2 O3 2.048697 1_555
Li2 O15 2.069009 1_555
Li2 O7 2.109864 1_555
Li3 O9 2.018393 1_555
Li3 O21 2.030217 1_555
Li3 O8 2.045500 1_555
Li3 O17 2.091725 1_555
Li4 O10 1.929533 1_555
Li4 O24 1.977874 1_555
Li4 O18 2.025664 1_555
Li4 O30 2.043522 1_555
Li5 O27 1.996990 1_545
Li5 O11 2.000842 1_555
Li5 O21 2.001431 1_555
Li5 O28 2.024951 1_555
Li6 O36 1.993527 1_555
Li6 O26 1.999694 1_555
Li6 O20 2.006570 1_565
Li6 O19 2.026939 1_555
Li7 O37 1.905912 1_555
Li7 O23 1.990408 1_555
Li7 O29 2.036459 1_555
Li7 O17 2.076753 1_555
Li8 O38 2.014848 1_555
Li8 O39 2.042836 1_555
Li8 O26 2.051017 1_555
Li8 O30 2.120844 1_555
Li9 O44 2.026959 1_555
Li9 O32 2.027642 1_555
Li9 O33 2.039625 1_555
Li9 O40 2.148594 1_555
Li10 O34 1.923557 1_565
Li10 O1 2.003838 1_455
Li10 O7 2.035279 1_455
Li10 O42 2.065961 1_555
Li11 O35 1.968366 1_555
Li11 O44 1.969555 1_555
Li11 O2 1.985437 1_455
Li11 O4 2.000209 1_455
Mn0 O19 1.926241 1_545
Mn0 O5 1.939735 1_555
Mn0 O0 2.054952 1_545
Mn0 O20 2.099054 1_555
Mn0 O11 2.122125 1_556
Mn0 O13 2.247481 1_545
Mn1 O43 1.953479 1_555
Mn1 O29 1.964583 1_555
Mn1 O25 2.031395 1_555
Mn1 O45 2.056449 1_555
Mn1 O35 2.142345 1_555
Mn1 O37 2.294777 1_555
Mn2 O41 1.902128 1_556
Mn2 O30 2.002925 1_555
Mn2 O33 2.006324 1_555
Mn2 O39 2.017719 1_555
Mn2 O24 2.120372 1_555
Mn2 O44 2.226539 1_555
Mn3 O28 1.949366 1_565
Mn3 O42 1.957768 1_555
Mn3 O47 2.033575 1_565
Mn3 O27 2.080210 1_555
Mn3 O36 2.121223 1_554
Mn3 O34 2.272154 1_565
O0 P9 1.526614 1_655
O1 P11 1.538139 1_655
O1 V2 2.061209 1_555
O2 P11 1.541419 1_655
O2 V1 2.101124 1_555
O3 P10 1.575082 1_655
O3 V0 2.135762 1_555
O4 P0 1.550024 1_555
O4 V1 1.994894 1_555
O5 P1 1.580789 1_555
O6 P1 1.529308 1_555
O6 V0 1.932843 1_556
O7 P2 1.581192 1_565
O7 V2 2.051476 1_555
O8 P2 1.556986 1_555
O8 V0 2.058090 1_555
O9 P0 1.558041 1_555
O9 V2 2.030177 1_545
O10 P1 1.539945 1_555
O10 V1 2.173585 1_555
O11 P2 1.550528 1_555
O12 P4 1.563300 1_555
O12 V1 2.054864 1_555
O13 P3 1.529602 1_555
O14 P5 1.556325 1_555
O14 V0 2.018579 1_555
O15 P4 1.554631 1_555
O15 V2 2.063994 1_555
O16 P3 1.531132 1_555
O16 V2 1.927941 1_555
O17 P4 1.575659 1_555
O17 V0 2.078849 1_555
O18 P3 1.569858 1_555
O18 V1 2.005915 1_555
O19 P5 1.567402 1_556
O20 P6 1.547524 1_555
O21 P8 1.576296 1_555
O21 V2 2.136360 1_545
O22 P7 1.524158 1_555
O22 V1 2.015387 1_555
O23 P6 1.535670 1_554
O23 V0 2.078694 1_555
O24 P5 1.523460 1_556
O25 P4 1.530576 1_555
O26 P3 1.574512 1_555
O26 V3 2.109667 1_565
O27 P5 1.553028 1_555
O28 P6 1.569498 1_554
O29 P8 1.582725 1_555
O30 P7 1.590616 1_555
O31 P8 1.523836 1_555
O31 V3 1.932225 1_555
O32 P7 1.551669 1_555
O32 V3 2.073733 1_555
O33 P6 1.556301 1_555
O34 P8 1.528486 1_555
O35 P7 1.548920 1_555
O36 P9 1.551832 1_555
O37 P10 1.528701 1_555
O38 P11 1.550876 1_555
O38 V3 2.035404 1_565
O39 P9 1.565595 1_555
O40 P9 1.581154 1_545
O40 V3 2.046929 1_555
O41 P10 1.528404 1_555
O42 P10 1.584947 1_555
O43 P11 1.572590 1_555
O44 P1 1.559184 1_455
O45 P0 1.558361 1_455
O46 P0 1.530863 1_455
O46 V3 2.051070 1_555
O47 P2 1.531242 1_455
