# generated using pymatgen
data_CaH3NO5
_symmetry_space_group_name_H-M   'P 1'
_cell_length_a   8.88723900
_cell_length_b   14.18236200
_cell_length_c   14.64183400
_cell_angle_alpha   90.00000000
_cell_angle_beta   90.00000000
_cell_angle_gamma   90.00000000
_symmetry_Int_Tables_number   1
_chemical_formula_structural   CaH3NO5
_chemical_formula_sum   'Ca16 H48 N16 O80'
_cell_volume   1845.48663664
_cell_formula_units_Z   16
loop_
 _symmetry_equiv_pos_site_id
 _symmetry_equiv_pos_as_xyz
  1  'x, y, z'
loop_
 _atom_site_type_symbol
 _atom_site_label
 _atom_site_symmetry_multiplicity
 _atom_site_fract_x
 _atom_site_fract_y
 _atom_site_fract_z
 _atom_site_occupancy
  Ca  Ca0  1  0.48573500  0.26838700  0.05303200  1
  Ca  Ca1  1  0.01426500  0.76838700  0.94696800  1
  Ca  Ca2  1  0.98573500  0.73161300  0.44696800  1
  Ca  Ca3  1  0.51426500  0.23161300  0.55303200  1
  Ca  Ca4  1  0.51426500  0.73161300  0.94696800  1
  Ca  Ca5  1  0.98573500  0.23161300  0.05303200  1
  Ca  Ca6  1  0.01426500  0.26838700  0.55303200  1
  Ca  Ca7  1  0.48573500  0.76838700  0.44696800  1
  Ca  Ca8  1  0.48683700  0.27118900  0.80134800  1
  Ca  Ca9  1  0.01316300  0.77118900  0.19865200  1
  Ca  Ca10  1  0.98683700  0.72881100  0.69865200  1
  Ca  Ca11  1  0.51316300  0.22881100  0.30134800  1
  Ca  Ca12  1  0.51316300  0.72881100  0.19865200  1
  Ca  Ca13  1  0.98683700  0.22881100  0.80134800  1
  Ca  Ca14  1  0.01316300  0.27118900  0.30134800  1
  Ca  Ca15  1  0.48683700  0.77118900  0.69865200  1
  H  H0  1  0.59157200  0.40373800  0.19111900  1
  H  H1  1  0.90842800  0.90373800  0.80888100  1
  H  H2  1  0.09157200  0.59626200  0.30888100  1
  H  H3  1  0.40842800  0.09626200  0.69111900  1
  H  H4  1  0.40842800  0.59626200  0.80888100  1
  H  H5  1  0.09157200  0.09626200  0.19111900  1
  H  H6  1  0.90842800  0.40373800  0.69111900  1
  H  H7  1  0.59157200  0.90373800  0.30888100  1
  H  H8  1  0.74018200  0.33354200  0.17965100  1
  H  H9  1  0.75981800  0.83354200  0.82034900  1
  H  H10  1  0.24018200  0.66645800  0.32034900  1
  H  H11  1  0.25981800  0.16645800  0.67965100  1
  H  H12  1  0.25981800  0.66645800  0.82034900  1
  H  H13  1  0.24018200  0.16645800  0.17965100  1
  H  H14  1  0.75981800  0.33354200  0.67965100  1
  H  H15  1  0.74018200  0.83354200  0.32034900  1
  H  H16  1  0.41522200  0.10153300  0.16222200  1
  H  H17  1  0.08477800  0.60153300  0.83777800  1
  H  H18  1  0.91522200  0.89846700  0.33777800  1
  H  H19  1  0.58477800  0.39846700  0.66222200  1
  H  H20  1  0.58477800  0.89846700  0.83777800  1
  H  H21  1  0.91522200  0.39846700  0.16222200  1
  H  H22  1  0.08477800  0.10153300  0.66222200  1
  H  H23  1  0.41522200  0.60153300  0.33777800  1
  H  H24  1  0.42903800  0.11535300  0.92522100  1
  H  H25  1  0.07096200  0.61535300  0.07477900  1
  H  H26  1  0.92903800  0.88464700  0.57477900  1
  H  H27  1  0.57096200  0.38464700  0.42522100  1
  H  H28  1  0.57096200  0.88464700  0.07477900  1
  H  H29  1  0.92903800  0.38464700  0.92522100  1
  H  H30  1  0.07096200  0.11535300  0.42522100  1
  H  H31  1  0.42903800  0.61535300  0.57477900  1
  H  H32  1  0.60403800  0.41032700  0.92785000  1
  H  H33  1  0.89596200  0.91032700  0.07215000  1
  H  H34  1  0.10403800  0.58967300  0.57215000  1
  H  H35  1  0.39596200  0.08967300  0.42785000  1
  H  H36  1  0.39596200  0.58967300  0.07215000  1
  H  H37  1  0.10403800  0.08967300  0.92785000  1
  H  H38  1  0.89596200  0.41032700  0.42785000  1
  H  H39  1  0.60403800  0.91032700  0.57215000  1
  H  H40  1  0.75601000  0.33102400  0.92580500  1
  H  H41  1  0.74399000  0.83102400  0.07419500  1
  H  H42  1  0.25601000  0.66897600  0.57419500  1
  H  H43  1  0.24399000  0.16897600  0.42580500  1
  H  H44  1  0.24399000  0.66897600  0.07419500  1
  H  H45  1  0.25601000  0.16897600  0.92580500  1
  H  H46  1  0.74399000  0.33102400  0.42580500  1
  H  H47  1  0.75601000  0.83102400  0.57419500  1
  N  N0  1  0.73779800  0.08810800  0.05520200  1
  N  N1  1  0.76220200  0.58810800  0.94479800  1
  N  N2  1  0.23779800  0.91189200  0.44479800  1
  N  N3  1  0.26220200  0.41189200  0.55520200  1
  N  N4  1  0.26220200  0.91189200  0.94479800  1
  N  N5  1  0.23779800  0.41189200  0.05520200  1
  N  N6  1  0.76220200  0.08810800  0.55520200  1
  N  N7  1  0.73779800  0.58810800  0.44479800  1
  N  N8  1  0.73049800  0.09052700  0.81021300  1
  N  N9  1  0.76950200  0.59052700  0.18978700  1
  N  N10  1  0.23049800  0.90947300  0.68978700  1
  N  N11  1  0.26950200  0.40947300  0.31021300  1
  N  N12  1  0.26950200  0.90947300  0.18978700  1
  N  N13  1  0.23049800  0.40947300  0.81021300  1
  N  N14  1  0.76950200  0.09052700  0.31021300  1
  N  N15  1  0.73049800  0.59052700  0.68978700  1
  O  O0  1  0.87224900  0.05857100  0.06290500  1
  O  O1  1  0.62775100  0.55857100  0.93709500  1
  O  O2  1  0.37224900  0.94142900  0.43709500  1
  O  O3  1  0.12775100  0.44142900  0.56290500  1
  O  O4  1  0.12775100  0.94142900  0.93709500  1
  O  O5  1  0.37224900  0.44142900  0.06290500  1
  O  O6  1  0.62775100  0.05857100  0.56290500  1
  O  O7  1  0.87224900  0.55857100  0.43709500  1
  O  O8  1  0.62681700  0.03568900  0.05430500  1
  O  O9  1  0.87318300  0.53568900  0.94569500  1
  O  O10  1  0.12681700  0.96431100  0.44569500  1
  O  O11  1  0.37318300  0.46431100  0.55430500  1
  O  O12  1  0.37318300  0.96431100  0.94569500  1
  O  O13  1  0.12681700  0.46431100  0.05430500  1
  O  O14  1  0.87318300  0.03568900  0.55430500  1
  O  O15  1  0.62681700  0.53568900  0.44569500  1
  O  O16  1  0.72118800  0.17886900  0.04768300  1
  O  O17  1  0.77881200  0.67886900  0.95231700  1
  O  O18  1  0.22118800  0.82113100  0.45231700  1
  O  O19  1  0.27881200  0.32113100  0.54768300  1
  O  O20  1  0.27881200  0.82113100  0.95231700  1
  O  O21  1  0.22118800  0.32113100  0.04768300  1
  O  O22  1  0.77881200  0.17886900  0.54768300  1
  O  O23  1  0.72118800  0.67886900  0.45231700  1
  O  O24  1  0.86233700  0.05611700  0.81367200  1
  O  O25  1  0.63766300  0.55611700  0.18632800  1
  O  O26  1  0.36233700  0.94388300  0.68632800  1
  O  O27  1  0.13766300  0.44388300  0.31367200  1
  O  O28  1  0.13766300  0.94388300  0.18632800  1
  O  O29  1  0.36233700  0.44388300  0.81367200  1
  O  O30  1  0.63766300  0.05611700  0.31367200  1
  O  O31  1  0.86233700  0.55611700  0.68632800  1
  O  O32  1  0.61441300  0.04302400  0.81923800  1
  O  O33  1  0.88558700  0.54302400  0.18076200  1
  O  O34  1  0.11441300  0.95697600  0.68076200  1
  O  O35  1  0.38558700  0.45697600  0.31923800  1
  O  O36  1  0.38558700  0.95697600  0.18076200  1
  O  O37  1  0.11441300  0.45697600  0.81923800  1
  O  O38  1  0.88558700  0.04302400  0.31923800  1
  O  O39  1  0.61441300  0.54302400  0.68076200  1
  O  O40  1  0.72098200  0.18081500  0.79657500  1
  O  O41  1  0.77901800  0.68081500  0.20342500  1
  O  O42  1  0.22098200  0.81918500  0.70342500  1
  O  O43  1  0.27901800  0.31918500  0.29657500  1
  O  O44  1  0.27901800  0.81918500  0.20342500  1
  O  O45  1  0.22098200  0.31918500  0.79657500  1
  O  O46  1  0.77901800  0.18081500  0.29657500  1
  O  O47  1  0.72098200  0.68081500  0.70342500  1
  O  O48  1  0.61559400  0.33652900  0.18487000  1
  O  O49  1  0.88440600  0.83652900  0.81513000  1
  O  O50  1  0.11559400  0.66347100  0.31513000  1
  O  O51  1  0.38440600  0.16347100  0.68487000  1
  O  O52  1  0.38440600  0.66347100  0.81513000  1
  O  O53  1  0.11559400  0.16347100  0.18487000  1
  O  O54  1  0.88440600  0.33652900  0.68487000  1
  O  O55  1  0.61559400  0.83652900  0.31513000  1
  O  O56  1  0.39508000  0.16888200  0.17109900  1
  O  O57  1  0.10492000  0.66888200  0.82890100  1
  O  O58  1  0.89508000  0.83111800  0.32890100  1
  O  O59  1  0.60492000  0.33111800  0.67109900  1
  O  O60  1  0.60492000  0.83111800  0.82890100  1
  O  O61  1  0.89508000  0.33111800  0.17109900  1
  O  O62  1  0.10492000  0.16888200  0.67109900  1
  O  O63  1  0.39508000  0.66888200  0.32890100  1
  O  O64  1  0.38992000  0.17986100  0.92612600  1
  O  O65  1  0.11008000  0.67986100  0.07387400  1
  O  O66  1  0.88992000  0.82013900  0.57387400  1
  O  O67  1  0.61008000  0.32013900  0.42612600  1
  O  O68  1  0.61008000  0.82013900  0.07387400  1
  O  O69  1  0.88992000  0.32013900  0.92612600  1
  O  O70  1  0.11008000  0.17986100  0.42612600  1
  O  O71  1  0.38992000  0.67986100  0.57387400  1
  O  O72  1  0.61610200  0.34165500  0.92587400  1
  O  O73  1  0.88389800  0.84165500  0.07412600  1
  O  O74  1  0.11610200  0.65834500  0.57412600  1
  O  O75  1  0.38389800  0.15834500  0.42587400  1
  O  O76  1  0.38389800  0.65834500  0.07412600  1
  O  O77  1  0.11610200  0.15834500  0.92587400  1
  O  O78  1  0.88389800  0.34165500  0.42587400  1
  O  O79  1  0.61610200  0.84165500  0.57412600  1
loop_
_geom_bond_atom_site_label_1
_geom_bond_atom_site_label_2
_geom_bond_distance
_geom_bond_site_symmetry_2
Ca0 O56 2.372573 1_555
Ca0 O64 2.398766 1_554
Ca0 O72 2.426626 1_554
Ca0 O48 2.447882 1_555
Ca0 O16 2.448801 1_555
Ca0 O21 2.468466 1_555
Ca0 O5 2.657245 1_555
Ca1 O57 2.372573 1_555
Ca1 O65 2.398766 1_556
Ca1 O73 2.426626 1_456
Ca1 O49 2.447882 1_455
Ca1 O17 2.448801 1_455
Ca1 O20 2.468466 1_555
Ca1 O4 2.657245 1_555
Ca2 O58 2.372573 1_555
Ca2 O66 2.398766 1_555
Ca2 O74 2.426626 1_655
Ca2 O50 2.447882 1_655
Ca2 O18 2.448801 1_655
Ca2 O23 2.468466 1_555
Ca2 O7 2.657245 1_555
Ca3 O59 2.372573 1_555
Ca3 O67 2.398766 1_555
Ca3 O75 2.426626 1_555
Ca3 O51 2.447882 1_555
Ca3 O19 2.448801 1_555
Ca3 O22 2.468466 1_555
Ca3 O6 2.657245 1_555
Ca4 O60 2.372573 1_555
Ca4 O68 2.398766 1_556
Ca4 O76 2.426626 1_556
Ca4 O52 2.447882 1_555
Ca4 O20 2.448801 1_555
Ca4 O17 2.468466 1_555
Ca4 O1 2.657245 1_555
Ca5 O61 2.372573 1_555
Ca5 O69 2.398766 1_554
Ca5 O77 2.426626 1_654
Ca5 O53 2.447882 1_655
Ca5 O21 2.448801 1_655
Ca5 O16 2.468466 1_555
Ca5 O0 2.657245 1_555
Ca6 O62 2.372573 1_555
Ca6 O70 2.398766 1_555
Ca6 O78 2.426626 1_455
Ca6 O54 2.447882 1_455
Ca6 O22 2.448801 1_455
Ca6 O19 2.468466 1_555
Ca6 O3 2.657245 1_555
Ca7 O63 2.372573 1_555
Ca7 O71 2.398766 1_555
Ca7 O79 2.426626 1_555
Ca7 O55 2.447882 1_555
Ca7 O23 2.448801 1_555
Ca7 O18 2.468466 1_555
Ca7 O2 2.657245 1_555
Ca8 O59 2.336807 1_555
Ca8 O72 2.375478 1_555
Ca8 O64 2.399457 1_555
Ca8 O40 2.444962 1_555
Ca8 O45 2.459810 1_555
Ca8 O51 2.463964 1_555
Ca8 O29 2.693593 1_555
Ca9 O58 2.336807 1_455
Ca9 O73 2.375478 1_455
Ca9 O65 2.399457 1_555
Ca9 O41 2.444962 1_455
Ca9 O44 2.459810 1_555
Ca9 O50 2.463964 1_555
Ca9 O28 2.693593 1_555
Ca10 O57 2.336807 1_655
Ca10 O74 2.375478 1_655
Ca10 O66 2.399457 1_555
Ca10 O42 2.444962 1_655
Ca10 O47 2.459810 1_555
Ca10 O49 2.463964 1_555
Ca10 O31 2.693593 1_555
Ca11 O56 2.336807 1_555
Ca11 O75 2.375478 1_555
Ca11 O67 2.399457 1_555
Ca11 O43 2.444962 1_555
Ca11 O46 2.459810 1_555
Ca11 O48 2.463964 1_555
Ca11 O30 2.693593 1_555
Ca12 O63 2.336807 1_555
Ca12 O76 2.375478 1_555
Ca12 O68 2.399457 1_555
Ca12 O44 2.444962 1_555
Ca12 O41 2.459810 1_555
Ca12 O55 2.463964 1_555
Ca12 O25 2.693593 1_555
Ca13 O62 2.336807 1_655
Ca13 O77 2.375478 1_655
Ca13 O69 2.399457 1_555
Ca13 O45 2.444962 1_655
Ca13 O40 2.459810 1_555
Ca13 O54 2.463964 1_555
Ca13 O24 2.693593 1_555
Ca14 O61 2.336807 1_455
Ca14 O78 2.375478 1_455
Ca14 O70 2.399457 1_555
Ca14 O46 2.444962 1_455
Ca14 O43 2.459810 1_555
Ca14 O53 2.463964 1_555
Ca14 O27 2.693593 1_555
Ca15 O60 2.336807 1_555
Ca15 O79 2.375478 1_555
Ca15 O71 2.399457 1_555
Ca15 O47 2.444962 1_555
Ca15 O42 2.459810 1_555
Ca15 O52 2.463964 1_555
Ca15 O26 2.693593 1_555
H0 O48 0.981074 1_555
H1 O49 0.981074 1_555
H2 O50 0.981074 1_555
H3 O51 0.981074 1_555
H4 O52 0.981074 1_555
H5 O53 0.981074 1_555
H6 O54 0.981074 1_555
H7 O55 0.981074 1_555
H8 O48 1.110685 1_555
H8 O61 1.382726 1_555
H9 O49 1.110685 1_555
H9 O60 1.382726 1_555
H10 O50 1.110685 1_555
H10 O63 1.382726 1_555
H11 O51 1.110685 1_555
H11 O62 1.382726 1_555
H12 O52 1.110685 1_555
H12 O57 1.382726 1_555
H13 O53 1.110685 1_555
H13 O56 1.382726 1_555
H14 O54 1.110685 1_555
H14 O59 1.382726 1_555
H15 O55 1.110685 1_555
H15 O58 1.382726 1_555
H16 O56 0.980450 1_555
H17 O57 0.980450 1_555
H18 O58 0.980450 1_555
H19 O59 0.980450 1_555
H20 O60 0.980450 1_555
H21 O61 0.980450 1_555
H22 O62 0.980450 1_555
H23 O63 0.980450 1_555
H24 O64 0.978792 1_555
H25 O65 0.978792 1_555
H26 O66 0.978792 1_555
H27 O67 0.978792 1_555
H28 O68 0.978792 1_555
H29 O69 0.978792 1_555
H30 O70 0.978792 1_555
H31 O71 0.978792 1_555
H32 O72 0.980242 1_555
H33 O73 0.980242 1_555
H34 O74 0.980242 1_555
H35 O75 0.980242 1_555
H36 O76 0.980242 1_555
H37 O77 0.980242 1_555
H38 O78 0.980242 1_555
H39 O79 0.980242 1_555
H40 O69 1.200070 1_555
H40 O72 1.252504 1_555
H41 O68 1.200070 1_555
H41 O73 1.252504 1_555
H42 O71 1.200070 1_555
H42 O74 1.252504 1_555
H43 O70 1.200070 1_555
H43 O75 1.252504 1_555
H44 O65 1.200070 1_555
H44 O76 1.252504 1_555
H45 O64 1.200070 1_555
H45 O77 1.252504 1_555
H46 O67 1.200070 1_555
H46 O78 1.252504 1_555
H47 O66 1.200070 1_555
H47 O79 1.252504 1_555
N0 O8 1.235180 1_555
N0 O0 1.271213 1_555
N0 O16 1.300311 1_555
N1 O9 1.235180 1_555
N1 O1 1.271213 1_555
N1 O17 1.300311 1_555
N2 O10 1.235180 1_555
N2 O2 1.271213 1_555
N2 O18 1.300311 1_555
N3 O11 1.235180 1_555
N3 O3 1.271213 1_555
N3 O19 1.300311 1_555
N4 O12 1.235180 1_555
N4 O4 1.271213 1_555
N4 O20 1.300311 1_555
N5 O13 1.235180 1_555
N5 O5 1.271213 1_555
N5 O21 1.300311 1_555
N6 O14 1.235180 1_555
N6 O6 1.271213 1_555
N6 O22 1.300311 1_555
N7 O15 1.235180 1_555
N7 O7 1.271213 1_555
N7 O23 1.300311 1_555
N8 O32 1.239231 1_555
N8 O24 1.270263 1_555
N8 O40 1.298730 1_555
N9 O33 1.239231 1_555
N9 O25 1.270263 1_555
N9 O41 1.298730 1_555
N10 O34 1.239231 1_555
N10 O26 1.270263 1_555
N10 O42 1.298730 1_555
N11 O35 1.239231 1_555
N11 O27 1.270263 1_555
N11 O43 1.298730 1_555
N12 O36 1.239231 1_555
N12 O28 1.270263 1_555
N12 O44 1.298730 1_555
N13 O37 1.239231 1_555
N13 O29 1.270263 1_555
N13 O45 1.298730 1_555
N14 O38 1.239231 1_555
N14 O30 1.270263 1_555
N14 O46 1.298730 1_555
N15 O39 1.239231 1_555
N15 O31 1.270263 1_555
N15 O47 1.298730 1_555
