# generated using pymatgen
data_AlCr2O4
_symmetry_space_group_name_H-M   'P 1'
_cell_length_a   5.94027113
_cell_length_b   5.94027113
_cell_length_c   5.94027113
_cell_angle_alpha   60.00000000
_cell_angle_beta   60.00000000
_cell_angle_gamma   60.00000000
_symmetry_Int_Tables_number   1
_chemical_formula_structural   AlCr2O4
_chemical_formula_sum   'Al2 Cr4 O8'
_cell_volume   148.21897519
_cell_formula_units_Z   2
loop_
 _symmetry_equiv_pos_site_id
 _symmetry_equiv_pos_as_xyz
  1  'x, y, z'
loop_
 _atom_site_type_symbol
 _atom_site_label
 _atom_site_symmetry_multiplicity
 _atom_site_fract_x
 _atom_site_fract_y
 _atom_site_fract_z
 _atom_site_occupancy
  Al  Al0  1  0.00000000  0.00000000  0.00000000  1
  Al  Al1  1  0.25000000  0.25000000  0.25000000  1
  Cr  Cr0  1  0.62500000  0.62500000  0.62500000  1
  Cr  Cr1  1  0.62500000  0.62500000  0.12500000  1
  Cr  Cr2  1  0.62500000  0.12500000  0.62500000  1
  Cr  Cr3  1  0.12500000  0.62500000  0.62500000  1
  O  O0  1  0.87509200  0.87509200  0.37472400  1
  O  O1  1  0.87509200  0.37472400  0.87509200  1
  O  O2  1  0.37472400  0.87509200  0.87509200  1
  O  O3  1  0.87509200  0.87509200  0.87509200  1
  O  O4  1  0.37490800  0.37490800  0.37490800  1
  O  O5  1  0.87527600  0.37490800  0.37490800  1
  O  O6  1  0.37490800  0.87527600  0.37490800  1
  O  O7  1  0.37490800  0.37490800  0.87527600  1
loop_
_geom_bond_atom_site_label_1
_geom_bond_atom_site_label_2
_geom_bond_distance
_geom_bond_site_symmetry_2
Al0 O1 1.817490 1_454
Al0 O0 1.817490 1_445
Al0 O2 1.817490 1_544
Al0 O3 1.817490 1_444
Al1 O4 1.817490 1_555
Al1 O7 1.817490 1_554
Al1 O5 1.817490 1_455
Al1 O6 1.817490 1_545
Cr0 O1 2.100976 1_555
Cr0 O0 2.100976 1_555
Cr0 O2 2.100976 1_555
Cr0 O6 2.100976 1_555
Cr0 O7 2.100976 1_555
Cr0 O5 2.100976 1_555
Cr1 O6 2.100976 1_555
Cr1 O5 2.100976 1_555
Cr1 O3 2.100976 1_554
Cr1 O1 2.100976 1_554
Cr1 O2 2.100976 1_554
Cr1 O4 2.100976 1_555
Cr2 O7 2.100976 1_555
Cr2 O5 2.100976 1_555
Cr2 O0 2.100976 1_545
Cr2 O3 2.100976 1_545
Cr2 O2 2.100976 1_545
Cr2 O4 2.100976 1_555
Cr3 O6 2.100976 1_555
Cr3 O7 2.100976 1_555
Cr3 O1 2.100976 1_455
Cr3 O0 2.100976 1_455
Cr3 O3 2.100976 1_455
Cr3 O4 2.100976 1_555
