# generated using pymatgen
data_LiFe4(BO3)4
_symmetry_space_group_name_H-M   'P 1'
_cell_length_a   5.29790700
_cell_length_b   8.99263864
_cell_length_c   11.34655320
_cell_angle_alpha   113.26723327
_cell_angle_beta   102.87403052
_cell_angle_gamma   89.60137595
_symmetry_Int_Tables_number   1
_chemical_formula_structural   LiFe4(BO3)4
_chemical_formula_sum   'Li2 Fe8 B8 O24'
_cell_volume   482.14012413
_cell_formula_units_Z   2
loop_
 _symmetry_equiv_pos_site_id
 _symmetry_equiv_pos_as_xyz
  1  'x, y, z'
loop_
 _atom_site_type_symbol
 _atom_site_label
 _atom_site_symmetry_multiplicity
 _atom_site_fract_x
 _atom_site_fract_y
 _atom_site_fract_z
 _atom_site_occupancy
  Li  Li0  1  0.60199800  0.94641000  0.90697000  1
  Li  Li1  1  0.68235700  0.33453500  0.65692500  1
  Fe  Fe0  1  0.40104100  0.72926400  0.12978000  1
  Fe  Fe1  1  0.09673200  0.77530700  0.87819700  1
  Fe  Fe2  1  0.85345800  0.85388800  0.37854500  1
  Fe  Fe3  1  0.65101500  0.65434400  0.62640900  1
  Fe  Fe4  1  0.35124900  0.35151000  0.37694100  1
  Fe  Fe5  1  0.15443800  0.14784000  0.62482500  1
  Fe  Fe6  1  0.90468300  0.23125800  0.13171300  1
  Fe  Fe7  1  0.59045300  0.27481900  0.87774000  1
  B  B0  1  0.65464900  0.98549900  0.62983200  1
  B  B1  1  0.89378600  0.89394600  0.12794200  1
  B  B2  1  0.13479200  0.48412200  0.62408000  1
  B  B3  1  0.39421600  0.39453400  0.12838900  1
  B  B4  1  0.85404300  0.51762500  0.37638900  1
  B  B5  1  0.59336700  0.60733800  0.87372000  1
  B  B6  1  0.35609500  0.01588700  0.37516400  1
  B  B7  1  0.11448400  0.11152500  0.88235000  1
  O  O0  1  0.12192800  0.85342600  0.08897100  1
  O  O1  1  0.47226100  0.87051100  0.33141600  1
  O  O2  1  0.23796200  0.98115000  0.88527500  1
  O  O3  1  0.54405500  0.85883100  0.64384200  1
  O  O4  1  0.85980400  0.96966900  0.57098000  1
  O  O5  1  0.77921400  0.79823200  0.17580900  1
  O  O6  1  0.29335800  0.53259000  0.13374400  1
  O  O7  1  0.02577300  0.63211300  0.66345100  1
  O  O8  1  0.69258000  0.71474600  0.82857300  1
  O  O9  1  0.63353600  0.51993000  0.42735400  1
  O  O10  1  0.95282800  0.64895800  0.36928500  1
  O  O11  1  0.39551800  0.65357100  0.93719900  1
  O  O12  1  0.61629700  0.34574100  0.07756500  1
  O  O13  1  0.37436700  0.47498600  0.58304800  1
  O  O14  1  0.28458000  0.29022900  0.17373300  1
  O  O15  1  0.96679300  0.36752000  0.33136900  1
  O  O16  1  0.68852600  0.45853300  0.84871300  1
  O  O17  1  0.21766700  0.22041200  0.84206700  1
  O  O18  1  0.13086300  0.01732700  0.41738300  1
  O  O19  1  0.46625800  0.15751100  0.38146500  1
  O  O20  1  0.01792600  0.35125300  0.62355900  1
  O  O21  1  0.77646000  0.02428900  0.11021500  1
  O  O22  1  0.56032600  0.14005600  0.67945800  1
  O  O23  1  0.87510900  0.14325400  0.92354500  1
loop_
_geom_bond_atom_site_label_1
_geom_bond_atom_site_label_2
_geom_bond_distance
_geom_bond_site_symmetry_2
Li0 O2 1.928371 1_555
Li0 O8 2.018377 1_555
Li0 O21 2.108603 1_566
Li0 O23 2.216692 1_565
Li1 O20 1.917072 1_655
Li1 O22 1.996139 1_555
Li1 O16 2.007922 1_555
Li1 O13 2.271257 1_555
Fe0 O6 1.882503 1_555
Fe0 O0 1.930814 1_555
Fe0 O5 1.991641 1_555
Fe0 O11 2.008899 1_554
Fe0 O1 2.077550 1_555
Fe1 O2 1.966672 1_555
Fe1 O11 2.057907 1_555
Fe1 O8 2.105925 1_455
Fe1 O0 2.182339 1_556
Fe1 O7 2.203707 1_555
Fe2 O10 1.882155 1_555
Fe2 O18 1.934949 1_665
Fe2 O1 1.991125 1_555
Fe2 O4 2.006103 1_555
Fe2 O5 2.094468 1_555
Fe3 O3 1.868097 1_555
Fe3 O7 1.961521 1_655
Fe3 O13 2.018982 1_555
Fe3 O9 2.079028 1_555
Fe3 O8 2.097034 1_555
Fe4 O19 1.859949 1_555
Fe4 O9 1.955379 1_555
Fe4 O15 2.005522 1_455
Fe4 O14 2.093012 1_555
Fe4 O13 2.130666 1_555
Fe5 O20 1.966477 1_555
Fe5 O4 2.052660 1_445
Fe5 O22 2.109831 1_555
Fe5 O18 2.149830 1_555
Fe5 O17 2.231204 1_555
Fe6 O21 1.889471 1_555
Fe6 O12 1.957343 1_555
Fe6 O14 1.986662 1_655
Fe6 O15 2.054794 1_555
Fe6 O23 2.142397 1_554
Fe7 O16 1.904171 1_555
Fe7 O17 1.950523 1_555
Fe7 O23 2.013924 1_555
Fe7 O22 2.060200 1_555
Fe7 O12 2.070437 1_556
B0 O3 1.363788 1_555
B0 O4 1.376112 1_555
B0 O22 1.412783 1_565
B1 O0 1.376205 1_655
B1 O21 1.386043 1_565
B1 O5 1.388442 1_555
B2 O20 1.346888 1_555
B2 O7 1.392426 1_555
B2 O13 1.437410 1_555
B3 O6 1.332719 1_555
B3 O14 1.415592 1_555
B3 O12 1.415855 1_555
B4 O10 1.333356 1_555
B4 O9 1.410964 1_555
B4 O15 1.421204 1_555
B5 O16 1.371022 1_555
B5 O11 1.372631 1_555
B5 O8 1.410520 1_555
B6 O19 1.373878 1_555
B6 O18 1.379536 1_555
B6 O1 1.395166 1_545
B7 O2 1.346848 1_545
B7 O17 1.392452 1_555
B7 O23 1.435946 1_455
