# generated using pymatgen
data_Li3Mn4(PO4)6
_symmetry_space_group_name_H-M   'P 1'
_cell_length_a   8.25768400
_cell_length_b   8.52593615
_cell_length_c   12.04415160
_cell_angle_alpha   90.23747346
_cell_angle_beta   90.56122844
_cell_angle_gamma   90.04070410
_symmetry_Int_Tables_number   1
_chemical_formula_structural   Li3Mn4(PO4)6
_chemical_formula_sum   'Li6 Mn8 P12 O48'
_cell_volume   847.91410758
_cell_formula_units_Z   2
loop_
 _symmetry_equiv_pos_site_id
 _symmetry_equiv_pos_as_xyz
  1  'x, y, z'
loop_
 _atom_site_type_symbol
 _atom_site_label
 _atom_site_symmetry_multiplicity
 _atom_site_fract_x
 _atom_site_fract_y
 _atom_site_fract_z
 _atom_site_occupancy
  Li  Li0  1  0.92679900  0.90944700  0.30163600  1
  Li  Li1  1  0.80463200  0.20126100  0.82916500  1
  Li  Li2  1  0.57682800  0.39242500  0.19494400  1
  Li  Li3  1  0.42281300  0.60005200  0.80389900  1
  Li  Li4  1  0.07717500  0.49377000  0.33680800  1
  Li  Li5  1  0.08332800  0.09825000  0.69193700  1
  Mn  Mn0  1  0.74521000  0.96914900  0.10720400  1
  Mn  Mn1  1  0.74499100  0.47091200  0.39695200  1
  Mn  Mn2  1  0.74373800  0.02935400  0.61183600  1
  Mn  Mn3  1  0.75480200  0.53583800  0.88590900  1
  Mn  Mn4  1  0.24737600  0.46917900  0.11204500  1
  Mn  Mn5  1  0.25719500  0.97010200  0.38466600  1
  Mn  Mn6  1  0.24510400  0.53336600  0.60710300  1
  Mn  Mn7  1  0.25172700  0.02655700  0.89393000  1
  P  P0  1  0.96188100  0.75382500  0.50618400  1
  P  P1  1  0.88657400  0.61477700  0.14685000  1
  P  P2  1  0.88851400  0.88667600  0.85077100  1
  P  P3  1  0.61019300  0.11715300  0.36199200  1
  P  P4  1  0.61464400  0.38830200  0.64571800  1
  P  P5  1  0.53345800  0.24930800  0.99250600  1
  P  P6  1  0.46019500  0.74905700  0.00725700  1
  P  P7  1  0.38716600  0.61533700  0.34910200  1
  P  P8  1  0.39015600  0.88644100  0.64617700  1
  P  P9  1  0.11667700  0.11485000  0.14463000  1
  P  P10  1  0.11138800  0.38180800  0.86153900  1
  P  P11  1  0.03773000  0.24748200  0.49432500  1
  O  O0  1  0.93775100  0.11236900  0.10949400  1
  O  O1  1  0.94097500  0.12224300  0.55823400  1
  O  O2  1  0.93915600  0.32920500  0.39998800  1
  O  O3  1  0.93115500  0.41512500  0.82613200  1
  O  O4  1  0.87551700  0.79388800  0.16731300  1
  O  O5  1  0.85883800  0.58186300  0.02322800  1
  O  O6  1  0.90396500  0.63491400  0.41444800  1
  O  O7  1  0.88041700  0.99465300  0.74417300  1
  O  O8  1  0.83829500  0.71861300  0.81620300  1
  O  O9  1  0.80735700  0.83121400  0.55172300  1
  O  O10  1  0.77147000  0.51786200  0.22176700  1
  O  O11  1  0.73373800  0.02799200  0.29458100  1
  O  O12  1  0.77609700  0.96155000  0.93435500  1
  O  O13  1  0.73104400  0.44556100  0.55351200  1
  O  O14  1  0.68268800  0.32725100  0.93673100  1
  O  O15  1  0.67807800  0.22558400  0.68668000  1
  O  O16  1  0.59755000  0.14411400  0.08623200  1
  O  O17  1  0.62535400  0.09404500  0.48828700  1
  O  O18  1  0.61813600  0.29983200  0.34133400  1
  O  O19  1  0.62945100  0.49898600  0.74906400  1
  O  O20  1  0.56119200  0.82401200  0.09973600  1
  O  O21  1  0.56417200  0.61331500  0.39382700  1
  O  O22  1  0.56652100  0.92967300  0.67903600  1
  O  O23  1  0.55621800  0.62612900  0.93717700  1
  O  O24  1  0.44305400  0.37992100  0.05692100  1
  O  O25  1  0.43610600  0.07546500  0.32320000  1
  O  O26  1  0.43763800  0.38910500  0.60836900  1
  O  O27  1  0.43344100  0.17223800  0.89877700  1
  O  O28  1  0.38373400  0.51294800  0.24110300  1
  O  O29  1  0.37670300  0.70672700  0.66634000  1
  O  O30  1  0.35529800  0.91838800  0.52346100  1
  O  O31  1  0.40024500  0.85988100  0.91365300  1
  O  O32  1  0.34098700  0.78417600  0.31549500  1
  O  O33  1  0.30722100  0.66814400  0.05227500  1
  O  O34  1  0.26373800  0.54841100  0.42993900  1
  O  O35  1  0.23056600  0.05512300  0.05155700  1
  O  O36  1  0.27508600  0.98207800  0.72251300  1
  O  O37  1  0.23055600  0.47428900  0.79357400  1
  O  O38  1  0.18638600  0.17052300  0.44100400  1
  O  O39  1  0.17571300  0.27908600  0.18458100  1
  O  O40  1  0.13155800  0.00541100  0.24817000  1
  O  O41  1  0.09814600  0.35835600  0.58684600  1
  O  O42  1  0.12699300  0.40758100  0.98731600  1
  O  O43  1  0.11590700  0.19877700  0.83971200  1
  O  O44  1  0.06318500  0.56881500  0.18284800  1
  O  O45  1  0.06201500  0.68062200  0.59943000  1
  O  O46  1  0.05592500  0.87363800  0.43405900  1
  O  O47  1  0.06921600  0.88392100  0.88765800  1
loop_
_geom_bond_atom_site_label_1
_geom_bond_atom_site_label_2
_geom_bond_distance
_geom_bond_site_symmetry_2
Li0 O11 1.889626 1_565
Li0 O4 1.933937 1_555
Li0 O46 1.935234 1_655
Li0 O40 1.991671 1_665
Li1 O14 1.965160 1_555
Li1 O15 2.012034 1_555
Li1 O3 2.101490 1_555
Li1 O7 2.131116 1_545
Li1 O12 2.421612 1_545
Li1 O43 2.572411 1_655
Li2 O10 1.953468 1_555
Li2 O18 1.961731 1_555
Li2 O28 1.980504 1_555
Li2 O24 1.989349 1_555
Li2 O16 2.491512 1_555
Li3 O37 1.917877 1_555
Li3 O29 1.928141 1_555
Li3 O23 1.949814 1_555
Li3 O19 2.027255 1_555
Li4 O34 1.951764 1_555
Li4 O44 1.966460 1_555
Li4 O2 1.967276 1_455
Li4 O6 2.094678 1_455
Li5 O36 1.902074 1_545
Li5 O43 1.988063 1_555
Li5 O1 1.995706 1_455
Li5 O7 2.001667 1_445
Mn0 O16 1.943072 1_565
Mn0 O20 1.960132 1_555
Mn0 O4 1.977571 1_555
Mn0 O0 2.003953 1_565
Mn0 O12 2.100602 1_554
Mn0 O11 2.312720 1_565
Mn1 O13 1.903467 1_555
Mn1 O18 1.910390 1_555
Mn1 O21 1.925316 1_555
Mn1 O6 1.926766 1_555
Mn1 O2 2.008422 1_555
Mn1 O10 2.162376 1_555
Mn2 O17 1.858282 1_555
Mn2 O22 1.883094 1_545
Mn2 O9 1.911174 1_545
Mn2 O1 1.928661 1_555
Mn2 O7 1.967487 1_545
Mn2 O15 1.975854 1_555
Mn3 O5 1.895703 1_556
Mn3 O8 1.905057 1_555
Mn3 O23 1.918508 1_555
Mn3 O3 1.927388 1_555
Mn3 O19 1.961759 1_555
Mn3 O14 1.976526 1_555
Mn4 O42 1.866615 1_554
Mn4 O24 1.910357 1_555
Mn4 O33 1.912064 1_555
Mn4 O39 1.939244 1_555
Mn4 O44 1.945120 1_555
Mn4 O28 1.945144 1_555
Mn5 O25 1.887529 1_565
Mn5 O30 1.904004 1_555
Mn5 O32 1.920305 1_555
Mn5 O38 1.929201 1_565
Mn5 O46 1.952979 1_555
Mn5 O40 1.959788 1_565
Mn6 O41 1.935777 1_555
Mn6 O29 1.961737 1_555
Mn6 O45 1.967624 1_555
Mn6 O26 2.010778 1_555
Mn6 O34 2.145196 1_555
Mn6 O37 2.307966 1_555
Mn7 O31 1.891963 1_545
Mn7 O35 1.922711 1_556
Mn7 O47 1.936602 1_545
Mn7 O27 1.947507 1_555
Mn7 O43 1.958639 1_555
Mn7 O36 2.108292 1_545
O0 P9 1.533040 1_655
O1 P11 1.545523 1_655
O2 P11 1.558296 1_655
O3 P10 1.570597 1_655
O4 P1 1.548741 1_555
O5 P1 1.529006 1_555
O6 P0 1.567485 1_555
O7 P2 1.583838 1_555
O8 P2 1.545744 1_555
O9 P0 1.541523 1_555
O10 P1 1.556350 1_555
O11 P3 1.513302 1_555
O12 P2 1.515431 1_555
O13 P4 1.555720 1_555
O14 P5 1.558903 1_555
O15 P4 1.563359 1_555
O16 P5 1.534979 1_554
O17 P3 1.538529 1_555
O18 P3 1.579693 1_555
O19 P4 1.562666 1_555
O20 P6 1.523063 1_555
O21 P7 1.552934 1_555
O22 P8 1.549266 1_555
O23 P6 1.564156 1_556
O24 P5 1.550701 1_554
O25 P3 1.547878 1_555
O26 P4 1.525126 1_555
O27 P5 1.537237 1_555
O28 P7 1.563542 1_555
O29 P8 1.556411 1_555
O30 P8 1.528618 1_555
O31 P6 1.551585 1_556
O32 P7 1.544030 1_555
O33 P6 1.543008 1_555
O34 P7 1.528255 1_555
O35 P9 1.554666 1_555
O36 P8 1.557265 1_555
O37 P10 1.510024 1_555
O38 P11 1.537187 1_555
O39 P9 1.555243 1_555
O40 P9 1.564501 1_555
O41 P11 1.537515 1_555
O42 P10 1.533988 1_555
O43 P10 1.581951 1_555
O44 P1 1.567896 1_455
O45 P0 1.524102 1_455
O46 P0 1.555841 1_455
O47 P2 1.552959 1_455
