# generated using pymatgen
data_Ag2S(NO)2
_symmetry_space_group_name_H-M   'P 1'
_cell_length_a   5.49807600
_cell_length_b   7.59335800
_cell_length_c   10.72618065
_cell_angle_alpha   86.45184274
_cell_angle_beta   90.00000000
_cell_angle_gamma   90.00000000
_symmetry_Int_Tables_number   1
_chemical_formula_structural   Ag2S(NO)2
_chemical_formula_sum   'Ag8 S4 N8 O8'
_cell_volume   446.94742395
_cell_formula_units_Z   4
loop_
 _symmetry_equiv_pos_site_id
 _symmetry_equiv_pos_as_xyz
  1  'x, y, z'
loop_
 _atom_site_type_symbol
 _atom_site_label
 _atom_site_symmetry_multiplicity
 _atom_site_fract_x
 _atom_site_fract_y
 _atom_site_fract_z
 _atom_site_occupancy
  Ag  Ag0  1  0.31123100  0.01592400  0.67518200  1
  Ag  Ag1  1  0.81123100  0.98407600  0.82481800  1
  Ag  Ag2  1  0.68876900  0.98407600  0.32481800  1
  Ag  Ag3  1  0.18876900  0.01592400  0.17518200  1
  Ag  Ag4  1  0.10990000  0.31146300  0.94520400  1
  Ag  Ag5  1  0.60990000  0.68853700  0.55479600  1
  Ag  Ag6  1  0.89010000  0.68853700  0.05479600  1
  Ag  Ag7  1  0.39010000  0.31146300  0.44520400  1
  S  S0  1  0.93875800  0.31915700  0.64360400  1
  S  S1  1  0.43875800  0.68084300  0.85639600  1
  S  S2  1  0.06124200  0.68084300  0.35639600  1
  S  S3  1  0.56124200  0.31915700  0.14360400  1
  N  N0  1  0.21149000  0.27044800  0.61631500  1
  N  N1  1  0.71149000  0.72955200  0.88368500  1
  N  N2  1  0.78851000  0.72955200  0.38368500  1
  N  N3  1  0.28851000  0.27044800  0.11631500  1
  N  N4  1  0.91394900  0.24218200  0.78373500  1
  N  N5  1  0.41394900  0.75781800  0.71626500  1
  N  N6  1  0.08605100  0.75781800  0.21626500  1
  N  N7  1  0.58605100  0.24218200  0.28373500  1
  O  O0  1  0.76294200  0.23288200  0.56082600  1
  O  O1  1  0.26294200  0.76711800  0.93917400  1
  O  O2  1  0.23705800  0.76711800  0.43917400  1
  O  O3  1  0.73705800  0.23288200  0.06082600  1
  O  O4  1  0.41041300  0.48562500  0.86307000  1
  O  O5  1  0.91041300  0.51437500  0.63693000  1
  O  O6  1  0.58958700  0.51437500  0.13693000  1
  O  O7  1  0.08958700  0.48562500  0.36307000  1
loop_
_geom_bond_atom_site_label_1
_geom_bond_atom_site_label_2
_geom_bond_distance
_geom_bond_site_symmetry_2
Ag0 N5 2.060923 1_545
Ag0 N0 2.069701 1_555
Ag1 N4 2.060923 1_565
Ag1 N1 2.069701 1_555
Ag2 N7 2.060923 1_565
Ag2 N2 2.069701 1_555
Ag3 N6 2.060923 1_545
Ag3 N3 2.069701 1_555
Ag4 N3 2.087861 1_556
Ag4 N4 2.133039 1_455
Ag4 O4 2.260702 1_555
Ag4 O3 2.450438 1_456
Ag5 N2 2.087861 1_555
Ag5 N5 2.133039 1_555
Ag5 O5 2.260702 1_555
Ag5 O2 2.450438 1_555
Ag6 N1 2.087861 1_554
Ag6 N6 2.133039 1_655
Ag6 O6 2.260702 1_555
Ag6 O1 2.450438 1_654
Ag7 N0 2.087861 1_555
Ag7 N7 2.133039 1_555
Ag7 O7 2.260702 1_555
Ag7 O0 2.450438 1_555
N0 S0 1.576192 1_455
N1 S1 1.576192 1_555
N2 S2 1.576192 1_655
N3 S3 1.576192 1_555
N4 S0 1.584526 1_555
N5 S1 1.584526 1_555
N6 S2 1.584526 1_555
N7 S3 1.584526 1_555
O0 S0 1.491287 1_555
O1 S1 1.491287 1_555
O2 S2 1.491287 1_555
O3 S3 1.491287 1_555
O4 S1 1.487840 1_555
O5 S0 1.487840 1_555
O6 S3 1.487840 1_555
O7 S2 1.487840 1_555
