# generated using pymatgen
data_Li3Mn2Fe(BO3)3
_symmetry_space_group_name_H-M   'P 1'
_cell_length_a   3.16968200
_cell_length_b   8.25024300
_cell_length_c   14.31506263
_cell_angle_alpha   89.95389941
_cell_angle_beta   90.00000000
_cell_angle_gamma   90.00000000
_symmetry_Int_Tables_number   1
_chemical_formula_structural   Li3Mn2Fe(BO3)3
_chemical_formula_sum   'Li6 Mn4 Fe2 B6 O18'
_cell_volume   374.34802472
_cell_formula_units_Z   2
loop_
 _symmetry_equiv_pos_site_id
 _symmetry_equiv_pos_as_xyz
  1  'x, y, z'
loop_
 _atom_site_type_symbol
 _atom_site_label
 _atom_site_symmetry_multiplicity
 _atom_site_fract_x
 _atom_site_fract_y
 _atom_site_fract_z
 _atom_site_occupancy
  Li  Li0  1  0.50000000  0.70704600  0.98999800  1
  Li  Li1  1  0.50000000  0.65929900  0.35854300  1
  Li  Li2  1  0.50000000  0.63317100  0.65148800  1
  Li  Li3  1  0.50000000  0.20695400  0.49294400  1
  Li  Li4  1  0.50000000  0.15863800  0.85681600  1
  Li  Li5  1  0.50000000  0.13287800  0.15030800  1
  Mn  Mn0  1  0.00000000  0.86589500  0.50658100  1
  Mn  Mn1  1  0.00000000  0.80843100  0.17971600  1
  Mn  Mn2  1  0.00000000  0.36553800  0.00535600  1
  Mn  Mn3  1  0.00000000  0.32620700  0.31456500  1
  Fe  Fe0  1  0.00000000  0.82469600  0.81661800  1
  Fe  Fe1  1  0.00000000  0.31278000  0.67943100  1
  B  B0  1  0.50000000  0.00054900  0.66830800  1
  B  B1  1  0.00000000  0.00056200  0.99886000  1
  B  B2  1  0.50000000  0.00005100  0.33347900  1
  B  B3  1  0.50000000  0.50005600  0.16641100  1
  B  B4  1  0.00000000  0.49847100  0.50028500  1
  B  B5  1  0.50000000  0.50096100  0.83214600  1
  O  O0  1  0.50000000  0.99014100  0.43014100  1
  O  O1  1  0.50000000  0.98170000  0.76480500  1
  O  O2  1  0.50000000  0.86285500  0.61115700  1
  O  O3  1  0.50000000  0.85944200  0.27997800  1
  O  O4  1  0.00000000  0.84626000  0.95843000  1
  O  O5  1  0.50000000  0.65263200  0.12458400  1
  O  O6  1  0.50000000  0.65320300  0.79049200  1
  O  O7  1  0.00000000  0.63558900  0.44353600  1
  O  O8  1  0.00000000  0.51462500  0.59748900  1
  O  O9  1  0.50000000  0.48861600  0.92911800  1
  O  O10  1  0.50000000  0.48661500  0.26335700  1
  O  O11  1  0.50000000  0.36142900  0.11111700  1
  O  O12  1  0.50000000  0.36162100  0.77763100  1
  O  O13  1  0.00000000  0.34452800  0.46061900  1
  O  O14  1  0.50000000  0.15435100  0.62828300  1
  O  O15  1  0.50000000  0.15028300  0.28969000  1
  O  O16  1  0.00000000  0.13690500  0.94192700  1
  O  O17  1  0.00000000  0.01702100  0.09579500  1
loop_
_geom_bond_atom_site_label_1
_geom_bond_atom_site_label_2
_geom_bond_distance
_geom_bond_site_symmetry_2
Li0 O5 1.977867 1_556
Li0 O9 2.002401 1_555
Li0 O4 2.008547 1_655
Li0 O4 2.008547 1_555
Li1 O10 1.972185 1_555
Li1 O3 1.997106 1_555
Li1 O7 2.007464 1_655
Li1 O7 2.007464 1_555
Li2 O2 1.980503 1_555
Li2 O6 1.996835 1_555
Li2 O8 2.016684 1_555
Li2 O8 2.016684 1_655
Li3 O14 1.985059 1_555
Li3 O0 2.002624 1_545
Li3 O13 2.003314 1_655
Li3 O13 2.003314 1_555
Li4 O1 1.966958 1_545
Li4 O16 2.006973 1_655
Li4 O16 2.006973 1_555
Li4 O12 2.021469 1_555
Li5 O11 1.966859 1_555
Li5 O15 2.000538 1_555
Li5 O17 2.008862 1_555
Li5 O17 2.008862 1_655
Mn0 O7 2.104177 1_555
Mn0 O2 2.180214 1_455
Mn0 O2 2.180214 1_555
Mn0 O0 2.181291 1_555
Mn0 O0 2.181291 1_455
Mn1 O17 2.097960 1_565
Mn1 O3 2.179397 1_455
Mn1 O3 2.179397 1_555
Mn1 O5 2.188246 1_555
Mn1 O5 2.188246 1_455
Mn2 O16 2.094098 1_554
Mn2 O9 2.175332 1_554
Mn2 O9 2.175332 1_454
Mn2 O11 2.192010 1_555
Mn2 O11 2.192010 1_455
Mn3 O13 2.096350 1_555
Mn3 O15 2.178522 1_555
Mn3 O15 2.178522 1_455
Mn3 O10 2.190643 1_455
Mn3 O10 2.190643 1_555
Fe0 O4 2.037971 1_555
Fe0 O6 2.157376 1_555
Fe0 O6 2.157376 1_455
Fe0 O1 2.176732 1_455
Fe0 O1 2.176732 1_555
Fe1 O8 2.036154 1_555
Fe1 O12 2.156642 1_555
Fe1 O12 2.156642 1_455
Fe1 O14 2.181241 1_555
Fe1 O14 2.181241 1_455
B0 O1 1.389962 1_545
B0 O14 1.391844 1_555
B0 O2 1.400476 1_545
B1 O16 1.388548 1_555
B1 O17 1.394368 1_556
B1 O4 1.398839 1_545
B2 O0 1.386070 1_545
B2 O15 1.388495 1_555
B2 O3 1.390583 1_545
B3 O11 1.391421 1_555
B3 O10 1.392122 1_555
B3 O5 1.393501 1_555
B4 O13 1.391636 1_555
B4 O7 1.392193 1_555
B4 O8 1.397956 1_555
B5 O6 1.389951 1_555
B5 O12 1.389964 1_555
B5 O9 1.391810 1_555
