# generated using pymatgen
data_Rb3Bi2S2(ClO2)5
_symmetry_space_group_name_H-M   'P 1'
_cell_length_a   21.71630700
_cell_length_b   6.33974900
_cell_length_c   7.55060846
_cell_angle_alpha   83.30060401
_cell_angle_beta   90.00000000
_cell_angle_gamma   90.00000000
_symmetry_Int_Tables_number   1
_chemical_formula_structural   Rb3Bi2S2(ClO2)5
_chemical_formula_sum   'Rb6 Bi4 S4 Cl10 O20'
_cell_volume   1032.43900012
_cell_formula_units_Z   2
loop_
 _symmetry_equiv_pos_site_id
 _symmetry_equiv_pos_as_xyz
  1  'x, y, z'
loop_
 _atom_site_type_symbol
 _atom_site_label
 _atom_site_symmetry_multiplicity
 _atom_site_fract_x
 _atom_site_fract_y
 _atom_site_fract_z
 _atom_site_occupancy
  Rb  Rb0  1  0.62600500  0.00582600  0.60789600  1
  Rb  Rb1  1  0.12600500  0.99417400  0.39210400  1
  Rb  Rb2  1  0.81699600  0.87533400  0.33042300  1
  Rb  Rb3  1  0.31699600  0.12466600  0.66957700  1
  Rb  Rb4  1  0.96592000  0.74553100  0.82253300  1
  Rb  Rb5  1  0.46592000  0.25446900  0.17746700  1
  Bi  Bi0  1  0.80056400  0.31532600  0.79211500  1
  Bi  Bi1  1  0.30056400  0.68467400  0.20788500  1
  Bi  Bi2  1  0.64383200  0.57363200  0.13884800  1
  Bi  Bi3  1  0.14383200  0.42636800  0.86115200  1
  S  S0  1  0.78757700  0.81073600  0.81337200  1
  S  S1  1  0.28757700  0.18926400  0.18662800  1
  S  S2  1  0.65729700  0.07698800  0.12590800  1
  S  S3  1  0.15729700  0.92301200  0.87409200  1
  Cl  Cl0  1  0.89099600  0.24373400  0.58749400  1
  Cl  Cl1  1  0.39099600  0.75626600  0.41250600  1
  Cl  Cl2  1  0.87489000  0.36703100  0.05948600  1
  Cl  Cl3  1  0.37489000  0.63296900  0.94051400  1
  Cl  Cl4  1  0.72283400  0.44355800  0.47431900  1
  Cl  Cl5  1  0.22283400  0.55644200  0.52568100  1
  Cl  Cl6  1  0.55326500  0.63342300  0.34713500  1
  Cl  Cl7  1  0.05326500  0.36657700  0.65286500  1
  Cl  Cl8  1  0.57011400  0.52761000  0.87416800  1
  Cl  Cl9  1  0.07011400  0.47239000  0.12583200  1
  O  O0  1  0.82331200  0.93614200  0.93466200  1
  O  O1  1  0.32331200  0.06385800  0.06533800  1
  O  O2  1  0.75416500  0.96512400  0.68419500  1
  O  O3  1  0.25416500  0.03487600  0.31580500  1
  O  O4  1  0.83195900  0.68294900  0.71287400  1
  O  O5  1  0.33195900  0.31705100  0.28712600  1
  O  O6  1  0.74537700  0.65576800  0.91424000  1
  O  O7  1  0.24537700  0.34423200  0.08576000  1
  O  O8  1  0.69987900  0.23245300  0.02650300  1
  O  O9  1  0.19987900  0.76754700  0.97349700  1
  O  O10  1  0.61156700  0.20520200  0.22082100  1
  O  O11  1  0.11156700  0.79479800  0.77917900  1
  O  O12  1  0.62394100  0.94744400  0.00245800  1
  O  O13  1  0.12394100  0.05255600  0.99754200  1
  O  O14  1  0.68990200  0.92531900  0.25918100  1
  O  O15  1  0.18990200  0.07468100  0.74081900  1
  O  O16  1  0.97217400  0.87766700  0.31464700  1
  O  O17  1  0.47217400  0.12233300  0.68535300  1
  O  O18  1  0.97483100  0.99733600  0.17302900  1
  O  O19  1  0.47483100  0.00266400  0.82697100  1
loop_
_geom_bond_atom_site_label_1
_geom_bond_atom_site_label_2
_geom_bond_distance
_geom_bond_site_symmetry_2
Bi0 O4 2.435021 1_555
Bi0 O0 2.564701 1_545
Bi0 Cl0 2.571650 1_555
Bi0 Cl2 2.634907 1_556
Bi0 O2 2.651538 1_545
Bi0 O6 2.722002 1_555
Bi0 O8 2.823472 1_556
Bi0 Cl4 2.968667 1_555
Bi1 O5 2.435021 1_555
Bi1 O1 2.564701 1_565
Bi1 Cl1 2.571650 1_555
Bi1 Cl3 2.634907 1_554
Bi1 O3 2.651538 1_565
Bi1 O7 2.722002 1_555
Bi1 O9 2.823472 1_554
Bi1 Cl5 2.968667 1_555
Bi2 O10 2.447953 1_555
Bi2 O12 2.508785 1_555
Bi2 Cl6 2.573785 1_555
Bi2 Cl8 2.603456 1_554
Bi2 O14 2.696346 1_555
Bi2 O8 2.703258 1_555
Bi2 O6 2.793582 1_554
Bi2 Cl4 3.090663 1_555
Bi3 O11 2.447953 1_555
Bi3 O13 2.508785 1_555
Bi3 Cl7 2.573785 1_555
Bi3 Cl9 2.603456 1_556
Bi3 O15 2.696346 1_555
Bi3 O9 2.703258 1_555
Bi3 O7 2.793582 1_556
Bi3 Cl5 3.090663 1_555
Cl0 Rb2 3.586463 1_545
Cl0 Rb4 3.803295 1_545
Cl1 Rb3 3.586463 1_565
Cl1 Rb5 3.803295 1_565
Cl2 Rb4 3.444599 1_554
Cl2 Rb2 3.740985 1_545
Cl3 Rb5 3.444599 1_556
Cl3 Rb3 3.740985 1_565
Cl4 Rb2 3.487272 1_555
Cl4 Rb0 3.533705 1_555
Cl5 Rb3 3.487272 1_555
Cl5 Rb1 3.533705 1_555
Cl6 Rb5 3.424776 1_555
Cl6 Rb0 3.609777 1_565
Cl7 Rb4 3.424776 1_455
Cl7 Rb1 3.609777 1_545
Cl8 Rb5 3.526713 1_556
Cl8 Rb0 3.644831 1_565
Cl9 Rb4 3.526713 1_454
Cl9 Rb1 3.644831 1_545
O0 S0 1.497637 1_555
O0 Rb2 2.971229 1_556
O0 Rb4 3.465071 1_555
O1 S1 1.497637 1_555
O1 Rb3 2.971229 1_554
O1 Rb5 3.465071 1_555
O2 S0 1.487642 1_555
O2 Rb0 2.847769 1_565
O2 Rb2 3.110601 1_555
O3 S1 1.487642 1_555
O3 Rb1 2.847769 1_545
O3 Rb3 3.110601 1_555
O4 S0 1.518058 1_555
O4 Rb2 3.018351 1_555
O4 Rb4 3.063122 1_555
O5 S1 1.518058 1_555
O5 Rb3 3.018351 1_555
O5 Rb5 3.063122 1_555
O6 S0 1.486788 1_555
O7 S1 1.486788 1_555
O8 S2 1.489056 1_555
O9 S3 1.489056 1_555
O10 S2 1.515401 1_555
O10 Rb0 3.062017 1_555
O10 Rb5 3.191377 1_555
O11 S3 1.515401 1_555
O11 Rb1 3.062017 1_555
O11 Rb4 3.191377 1_455
O12 S2 1.498890 1_565
O12 Rb0 2.959267 1_564
O13 S3 1.498890 1_545
O13 Rb1 2.959267 1_546
O14 S2 1.487541 1_565
O14 Rb2 2.822707 1_555
O14 Rb0 3.071197 1_565
O15 S3 1.487541 1_545
O15 Rb3 2.822707 1_555
O15 Rb1 3.071197 1_545
O16 O18 1.238159 1_555
O16 Rb2 3.371969 1_555
O16 Rb1 3.485439 1_655
O17 O19 1.238159 1_555
O17 Rb3 3.371969 1_555
O17 Rb0 3.485439 1_555
O18 Rb4 3.251975 1_554
O19 Rb5 3.251975 1_556
