# generated using pymatgen
data_V3Fe(PO4)6
_symmetry_space_group_name_H-M   'P 1'
_cell_length_a   8.75347552
_cell_length_b   8.75347552
_cell_length_c   8.75347558
_cell_angle_alpha   58.40212490
_cell_angle_beta   58.40212490
_cell_angle_gamma   58.40212078
_symmetry_Int_Tables_number   1
_chemical_formula_structural   V3Fe(PO4)6
_chemical_formula_sum   'V3 Fe1 P6 O24'
_cell_volume   456.92558079
_cell_formula_units_Z   1
loop_
 _symmetry_equiv_pos_site_id
 _symmetry_equiv_pos_as_xyz
  1  'x, y, z'
loop_
 _atom_site_type_symbol
 _atom_site_label
 _atom_site_symmetry_multiplicity
 _atom_site_fract_x
 _atom_site_fract_y
 _atom_site_fract_z
 _atom_site_occupancy
  V  V0  1  0.13988600  0.13988600  0.13988600  1
  V  V1  1  0.35919000  0.35919000  0.35919000  1
  V  V2  1  0.63896400  0.63896400  0.63896400  1
  Fe  Fe0  1  0.85933100  0.85933100  0.85933100  1
  P  P0  1  0.03238800  0.46706400  0.74993300  1
  P  P1  1  0.46706400  0.74993300  0.03238800  1
  P  P2  1  0.74993300  0.03238800  0.46706400  1
  P  P3  1  0.25035800  0.96878900  0.53138000  1
  P  P4  1  0.53138000  0.25035800  0.96878900  1
  P  P5  1  0.96878900  0.53138000  0.25035800  1
  O  O0  1  0.13899600  0.49469700  0.29014600  1
  O  O1  1  0.29014600  0.13899600  0.49469700  1
  O  O2  1  0.06349700  0.28177900  0.92665400  1
  O  O3  1  0.49469700  0.29014600  0.13899600  1
  O  O4  1  0.21625300  0.42675800  0.57628600  1
  O  O5  1  0.01590100  0.63445400  0.77265300  1
  O  O6  1  0.28177900  0.92665400  0.06349700  1
  O  O7  1  0.42675800  0.57628600  0.21625300  1
  O  O8  1  0.57628600  0.21625300  0.42675800  1
  O  O9  1  0.22508200  0.99589600  0.35527000  1
  O  O10  1  0.08297800  0.94244400  0.71285500  1
  O  O11  1  0.35527000  0.22508200  0.99589600  1
  O  O12  1  0.63445400  0.77265300  0.01590100  1
  O  O13  1  0.92665400  0.06349700  0.28177900  1
  O  O14  1  0.77265300  0.01590100  0.63445400  1
  O  O15  1  0.43264800  0.78656600  0.55559300  1
  O  O16  1  0.55559300  0.43264800  0.78656600  1
  O  O17  1  0.71285500  0.08297800  0.94244400  1
  O  O18  1  0.99589600  0.35527000  0.22508200  1
  O  O19  1  0.78656600  0.55559300  0.43264800  1
  O  O20  1  0.49444700  0.72247500  0.85838700  1
  O  O21  1  0.94244400  0.71285500  0.08297800  1
  O  O22  1  0.72247500  0.85838700  0.49444700  1
  O  O23  1  0.85838700  0.49444700  0.72247500  1
loop_
_geom_bond_atom_site_label_1
_geom_bond_atom_site_label_2
_geom_bond_distance
_geom_bond_site_symmetry_2
Fe0 O17 1.972425 1_565
Fe0 O21 1.972425 1_556
Fe0 O10 1.972425 1_655
Fe0 O5 1.994284 1_655
Fe0 O14 1.994284 1_565
Fe0 O12 1.994284 1_556
O0 P5 1.539305 1_455
O0 V1 1.887071 1_555
O1 P3 1.539305 1_545
O1 V1 1.887071 1_555
O2 P0 1.564326 1_555
O2 V0 1.865984 1_556
O3 P4 1.539305 1_554
O3 V1 1.887071 1_555
O4 P0 1.558399 1_555
O4 V1 1.854006 1_555
O5 P0 1.503668 1_555
O6 P1 1.564326 1_555
O6 V0 1.865984 1_565
O7 P1 1.558399 1_555
O7 V1 1.854006 1_555
O8 P2 1.558399 1_555
O8 V1 1.854006 1_555
O9 P3 1.549452 1_555
O9 V0 1.922911 1_565
O10 P3 1.501512 1_555
O11 P4 1.549452 1_555
O11 V0 1.922912 1_556
O12 P1 1.503668 1_555
O13 P2 1.564326 1_555
O13 V0 1.865984 1_655
O14 P2 1.503668 1_555
O15 P3 1.571096 1_555
O15 V2 1.846990 1_555
O16 P4 1.571097 1_555
O16 V2 1.846990 1_555
O17 P4 1.501512 1_555
O18 P5 1.549452 1_555
O18 V0 1.922911 1_655
O19 P5 1.571097 1_555
O19 V2 1.846990 1_555
O20 P1 1.541355 1_556
O20 V2 1.944204 1_555
O21 P5 1.501512 1_555
O22 P2 1.541355 1_565
O22 V2 1.944204 1_555
O23 P0 1.541355 1_655
O23 V2 1.944204 1_555
