# generated using pymatgen
data_HOs6C18S2O19
_symmetry_space_group_name_H-M   'P 1'
_cell_length_a   9.25673100
_cell_length_b   12.28654946
_cell_length_c   14.20096636
_cell_angle_alpha   90.23474524
_cell_angle_beta   103.23250034
_cell_angle_gamma   98.32533792
_symmetry_Int_Tables_number   1
_chemical_formula_structural   HOs6C18S2O19
_chemical_formula_sum   'H2 Os12 C36 S4 O38'
_cell_volume   1554.50804392
_cell_formula_units_Z   2
loop_
 _symmetry_equiv_pos_site_id
 _symmetry_equiv_pos_as_xyz
  1  'x, y, z'
loop_
 _atom_site_type_symbol
 _atom_site_label
 _atom_site_symmetry_multiplicity
 _atom_site_fract_x
 _atom_site_fract_y
 _atom_site_fract_z
 _atom_site_occupancy
  H  H0  1  0.52469400  0.57986600  0.07871300  1
  H  H1  1  0.47530600  0.42013400  0.92128700  1
  Os  Os0  1  0.80542600  0.54455200  0.16403100  1
  Os  Os1  1  0.19457400  0.45544800  0.83596900  1
  Os  Os2  1  0.06128800  0.99667500  0.23248100  1
  Os  Os3  1  0.93871200  0.00332500  0.76751900  1
  Os  Os4  1  0.05683200  0.82537000  0.39155400  1
  Os  Os5  1  0.94316800  0.17463000  0.60844600  1
  Os  Os6  1  0.61130400  0.46480900  0.29486500  1
  Os  Os7  1  0.38869600  0.53519100  0.70513500  1
  Os  Os8  1  0.58951500  0.69358300  0.24520800  1
  Os  Os9  1  0.41048500  0.30641700  0.75479200  1
  Os  Os10  1  0.76089200  0.88597300  0.18311800  1
  Os  Os11  1  0.23910800  0.11402700  0.81688200  1
  C  C0  1  0.72621200  0.41169900  0.09024400  1
  C  C1  1  0.27378800  0.58830100  0.90975600  1
  C  C2  1  0.96570000  0.47704700  0.23572100  1
  C  C3  1  0.03430000  0.52295300  0.76427900  1
  C  C4  1  0.91713400  0.60435500  0.07203500  1
  C  C5  1  0.08286600  0.39564500  0.92796500  1
  C  C6  1  0.10904500  0.94663700  0.11731100  1
  C  C7  1  0.89095500  0.05336300  0.88268900  1
  C  C8  1  0.25966300  0.06687100  0.29279400  1
  C  C9  1  0.74033700  0.93312900  0.70720600  1
  C  C10  1  0.01294500  0.13065000  0.18067800  1
  C  C11  1  0.98705500  0.86935000  0.81932200  1
  C  C12  1  0.97259100  0.78783200  0.49936100  1
  C  C13  1  0.02740900  0.21216800  0.50063900  1
  C  C14  1  0.22304800  0.92066100  0.46800600  1
  C  C15  1  0.77695200  0.07933900  0.53199400  1
  C  C16  1  0.17819300  0.71037200  0.40605600  1
  C  C17  1  0.82180700  0.28962800  0.59394400  1
  C  C18  1  0.67474800  0.32337300  0.30628200  1
  C  C19  1  0.32525200  0.67662700  0.69371800  1
  C  C20  1  0.78057000  0.52740800  0.39808600  1
  C  C21  1  0.21943000  0.47259200  0.60191400  1
  C  C22  1  0.46715400  0.44384300  0.37406700  1
  C  C23  1  0.53284600  0.55615700  0.62593300  1
  C  C24  1  0.45720500  0.42805800  0.17681100  1
  C  C25  1  0.54279500  0.57194200  0.82318900  1
  C  C26  1  0.38054400  0.65007300  0.21509900  1
  C  C27  1  0.61945600  0.34992700  0.78490100  1
  C  C28  1  0.58449100  0.74117700  0.36996900  1
  C  C29  1  0.41550900  0.25882300  0.63003100  1
  C  C30  1  0.74552100  0.84396900  0.05219200  1
  C  C31  1  0.25447900  0.15603100  0.94780800  1
  C  C32  1  0.69576600  0.01997800  0.13960100  1
  C  C33  1  0.30423400  0.98002200  0.86039900  1
  C  C34  1  0.53778600  0.84885900  0.19046200  1
  C  C35  1  0.46221400  0.15114100  0.80953800  1
  S  S0  1  0.86246000  0.72450800  0.25962300  1
  S  S1  1  0.13754000  0.27549200  0.74037700  1
  S  S2  1  0.90279900  0.96919000  0.34172500  1
  S  S3  1  0.09720100  0.03081000  0.65827500  1
  O  O0  1  0.67700300  0.33247600  0.04180500  1
  O  O1  1  0.32299700  0.66752400  0.95819500  1
  O  O2  1  0.06072800  0.43442500  0.28126600  1
  O  O3  1  0.93927200  0.56557500  0.71873400  1
  O  O4  1  0.98677700  0.63335900  0.01621600  1
  O  O5  1  0.01322300  0.36664100  0.98378400  1
  O  O6  1  0.12757900  0.91466900  0.04454200  1
  O  O7  1  0.87242100  0.08533100  0.95545800  1
  O  O8  1  0.37735700  0.11854500  0.32293900  1
  O  O9  1  0.62264300  0.88145500  0.67706100  1
  O  O10  1  0.98387100  0.21650400  0.15526200  1
  O  O11  1  0.01612900  0.78349600  0.84473800  1
  O  O12  1  0.92143300  0.77099600  0.56616600  1
  O  O13  1  0.07856700  0.22900400  0.43383400  1
  O  O14  1  0.32754300  0.97441300  0.51589900  1
  O  O15  1  0.67245700  0.02558700  0.48410100  1
  O  O16  1  0.25041800  0.63975600  0.41817500  1
  O  O17  1  0.74958200  0.36024400  0.58182500  1
  O  O18  1  0.71607000  0.23845700  0.31616100  1
  O  O19  1  0.28393000  0.76154300  0.68383900  1
  O  O20  1  0.88192900  0.55976900  0.46087700  1
  O  O21  1  0.11807100  0.44023100  0.53912300  1
  O  O22  1  0.37855700  0.42527400  0.41986100  1
  O  O23  1  0.62144300  0.57472600  0.58013900  1
  O  O24  1  0.36562400  0.41011700  0.10524900  1
  O  O25  1  0.63437600  0.58988300  0.89475100  1
  O  O26  1  0.25030900  0.62689400  0.19335100  1
  O  O27  1  0.74969100  0.37310600  0.80664900  1
  O  O28  1  0.58087500  0.77101400  0.44727100  1
  O  O29  1  0.41912500  0.22898600  0.55272900  1
  O  O30  1  0.74603300  0.82592200  0.97176700  1
  O  O31  1  0.25396700  0.17407800  0.02823300  1
  O  O32  1  0.64590900  0.09849500  0.11160000  1
  O  O33  1  0.35409100  0.90150500  0.88840000  1
  O  O34  1  0.42839300  0.89175400  0.17658200  1
  O  O35  1  0.57160700  0.10824600  0.82341800  1
  O  O36  1  0.61637600  0.62982800  0.10775600  1
  O  O37  1  0.38362400  0.37017200  0.89224400  1
loop_
_geom_bond_atom_site_label_1
_geom_bond_atom_site_label_2
_geom_bond_distance
_geom_bond_site_symmetry_2
H0 O36 0.976727 1_555
H1 O37 0.976727 1_555
Os0 S0 2.513858 1_555
Os1 S1 2.513858 1_555
Os2 S2 2.361341 1_455
Os3 S3 2.361341 1_655
Os4 S2 2.436019 1_455
Os4 S0 2.464799 1_455
Os5 S3 2.436019 1_655
Os5 S1 2.464799 1_655
Os8 S0 2.460579 1_555
Os9 S1 2.460579 1_555
Os10 S2 2.466129 1_555
Os10 S0 2.467819 1_555
Os11 S3 2.466129 1_555
Os11 S1 2.467819 1_555
C0 O0 1.162240 1_555
C0 Os0 1.894122 1_555
C1 O1 1.162240 1_555
C1 Os1 1.894122 1_555
C2 O2 1.158472 1_655
C2 Os0 1.896645 1_555
C3 O3 1.158472 1_455
C3 Os1 1.896645 1_555
C4 O4 1.157872 1_555
C4 Os0 1.929304 1_555
C5 O5 1.157872 1_555
C5 Os1 1.929304 1_555
C6 O6 1.161446 1_555
C6 Os2 1.910449 1_555
C7 O7 1.161446 1_555
C7 Os3 1.910449 1_555
C8 O8 1.165002 1_555
C8 Os2 1.914349 1_545
C9 O9 1.165002 1_555
C9 Os3 1.914349 1_565
C10 O10 1.164591 1_455
C10 Os2 1.877121 1_545
C11 O11 1.164591 1_655
C11 Os3 1.877121 1_565
C12 O12 1.160165 1_555
C12 Os4 1.900745 1_655
C13 O13 1.160165 1_555
C13 Os5 1.900745 1_455
C14 O14 1.159533 1_555
C14 Os4 1.902631 1_555
C15 O15 1.159533 1_555
C15 Os5 1.902631 1_555
C16 O16 1.160132 1_555
C16 Os4 1.912315 1_555
C17 O17 1.160132 1_555
C17 Os5 1.912315 1_555
C18 O18 1.160483 1_555
C18 Os6 1.909256 1_555
C19 O19 1.160483 1_555
C19 Os7 1.909256 1_555
C20 O20 1.157399 1_555
C20 Os6 1.945653 1_555
C21 O21 1.157399 1_555
C21 Os7 1.945653 1_555
C22 O22 1.157047 1_555
C22 Os6 1.924015 1_555
C23 O23 1.157047 1_555
C23 Os7 1.924015 1_555
C24 O24 1.161749 1_555
C24 Os6 1.939513 1_555
C25 O25 1.161749 1_555
C25 Os7 1.939513 1_555
C26 O26 1.165866 1_555
C26 Os8 1.878956 1_555
C27 O27 1.165866 1_555
C27 Os9 1.878956 1_555
C28 O28 1.165192 1_555
C28 Os8 1.876229 1_555
C29 O29 1.165192 1_555
C29 Os9 1.876229 1_555
C30 O30 1.163752 1_554
C30 Os10 1.895588 1_555
C31 O31 1.163752 1_556
C31 Os11 1.895588 1_555
C32 O32 1.161819 1_555
C32 Os10 1.892454 1_545
C33 O33 1.161819 1_555
C33 Os11 1.892454 1_565
C34 O34 1.185765 1_555
C34 Os10 2.076120 1_555
C34 Os8 2.140026 1_555
C35 O35 1.185765 1_555
C35 Os11 2.076120 1_555
C35 Os9 2.140026 1_555
O36 Os0 2.167132 1_555
O36 Os8 2.179819 1_555
O37 Os1 2.167132 1_555
O37 Os9 2.179819 1_555
