# generated using pymatgen
data_Fe2GeSe4
_symmetry_space_group_name_H-M   'P 1'
_cell_length_a   6.18307900
_cell_length_b   7.34413500
_cell_length_c   12.55808600
_cell_angle_alpha   90.00000000
_cell_angle_beta   90.00000000
_cell_angle_gamma   90.00000000
_symmetry_Int_Tables_number   1
_chemical_formula_structural   Fe2GeSe4
_chemical_formula_sum   'Fe8 Ge4 Se16'
_cell_volume   570.25473463
_cell_formula_units_Z   4
loop_
 _symmetry_equiv_pos_site_id
 _symmetry_equiv_pos_as_xyz
  1  'x, y, z'
loop_
 _atom_site_type_symbol
 _atom_site_label
 _atom_site_symmetry_multiplicity
 _atom_site_fract_x
 _atom_site_fract_y
 _atom_site_fract_z
 _atom_site_occupancy
  Fe  Fe0  1  0.49796100  0.75000000  0.72718800  1
  Fe  Fe1  1  0.50203900  0.25000000  0.27281200  1
  Fe  Fe2  1  0.00000000  0.50000000  0.50000000  1
  Fe  Fe3  1  0.00203900  0.75000000  0.22718800  1
  Fe  Fe4  1  0.99796100  0.25000000  0.77281200  1
  Fe  Fe5  1  0.50000000  0.00000000  0.00000000  1
  Fe  Fe6  1  0.00000000  0.00000000  0.50000000  1
  Fe  Fe7  1  0.50000000  0.50000000  0.00000000  1
  Ge  Ge0  1  0.92926900  0.25000000  0.08977100  1
  Ge  Ge1  1  0.57073100  0.25000000  0.58977100  1
  Ge  Ge2  1  0.42926900  0.75000000  0.41022900  1
  Ge  Ge3  1  0.07073100  0.75000000  0.91022900  1
  Se  Se0  1  0.77149200  0.50818100  0.66328400  1
  Se  Se1  1  0.72850800  0.99181900  0.16328400  1
  Se  Se2  1  0.77803400  0.25000000  0.42309100  1
  Se  Se3  1  0.22850800  0.00818100  0.33671600  1
  Se  Se4  1  0.22196600  0.75000000  0.57690900  1
  Se  Se5  1  0.72196600  0.25000000  0.92309100  1
  Se  Se6  1  0.66570800  0.75000000  0.91116600  1
  Se  Se7  1  0.83429200  0.75000000  0.41116600  1
  Se  Se8  1  0.16570800  0.25000000  0.58883400  1
  Se  Se9  1  0.33429200  0.25000000  0.08883400  1
  Se  Se10  1  0.72850800  0.50818100  0.16328400  1
  Se  Se11  1  0.27803400  0.75000000  0.07690900  1
  Se  Se12  1  0.27149200  0.49181900  0.83671600  1
  Se  Se13  1  0.77149200  0.99181900  0.66328400  1
  Se  Se14  1  0.22850800  0.49181900  0.33671600  1
  Se  Se15  1  0.27149200  0.00818100  0.83671600  1
loop_
_geom_bond_atom_site_label_1
_geom_bond_atom_site_label_2
_geom_bond_distance
_geom_bond_site_symmetry_2
Fe0 Se6 2.532542 1_555
Fe0 Se4 2.544352 1_555
Fe0 Se13 2.580388 1_555
Fe0 Se0 2.580388 1_555
Fe0 Se15 2.729089 1_565
Fe0 Se12 2.729089 1_555
Fe1 Se9 2.532542 1_555
Fe1 Se2 2.544352 1_555
Fe1 Se14 2.580388 1_555
Fe1 Se3 2.580388 1_555
Fe1 Se10 2.729089 1_555
Fe1 Se1 2.729089 1_545
Fe2 Se8 2.380194 1_555
Fe2 Se7 2.380194 1_455
Fe2 Se2 2.487453 1_455
Fe2 Se4 2.487453 1_555
Fe2 Se0 2.490891 1_455
Fe2 Se14 2.490891 1_555
Fe3 Se7 2.532542 1_455
Fe3 Se11 2.544352 1_555
Fe3 Se10 2.580388 1_455
Fe3 Se1 2.580388 1_455
Fe3 Se3 2.729089 1_565
Fe3 Se14 2.729089 1_555
Fe4 Se8 2.532542 1_655
Fe4 Se5 2.544352 1_555
Fe4 Se12 2.580388 1_655
Fe4 Se15 2.580388 1_655
Fe4 Se13 2.729089 1_545
Fe4 Se0 2.729089 1_555
Fe5 Se9 2.380194 1_555
Fe5 Se6 2.380194 1_544
Fe5 Se11 2.487453 1_545
Fe5 Se5 2.487453 1_554
Fe5 Se1 2.490891 1_545
Fe5 Se15 2.490891 1_554
Fe6 Se8 2.380194 1_555
Fe6 Se7 2.380194 1_445
Fe6 Se4 2.487453 1_545
Fe6 Se2 2.487453 1_455
Fe6 Se13 2.490891 1_445
Fe6 Se3 2.490891 1_555
Fe7 Se9 2.380194 1_555
Fe7 Se6 2.380194 1_554
Fe7 Se11 2.487453 1_555
Fe7 Se5 2.487453 1_554
Fe7 Se10 2.490891 1_555
Fe7 Se12 2.490891 1_554
Ge0 Se1 2.447121 1_545
Ge0 Se10 2.447121 1_555
Ge0 Se5 2.454454 1_554
Ge0 Se9 2.504317 1_655
Ge1 Se13 2.447121 1_545
Ge1 Se0 2.447121 1_555
Ge1 Se2 2.454454 1_555
Ge1 Se8 2.504317 1_555
Ge2 Se3 2.447121 1_565
Ge2 Se14 2.447121 1_555
Ge2 Se4 2.454454 1_555
Ge2 Se7 2.504317 1_555
Ge3 Se15 2.447121 1_565
Ge3 Se12 2.447121 1_555
Ge3 Se11 2.454454 1_556
Ge3 Se6 2.504317 1_455
