# generated using pymatgen
data_Fe4OF7
_symmetry_space_group_name_H-M   'P 1'
_cell_length_a   4.81167500
_cell_length_b   6.52240500
_cell_length_c   10.14005721
_cell_angle_alpha   71.49583131
_cell_angle_beta   90.00000000
_cell_angle_gamma   90.00000000
_symmetry_Int_Tables_number   1
_chemical_formula_structural   Fe4OF7
_chemical_formula_sum   'Fe8 O2 F14'
_cell_volume   301.78000634
_cell_formula_units_Z   2
loop_
 _symmetry_equiv_pos_site_id
 _symmetry_equiv_pos_as_xyz
  1  'x, y, z'
loop_
 _atom_site_type_symbol
 _atom_site_label
 _atom_site_symmetry_multiplicity
 _atom_site_fract_x
 _atom_site_fract_y
 _atom_site_fract_z
 _atom_site_occupancy
  Fe  Fe0  1  0.48458100  0.43478000  0.37124200  1
  Fe  Fe1  1  0.50023800  0.18790100  0.87967900  1
  Fe  Fe2  1  0.52079100  0.68852300  0.86744800  1
  Fe  Fe3  1  0.48599300  0.96218200  0.36407600  1
  Fe  Fe4  1  0.98458100  0.56522000  0.62875800  1
  Fe  Fe5  1  0.02079100  0.31147700  0.13255200  1
  Fe  Fe6  1  0.98599300  0.03781800  0.63592400  1
  Fe  Fe7  1  0.00023800  0.81209900  0.12032100  1
  O  O0  1  0.81005400  0.77907100  0.71826100  1
  O  O1  1  0.31005400  0.22092900  0.28173900  1
  F  F0  1  0.80207600  0.51747100  0.22910600  1
  F  F1  1  0.79572800  0.00422700  0.23018500  1
  F  F2  1  0.79665100  0.24594200  0.72245100  1
  F  F3  1  0.67881300  0.65491400  0.46849300  1
  F  F4  1  0.69876400  0.89071100  0.97638300  1
  F  F5  1  0.71255300  0.12500200  0.47418200  1
  F  F6  1  0.71375400  0.38263400  0.98048700  1
  F  F7  1  0.29572800  0.99577300  0.76981500  1
  F  F8  1  0.30207600  0.48252900  0.77089400  1
  F  F9  1  0.29665100  0.75405800  0.27754900  1
  F  F10  1  0.19876400  0.10928900  0.02361700  1
  F  F11  1  0.21255300  0.87499800  0.52581800  1
  F  F12  1  0.21375400  0.61736600  0.01951300  1
  F  F13  1  0.17881300  0.34508600  0.53150700  1
loop_
_geom_bond_atom_site_label_1
_geom_bond_atom_site_label_2
_geom_bond_distance
_geom_bond_site_symmetry_2
Fe0 O1 2.068317 1_555
Fe2 O0 2.001842 1_555
Fe3 O1 1.835082 1_565
Fe4 O0 2.068317 1_555
Fe5 O1 2.001842 1_555
Fe6 O0 1.835082 1_545
F0 Fe0 2.051474 1_555
F0 Fe7 2.115014 1_655
F0 Fe5 2.169390 1_655
F1 Fe3 1.975664 1_545
F1 Fe7 2.160060 1_645
F1 Fe5 2.215756 1_655
F2 Fe6 2.049037 1_555
F2 Fe1 2.082349 1_555
F2 Fe4 2.191144 1_555
F3 Fe4 2.131741 1_555
F3 Fe3 2.156722 1_555
F3 Fe0 2.192295 1_555
F4 Fe7 2.005583 1_656
F4 Fe1 2.103545 1_565
F4 Fe2 2.148775 1_555
F5 Fe6 2.037719 1_555
F5 Fe3 2.077336 1_545
F5 Fe0 2.244218 1_555
F6 Fe5 2.078787 1_656
F6 Fe1 2.130190 1_555
F6 Fe2 2.169069 1_555
F7 Fe6 1.975664 1_465
F7 Fe1 2.160060 1_565
F7 Fe2 2.215756 1_555
F8 Fe4 2.051474 1_455
F8 Fe1 2.115014 1_555
F8 Fe2 2.169390 1_555
F9 Fe3 2.049037 1_555
F9 Fe7 2.082349 1_555
F9 Fe0 2.191144 1_555
F10 Fe1 2.005583 1_554
F10 Fe7 2.103545 1_545
F10 Fe5 2.148775 1_555
F11 Fe3 2.037719 1_555
F11 Fe6 2.077336 1_465
F11 Fe4 2.244218 1_455
F12 Fe2 2.078787 1_554
F12 Fe7 2.130190 1_555
F12 Fe5 2.169069 1_555
F13 Fe0 2.131741 1_555
F13 Fe6 2.156722 1_455
F13 Fe4 2.192295 1_455
