# generated using pymatgen
data_LiCoSiO4
_symmetry_space_group_name_H-M   'P 1'
_cell_length_a   5.34021893
_cell_length_b   5.34021893
_cell_length_c   9.15855641
_cell_angle_alpha   63.32858695
_cell_angle_beta   63.32858695
_cell_angle_gamma   53.70359550
_symmetry_Int_Tables_number   1
_chemical_formula_structural   LiCoSiO4
_chemical_formula_sum   'Li2 Co2 Si2 O8'
_cell_volume   181.92145535
_cell_formula_units_Z   2
loop_
 _symmetry_equiv_pos_site_id
 _symmetry_equiv_pos_as_xyz
  1  'x, y, z'
loop_
 _atom_site_type_symbol
 _atom_site_label
 _atom_site_symmetry_multiplicity
 _atom_site_fract_x
 _atom_site_fract_y
 _atom_site_fract_z
 _atom_site_occupancy
  Li  Li0  1  0.48796500  0.79384500  0.86454800  1
  Li  Li1  1  0.79384500  0.48796500  0.36454800  1
  Co  Co0  1  0.50201800  0.14450300  0.50614400  1
  Co  Co1  1  0.14450300  0.50201800  0.00614400  1
  Si  Si0  1  0.83461600  0.13423300  0.74663200  1
  Si  Si1  1  0.13423300  0.83461600  0.24663200  1
  O  O0  1  0.17845700  0.12629800  0.69506100  1
  O  O1  1  0.84556200  0.79255700  0.88283200  1
  O  O2  1  0.54511800  0.41955800  0.84149500  1
  O  O3  1  0.76789600  0.17505300  0.57818800  1
  O  O4  1  0.12629800  0.17845700  0.19506100  1
  O  O5  1  0.79255700  0.84556200  0.38283200  1
  O  O6  1  0.41955800  0.54511800  0.34149500  1
  O  O7  1  0.17505300  0.76789600  0.07818800  1
loop_
_geom_bond_atom_site_label_1
_geom_bond_atom_site_label_2
_geom_bond_distance
_geom_bond_site_symmetry_2
Li0 O2 1.931731 1_555
Li0 O7 1.932721 1_556
Li0 O1 1.986286 1_555
Li0 O0 2.156028 1_565
Li1 O6 1.931731 1_555
Li1 O3 1.932721 1_555
Li1 O5 1.986286 1_555
Li1 O4 2.156028 1_655
Co0 O5 1.828741 1_545
Co0 O0 1.831018 1_555
Co0 O6 1.905078 1_555
Co0 O3 1.920903 1_555
Co1 O1 1.828741 1_454
Co1 O4 1.831018 1_555
Co1 O2 1.905078 1_554
Co1 O7 1.920903 1_555
O0 Si0 1.656420 1_455
O1 Si0 1.668699 1_565
O2 Si0 1.631042 1_555
O3 Si0 1.629112 1_555
O4 Si1 1.656420 1_545
O5 Si1 1.668699 1_655
O6 Si1 1.631042 1_555
O7 Si1 1.629112 1_555
