# generated using pymatgen
data_LiNiPO4
_symmetry_space_group_name_H-M   'P 1'
_cell_length_a   5.50131800
_cell_length_b   8.10896500
_cell_length_c   19.89832900
_cell_angle_alpha   90.00000000
_cell_angle_beta   90.00000000
_cell_angle_gamma   90.00000000
_symmetry_Int_Tables_number   1
_chemical_formula_structural   LiNiPO4
_chemical_formula_sum   'Li12 Ni12 P12 O48'
_cell_volume   887.66435950
_cell_formula_units_Z   12
loop_
 _symmetry_equiv_pos_site_id
 _symmetry_equiv_pos_as_xyz
  1  'x, y, z'
loop_
 _atom_site_type_symbol
 _atom_site_label
 _atom_site_symmetry_multiplicity
 _atom_site_fract_x
 _atom_site_fract_y
 _atom_site_fract_z
 _atom_site_occupancy
  Li  Li0  1  0.69358400  0.27082500  0.97527500  1
  Li  Li1  1  0.31435200  0.74871700  0.17876800  1
  Li  Li2  1  0.71340000  0.25705600  0.15950900  1
  Li  Li3  1  0.21340000  0.75705600  0.34049100  1
  Li  Li4  1  0.81435200  0.24871700  0.32123200  1
  Li  Li5  1  0.19358400  0.77082500  0.52472500  1
  Li  Li6  1  0.69358400  0.22917500  0.47527500  1
  Li  Li7  1  0.31435200  0.75128300  0.67876800  1
  Li  Li8  1  0.71340000  0.24294400  0.65950900  1
  Li  Li9  1  0.21340000  0.74294400  0.84049100  1
  Li  Li10  1  0.81435200  0.25128300  0.82123200  1
  Li  Li11  1  0.19358400  0.72917500  0.02472500  1
  Ni  Ni0  1  0.75254700  0.98327300  0.06231900  1
  Ni  Ni1  1  0.19070600  0.42276000  0.08922600  1
  Ni  Ni2  1  0.76401800  0.56084100  0.24098000  1
  Ni  Ni3  1  0.26401800  0.06084100  0.25902000  1
  Ni  Ni4  1  0.69070600  0.92276000  0.41077400  1
  Ni  Ni5  1  0.25254700  0.48327300  0.43768100  1
  Ni  Ni6  1  0.75254700  0.51672700  0.56231900  1
  Ni  Ni7  1  0.19070600  0.07724000  0.58922600  1
  Ni  Ni8  1  0.76401800  0.93915900  0.74098000  1
  Ni  Ni9  1  0.26401800  0.43915900  0.75902000  1
  Ni  Ni10  1  0.69070600  0.57724000  0.91077400  1
  Ni  Ni11  1  0.25254700  0.01672700  0.93768100  1
  P  P0  1  0.69482000  0.59098300  0.07050400  1
  P  P1  1  0.26451100  0.08980700  0.09521700  1
  P  P2  1  0.74586600  0.93836100  0.23433400  1
  P  P3  1  0.24586600  0.43836100  0.26566600  1
  P  P4  1  0.76451100  0.58980700  0.40478300  1
  P  P5  1  0.19482000  0.09098300  0.42949600  1
  P  P6  1  0.69482000  0.90901700  0.57050400  1
  P  P7  1  0.26451100  0.41019300  0.59521700  1
  P  P8  1  0.74586600  0.56163900  0.73433400  1
  P  P9  1  0.24586600  0.06163900  0.76566600  1
  P  P10  1  0.76451100  0.91019300  0.90478300  1
  P  P11  1  0.19482000  0.40901700  0.92949600  1
  O  O0  1  0.66601500  0.49799200  0.00383900  1
  O  O1  1  0.35070200  0.96846000  0.03796700  1
  O  O2  1  0.44260000  0.23937700  0.09670300  1
  O  O3  1  0.01538400  0.16791200  0.07659400  1
  O  O4  1  0.84344500  0.75094400  0.05919400  1
  O  O5  1  0.43510600  0.62421300  0.09983500  1
  O  O6  1  0.84325900  0.48300700  0.12102900  1
  O  O7  1  0.26267800  0.99273900  0.16059800  1
  O  O8  1  0.75914700  0.99554300  0.16141100  1
  O  O9  1  0.11655000  0.58005200  0.22671500  1
  O  O10  1  0.49352900  0.40771100  0.23166800  1
  O  O11  1  0.09162400  0.27710600  0.25803300  1
  O  O12  1  0.59162400  0.77710600  0.24196700  1
  O  O13  1  0.99352900  0.90771100  0.26833200  1
  O  O14  1  0.61655000  0.08005200  0.27328500  1
  O  O15  1  0.25914700  0.49554300  0.33858900  1
  O  O16  1  0.76267800  0.49273900  0.33940200  1
  O  O17  1  0.34325900  0.98300700  0.37897100  1
  O  O18  1  0.93510600  0.12421300  0.40016500  1
  O  O19  1  0.34344500  0.25094400  0.44080600  1
  O  O20  1  0.51538400  0.66791200  0.42340600  1
  O  O21  1  0.94260000  0.73937700  0.40329700  1
  O  O22  1  0.85070200  0.46846000  0.46203300  1
  O  O23  1  0.16601500  0.99799200  0.49616100  1
  O  O24  1  0.66601500  0.00200800  0.50383900  1
  O  O25  1  0.35070200  0.53154000  0.53796700  1
  O  O26  1  0.44260000  0.26062300  0.59670300  1
  O  O27  1  0.01538400  0.33208800  0.57659400  1
  O  O28  1  0.84344500  0.74905600  0.55919400  1
  O  O29  1  0.43510600  0.87578700  0.59983500  1
  O  O30  1  0.84325900  0.01699300  0.62102900  1
  O  O31  1  0.26267800  0.50726100  0.66059800  1
  O  O32  1  0.75914700  0.50445700  0.66141100  1
  O  O33  1  0.11655000  0.91994800  0.72671500  1
  O  O34  1  0.49352900  0.09228900  0.73166800  1
  O  O35  1  0.09162400  0.22289400  0.75803300  1
  O  O36  1  0.59162400  0.72289400  0.74196700  1
  O  O37  1  0.99352900  0.59228900  0.76833200  1
  O  O38  1  0.61655000  0.41994800  0.77328500  1
  O  O39  1  0.25914700  0.00445700  0.83858900  1
  O  O40  1  0.76267800  0.00726100  0.83940200  1
  O  O41  1  0.34325900  0.51699300  0.87897100  1
  O  O42  1  0.93510600  0.37578700  0.90016500  1
  O  O43  1  0.34344500  0.24905600  0.94080600  1
  O  O44  1  0.51538400  0.83208800  0.92340600  1
  O  O45  1  0.94260000  0.76062300  0.90329700  1
  O  O46  1  0.85070200  0.03154000  0.96203300  1
  O  O47  1  0.16601500  0.50200800  0.99616100  1
loop_
_geom_bond_atom_site_label_1
_geom_bond_atom_site_label_2
_geom_bond_distance
_geom_bond_site_symmetry_2
Li0 O0 1.933739 1_556
Li0 O43 2.052299 1_555
Li0 O46 2.140447 1_555
Li0 O42 2.173376 1_555
Li1 O5 1.981788 1_555
Li1 O12 1.990268 1_555
Li1 O9 1.991220 1_555
Li1 O7 2.031513 1_555
Li2 O2 1.949811 1_555
Li2 O6 2.110379 1_555
Li2 O8 2.135817 1_545
Li2 O10 2.239905 1_555
Li2 O3 2.450420 1_655
Li3 O21 1.949811 1_455
Li3 O17 2.110379 1_555
Li3 O15 2.135817 1_555
Li3 O13 2.239905 1_455
Li3 O20 2.450420 1_555
Li4 O18 1.981788 1_555
Li4 O11 1.990268 1_655
Li4 O14 1.991220 1_555
Li4 O16 2.031513 1_555
Li5 O23 1.933739 1_555
Li5 O28 2.052299 1_455
Li5 O25 2.140447 1_555
Li5 O29 2.173376 1_555
Li6 O24 1.933739 1_555
Li6 O19 2.052299 1_555
Li6 O22 2.140447 1_555
Li6 O18 2.173376 1_555
Li7 O29 1.981788 1_555
Li7 O36 1.990268 1_555
Li7 O33 1.991220 1_555
Li7 O31 2.031513 1_555
Li8 O26 1.949811 1_555
Li8 O30 2.110379 1_555
Li8 O32 2.135817 1_555
Li8 O34 2.239905 1_555
Li8 O27 2.450420 1_655
Li9 O45 1.949811 1_455
Li9 O41 2.110379 1_555
Li9 O39 2.135817 1_565
Li9 O37 2.239905 1_455
Li9 O44 2.450420 1_555
Li10 O42 1.981788 1_555
Li10 O35 1.990268 1_655
Li10 O38 1.991220 1_555
Li10 O40 2.031513 1_555
Li11 O47 1.933739 1_554
Li11 O4 2.052299 1_455
Li11 O1 2.140447 1_555
Li11 O5 2.173376 1_555
Ni0 O4 1.950176 1_555
Ni0 O8 1.974608 1_555
Ni0 O3 2.100751 1_665
Ni0 O46 2.104017 1_564
Ni0 O1 2.266346 1_555
Ni1 O47 1.964870 1_554
Ni1 O2 2.038073 1_555
Ni1 O6 2.071872 1_455
Ni1 O5 2.126234 1_555
Ni1 O3 2.294360 1_555
Ni2 O10 1.946920 1_555
Ni2 O9 1.966234 1_655
Ni2 O12 1.993803 1_555
Ni2 O16 2.034817 1_555
Ni2 O6 2.507054 1_555
Ni3 O13 1.946920 1_445
Ni3 O14 1.966234 1_555
Ni3 O11 1.993803 1_555
Ni3 O7 2.034817 1_545
Ni3 O17 2.507054 1_545
Ni4 O24 1.964870 1_565
Ni4 O21 2.038073 1_555
Ni4 O17 2.071872 1_555
Ni4 O18 2.126234 1_565
Ni4 O20 2.294360 1_555
Ni5 O19 1.950176 1_555
Ni5 O15 1.974608 1_555
Ni5 O20 2.100751 1_555
Ni5 O25 2.104017 1_555
Ni5 O22 2.266346 1_455
Ni6 O28 1.950176 1_555
Ni6 O32 1.974608 1_555
Ni6 O27 2.100751 1_655
Ni6 O22 2.104017 1_555
Ni6 O25 2.266346 1_555
Ni7 O23 1.964870 1_545
Ni7 O26 2.038073 1_555
Ni7 O30 2.071872 1_455
Ni7 O29 2.126234 1_545
Ni7 O27 2.294360 1_555
Ni8 O34 1.946920 1_565
Ni8 O33 1.966234 1_655
Ni8 O36 1.993803 1_555
Ni8 O40 2.034817 1_565
Ni8 O30 2.507054 1_565
Ni9 O37 1.946920 1_455
Ni9 O38 1.966234 1_555
Ni9 O35 1.993803 1_555
Ni9 O31 2.034817 1_555
Ni9 O41 2.507054 1_555
Ni10 O0 1.964870 1_556
Ni10 O45 2.038073 1_555
Ni10 O41 2.071872 1_555
Ni10 O42 2.126234 1_555
Ni10 O44 2.294360 1_555
Ni11 O43 1.950176 1_555
Ni11 O39 1.974608 1_555
Ni11 O44 2.100751 1_545
Ni11 O1 2.104017 1_546
Ni11 O46 2.266346 1_455
O0 P0 1.534073 1_555
O1 P1 1.578231 1_565
O2 P1 1.559410 1_555
O3 P1 1.554605 1_555
O4 P0 1.549738 1_555
O5 P0 1.566724 1_555
O6 P0 1.563405 1_555
O7 P1 1.520589 1_565
O8 P2 1.525083 1_555
O9 P3 1.557866 1_555
O10 P3 1.541350 1_555
O11 P3 1.566182 1_555
O12 P2 1.566182 1_555
O13 P2 1.541350 1_555
O14 P2 1.557866 1_545
O15 P3 1.525083 1_555
O16 P4 1.520589 1_555
O17 P5 1.563405 1_565
O18 P5 1.566724 1_655
O19 P5 1.549738 1_555
O20 P4 1.554605 1_555
O21 P4 1.559410 1_555
O22 P4 1.578231 1_555
O23 P5 1.534073 1_565
O24 P6 1.534073 1_545
O25 P7 1.578231 1_555
O26 P7 1.559410 1_555
O27 P7 1.554605 1_555
O28 P6 1.549738 1_555
O29 P6 1.566724 1_555
O30 P6 1.563405 1_545
O31 P7 1.520589 1_555
O32 P8 1.525083 1_555
O33 P9 1.557866 1_565
O34 P9 1.541350 1_555
O35 P9 1.566182 1_555
O36 P8 1.566182 1_555
O37 P8 1.541350 1_555
O38 P8 1.557866 1_555
O39 P9 1.525083 1_555
O40 P10 1.520589 1_545
O41 P11 1.563405 1_555
O42 P11 1.566724 1_655
O43 P11 1.549738 1_555
O44 P10 1.554605 1_555
O45 P10 1.559410 1_555
O46 P10 1.578231 1_545
O47 P11 1.534073 1_555
