# generated using pymatgen
data_Mn3Cr5O16
_symmetry_space_group_name_H-M   'P 1'
_cell_length_a   5.82433976
_cell_length_b   5.81280611
_cell_length_c   8.87886733
_cell_angle_alpha   90.00634619
_cell_angle_beta   90.20768366
_cell_angle_gamma   119.93695731
_symmetry_Int_Tables_number   1
_chemical_formula_structural   Mn3Cr5O16
_chemical_formula_sum   'Mn3 Cr5 O16'
_cell_volume   260.49078048
_cell_formula_units_Z   1
loop_
 _symmetry_equiv_pos_site_id
 _symmetry_equiv_pos_as_xyz
  1  'x, y, z'
loop_
 _atom_site_type_symbol
 _atom_site_label
 _atom_site_symmetry_multiplicity
 _atom_site_fract_x
 _atom_site_fract_y
 _atom_site_fract_z
 _atom_site_occupancy
  Mn  Mn0  1  0.65735700  0.82869600  0.21295800  1
  Mn  Mn1  1  0.82992000  0.66177600  0.71166500  1
  Mn  Mn2  1  0.82993300  0.16816100  0.71166400  1
  Cr  Cr0  1  0.16059600  0.83146000  0.20718500  1
  Cr  Cr1  1  0.33980300  0.66988400  0.48867300  1
  Cr  Cr2  1  0.16057400  0.32914000  0.20703600  1
  Cr  Cr3  1  0.32824400  0.16414000  0.70424100  1
  Cr  Cr4  1  0.66608400  0.33308900  0.98668900  1
  O  O0  1  0.17248400  0.83433400  0.60438700  1
  O  O1  1  0.05533500  0.52767100  0.33687600  1
  O  O2  1  0.33854000  0.66933700  0.09845500  1
  O  O3  1  0.99140500  0.99569700  0.31703400  1
  O  O4  1  0.99247400  0.99627000  0.81660600  1
  O  O5  1  0.17249700  0.33813200  0.60440900  1
  O  O6  1  0.47686100  0.95438000  0.33925100  1
  O  O7  1  0.47675300  0.52247000  0.33919900  1
  O  O8  1  0.34466700  0.17231800  0.10741700  1
  O  O9  1  0.66146800  0.83071400  0.60115100  1
  O  O10  1  0.52353400  0.47634900  0.83770200  1
  O  O11  1  0.52352900  0.04725900  0.83769700  1
  O  O12  1  0.67425300  0.33711000  0.59922700  1
  O  O13  1  0.83310400  0.66124600  0.10390600  1
  O  O14  1  0.95742300  0.47874900  0.83841400  1
  O  O15  1  0.83316100  0.17181500  0.10388200  1
loop_
_geom_bond_atom_site_label_1
_geom_bond_atom_site_label_2
_geom_bond_distance
_geom_bond_site_symmetry_2
Mn0 O2 1.899746 1_555
Mn0 O6 1.916049 1_555
Mn0 O7 1.916120 1_555
Mn0 O3 1.919202 1_555
Mn0 O15 1.983339 1_565
Mn0 O13 1.983465 1_555
Mn1 O12 1.914549 1_555
Mn1 O10 1.921845 1_555
Mn1 O4 1.923772 1_555
Mn1 O14 1.932005 1_555
Mn1 O9 1.960771 1_555
Mn1 O0 1.977561 1_655
Mn2 O12 1.914597 1_555
Mn2 O11 1.921924 1_555
Mn2 O4 1.923713 1_545
Mn2 O14 1.932041 1_555
Mn2 O9 1.960798 1_545
Mn2 O5 1.977463 1_655
Cr0 O13 1.887216 1_455
Cr0 O1 1.935237 1_555
Cr0 O8 1.935698 1_565
Cr0 O3 1.944089 1_455
Cr0 O2 1.968787 1_555
Cr0 O6 1.987237 1_555
Cr1 O9 1.902470 1_555
Cr1 O7 1.954855 1_555
Cr1 O6 1.955177 1_555
Cr1 O0 1.963636 1_555
Cr1 O5 1.963780 1_555
Cr1 O1 1.965080 1_555
Cr2 O15 1.886329 1_455
Cr2 O8 1.935256 1_555
Cr2 O1 1.935802 1_555
Cr2 O3 1.944926 1_445
Cr2 O2 1.968801 1_555
Cr2 O7 1.987371 1_555
Cr3 O5 1.881896 1_555
Cr3 O0 1.882083 1_545
Cr3 O4 1.970215 1_445
Cr3 O10 1.980136 1_555
Cr3 O11 1.980167 1_555
Cr3 O12 1.983198 1_555
Cr4 O8 1.948215 1_556
Cr4 O13 1.951472 1_556
Cr4 O15 1.952404 1_556
Cr4 O11 1.953091 1_555
Cr4 O10 1.953213 1_555
Cr4 O14 1.977849 1_555
