# generated using pymatgen
data_Cs2Sr2O3
_symmetry_space_group_name_H-M   'P 1'
_cell_length_a   7.51548600
_cell_length_b   7.22712000
_cell_length_c   7.45275156
_cell_angle_alpha   63.80153739
_cell_angle_beta   90.00000000
_cell_angle_gamma   90.00000000
_symmetry_Int_Tables_number   1
_chemical_formula_structural   Cs2Sr2O3
_chemical_formula_sum   'Cs4 Sr4 O6'
_cell_volume   363.21370898
_cell_formula_units_Z   2
loop_
 _symmetry_equiv_pos_site_id
 _symmetry_equiv_pos_as_xyz
  1  'x, y, z'
loop_
 _atom_site_type_symbol
 _atom_site_label
 _atom_site_symmetry_multiplicity
 _atom_site_fract_x
 _atom_site_fract_y
 _atom_site_fract_z
 _atom_site_occupancy
  Cs  Cs0  1  0.35265400  0.82219600  0.92293000  1
  Cs  Cs1  1  0.14734600  0.82219600  0.42293000  1
  Cs  Cs2  1  0.85265400  0.17780400  0.57707000  1
  Cs  Cs3  1  0.64734600  0.17780400  0.07707000  1
  Sr  Sr0  1  0.62070300  0.66674400  0.56885700  1
  Sr  Sr1  1  0.12070300  0.33325600  0.93114300  1
  Sr  Sr2  1  0.87929700  0.66674400  0.06885700  1
  Sr  Sr3  1  0.37929700  0.33325600  0.43114300  1
  O  O0  1  0.50000000  0.00000000  0.50000000  1
  O  O1  1  0.00000000  0.00000000  0.00000000  1
  O  O2  1  0.89126900  0.59815700  0.77079400  1
  O  O3  1  0.39126900  0.40184300  0.72920600  1
  O  O4  1  0.60873100  0.59815700  0.27079400  1
  O  O5  1  0.10873100  0.40184300  0.22920600  1
loop_
_geom_bond_atom_site_label_1
_geom_bond_atom_site_label_2
_geom_bond_distance
_geom_bond_site_symmetry_2
Cs0 O0 3.039126 1_565
Cs0 O4 3.056202 1_556
Cs0 O1 3.107622 1_566
Cs0 O5 3.417184 1_556
Cs1 O1 3.039126 1_565
Cs1 O2 3.056202 1_455
Cs1 O0 3.107622 1_565
Cs1 O3 3.417184 1_555
Cs2 O1 3.039126 1_656
Cs2 O5 3.056202 1_655
Cs2 O0 3.107622 1_555
Cs2 O4 3.417184 1_555
Cs3 O0 3.039126 1_555
Cs3 O3 3.056202 1_554
Cs3 O1 3.107622 1_655
Cs3 O2 3.417184 1_554
O0 Sr0 2.407430 1_545
O0 Sr3 2.407430 1_555
O1 Sr1 2.407430 1_554
O1 Sr2 2.407430 1_445
O2 Sr0 2.446805 1_555
O2 Sr1 2.458954 1_655
O2 Sr2 2.482058 1_556
O3 Sr1 2.446805 1_555
O3 Sr0 2.458954 1_555
O3 Sr3 2.482058 1_555
O4 Sr2 2.446805 1_555
O4 Sr3 2.458954 1_555
O4 Sr0 2.482058 1_555
O5 Sr3 2.446805 1_555
O5 Sr2 2.458954 1_455
O5 Sr1 2.482058 1_554
