# generated using pymatgen
data_Li2MnV(P2O7)2
_symmetry_space_group_name_H-M   'P 1'
_cell_length_a   4.84970700
_cell_length_b   7.04796505
_cell_length_c   16.60966978
_cell_angle_alpha   90.02954211
_cell_angle_beta   90.08378944
_cell_angle_gamma   108.77968001
_symmetry_Int_Tables_number   1
_chemical_formula_structural   Li2MnV(P2O7)2
_chemical_formula_sum   'Li4 Mn2 V2 P8 O28'
_cell_volume   537.50318688
_cell_formula_units_Z   2
loop_
 _symmetry_equiv_pos_site_id
 _symmetry_equiv_pos_as_xyz
  1  'x, y, z'
loop_
 _atom_site_type_symbol
 _atom_site_label
 _atom_site_symmetry_multiplicity
 _atom_site_fract_x
 _atom_site_fract_y
 _atom_site_fract_z
 _atom_site_occupancy
  Li  Li0  1  0.82673400  0.32474000  0.06961300  1
  Li  Li1  1  0.82276100  0.32530200  0.56924600  1
  Li  Li2  1  0.17629100  0.67614700  0.81947400  1
  Li  Li3  1  0.17475300  0.67416500  0.31919900  1
  Mn  Mn0  1  0.78652300  0.26880500  0.25078500  1
  Mn  Mn1  1  0.21465200  0.72840200  0.00016800  1
  V  V0  1  0.78374200  0.27327500  0.74996600  1
  V  V1  1  0.21367000  0.72910800  0.50034500  1
  P  P0  1  0.59893800  0.47839600  0.91103400  1
  P  P1  1  0.60122700  0.48203400  0.40991100  1
  P  P2  1  0.78723500  0.91464700  0.60792200  1
  P  P3  1  0.78775900  0.90992600  0.10648100  1
  P  P4  1  0.21106900  0.08645500  0.85691100  1
  P  P5  1  0.21328100  0.08864500  0.35727200  1
  P  P6  1  0.40069100  0.51646400  0.16129300  1
  P  P7  1  0.40000200  0.52352800  0.65984400  1
  O  O0  1  0.94938600  0.15361300  0.83738900  1
  O  O1  1  0.94223600  0.14574200  0.33690200  1
  O  O2  1  0.86785000  0.11563500  0.65193300  1
  O  O3  1  0.87390000  0.11108000  0.14866300  1
  O  O4  1  0.81389900  0.51800800  0.98183400  1
  O  O5  1  0.81062800  0.51780700  0.48203200  1
  O  O6  1  0.75542500  0.50411300  0.32942800  1
  O  O7  1  0.74981100  0.49522800  0.82891100  1
  O  O8  1  0.60380000  0.39594900  0.66114900  1
  O  O9  1  0.60783900  0.38989000  0.16400100  1
  O  O10  1  0.39806400  0.08609800  0.78209000  1
  O  O11  1  0.39763500  0.08431100  0.28270100  1
  O  O12  1  0.40401600  0.24684200  0.92324000  1
  O  O13  1  0.40434300  0.24945500  0.42226700  1
  O  O14  1  0.59551000  0.75381800  0.67348600  1
  O  O15  1  0.59794500  0.74993900  0.17215300  1
  O  O16  1  0.60265600  0.91722800  0.53343500  1
  O  O17  1  0.59893000  0.91099700  0.03174800  1
  O  O18  1  0.39230200  0.60574800  0.41244700  1
  O  O19  1  0.39634300  0.60755000  0.91251200  1
  O  O20  1  0.24665500  0.50659500  0.57832600  1
  O  O21  1  0.24948100  0.49389300  0.07982300  1
  O  O22  1  0.19023300  0.48166700  0.23295100  1
  O  O23  1  0.18690700  0.48391100  0.73089800  1
  O  O24  1  0.12608300  0.88473800  0.89845800  1
  O  O25  1  0.13096700  0.88833600  0.40205700  1
  O  O26  1  0.05105800  0.85197000  0.58817700  1
  O  O27  1  0.05676900  0.84979800  0.08595000  1
loop_
_geom_bond_atom_site_label_1
_geom_bond_atom_site_label_2
_geom_bond_distance
_geom_bond_site_symmetry_2
Li0 O4 2.010323 1_554
Li0 O21 2.019510 1_655
Li0 O9 2.028204 1_555
Li0 O3 2.065637 1_555
Li1 O5 1.998973 1_555
Li1 O8 2.012479 1_555
Li1 O20 2.046748 1_655
Li1 O2 2.080143 1_555
Li2 O23 2.011440 1_555
Li2 O19 2.022085 1_555
Li2 O24 2.042330 1_555
Li2 O7 2.057048 1_455
Li3 O22 1.990581 1_555
Li3 O6 2.008193 1_455
Li3 O18 2.016937 1_555
Li3 O25 2.103029 1_555
Mn0 O1 1.946373 1_555
Mn0 O11 1.988326 1_555
Mn0 O9 2.007682 1_555
Mn0 O22 2.069469 1_655
Mn0 O3 2.143806 1_555
Mn0 O6 2.153790 1_555
Mn1 O27 1.942200 1_555
Mn1 O17 1.963844 1_555
Mn1 O19 2.026667 1_554
Mn1 O4 2.052102 1_454
Mn1 O24 2.134729 1_554
Mn1 O21 2.166128 1_555
O0 P4 1.524951 1_655
O0 V0 1.974633 1_555
O1 P5 1.530921 1_655
O2 P2 1.528192 1_545
O2 V0 2.084229 1_555
O3 P3 1.513979 1_545
O4 P0 1.535031 1_555
O5 P1 1.536597 1_555
O5 V1 2.062651 1_655
O6 P1 1.516140 1_555
O7 P0 1.535329 1_555
O7 V0 2.087534 1_555
O8 P7 1.535577 1_555
O8 V0 2.041741 1_555
O9 P6 1.544026 1_555
O10 P4 1.540005 1_555
O10 V0 1.984551 1_555
O11 P5 1.534664 1_555
O12 P0 1.614215 1_555
O12 P4 1.637624 1_555
O13 P5 1.621170 1_555
O13 P1 1.622959 1_555
O14 P7 1.610235 1_555
O14 P2 1.631244 1_555
O15 P6 1.625138 1_555
O15 P3 1.626208 1_555
O16 P2 1.529567 1_555
O16 V1 2.001136 1_555
O17 P3 1.542926 1_555
O18 P1 1.535441 1_555
O18 V1 2.031069 1_555
O19 P0 1.539627 1_555
O20 P7 1.529817 1_555
O20 V1 2.079831 1_555
O21 P6 1.521827 1_555
O22 P6 1.536617 1_555
O23 P7 1.535229 1_555
O23 V0 2.064108 1_455
O24 P4 1.513892 1_565
O25 P5 1.531299 1_565
O25 V1 2.091702 1_555
O26 P2 1.518127 1_455
O26 V1 1.985390 1_555
O27 P3 1.534613 1_455
