# generated using pymatgen
data_BaNb8O14
_symmetry_space_group_name_H-M   'P 1'
_cell_length_a   13.13519967
_cell_length_b   13.13519967
_cell_length_c   9.58439000
_cell_angle_alpha   90.00000000
_cell_angle_beta   90.00000000
_cell_angle_gamma   132.80108036
_symmetry_Int_Tables_number   1
_chemical_formula_structural   BaNb8O14
_chemical_formula_sum   'Ba4 Nb32 O56'
_cell_volume   1213.29511272
_cell_formula_units_Z   4
loop_
 _symmetry_equiv_pos_site_id
 _symmetry_equiv_pos_as_xyz
  1  'x, y, z'
loop_
 _atom_site_type_symbol
 _atom_site_label
 _atom_site_symmetry_multiplicity
 _atom_site_fract_x
 _atom_site_fract_y
 _atom_site_fract_z
 _atom_site_occupancy
  Ba  Ba0  1  0.37639900  0.10599800  0.49414900  1
  Ba  Ba1  1  0.89400200  0.62360100  0.99414900  1
  Ba  Ba2  1  0.62360100  0.89400200  0.99414900  1
  Ba  Ba3  1  0.10599800  0.37639900  0.49414900  1
  Nb  Nb0  1  0.73742200  0.60462000  0.62386100  1
  Nb  Nb1  1  0.39538000  0.26257800  0.12386100  1
  Nb  Nb2  1  0.89267600  0.75853900  0.37425400  1
  Nb  Nb3  1  0.24146100  0.10732400  0.87425400  1
  Nb  Nb4  1  0.03190200  0.79047100  0.61778500  1
  Nb  Nb5  1  0.20952900  0.96809800  0.11778500  1
  Nb  Nb6  1  0.53819300  0.29089700  0.88217300  1
  Nb  Nb7  1  0.70910300  0.46180700  0.38217300  1
  Nb  Nb8  1  0.85892800  0.49410300  0.62220200  1
  Nb  Nb9  1  0.35767900  0.99166000  0.87495600  1
  Nb  Nb10  1  0.00834000  0.64232100  0.37495600  1
  Nb  Nb11  1  0.50589700  0.14107200  0.12220200  1
  Nb  Nb12  1  0.68171300  0.18877400  0.63703200  1
  Nb  Nb13  1  0.81122600  0.31828700  0.13703200  1
  Nb  Nb14  1  0.18877400  0.68171300  0.63703200  1
  Nb  Nb15  1  0.31828700  0.81122600  0.13703200  1
  Nb  Nb16  1  0.64232100  0.00834000  0.37495600  1
  Nb  Nb17  1  0.49410300  0.85892800  0.62220200  1
  Nb  Nb18  1  0.99166000  0.35767900  0.87495600  1
  Nb  Nb19  1  0.14107200  0.50589700  0.12220200  1
  Nb  Nb20  1  0.29089700  0.53819300  0.88217300  1
  Nb  Nb21  1  0.96809800  0.20952900  0.11778500  1
  Nb  Nb22  1  0.46180700  0.70910300  0.38217300  1
  Nb  Nb23  1  0.79047100  0.03190200  0.61778500  1
  Nb  Nb24  1  0.26257800  0.39538000  0.12386100  1
  Nb  Nb25  1  0.75853900  0.89267600  0.37425400  1
  Nb  Nb26  1  0.60462000  0.73742200  0.62386100  1
  Nb  Nb27  1  0.10732400  0.24146100  0.87425400  1
  Nb  Nb28  1  0.40968300  0.40968300  0.61661000  1
  Nb  Nb29  1  0.91105500  0.91105500  0.88323900  1
  Nb  Nb30  1  0.08894500  0.08894500  0.38323900  1
  Nb  Nb31  1  0.59031700  0.59031700  0.11661000  1
  O  O0  1  0.72598600  0.60035800  0.24381000  1
  O  O1  1  0.89574400  0.77180000  0.75869000  1
  O  O2  1  0.39964200  0.27401400  0.74381000  1
  O  O3  1  0.22820000  0.10425600  0.25869000  1
  O  O4  1  0.56046100  0.43408500  0.50698600  1
  O  O5  1  0.05986600  0.93357300  0.99206200  1
  O  O6  1  0.06642700  0.94013400  0.49206200  1
  O  O7  1  0.56591500  0.43953900  0.00698600  1
  O  O8  1  0.52877200  0.27895500  0.25904000  1
  O  O9  1  0.72104500  0.47122800  0.75904000  1
  O  O10  1  0.03183800  0.78194900  0.24175800  1
  O  O11  1  0.21805100  0.96816200  0.74175800  1
  O  O12  1  0.68801900  0.31497100  0.50874500  1
  O  O13  1  0.68502900  0.31198100  0.00874500  1
  O  O14  1  0.17721600  0.79899300  0.50556500  1
  O  O15  1  0.20100700  0.82278400  0.00556500  1
  O  O16  1  0.84822400  0.47289000  0.24757200  1
  O  O17  1  0.34429700  0.96742600  0.24128700  1
  O  O18  1  0.03257400  0.65570300  0.74128700  1
  O  O19  1  0.52711000  0.15177600  0.74757200  1
  O  O20  1  0.01399900  0.52006200  0.51128200  1
  O  O21  1  0.47993800  0.98600100  0.01128200  1
  O  O22  1  0.16177000  0.66383000  0.24522400  1
  O  O23  1  0.66383000  0.16177000  0.24522400  1
  O  O24  1  0.83823000  0.33617000  0.74522400  1
  O  O25  1  0.33617000  0.83823000  0.74522400  1
  O  O26  1  0.98600100  0.47993800  0.01128200  1
  O  O27  1  0.52006200  0.01399900  0.51128200  1
  O  O28  1  0.96742600  0.34429700  0.24128700  1
  O  O29  1  0.15177600  0.52711000  0.74757200  1
  O  O30  1  0.65570300  0.03257400  0.74128700  1
  O  O31  1  0.47289000  0.84822400  0.24757200  1
  O  O32  1  0.79899300  0.17721600  0.50556500  1
  O  O33  1  0.82278400  0.20100700  0.00556500  1
  O  O34  1  0.31497100  0.68801900  0.50874500  1
  O  O35  1  0.31198100  0.68502900  0.00874500  1
  O  O36  1  0.47122800  0.72104500  0.75904000  1
  O  O37  1  0.27895500  0.52877200  0.25904000  1
  O  O38  1  0.78194900  0.03183800  0.24175800  1
  O  O39  1  0.96816200  0.21805100  0.74175800  1
  O  O40  1  0.43408500  0.56046100  0.50698600  1
  O  O41  1  0.93357300  0.05986600  0.99206200  1
  O  O42  1  0.43953900  0.56591500  0.00698600  1
  O  O43  1  0.94013400  0.06642700  0.49206200  1
  O  O44  1  0.60035800  0.72598600  0.24381000  1
  O  O45  1  0.10425600  0.22820000  0.25869000  1
  O  O46  1  0.27401400  0.39964200  0.74381000  1
  O  O47  1  0.77180000  0.89574400  0.75869000  1
  O  O48  1  0.93061300  0.93061200  0.27043400  1
  O  O49  1  0.74950700  0.74950700  0.49922800  1
  O  O50  1  0.25049300  0.25049300  0.99922800  1
  O  O51  1  0.74987800  0.74987800  0.00125300  1
  O  O52  1  0.06938800  0.06938700  0.77043400  1
  O  O53  1  0.56861200  0.56861200  0.73020700  1
  O  O54  1  0.25012200  0.25012200  0.50125300  1
  O  O55  1  0.43138800  0.43138800  0.23020700  1
loop_
_geom_bond_atom_site_label_1
_geom_bond_atom_site_label_2
_geom_bond_distance
_geom_bond_site_symmetry_2
Ba0 O8 2.840036 1_555
Ba0 O11 2.849342 1_545
Ba0 O27 2.854291 1_555
Ba0 O17 2.884674 1_545
Ba0 O19 2.926167 1_555
Ba0 O14 2.963370 1_545
Ba0 O3 2.970214 1_555
Ba0 O12 3.006719 1_555
Ba0 O6 3.044701 1_545
Ba0 O2 3.126314 1_555
Ba0 O4 3.205239 1_555
Ba0 O54 3.256789 1_555
Ba1 O9 2.840036 1_555
Ba1 O10 2.849342 1_656
Ba1 O26 2.854291 1_556
Ba1 O18 2.884674 1_655
Ba1 O16 2.926167 1_556
Ba1 O15 2.963370 1_656
Ba1 O1 2.970214 1_555
Ba1 O13 3.006719 1_556
Ba1 O5 3.044701 1_655
Ba1 O0 3.126314 1_556
Ba1 O7 3.205239 1_556
Ba1 O51 3.256789 1_556
Ba2 O36 2.840036 1_555
Ba2 O38 2.849342 1_566
Ba2 O21 2.854291 1_556
Ba2 O30 2.884674 1_565
Ba2 O31 2.926167 1_556
Ba2 O33 2.963370 1_566
Ba2 O47 2.970214 1_555
Ba2 O35 3.006719 1_556
Ba2 O41 3.044701 1_565
Ba2 O44 3.126314 1_556
Ba2 O42 3.205239 1_556
Ba2 O51 3.256789 1_556
Ba3 O37 2.840036 1_555
Ba3 O39 2.849342 1_455
Ba3 O20 2.854291 1_555
Ba3 O28 2.884674 1_455
Ba3 O29 2.926167 1_555
Ba3 O32 2.963370 1_455
Ba3 O45 2.970214 1_555
Ba3 O34 3.006719 1_555
Ba3 O43 3.044701 1_455
Ba3 O46 3.126314 1_555
Ba3 O40 3.205239 1_555
Ba3 O54 3.256789 1_555
Nb0 O9 2.069456 1_555
Nb0 O4 2.144736 1_555
Nb0 O1 2.147347 1_555
Nb0 O49 2.159500 1_555
Nb0 O53 2.180390 1_555
Nb1 O8 2.069456 1_555
Nb1 O7 2.144736 1_555
Nb1 O3 2.147347 1_555
Nb1 O50 2.159500 1_554
Nb1 O55 2.180390 1_555
Nb2 O10 2.069943 1_655
Nb2 O0 2.119438 1_555
Nb2 O49 2.163817 1_555
Nb2 O6 2.185293 1_655
Nb2 O48 2.194648 1_555
Nb3 O11 2.069943 1_545
Nb3 O2 2.119438 1_555
Nb3 O50 2.163817 1_555
Nb3 O5 2.185293 1_545
Nb3 O52 2.194648 1_555
Nb4 O6 2.076232 1_555
Nb4 O1 2.118142 1_455
Nb4 O14 2.126561 1_555
Nb4 O18 2.134493 1_555
Nb4 O11 2.254507 1_555
Nb5 O5 2.076232 1_554
Nb5 O3 2.118142 1_565
Nb5 O15 2.126561 1_555
Nb5 O17 2.134493 1_555
Nb5 O10 2.254507 1_555
Nb6 O7 2.099890 1_556
Nb6 O13 2.131303 1_556
Nb6 O2 2.138076 1_555
Nb6 O19 2.159465 1_555
Nb6 O9 2.245236 1_555
Nb7 O4 2.099890 1_555
Nb7 O12 2.131303 1_555
Nb7 O0 2.138076 1_555
Nb7 O16 2.159465 1_555
Nb7 O8 2.245236 1_555
Nb8 O9 2.085905 1_555
Nb8 O18 2.105128 1_655
Nb8 O20 2.109871 1_655
Nb8 O12 2.140205 1_555
Nb8 O24 2.236342 1_555
Nb9 O11 2.078337 1_555
Nb9 O21 2.110414 1_556
Nb9 O19 2.122791 1_565
Nb9 O15 2.125850 1_556
Nb9 O25 2.216687 1_555
Nb10 O10 2.078337 1_555
Nb10 O20 2.110414 1_555
Nb10 O16 2.122791 1_455
Nb10 O14 2.125850 1_555
Nb10 O22 2.216687 1_555
Nb11 O8 2.085905 1_555
Nb11 O17 2.105128 1_545
Nb11 O21 2.109871 1_545
Nb11 O13 2.140205 1_555
Nb11 O23 2.236342 1_555
Nb12 O24 1.908241 1_555
Nb12 O12 2.019850 1_555
Nb12 O19 2.035052 1_555
Nb12 O32 2.074046 1_555
Nb12 O30 2.090973 1_555
Nb12 O27 2.146465 1_555
Nb13 O23 1.908241 1_555
Nb13 O13 2.019850 1_555
Nb13 O16 2.035052 1_555
Nb13 O33 2.074046 1_555
Nb13 O28 2.090973 1_555
Nb13 O26 2.146465 1_555
Nb14 O25 1.908241 1_555
Nb14 O34 2.019850 1_555
Nb14 O29 2.035052 1_555
Nb14 O14 2.074046 1_555
Nb14 O18 2.090973 1_555
Nb14 O20 2.146465 1_555
Nb15 O22 1.908241 1_555
Nb15 O35 2.019850 1_555
Nb15 O31 2.035052 1_555
Nb15 O15 2.074046 1_555
Nb15 O17 2.090973 1_555
Nb15 O21 2.146465 1_555
Nb16 O38 2.078337 1_555
Nb16 O27 2.110414 1_555
Nb16 O31 2.122791 1_545
Nb16 O32 2.125850 1_555
Nb16 O23 2.216687 1_555
Nb17 O36 2.085905 1_555
Nb17 O30 2.105128 1_565
Nb17 O27 2.109871 1_565
Nb17 O34 2.140205 1_555
Nb17 O25 2.236342 1_555
Nb18 O39 2.078337 1_555
Nb18 O26 2.110414 1_556
Nb18 O29 2.122791 1_655
Nb18 O33 2.125850 1_556
Nb18 O24 2.216687 1_555
Nb19 O37 2.085905 1_555
Nb19 O28 2.105128 1_455
Nb19 O26 2.109871 1_455
Nb19 O35 2.140205 1_555
Nb19 O22 2.236342 1_555
Nb20 O42 2.099890 1_556
Nb20 O35 2.131303 1_556
Nb20 O46 2.138076 1_555
Nb20 O29 2.159465 1_555
Nb20 O36 2.245236 1_555
Nb21 O41 2.076232 1_554
Nb21 O45 2.118142 1_655
Nb21 O33 2.126561 1_555
Nb21 O28 2.134493 1_555
Nb21 O38 2.254507 1_555
Nb22 O40 2.099890 1_555
Nb22 O34 2.131303 1_555
Nb22 O44 2.138076 1_555
Nb22 O31 2.159465 1_555
Nb22 O37 2.245236 1_555
Nb23 O43 2.076232 1_555
Nb23 O47 2.118142 1_545
Nb23 O32 2.126561 1_555
Nb23 O30 2.134493 1_555
Nb23 O39 2.254507 1_555
Nb24 O37 2.069456 1_555
Nb24 O42 2.144736 1_555
Nb24 O45 2.147347 1_555
Nb24 O50 2.159500 1_554
Nb24 O55 2.180390 1_555
Nb25 O38 2.069943 1_565
Nb25 O44 2.119438 1_555
Nb25 O49 2.163817 1_555
Nb25 O43 2.185293 1_565
Nb25 O48 2.194666 1_555
Nb26 O36 2.069456 1_555
Nb26 O40 2.144736 1_555
Nb26 O47 2.147347 1_555
Nb26 O49 2.159500 1_555
Nb26 O53 2.180390 1_555
Nb27 O39 2.069943 1_455
Nb27 O46 2.119438 1_555
Nb27 O50 2.163817 1_555
Nb27 O41 2.185293 1_455
Nb27 O52 2.194666 1_555
Nb28 O53 1.994797 1_555
Nb28 O54 2.009601 1_555
Nb28 O40 2.065528 1_555
Nb28 O4 2.065528 1_555
Nb28 O2 2.088051 1_555
Nb28 O46 2.088051 1_555
Nb29 O52 1.985399 1_665
Nb29 O51 2.037838 1_556
Nb29 O41 2.051924 1_565
Nb29 O5 2.051924 1_655
Nb29 O47 2.076366 1_555
Nb29 O1 2.076366 1_555
Nb30 O48 1.985399 1_445
Nb30 O54 2.037838 1_555
Nb30 O6 2.051924 1_545
Nb30 O43 2.051924 1_455
Nb30 O45 2.076366 1_555
Nb30 O3 2.076366 1_555
Nb31 O55 1.994797 1_555
Nb31 O51 2.009601 1_555
Nb31 O7 2.065528 1_555
Nb31 O42 2.065528 1_555
Nb31 O44 2.088051 1_555
Nb31 O0 2.088051 1_555
