# generated using pymatgen
data_Sm(ClO4)3
_symmetry_space_group_name_H-M   'P 1'
_cell_length_a   9.38207227
_cell_length_b   9.38207227
_cell_length_c   5.82014500
_cell_angle_alpha   90.00000000
_cell_angle_beta   90.00000000
_cell_angle_gamma   120.00000188
_symmetry_Int_Tables_number   1
_chemical_formula_structural   Sm(ClO4)3
_chemical_formula_sum   'Sm2 Cl6 O24'
_cell_volume   443.67195332
_cell_formula_units_Z   2
loop_
 _symmetry_equiv_pos_site_id
 _symmetry_equiv_pos_as_xyz
  1  'x, y, z'
loop_
 _atom_site_type_symbol
 _atom_site_label
 _atom_site_symmetry_multiplicity
 _atom_site_fract_x
 _atom_site_fract_y
 _atom_site_fract_z
 _atom_site_occupancy
  Sm  Sm0  1  0.33333300  0.66666700  0.75000000  1
  Sm  Sm1  1  0.66666700  0.33333300  0.25000000  1
  Cl  Cl0  1  0.09068000  0.70911700  0.25000000  1
  Cl  Cl1  1  0.29088300  0.38156400  0.25000000  1
  Cl  Cl2  1  0.61843600  0.90932000  0.25000000  1
  Cl  Cl3  1  0.38156400  0.09068000  0.75000000  1
  Cl  Cl4  1  0.70911700  0.61843600  0.75000000  1
  Cl  Cl5  1  0.90932000  0.29088300  0.75000000  1
  O  O0  1  0.01972100  0.81153800  0.25000000  1
  O  O1  1  0.03247700  0.46744900  0.75000000  1
  O  O2  1  0.19584000  0.74257200  0.04647300  1
  O  O3  1  0.19584000  0.74257200  0.45352700  1
  O  O4  1  0.43497100  0.96752300  0.75000000  1
  O  O5  1  0.25742800  0.45326800  0.45352700  1
  O  O6  1  0.25742800  0.45326800  0.04647300  1
  O  O7  1  0.18846200  0.20818300  0.25000000  1
  O  O8  1  0.54673200  0.80416000  0.04647300  1
  O  O9  1  0.54673200  0.80416000  0.45352700  1
  O  O10  1  0.20818300  0.01972100  0.75000000  1
  O  O11  1  0.46744900  0.43497100  0.25000000  1
  O  O12  1  0.53255100  0.56502900  0.75000000  1
  O  O13  1  0.79181700  0.98027900  0.25000000  1
  O  O14  1  0.45326800  0.19584000  0.54647300  1
  O  O15  1  0.45326800  0.19584000  0.95352700  1
  O  O16  1  0.81153800  0.79181700  0.75000000  1
  O  O17  1  0.74257200  0.54673200  0.95352700  1
  O  O18  1  0.74257200  0.54673200  0.54647300  1
  O  O19  1  0.56502900  0.03247700  0.25000000  1
  O  O20  1  0.80416000  0.25742800  0.95352700  1
  O  O21  1  0.80416000  0.25742800  0.54647300  1
  O  O22  1  0.96752300  0.53255100  0.25000000  1
  O  O23  1  0.98027900  0.18846200  0.75000000  1
loop_
_geom_bond_atom_site_label_1
_geom_bond_atom_site_label_2
_geom_bond_distance
_geom_bond_site_symmetry_2
Cl0 O0 1.416442 1_555
Cl0 O22 1.471456 1_455
Cl0 O3 1.471541 1_555
Cl0 O2 1.471541 1_555
Cl1 O7 1.416450 1_555
Cl1 O11 1.471461 1_555
Cl1 O5 1.471536 1_555
Cl1 O6 1.471536 1_555
Cl2 O13 1.416451 1_555
Cl2 O19 1.471443 1_565
Cl2 O9 1.471540 1_555
Cl2 O8 1.471540 1_555
Cl3 O10 1.416451 1_555
Cl3 O4 1.471443 1_545
Cl3 O15 1.471540 1_555
Cl3 O14 1.471540 1_555
Cl4 O16 1.416450 1_555
Cl4 O12 1.471461 1_555
Cl4 O17 1.471536 1_555
Cl4 O18 1.471536 1_555
Cl5 O23 1.416442 1_555
Cl5 O1 1.471456 1_655
Cl5 O20 1.471541 1_555
Cl5 O21 1.471541 1_555
O1 Sm0 2.486979 1_555
O2 Sm0 2.463174 1_554
O3 Sm0 2.463174 1_555
O4 Sm0 2.486979 1_555
O5 Sm0 2.463180 1_555
O6 Sm0 2.463180 1_554
O8 Sm0 2.463179 1_554
O9 Sm0 2.463179 1_555
O11 Sm1 2.486979 1_555
O12 Sm0 2.486979 1_555
O14 Sm1 2.463179 1_555
O15 Sm1 2.463179 1_556
O17 Sm1 2.463180 1_556
O18 Sm1 2.463180 1_555
O19 Sm1 2.486979 1_555
O20 Sm1 2.463174 1_556
O21 Sm1 2.463174 1_555
O22 Sm1 2.486979 1_555
