# generated using pymatgen
data_CaZrS3
_symmetry_space_group_name_H-M   'P 1'
_cell_length_a   6.58770000
_cell_length_b   7.08233400
_cell_length_c   9.66205400
_cell_angle_alpha   90.00000000
_cell_angle_beta   90.00000000
_cell_angle_gamma   90.00000000
_symmetry_Int_Tables_number   1
_chemical_formula_structural   CaZrS3
_chemical_formula_sum   'Ca4 Zr4 S12'
_cell_volume   450.79560977
_cell_formula_units_Z   4
loop_
 _symmetry_equiv_pos_site_id
 _symmetry_equiv_pos_as_xyz
  1  'x, y, z'
loop_
 _atom_site_type_symbol
 _atom_site_label
 _atom_site_symmetry_multiplicity
 _atom_site_fract_x
 _atom_site_fract_y
 _atom_site_fract_z
 _atom_site_occupancy
  Ca  Ca0  1  0.03338700  0.09278000  0.25000000  1
  Ca  Ca1  1  0.53338700  0.40722000  0.75000000  1
  Ca  Ca2  1  0.46661300  0.59278000  0.25000000  1
  Ca  Ca3  1  0.96661300  0.90722000  0.75000000  1
  Zr  Zr0  1  0.50000000  0.00000000  0.00000000  1
  Zr  Zr1  1  0.00000000  0.50000000  0.00000000  1
  Zr  Zr2  1  0.00000000  0.50000000  0.50000000  1
  Zr  Zr3  1  0.50000000  0.00000000  0.50000000  1
  S  S0  1  0.81661500  0.19056600  0.56411000  1
  S  S1  1  0.31661500  0.30943400  0.43589000  1
  S  S2  1  0.68338500  0.69056600  0.93589000  1
  S  S3  1  0.18338500  0.80943400  0.06411000  1
  S  S4  1  0.18338500  0.80943400  0.43589000  1
  S  S5  1  0.68338500  0.69056600  0.56411000  1
  S  S6  1  0.31661500  0.30943400  0.06411000  1
  S  S7  1  0.81661500  0.19056600  0.93589000  1
  S  S8  1  0.62541700  0.96550800  0.25000000  1
  S  S9  1  0.12541700  0.53449200  0.75000000  1
  S  S10  1  0.87458300  0.46550800  0.25000000  1
  S  S11  1  0.37458300  0.03449200  0.75000000  1
loop_
_geom_bond_atom_site_label_1
_geom_bond_atom_site_label_2
_geom_bond_distance
_geom_bond_site_symmetry_2
Ca0 S8 2.834713 1_445
Ca0 S10 2.839524 1_455
Ca0 S3 2.868689 1_545
Ca0 S4 2.868689 1_545
Ca0 S1 3.010253 1_555
Ca0 S6 3.010253 1_555
Ca0 S0 3.424880 1_455
Ca0 S7 3.424880 1_454
Ca1 S9 2.834713 1_555
Ca1 S11 2.839524 1_555
Ca1 S2 2.868689 1_555
Ca1 S5 2.868689 1_555
Ca1 S7 3.010253 1_555
Ca1 S0 3.010253 1_555
Ca1 S6 3.424880 1_556
Ca1 S1 3.424880 1_555
Ca2 S10 2.834713 1_555
Ca2 S8 2.839524 1_555
Ca2 S1 2.868689 1_555
Ca2 S6 2.868689 1_555
Ca2 S3 3.010253 1_555
Ca2 S4 3.010253 1_555
Ca2 S2 3.424880 1_554
Ca2 S5 3.424880 1_555
Ca3 S11 2.834713 1_665
Ca3 S9 2.839524 1_655
Ca3 S0 2.868689 1_565
Ca3 S7 2.868689 1_565
Ca3 S5 3.010253 1_555
Ca3 S2 3.010253 1_555
Ca3 S3 3.424880 1_656
Ca3 S4 3.424880 1_655
S0 Zr3 2.560405 1_555
S0 Zr2 2.577966 1_655
S1 Zr2 2.560405 1_555
S1 Zr3 2.577966 1_555
S2 Zr1 2.560405 1_656
S2 Zr0 2.577966 1_566
S3 Zr0 2.560405 1_565
S3 Zr1 2.577966 1_555
S4 Zr3 2.560405 1_565
S4 Zr2 2.577966 1_555
S5 Zr2 2.560405 1_655
S5 Zr3 2.577966 1_565
S6 Zr1 2.560405 1_555
S6 Zr0 2.577966 1_555
S7 Zr0 2.560405 1_556
S7 Zr1 2.577966 1_656
S8 Zr0 2.564567 1_565
S8 Zr3 2.564567 1_565
S9 Zr1 2.564567 1_556
S9 Zr2 2.564567 1_555
S10 Zr1 2.564567 1_655
S10 Zr2 2.564567 1_655
S11 Zr3 2.564567 1_555
S11 Zr0 2.564567 1_556
