# generated using pymatgen
data_Ba3(BrO)2
_symmetry_space_group_name_H-M   'P 1'
_cell_length_a   10.69661400
_cell_length_b   12.77368100
_cell_length_c   14.42148675
_cell_angle_alpha   67.94663373
_cell_angle_beta   90.00000000
_cell_angle_gamma   90.00000000
_symmetry_Int_Tables_number   1
_chemical_formula_structural   Ba3(BrO)2
_chemical_formula_sum   'Ba24 Br16 O16'
_cell_volume   1826.31057749
_cell_formula_units_Z   8
loop_
 _symmetry_equiv_pos_site_id
 _symmetry_equiv_pos_as_xyz
  1  'x, y, z'
loop_
 _atom_site_type_symbol
 _atom_site_label
 _atom_site_symmetry_multiplicity
 _atom_site_fract_x
 _atom_site_fract_y
 _atom_site_fract_z
 _atom_site_occupancy
  Ba  Ba0  1  0.81895900  0.01025100  0.36861300  1
  Ba  Ba1  1  0.41606500  0.09241800  0.37647600  1
  Ba  Ba2  1  0.10899600  0.20841300  0.14013700  1
  Ba  Ba3  1  0.68104100  0.01025100  0.86861300  1
  Ba  Ba4  1  0.47478100  0.33923000  0.07907600  1
  Ba  Ba5  1  0.08393500  0.09241800  0.87647600  1
  Ba  Ba6  1  0.39100400  0.20841300  0.64013700  1
  Ba  Ba7  1  0.94391300  0.42347400  0.27593500  1
  Ba  Ba8  1  0.02521900  0.33923000  0.57907600  1
  Ba  Ba9  1  0.15819900  0.56470500  0.01621200  1
  Ba  Ba10  1  0.65819900  0.43529500  0.48378800  1
  Ba  Ba11  1  0.44391300  0.57652600  0.22406500  1
  Ba  Ba12  1  0.55608700  0.42347400  0.77593500  1
  Ba  Ba13  1  0.34180100  0.56470500  0.51621200  1
  Ba  Ba14  1  0.84180100  0.43529500  0.98378800  1
  Ba  Ba15  1  0.97478100  0.66077000  0.42092400  1
  Ba  Ba16  1  0.05608700  0.57652600  0.72406500  1
  Ba  Ba17  1  0.60899600  0.79158700  0.35986300  1
  Ba  Ba18  1  0.91606500  0.90758200  0.12352400  1
  Ba  Ba19  1  0.52521900  0.66077000  0.92092400  1
  Ba  Ba20  1  0.31895900  0.98974900  0.13138700  1
  Ba  Ba21  1  0.89100400  0.79158700  0.85986300  1
  Ba  Ba22  1  0.58393500  0.90758200  0.62352400  1
  Ba  Ba23  1  0.18104100  0.98974900  0.63138700  1
  Br  Br0  1  0.77244200  0.15145000  0.12107300  1
  Br  Br1  1  0.06766700  0.15236300  0.38980600  1
  Br  Br2  1  0.72755800  0.15145000  0.62107300  1
  Br  Br3  1  0.62717700  0.32047300  0.29931700  1
  Br  Br4  1  0.43233300  0.15236300  0.88980600  1
  Br  Br5  1  0.26607600  0.38239200  0.40279800  1
  Br  Br6  1  0.87282300  0.32047300  0.79931700  1
  Br  Br7  1  0.76607600  0.61760800  0.09720200  1
  Br  Br8  1  0.23392400  0.38239200  0.90279800  1
  Br  Br9  1  0.12717700  0.67952700  0.20068300  1
  Br  Br10  1  0.73392400  0.61760800  0.59720200  1
  Br  Br11  1  0.56766700  0.84763700  0.11019400  1
  Br  Br12  1  0.37282300  0.67952700  0.70068300  1
  Br  Br13  1  0.27244200  0.84855000  0.37892700  1
  Br  Br14  1  0.93233300  0.84763700  0.61019400  1
  Br  Br15  1  0.22755800  0.84855000  0.87892700  1
  O  O0  1  0.10291300  0.04224400  0.07119200  1
  O  O1  1  0.33861500  0.15542900  0.18187000  1
  O  O2  1  0.39708700  0.04224400  0.57119200  1
  O  O3  1  0.16138500  0.15542900  0.68187000  1
  O  O4  1  0.02241100  0.40238800  0.11810200  1
  O  O5  1  0.39238400  0.52759400  0.07212300  1
  O  O6  1  0.89238400  0.47240600  0.42787700  1
  O  O7  1  0.47758900  0.40238800  0.61810200  1
  O  O8  1  0.52241100  0.59761200  0.38189800  1
  O  O9  1  0.10761600  0.52759400  0.57212300  1
  O  O10  1  0.60761600  0.47240600  0.92787700  1
  O  O11  1  0.97758900  0.59761200  0.88189800  1
  O  O12  1  0.83861500  0.84457100  0.31813000  1
  O  O13  1  0.60291300  0.95775600  0.42880800  1
  O  O14  1  0.66138500  0.84457100  0.81813000  1
  O  O15  1  0.89708700  0.95775600  0.92880800  1
loop_
_geom_bond_atom_site_label_1
_geom_bond_atom_site_label_2
_geom_bond_distance
_geom_bond_site_symmetry_2
Ba0 O13 2.471164 1_545
Ba0 O12 2.492026 1_545
Ba0 Br1 3.298895 1_655
Ba0 Br0 3.377822 1_555
Ba0 Br14 3.533965 1_545
Ba1 O13 2.558931 1_545
Ba1 O2 2.643081 1_555
Ba1 O1 2.741232 1_555
Ba1 Br13 3.461577 1_545
Ba1 Br3 3.519880 1_555
Ba1 Br1 3.823866 1_555
Ba2 O4 2.550854 1_555
Ba2 O1 2.558721 1_555
Ba2 O0 2.661403 1_555
Ba2 Br1 3.425857 1_555
Ba2 Br8 3.567615 1_554
Ba2 Br0 3.703399 1_455
Ba3 O15 2.471164 1_545
Ba3 O14 2.492026 1_545
Ba3 Br4 3.298895 1_555
Ba3 Br2 3.377822 1_555
Ba3 Br11 3.533965 1_546
Ba4 O5 2.528837 1_555
Ba4 O10 2.623345 1_554
Ba4 O1 2.686570 1_555
Ba4 Br3 3.497355 1_555
Ba4 Br8 3.514511 1_554
Ba4 Br0 3.894484 1_555
Ba5 O15 2.558931 1_445
Ba5 O0 2.643081 1_556
Ba5 O3 2.741232 1_555
Ba5 Br15 3.461577 1_545
Ba5 Br6 3.519880 1_455
Ba5 Br4 3.823866 1_555
Ba6 O7 2.550854 1_555
Ba6 O3 2.558721 1_555
Ba6 O2 2.661403 1_555
Ba6 Br4 3.425857 1_555
Ba6 Br5 3.567615 1_555
Ba6 Br2 3.703399 1_555
Ba7 O4 2.533573 1_655
Ba7 O6 2.554303 1_555
Ba7 Br7 3.407645 1_555
Ba7 Br1 3.488758 1_655
Ba7 Br3 3.604189 1_555
Ba7 Br9 3.612864 1_655
Ba7 Br5 3.844081 1_655
Ba8 O9 2.528837 1_555
Ba8 O6 2.623345 1_455
Ba8 O3 2.686570 1_555
Ba8 Br6 3.497355 1_455
Ba8 Br5 3.514511 1_555
Ba8 Br2 3.894484 1_455
Ba9 O4 2.505974 1_555
Ba9 O5 2.619694 1_555
Ba9 O11 2.655101 1_454
Ba9 Br8 3.408073 1_554
Ba9 Br15 3.496526 1_554
Ba9 Br9 3.502695 1_555
Ba10 O8 2.505974 1_555
Ba10 O6 2.619694 1_555
Ba10 O7 2.655101 1_555
Ba10 Br10 3.408073 1_555
Ba10 Br2 3.496526 1_555
Ba10 Br3 3.502695 1_555
Ba11 O8 2.533573 1_555
Ba11 O5 2.554303 1_555
Ba11 Br5 3.407645 1_555
Ba11 Br11 3.488758 1_555
Ba11 Br9 3.604189 1_555
Ba11 Br3 3.612864 1_555
Ba11 Br7 3.844081 1_555
Ba12 O7 2.533573 1_555
Ba12 O10 2.554303 1_555
Ba12 Br10 3.407645 1_555
Ba12 Br4 3.488758 1_555
Ba12 Br6 3.604189 1_555
Ba12 Br12 3.612864 1_555
Ba12 Br8 3.844081 1_555
Ba13 O7 2.505974 1_555
Ba13 O9 2.619694 1_555
Ba13 O8 2.655101 1_555
Ba13 Br5 3.408073 1_555
Ba13 Br13 3.496526 1_555
Ba13 Br12 3.502695 1_555
Ba14 O11 2.505974 1_555
Ba14 O10 2.619694 1_555
Ba14 O4 2.655101 1_656
Ba14 Br7 3.408073 1_556
Ba14 Br0 3.496526 1_556
Ba14 Br6 3.502695 1_555
Ba15 O6 2.528837 1_555
Ba15 O9 2.623345 1_655
Ba15 O12 2.686570 1_555
Ba15 Br9 3.497355 1_655
Ba15 Br10 3.514511 1_555
Ba15 Br13 3.894484 1_655
Ba16 O11 2.533573 1_455
Ba16 O9 2.554303 1_555
Ba16 Br8 3.407645 1_555
Ba16 Br14 3.488758 1_455
Ba16 Br12 3.604189 1_555
Ba16 Br6 3.612864 1_455
Ba16 Br10 3.844081 1_455
Ba17 O8 2.550854 1_555
Ba17 O12 2.558721 1_555
Ba17 O13 2.661403 1_555
Ba17 Br11 3.425857 1_555
Ba17 Br10 3.567615 1_555
Ba17 Br13 3.703399 1_555
Ba18 O0 2.558931 1_665
Ba18 O15 2.643081 1_554
Ba18 O12 2.741232 1_555
Ba18 Br0 3.461577 1_565
Ba18 Br9 3.519880 1_655
Ba18 Br11 3.823866 1_555
Ba19 O10 2.528837 1_555
Ba19 O5 2.623345 1_556
Ba19 O14 2.686570 1_555
Ba19 Br12 3.497355 1_555
Ba19 Br7 3.514511 1_556
Ba19 Br15 3.894484 1_555
Ba20 O0 2.471164 1_565
Ba20 O1 2.492026 1_565
Ba20 Br11 3.298895 1_555
Ba20 Br13 3.377822 1_555
Ba20 Br4 3.533965 1_564
Ba21 O11 2.550854 1_555
Ba21 O14 2.558721 1_555
Ba21 O15 2.661403 1_555
Ba21 Br14 3.425857 1_555
Ba21 Br7 3.567615 1_556
Ba21 Br15 3.703399 1_655
Ba22 O2 2.558931 1_565
Ba22 O13 2.643081 1_555
Ba22 O14 2.741232 1_555
Ba22 Br2 3.461577 1_565
Ba22 Br12 3.519880 1_555
Ba22 Br14 3.823866 1_555
Ba23 O2 2.471164 1_565
Ba23 O3 2.492026 1_565
Ba23 Br14 3.298895 1_455
Ba23 Br15 3.377822 1_555
Ba23 Br1 3.533965 1_565
