# generated using pymatgen
data_Li2CuF4
_symmetry_space_group_name_H-M   'P 1'
_cell_length_a   7.87343000
_cell_length_b   7.87343000
_cell_length_c   5.43454600
_cell_angle_alpha   90.00000000
_cell_angle_beta   90.00000000
_cell_angle_gamma   90.00000000
_symmetry_Int_Tables_number   1
_chemical_formula_structural   Li2CuF4
_chemical_formula_sum   'Li8 Cu4 F16'
_cell_volume   336.89239744
_cell_formula_units_Z   4
loop_
 _symmetry_equiv_pos_site_id
 _symmetry_equiv_pos_as_xyz
  1  'x, y, z'
loop_
 _atom_site_type_symbol
 _atom_site_label
 _atom_site_symmetry_multiplicity
 _atom_site_fract_x
 _atom_site_fract_y
 _atom_site_fract_z
 _atom_site_occupancy
  Li  Li0  1  0.20650300  0.20650300  0.25000000  1
  Li  Li1  1  0.79349700  0.20650300  0.75000000  1
  Li  Li2  1  0.29349700  0.29349700  0.75000000  1
  Li  Li3  1  0.70650300  0.29349700  0.25000000  1
  Li  Li4  1  0.29349700  0.70650300  0.25000000  1
  Li  Li5  1  0.70650300  0.70650300  0.75000000  1
  Li  Li6  1  0.20650300  0.79349700  0.75000000  1
  Li  Li7  1  0.79349700  0.79349700  0.25000000  1
  Cu  Cu0  1  0.50000000  0.00000000  0.03972000  1
  Cu  Cu1  1  0.50000000  0.00000000  0.53972000  1
  Cu  Cu2  1  0.00000000  0.50000000  0.46028000  1
  Cu  Cu3  1  0.00000000  0.50000000  0.96028000  1
  F  F0  1  0.27425800  0.08242900  0.54918100  1
  F  F1  1  0.72574200  0.08242900  0.04918100  1
  F  F2  1  0.41757100  0.22574200  0.04918100  1
  F  F3  1  0.58242900  0.22574200  0.54918100  1
  F  F4  1  0.08242900  0.27425800  0.95081900  1
  F  F5  1  0.91757100  0.27425800  0.45081900  1
  F  F6  1  0.22574200  0.41757100  0.45081900  1
  F  F7  1  0.77425800  0.41757100  0.95081900  1
  F  F8  1  0.22574200  0.58242900  0.95081900  1
  F  F9  1  0.77425800  0.58242900  0.45081900  1
  F  F10  1  0.91757100  0.72574200  0.95081900  1
  F  F11  1  0.08242900  0.72574200  0.45081900  1
  F  F12  1  0.41757100  0.77425800  0.54918100  1
  F  F13  1  0.58242900  0.77425800  0.04918100  1
  F  F14  1  0.27425800  0.91757100  0.04918100  1
  F  F15  1  0.72574200  0.91757100  0.54918100  1
loop_
_geom_bond_atom_site_label_1
_geom_bond_atom_site_label_2
_geom_bond_distance
_geom_bond_site_symmetry_2
Cu0 F13 1.892846 1_545
Cu0 F1 1.892846 1_555
Cu0 F2 1.892846 1_555
Cu0 F14 1.892846 1_545
Cu1 F3 1.892846 1_555
Cu1 F0 1.892846 1_555
Cu1 F12 1.892846 1_545
Cu1 F15 1.892846 1_545
Cu2 F9 1.892846 1_455
Cu2 F11 1.892846 1_555
Cu2 F6 1.892846 1_555
Cu2 F5 1.892846 1_455
Cu3 F4 1.892846 1_555
Cu3 F8 1.892846 1_555
Cu3 F10 1.892846 1_455
Cu3 F7 1.892846 1_455
F0 Li0 1.970403 1_555
F0 Li2 1.993913 1_555
F1 Li1 1.970403 1_554
F1 Li3 1.993913 1_555
F2 Li2 1.970403 1_554
F2 Li0 1.993913 1_555
F3 Li3 1.970403 1_555
F3 Li1 1.993913 1_555
F4 Li0 1.970403 1_556
F4 Li2 1.993913 1_555
F5 Li1 1.970403 1_555
F5 Li3 1.993913 1_555
F6 Li2 1.970403 1_555
F6 Li0 1.993913 1_555
F7 Li3 1.970403 1_556
F7 Li1 1.993913 1_555
F8 Li4 1.970403 1_556
F8 Li6 1.993913 1_555
F9 Li5 1.970403 1_555
F9 Li7 1.993913 1_555
F10 Li7 1.970403 1_556
F10 Li5 1.993913 1_555
F11 Li6 1.970403 1_555
F11 Li4 1.993913 1_555
F12 Li4 1.970403 1_555
F12 Li6 1.993913 1_555
F13 Li5 1.970403 1_554
F13 Li7 1.993913 1_555
F14 Li6 1.970403 1_554
F14 Li4 1.993913 1_555
F15 Li7 1.970403 1_555
F15 Li5 1.993913 1_555
