# generated using pymatgen
data_NaMnPCO7
_symmetry_space_group_name_H-M   'P 1'
_cell_length_a   6.23193500
_cell_length_b   9.20408200
_cell_length_c   10.50031597
_cell_angle_alpha   87.37097741
_cell_angle_beta   90.00000000
_cell_angle_gamma   90.00000000
_symmetry_Int_Tables_number   1
_chemical_formula_structural   NaMnPCO7
_chemical_formula_sum   'Na4 Mn4 P4 C4 O28'
_cell_volume   601.65621916
_cell_formula_units_Z   4
loop_
 _symmetry_equiv_pos_site_id
 _symmetry_equiv_pos_as_xyz
  1  'x, y, z'
loop_
 _atom_site_type_symbol
 _atom_site_label
 _atom_site_symmetry_multiplicity
 _atom_site_fract_x
 _atom_site_fract_y
 _atom_site_fract_z
 _atom_site_occupancy
  Na  Na0  1  0.46155700  0.23768200  0.62145700  1
  Na  Na1  1  0.03844300  0.23768200  0.12145700  1
  Na  Na2  1  0.96155700  0.76231800  0.87854300  1
  Na  Na3  1  0.53844300  0.76231800  0.37854300  1
  Mn  Mn0  1  0.74604900  0.34452200  0.89164000  1
  Mn  Mn1  1  0.75395100  0.34452200  0.39164000  1
  Mn  Mn2  1  0.24604900  0.65547800  0.60836000  1
  Mn  Mn3  1  0.25395100  0.65547800  0.10836000  1
  P  P0  1  0.24849800  0.43507600  0.86167500  1
  P  P1  1  0.25150200  0.43507600  0.36167500  1
  P  P2  1  0.74849800  0.56492400  0.63832500  1
  P  P3  1  0.75150200  0.56492400  0.13832500  1
  C  C0  1  0.74625600  0.08454700  0.86389700  1
  C  C1  1  0.75374400  0.08454700  0.36389700  1
  C  C2  1  0.24625600  0.91545300  0.63610300  1
  C  C3  1  0.25374400  0.91545300  0.13610300  1
  O  O0  1  0.24257300  0.04715300  0.65230600  1
  O  O1  1  0.25742700  0.04715300  0.15230600  1
  O  O2  1  0.75546700  0.14560800  0.97489900  1
  O  O3  1  0.74453300  0.14560800  0.47489900  1
  O  O4  1  0.74039500  0.18668500  0.77013400  1
  O  O5  1  0.75960500  0.18668500  0.27013400  1
  O  O6  1  0.05532200  0.33483700  0.89810400  1
  O  O7  1  0.44095800  0.33291400  0.89132300  1
  O  O8  1  0.05904200  0.33291400  0.39132300  1
  O  O9  1  0.44467800  0.33483700  0.39810400  1
  O  O10  1  0.24876600  0.47745100  0.71661300  1
  O  O11  1  0.74700800  0.42611300  0.56273200  1
  O  O12  1  0.25123400  0.47745100  0.21661300  1
  O  O13  1  0.75299200  0.42611300  0.06273200  1
  O  O14  1  0.24700800  0.57388700  0.93726800  1
  O  O15  1  0.74876600  0.52254900  0.78338700  1
  O  O16  1  0.25299200  0.57388700  0.43726800  1
  O  O17  1  0.75123400  0.52254900  0.28338700  1
  O  O18  1  0.55532200  0.66516300  0.60189600  1
  O  O19  1  0.94095800  0.66708600  0.60867700  1
  O  O20  1  0.55904200  0.66708600  0.10867700  1
  O  O21  1  0.94467800  0.66516300  0.10189600  1
  O  O22  1  0.24039500  0.81331500  0.72986600  1
  O  O23  1  0.25960500  0.81331500  0.22986600  1
  O  O24  1  0.25546700  0.85439200  0.52510100  1
  O  O25  1  0.24453300  0.85439200  0.02510100  1
  O  O26  1  0.74257300  0.95284700  0.84769400  1
  O  O27  1  0.75742700  0.95284700  0.34769400  1
loop_
_geom_bond_atom_site_label_1
_geom_bond_atom_site_label_2
_geom_bond_distance
_geom_bond_site_symmetry_2
Na0 O0 2.233937 1_555
Na0 O4 2.368523 1_555
Na0 O9 2.473587 1_555
Na0 O3 2.513154 1_555
Na0 O11 2.540584 1_555
Na0 O10 2.798100 1_555
Na1 O1 2.233937 1_555
Na1 O5 2.368523 1_455
Na1 O6 2.473587 1_554
Na1 O2 2.513154 1_454
Na1 O13 2.540584 1_455
Na1 O12 2.798100 1_555
Na2 O26 2.233937 1_555
Na2 O22 2.368523 1_655
Na2 O21 2.473587 1_556
Na2 O25 2.513154 1_656
Na2 O14 2.540584 1_655
Na2 O15 2.798100 1_555
Na3 O27 2.233937 1_555
Na3 O23 2.368523 1_555
Na3 O18 2.473587 1_555
Na3 O24 2.513154 1_555
Na3 O16 2.540584 1_555
Na3 O17 2.798100 1_555
Mn0 O7 1.904318 1_555
Mn0 O6 1.930479 1_655
Mn0 O15 1.951003 1_555
Mn0 O4 1.977256 1_555
Mn0 O13 1.979161 1_556
Mn0 O2 1.993194 1_555
Mn1 O8 1.904318 1_655
Mn1 O9 1.930479 1_555
Mn1 O17 1.951003 1_555
Mn1 O5 1.977256 1_555
Mn1 O11 1.979161 1_555
Mn1 O3 1.993194 1_555
Mn2 O19 1.904318 1_455
Mn2 O18 1.930479 1_555
Mn2 O10 1.951003 1_555
Mn2 O22 1.977256 1_555
Mn2 O16 1.979161 1_555
Mn2 O24 1.993194 1_555
Mn3 O20 1.904318 1_555
Mn3 O21 1.930479 1_455
Mn3 O12 1.951003 1_555
Mn3 O23 1.977256 1_555
Mn3 O14 1.979161 1_554
Mn3 O25 1.993194 1_555
C0 O26 1.231977 1_545
C0 O2 1.318243 1_555
C0 O4 1.330229 1_555
C1 O27 1.231977 1_545
C1 O3 1.318243 1_555
C1 O5 1.330229 1_555
C2 O0 1.231977 1_565
C2 O24 1.318243 1_555
C2 O22 1.330229 1_555
C3 O1 1.231977 1_565
C3 O25 1.318243 1_555
C3 O23 1.330229 1_555
O6 P0 1.553843 1_555
O7 P0 1.546866 1_555
O8 P1 1.546866 1_555
O9 P1 1.553843 1_555
O10 P0 1.554911 1_555
O11 P2 1.534761 1_555
O12 P1 1.554911 1_555
O13 P3 1.534761 1_555
O14 P0 1.534761 1_555
O15 P2 1.554911 1_555
O16 P1 1.534761 1_555
O17 P3 1.554911 1_555
O18 P2 1.553843 1_555
O19 P2 1.546866 1_555
O20 P3 1.546866 1_555
O21 P3 1.553843 1_555
