# generated using pymatgen
data_Mn6O11F
_symmetry_space_group_name_H-M   'P 1'
_cell_length_a   4.50718500
_cell_length_b   5.39903371
_cell_length_c   7.44730345
_cell_angle_alpha   86.15776352
_cell_angle_beta   89.46280934
_cell_angle_gamma   89.12560333
_symmetry_Int_Tables_number   1
_chemical_formula_structural   Mn6O11F
_chemical_formula_sum   'Mn6 O11 F1'
_cell_volume   180.79125941
_cell_formula_units_Z   1
loop_
 _symmetry_equiv_pos_site_id
 _symmetry_equiv_pos_as_xyz
  1  'x, y, z'
loop_
 _atom_site_type_symbol
 _atom_site_label
 _atom_site_symmetry_multiplicity
 _atom_site_fract_x
 _atom_site_fract_y
 _atom_site_fract_z
 _atom_site_occupancy
  Mn  Mn0  1  0.49638900  0.49729100  0.99873900  1
  Mn  Mn1  1  0.51699900  0.84441800  0.67276900  1
  Mn  Mn2  1  0.49912600  0.16559700  0.33370200  1
  Mn  Mn3  1  0.99248300  0.32463500  0.66780500  1
  Mn  Mn4  1  0.98734600  0.66385500  0.32265600  1
  Mn  Mn5  1  0.00642600  0.00282500  0.00419000  1
  O  O0  1  0.80417500  0.37067200  0.43408200  1
  O  O1  1  0.80823200  0.03558900  0.77220400  1
  O  O2  1  0.80316500  0.70446500  0.09883400  1
  O  O3  1  0.69320600  0.20274200  0.10202000  1
  O  O4  1  0.69513300  0.53716200  0.76756100  1
  O  O5  1  0.69625400  0.86990600  0.43602600  1
  O  O6  1  0.30627700  0.13009800  0.56656900  1
  O  O7  1  0.30658900  0.46584800  0.23228900  1
  O  O8  1  0.30205600  0.79399200  0.89619500  1
  O  O9  1  0.19345700  0.96166700  0.23230400  1
  O  O10  1  0.19457800  0.29468900  0.89831000  1
  F  F0  1  0.19810800  0.63454800  0.56374400  1
loop_
_geom_bond_atom_site_label_1
_geom_bond_atom_site_label_2
_geom_bond_distance
_geom_bond_site_symmetry_2
Mn0 O3 1.927003 1_556
Mn0 O8 1.929311 1_555
Mn0 O7 1.929462 1_556
Mn0 O4 1.933944 1_555
Mn0 O10 1.944354 1_555
Mn0 O2 1.974065 1_556
Mn1 O1 1.870487 1_565
Mn1 O8 1.923127 1_555
Mn1 O4 1.925594 1_555
Mn1 O6 1.926772 1_565
Mn1 O5 1.929864 1_555
Mn2 O3 1.926946 1_555
Mn2 O5 1.930058 1_545
Mn2 O6 1.931860 1_555
Mn2 O7 1.938198 1_555
Mn2 O0 1.962600 1_555
Mn2 O9 1.964129 1_545
Mn3 O1 1.895880 1_555
Mn3 O6 1.926834 1_655
Mn3 O4 1.927004 1_555
Mn3 O0 1.942969 1_555
Mn3 O10 1.946876 1_655
Mn4 O2 1.867370 1_555
Mn4 O7 1.922885 1_655
Mn4 O0 1.930489 1_555
Mn4 O5 1.931933 1_555
Mn4 O9 1.946786 1_655
Mn5 O9 1.901731 1_545
Mn5 O10 1.919830 1_554
Mn5 O3 1.930916 1_455
Mn5 O8 1.936267 1_544
Mn5 O1 1.948659 1_454
Mn5 O2 1.952365 1_445
F0 Mn3 2.029607 1_455
F0 Mn4 2.034800 1_455
F0 Mn1 2.050336 1_555
