# generated using pymatgen
data_Li9Mn15O32
_symmetry_space_group_name_H-M   'P 1'
_cell_length_a   8.36423400
_cell_length_b   8.40519250
_cell_length_c   10.23122175
_cell_angle_alpha   114.20369594
_cell_angle_beta   113.96812891
_cell_angle_gamma   89.83583289
_symmetry_Int_Tables_number   1
_chemical_formula_structural   Li9Mn15O32
_chemical_formula_sum   'Li9 Mn15 O32'
_cell_volume   587.81057573
_cell_formula_units_Z   1
loop_
 _symmetry_equiv_pos_site_id
 _symmetry_equiv_pos_as_xyz
  1  'x, y, z'
loop_
 _atom_site_type_symbol
 _atom_site_label
 _atom_site_symmetry_multiplicity
 _atom_site_fract_x
 _atom_site_fract_y
 _atom_site_fract_z
 _atom_site_occupancy
  Li  Li0  1  0.50076400  0.00154500  0.00138300  1
  Li  Li1  1  0.31777300  0.56552500  0.87987400  1
  Li  Li2  1  0.81267500  0.06163600  0.88162100  1
  Li  Li3  1  0.43759300  0.69374500  0.62607600  1
  Li  Li4  1  0.93183600  0.19245400  0.62219700  1
  Li  Li5  1  0.07082600  0.80726900  0.37911300  1
  Li  Li6  1  0.56548300  0.30770100  0.37294800  1
  Li  Li7  1  0.68109800  0.43210300  0.12100600  1
  Li  Li8  1  0.19013400  0.94137900  0.12208200  1
  Mn  Mn0  1  0.75412300  0.75864800  0.00670500  1
  Mn  Mn1  1  0.25177500  0.24536400  0.99489600  1
  Mn  Mn2  1  0.00235600  0.49931900  0.99980600  1
  Mn  Mn3  1  0.86835300  0.63401900  0.75159300  1
  Mn  Mn4  1  0.62188200  0.37981400  0.74895000  1
  Mn  Mn5  1  0.12501200  0.87907100  0.74982700  1
  Mn  Mn6  1  0.37147800  0.11849300  0.74778300  1
  Mn  Mn7  1  0.50004800  0.99915800  0.50051000  1
  Mn  Mn8  1  0.25082800  0.24850000  0.49920600  1
  Mn  Mn9  1  0.74914500  0.75283100  0.50256500  1
  Mn  Mn10  1  0.99687600  0.49770900  0.49999100  1
  Mn  Mn11  1  0.38110500  0.61631100  0.25036200  1
  Mn  Mn12  1  0.87390500  0.12343100  0.25366800  1
  Mn  Mn13  1  0.62866300  0.87803300  0.25122500  1
  Mn  Mn14  1  0.13474400  0.37149600  0.25271300  1
  O  O0  1  0.75917500  0.51182300  0.98678200  1
  O  O1  1  0.98125200  0.73143800  0.98533400  1
  O  O2  1  0.46765500  0.23495900  0.97109700  1
  O  O3  1  0.23677600  0.00805100  0.97409900  1
  O  O4  1  0.65267500  0.65326600  0.77756900  1
  O  O5  1  0.34611000  0.89115400  0.74248600  1
  O  O6  1  0.84887100  0.40155700  0.74054500  1
  O  O7  1  0.13913500  0.11530000  0.75578100  1
  O  O8  1  0.88105100  0.85970500  0.73615000  1
  O  O9  1  0.09899900  0.63673500  0.73673100  1
  O  O10  1  0.37764900  0.34949100  0.73304700  1
  O  O11  1  0.59380100  0.11008900  0.73139400  1
  O  O12  1  0.27033800  0.01910000  0.50859800  1
  O  O13  1  0.75057700  0.53532600  0.52114700  1
  O  O14  1  0.48965800  0.23842700  0.51160200  1
  O  O15  1  0.98416400  0.74422400  0.51110100  1
  O  O16  1  0.51366900  0.76468000  0.49255000  1
  O  O17  1  0.73039700  0.97988000  0.49103200  1
  O  O18  1  0.01571800  0.25357100  0.49113200  1
  O  O19  1  0.24873300  0.46982500  0.48906400  1
  O  O20  1  0.87955100  0.36039700  0.26949300  1
  O  O21  1  0.40631000  0.88292600  0.26822700  1
  O  O22  1  0.62470100  0.64909100  0.26879700  1
  O  O23  1  0.11825000  0.14239100  0.26731700  1
  O  O24  1  0.15717900  0.60534100  0.25914000  1
  O  O25  1  0.86117200  0.88110200  0.24241700  1
  O  O26  1  0.65142500  0.10445300  0.25828800  1
  O  O27  1  0.37243000  0.35590800  0.21808300  1
  O  O28  1  0.53567600  0.76238300  0.02547700  1
  O  O29  1  0.76529200  0.99470200  0.02871900  1
  O  O30  1  0.02333900  0.27045700  0.01346900  1
  O  O31  1  0.23853600  0.48543200  0.00497500  1
loop_
_geom_bond_atom_site_label_1
_geom_bond_atom_site_label_2
_geom_bond_distance
_geom_bond_site_symmetry_2
Li0 O2 2.108875 1_554
Li0 O3 2.113641 1_554
Li0 O29 2.118187 1_545
Li0 O28 2.128715 1_545
Li0 O26 2.167002 1_555
Li0 O5 2.181360 1_544
Li1 O31 1.982158 1_556
Li1 O28 2.017197 1_556
Li1 O10 2.043042 1_555
Li1 O9 2.094446 1_555
Li2 O29 1.979577 1_546
Li2 O8 2.009392 1_545
Li2 O11 2.025497 1_555
Li2 O30 2.037233 1_656
Li3 O5 1.967209 1_555
Li3 O4 1.979390 1_555
Li3 O16 2.000755 1_555
Li3 O19 2.014272 1_555
Li4 O18 1.971187 1_655
Li4 O6 1.991828 1_555
Li4 O17 2.011537 1_545
Li4 O7 2.022340 1_655
Li5 O24 1.978393 1_555
Li5 O12 1.999183 1_565
Li5 O15 2.003504 1_455
Li5 O25 2.032011 1_455
Li6 O27 1.930306 1_555
Li6 O26 1.961164 1_555
Li6 O13 2.021742 1_555
Li6 O14 2.040602 1_555
Li7 O2 1.998444 1_554
Li7 O20 2.030460 1_555
Li7 O22 2.036800 1_555
Li7 O0 2.060825 1_554
Li8 O3 1.983790 1_564
Li8 O23 2.021274 1_565
Li8 O1 2.032507 1_454
Li8 O21 2.036475 1_555
Mn0 O29 1.900940 1_555
Mn0 O28 1.912108 1_555
Mn0 O4 1.919887 1_554
Mn0 O25 1.972974 1_555
Mn0 O1 2.000798 1_554
Mn0 O0 2.001773 1_554
Mn1 O27 1.868002 1_556
Mn1 O2 1.914740 1_555
Mn1 O3 1.916096 1_555
Mn1 O31 1.982893 1_556
Mn1 O30 1.997786 1_556
Mn1 O7 2.002026 1_555
Mn2 O31 1.959016 1_556
Mn2 O30 1.987289 1_556
Mn2 O0 1.988996 1_455
Mn2 O1 2.018208 1_455
Mn2 O24 2.188008 1_556
Mn2 O6 2.193519 1_455
Mn3 O6 1.913837 1_555
Mn3 O4 1.924512 1_555
Mn3 O13 1.931698 1_555
Mn3 O1 1.960943 1_555
Mn3 O8 1.973613 1_555
Mn3 O9 1.996696 1_655
Mn4 O6 1.947551 1_555
Mn4 O10 1.990851 1_555
Mn4 O14 1.997900 1_555
Mn4 O0 1.998518 1_555
Mn4 O4 2.196607 1_555
Mn4 O11 2.204995 1_555
Mn5 O3 1.880855 1_565
Mn5 O5 1.885763 1_555
Mn5 O7 1.963771 1_565
Mn5 O8 1.990263 1_455
Mn5 O9 1.992297 1_555
Mn5 O15 2.009494 1_455
Mn6 O2 1.871606 1_555
Mn6 O5 1.899287 1_545
Mn6 O11 1.932341 1_555
Mn6 O7 1.978739 1_555
Mn6 O10 2.010488 1_555
Mn6 O12 2.011943 1_555
Mn7 O11 1.938454 1_565
Mn7 O16 1.943820 1_555
Mn7 O21 1.950350 1_555
Mn7 O12 1.960224 1_565
Mn7 O14 1.970998 1_565
Mn7 O17 1.971022 1_555
Mn8 O19 1.904817 1_555
Mn8 O18 1.935522 1_555
Mn8 O23 1.946039 1_555
Mn8 O14 1.953401 1_555
Mn8 O10 1.961570 1_555
Mn8 O12 1.972564 1_555
Mn9 O13 1.913508 1_555
Mn9 O15 1.934408 1_555
Mn9 O16 1.934665 1_555
Mn9 O22 1.958746 1_555
Mn9 O8 1.959281 1_555
Mn9 O17 1.961724 1_555
Mn10 O20 1.936754 1_555
Mn10 O9 1.991448 1_655
Mn10 O18 2.025120 1_655
Mn10 O15 2.032947 1_555
Mn10 O19 2.161523 1_655
Mn10 O13 2.166398 1_555
Mn11 O24 1.915470 1_555
Mn11 O22 1.977688 1_555
Mn11 O16 2.041192 1_555
Mn11 O31 2.060546 1_555
Mn11 O27 2.072111 1_555
Mn11 O21 2.176064 1_555
Mn12 O29 1.886259 1_545
Mn12 O26 1.889413 1_555
Mn12 O20 1.930128 1_555
Mn12 O25 1.993055 1_545
Mn12 O23 1.993386 1_655
Mn12 O18 1.998287 1_655
Mn13 O26 1.881862 1_565
Mn13 O28 1.894291 1_555
Mn13 O21 1.935818 1_555
Mn13 O25 1.983799 1_555
Mn13 O22 2.006299 1_555
Mn13 O17 2.015542 1_555
Mn14 O24 1.946507 1_555
Mn14 O19 1.982979 1_555
Mn14 O23 2.000941 1_555
Mn14 O30 2.006976 1_555
Mn14 O27 2.151235 1_555
Mn14 O20 2.215003 1_455
