# generated using pymatgen
data_Ba2P6O17
_symmetry_space_group_name_H-M   'P 1'
_cell_length_a   13.71854300
_cell_length_b   7.47999500
_cell_length_c   7.52322408
_cell_angle_alpha   74.91922106
_cell_angle_beta   90.00000000
_cell_angle_gamma   90.00000000
_symmetry_Int_Tables_number   1
_chemical_formula_structural   Ba2P6O17
_chemical_formula_sum   'Ba4 P12 O34'
_cell_volume   745.40541867
_cell_formula_units_Z   2
loop_
 _symmetry_equiv_pos_site_id
 _symmetry_equiv_pos_as_xyz
  1  'x, y, z'
loop_
 _atom_site_type_symbol
 _atom_site_label
 _atom_site_symmetry_multiplicity
 _atom_site_fract_x
 _atom_site_fract_y
 _atom_site_fract_z
 _atom_site_occupancy
  Ba  Ba0  1  0.28178200  0.87996400  0.79779600  1
  Ba  Ba1  1  0.99343200  0.16882800  0.78333400  1
  Ba  Ba2  1  0.49343200  0.83117200  0.21666600  1
  Ba  Ba3  1  0.78178200  0.12003600  0.20220400  1
  P  P0  1  0.06143700  0.60389600  0.99511800  1
  P  P1  1  0.77161200  0.94066500  0.74874900  1
  P  P2  1  0.73997500  0.52571900  0.75770200  1
  P  P3  1  0.25115900  0.38572000  0.66333400  1
  P  P4  1  0.46439300  0.38367600  0.66128300  1
  P  P5  1  0.55390800  0.00648600  0.68073100  1
  P  P6  1  0.05390800  0.99351400  0.31926900  1
  P  P7  1  0.96439300  0.61632400  0.33871700  1
  P  P8  1  0.75115900  0.61428000  0.33666600  1
  P  P9  1  0.23997500  0.47428100  0.24229800  1
  P  P10  1  0.27161200  0.05933500  0.25125100  1
  P  P11  1  0.56143700  0.39610400  0.00488200  1
  O  O0  1  0.82733500  0.95701100  0.91501900  1
  O  O1  1  0.09957900  0.79776800  0.93132700  1
  O  O2  1  0.47908400  0.92170500  0.82337200  1
  O  O3  1  0.65777900  0.96884000  0.78831200  1
  O  O4  1  0.63626200  0.52585200  0.84824900  1
  O  O5  1  0.46822800  0.39119600  0.86980500  1
  O  O6  1  0.03210300  0.49487100  0.86579300  1
  O  O7  1  0.80501600  0.37201600  0.85278800  1
  O  O8  1  0.78169500  0.72343800  0.74389800  1
  O  O9  1  0.26098700  0.53651500  0.75662900  1
  O  O10  1  0.18862800  0.21930600  0.73674900  1
  O  O11  1  0.56051300  0.96596900  0.49813600  1
  O  O12  1  0.36018600  0.29318200  0.64421800  1
  O  O13  1  0.54248200  0.23557000  0.63939100  1
  O  O14  1  0.30350800  0.94449600  0.43554200  1
  O  O15  1  0.72002000  0.52196500  0.55110000  1
  O  O16  1  0.47728800  0.56563900  0.52996600  1
  O  O17  1  0.97728800  0.43436100  0.47003400  1
  O  O18  1  0.22002000  0.47803500  0.44890000  1
  O  O19  1  0.80350800  0.05550400  0.56445800  1
  O  O20  1  0.04248200  0.76443000  0.36060900  1
  O  O21  1  0.86018600  0.70681800  0.35578200  1
  O  O22  1  0.06051300  0.03403100  0.50186400  1
  O  O23  1  0.68862800  0.78069400  0.26325100  1
  O  O24  1  0.76098700  0.46348500  0.24337100  1
  O  O25  1  0.28169500  0.27656200  0.25610200  1
  O  O26  1  0.30501600  0.62798400  0.14721200  1
  O  O27  1  0.53210300  0.50512900  0.13420700  1
  O  O28  1  0.96822800  0.60880400  0.13019500  1
  O  O29  1  0.13626200  0.47414800  0.15175100  1
  O  O30  1  0.15777900  0.03116000  0.21168800  1
  O  O31  1  0.97908400  0.07829500  0.17662800  1
  O  O32  1  0.59957900  0.20223200  0.06867300  1
  O  O33  1  0.32733500  0.04298900  0.08498100  1
loop_
_geom_bond_atom_site_label_1
_geom_bond_atom_site_label_2
_geom_bond_distance
_geom_bond_site_symmetry_2
Ba0 O14 2.657941 1_555
Ba0 O9 2.681617 1_555
Ba0 O1 2.704367 1_555
Ba0 O2 2.737146 1_555
Ba0 O10 2.771333 1_565
Ba0 O33 2.813627 1_566
Ba0 O26 2.825974 1_556
Ba0 O12 3.191708 1_565
Ba1 O17 2.667112 1_555
Ba1 O10 2.714253 1_655
Ba1 O6 2.720533 1_655
Ba1 O22 2.731041 1_655
Ba1 O0 2.804825 1_545
Ba1 O31 2.865207 1_556
Ba1 O1 3.074997 1_645
Ba1 O7 3.110844 1_555
Ba1 O19 3.308300 1_555
Ba2 O16 2.667112 1_555
Ba2 O23 2.714253 1_555
Ba2 O27 2.720533 1_555
Ba2 O11 2.731041 1_555
Ba2 O33 2.804825 1_565
Ba2 O2 2.865207 1_554
Ba2 O32 3.074997 1_565
Ba2 O26 3.110844 1_555
Ba2 O14 3.308300 1_555
Ba3 O19 2.657941 1_555
Ba3 O24 2.681617 1_555
Ba3 O32 2.704367 1_555
Ba3 O31 2.737146 1_555
Ba3 O23 2.771333 1_545
Ba3 O0 2.813627 1_544
Ba3 O7 2.825974 1_554
Ba3 O21 3.191708 1_545
O0 P1 1.497871 1_555
O1 P0 1.498310 1_555
O2 P5 1.501093 1_565
O3 P1 1.613788 1_555
O3 P5 1.626734 1_565
O4 P2 1.577571 1_555
O4 P11 1.670050 1_556
O5 P4 1.585197 1_555
O5 P11 1.639666 1_556
O6 P0 1.478676 1_555
O7 P2 1.483816 1_555
O8 P2 1.563870 1_555
O8 P1 1.640574 1_555
O9 P3 1.481565 1_555
O10 P3 1.494204 1_555
O11 P5 1.484506 1_565
O12 P4 1.601110 1_555
O12 P3 1.669938 1_555
O13 P4 1.580182 1_555
O13 P5 1.667401 1_555
O14 P10 1.493949 1_565
O15 P2 1.585664 1_555
O15 P8 1.637730 1_555
O16 P4 1.469740 1_555
O17 P7 1.469740 1_555
O18 P9 1.585664 1_555
O18 P3 1.637730 1_555
O19 P1 1.493949 1_545
O20 P7 1.580182 1_455
O20 P6 1.667401 1_555
O21 P7 1.601110 1_555
O21 P8 1.669938 1_555
O22 P6 1.484506 1_545
O23 P8 1.494204 1_555
O24 P8 1.481565 1_555
O25 P9 1.563870 1_555
O25 P10 1.640574 1_555
O26 P9 1.483816 1_555
O27 P11 1.478676 1_555
O28 P7 1.585197 1_555
O28 P0 1.639666 1_654
O29 P9 1.577571 1_555
O29 P0 1.670050 1_554
O30 P10 1.613788 1_555
O30 P6 1.626734 1_545
O31 P6 1.501093 1_645
O32 P11 1.498310 1_555
O33 P10 1.497871 1_555
