# generated using pymatgen
data_Li3Mn(BO3)2
_symmetry_space_group_name_H-M   'P 1'
_cell_length_a   8.05764700
_cell_length_b   5.88133400
_cell_length_c   11.08034608
_cell_angle_alpha   62.87290649
_cell_angle_beta   90.00000000
_cell_angle_gamma   90.00000000
_symmetry_Int_Tables_number   1
_chemical_formula_structural   Li3Mn(BO3)2
_chemical_formula_sum   'Li12 Mn4 B8 O24'
_cell_volume   467.33261475
_cell_formula_units_Z   4
loop_
 _symmetry_equiv_pos_site_id
 _symmetry_equiv_pos_as_xyz
  1  'x, y, z'
loop_
 _atom_site_type_symbol
 _atom_site_label
 _atom_site_symmetry_multiplicity
 _atom_site_fract_x
 _atom_site_fract_y
 _atom_site_fract_z
 _atom_site_occupancy
  Li  Li0  1  0.72462300  0.61645500  0.89910600  1
  Li  Li1  1  0.78198600  0.05551000  0.41058600  1
  Li  Li2  1  0.56137300  0.73600600  0.63039500  1
  Li  Li3  1  0.06137300  0.26399400  0.86960500  1
  Li  Li4  1  0.22462300  0.38354500  0.60089400  1
  Li  Li5  1  0.71801400  0.05551000  0.91058600  1
  Li  Li6  1  0.28198600  0.94449000  0.08941400  1
  Li  Li7  1  0.77537700  0.61645500  0.39910600  1
  Li  Li8  1  0.93862700  0.73600600  0.13039500  1
  Li  Li9  1  0.43862700  0.26399400  0.36960500  1
  Li  Li10  1  0.21801400  0.94449000  0.58941400  1
  Li  Li11  1  0.27537700  0.38354500  0.10089400  1
  Mn  Mn0  1  0.61096200  0.08754600  0.15309500  1
  Mn  Mn1  1  0.11096200  0.91245400  0.34690500  1
  Mn  Mn2  1  0.88903800  0.08754600  0.65309500  1
  Mn  Mn3  1  0.38903800  0.91245400  0.84690500  1
  B  B0  1  0.88726400  0.61517700  0.63873400  1
  B  B1  1  0.93965700  0.18828900  0.10795300  1
  B  B2  1  0.38726400  0.38482300  0.86126600  1
  B  B3  1  0.43965700  0.81171100  0.39204700  1
  B  B4  1  0.56034300  0.18828900  0.60795300  1
  B  B5  1  0.61273600  0.61517700  0.13873400  1
  B  B6  1  0.06034300  0.81171100  0.89204700  1
  B  B7  1  0.11273600  0.38482300  0.36126600  1
  O  O0  1  0.79259100  0.74113300  0.69692300  1
  O  O1  1  0.41588400  0.64401300  0.78288100  1
  O  O2  1  0.94196500  0.75050300  0.50872600  1
  O  O3  1  0.79524300  0.25445700  0.02773800  1
  O  O4  1  0.91443200  0.09666500  0.24671400  1
  O  O5  1  0.44196500  0.24949700  0.99127400  1
  O  O6  1  0.09141300  0.18731900  0.05625100  1
  O  O7  1  0.59141300  0.81268100  0.44374900  1
  O  O8  1  0.41443200  0.90333500  0.25328600  1
  O  O9  1  0.29524300  0.74554300  0.47226200  1
  O  O10  1  0.91588400  0.35598700  0.71711900  1
  O  O11  1  0.29259100  0.25886700  0.80307700  1
  O  O12  1  0.70740900  0.74113300  0.19692300  1
  O  O13  1  0.08411600  0.64401300  0.28288100  1
  O  O14  1  0.70475700  0.25445700  0.52773800  1
  O  O15  1  0.58556800  0.09666500  0.74671400  1
  O  O16  1  0.40858700  0.18731900  0.55625100  1
  O  O17  1  0.90858700  0.81268100  0.94374900  1
  O  O18  1  0.55803500  0.75050300  0.00872600  1
  O  O19  1  0.08556800  0.90333500  0.75328600  1
  O  O20  1  0.20475700  0.74554300  0.97226200  1
  O  O21  1  0.05803500  0.24949700  0.49127400  1
  O  O22  1  0.58411600  0.35598700  0.21711900  1
  O  O23  1  0.20740900  0.25886700  0.30307700  1
loop_
_geom_bond_atom_site_label_1
_geom_bond_atom_site_label_2
_geom_bond_distance
_geom_bond_site_symmetry_2
Li0 O3 2.029969 1_556
Li0 O17 2.072300 1_555
Li0 O0 2.087661 1_555
Li0 O18 2.184470 1_556
Li1 O7 2.013471 1_545
Li1 O4 2.023288 1_555
Li1 O2 2.069580 1_545
Li1 O14 2.196913 1_555
Li2 O1 1.920447 1_555
Li2 O7 1.920550 1_555
Li2 O0 2.008884 1_555
Li3 O10 1.920447 1_455
Li3 O6 1.920550 1_556
Li3 O11 2.008884 1_555
Li4 O9 2.029969 1_555
Li4 O16 2.072300 1_555
Li4 O11 2.087661 1_555
Li4 O21 2.184470 1_555
Li5 O17 2.013471 1_545
Li5 O15 2.023288 1_555
Li5 O18 2.069580 1_546
Li5 O3 2.196913 1_556
Li6 O6 2.013471 1_565
Li6 O8 2.023288 1_555
Li6 O5 2.069580 1_564
Li6 O20 2.196913 1_554
Li7 O14 2.029969 1_555
Li7 O7 2.072300 1_555
Li7 O12 2.087661 1_555
Li7 O2 2.184470 1_555
Li8 O13 1.920447 1_655
Li8 O17 1.920550 1_554
Li8 O12 2.008884 1_555
Li9 O22 1.920447 1_555
Li9 O16 1.920550 1_555
Li9 O23 2.008884 1_555
Li10 O16 2.013471 1_565
Li10 O19 2.023288 1_555
Li10 O21 2.069580 1_565
Li10 O9 2.196913 1_555
Li11 O20 2.029969 1_554
Li11 O6 2.072300 1_555
Li11 O23 2.087661 1_555
Li11 O5 2.184470 1_554
Mn0 O8 1.953734 1_545
Mn0 O3 1.963256 1_555
Mn0 O22 2.015937 1_555
Mn0 O12 2.021975 1_545
Mn0 O5 2.102151 1_554
Mn1 O4 1.953734 1_465
Mn1 O9 1.963256 1_555
Mn1 O13 2.015937 1_555
Mn1 O23 2.021975 1_565
Mn1 O2 2.102151 1_455
Mn2 O19 1.953734 1_645
Mn2 O14 1.963256 1_555
Mn2 O10 2.015937 1_555
Mn2 O0 2.021975 1_545
Mn2 O21 2.102151 1_655
Mn3 O15 1.953734 1_565
Mn3 O20 1.963256 1_555
Mn3 O1 2.015937 1_555
Mn3 O11 2.021975 1_565
Mn3 O18 2.102151 1_556
B0 O2 1.362834 1_555
B0 O10 1.387046 1_555
B0 O0 1.407824 1_555
B1 O6 1.351455 1_655
B1 O4 1.392876 1_555
B1 O3 1.407143 1_555
B2 O5 1.362834 1_555
B2 O1 1.387046 1_555
B2 O11 1.407824 1_555
B3 O7 1.351455 1_555
B3 O8 1.392876 1_555
B3 O9 1.407143 1_555
B4 O16 1.351455 1_555
B4 O15 1.392876 1_555
B4 O14 1.407143 1_555
B5 O18 1.362834 1_555
B5 O22 1.387046 1_555
B5 O12 1.407824 1_555
B6 O17 1.351455 1_455
B6 O19 1.392876 1_555
B6 O20 1.407143 1_555
B7 O21 1.362834 1_555
B7 O13 1.387046 1_555
B7 O23 1.407824 1_555
