# generated using pymatgen
data_Yb2(WO4)3
_symmetry_space_group_name_H-M   'P 1'
_cell_length_a   10.29581800
_cell_length_b   10.37662900
_cell_length_c   14.15484600
_cell_angle_alpha   90.00000000
_cell_angle_beta   90.00000000
_cell_angle_gamma   90.00000000
_symmetry_Int_Tables_number   1
_chemical_formula_structural   Yb2(WO4)3
_chemical_formula_sum   'Yb8 W12 O48'
_cell_volume   1512.24548016
_cell_formula_units_Z   4
loop_
 _symmetry_equiv_pos_site_id
 _symmetry_equiv_pos_as_xyz
  1  'x, y, z'
loop_
 _atom_site_type_symbol
 _atom_site_label
 _atom_site_symmetry_multiplicity
 _atom_site_fract_x
 _atom_site_fract_y
 _atom_site_fract_z
 _atom_site_occupancy
  Yb  Yb0  1  0.24866200  0.03920600  0.62123900  1
  Yb  Yb1  1  0.74866200  0.03920600  0.87876100  1
  Yb  Yb2  1  0.74866200  0.46079400  0.12123900  1
  Yb  Yb3  1  0.24866200  0.46079400  0.37876100  1
  Yb  Yb4  1  0.25133800  0.53920600  0.87876100  1
  Yb  Yb5  1  0.75133800  0.53920600  0.62123900  1
  Yb  Yb6  1  0.25133800  0.96079400  0.12123900  1
  Yb  Yb7  1  0.75133800  0.96079400  0.37876100  1
  W  W0  1  0.39889700  0.11390600  0.35562100  1
  W  W1  1  0.89889700  0.11390600  0.14437900  1
  W  W2  1  0.46777100  0.25000000  0.00000000  1
  W  W3  1  0.96777100  0.25000000  0.50000000  1
  W  W4  1  0.39889700  0.38609400  0.64437900  1
  W  W5  1  0.89889700  0.38609400  0.85562100  1
  W  W6  1  0.10110300  0.61390600  0.14437900  1
  W  W7  1  0.60110300  0.61390600  0.35562100  1
  W  W8  1  0.53222900  0.75000000  0.00000000  1
  W  W9  1  0.03222900  0.75000000  0.50000000  1
  W  W10  1  0.10110300  0.88609400  0.85562100  1
  W  W11  1  0.60110300  0.88609400  0.64437900  1
  O  O0  1  0.17305400  0.99356200  0.76960500  1
  O  O1  1  0.67305400  0.99356200  0.73039500  1
  O  O2  1  0.83578000  0.07718000  0.02747500  1
  O  O3  1  0.33578000  0.07718000  0.47252500  1
  O  O4  1  0.07350000  0.09299900  0.14503200  1
  O  O5  1  0.57350000  0.09299900  0.35496800  1
  O  O6  1  0.36702200  0.13264500  0.06083000  1
  O  O7  1  0.86702200  0.13264500  0.43917000  1
  O  O8  1  0.57044700  0.16674100  0.91618100  1
  O  O9  1  0.07044700  0.16674100  0.58381900  1
  O  O10  1  0.85716800  0.22108500  0.82683800  1
  O  O11  1  0.35716800  0.22108500  0.67316200  1
  O  O12  1  0.85716800  0.27891500  0.17316200  1
  O  O13  1  0.35716800  0.27891500  0.32683800  1
  O  O14  1  0.57044700  0.33325900  0.08381900  1
  O  O15  1  0.07044700  0.33325900  0.41618100  1
  O  O16  1  0.86702200  0.36735500  0.56083000  1
  O  O17  1  0.36702200  0.36735500  0.93917000  1
  O  O18  1  0.57350000  0.40700100  0.64503200  1
  O  O19  1  0.07350000  0.40700100  0.85496800  1
  O  O20  1  0.33578000  0.42282000  0.52747500  1
  O  O21  1  0.83578000  0.42282000  0.97252500  1
  O  O22  1  0.67305400  0.50643800  0.26960500  1
  O  O23  1  0.17305400  0.50643800  0.23039500  1
  O  O24  1  0.32694600  0.49356200  0.73039500  1
  O  O25  1  0.82694600  0.49356200  0.76960500  1
  O  O26  1  0.16422000  0.57718000  0.02747500  1
  O  O27  1  0.66422000  0.57718000  0.47252500  1
  O  O28  1  0.42650000  0.59299900  0.35496800  1
  O  O29  1  0.92650000  0.59299900  0.14503200  1
  O  O30  1  0.63297800  0.63264500  0.06083000  1
  O  O31  1  0.13297800  0.63264500  0.43917000  1
  O  O32  1  0.42955300  0.66674100  0.91618100  1
  O  O33  1  0.92955300  0.66674100  0.58381900  1
  O  O34  1  0.64283200  0.72108500  0.67316200  1
  O  O35  1  0.14283200  0.72108500  0.82683800  1
  O  O36  1  0.14283200  0.77891500  0.17316200  1
  O  O37  1  0.64283200  0.77891500  0.32683800  1
  O  O38  1  0.92955300  0.83325900  0.41618100  1
  O  O39  1  0.42955300  0.83325900  0.08381900  1
  O  O40  1  0.63297800  0.86735500  0.93917000  1
  O  O41  1  0.13297800  0.86735500  0.56083000  1
  O  O42  1  0.92650000  0.90700100  0.85496800  1
  O  O43  1  0.42650000  0.90700100  0.64503200  1
  O  O44  1  0.16422000  0.92282000  0.97252500  1
  O  O45  1  0.66422000  0.92282000  0.52747500  1
  O  O46  1  0.82694600  0.00643800  0.23039500  1
  O  O47  1  0.32694600  0.00643800  0.26960500  1
loop_
_geom_bond_atom_site_label_1
_geom_bond_atom_site_label_2
_geom_bond_distance
_geom_bond_site_symmetry_2
O0 W10 1.809630 1_555
O0 Yb0 2.289261 1_565
O1 W11 1.809630 1_555
O1 Yb1 2.289261 1_565
O2 W1 1.818172 1_555
O2 Yb1 2.321835 1_554
O3 W0 1.818172 1_555
O3 Yb0 2.321835 1_555
O4 W1 1.810747 1_455
O4 Yb6 2.312551 1_545
O5 W0 1.810747 1_555
O5 Yb7 2.312551 1_545
O6 W2 1.816667 1_555
O6 Yb6 2.308617 1_545
O7 W3 1.816667 1_555
O7 Yb7 2.308617 1_545
O8 W2 1.808753 1_556
O8 Yb1 2.323498 1_555
O9 W3 1.808753 1_455
O9 Yb0 2.323498 1_555
O10 W5 1.811721 1_555
O10 Yb1 2.313024 1_555
O11 W4 1.811721 1_555
O11 Yb0 2.313024 1_555
O12 W1 1.811721 1_555
O12 Yb2 2.313024 1_555
O13 W0 1.811721 1_555
O13 Yb3 2.313024 1_555
O14 W2 1.808753 1_555
O14 Yb2 2.323498 1_555
O15 W3 1.808753 1_455
O15 Yb3 2.323498 1_555
O16 W3 1.816667 1_555
O16 Yb5 2.308617 1_555
O17 W2 1.816667 1_556
O17 Yb4 2.308617 1_555
O18 W4 1.810747 1_555
O18 Yb5 2.312551 1_555
O19 W5 1.810747 1_455
O19 Yb4 2.312551 1_555
O20 W4 1.818172 1_555
O20 Yb3 2.321835 1_555
O21 W5 1.818172 1_555
O21 Yb2 2.321835 1_556
O22 W7 1.809630 1_555
O22 Yb2 2.289261 1_555
O23 W6 1.809630 1_555
O23 Yb3 2.289261 1_555
O24 W4 1.809630 1_555
O24 Yb4 2.289261 1_555
O25 W5 1.809630 1_555
O25 Yb5 2.289261 1_555
O26 W6 1.818172 1_555
O26 Yb4 2.321835 1_554
O27 W7 1.818172 1_555
O27 Yb5 2.321835 1_555
O28 W7 1.810747 1_555
O28 Yb3 2.312551 1_555
O29 W6 1.810747 1_655
O29 Yb2 2.312551 1_555
O30 W8 1.816667 1_555
O30 Yb2 2.308617 1_555
O31 W9 1.816667 1_555
O31 Yb3 2.308617 1_555
O32 W8 1.808753 1_556
O32 Yb4 2.323498 1_555
O33 W9 1.808753 1_655
O33 Yb5 2.323498 1_555
O34 W11 1.811721 1_555
O34 Yb5 2.313024 1_555
O35 W10 1.811721 1_555
O35 Yb4 2.313024 1_555
O36 W6 1.811721 1_555
O36 Yb6 2.313024 1_555
O37 W7 1.811721 1_555
O37 Yb7 2.313024 1_555
O38 W9 1.808753 1_655
O38 Yb7 2.323498 1_555
O39 W8 1.808753 1_555
O39 Yb6 2.323498 1_555
O40 W8 1.816667 1_556
O40 Yb1 2.308617 1_565
O41 W9 1.816667 1_555
O41 Yb0 2.308617 1_565
O42 W10 1.810747 1_655
O42 Yb1 2.312551 1_565
O43 W11 1.810747 1_555
O43 Yb0 2.312551 1_565
O44 W10 1.818172 1_555
O44 Yb6 2.321835 1_556
O45 W11 1.818172 1_555
O45 Yb7 2.321835 1_555
O46 W1 1.809630 1_555
O46 Yb7 2.289261 1_545
O47 W0 1.809630 1_555
O47 Yb6 2.289261 1_545
