# generated using pymatgen
data_InP2H9(NO4)2
_symmetry_space_group_name_H-M   'P 1'
_cell_length_a   10.00690900
_cell_length_b   10.00690900
_cell_length_c   6.75537996
_cell_angle_alpha   71.25334375
_cell_angle_beta   71.25334375
_cell_angle_gamma   124.39044178
_symmetry_Int_Tables_number   1
_chemical_formula_structural   InP2H9(NO4)2
_chemical_formula_sum   'In2 P4 H18 N4 O16'
_cell_volume   404.59133294
_cell_formula_units_Z   2
loop_
 _symmetry_equiv_pos_site_id
 _symmetry_equiv_pos_as_xyz
  1  'x, y, z'
loop_
 _atom_site_type_symbol
 _atom_site_label
 _atom_site_symmetry_multiplicity
 _atom_site_fract_x
 _atom_site_fract_y
 _atom_site_fract_z
 _atom_site_occupancy
  In  In0  1  0.64756900  0.89711000  0.70771200  1
  In  In1  1  0.89711000  0.64756900  0.20771200  1
  P  P0  1  0.45484300  0.11343200  0.75359200  1
  P  P1  1  0.11343200  0.45484300  0.25359200  1
  P  P2  1  0.63206300  0.79018300  0.25696500  1
  P  P3  1  0.79018300  0.63206300  0.75696500  1
  H  H0  1  0.12868300  0.74391700  0.63807800  1
  H  H1  1  0.36432700  0.90182800  0.56983700  1
  H  H2  1  0.73019600  0.29740800  0.02079700  1
  H  H3  1  0.35716900  0.93227200  0.30682300  1
  H  H4  1  0.93227200  0.35716900  0.80682300  1
  H  H5  1  0.29740800  0.73019600  0.52079700  1
  H  H6  1  0.90182800  0.36432700  0.06983700  1
  H  H7  1  0.74391700  0.12868300  0.13807800  1
  H  H8  1  0.27079400  0.52686300  0.44615700  1
  H  H9  1  0.11563800  0.23197200  0.13652900  1
  H  H10  1  0.03277300  0.06809800  0.06198500  1
  H  H11  1  0.17603100  0.24421300  0.53376100  1
  H  H12  1  0.26596900  0.33957800  0.80322000  1
  H  H13  1  0.33957800  0.26596900  0.30322000  1
  H  H14  1  0.24421300  0.17603100  0.03376100  1
  H  H15  1  0.06809800  0.03277300  0.56198500  1
  H  H16  1  0.23197200  0.11563800  0.63652900  1
  H  H17  1  0.52686300  0.27079400  0.94615700  1
  N  N0  1  0.28624300  0.82679900  0.50911000  1
  N  N1  1  0.82679900  0.28624300  0.00911000  1
  N  N2  1  0.16565700  0.20597400  0.00638900  1
  N  N3  1  0.20597400  0.16565700  0.50638900  1
  O  O0  1  0.58070000  0.33047100  0.50241000  1
  O  O1  1  0.21920900  0.97073500  0.88427600  1
  O  O2  1  0.48395700  0.13475500  0.96309300  1
  O  O3  1  0.01665400  0.52082500  0.17763600  1
  O  O4  1  0.52082500  0.01665400  0.67763600  1
  O  O5  1  0.13475500  0.48395700  0.46309300  1
  O  O6  1  0.33047100  0.58070000  0.00241000  1
  O  O7  1  0.97073500  0.21920900  0.38427600  1
  O  O8  1  0.66629500  0.91647500  0.00425000  1
  O  O9  1  0.64914000  0.90078100  0.38187900  1
  O  O10  1  0.40472700  0.55524500  0.46545400  1
  O  O11  1  0.80727400  0.81023400  0.67252200  1
  O  O12  1  0.81023400  0.80727400  0.17252200  1
  O  O13  1  0.55524500  0.40472700  0.96545400  1
  O  O14  1  0.91647500  0.66629500  0.50425000  1
  O  O15  1  0.90078100  0.64914000  0.88187900  1
loop_
_geom_bond_atom_site_label_1
_geom_bond_atom_site_label_2
_geom_bond_distance
_geom_bond_site_symmetry_2
In0 O8 2.129640 1_556
In0 O6 2.143754 1_556
In0 O9 2.184418 1_555
In0 O7 2.185790 1_565
In0 O4 2.191879 1_565
In0 O11 2.196485 1_555
In1 O14 2.129640 1_555
In1 O0 2.143754 1_555
In1 O15 2.184418 1_554
In1 O1 2.185790 1_654
In1 O3 2.191879 1_655
In1 O12 2.196485 1_555
H0 N0 1.052725 1_555
H0 O15 1.717965 1_455
H1 N0 1.041077 1_555
H2 N1 1.015797 1_555
H3 N0 1.043265 1_555
H4 N1 1.043265 1_556
H5 N0 1.015797 1_555
H6 N1 1.041077 1_555
H7 N1 1.052725 1_555
H7 O9 1.717965 1_545
H8 O5 1.121914 1_555
H8 O10 1.264924 1_555
H9 N2 1.049945 1_555
H9 O7 1.735928 1_455
H10 N2 1.042242 1_555
H11 N3 1.032393 1_555
H12 N2 1.047733 1_556
H13 N3 1.047733 1_555
H14 N2 1.032393 1_555
H15 N3 1.042242 1_555
H16 N3 1.049945 1_555
H16 O1 1.735928 1_545
H17 O2 1.121914 1_555
H17 O13 1.264924 1_555
O0 P0 1.532988 1_555
O1 P0 1.557716 1_565
O2 P0 1.588167 1_555
O3 P1 1.568800 1_555
O4 P0 1.568800 1_555
O5 P1 1.588167 1_555
O6 P1 1.532988 1_555
O7 P1 1.557716 1_655
O8 P2 1.541837 1_555
O9 P2 1.563804 1_555
O10 P2 1.567335 1_555
O11 P3 1.572456 1_555
O12 P2 1.572456 1_555
O13 P3 1.567335 1_555
O14 P3 1.541837 1_555
O15 P3 1.563804 1_555
