# generated using pymatgen
data_Li2FeBO4
_symmetry_space_group_name_H-M   'P 1'
_cell_length_a   5.03732664
_cell_length_b   10.07299094
_cell_length_c   6.17245100
_cell_angle_alpha   90.00003663
_cell_angle_beta   90.00001758
_cell_angle_gamma   92.06799145
_symmetry_Int_Tables_number   1
_chemical_formula_structural   Li2FeBO4
_chemical_formula_sum   'Li8 Fe4 B4 O16'
_cell_volume   312.99201855
_cell_formula_units_Z   4
loop_
 _symmetry_equiv_pos_site_id
 _symmetry_equiv_pos_as_xyz
  1  'x, y, z'
loop_
 _atom_site_type_symbol
 _atom_site_label
 _atom_site_symmetry_multiplicity
 _atom_site_fract_x
 _atom_site_fract_y
 _atom_site_fract_z
 _atom_site_occupancy
  Li  Li0  1  0.30464700  0.34768100  0.49999300  1
  Li  Li1  1  0.30464500  0.84768300  0.49999300  1
  Li  Li2  1  0.69535300  0.15232000  0.99999300  1
  Li  Li3  1  0.69535400  0.65231800  0.99999300  1
  Li  Li4  1  0.17429800  0.08714200  0.74998400  1
  Li  Li5  1  0.17429700  0.58714100  0.74998500  1
  Li  Li6  1  0.82570100  0.41285800  0.24998400  1
  Li  Li7  1  0.82570300  0.91286000  0.24998500  1
  Fe  Fe0  1  0.31573700  0.84226400  0.00018300  1
  Fe  Fe1  1  0.68427300  0.65773000  0.50018300  1
  Fe  Fe2  1  0.31579000  0.34222700  0.00016500  1
  Fe  Fe3  1  0.68421000  0.15776900  0.50016800  1
  B  B0  1  0.18093400  0.09047300  0.24998500  1
  B  B1  1  0.18093200  0.59047200  0.24998400  1
  B  B2  1  0.81906500  0.40952700  0.74998500  1
  B  B3  1  0.81906700  0.90952900  0.74998400  1
  O  O0  1  0.21900800  0.44319900  0.24224500  1
  O  O1  1  0.21900800  0.94320200  0.24224800  1
  O  O2  1  0.11365500  0.39049000  0.75767600  1
  O  O3  1  0.11365400  0.89049500  0.75767000  1
  O  O4  1  0.88634400  0.10951000  0.25767600  1
  O  O5  1  0.88634600  0.60950600  0.25767000  1
  O  O6  1  0.78099100  0.05680200  0.74224500  1
  O  O7  1  0.78099100  0.55679900  0.74224800  1
  O  O8  1  0.29384200  0.15359000  0.04944500  1
  O  O9  1  0.29384200  0.65358400  0.04944300  1
  O  O10  1  0.69269200  0.35314200  0.95050000  1
  O  O11  1  0.69270000  0.85314500  0.95049900  1
  O  O12  1  0.70615700  0.34641100  0.54944500  1
  O  O13  1  0.70615700  0.84641700  0.54944300  1
  O  O14  1  0.30730700  0.14685800  0.45050000  1
  O  O15  1  0.30729900  0.64685500  0.45050000  1
loop_
_geom_bond_atom_site_label_1
_geom_bond_atom_site_label_2
_geom_bond_distance
_geom_bond_site_symmetry_2
Li0 O2 1.916065 1_555
Li0 O0 1.916474 1_555
Li0 O12 2.045937 1_555
Li0 O14 2.046347 1_555
Li1 O3 1.916039 1_555
Li1 O1 1.916461 1_555
Li1 O13 2.045943 1_555
Li1 O15 2.046396 1_555
Li2 O4 1.916065 1_556
Li2 O6 1.916472 1_555
Li2 O8 2.045942 1_556
Li2 O10 2.046338 1_555
Li3 O5 1.916042 1_556
Li3 O7 1.916460 1_555
Li3 O9 2.045944 1_556
Li3 O11 2.046387 1_555
Li4 O3 1.993881 1_545
Li4 O6 1.994292 1_455
Li4 O8 2.048938 1_556
Li4 O14 2.049095 1_555
Li5 O2 1.993920 1_555
Li5 O7 1.994289 1_455
Li5 O9 2.048907 1_556
Li5 O15 2.049084 1_555
Li6 O5 1.993891 1_555
Li6 O0 1.994293 1_655
Li6 O12 2.048936 1_555
Li6 O10 2.049094 1_554
Li7 O4 1.993910 1_565
Li7 O1 1.994284 1_655
Li7 O13 2.048910 1_555
Li7 O11 2.049093 1_554
Fe0 O1 1.881325 1_555
Fe0 O3 1.883792 1_554
Fe0 O11 1.922708 1_554
Fe0 O9 1.923970 1_555
Fe1 O7 1.881272 1_555
Fe1 O5 1.883744 1_555
Fe1 O15 1.922761 1_555
Fe1 O13 1.924038 1_555
Fe2 O0 1.881661 1_555
Fe2 O2 1.883907 1_554
Fe2 O10 1.922394 1_554
Fe2 O8 1.923568 1_555
Fe3 O6 1.881618 1_555
Fe3 O4 1.883908 1_555
Fe3 O14 1.922401 1_555
Fe3 O12 1.923614 1_555
B0 O14 1.494507 1_555
B0 O8 1.494592 1_555
B0 O1 1.503413 1_545
B0 O4 1.503881 1_455
B1 O15 1.494492 1_555
B1 O9 1.494580 1_555
B1 O0 1.503435 1_555
B1 O5 1.503855 1_455
B2 O10 1.494508 1_555
B2 O12 1.494587 1_555
B2 O7 1.503423 1_555
B2 O2 1.503881 1_655
B3 O11 1.494492 1_555
B3 O13 1.494579 1_555
B3 O6 1.503435 1_565
B3 O3 1.503860 1_655
