# generated using pymatgen
data_Na6CuP4(H13O15)2
_symmetry_space_group_name_H-M   'P 1'
_cell_length_a   7.78151200
_cell_length_b   9.20849199
_cell_length_c   13.78394614
_cell_angle_alpha   85.99720460
_cell_angle_beta   86.12217346
_cell_angle_gamma   65.71810826
_symmetry_Int_Tables_number   1
_chemical_formula_structural   Na6CuP4(H13O15)2
_chemical_formula_sum   'Na6 Cu1 P4 H26 O30'
_cell_volume   897.30413502
_cell_formula_units_Z   1
loop_
 _symmetry_equiv_pos_site_id
 _symmetry_equiv_pos_as_xyz
  1  'x, y, z'
loop_
 _atom_site_type_symbol
 _atom_site_label
 _atom_site_symmetry_multiplicity
 _atom_site_fract_x
 _atom_site_fract_y
 _atom_site_fract_z
 _atom_site_occupancy
  Na  Na0  1  0.51629600  0.37111400  0.89345200  1
  Na  Na1  1  0.48370400  0.62888600  0.10654800  1
  Na  Na2  1  0.45757700  0.13528800  0.73179100  1
  Na  Na3  1  0.54242300  0.86471200  0.26820900  1
  Na  Na4  1  0.25415300  0.47462700  0.49801000  1
  Na  Na5  1  0.74584700  0.52537300  0.50199000  1
  Cu  Cu0  1  0.00000000  0.00000000  0.00000000  1
  P  P0  1  0.04917000  0.75724400  0.84860100  1
  P  P1  1  0.95083000  0.24275600  0.15139900  1
  P  P2  1  0.93944800  0.09113000  0.76293100  1
  P  P3  1  0.06055200  0.90887000  0.23706900  1
  H  H0  1  0.29407900  0.13862500  0.00831600  1
  H  H1  1  0.70592100  0.86137500  0.99168400  1
  H  H2  1  0.76063300  0.54989100  0.90654200  1
  H  H3  1  0.23936700  0.45010900  0.09345800  1
  H  H4  1  0.11068600  0.15184900  0.86411400  1
  H  H5  1  0.88931400  0.84815100  0.13588600  1
  H  H6  1  0.17536400  0.43277200  0.81777800  1
  H  H7  1  0.82463600  0.56722800  0.18222200  1
  H  H8  1  0.31641700  0.63237000  0.69274500  1
  H  H9  1  0.68358300  0.36763000  0.30725500  1
  H  H10  1  0.62616800  0.36394400  0.64246700  1
  H  H11  1  0.37383200  0.63605600  0.35753300  1
  H  H12  1  0.05513400  0.31430300  0.59651900  1
  H  H13  1  0.94486600  0.68569700  0.40348100  1
  H  H14  1  0.74328800  0.73318000  0.77323300  1
  H  H15  1  0.25671200  0.26682000  0.22676700  1
  H  H16  1  0.67384400  0.79356000  0.74046200  1
  H  H17  1  0.32615600  0.20644000  0.25953800  1
  H  H18  1  0.43242700  0.79696700  0.71450400  1
  H  H19  1  0.56757300  0.20303300  0.28549600  1
  H  H20  1  0.72645500  0.02649600  0.30393600  1
  H  H21  1  0.27354500  0.97350400  0.69606400  1
  H  H22  1  0.73239800  0.24638500  0.56016700  1
  H  H23  1  0.26760200  0.75361500  0.43983300  1
  H  H24  1  0.38739400  0.10679500  0.98039000  1
  H  H25  1  0.61260600  0.89320500  0.01961000  1
  O  O0  1  0.01385700  0.89597800  0.76480700  1
  O  O1  1  0.98614300  0.10402200  0.23519300  1
  O  O2  1  0.96089700  0.83413900  0.94364100  1
  O  O3  1  0.03910300  0.16586100  0.05635900  1
  O  O4  1  0.00862600  0.62716600  0.81379100  1
  O  O5  1  0.99137400  0.37283400  0.18620900  1
  O  O6  1  0.28584600  0.66859400  0.86654500  1
  O  O7  1  0.71415400  0.33140600  0.13345500  1
  O  O8  1  0.00281600  0.12106600  0.86947700  1
  O  O9  1  0.99718400  0.87893400  0.13052300  1
  O  O10  1  0.72742600  0.16797700  0.76666500  1
  O  O11  1  0.27257400  0.83202300  0.23333500  1
  O  O12  1  0.05449700  0.13411700  0.68513100  1
  O  O13  1  0.94550300  0.86588300  0.31486900  1
  O  O14  1  0.54306400  0.09171400  0.55849100  1
  O  O15  1  0.45693600  0.90828600  0.44150900  1
  O  O16  1  0.34691300  0.75375900  0.92458100  1
  O  O17  1  0.65308700  0.24624100  0.07541900  1
  O  O18  1  0.28987300  0.33241000  0.82192900  1
  O  O19  1  0.71012700  0.66759000  0.17807100  1
  O  O20  1  0.63375900  0.35154100  0.57198000  1
  O  O21  1  0.36624100  0.64845900  0.42802000  1
  O  O22  1  0.06730500  0.34472500  0.52712700  1
  O  O23  1  0.93269500  0.65527500  0.47287300  1
  O  O24  1  0.45010200  0.61080700  0.69499000  1
  O  O25  1  0.54989800  0.38919300  0.30501000  1
  O  O26  1  0.48552200  0.17828600  0.48468600  1
  O  O27  1  0.51447800  0.82171400  0.51531400  1
  O  O28  1  0.40059900  0.91398300  0.72075000  1
  O  O29  1  0.59940100  0.08601700  0.27925000  1
loop_
_geom_bond_atom_site_label_1
_geom_bond_atom_site_label_2
_geom_bond_distance
_geom_bond_site_symmetry_2
Na0 O18 2.236910 1_555
Na0 O6 2.601011 1_555
Na0 O10 2.606323 1_555
Na0 O17 2.774573 1_556
Na1 O19 2.236910 1_555
Na1 O7 2.601011 1_555
Na1 O11 2.606323 1_555
Na1 O16 2.774573 1_554
Na2 O18 2.165400 1_555
Na2 O28 2.273383 1_545
Na2 O10 2.325419 1_555
Na2 O14 2.451334 1_555
Na3 O19 2.165400 1_555
Na3 O29 2.273383 1_565
Na3 O11 2.325419 1_555
Na3 O15 2.451334 1_555
Na4 O22 2.233933 1_555
Na4 O21 2.252264 1_555
Na4 O23 2.399762 1_455
Na4 O26 2.589657 1_555
Na4 O20 2.922711 1_555
Na5 O23 2.233933 1_555
Na5 O20 2.252264 1_555
Na5 O22 2.399762 1_655
Na5 O27 2.589657 1_555
Na5 O21 2.922711 1_555
Cu0 O3 1.899648 1_555
Cu0 O2 1.899648 1_444
Cu0 O8 2.053026 1_554
Cu0 O9 2.053026 1_445
H0 H24 0.751166 1_554
H1 H25 0.751166 1_556
H4 O8 0.987304 1_555
H5 O9 0.987304 1_555
H6 O18 0.986707 1_555
H7 O19 0.986707 1_555
H8 O24 0.977835 1_555
H9 O25 0.977835 1_555
H10 O20 0.981173 1_555
H11 O21 0.981173 1_555
H12 O22 0.987163 1_555
H13 O23 0.987163 1_555
H14 H16 0.745682 1_555
H15 H17 0.745682 1_555
H18 O28 1.010160 1_555
H19 O29 1.010160 1_555
H20 O29 0.983593 1_555
H21 O28 0.983593 1_555
H22 O20 0.973212 1_555
H23 O21 0.973212 1_555
O0 P0 1.609301 1_555
O0 P2 1.644717 1_465
O1 P1 1.609301 1_555
O1 P3 1.644717 1_645
O2 P0 1.515635 1_655
O3 P1 1.515635 1_455
O4 P0 1.475149 1_555
O5 P1 1.475149 1_555
O6 P0 1.707730 1_555
O7 P1 1.707730 1_555
O8 P2 1.655978 1_455
O9 P3 1.655978 1_655
O10 P2 1.502930 1_555
O11 P3 1.502930 1_555
O12 P2 1.486788 1_455
O13 P3 1.486788 1_655
O14 O26 1.235222 1_555
O15 O27 1.235222 1_555
O16 O6 1.387909 1_555
O17 O7 1.387909 1_555
