# generated using pymatgen
data_Li11V6O5F19
_symmetry_space_group_name_H-M   'P 1'
_cell_length_a   5.16283800
_cell_length_b   5.43925113
_cell_length_c   16.27456440
_cell_angle_alpha   99.30525989
_cell_angle_beta   90.40076761
_cell_angle_gamma   90.69236946
_symmetry_Int_Tables_number   1
_chemical_formula_structural   Li11V6O5F19
_chemical_formula_sum   'Li11 V6 O5 F19'
_cell_volume   450.95638867
_cell_formula_units_Z   1
loop_
 _symmetry_equiv_pos_site_id
 _symmetry_equiv_pos_as_xyz
  1  'x, y, z'
loop_
 _atom_site_type_symbol
 _atom_site_label
 _atom_site_symmetry_multiplicity
 _atom_site_fract_x
 _atom_site_fract_y
 _atom_site_fract_z
 _atom_site_occupancy
  Li  Li0  1  0.48370500  0.24323900  0.55855100  1
  Li  Li1  1  0.00845700  0.36685200  0.88919000  1
  Li  Li2  1  0.50778000  0.40753700  0.78201300  1
  Li  Li3  1  0.00039700  0.10194600  0.22954200  1
  Li  Li4  1  0.50792700  0.10618300  0.10467100  1
  Li  Li5  1  0.99608300  0.24667400  0.42904700  1
  Li  Li6  1  0.01127100  0.71679800  0.55658800  1
  Li  Li7  1  0.49796600  0.54726200  0.22298000  1
  Li  Li8  1  0.47508100  0.90527600  0.89100300  1
  Li  Li9  1  0.99861000  0.60420100  0.10737200  1
  Li  Li10  1  0.49940200  0.79443800  0.44177500  1
  V  V0  1  0.99354200  0.02884000  0.00356200  1
  V  V1  1  0.98400000  0.34770300  0.66455800  1
  V  V2  1  0.50169300  0.16679600  0.33436600  1
  V  V3  1  0.51949100  0.81966400  0.66595600  1
  V  V4  1  0.49596800  0.46570200  0.00165300  1
  V  V5  1  0.00285200  0.66826500  0.33426700  1
  O  O0  1  0.67851900  0.16870500  0.96692400  1
  O  O1  1  0.81014000  0.35153300  0.30973000  1
  O  O2  1  0.68860300  0.51152200  0.62981300  1
  O  O3  1  0.18911200  0.32162700  0.04217100  1
  O  O4  1  0.20137400  0.97846000  0.36359400  1
  F  F0  1  0.82681700  0.00245500  0.62420200  1
  F  F1  1  0.32916000  0.17594800  0.69164900  1
  F  F2  1  0.63918200  0.15420200  0.45153800  1
  F  F3  1  0.86098600  0.98400200  0.12004600  1
  F  F4  1  0.86514600  0.35008800  0.77851200  1
  F  F5  1  0.36547100  0.18272400  0.21877600  1
  F  F6  1  0.36139200  0.51328400  0.88553600  1
  F  F7  1  0.13076200  0.34688000  0.54825000  1
  F  F8  1  0.82321500  0.66930600  0.96983300  1
  F  F9  1  0.31571000  0.49495300  0.38135300  1
  F  F10  1  0.18560600  0.66366200  0.69586900  1
  F  F11  1  0.14134200  0.64685700  0.21913000  1
  F  F12  1  0.85894500  0.69096600  0.45058500  1
  F  F13  1  0.64928700  0.48364500  0.11851000  1
  F  F14  1  0.13672900  0.02669900  0.88960400  1
  F  F15  1  0.60097000  0.85407500  0.78123400  1
  F  F16  1  0.36473500  0.85109200  0.55364400  1
  F  F17  1  0.68389100  0.83578900  0.29063300  1
  F  F18  1  0.31563800  0.81691800  0.03764900  1
loop_
_geom_bond_atom_site_label_1
_geom_bond_atom_site_label_2
_geom_bond_distance
_geom_bond_site_symmetry_2
Li0 O2 1.997940 1_555
Li1 O0 2.467868 1_455
Li3 O1 1.997035 1_455
Li3 O4 2.597379 1_545
Li4 O3 2.350703 1_555
Li4 O0 2.486728 1_554
Li5 O4 1.984186 1_645
Li5 O1 2.315798 1_555
Li6 O2 2.419736 1_455
Li7 O1 2.493981 1_555
Li8 O0 2.013914 1_565
Li9 O3 1.994832 1_655
Li10 O4 2.325937 1_555
O0 V4 1.888478 1_556
O0 V0 1.934565 1_556
O1 V2 1.951133 1_555
O1 V5 1.961606 1_655
O2 V1 1.903504 1_555
O2 V3 1.908194 1_555
O3 V0 1.891865 1_455
O3 V4 1.926269 1_555
O4 V2 1.951725 1_565
O4 V5 1.953453 1_555
F0 Li6 2.007342 1_645
F0 V3 2.040408 1_545
F0 V1 2.042851 1_555
F0 Li0 2.544981 1_555
F1 Li2 1.988425 1_555
F1 V1 2.098842 1_455
F1 V3 2.164645 1_545
F1 Li0 2.395025 1_555
F2 Li0 1.915255 1_555
F2 Li5 1.956731 1_555
F2 V2 2.041910 1_555
F2 Li10 2.058885 1_545
F3 Li3 1.925183 1_665
F3 Li4 1.975725 1_565
F3 V0 2.070083 1_565
F3 Li9 2.171357 1_555
F4 Li2 1.874739 1_555
F4 Li1 1.930497 1_655
F4 V1 1.955606 1_555
F5 Li3 1.945710 1_555
F5 Li4 1.984748 1_555
F5 V2 2.019065 1_555
F5 Li7 2.080108 1_555
F6 Li2 1.858896 1_555
F6 Li1 1.984916 1_555
F6 V4 2.065196 1_556
F6 Li8 2.192292 1_555
F7 Li0 1.928050 1_555
F7 Li5 2.043059 1_455
F7 V1 2.043153 1_455
F7 Li6 2.095310 1_555
F8 V4 2.121698 1_556
F8 V0 2.122146 1_566
F8 Li1 2.168157 1_655
F8 Li9 2.488274 1_556
F9 Li10 1.987845 1_555
F9 V2 2.074368 1_555
F9 V5 2.082777 1_555
F9 Li5 2.335027 1_455
F10 V1 1.990657 1_455
F10 V3 2.009589 1_555
F10 Li6 2.494264 1_555
F11 Li7 1.928949 1_555
F11 Li9 1.935352 1_455
F11 V5 1.996528 1_555
F12 Li6 1.874656 1_655
F12 Li10 1.957203 1_555
F12 V5 2.024128 1_655
F12 Li5 2.497014 1_555
F13 Li7 1.858933 1_555
F13 Li9 1.931290 1_555
F13 V4 2.042052 1_555
F13 Li4 2.147225 1_555
F14 Li8 1.876275 1_545
F14 Li1 1.973665 1_555
F14 V0 1.999659 1_456
F15 Li8 1.884434 1_555
F15 V3 1.898746 1_555
F15 Li2 2.472381 1_555
F16 Li10 1.932475 1_555
F16 Li6 1.961216 1_555
F16 V3 2.022984 1_555
F16 Li0 2.201327 1_565
F17 Li7 1.996649 1_555
F17 V2 2.066120 1_565
F17 V5 2.067727 1_655
F17 Li3 2.487070 1_665
F18 Li4 2.010711 1_565
F18 V4 2.132632 1_555
F18 V0 2.154532 1_465
F18 Li9 2.389571 1_455
