# generated using pymatgen
data_CaH14I10O7
_symmetry_space_group_name_H-M   'P 1'
_cell_length_a   9.54554500
_cell_length_b   9.96935590
_cell_length_c   15.61368185
_cell_angle_alpha   93.06476144
_cell_angle_beta   90.65562290
_cell_angle_gamma   108.84831208
_symmetry_Int_Tables_number   1
_chemical_formula_structural   CaH14I10O7
_chemical_formula_sum   'Ca2 H28 I20 O14'
_cell_volume   1403.50912443
_cell_formula_units_Z   2
loop_
 _symmetry_equiv_pos_site_id
 _symmetry_equiv_pos_as_xyz
  1  'x, y, z'
loop_
 _atom_site_type_symbol
 _atom_site_label
 _atom_site_symmetry_multiplicity
 _atom_site_fract_x
 _atom_site_fract_y
 _atom_site_fract_z
 _atom_site_occupancy
  Ca  Ca0  1  0.78247900  0.62699000  0.25120000  1
  Ca  Ca1  1  0.21752100  0.37301000  0.74880000  1
  H  H0  1  0.48252600  0.37984700  0.26586800  1
  H  H1  1  0.51747400  0.62015300  0.73413200  1
  H  H2  1  0.51896800  0.39350300  0.16900400  1
  H  H3  1  0.48103200  0.60649700  0.83099600  1
  H  H4  1  0.89431100  0.37128700  0.29185400  1
  H  H5  1  0.10568900  0.62871300  0.70814600  1
  H  H6  1  0.88270800  0.37671900  0.19194100  1
  H  H7  1  0.11729200  0.62328100  0.80805900  1
  H  H8  1  0.69239100  0.69559000  0.06854500  1
  H  H9  1  0.30760900  0.30441000  0.93145500  1
  H  H10  1  0.58427800  0.73685300  0.13125300  1
  H  H11  1  0.41572200  0.26314700  0.86874700  1
  H  H12  1  0.06940400  0.68700400  0.15170000  1
  H  H13  1  0.93059600  0.31299600  0.84830000  1
  H  H14  1  0.95862200  0.71551200  0.08634400  1
  H  H15  1  0.04137800  0.28448800  0.91365600  1
  H  H16  1  0.67000300  0.84639700  0.34991500  1
  H  H17  1  0.32999700  0.15360300  0.65008500  1
  H  H18  1  0.80533400  0.94334100  0.30282000  1
  H  H19  1  0.19466600  0.05665900  0.69718000  1
  H  H20  1  0.09953300  0.75766700  0.33969600  1
  H  H21  1  0.90046700  0.24233300  0.66030400  1
  H  H22  1  0.98618200  0.80974100  0.39292000  1
  H  H23  1  0.01381800  0.19025900  0.60708000  1
  H  H24  1  0.70232200  0.63399900  0.44504400  1
  H  H25  1  0.29767800  0.36600100  0.55495600  1
  H  H26  1  0.62795300  0.47644700  0.41000400  1
  H  H27  1  0.37204700  0.52355300  0.58999600  1
  I  I0  1  0.03418900  0.91662400  0.85940100  1
  I  I1  1  0.96581100  0.08337600  0.14059900  1
  I  I2  1  0.73754900  0.93044400  0.85562000  1
  I  I3  1  0.26245100  0.06955600  0.14438000  1
  I  I4  1  0.41773200  0.93988000  0.85606000  1
  I  I5  1  0.58226800  0.06012000  0.14394000  1
  I  I6  1  0.31220200  0.69296900  0.97605800  1
  I  I7  1  0.68779800  0.30703100  0.02394200  1
  I  I8  1  0.20420200  0.44298500  0.07001000  1
  I  I9  1  0.79579800  0.55701500  0.92999000  1
  I  I10  1  0.21977800  0.81548000  0.56816800  1
  I  I11  1  0.78022200  0.18452000  0.43183200  1
  I  I12  1  0.51935600  0.81843900  0.57217100  1
  I  I13  1  0.48064400  0.18156100  0.42782900  1
  I  I14  1  0.86694900  0.82683800  0.57338300  1
  I  I15  1  0.13305100  0.17316200  0.42661700  1
  I  I16  1  0.75596200  0.52877100  0.64363000  1
  I  I17  1  0.24403800  0.47122900  0.35637000  1
  I  I18  1  0.65102100  0.25552900  0.70996600  1
  I  I19  1  0.34897900  0.74447100  0.29003400  1
  O  O0  1  0.55169800  0.43662600  0.22617500  1
  O  O1  1  0.44830200  0.56337400  0.77382500  1
  O  O2  1  0.87766800  0.42868100  0.24593700  1
  O  O3  1  0.12233200  0.57131900  0.75406300  1
  O  O4  1  0.66413400  0.69635200  0.12862200  1
  O  O5  1  0.33586600  0.30364800  0.87137800  1
  O  O6  1  0.96982000  0.69255200  0.14560900  1
  O  O7  1  0.03018000  0.30744800  0.85439100  1
  O  O8  1  0.75307200  0.84475500  0.31440300  1
  O  O9  1  0.24692800  0.15524500  0.68559700  1
  O  O10  1  0.99507900  0.75073600  0.34254600  1
  O  O11  1  0.00492100  0.24926400  0.65745400  1
  O  O12  1  0.67586800  0.57245400  0.39184600  1
  O  O13  1  0.32413200  0.42754600  0.60815400  1
loop_
_geom_bond_atom_site_label_1
_geom_bond_atom_site_label_2
_geom_bond_distance
_geom_bond_site_symmetry_2
Ca0 O6 2.402228 1_555
Ca0 O10 2.408837 1_555
Ca0 O0 2.409764 1_555
Ca0 O2 2.426101 1_555
Ca0 O8 2.436551 1_555
Ca0 O12 2.444375 1_555
Ca0 O4 2.452360 1_555
Ca1 O7 2.402228 1_555
Ca1 O11 2.408837 1_555
Ca1 O1 2.409764 1_555
Ca1 O3 2.426101 1_555
Ca1 O9 2.436551 1_555
Ca1 O13 2.444375 1_555
Ca1 O5 2.452360 1_555
H0 O0 0.972557 1_555
H1 O1 0.972557 1_555
H2 O0 0.972138 1_555
H3 O1 0.972138 1_555
H4 O2 0.983165 1_555
H5 O3 0.983165 1_555
H6 O2 0.975590 1_555
H7 O3 0.975590 1_555
H8 O4 0.979311 1_555
H9 O5 0.979311 1_555
H10 O4 0.971380 1_555
H11 O5 0.971380 1_555
H12 O6 0.973744 1_455
H13 O7 0.973744 1_655
H14 O6 0.977894 1_555
H15 O7 0.977894 1_555
H16 O8 0.976698 1_555
H17 O9 0.976698 1_555
H18 O8 0.975613 1_555
H19 O9 0.975613 1_555
H20 O10 0.978638 1_455
H21 O11 0.978638 1_655
H22 O10 0.977852 1_555
H23 O11 0.977852 1_555
H24 O12 0.985265 1_555
H25 O13 0.985265 1_555
H26 O12 0.977137 1_555
H27 O13 0.977137 1_555
I0 I2 2.879147 1_455
I1 I3 2.879147 1_655
I2 I4 3.084578 1_555
I3 I5 3.084578 1_555
I4 I6 3.085215 1_555
I5 I7 3.085215 1_555
I6 I8 2.862015 1_556
I7 I9 2.862015 1_554
I10 I12 2.850175 1_555
I11 I13 2.850175 1_555
I12 I14 3.291678 1_555
I13 I15 3.291678 1_555
I14 I16 3.081627 1_555
I15 I17 3.081627 1_555
I16 I18 2.838834 1_555
I17 I19 2.838834 1_555
