# generated using pymatgen
data_GdOF
_symmetry_space_group_name_H-M   'P 1'
_cell_length_a   3.93562000
_cell_length_b   3.93562000
_cell_length_c   5.66800800
_cell_angle_alpha   90.00000000
_cell_angle_beta   90.00000000
_cell_angle_gamma   90.00000000
_symmetry_Int_Tables_number   1
_chemical_formula_structural   GdOF
_chemical_formula_sum   'Gd2 O2 F2'
_cell_volume   87.79236983
_cell_formula_units_Z   2
loop_
 _symmetry_equiv_pos_site_id
 _symmetry_equiv_pos_as_xyz
  1  'x, y, z'
loop_
 _atom_site_type_symbol
 _atom_site_label
 _atom_site_symmetry_multiplicity
 _atom_site_fract_x
 _atom_site_fract_y
 _atom_site_fract_z
 _atom_site_occupancy
  Gd  Gd0  1  0.00000000  0.50000000  0.19931600  1
  Gd  Gd1  1  0.50000000  0.00000000  0.80068400  1
  O  O0  1  0.00000000  0.00000000  0.00000000  1
  O  O1  1  0.50000000  0.50000000  0.00000000  1
  F  F0  1  0.00000000  0.50000000  0.60130900  1
  F  F1  1  0.50000000  0.00000000  0.39869100  1
loop_
_geom_bond_atom_site_label_1
_geom_bond_atom_site_label_2
_geom_bond_distance
_geom_bond_site_symmetry_2
Gd0 O0 2.269043 1_565
Gd0 O1 2.269043 1_555
Gd0 O0 2.269043 1_555
Gd0 O1 2.269043 1_455
Gd1 O0 2.269043 1_656
Gd1 O1 2.269043 1_556
Gd1 O1 2.269043 1_546
Gd1 O0 2.269043 1_556
F0 Gd0 2.278500 1_555
F1 Gd1 2.278500 1_555
