# generated using pymatgen
data_CoPbO3
_symmetry_space_group_name_H-M   'P 1'
_cell_length_a   5.32625500
_cell_length_b   5.43066300
_cell_length_c   7.56021800
_cell_angle_alpha   90.00000000
_cell_angle_beta   90.00000000
_cell_angle_gamma   90.00000000
_symmetry_Int_Tables_number   1
_chemical_formula_structural   CoPbO3
_chemical_formula_sum   'Co4 Pb4 O12'
_cell_volume   218.68003111
_cell_formula_units_Z   4
loop_
 _symmetry_equiv_pos_site_id
 _symmetry_equiv_pos_as_xyz
  1  'x, y, z'
loop_
 _atom_site_type_symbol
 _atom_site_label
 _atom_site_symmetry_multiplicity
 _atom_site_fract_x
 _atom_site_fract_y
 _atom_site_fract_z
 _atom_site_occupancy
  Co  Co0  1  0.50000000  0.00000000  0.50000000  1
  Co  Co1  1  0.50000000  0.00000000  0.00000000  1
  Co  Co2  1  0.00000000  0.50000000  0.50000000  1
  Co  Co3  1  0.00000000  0.50000000  0.00000000  1
  Pb  Pb0  1  0.51109700  0.45530600  0.25000000  1
  Pb  Pb1  1  0.98890300  0.95530600  0.25000000  1
  Pb  Pb2  1  0.01109700  0.04469400  0.75000000  1
  Pb  Pb3  1  0.48890300  0.54469400  0.75000000  1
  O  O0  1  0.58462100  0.97365200  0.75000000  1
  O  O1  1  0.71260500  0.71453200  0.04514100  1
  O  O2  1  0.71260500  0.71453200  0.45485900  1
  O  O3  1  0.78739500  0.21453200  0.45485900  1
  O  O4  1  0.78739500  0.21453200  0.04514100  1
  O  O5  1  0.91537900  0.47365200  0.75000000  1
  O  O6  1  0.08462100  0.52634800  0.25000000  1
  O  O7  1  0.21260500  0.78546800  0.95485900  1
  O  O8  1  0.21260500  0.78546800  0.54514100  1
  O  O9  1  0.28739500  0.28546800  0.54514100  1
  O  O10  1  0.28739500  0.28546800  0.95485900  1
  O  O11  1  0.41537900  0.02634800  0.25000000  1
loop_
_geom_bond_atom_site_label_1
_geom_bond_atom_site_label_2
_geom_bond_distance
_geom_bond_site_symmetry_2
Co0 O0 1.948313 1_545
Co0 O11 1.948313 1_555
Co0 O9 1.949908 1_555
Co0 O2 1.949908 1_545
Co0 O8 1.953708 1_545
Co0 O3 1.953708 1_555
Co1 O0 1.948313 1_544
Co1 O11 1.948313 1_555
Co1 O10 1.949908 1_554
Co1 O1 1.949908 1_545
Co1 O7 1.953708 1_544
Co1 O4 1.953708 1_555
Co2 O6 1.948313 1_555
Co2 O5 1.948313 1_455
Co2 O3 1.949908 1_455
Co2 O8 1.949908 1_555
Co2 O2 1.953708 1_455
Co2 O9 1.953708 1_555
Co3 O6 1.948313 1_555
Co3 O5 1.948313 1_454
Co3 O4 1.949908 1_455
Co3 O7 1.949908 1_554
Co3 O1 1.953708 1_455
Co3 O10 1.953708 1_554
O0 Pb2 2.304050 1_665
O0 Pb3 2.384661 1_555
O1 Pb0 2.352119 1_555
O1 Pb1 2.504823 1_555
O1 Pb3 2.692432 1_554
O2 Pb0 2.352119 1_555
O2 Pb1 2.504823 1_555
O2 Pb3 2.692432 1_555
O3 Pb1 2.352119 1_545
O3 Pb0 2.504823 1_555
O3 Pb2 2.692432 1_655
O4 Pb1 2.352119 1_545
O4 Pb0 2.504823 1_555
O4 Pb2 2.692432 1_654
O5 Pb3 2.304050 1_555
O5 Pb2 2.384661 1_655
O6 Pb0 2.304050 1_555
O6 Pb1 2.384661 1_455
O7 Pb2 2.352119 1_565
O7 Pb3 2.504823 1_555
O7 Pb1 2.692432 1_456
O8 Pb2 2.352119 1_565
O8 Pb3 2.504823 1_555
O8 Pb1 2.692432 1_455
O9 Pb3 2.352119 1_555
O9 Pb2 2.504823 1_555
O9 Pb0 2.692432 1_555
O10 Pb3 2.352119 1_555
O10 Pb2 2.504823 1_555
O10 Pb0 2.692432 1_556
O11 Pb1 2.304050 1_445
O11 Pb0 2.384661 1_555
