# generated using pymatgen
data_Ca9LaMn10O30
_symmetry_space_group_name_H-M   'P 1'
_cell_length_a   7.63641600
_cell_length_b   9.29811376
_cell_length_c   17.05962419
_cell_angle_alpha   90.29426048
_cell_angle_beta   90.19492787
_cell_angle_gamma   114.14473613
_symmetry_Int_Tables_number   1
_chemical_formula_structural   Ca9LaMn10O30
_chemical_formula_sum   'Ca18 La2 Mn20 O60'
_cell_volume   1105.30037760
_cell_formula_units_Z   2
loop_
 _symmetry_equiv_pos_site_id
 _symmetry_equiv_pos_as_xyz
  1  'x, y, z'
loop_
 _atom_site_type_symbol
 _atom_site_label
 _atom_site_symmetry_multiplicity
 _atom_site_fract_x
 _atom_site_fract_y
 _atom_site_fract_z
 _atom_site_occupancy
  Ca  Ca0  1  0.68307300  0.39248600  0.85840200  1
  Ca  Ca1  1  0.42515700  0.80425300  0.94303800  1
  Ca  Ca2  1  0.17486200  0.39397200  0.85496600  1
  Ca  Ca3  1  0.28234100  0.59229500  0.66091700  1
  Ca  Ca4  1  0.91777800  0.80922700  0.94093500  1
  Ca  Ca5  1  0.02596300  0.00421800  0.74433100  1
  Ca  Ca6  1  0.77490800  0.59572000  0.65538900  1
  Ca  Ca7  1  0.88013600  0.78977600  0.45832500  1
  Ca  Ca8  1  0.51778300  0.00998800  0.74054500  1
  Ca  Ca9  1  0.62384700  0.20507800  0.54487800  1
  Ca  Ca10  1  0.37570200  0.79483100  0.45546600  1
  Ca  Ca11  1  0.48047500  0.98851800  0.25918900  1
  Ca  Ca12  1  0.22770000  0.40648900  0.34483500  1
  Ca  Ca13  1  0.97124300  0.99392700  0.25533700  1
  Ca  Ca14  1  0.08171500  0.19006200  0.05992300  1
  Ca  Ca15  1  0.71957500  0.40977900  0.34093800  1
  Ca  Ca16  1  0.82750100  0.60746800  0.14545200  1
  Ca  Ca17  1  0.31734400  0.60793000  0.14073100  1
  La  La0  1  0.11154600  0.20526000  0.54459700  1
  La  La1  1  0.58500800  0.19614400  0.05405800  1
  Mn  Mn0  1  0.80163700  0.09886900  0.89854500  1
  Mn  Mn1  1  0.29730000  0.09925100  0.89873300  1
  Mn  Mn2  1  0.49868800  0.50231600  0.99915600  1
  Mn  Mn3  1  0.40316200  0.30211300  0.70168600  1
  Mn  Mn4  1  0.09985600  0.69996600  0.80031800  1
  Mn  Mn5  1  0.89822400  0.30172600  0.70143700  1
  Mn  Mn6  1  0.99907200  0.50283000  0.49908400  1
  Mn  Mn7  1  0.60083600  0.70094900  0.80021900  1
  Mn  Mn8  1  0.69639000  0.89700000  0.60058100  1
  Mn  Mn9  1  0.50311400  0.50222900  0.49955000  1
  Mn  Mn10  1  0.59967500  0.69992200  0.30003900  1
  Mn  Mn11  1  0.20072900  0.89581600  0.60032500  1
  Mn  Mn12  1  0.30089500  0.09842000  0.39851800  1
  Mn  Mn13  1  0.10042700  0.70055700  0.30008000  1
  Mn  Mn14  1  0.19758200  0.89709700  0.10058100  1
  Mn  Mn15  1  0.79679200  0.09925300  0.39825900  1
  Mn  Mn16  1  0.90369200  0.30219300  0.20189700  1
  Mn  Mn17  1  0.70002900  0.89562900  0.10044800  1
  Mn  Mn18  1  0.39910000  0.30107100  0.20163900  1
  Mn  Mn19  1  0.00324500  0.50262900  0.99929400  1
  O  O0  1  0.55966200  0.12029300  0.91774600  1
  O  O1  1  0.38000400  0.31936100  0.93086800  1
  O  O2  1  0.76220900  0.96759500  0.99216200  1
  O  O3  1  0.59892800  0.63663100  0.90892500  1
  O  O4  1  0.27313100  0.54802000  0.99581000  1
  O  O5  1  0.93564000  0.28552700  0.96440800  1
  O  O6  1  0.65719300  0.91291700  0.83659600  1
  O  O7  1  0.16130000  0.32162700  0.71906800  1
  O  O8  1  0.32699000  0.65249700  0.80445500  1
  O  O9  1  0.83770500  0.23623400  0.80841200  1
  O  O10  1  0.00207100  0.56495900  0.89093900  1
  O  O11  1  0.21992000  0.87995500  0.86987100  1
  O  O12  1  0.97773600  0.52035200  0.73063300  1
  O  O13  1  0.36286100  0.16517300  0.79147400  1
  O  O14  1  0.19894200  0.83340800  0.70898100  1
  O  O15  1  0.87335100  0.74791200  0.79614800  1
  O  O16  1  0.03818000  0.07839100  0.87793700  1
  O  O17  1  0.54332300  0.48770200  0.76315300  1
  O  O18  1  0.26496300  0.11101400  0.63900400  1
  O  O19  1  0.76197800  0.52403100  0.52118400  1
  O  O20  1  0.92936400  0.85653200  0.60287100  1
  O  O21  1  0.60173200  0.76524200  0.69101800  1
  O  O22  1  0.43420400  0.43341200  0.60816300  1
  O  O23  1  0.82704700  0.08303700  0.66693500  1
  O  O24  1  0.57828500  0.71912400  0.53007800  1
  O  O25  1  0.95923100  0.36986700  0.59196300  1
  O  O26  1  0.78975200  0.03028800  0.50736800  1
  O  O27  1  0.47329600  0.94610300  0.59650600  1
  O  O28  1  0.63883400  0.27816400  0.67955900  1
  O  O29  1  0.14520900  0.68715100  0.56264800  1
  O  O30  1  0.85798300  0.31177600  0.43825000  1
  O  O31  1  0.36147800  0.72215100  0.32188300  1
  O  O32  1  0.52519500  0.05143200  0.40305900  1
  O  O33  1  0.20101800  0.96658300  0.49117400  1
  O  O34  1  0.03603300  0.63631300  0.40851200  1
  O  O35  1  0.42108600  0.27995800  0.46957200  1
  O  O36  1  0.17832700  0.92061200  0.32883500  1
  O  O37  1  0.56451400  0.56479500  0.39159900  1
  O  O38  1  0.40041800  0.23597900  0.30924100  1
  O  O39  1  0.07205800  0.14628600  0.39654300  1
  O  O40  1  0.23772500  0.47697100  0.47922700  1
  O  O41  1  0.74266800  0.88724300  0.36203900  1
  O  O42  1  0.45591000  0.51255700  0.23747400  1
  O  O43  1  0.96140500  0.92002800  0.12168500  1
  O  O44  1  0.12754400  0.25270200  0.20481000  1
  O  O45  1  0.79940500  0.16552800  0.29141400  1
  O  O46  1  0.63427400  0.83288700  0.20859700  1
  O  O47  1  0.02251300  0.48012600  0.27067100  1
  O  O48  1  0.78244900  0.11641600  0.13377500  1
  O  O49  1  0.16479800  0.76341400  0.19136700  1
  O  O50  1  0.99415000  0.43173600  0.10849600  1
  O  O51  1  0.83849900  0.67765200  0.27887700  1
  O  O52  1  0.67310500  0.34663400  0.19492500  1
  O  O53  1  0.34298700  0.08761000  0.16251000  1
  O  O54  1  0.05755900  0.71310500  0.03731900  1
  O  O55  1  0.72915500  0.45932300  0.00243300  1
  O  O56  1  0.23715900  0.03506500  0.00852600  1
  O  O57  1  0.40223000  0.36559300  0.09110400  1
  O  O58  1  0.62116800  0.67945200  0.07024200  1
  O  O59  1  0.44004700  0.88029600  0.07831500  1
loop_
_geom_bond_atom_site_label_1
_geom_bond_atom_site_label_2
_geom_bond_distance
_geom_bond_site_symmetry_2
Ca0 O17 2.310618 1_555
Ca0 O10 2.366376 1_655
Ca0 O9 2.372770 1_555
Ca0 O1 2.467312 1_555
Ca0 O55 2.519321 1_556
Ca0 O0 2.529821 1_555
Ca0 O13 2.734654 1_555
Ca0 O3 2.736068 1_555
Ca1 O11 2.325516 1_555
Ca1 O4 2.366617 1_555
Ca1 O59 2.398826 1_556
Ca1 O6 2.456426 1_555
Ca1 O3 2.493313 1_555
Ca1 O2 2.531409 1_555
Ca1 O8 2.688987 1_555
Ca1 O0 2.724555 1_565
Ca2 O1 2.344466 1_555
Ca2 O8 2.369366 1_555
Ca2 O7 2.400709 1_555
Ca2 O9 2.509116 1_455
Ca2 O10 2.521316 1_555
Ca2 O5 2.524951 1_455
Ca2 O16 2.713337 1_555
Ca2 O4 2.731484 1_555
Ca3 O29 2.333189 1_555
Ca3 O21 2.360661 1_555
Ca3 O22 2.394217 1_555
Ca3 O12 2.454939 1_455
Ca3 O8 2.499969 1_555
Ca3 O7 2.510201 1_555
Ca3 O14 2.693837 1_555
Ca3 O25 2.744029 1_455
Ca4 O54 2.329260 1_656
Ca4 O3 2.363789 1_555
Ca4 O2 2.401735 1_555
Ca4 O11 2.451870 1_655
Ca4 O15 2.522437 1_555
Ca4 O16 2.532952 1_665
Ca4 O56 2.730132 1_666
Ca4 O10 2.734989 1_655
Ca5 O23 2.344099 1_455
Ca5 O15 2.361268 1_445
Ca5 O16 2.368371 1_555
Ca5 O18 2.470563 1_555
Ca5 O13 2.515757 1_555
Ca5 O14 2.518500 1_545
Ca5 O20 2.716392 1_445
Ca5 O7 2.735847 1_555
Ca6 O12 2.328415 1_555
Ca6 O19 2.371658 1_555
Ca6 O20 2.400900 1_555
Ca6 O17 2.470635 1_555
Ca6 O21 2.510723 1_555
Ca6 O22 2.541033 1_555
Ca6 O15 2.723304 1_555
Ca6 O28 2.733760 1_555
Ca7 O41 2.324500 1_555
Ca7 O34 2.357892 1_655
Ca7 O33 2.388875 1_655
Ca7 O24 2.455990 1_555
Ca7 O19 2.505878 1_555
Ca7 O20 2.528703 1_555
Ca7 O37 2.704277 1_555
Ca7 O26 2.724867 1_565
Ca8 O6 2.328604 1_545
Ca8 O14 2.371820 1_545
Ca8 O13 2.372160 1_555
Ca8 O28 2.510404 1_555
Ca8 O27 2.514077 1_545
Ca8 O23 2.516427 1_555
Ca8 O21 2.735135 1_545
Ca8 O9 2.735997 1_555
Ca9 O35 2.325986 1_555
Ca9 O27 2.379019 1_545
Ca9 O28 2.381690 1_555
Ca9 O30 2.465656 1_555
Ca9 O25 2.513032 1_555
Ca9 O26 2.516980 1_555
Ca9 O19 2.743578 1_555
Ca9 O32 2.744724 1_555
Ca10 O24 2.322843 1_555
Ca10 O31 2.363093 1_555
Ca10 O32 2.365523 1_565
Ca10 O29 2.458230 1_555
Ca10 O34 2.527495 1_555
Ca10 O33 2.537547 1_555
Ca10 O27 2.723699 1_555
Ca10 O40 2.734429 1_555
Ca11 O53 2.338091 1_565
Ca11 O46 2.367017 1_555
Ca11 O45 2.375916 1_565
Ca11 O36 2.443077 1_555
Ca11 O31 2.509260 1_555
Ca11 O32 2.509755 1_565
Ca11 O49 2.712774 1_555
Ca11 O38 2.744306 1_565
Ca12 O47 2.323312 1_555
Ca12 O40 2.373613 1_555
Ca12 O39 2.391831 1_555
Ca12 O42 2.449169 1_555
Ca12 O37 2.509042 1_555
Ca12 O38 2.515581 1_555
Ca12 O31 2.715345 1_555
Ca12 O44 2.719133 1_555
Ca13 O36 2.326971 1_655
Ca13 O43 2.370007 1_555
Ca13 O44 2.374002 1_665
Ca13 O41 2.442927 1_555
Ca13 O46 2.514174 1_555
Ca13 O45 2.520879 1_565
Ca13 O51 2.722697 1_555
Ca13 O39 2.731775 1_665
Ca14 O5 2.345178 1_454
Ca14 O56 2.376653 1_555
Ca14 O57 2.377310 1_555
Ca14 O48 2.455021 1_455
Ca14 O44 2.526593 1_555
Ca14 O43 2.530810 1_445
Ca14 O2 2.719467 1_444
Ca14 O50 2.719778 1_455
Ca15 O30 2.344134 1_555
Ca15 O38 2.367252 1_555
Ca15 O37 2.370017 1_555
Ca15 O47 2.450603 1_655
Ca15 O51 2.516442 1_555
Ca15 O52 2.546346 1_555
Ca15 O45 2.712861 1_555
Ca15 O34 2.719826 1_655
Ca16 O58 2.331242 1_555
Ca16 O51 2.356377 1_555
Ca16 O52 2.381775 1_555
Ca16 O54 2.466395 1_655
Ca16 O49 2.503934 1_655
Ca16 O50 2.526435 1_555
Ca16 O43 2.690703 1_555
Ca16 O55 2.742447 1_555
Ca17 O42 2.323939 1_555
Ca17 O49 2.359035 1_555
Ca17 O50 2.398188 1_455
Ca17 O58 2.456874 1_555
Ca17 O4 2.522472 1_554
Ca17 O59 2.553130 1_555
Ca17 O46 2.718017 1_555
Ca17 O57 2.719058 1_555
La0 O18 2.361328 1_555
La0 O26 2.407682 1_455
La0 O25 2.407995 1_455
La0 O35 2.528753 1_555
La0 O40 2.568957 1_555
La0 O39 2.572222 1_555
La0 O22 2.725681 1_555
La0 O33 2.728809 1_545
La0 O23 2.898724 1_455
La1 O48 2.362853 1_555
La1 O55 2.408436 1_555
La1 O0 2.410585 1_554
La1 O53 2.524645 1_555
La1 O56 2.573302 1_555
La1 O57 2.573868 1_555
La1 O52 2.714770 1_555
La1 O59 2.716140 1_545
La1 O5 2.901651 1_554
Mn0 O16 1.925545 1_655
Mn0 O6 1.932901 1_545
Mn0 O9 1.951096 1_555
Mn0 O5 1.959855 1_555
Mn0 O2 1.963109 1_545
Mn0 O0 1.966215 1_555
Mn1 O13 1.934225 1_555
Mn1 O11 1.936826 1_545
Mn1 O16 1.938934 1_555
Mn1 O1 1.953639 1_555
Mn1 O0 1.957490 1_555
Mn1 O56 1.966835 1_556
Mn2 O4 1.936252 1_555
Mn2 O3 1.939277 1_555
Mn2 O58 1.941565 1_556
Mn2 O1 1.945144 1_555
Mn2 O55 1.958429 1_556
Mn2 O57 1.970145 1_556
Mn3 O17 1.919829 1_555
Mn3 O28 1.939735 1_555
Mn3 O13 1.940332 1_555
Mn3 O7 1.951778 1_555
Mn3 O18 1.962953 1_555
Mn3 O22 1.969256 1_555
Mn4 O11 1.940680 1_555
Mn4 O12 1.941647 1_455
Mn4 O10 1.945337 1_555
Mn4 O14 1.949298 1_555
Mn4 O15 1.956001 1_455
Mn4 O8 1.958066 1_555
Mn5 O9 1.924001 1_555
Mn5 O12 1.930505 1_555
Mn5 O28 1.936497 1_555
Mn5 O7 1.962605 1_655
Mn5 O23 1.964161 1_555
Mn5 O25 1.970518 1_555
Mn6 O34 1.934834 1_655
Mn6 O19 1.937770 1_555
Mn6 O29 1.940750 1_655
Mn6 O30 1.949686 1_555
Mn6 O25 1.961449 1_555
Mn6 O40 1.963605 1_655
Mn7 O6 1.935588 1_555
Mn7 O15 1.945277 1_555
Mn7 O17 1.948596 1_555
Mn7 O3 1.949722 1_555
Mn7 O8 1.952420 1_555
Mn7 O21 1.958596 1_555
Mn8 O21 1.925153 1_555
Mn8 O24 1.935805 1_555
Mn8 O27 1.936883 1_555
Mn8 O23 1.956866 1_565
Mn8 O20 1.963565 1_555
Mn8 O26 1.969267 1_565
Mn9 O24 1.925614 1_555
Mn9 O37 1.934815 1_555
Mn9 O19 1.936867 1_555
Mn9 O35 1.962921 1_555
Mn9 O22 1.965432 1_555
Mn9 O40 1.971690 1_555
Mn10 O41 1.939594 1_555
Mn10 O46 1.946069 1_555
Mn10 O42 1.946223 1_555
Mn10 O31 1.949778 1_555
Mn10 O51 1.952426 1_555
Mn10 O37 1.958955 1_555
Mn11 O29 1.915624 1_555
Mn11 O27 1.939148 1_555
Mn11 O14 1.943604 1_555
Mn11 O20 1.952203 1_455
Mn11 O18 1.964953 1_565
Mn11 O33 1.977806 1_555
Mn12 O36 1.931026 1_545
Mn12 O32 1.934525 1_555
Mn12 O38 1.940571 1_555
Mn12 O33 1.961164 1_545
Mn12 O35 1.965942 1_555
Mn12 O39 1.972047 1_555
Mn13 O36 1.942416 1_555
Mn13 O47 1.948414 1_555
Mn13 O34 1.948759 1_555
Mn13 O49 1.950660 1_555
Mn13 O31 1.954334 1_555
Mn13 O51 1.955186 1_455
Mn14 O54 1.926527 1_555
Mn14 O43 1.935478 1_455
Mn14 O49 1.942746 1_555
Mn14 O59 1.959026 1_555
Mn14 O53 1.962312 1_565
Mn14 O56 1.977372 1_565
Mn15 O45 1.924638 1_555
Mn15 O32 1.937290 1_555
Mn15 O41 1.938512 1_545
Mn15 O30 1.953765 1_555
Mn15 O39 1.964488 1_655
Mn15 O26 1.965573 1_555
Mn16 O47 1.918788 1_655
Mn16 O44 1.944109 1_655
Mn16 O45 1.944583 1_555
Mn16 O50 1.952794 1_555
Mn16 O48 1.963490 1_555
Mn16 O52 1.969734 1_555
Mn17 O58 1.914531 1_555
Mn17 O46 1.942715 1_555
Mn17 O43 1.946905 1_555
Mn17 O2 1.960751 1_554
Mn17 O48 1.965281 1_565
Mn17 O59 1.966525 1_555
Mn18 O42 1.927873 1_555
Mn18 O44 1.934819 1_555
Mn18 O38 1.937082 1_555
Mn18 O52 1.961565 1_555
Mn18 O53 1.963988 1_555
Mn18 O57 1.979014 1_555
Mn19 O4 1.928398 1_555
Mn19 O54 1.934911 1_556
Mn19 O10 1.941143 1_555
Mn19 O5 1.956688 1_455
Mn19 O55 1.964033 1_456
Mn19 O50 1.971278 1_456
