# generated using pymatgen
data_NaNiPO4
_symmetry_space_group_name_H-M   'P 1'
_cell_length_a   4.97724300
_cell_length_b   10.24772400
_cell_length_c   6.18648600
_cell_angle_alpha   89.99988852
_cell_angle_beta   90.00002077
_cell_angle_gamma   89.99980135
_symmetry_Int_Tables_number   1
_chemical_formula_structural   NaNiPO4
_chemical_formula_sum   'Na4 Ni4 P4 O16'
_cell_volume   315.54427063
_cell_formula_units_Z   4
loop_
 _symmetry_equiv_pos_site_id
 _symmetry_equiv_pos_as_xyz
  1  'x, y, z'
loop_
 _atom_site_type_symbol
 _atom_site_label
 _atom_site_symmetry_multiplicity
 _atom_site_fract_x
 _atom_site_fract_y
 _atom_site_fract_z
 _atom_site_occupancy
  Na  Na0  1  0.99998800  0.99999900  0.00000000  1
  Na  Na1  1  0.99998800  0.99999900  0.50000000  1
  Na  Na2  1  0.50001600  0.50000000  0.00000400  1
  Na  Na3  1  0.50001700  0.50000000  0.49999600  1
  Ni  Ni0  1  0.99054600  0.28051600  0.25000700  1
  Ni  Ni1  1  0.50947000  0.78052400  0.25000500  1
  Ni  Ni2  1  0.49045500  0.21949600  0.74999400  1
  Ni  Ni3  1  0.00952000  0.71948800  0.74999400  1
  P  P0  1  0.43761500  0.10749600  0.24999900  1
  P  P1  1  0.93760700  0.39250300  0.75000200  1
  P  P2  1  0.06239600  0.60749400  0.24999900  1
  P  P3  1  0.56238300  0.89250500  0.75000100  1
  O  O0  1  0.65714100  0.03715900  0.74999800  1
  O  O1  1  0.15719000  0.46284400  0.25000100  1
  O  O2  1  0.84283500  0.53715400  0.74999900  1
  O  O3  1  0.34282200  0.96284800  0.25000100  1
  O  O4  1  0.74618800  0.11585100  0.25000200  1
  O  O5  1  0.24618700  0.38415200  0.74999800  1
  O  O6  1  0.75382200  0.61585100  0.25000100  1
  O  O7  1  0.25380700  0.88414400  0.74999800  1
  O  O8  1  0.30086300  0.17793800  0.05214900  1
  O  O9  1  0.30086200  0.17793900  0.44784600  1
  O  O10  1  0.80087500  0.32205600  0.55215000  1
  O  O11  1  0.80087700  0.32205600  0.94785500  1
  O  O12  1  0.19913800  0.67793800  0.05214700  1
  O  O13  1  0.19914000  0.67793700  0.44785000  1
  O  O14  1  0.69912600  0.82205800  0.55215300  1
  O  O15  1  0.69912400  0.82205900  0.94785100  1
loop_
_geom_bond_atom_site_label_1
_geom_bond_atom_site_label_2
_geom_bond_distance
_geom_bond_site_symmetry_2
Na0 O4 2.323209 1_565
Na0 O7 2.323276 1_654
Na0 O3 2.334241 1_655
Na0 O0 2.334308 1_564
Na0 O15 2.381514 1_554
Na0 O8 2.381541 1_665
Na1 O4 2.323189 1_565
Na1 O7 2.323256 1_655
Na1 O3 2.334235 1_655
Na1 O0 2.334293 1_565
Na1 O14 2.381518 1_555
Na1 O9 2.381549 1_665
Na2 O6 2.323203 1_555
Na2 O5 2.323287 1_554
Na2 O1 2.334207 1_555
Na2 O2 2.334211 1_554
Na2 O11 2.381528 1_554
Na2 O12 2.381529 1_555
Na3 O6 2.323190 1_555
Na3 O5 2.323271 1_555
Na3 O2 2.334199 1_555
Na3 O1 2.334203 1_555
Na3 O13 2.381520 1_555
Na3 O10 2.381522 1_555
Ni0 O1 2.044274 1_655
Ni0 O4 2.080069 1_555
Ni0 O10 2.136901 1_555
Ni0 O11 2.136943 1_554
Ni0 O9 2.233495 1_655
Ni0 O8 2.233571 1_655
Ni1 O3 2.044239 1_555
Ni1 O6 2.080111 1_555
Ni1 O14 2.136883 1_555
Ni1 O15 2.136912 1_554
Ni1 O13 2.233617 1_555
Ni1 O12 2.233665 1_555
Ni2 O0 2.044438 1_555
Ni2 O5 2.079725 1_555
Ni2 O9 2.136792 1_555
Ni2 O8 2.136829 1_556
Ni2 O10 2.233794 1_555
Ni2 O11 2.233860 1_555
Ni3 O2 2.044413 1_455
Ni3 O7 2.079787 1_555
Ni3 O13 2.136816 1_555
Ni3 O12 2.136857 1_556
Ni3 O14 2.233737 1_455
Ni3 O15 2.233805 1_455
O0 P3 1.555595 1_545
O1 P2 1.555607 1_555
O2 P1 1.555584 1_555
O3 P0 1.555589 1_565
O4 P0 1.538228 1_555
O5 P1 1.538260 1_455
O6 P2 1.538233 1_655
O7 P3 1.538246 1_555
O8 P0 1.575607 1_555
O9 P0 1.575602 1_555
O10 P1 1.575601 1_555
O11 P1 1.575600 1_555
O12 P2 1.575607 1_555
O13 P2 1.575604 1_555
O14 P3 1.575604 1_555
O15 P3 1.575602 1_555
