# generated using pymatgen
data_Ba6CaI14
_symmetry_space_group_name_H-M   'P 1'
_cell_length_a   15.97622722
_cell_length_b   15.97622722
_cell_length_c   8.47072400
_cell_angle_alpha   90.00000000
_cell_angle_beta   90.00000000
_cell_angle_gamma   98.41038470
_symmetry_Int_Tables_number   1
_chemical_formula_structural   Ba6CaI14
_chemical_formula_sum   'Ba12 Ca2 I28'
_cell_volume   2138.81499871
_cell_formula_units_Z   2
loop_
 _symmetry_equiv_pos_site_id
 _symmetry_equiv_pos_as_xyz
  1  'x, y, z'
loop_
 _atom_site_type_symbol
 _atom_site_label
 _atom_site_symmetry_multiplicity
 _atom_site_fract_x
 _atom_site_fract_y
 _atom_site_fract_z
 _atom_site_occupancy
  Ba  Ba0  1  0.75298400  0.05172800  0.31183700  1
  Ba  Ba1  1  0.94827200  0.24701600  0.68816300  1
  Ba  Ba2  1  0.55172800  0.25298400  0.18816300  1
  Ba  Ba3  1  0.74701600  0.44827200  0.81183700  1
  Ba  Ba4  1  0.69299700  0.69299700  0.26036500  1
  Ba  Ba5  1  0.19299700  0.19299700  0.23963500  1
  Ba  Ba6  1  0.30700300  0.30700300  0.73963500  1
  Ba  Ba7  1  0.80700300  0.80700300  0.76036500  1
  Ba  Ba8  1  0.44827200  0.74701600  0.81183700  1
  Ba  Ba9  1  0.25298400  0.55172800  0.18816300  1
  Ba  Ba10  1  0.05172800  0.75298400  0.31183700  1
  Ba  Ba11  1  0.24701600  0.94827200  0.68816300  1
  Ca  Ca0  1  0.00000000  0.00000000  0.00000000  1
  Ca  Ca1  1  0.50000000  0.50000000  0.50000000  1
  I  I0  1  0.96602400  0.14945500  0.22895100  1
  I  I1  1  0.85054500  0.03397600  0.77104900  1
  I  I2  1  0.74584500  0.25415500  0.00000000  1
  I  I3  1  0.95092000  0.45092000  0.75000000  1
  I  I4  1  0.54908000  0.04908000  0.25000000  1
  I  I5  1  0.75415500  0.24584500  0.50000000  1
  I  I6  1  0.36273800  0.16081500  0.00474300  1
  I  I7  1  0.33918500  0.13726200  0.50474300  1
  I  I8  1  0.83918500  0.63726200  0.99525700  1
  I  I9  1  0.86273800  0.66081500  0.49525700  1
  I  I10  1  0.64945500  0.46602400  0.27104900  1
  I  I11  1  0.53397600  0.35054500  0.72895100  1
  I  I12  1  0.12222700  0.12222700  0.79553300  1
  I  I13  1  0.37777300  0.37777300  0.29553300  1
  I  I14  1  0.62222700  0.62222700  0.70446700  1
  I  I15  1  0.87777300  0.87777300  0.20446700  1
  I  I16  1  0.35054500  0.53397600  0.72895100  1
  I  I17  1  0.46602400  0.64945500  0.27104900  1
  I  I18  1  0.63726200  0.83918500  0.99525700  1
  I  I19  1  0.13726200  0.33918500  0.50474300  1
  I  I20  1  0.16081500  0.36273800  0.00474300  1
  I  I21  1  0.66081500  0.86273800  0.49525700  1
  I  I22  1  0.24584500  0.75415500  0.50000000  1
  I  I23  1  0.04908000  0.54908000  0.25000000  1
  I  I24  1  0.45092000  0.95092000  0.75000000  1
  I  I25  1  0.25415500  0.74584500  0.00000000  1
  I  I26  1  0.14945500  0.96602400  0.22895100  1
  I  I27  1  0.03397600  0.85054500  0.77104900  1
loop_
_geom_bond_atom_site_label_1
_geom_bond_atom_site_label_2
_geom_bond_distance
_geom_bond_site_symmetry_2
Ba0 I4 3.293617 1_555
Ba0 I5 3.484482 1_555
Ba0 I21 3.521103 1_545
Ba0 I0 3.600066 1_555
Ba0 I15 3.761155 1_545
Ba0 I2 4.190135 1_555
Ba0 I1 4.215466 1_555
Ba1 I3 3.293617 1_555
Ba1 I5 3.484482 1_555
Ba1 I19 3.521103 1_655
Ba1 I1 3.600066 1_555
Ba1 I12 3.761155 1_655
Ba1 I2 4.190135 1_556
Ba1 I0 4.215466 1_555
Ba2 I4 3.293617 1_555
Ba2 I2 3.484482 1_555
Ba2 I6 3.521103 1_555
Ba2 I10 3.600066 1_555
Ba2 I13 3.761155 1_555
Ba2 I5 4.190135 1_555
Ba2 I11 4.215466 1_554
Ba3 I3 3.293617 1_555
Ba3 I2 3.484482 1_556
Ba3 I8 3.521103 1_555
Ba3 I11 3.600066 1_555
Ba3 I14 3.761155 1_555
Ba3 I5 4.190135 1_555
Ba3 I10 4.215466 1_556
Ba4 I8 3.449479 1_554
Ba4 I18 3.449479 1_554
Ba4 I9 3.461951 1_555
Ba4 I21 3.461951 1_555
Ba4 I10 3.592121 1_555
Ba4 I17 3.592121 1_555
Ba4 I15 3.886373 1_555
Ba4 I14 4.041580 1_555
Ba5 I19 3.449479 1_555
Ba5 I7 3.449479 1_555
Ba5 I20 3.461951 1_555
Ba5 I6 3.461951 1_555
Ba5 I0 3.592121 1_455
Ba5 I26 3.592121 1_545
Ba5 I13 3.886373 1_555
Ba5 I12 4.041580 1_554
Ba6 I20 3.449479 1_556
Ba6 I6 3.449479 1_556
Ba6 I19 3.461951 1_555
Ba6 I7 3.461951 1_555
Ba6 I16 3.592121 1_555
Ba6 I11 3.592121 1_555
Ba6 I12 3.886373 1_555
Ba6 I13 4.041580 1_555
Ba7 I21 3.449479 1_555
Ba7 I9 3.449479 1_555
Ba7 I18 3.461951 1_555
Ba7 I8 3.461951 1_555
Ba7 I1 3.592121 1_565
Ba7 I27 3.592121 1_655
Ba7 I14 3.886373 1_555
Ba7 I15 4.041580 1_556
Ba8 I24 3.293617 1_555
Ba8 I25 3.484482 1_556
Ba8 I18 3.521103 1_555
Ba8 I16 3.600066 1_555
Ba8 I14 3.761155 1_555
Ba8 I22 4.190135 1_555
Ba8 I17 4.215466 1_556
Ba9 I23 3.293617 1_555
Ba9 I25 3.484482 1_555
Ba9 I20 3.521103 1_555
Ba9 I17 3.600066 1_555
Ba9 I13 3.761155 1_555
Ba9 I22 4.190135 1_555
Ba9 I16 4.215466 1_554
Ba10 I23 3.293617 1_555
Ba10 I22 3.484482 1_555
Ba10 I9 3.521103 1_455
Ba10 I26 3.600066 1_555
Ba10 I15 3.761155 1_455
Ba10 I25 4.190135 1_555
Ba10 I27 4.215466 1_555
Ba11 I24 3.293617 1_555
Ba11 I22 3.484482 1_555
Ba11 I7 3.521103 1_565
Ba11 I27 3.600066 1_555
Ba11 I12 3.761155 1_565
Ba11 I25 4.190135 1_556
Ba11 I26 4.215466 1_555
Ca0 I15 3.083928 1_445
Ca0 I12 3.083928 1_554
Ca0 I1 3.183742 1_454
Ca0 I26 3.183742 1_545
Ca0 I0 3.183742 1_455
Ca0 I27 3.183742 1_544
Ca1 I14 3.083928 1_555
Ca1 I13 3.083928 1_555
Ca1 I10 3.183742 1_555
Ca1 I16 3.183742 1_555
Ca1 I17 3.183742 1_555
Ca1 I11 3.183742 1_555
