# generated using pymatgen
data_LiVAsCO7
_symmetry_space_group_name_H-M   'P 1'
_cell_length_a   8.46752571
_cell_length_b   8.46871734
_cell_length_c   10.24092404
_cell_angle_alpha   108.71499451
_cell_angle_beta   108.69307287
_cell_angle_gamma   98.80397891
_symmetry_Int_Tables_number   1
_chemical_formula_structural   LiVAsCO7
_chemical_formula_sum   'Li4 V4 As4 C4 O28'
_cell_volume   631.48091960
_cell_formula_units_Z   4
loop_
 _symmetry_equiv_pos_site_id
 _symmetry_equiv_pos_as_xyz
  1  'x, y, z'
loop_
 _atom_site_type_symbol
 _atom_site_label
 _atom_site_symmetry_multiplicity
 _atom_site_fract_x
 _atom_site_fract_y
 _atom_site_fract_z
 _atom_site_occupancy
  Li  Li0  1  0.49707800  0.91708800  0.16708000  1
  Li  Li1  1  0.99711700  0.41709500  0.16715600  1
  Li  Li2  1  0.83278200  0.75279300  0.83277800  1
  Li  Li3  1  0.33279200  0.25284800  0.83284000  1
  V  V0  1  0.42771500  0.69218000  0.32614300  1
  V  V1  1  0.05780300  0.82243600  0.67388500  1
  V  V2  1  0.92759500  0.19208500  0.32608300  1
  V  V3  1  0.55778100  0.32247200  0.67389100  1
  As  As0  1  0.69427200  0.46092800  0.44258100  1
  As  As1  1  0.19426600  0.96093900  0.44260900  1
  As  As2  1  0.78906900  0.05580300  0.55742700  1
  As  As3  1  0.28904000  0.55576700  0.55741900  1
  C  C0  1  0.77586300  0.01658000  0.05900300  1
  C  C1  1  0.27586000  0.51663500  0.05906900  1
  C  C2  1  0.73341100  0.47410800  0.94097300  1
  C  C3  1  0.23339200  0.97412600  0.94094800  1
  O  O0  1  0.33893200  0.02789100  0.07164700  1
  O  O1  1  0.83894500  0.52785700  0.07167000  1
  O  O2  1  0.22205300  0.41107400  0.92834700  1
  O  O3  1  0.72207300  0.91105900  0.92829000  1
  O  O4  1  0.90083300  0.16749700  0.12016300  1
  O  O5  1  0.40084000  0.66755200  0.12019900  1
  O  O6  1  0.58243100  0.34922300  0.87983600  1
  O  O7  1  0.08241300  0.84924300  0.87981800  1
  O  O8  1  0.72566200  0.99324000  0.16458800  1
  O  O9  1  0.22568200  0.49333100  0.16467300  1
  O  O10  1  0.75677500  0.52427800  0.83539100  1
  O  O11  1  0.25676400  0.02427500  0.83534400  1
  O  O12  1  0.57369100  0.54976200  0.32952300  1
  O  O13  1  0.07367200  0.04971400  0.32950700  1
  O  O14  1  0.69998300  0.17618800  0.67039900  1
  O  O15  1  0.19996600  0.67619900  0.67038400  1
  O  O16  1  0.77970900  0.34162700  0.32739700  1
  O  O17  1  0.27974200  0.84168900  0.32741400  1
  O  O18  1  0.90850200  0.97057400  0.67270400  1
  O  O19  1  0.40849900  0.47057500  0.67271600  1
  O  O20  1  0.62587400  0.90430200  0.39554100  1
  O  O21  1  0.12584900  0.40423600  0.39553400  1
  O  O22  1  0.84548100  0.62444500  0.60446200  1
  O  O23  1  0.34549000  0.12446200  0.60448100  1
  O  O24  1  0.55793700  0.32792900  0.48062600  1
  O  O25  1  0.05791800  0.82790100  0.48060400  1
  O  O26  1  0.92208800  0.19215300  0.51941800  1
  O  O27  1  0.42205600  0.69214300  0.51944000  1
loop_
_geom_bond_atom_site_label_1
_geom_bond_atom_site_label_2
_geom_bond_distance
_geom_bond_site_symmetry_2
Li0 O0 1.939881 1_565
Li0 O8 1.955250 1_555
Li0 O5 1.982771 1_555
Li0 O20 2.288718 1_555
Li1 O1 1.939990 1_555
Li1 O9 1.955188 1_655
Li1 O4 1.983057 1_555
Li1 O21 2.288159 1_655
Li2 O3 1.939849 1_555
Li2 O10 1.955262 1_555
Li2 O7 1.983303 1_655
Li2 O22 2.286058 1_555
Li3 O2 1.939813 1_555
Li3 O11 1.955271 1_555
Li3 O6 1.983361 1_555
Li3 O23 2.286494 1_555
As0 O24 1.710265 1_555
As0 O22 1.711363 1_555
As0 O16 1.715084 1_555
As0 O12 1.727812 1_555
As1 O25 1.710208 1_555
As1 O23 1.711379 1_565
As1 O17 1.715211 1_555
As1 O13 1.727771 1_565
As2 O26 1.710220 1_555
As2 O20 1.711139 1_545
As2 O18 1.715328 1_545
As2 O14 1.727668 1_555
As3 O27 1.710145 1_555
As3 O21 1.711201 1_555
As3 O19 1.715324 1_555
As3 O15 1.727724 1_555
C0 O3 1.230803 1_544
C0 O4 1.339027 1_555
C0 O8 1.339777 1_545
C1 O2 1.230966 1_554
C1 O5 1.339097 1_555
C1 O9 1.339746 1_555
C2 O1 1.230876 1_556
C2 O6 1.339046 1_555
C2 O10 1.339764 1_555
C3 O0 1.230895 1_566
C3 O7 1.339038 1_555
C3 O11 1.339905 1_565
O4 V2 1.984753 1_555
O5 V0 1.984679 1_555
O6 V3 1.984890 1_555
O7 V1 1.984738 1_555
O8 V2 2.003337 1_565
O9 V0 2.003669 1_555
O10 V3 2.003416 1_555
O11 V1 2.003302 1_545
O12 V0 1.854567 1_555
O13 V2 1.854921 1_455
O14 V3 1.855166 1_555
O15 V1 1.854614 1_555
O16 V2 1.912436 1_555
O17 V0 1.912780 1_555
O18 V1 1.912503 1_655
O19 V3 1.912155 1_555
O20 V0 2.010275 1_555
O21 V2 2.010797 1_455
O22 V1 2.010486 1_655
O23 V3 2.010436 1_555
O24 V3 1.994937 1_555
O25 V1 1.995014 1_555
O26 V2 1.995182 1_555
O27 V0 1.995512 1_555
