# generated using pymatgen
data_Mn2InO5
_symmetry_space_group_name_H-M   'P 1'
_cell_length_a   5.70907300
_cell_length_b   7.45038500
_cell_length_c   8.34657700
_cell_angle_alpha   90.00000000
_cell_angle_beta   90.00000000
_cell_angle_gamma   90.00000000
_symmetry_Int_Tables_number   1
_chemical_formula_structural   Mn2InO5
_chemical_formula_sum   'Mn8 In4 O20'
_cell_volume   355.01991530
_cell_formula_units_Z   4
loop_
 _symmetry_equiv_pos_site_id
 _symmetry_equiv_pos_as_xyz
  1  'x, y, z'
loop_
 _atom_site_type_symbol
 _atom_site_label
 _atom_site_symmetry_multiplicity
 _atom_site_fract_x
 _atom_site_fract_y
 _atom_site_fract_z
 _atom_site_occupancy
  Mn  Mn0  1  0.25315000  0.00000000  0.50000000  1
  Mn  Mn1  1  0.74685000  0.00000000  0.50000000  1
  Mn  Mn2  1  0.50000000  0.09720800  0.84687600  1
  Mn  Mn3  1  0.50000000  0.40279200  0.34687600  1
  Mn  Mn4  1  0.25315000  0.50000000  0.00000000  1
  Mn  Mn5  1  0.74685000  0.50000000  0.00000000  1
  Mn  Mn6  1  0.50000000  0.59720800  0.65312400  1
  Mn  Mn7  1  0.50000000  0.90279200  0.15312400  1
  In  In0  1  0.00000000  0.14533300  0.16208500  1
  In  In1  1  0.00000000  0.35466700  0.66208500  1
  In  In2  1  0.00000000  0.64533300  0.33791500  1
  In  In3  1  0.00000000  0.85466700  0.83791500  1
  O  O0  1  0.26256300  0.00000000  0.00000000  1
  O  O1  1  0.73743700  0.00000000  0.00000000  1
  O  O2  1  0.24138700  0.12394200  0.70057800  1
  O  O3  1  0.75861300  0.12394200  0.70057800  1
  O  O4  1  0.00000000  0.15507300  0.42990000  1
  O  O5  1  0.50000000  0.14123600  0.41609300  1
  O  O6  1  0.50000000  0.35876400  0.91609300  1
  O  O7  1  0.00000000  0.34492700  0.92990000  1
  O  O8  1  0.24138700  0.37605800  0.20057800  1
  O  O9  1  0.75861300  0.37605800  0.20057800  1
  O  O10  1  0.73743700  0.50000000  0.50000000  1
  O  O11  1  0.26256300  0.50000000  0.50000000  1
  O  O12  1  0.24138700  0.62394200  0.79942200  1
  O  O13  1  0.75861300  0.62394200  0.79942200  1
  O  O14  1  0.00000000  0.65507300  0.07010000  1
  O  O15  1  0.50000000  0.64123600  0.08390700  1
  O  O16  1  0.50000000  0.85876400  0.58390700  1
  O  O17  1  0.00000000  0.84492700  0.57010000  1
  O  O18  1  0.24138700  0.87605800  0.29942200  1
  O  O19  1  0.75861300  0.87605800  0.29942200  1
loop_
_geom_bond_atom_site_label_1
_geom_bond_atom_site_label_2
_geom_bond_distance
_geom_bond_site_symmetry_2
Mn0 O5 1.893096 1_555
Mn0 O16 1.893096 1_545
Mn0 O2 1.913100 1_555
Mn0 O18 1.913100 1_545
Mn0 O4 1.940601 1_555
Mn0 O17 1.940601 1_545
Mn1 O16 1.893096 1_545
Mn1 O5 1.893096 1_555
Mn1 O3 1.913100 1_555
Mn1 O19 1.913100 1_545
Mn1 O4 1.940601 1_655
Mn1 O17 1.940601 1_645
Mn2 O2 1.926293 1_555
Mn2 O3 1.926293 1_555
Mn2 O0 1.998865 1_556
Mn2 O1 1.998865 1_556
Mn2 O6 2.032528 1_555
Mn3 O9 1.926293 1_555
Mn3 O8 1.926293 1_555
Mn3 O10 1.998865 1_555
Mn3 O11 1.998865 1_555
Mn3 O5 2.032528 1_555
Mn4 O15 1.893096 1_555
Mn4 O6 1.893096 1_554
Mn4 O8 1.913100 1_555
Mn4 O12 1.913100 1_554
Mn4 O7 1.940601 1_554
Mn4 O14 1.940601 1_555
Mn5 O15 1.893096 1_555
Mn5 O6 1.893096 1_554
Mn5 O9 1.913100 1_555
Mn5 O13 1.913100 1_554
Mn5 O7 1.940601 1_654
Mn5 O14 1.940601 1_655
Mn6 O13 1.926293 1_555
Mn6 O12 1.926293 1_555
Mn6 O10 1.998865 1_555
Mn6 O11 1.998865 1_555
Mn6 O16 2.032528 1_555
Mn7 O19 1.926293 1_555
Mn7 O18 1.926293 1_555
Mn7 O1 1.998865 1_565
Mn7 O0 1.998865 1_565
Mn7 O15 2.032528 1_555
In0 O8 2.226499 1_555
In0 O9 2.226499 1_455
In0 O4 2.236516 1_555
In0 O1 2.291205 1_455
In0 O0 2.291205 1_555
In0 O7 2.442739 1_554
In0 O19 2.690351 1_445
In0 O18 2.690351 1_545
In1 O3 2.226499 1_455
In1 O2 2.226499 1_555
In1 O7 2.236516 1_555
In1 O10 2.291205 1_455
In1 O11 2.291205 1_555
In1 O4 2.442739 1_555
In1 O13 2.690351 1_455
In1 O12 2.690351 1_555
In2 O18 2.226499 1_555
In2 O19 2.226499 1_455
In2 O14 2.236516 1_555
In2 O10 2.291205 1_455
In2 O11 2.291205 1_555
In2 O17 2.442739 1_555
In2 O8 2.690351 1_555
In2 O9 2.690351 1_455
In3 O12 2.226499 1_555
In3 O13 2.226499 1_455
In3 O17 2.236516 1_555
In3 O1 2.291205 1_466
In3 O0 2.291205 1_566
In3 O14 2.442739 1_556
In3 O2 2.690351 1_565
In3 O3 2.690351 1_465
