# generated using pymatgen
data_Rb2V(OF2)2
_symmetry_space_group_name_H-M   'P 1'
_cell_length_a   6.37033201
_cell_length_b   6.37033201
_cell_length_c   8.69167700
_cell_angle_alpha   90.00000000
_cell_angle_beta   90.00000000
_cell_angle_gamma   95.64936009
_symmetry_Int_Tables_number   1
_chemical_formula_structural   Rb2V(OF2)2
_chemical_formula_sum   'Rb4 V2 O4 F8'
_cell_volume   351.00490871
_cell_formula_units_Z   2
loop_
 _symmetry_equiv_pos_site_id
 _symmetry_equiv_pos_as_xyz
  1  'x, y, z'
loop_
 _atom_site_type_symbol
 _atom_site_label
 _atom_site_symmetry_multiplicity
 _atom_site_fract_x
 _atom_site_fract_y
 _atom_site_fract_z
 _atom_site_occupancy
  Rb  Rb0  1  0.24011200  0.75988800  0.50000000  1
  Rb  Rb1  1  0.24011200  0.75988800  0.00000000  1
  Rb  Rb2  1  0.75988800  0.24011200  0.50000000  1
  Rb  Rb3  1  0.75988800  0.24011200  0.00000000  1
  V  V0  1  0.25861300  0.25861300  0.25000000  1
  V  V1  1  0.74138700  0.74138700  0.75000000  1
  O  O0  1  0.06220100  0.06220100  0.25000000  1
  O  O1  1  0.93779900  0.93779900  0.75000000  1
  O  O2  1  0.48929400  0.48929400  0.25000000  1
  O  O3  1  0.51070600  0.51070600  0.75000000  1
  F  F0  1  0.29252200  0.29252200  0.46220100  1
  F  F1  1  0.70747800  0.70747800  0.53779900  1
  F  F2  1  0.29252200  0.29252200  0.03779900  1
  F  F3  1  0.70747800  0.70747800  0.96220100  1
  F  F4  1  0.46800800  0.06564700  0.25000000  1
  F  F5  1  0.93435300  0.53199200  0.75000000  1
  F  F6  1  0.53199200  0.93435300  0.75000000  1
  F  F7  1  0.06564700  0.46800800  0.25000000  1
loop_
_geom_bond_atom_site_label_1
_geom_bond_atom_site_label_2
_geom_bond_distance
_geom_bond_site_symmetry_2
O0 V0 1.680128 1_555
O0 Rb0 3.185063 1_545
O0 Rb2 3.185063 1_455
O0 Rb1 3.185063 1_545
O0 Rb3 3.185063 1_455
O1 V1 1.680128 1_555
O1 Rb2 3.185063 1_565
O1 Rb0 3.185063 1_655
O1 Rb1 3.185063 1_656
O1 Rb3 3.185063 1_566
O2 V0 1.973268 1_555
O2 Rb2 3.278939 1_555
O2 Rb3 3.278939 1_555
O2 Rb0 3.278939 1_555
O2 Rb1 3.278939 1_555
O3 V1 1.973268 1_555
O3 Rb0 3.278939 1_555
O3 Rb1 3.278939 1_556
O3 Rb2 3.278939 1_555
O3 Rb3 3.278939 1_556
F0 V0 1.867052 1_555
F0 Rb2 3.046192 1_555
F0 Rb0 3.046192 1_555
F0 Rb0 3.392521 1_545
F0 Rb2 3.392521 1_455
F1 V1 1.867052 1_555
F1 Rb0 3.046192 1_555
F1 Rb2 3.046192 1_555
F1 Rb2 3.392521 1_565
F1 Rb0 3.392521 1_655
F2 V0 1.867052 1_555
F2 Rb3 3.046192 1_555
F2 Rb1 3.046192 1_555
F2 Rb1 3.392521 1_545
F2 Rb3 3.392521 1_455
F3 V1 1.867052 1_555
F3 Rb1 3.046192 1_556
F3 Rb3 3.046192 1_556
F3 Rb3 3.392521 1_566
F3 Rb1 3.392521 1_656
F4 V0 1.900851 1_555
F4 Rb2 3.001200 1_555
F4 Rb3 3.001200 1_555
F4 Rb0 3.172754 1_545
F4 Rb1 3.172754 1_545
F5 V1 1.900851 1_555
F5 Rb2 3.001200 1_555
F5 Rb3 3.001200 1_556
F5 Rb1 3.172754 1_656
F5 Rb0 3.172754 1_655
F6 V1 1.900851 1_555
F6 Rb1 3.001200 1_556
F6 Rb0 3.001200 1_555
F6 Rb2 3.172754 1_565
F6 Rb3 3.172754 1_566
F7 V0 1.900851 1_555
F7 Rb1 3.001200 1_555
F7 Rb0 3.001200 1_555
F7 Rb2 3.172754 1_455
F7 Rb3 3.172754 1_455
