# generated using pymatgen
data_Li2Mn3ZnO8
_symmetry_space_group_name_H-M   'P 1'
_cell_length_a   8.30234800
_cell_length_b   8.30234800
_cell_length_c   8.30234800
_cell_angle_alpha   90.00000000
_cell_angle_beta   90.00000000
_cell_angle_gamma   90.00000000
_symmetry_Int_Tables_number   1
_chemical_formula_structural   Li2Mn3ZnO8
_chemical_formula_sum   'Li8 Mn12 Zn4 O32'
_cell_volume   572.27239845
_cell_formula_units_Z   4
loop_
 _symmetry_equiv_pos_site_id
 _symmetry_equiv_pos_as_xyz
  1  'x, y, z'
loop_
 _atom_site_type_symbol
 _atom_site_label
 _atom_site_symmetry_multiplicity
 _atom_site_fract_x
 _atom_site_fract_y
 _atom_site_fract_z
 _atom_site_occupancy
  Li  Li0  1  0.12505700  0.87494300  0.37494300  1
  Li  Li1  1  0.24938000  0.24938000  0.24938000  1
  Li  Li2  1  0.75062000  0.74938000  0.25062000  1
  Li  Li3  1  0.87494300  0.37494300  0.12505700  1
  Li  Li4  1  0.37494300  0.12505700  0.87494300  1
  Li  Li5  1  0.25062000  0.75062000  0.74938000  1
  Li  Li6  1  0.74938000  0.25062000  0.75062000  1
  Li  Li7  1  0.62505700  0.62505700  0.62505700  1
  Mn  Mn0  1  0.37780100  0.87601200  0.12304200  1
  Mn  Mn1  1  0.12398800  0.62304200  0.12219900  1
  Mn  Mn2  1  0.12304200  0.37780100  0.87601200  1
  Mn  Mn3  1  0.12219900  0.12398800  0.62304200  1
  Mn  Mn4  1  0.37695800  0.62219900  0.37601200  1
  Mn  Mn5  1  0.62398800  0.87695800  0.87780100  1
  Mn  Mn6  1  0.62219900  0.37601200  0.37695800  1
  Mn  Mn7  1  0.37601200  0.37695800  0.62219900  1
  Mn  Mn8  1  0.62304200  0.12219900  0.12398800  1
  Mn  Mn9  1  0.87780100  0.62398800  0.87695800  1
  Mn  Mn10  1  0.87695800  0.87780100  0.62398800  1
  Mn  Mn11  1  0.87601200  0.12304200  0.37780100  1
  Zn  Zn0  1  0.49870600  0.99870600  0.50129400  1
  Zn  Zn1  1  0.00129400  0.00129400  0.00129400  1
  Zn  Zn2  1  0.99870600  0.50129400  0.49870600  1
  Zn  Zn3  1  0.50129400  0.49870600  0.99870600  1
  O  O0  1  0.60603600  0.60129600  0.37115500  1
  O  O1  1  0.38669400  0.38669400  0.38669400  1
  O  O2  1  0.10603600  0.89870400  0.62884500  1
  O  O3  1  0.62884500  0.10603600  0.89870400  1
  O  O4  1  0.87877000  0.64808300  0.64146100  1
  O  O5  1  0.64808300  0.64146100  0.87877000  1
  O  O6  1  0.12884500  0.39396400  0.10129600  1
  O  O7  1  0.60129600  0.37115500  0.60603600  1
  O  O8  1  0.89396400  0.39870400  0.87115500  1
  O  O9  1  0.14808300  0.85853900  0.12123000  1
  O  O10  1  0.64146100  0.87877000  0.64808300  1
  O  O11  1  0.37115500  0.60603600  0.60129600  1
  O  O12  1  0.10129600  0.12884500  0.39396400  1
  O  O13  1  0.88669400  0.11330600  0.61330600  1
  O  O14  1  0.37877000  0.85191700  0.35853900  1
  O  O15  1  0.39870400  0.87115500  0.89396400  1
  O  O16  1  0.35853900  0.37877000  0.85191700  1
  O  O17  1  0.35191700  0.14146100  0.62123000  1
  O  O18  1  0.61330600  0.88669400  0.11330600  1
  O  O19  1  0.86290500  0.86290500  0.86290500  1
  O  O20  1  0.11330600  0.61330600  0.88669400  1
  O  O21  1  0.36290500  0.63709500  0.13709500  1
  O  O22  1  0.12123000  0.14808300  0.85853900  1
  O  O23  1  0.89870400  0.62884500  0.10603600  1
  O  O24  1  0.63709500  0.13709500  0.36290500  1
  O  O25  1  0.85191700  0.35853900  0.37877000  1
  O  O26  1  0.14146100  0.62123000  0.35191700  1
  O  O27  1  0.39396400  0.10129600  0.12884500  1
  O  O28  1  0.87115500  0.89396400  0.39870400  1
  O  O29  1  0.13709500  0.36290500  0.63709500  1
  O  O30  1  0.62123000  0.35191700  0.14146100  1
  O  O31  1  0.85853900  0.12123000  0.14808300  1
loop_
_geom_bond_atom_site_label_1
_geom_bond_atom_site_label_2
_geom_bond_distance
_geom_bond_site_symmetry_2
Li0 O14 2.119451 1_555
Li0 O26 2.119451 1_555
Li0 O9 2.119451 1_555
Li0 O28 2.123075 1_455
Li0 O2 2.123075 1_555
Li0 O12 2.123075 1_565
Li1 O1 1.974587 1_555
Li1 O27 1.988444 1_555
Li1 O12 1.988444 1_555
Li1 O6 1.988444 1_555
Li2 O18 1.974587 1_555
Li2 O0 1.988444 1_555
Li2 O28 1.988444 1_555
Li2 O23 1.988444 1_555
Li3 O25 2.119451 1_555
Li3 O30 2.119451 1_555
Li3 O31 2.119451 1_555
Li3 O23 2.123075 1_555
Li3 O8 2.123075 1_554
Li3 O6 2.123075 1_655
Li4 O16 2.119451 1_555
Li4 O17 2.119451 1_555
Li4 O22 2.119451 1_555
Li4 O3 2.123075 1_555
Li4 O15 2.123075 1_545
Li4 O27 2.123075 1_556
Li5 O20 1.974587 1_555
Li5 O11 1.988444 1_555
Li5 O15 1.988444 1_555
Li5 O2 1.988444 1_555
Li6 O13 1.974587 1_555
Li6 O7 1.988444 1_555
Li6 O8 1.988444 1_555
Li6 O3 1.988444 1_555
Li7 O4 2.119451 1_555
Li7 O5 2.119451 1_555
Li7 O10 2.119451 1_555
Li7 O0 2.123075 1_555
Li7 O11 2.123075 1_555
Li7 O7 2.123075 1_555
Mn0 O27 1.875813 1_565
Mn0 O15 1.910212 1_554
Mn0 O9 1.912767 1_555
Mn0 O18 1.958923 1_555
Mn0 O14 1.965402 1_555
Mn0 O21 1.990845 1_555
Mn1 O23 1.875813 1_455
Mn1 O6 1.910212 1_555
Mn1 O26 1.912767 1_555
Mn1 O20 1.958923 1_554
Mn1 O9 1.965402 1_555
Mn1 O21 1.990845 1_555
Mn2 O6 1.875813 1_556
Mn2 O8 1.910212 1_455
Mn2 O22 1.912767 1_555
Mn2 O20 1.958923 1_555
Mn2 O16 1.965402 1_555
Mn2 O29 1.990845 1_555
Mn3 O2 1.875813 1_545
Mn3 O12 1.910212 1_555
Mn3 O17 1.912767 1_555
Mn3 O13 1.958923 1_455
Mn3 O22 1.965402 1_555
Mn3 O29 1.990845 1_555
Mn4 O11 1.875813 1_555
Mn4 O0 1.910212 1_555
Mn4 O14 1.912767 1_555
Mn4 O1 1.958923 1_555
Mn4 O26 1.965402 1_555
Mn4 O21 1.990845 1_555
Mn5 O15 1.875813 1_555
Mn5 O3 1.910212 1_565
Mn5 O10 1.912767 1_555
Mn5 O18 1.958923 1_556
Mn5 O5 1.965402 1_555
Mn5 O19 1.990845 1_555
Mn6 O0 1.875813 1_555
Mn6 O7 1.910212 1_555
Mn6 O25 1.912767 1_555
Mn6 O1 1.958923 1_555
Mn6 O30 1.965402 1_555
Mn6 O24 1.990845 1_555
Mn7 O7 1.875813 1_555
Mn7 O11 1.910212 1_555
Mn7 O16 1.912767 1_555
Mn7 O1 1.958923 1_555
Mn7 O17 1.965402 1_555
Mn7 O29 1.990845 1_555
Mn8 O3 1.875813 1_554
Mn8 O27 1.910212 1_555
Mn8 O30 1.912767 1_555
Mn8 O18 1.958923 1_545
Mn8 O31 1.965402 1_555
Mn8 O24 1.990845 1_555
Mn9 O8 1.875813 1_555
Mn9 O23 1.910212 1_556
Mn9 O5 1.912767 1_555
Mn9 O20 1.958923 1_655
Mn9 O4 1.965402 1_555
Mn9 O19 1.990845 1_555
Mn10 O28 1.875813 1_555
Mn10 O2 1.910212 1_655
Mn10 O4 1.912767 1_555
Mn10 O13 1.958923 1_565
Mn10 O10 1.965402 1_555
Mn10 O19 1.990845 1_555
Mn11 O12 1.875813 1_655
Mn11 O28 1.910212 1_545
Mn11 O31 1.912767 1_555
Mn11 O13 1.958923 1_555
Mn11 O25 1.965402 1_555
Mn11 O24 1.990845 1_555
O4 Zn2 1.970136 1_555
O5 Zn3 1.970136 1_555
O9 Zn1 1.970136 1_565
O10 Zn0 1.970136 1_555
O14 Zn0 1.970136 1_555
O16 Zn3 1.970136 1_555
O17 Zn0 1.970136 1_545
O19 Zn1 1.990046 1_666
O21 Zn3 1.990046 1_554
O22 Zn1 1.970136 1_556
O24 Zn0 1.990046 1_545
O25 Zn2 1.970136 1_555
O26 Zn2 1.970136 1_455
O29 Zn2 1.990046 1_455
O30 Zn3 1.970136 1_554
O31 Zn1 1.970136 1_655
