# generated using pymatgen
data_LiFe2(BO3)2
_symmetry_space_group_name_H-M   'P 1'
_cell_length_a   5.25805000
_cell_length_b   5.27766231
_cell_length_c   20.12262996
_cell_angle_alpha   91.11036630
_cell_angle_beta   90.64206370
_cell_angle_gamma   118.74385465
_symmetry_Int_Tables_number   1
_chemical_formula_structural   LiFe2(BO3)2
_chemical_formula_sum   'Li4 Fe8 B8 O24'
_cell_volume   489.37325560
_cell_formula_units_Z   4
loop_
 _symmetry_equiv_pos_site_id
 _symmetry_equiv_pos_as_xyz
  1  'x, y, z'
loop_
 _atom_site_type_symbol
 _atom_site_label
 _atom_site_symmetry_multiplicity
 _atom_site_fract_x
 _atom_site_fract_y
 _atom_site_fract_z
 _atom_site_occupancy
  Li  Li0  1  0.64671800  0.66962800  0.07712100  1
  Li  Li1  1  0.66531000  0.64223500  0.82680200  1
  Li  Li2  1  0.35018200  0.34539500  0.21058000  1
  Li  Li3  1  0.34751100  0.35189500  0.45556000  1
  Fe  Fe0  1  0.01520100  0.67562900  0.19184400  1
  Fe  Fe1  1  0.00793400  0.67493400  0.68931400  1
  Fe  Fe2  1  0.31473600  0.00618400  0.06316600  1
  Fe  Fe3  1  0.32089100  0.98640500  0.56459000  1
  Fe  Fe4  1  0.67631800  0.99036000  0.43810400  1
  Fe  Fe5  1  0.67857100  0.02424400  0.93815500  1
  Fe  Fe6  1  0.97975900  0.33189400  0.32068900  1
  Fe  Fe7  1  0.00899600  0.31699100  0.81173100  1
  B  B0  1  0.99727700  0.34206000  0.06637500  1
  B  B1  1  0.99153900  0.33168100  0.56432300  1
  B  B2  1  0.66874600  0.00713600  0.18694300  1
  B  B3  1  0.66445100  0.00680200  0.68871200  1
  B  B4  1  0.34163900  0.00529600  0.30999300  1
  B  B5  1  0.33860700  0.99357800  0.81503900  1
  B  B6  1  0.00007600  0.65741400  0.44143400  1
  B  B7  1  0.01346400  0.67433100  0.93686600  1
  O  O0  1  0.91063100  0.26696300  0.20394800  1
  O  O1  1  0.87946200  0.27689800  0.71054000  1
  O  O2  1  0.74783100  0.09260200  0.04307500  1
  O  O3  1  0.97277000  0.58692500  0.08680400  1
  O  O4  1  0.72006400  0.11488800  0.54501600  1
  O  O5  1  0.01898900  0.59599000  0.58780200  1
  O  O6  1  0.40479800  0.00133200  0.17087200  1
  O  O7  1  0.73830600  0.64984800  0.44077000  1
  O  O8  1  0.39737400  0.98017700  0.66704700  1
  O  O9  1  0.78962800  0.73352500  0.92865200  1
  O  O10  1  0.68626500  0.75384600  0.18097700  1
  O  O11  1  0.71196200  0.77673300  0.69103900  1
  O  O12  1  0.30566500  0.24010000  0.30172400  1
  O  O13  1  0.34903500  0.25497200  0.81684900  1
  O  O14  1  0.26013200  0.34977000  0.07037600  1
  O  O15  1  0.58601000  0.01379700  0.33666100  1
  O  O16  1  0.23017700  0.29409900  0.55791500  1
  O  O17  1  0.58191900  0.96947400  0.83670400  1
  O  O18  1  0.02901200  0.41518100  0.42292800  1
  O  O19  1  0.97530400  0.40461100  0.91850700  1
  O  O20  1  0.25314900  0.90755000  0.46399800  1
  O  O21  1  0.28054100  0.88143300  0.96260800  1
  O  O22  1  0.11867100  0.73141400  0.28484900  1
  O  O23  1  0.09152800  0.74092400  0.79224400  1
loop_
_geom_bond_atom_site_label_1
_geom_bond_atom_site_label_2
_geom_bond_distance
_geom_bond_site_symmetry_2
Li0 O14 1.919531 1_555
Li0 O3 1.970572 1_555
Li0 O10 2.115103 1_555
Li0 O2 2.158981 1_565
Li1 O13 1.921093 1_555
Li1 O17 1.982837 1_555
Li1 O9 2.118638 1_555
Li1 O23 2.168776 1_655
Li2 O12 1.910860 1_555
Li2 O6 2.113923 1_555
Li2 O10 2.129339 1_555
Li2 O0 2.145118 1_455
Li3 O7 1.925543 1_555
Li3 O18 1.967011 1_555
Li3 O16 2.141883 1_555
Li3 O20 2.161654 1_545
Fe0 O22 1.920149 1_555
Fe0 O10 1.972642 1_455
Fe0 O0 1.973885 1_455
Fe0 O6 1.997513 1_565
Fe0 O3 2.141778 1_455
Fe1 O11 1.875198 1_455
Fe1 O1 1.930830 1_455
Fe1 O8 1.965924 1_555
Fe1 O5 2.083870 1_555
Fe1 O23 2.099729 1_555
Fe2 O14 1.970564 1_555
Fe2 O21 2.094441 1_544
Fe2 O2 2.141521 1_555
Fe2 O3 2.142141 1_445
Fe2 O6 2.216535 1_555
Fe3 O16 1.906465 1_565
Fe3 O4 1.918397 1_565
Fe3 O5 1.972737 1_555
Fe3 O20 2.050848 1_555
Fe3 O8 2.100045 1_555
Fe4 O7 1.976212 1_555
Fe4 O15 2.110032 1_565
Fe4 O20 2.124347 1_555
Fe4 O18 2.144631 1_665
Fe4 O4 2.214016 1_565
Fe5 O9 1.893287 1_545
Fe5 O19 1.911197 1_555
Fe5 O21 1.926289 1_545
Fe5 O17 2.078937 1_545
Fe5 O2 2.132395 1_556
Fe6 O15 1.975085 1_555
Fe6 O22 2.022134 1_655
Fe6 O12 2.030472 1_655
Fe6 O18 2.082393 1_655
Fe6 O0 2.365978 1_555
Fe7 O13 1.968379 1_555
Fe7 O23 2.109958 1_555
Fe7 O1 2.113883 1_455
Fe7 O17 2.181478 1_445
Fe7 O19 2.215983 1_455
B0 O14 1.364419 1_655
B0 O2 1.405319 1_555
B0 O3 1.412952 1_555
B1 O16 1.368364 1_655
B1 O4 1.377366 1_555
B1 O5 1.403273 1_655
B2 O0 1.381931 1_555
B2 O10 1.386484 1_545
B2 O6 1.407239 1_555
B3 O11 1.353746 1_545
B3 O1 1.384794 1_555
B3 O8 1.405699 1_545
B4 O12 1.353460 1_555
B4 O15 1.367172 1_555
B4 O22 1.431190 1_545
B5 O13 1.353789 1_565
B5 O23 1.404646 1_555
B5 O17 1.410372 1_555
B6 O7 1.357555 1_455
B6 O18 1.402172 1_555
B6 O20 1.411837 1_555
B7 O9 1.364325 1_455
B7 O19 1.380694 1_455
B7 O21 1.385839 1_555
