# generated using pymatgen
data_LiMn3P3O11
_symmetry_space_group_name_H-M   'P 1'
_cell_length_a   9.84601200
_cell_length_b   10.12680000
_cell_length_c   10.74588861
_cell_angle_alpha   58.01651123
_cell_angle_beta   90.00000000
_cell_angle_gamma   90.00000000
_symmetry_Int_Tables_number   1
_chemical_formula_structural   LiMn3P3O11
_chemical_formula_sum   'Li4 Mn12 P12 O44'
_cell_volume   908.81103311
_cell_formula_units_Z   4
loop_
 _symmetry_equiv_pos_site_id
 _symmetry_equiv_pos_as_xyz
  1  'x, y, z'
loop_
 _atom_site_type_symbol
 _atom_site_label
 _atom_site_symmetry_multiplicity
 _atom_site_fract_x
 _atom_site_fract_y
 _atom_site_fract_z
 _atom_site_occupancy
  Li  Li0  1  0.80474200  0.34998600  0.11520400  1
  Li  Li1  1  0.69525800  0.34998600  0.61520400  1
  Li  Li2  1  0.30474200  0.65001400  0.38479600  1
  Li  Li3  1  0.19525800  0.65001400  0.88479600  1
  Mn  Mn0  1  0.88263300  0.71718200  0.65139700  1
  Mn  Mn1  1  0.63911400  0.09256000  0.39045000  1
  Mn  Mn2  1  0.36491400  0.08402100  0.22912100  1
  Mn  Mn3  1  0.38263300  0.28281800  0.84860300  1
  Mn  Mn4  1  0.86491400  0.91597900  0.27087900  1
  Mn  Mn5  1  0.86088600  0.09256000  0.89045000  1
  Mn  Mn6  1  0.13911400  0.90744000  0.10955000  1
  Mn  Mn7  1  0.13508600  0.08402100  0.72912100  1
  Mn  Mn8  1  0.61736700  0.71718200  0.15139700  1
  Mn  Mn9  1  0.63508600  0.91597900  0.77087900  1
  Mn  Mn10  1  0.36088600  0.90744000  0.60955000  1
  Mn  Mn11  1  0.11736700  0.28281800  0.34860300  1
  P  P0  1  0.56461100  0.59888600  0.76095200  1
  P  P1  1  0.06461100  0.40111400  0.73904800  1
  P  P2  1  0.06956500  0.23981700  0.05963800  1
  P  P3  1  0.65461900  0.11725000  0.05721900  1
  P  P4  1  0.15461900  0.88275000  0.44278100  1
  P  P5  1  0.43043500  0.23981700  0.55963800  1
  P  P6  1  0.56956500  0.76018300  0.44036200  1
  P  P7  1  0.84538100  0.11725000  0.55721900  1
  P  P8  1  0.34538100  0.88275000  0.94278100  1
  P  P9  1  0.93043500  0.76018300  0.94036200  1
  P  P10  1  0.93538900  0.59888600  0.26095200  1
  P  P11  1  0.43538900  0.40111400  0.23904800  1
  O  O0  1  0.21199800  0.76762000  0.59615600  1
  O  O1  1  0.71680400  0.57658800  0.78720900  1
  O  O2  1  0.53094700  0.61699500  0.60034600  1
  O  O3  1  0.47079700  0.46716900  0.86345300  1
  O  O4  1  0.47825900  0.24146800  0.26429600  1
  O  O5  1  0.01027200  0.28515800  0.16319100  1
  O  O6  1  0.97079700  0.53283100  0.63654700  1
  O  O7  1  0.03094700  0.38300500  0.89965400  1
  O  O8  1  0.21680400  0.42341200  0.71279100  1
  O  O9  1  0.21278600  0.04882200  0.39676000  1
  O  O10  1  0.22387600  0.21821900  0.05994900  1
  O  O11  1  0.71619400  0.14796000  0.17532800  1
  O  O12  1  0.71199800  0.23238000  0.90384400  1
  O  O13  1  0.49750300  0.11975400  0.05729100  1
  O  O14  1  0.49862300  0.91055300  0.41792900  1
  O  O15  1  0.99862300  0.08944700  0.08207100  1
  O  O16  1  0.02174100  0.24146800  0.76429600  1
  O  O17  1  0.99750400  0.88024600  0.44270900  1
  O  O18  1  0.48972800  0.28515800  0.66319100  1
  O  O19  1  0.21619400  0.85204000  0.32467200  1
  O  O20  1  0.28721400  0.04882200  0.89676000  1
  O  O21  1  0.27612400  0.21821900  0.55994900  1
  O  O22  1  0.72387600  0.78178100  0.44005100  1
  O  O23  1  0.71278600  0.95117800  0.10324000  1
  O  O24  1  0.78380600  0.14796000  0.67532800  1
  O  O25  1  0.51027200  0.71484200  0.33680900  1
  O  O26  1  0.00249700  0.11975400  0.55729100  1
  O  O27  1  0.97825900  0.75853200  0.23570400  1
  O  O28  1  0.00137700  0.91055300  0.91792900  1
  O  O29  1  0.50137700  0.08944700  0.58207100  1
  O  O30  1  0.50249700  0.88024600  0.94270900  1
  O  O31  1  0.28800200  0.76762000  0.09615600  1
  O  O32  1  0.28380600  0.85204000  0.82467200  1
  O  O33  1  0.77612400  0.78178100  0.94005100  1
  O  O34  1  0.78721400  0.95117800  0.60324000  1
  O  O35  1  0.78319600  0.57658800  0.28720900  1
  O  O36  1  0.96905300  0.61699500  0.10034600  1
  O  O37  1  0.02920300  0.46716900  0.36345300  1
  O  O38  1  0.98972800  0.71484200  0.83680900  1
  O  O39  1  0.52174100  0.75853200  0.73570400  1
  O  O40  1  0.52920300  0.53283100  0.13654700  1
  O  O41  1  0.46905300  0.38300500  0.39965400  1
  O  O42  1  0.28319600  0.42341200  0.21279100  1
  O  O43  1  0.78800200  0.23238000  0.40384400  1
loop_
_geom_bond_atom_site_label_1
_geom_bond_atom_site_label_2
_geom_bond_distance
_geom_bond_site_symmetry_2
Li0 O11 1.990701 1_555
Li0 O5 2.105573 1_655
Li1 O24 1.990701 1_555
Li1 O18 2.105573 1_555
Li2 O19 1.990701 1_555
Li2 O25 2.105573 1_555
Li3 O32 1.990701 1_555
Li3 O38 2.105573 1_455
Mn0 O6 2.140059 1_555
Mn0 O1 2.149817 1_555
Mn0 O38 2.243246 1_555
Mn0 O17 2.260998 1_555
Mn0 O34 2.338068 1_555
Mn0 O22 2.540732 1_555
Mn1 O43 2.095347 1_555
Mn1 O4 2.110565 1_555
Mn1 O14 2.195742 1_545
Mn1 O11 2.204699 1_555
Mn1 O34 2.436532 1_545
Mn1 O29 2.451825 1_555
Mn2 O10 2.112552 1_555
Mn2 O13 2.129981 1_555
Mn2 O4 2.137519 1_555
Mn2 O9 2.221608 1_555
Mn2 O14 2.271539 1_545
Mn2 O19 2.482340 1_545
Mn3 O3 2.140059 1_555
Mn3 O8 2.149817 1_555
Mn3 O18 2.243246 1_555
Mn3 O13 2.260993 1_556
Mn3 O20 2.338068 1_555
Mn3 O10 2.540732 1_556
Mn4 O22 2.112552 1_555
Mn4 O17 2.129987 1_555
Mn4 O27 2.137519 1_555
Mn4 O23 2.221608 1_555
Mn4 O15 2.271539 1_565
Mn4 O11 2.482340 1_565
Mn5 O12 2.095347 1_555
Mn5 O16 2.110565 1_655
Mn5 O28 2.195742 1_645
Mn5 O24 2.204699 1_555
Mn5 O23 2.436532 1_546
Mn5 O15 2.451825 1_556
Mn6 O31 2.095347 1_555
Mn6 O27 2.110565 1_455
Mn6 O15 2.195742 1_465
Mn6 O19 2.204699 1_555
Mn6 O20 2.436532 1_564
Mn6 O28 2.451825 1_554
Mn7 O21 2.112552 1_555
Mn7 O26 2.129981 1_555
Mn7 O16 2.137519 1_555
Mn7 O20 2.221608 1_555
Mn7 O28 2.271539 1_545
Mn7 O32 2.482340 1_545
Mn8 O40 2.140059 1_555
Mn8 O35 2.149817 1_555
Mn8 O25 2.243246 1_555
Mn8 O30 2.260993 1_554
Mn8 O23 2.338068 1_555
Mn8 O33 2.540732 1_554
Mn9 O33 2.112552 1_555
Mn9 O30 2.129981 1_555
Mn9 O39 2.137519 1_555
Mn9 O34 2.221608 1_555
Mn9 O29 2.271539 1_565
Mn9 O24 2.482340 1_565
Mn10 O0 2.095347 1_555
Mn10 O39 2.110565 1_555
Mn10 O29 2.195742 1_565
Mn10 O32 2.204699 1_555
Mn10 O9 2.436532 1_565
Mn10 O14 2.451825 1_555
Mn11 O37 2.140059 1_555
Mn11 O42 2.149817 1_555
Mn11 O5 2.243246 1_555
Mn11 O26 2.260993 1_555
Mn11 O9 2.338068 1_555
Mn11 O21 2.540732 1_555
O0 P4 1.535992 1_555
O1 P0 1.519405 1_555
O2 P6 1.600600 1_555
O2 P0 1.669366 1_555
O3 P0 1.513023 1_555
O4 P11 1.549465 1_555
O5 P2 1.526816 1_555
O6 P1 1.513023 1_655
O7 P2 1.600600 1_556
O7 P1 1.669366 1_555
O8 P1 1.519405 1_555
O9 P4 1.587414 1_545
O10 P2 1.534762 1_555
O11 P3 1.579002 1_555
O12 P3 1.535992 1_556
O13 P3 1.547181 1_555
O14 P6 1.573518 1_555
O15 P2 1.573518 1_655
O16 P1 1.549465 1_555
O17 P4 1.547171 1_655
O18 P5 1.526816 1_555
O19 P4 1.579002 1_555
O20 P8 1.587414 1_545
O21 P5 1.534762 1_555
O22 P6 1.534762 1_555
O23 P3 1.587414 1_565
O24 P7 1.579002 1_555
O25 P6 1.526816 1_555
O26 P7 1.547181 1_455
O27 P10 1.549465 1_555
O28 P9 1.573518 1_455
O29 P5 1.573518 1_555
O30 P8 1.547181 1_555
O31 P8 1.535992 1_554
O32 P8 1.579002 1_555
O33 P9 1.534762 1_555
O34 P7 1.587414 1_565
O35 P10 1.519405 1_555
O36 P9 1.600600 1_554
O36 P10 1.669366 1_555
O37 P10 1.513023 1_455
O38 P9 1.526816 1_555
O39 P0 1.549465 1_555
O40 P11 1.513023 1_555
O41 P5 1.600600 1_555
O41 P11 1.669366 1_555
O42 P11 1.519405 1_555
O43 P7 1.535992 1_555
