# generated using pymatgen
data_LiFe3(OF3)2
_symmetry_space_group_name_H-M   'P 1'
_cell_length_a   5.17885200
_cell_length_b   7.15166119
_cell_length_c   7.54998025
_cell_angle_alpha   78.92283122
_cell_angle_beta   89.18760757
_cell_angle_gamma   89.73037082
_symmetry_Int_Tables_number   1
_chemical_formula_structural   LiFe3(OF3)2
_chemical_formula_sum   'Li2 Fe6 O4 F12'
_cell_volume   274.39372369
_cell_formula_units_Z   2
loop_
 _symmetry_equiv_pos_site_id
 _symmetry_equiv_pos_as_xyz
  1  'x, y, z'
loop_
 _atom_site_type_symbol
 _atom_site_label
 _atom_site_symmetry_multiplicity
 _atom_site_fract_x
 _atom_site_fract_y
 _atom_site_fract_z
 _atom_site_occupancy
  Li  Li0  1  0.21387700  0.16079400  0.16312000  1
  Li  Li1  1  0.78612300  0.83920600  0.83688000  1
  Fe  Fe0  1  0.28622200  0.66131300  0.17856100  1
  Fe  Fe1  1  0.75796100  0.83187200  0.32445600  1
  Fe  Fe2  1  0.26019600  0.68264300  0.68007500  1
  Fe  Fe3  1  0.73980400  0.31735700  0.31992500  1
  Fe  Fe4  1  0.24203900  0.16812800  0.67554400  1
  Fe  Fe5  1  0.71377800  0.33868700  0.82143900  1
  O  O0  1  0.59638000  0.57718100  0.29963100  1
  O  O1  1  0.11540000  0.92219200  0.68923200  1
  O  O2  1  0.88460000  0.07780800  0.31076800  1
  O  O3  1  0.40362000  0.42281900  0.70036900  1
  F  F0  1  0.42327400  0.92060400  0.19144100  1
  F  F1  1  0.95852900  0.80354200  0.09153400  1
  F  F2  1  0.09568900  0.68702600  0.42567000  1
  F  F3  1  0.08301800  0.42774900  0.19314000  1
  F  F4  1  0.57477800  0.31384200  0.06963900  1
  F  F5  1  0.59214500  0.79772500  0.56986600  1
  F  F6  1  0.40785500  0.20227500  0.43013400  1
  F  F7  1  0.42522200  0.68615800  0.93036100  1
  F  F8  1  0.91698200  0.57225100  0.80686000  1
  F  F9  1  0.90431100  0.31297400  0.57433000  1
  F  F10  1  0.04147100  0.19645800  0.90846600  1
  F  F11  1  0.57672600  0.07939600  0.80855900  1
loop_
_geom_bond_atom_site_label_1
_geom_bond_atom_site_label_2
_geom_bond_distance
_geom_bond_site_symmetry_2
Li0 O2 2.050424 1_455
Li1 O1 2.050424 1_655
Fe0 O0 1.897060 1_555
Fe1 O2 1.863721 1_565
Fe1 O0 2.050141 1_555
Fe2 O1 1.879896 1_555
Fe2 O3 1.977076 1_555
Fe3 O2 1.879896 1_555
Fe3 O0 1.977076 1_555
Fe4 O1 1.863721 1_545
Fe4 O3 2.050141 1_555
Fe5 O3 1.897060 1_555
F0 Li0 2.005073 1_565
F0 Fe0 2.008862 1_555
F0 Fe1 2.051747 1_555
F1 Fe0 2.026074 1_655
F1 Fe1 2.072589 1_555
F1 Li1 2.101637 1_554
F2 Fe1 2.105430 1_455
F2 Fe2 2.106922 1_555
F2 Fe0 2.136847 1_555
F3 Fe0 1.962736 1_555
F3 Li0 2.074928 1_555
F3 Fe3 2.091286 1_455
F4 Fe5 1.973904 1_554
F4 Fe3 2.089520 1_555
F4 Li0 2.207831 1_555
F5 Fe1 2.003265 1_555
F5 Fe2 2.008652 1_555
F5 Li1 2.334800 1_555
F6 Fe4 2.003265 1_555
F6 Fe3 2.008652 1_555
F6 Li0 2.334800 1_555
F7 Fe0 1.973904 1_556
F7 Fe2 2.089520 1_555
F7 Li1 2.207831 1_555
F8 Fe5 1.962736 1_555
F8 Li1 2.074928 1_555
F8 Fe2 2.091286 1_655
F9 Fe4 2.105430 1_655
F9 Fe3 2.106922 1_555
F9 Fe5 2.136847 1_555
F10 Fe5 2.026074 1_455
F10 Fe4 2.072589 1_555
F10 Li0 2.101637 1_556
F11 Li1 2.005073 1_545
F11 Fe5 2.008862 1_555
F11 Fe4 2.051747 1_555
