# generated using pymatgen
data_Na3Fe5O8
_symmetry_space_group_name_H-M   'P 1'
_cell_length_a   8.72514133
_cell_length_b   8.85311466
_cell_length_c   8.88614074
_cell_angle_alpha   90.52423442
_cell_angle_beta   90.43213008
_cell_angle_gamma   89.54316700
_symmetry_Int_Tables_number   1
_chemical_formula_structural   Na3Fe5O8
_chemical_formula_sum   'Na12 Fe20 O32'
_cell_volume   686.33737156
_cell_formula_units_Z   4
loop_
 _symmetry_equiv_pos_site_id
 _symmetry_equiv_pos_as_xyz
  1  'x, y, z'
loop_
 _atom_site_type_symbol
 _atom_site_label
 _atom_site_symmetry_multiplicity
 _atom_site_fract_x
 _atom_site_fract_y
 _atom_site_fract_z
 _atom_site_occupancy
  Na  Na0  1  0.12599500  0.12250800  0.13035300  1
  Na  Na1  1  0.12589600  0.62631800  0.62562600  1
  Na  Na2  1  0.12391500  0.37192200  0.37275800  1
  Na  Na3  1  0.12535300  0.87901800  0.37335300  1
  Na  Na4  1  0.13061200  0.87693700  0.87592900  1
  Na  Na5  1  0.37012800  0.12711500  0.37456400  1
  Na  Na6  1  0.37413500  0.12203500  0.87452500  1
  Na  Na7  1  0.37559100  0.62766900  0.87188900  1
  Na  Na8  1  0.61604300  0.12518600  0.62487400  1
  Na  Na9  1  0.62637900  0.62401300  0.12292600  1
  Na  Na10  1  0.62119700  0.62522700  0.62641900  1
  Na  Na11  1  0.87651300  0.37088000  0.12699700  1
  Fe  Fe0  1  0.12265700  0.12354800  0.62023800  1
  Fe  Fe1  1  0.12803800  0.62778800  0.12662100  1
  Fe  Fe2  1  0.13258100  0.37272100  0.87538100  1
  Fe  Fe3  1  0.38063400  0.36771100  0.12368300  1
  Fe  Fe4  1  0.37448800  0.37494800  0.62145200  1
  Fe  Fe5  1  0.36444600  0.62426200  0.37758500  1
  Fe  Fe6  1  0.37532700  0.87843500  0.12597800  1
  Fe  Fe7  1  0.36936400  0.87835500  0.62603300  1
  Fe  Fe8  1  0.62482700  0.12644100  0.12738100  1
  Fe  Fe9  1  0.62416900  0.38068600  0.37702100  1
  Fe  Fe10  1  0.62137000  0.37522000  0.87164800  1
  Fe  Fe11  1  0.62498400  0.86930000  0.37852100  1
  Fe  Fe12  1  0.62427900  0.87313900  0.87432600  1
  Fe  Fe13  1  0.87217900  0.12621100  0.37564600  1
  Fe  Fe14  1  0.87163700  0.36881200  0.62216700  1
  Fe  Fe15  1  0.87526300  0.62372700  0.37669700  1
  Fe  Fe16  1  0.87518400  0.12498200  0.87903300  1
  Fe  Fe17  1  0.87366300  0.62190100  0.86070700  1
  Fe  Fe18  1  0.87876000  0.87773700  0.12673600  1
  Fe  Fe19  1  0.87567300  0.87797600  0.62434700  1
  O  O0  1  0.14992300  0.38607700  0.10337700  1
  O  O1  1  0.14313600  0.85527000  0.12128400  1
  O  O2  1  0.13521000  0.36242400  0.64599000  1
  O  O3  1  0.12233000  0.89253800  0.62758600  1
  O  O4  1  0.09805000  0.12918900  0.39791100  1
  O  O5  1  0.10506000  0.14980800  0.86405000  1
  O  O6  1  0.11980300  0.62208300  0.35646300  1
  O  O7  1  0.09988000  0.60258500  0.89218300  1
  O  O8  1  0.35113100  0.10697000  0.62226300  1
  O  O9  1  0.39961900  0.13898100  0.12605300  1
  O  O10  1  0.39174500  0.39546000  0.36678600  1
  O  O11  1  0.38152700  0.37790300  0.88396000  1
  O  O12  1  0.36237000  0.61646500  0.14530200  1
  O  O13  1  0.37001200  0.64022800  0.59710500  1
  O  O14  1  0.39683200  0.85593100  0.38411000  1
  O  O15  1  0.39985800  0.87213000  0.85014200  1
  O  O16  1  0.63811400  0.12185700  0.35159500  1
  O  O17  1  0.61161500  0.35726300  0.11686100  1
  O  O18  1  0.61095300  0.37157400  0.64215800  1
  O  O19  1  0.63944200  0.63084200  0.37064700  1
  O  O20  1  0.64181000  0.14137500  0.90075600  1
  O  O21  1  0.65152500  0.60526900  0.87893400  1
  O  O22  1  0.61530100  0.89509800  0.13490800  1
  O  O23  1  0.62977700  0.87943400  0.60775700  1
  O  O24  1  0.88242500  0.10935200  0.63043100  1
  O  O25  1  0.85400500  0.10522100  0.12584100  1
  O  O26  1  0.85707200  0.39604900  0.39433100  1
  O  O27  1  0.89354900  0.64260300  0.13843400  1
  O  O28  1  0.87813700  0.64382300  0.62346600  1
  O  O29  1  0.87057100  0.38713100  0.85734000  1
  O  O30  1  0.85785400  0.85860300  0.38994600  1
  O  O31  1  0.86008800  0.85773600  0.86061100  1
loop_
_geom_bond_atom_site_label_1
_geom_bond_atom_site_label_2
_geom_bond_distance
_geom_bond_site_symmetry_2
Na0 O0 2.358939 1_555
Na0 O1 2.370093 1_545
Na0 O25 2.379311 1_455
Na0 O5 2.386399 1_554
Na0 O4 2.392002 1_555
Na0 O9 2.393632 1_555
Na1 O13 2.151503 1_555
Na1 O28 2.166000 1_455
Na1 O2 2.345647 1_555
Na1 O3 2.356740 1_555
Na1 O6 2.391968 1_555
Na1 O7 2.392533 1_555
Na2 O4 2.176265 1_555
Na2 O6 2.220741 1_555
Na2 O26 2.345451 1_455
Na2 O10 2.348823 1_555
Na2 O0 2.410687 1_555
Na2 O2 2.431431 1_555
Na3 O4 2.234548 1_565
Na3 O1 2.254246 1_555
Na3 O3 2.261566 1_555
Na3 O6 2.279126 1_555
Na3 O30 2.348236 1_455
Na3 O14 2.377150 1_555
Na4 O1 2.192257 1_556
Na4 O3 2.212990 1_555
Na4 O15 2.362086 1_555
Na4 O31 2.370623 1_455
Na4 O5 2.427439 1_565
Na4 O7 2.451440 1_555
Na5 O8 2.217482 1_555
Na5 O9 2.228699 1_555
Na5 O16 2.348695 1_555
Na5 O4 2.384436 1_555
Na5 O10 2.386335 1_555
Na5 O14 2.412456 1_545
Na6 O15 2.230749 1_545
Na6 O9 2.248239 1_556
Na6 O8 2.251927 1_555
Na6 O11 2.267427 1_555
Na6 O20 2.352797 1_555
Na6 O5 2.359834 1_555
Na7 O15 2.186708 1_555
Na7 O11 2.214962 1_555
Na7 O21 2.414528 1_555
Na7 O7 2.425825 1_555
Na7 O12 2.436156 1_556
Na7 O13 2.445416 1_555
Na8 O23 2.181994 1_545
Na8 O18 2.185421 1_555
Na8 O8 2.318223 1_555
Na8 O24 2.327507 1_555
Na8 O16 2.437358 1_555
Na8 O20 2.463095 1_555
Na9 O21 2.185532 1_554
Na9 O19 2.203675 1_555
Na9 O12 2.315123 1_555
Na9 O27 2.341141 1_555
Na9 O17 2.366204 1_555
Na9 O22 2.402541 1_555
Na10 O13 2.208187 1_555
Na10 O28 2.249551 1_555
Na10 O18 2.253773 1_555
Na10 O23 2.260014 1_555
Na10 O21 2.265791 1_555
Na10 O19 2.280614 1_555
Na11 O17 2.316405 1_555
Na11 O25 2.361577 1_555
Na11 O26 2.391137 1_555
Na11 O0 2.401280 1_655
Na11 O29 2.401984 1_554
Na11 O27 2.412532 1_555
Fe0 O4 1.986690 1_555
Fe0 O8 1.997654 1_555
Fe0 O3 2.046823 1_545
Fe0 O24 2.103505 1_455
Fe0 O2 2.128658 1_555
Fe0 O5 2.183296 1_555
Fe1 O1 2.020289 1_555
Fe1 O6 2.045313 1_555
Fe1 O12 2.051787 1_555
Fe1 O27 2.052520 1_455
Fe1 O7 2.105877 1_554
Fe1 O0 2.155056 1_555
Fe2 O5 1.991471 1_555
Fe2 O0 2.032941 1_556
Fe2 O2 2.039898 1_555
Fe2 O7 2.056891 1_555
Fe2 O11 2.173687 1_555
Fe2 O29 2.293100 1_455
Fe3 O17 2.018069 1_555
Fe3 O0 2.025080 1_555
Fe3 O9 2.030708 1_555
Fe3 O11 2.133023 1_554
Fe3 O10 2.173460 1_555
Fe3 O12 2.213441 1_555
Fe4 O18 2.069998 1_555
Fe4 O2 2.104631 1_555
Fe4 O10 2.278136 1_555
Fe4 O11 2.332941 1_555
Fe4 O13 2.360455 1_555
Fe4 O8 2.382876 1_555
Fe5 O13 1.954776 1_555
Fe5 O10 2.039150 1_555
Fe5 O12 2.064570 1_555
Fe5 O14 2.072823 1_555
Fe5 O6 2.141595 1_555
Fe5 O19 2.401820 1_555
Fe6 O1 2.037955 1_555
Fe6 O22 2.101022 1_555
Fe6 O14 2.310342 1_555
Fe6 O9 2.318037 1_565
Fe6 O12 2.330869 1_555
Fe6 O15 2.462138 1_554
Fe7 O15 2.008367 1_555
Fe7 O8 2.029495 1_565
Fe7 O13 2.121412 1_555
Fe7 O3 2.158202 1_555
Fe7 O14 2.171987 1_555
Fe7 O23 2.279260 1_555
Fe8 O9 1.967174 1_555
Fe8 O16 1.995659 1_555
Fe8 O25 2.007062 1_555
Fe8 O20 2.025981 1_554
Fe8 O17 2.048773 1_555
Fe8 O22 2.052176 1_545
Fe9 O10 2.032509 1_555
Fe9 O26 2.042289 1_555
Fe9 O19 2.220991 1_555
Fe9 O16 2.302837 1_555
Fe9 O17 2.321050 1_555
Fe9 O18 2.361880 1_555
Fe10 O18 2.040592 1_555
Fe10 O21 2.056024 1_555
Fe10 O20 2.094729 1_555
Fe10 O11 2.096280 1_555
Fe10 O29 2.182429 1_555
Fe10 O17 2.188584 1_556
Fe11 O14 1.996134 1_555
Fe11 O30 2.035087 1_555
Fe11 O23 2.038306 1_555
Fe11 O19 2.114407 1_555
Fe11 O22 2.179805 1_555
Fe11 O16 2.254769 1_565
Fe12 O15 1.968333 1_555
Fe12 O31 2.065338 1_555
Fe12 O22 2.323799 1_556
Fe12 O23 2.370791 1_555
Fe12 O21 2.382177 1_555
Fe12 O20 2.390171 1_565
Fe13 O4 1.979538 1_655
Fe13 O16 2.052430 1_555
Fe13 O25 2.230428 1_555
Fe13 O24 2.271373 1_555
Fe13 O30 2.378062 1_545
Fe13 O26 2.395802 1_555
Fe14 O26 2.043965 1_555
Fe14 O29 2.094669 1_555
Fe14 O18 2.282686 1_555
Fe14 O24 2.300028 1_555
Fe14 O2 2.308135 1_655
Fe14 O28 2.435736 1_555
Fe15 O26 2.030735 1_555
Fe15 O19 2.058345 1_555
Fe15 O30 2.086031 1_555
Fe15 O27 2.132622 1_555
Fe15 O6 2.142482 1_655
Fe15 O28 2.198377 1_555
Fe16 O5 2.024960 1_655
Fe16 O20 2.050664 1_555
Fe16 O25 2.210973 1_556
Fe16 O24 2.213524 1_555
Fe16 O29 2.330587 1_555
Fe16 O31 2.374756 1_545
Fe17 O21 1.952998 1_555
Fe17 O7 1.997606 1_655
Fe17 O29 2.078775 1_555
Fe17 O31 2.090296 1_555
Fe17 O28 2.119520 1_555
Fe17 O27 2.477923 1_556
Fe18 O25 2.023860 1_565
Fe18 O27 2.088127 1_555
Fe18 O22 2.304273 1_555
Fe18 O1 2.314530 1_655
Fe18 O30 2.355143 1_555
Fe18 O31 2.374295 1_554
Fe19 O24 2.049922 1_565
Fe19 O28 2.072867 1_555
Fe19 O30 2.093119 1_555
Fe19 O31 2.114231 1_555
Fe19 O23 2.149371 1_555
Fe19 O3 2.156961 1_655
