# generated using pymatgen
data_Cs5CeNi2(NO2)12
_symmetry_space_group_name_H-M   'P 1'
_cell_length_a   11.30679714
_cell_length_b   11.30679714
_cell_length_c   11.30679714
_cell_angle_alpha   90.00000000
_cell_angle_beta   90.00000000
_cell_angle_gamma   90.00000000
_symmetry_Int_Tables_number   1
_chemical_formula_structural   Cs5CeNi2(NO2)12
_chemical_formula_sum   'Cs10 Ce2 Ni4 N24 O48'
_cell_volume   1445.50234695
_cell_formula_units_Z   2
loop_
 _symmetry_equiv_pos_site_id
 _symmetry_equiv_pos_as_xyz
  1  'x, y, z'
loop_
 _atom_site_type_symbol
 _atom_site_label
 _atom_site_symmetry_multiplicity
 _atom_site_fract_x
 _atom_site_fract_y
 _atom_site_fract_z
 _atom_site_occupancy
  Cs  Cs0  1  0.50000000  0.50000000  0.00000000  1
  Cs  Cs1  1  0.50000000  0.00000000  0.50000000  1
  Cs  Cs2  1  0.25000000  0.75000000  0.75000000  1
  Cs  Cs3  1  0.75000000  0.25000000  0.25000000  1
  Cs  Cs4  1  0.75000000  0.25000000  0.75000000  1
  Cs  Cs5  1  0.00000000  0.00000000  0.00000000  1
  Cs  Cs6  1  0.75000000  0.75000000  0.25000000  1
  Cs  Cs7  1  0.25000000  0.75000000  0.25000000  1
  Cs  Cs8  1  0.00000000  0.50000000  0.50000000  1
  Cs  Cs9  1  0.25000000  0.25000000  0.75000000  1
  Ce  Ce0  1  0.25000000  0.25000000  0.25000000  1
  Ce  Ce1  1  0.75000000  0.75000000  0.75000000  1
  Ni  Ni0  1  0.00000000  0.00000000  0.50000000  1
  Ni  Ni1  1  0.50000000  0.00000000  0.00000000  1
  Ni  Ni2  1  0.00000000  0.50000000  0.00000000  1
  Ni  Ni3  1  0.50000000  0.50000000  0.50000000  1
  N  N0  1  0.50784230  0.50669179  0.68524169  1
  N  N1  1  0.81475831  0.99215770  0.50669179  1
  N  N2  1  0.68524169  0.99215770  0.99330821  1
  N  N3  1  0.50669179  0.81475831  0.99215770  1
  N  N4  1  0.99215770  0.99330821  0.68524169  1
  N  N5  1  0.00669179  0.31475831  0.00784230  1
  N  N6  1  0.31475831  0.00784230  0.00669179  1
  N  N7  1  0.81475831  0.50784230  0.99330821  1
  N  N8  1  0.50669179  0.68524169  0.50784230  1
  N  N9  1  0.00784230  0.49330821  0.18524169  1
  N  N10  1  0.99330821  0.81475831  0.50784230  1
  N  N11  1  0.49215770  0.49330821  0.31475831  1
  N  N12  1  0.50784230  0.99330821  0.81475831  1
  N  N13  1  0.00669179  0.18524169  0.49215770  1
  N  N14  1  0.68524169  0.50784230  0.50669179  1
  N  N15  1  0.49330821  0.18524169  0.00784230  1
  N  N16  1  0.49330821  0.31475831  0.49215770  1
  N  N17  1  0.18524169  0.00784230  0.49330821  1
  N  N18  1  0.99330821  0.68524169  0.99215770  1
  N  N19  1  0.99215770  0.50669179  0.81475831  1
  N  N20  1  0.49215770  0.00669179  0.18524169  1
  N  N21  1  0.00784230  0.00669179  0.31475831  1
  N  N22  1  0.18524169  0.49215770  0.00669179  1
  N  N23  1  0.31475831  0.49215770  0.49330821  1
  O  O0  1  0.50344350  0.24045014  0.91217594  1
  O  O1  1  0.00344350  0.74045014  0.08782406  1
  O  O2  1  0.41217594  0.00344350  0.75954986  1
  O  O3  1  0.25954986  0.58782406  0.50344350  1
  O  O4  1  0.91217594  0.50344350  0.24045014  1
  O  O5  1  0.24298964  0.10135335  0.46673599  1
  O  O6  1  0.39864665  0.46673599  0.25701036  1
  O  O7  1  0.96673599  0.75701036  0.60135335  1
  O  O8  1  0.58782406  0.99655650  0.24045014  1
  O  O9  1  0.03326401  0.24298964  0.39864665  1
  O  O10  1  0.08782406  0.00344350  0.74045014  1
  O  O11  1  0.39864665  0.03326401  0.24298964  1
  O  O12  1  0.75954986  0.41217594  0.00344350  1
  O  O13  1  0.89864665  0.96673599  0.74298964  1
  O  O14  1  0.03326401  0.25701036  0.10135335  1
  O  O15  1  0.91217594  0.99655650  0.25954986  1
  O  O16  1  0.89864665  0.53326401  0.75701036  1
  O  O17  1  0.24045014  0.91217594  0.50344350  1
  O  O18  1  0.08782406  0.49655650  0.75954986  1
  O  O19  1  0.10135335  0.03326401  0.25701036  1
  O  O20  1  0.53326401  0.75701036  0.89864665  1
  O  O21  1  0.24045014  0.58782406  0.99655650  1
  O  O22  1  0.24298964  0.39864665  0.03326401  1
  O  O23  1  0.75954986  0.08782406  0.49655650  1
  O  O24  1  0.00344350  0.75954986  0.41217594  1
  O  O25  1  0.25701036  0.39864665  0.46673599  1
  O  O26  1  0.41217594  0.49655650  0.74045014  1
  O  O27  1  0.99655650  0.24045014  0.58782406  1
  O  O28  1  0.58782406  0.50344350  0.25954986  1
  O  O29  1  0.53326401  0.74298964  0.60135335  1
  O  O30  1  0.75701036  0.60135335  0.96673599  1
  O  O31  1  0.60135335  0.96673599  0.75701036  1
  O  O32  1  0.25954986  0.91217594  0.99655650  1
  O  O33  1  0.74298964  0.89864665  0.96673599  1
  O  O34  1  0.74045014  0.08782406  0.00344350  1
  O  O35  1  0.50344350  0.25954986  0.58782406  1
  O  O36  1  0.75701036  0.89864665  0.53326401  1
  O  O37  1  0.74045014  0.41217594  0.49655650  1
  O  O38  1  0.99655650  0.25954986  0.91217594  1
  O  O39  1  0.49655650  0.75954986  0.08782406  1
  O  O40  1  0.10135335  0.46673599  0.24298964  1
  O  O41  1  0.25701036  0.10135335  0.03326401  1
  O  O42  1  0.46673599  0.25701036  0.39864665  1
  O  O43  1  0.60135335  0.53326401  0.74298964  1
  O  O44  1  0.49655650  0.74045014  0.41217594  1
  O  O45  1  0.96673599  0.74298964  0.89864665  1
  O  O46  1  0.74298964  0.60135335  0.53326401  1
  O  O47  1  0.46673599  0.24298964  0.10135335  1
loop_
_geom_bond_atom_site_label_1
_geom_bond_atom_site_label_2
_geom_bond_distance
_geom_bond_site_symmetry_2
Cs0 O28 3.098373 1_555
Cs0 O0 3.098373 1_554
Cs0 O21 3.098373 1_554
Cs0 O12 3.098373 1_555
Cs0 O39 3.098373 1_555
Cs0 O26 3.098373 1_554
Cs0 O20 3.146325 1_554
Cs0 O47 3.146325 1_555
Cs0 O43 3.146325 1_554
Cs0 O30 3.146325 1_554
Cs0 O22 3.146325 1_555
Cs0 O6 3.146325 1_555
Cs1 O35 3.098373 1_555
Cs1 O2 3.098373 1_555
Cs1 O17 3.098373 1_545
Cs1 O8 3.098373 1_545
Cs1 O44 3.098373 1_545
Cs1 O23 3.098373 1_555
Cs1 O29 3.146325 1_545
Cs1 O42 3.146325 1_555
Cs1 O36 3.146325 1_545
Cs1 O31 3.146325 1_545
Cs1 O11 3.146325 1_555
Cs1 O5 3.146325 1_555
Cs2 O21 3.338519 1_555
Cs2 O32 3.338519 1_555
Cs2 O17 3.338519 1_555
Cs2 O3 3.338519 1_555
Cs2 O10 3.403813 1_565
Cs2 O2 3.403813 1_565
Cs2 O18 3.403813 1_555
Cs2 O26 3.403813 1_555
Cs2 O7 3.617883 1_455
Cs2 O45 3.617883 1_455
Cs2 O29 3.617883 1_555
Cs2 O20 3.617883 1_555
Cs3 O23 3.338519 1_555
Cs3 O37 3.338519 1_555
Cs3 O34 3.338519 1_555
Cs3 O12 3.338519 1_555
Cs3 O4 3.403813 1_555
Cs3 O28 3.403813 1_555
Cs3 O15 3.403813 1_545
Cs3 O8 3.403813 1_545
Cs3 O14 3.617883 1_655
Cs3 O9 3.617883 1_655
Cs3 O47 3.617883 1_555
Cs3 O42 3.617883 1_555
Cs4 O38 3.338519 1_555
Cs4 O27 3.338519 1_555
Cs4 O0 3.338519 1_555
Cs4 O35 3.338519 1_555
Cs4 O34 3.403813 1_556
Cs4 O12 3.403813 1_556
Cs4 O37 3.403813 1_555
Cs4 O23 3.403813 1_555
Cs4 O43 3.617883 1_555
Cs4 O31 3.617883 1_545
Cs4 O16 3.617883 1_555
Cs4 O13 3.617883 1_545
Cs5 O38 3.098373 1_454
Cs5 O34 3.098373 1_455
Cs5 O1 3.098373 1_545
Cs5 O10 3.098373 1_554
Cs5 O15 3.098373 1_445
Cs5 O32 3.098373 1_544
Cs5 O45 3.146325 1_444
Cs5 O14 3.146325 1_555
Cs5 O13 3.146325 1_444
Cs5 O41 3.146325 1_555
Cs5 O33 3.146325 1_444
Cs5 O19 3.146325 1_555
Cs6 O15 3.338519 1_555
Cs6 O8 3.338519 1_555
Cs6 O4 3.338519 1_555
Cs6 O28 3.338519 1_555
Cs6 O1 3.403813 1_655
Cs6 O24 3.403813 1_655
Cs6 O44 3.403813 1_555
Cs6 O39 3.403813 1_555
Cs6 O46 3.617883 1_555
Cs6 O30 3.617883 1_554
Cs6 O36 3.617883 1_555
Cs6 O33 3.617883 1_554
Cs7 O39 3.338519 1_555
Cs7 O44 3.338519 1_555
Cs7 O1 3.338519 1_555
Cs7 O24 3.338519 1_555
Cs7 O3 3.403813 1_555
Cs7 O17 3.403813 1_555
Cs7 O32 3.403813 1_554
Cs7 O21 3.403813 1_554
Cs7 O19 3.617883 1_565
Cs7 O11 3.617883 1_565
Cs7 O6 3.617883 1_555
Cs7 O40 3.617883 1_555
Cs8 O4 3.098373 1_455
Cs8 O27 3.098373 1_455
Cs8 O24 3.098373 1_555
Cs8 O18 3.098373 1_555
Cs8 O3 3.098373 1_555
Cs8 O37 3.098373 1_455
Cs8 O9 3.146325 1_555
Cs8 O7 3.146325 1_455
Cs8 O16 3.146325 1_455
Cs8 O46 3.146325 1_455
Cs8 O25 3.146325 1_555
Cs8 O40 3.146325 1_555
Cs9 O26 3.338519 1_555
Cs9 O18 3.338519 1_555
Cs9 O10 3.338519 1_555
Cs9 O2 3.338519 1_555
Cs9 O35 3.403813 1_555
Cs9 O0 3.403813 1_555
Cs9 O27 3.403813 1_455
Cs9 O38 3.403813 1_455
Cs9 O41 3.617883 1_556
Cs9 O22 3.617883 1_556
Cs9 O25 3.617883 1_555
Cs9 O5 3.617883 1_555
Ce0 O14 2.972623 1_555
Ce0 O9 2.972623 1_555
Ce0 O47 2.972623 1_555
Ce0 O42 2.972623 1_555
Ce0 O25 2.972623 1_555
Ce0 O6 2.972623 1_555
Ce0 O5 2.972623 1_555
Ce0 O11 2.972623 1_555
Ce0 O40 2.972623 1_555
Ce0 O41 2.972623 1_555
Ce0 O19 2.972623 1_555
Ce0 O22 2.972623 1_555
Ce1 O45 2.972623 1_555
Ce1 O29 2.972623 1_555
Ce1 O7 2.972623 1_555
Ce1 O20 2.972623 1_555
Ce1 O30 2.972623 1_555
Ce1 O46 2.972623 1_555
Ce1 O16 2.972623 1_555
Ce1 O36 2.972623 1_555
Ce1 O33 2.972623 1_555
Ce1 O31 2.972623 1_555
Ce1 O43 2.972623 1_555
Ce1 O13 2.972623 1_555
N0 O26 1.254125 1_555
N0 O43 1.278480 1_555
N0 Ni3 2.097731 1_555
N1 O23 1.254125 1_565
N1 O36 1.278480 1_555
N1 Ni0 2.097731 1_665
N2 O34 1.254125 1_566
N2 O33 1.278480 1_555
N2 Ni1 2.097731 1_566
N3 O39 1.254125 1_556
N3 O20 1.278480 1_555
N3 Ni1 2.097731 1_566
N4 O10 1.254125 1_665
N4 O13 1.278480 1_555
N4 Ni0 2.097731 1_665
N5 O38 1.254125 1_454
N5 O14 1.278480 1_555
N5 Ni2 2.097731 1_555
N6 O32 1.254125 1_544
N6 O41 1.278480 1_555
N6 Ni1 2.097731 1_555
N7 O12 1.254125 1_556
N7 O30 1.278480 1_555
N7 Ni2 2.097731 1_656
N8 O44 1.254125 1_555
N8 O29 1.278480 1_555
N8 Ni3 2.097731 1_555
N9 O4 1.254125 1_455
N9 O40 1.278480 1_555
N9 Ni2 2.097731 1_555
N10 O24 1.254125 1_655
N10 O7 1.278480 1_555
N10 Ni0 2.097731 1_665
N11 O28 1.254125 1_555
N11 O6 1.278480 1_555
N11 Ni3 2.097731 1_555
N12 O2 1.254125 1_565
N12 O31 1.278480 1_555
N12 Ni1 2.097731 1_566
N13 O27 1.254125 1_455
N13 O9 1.278480 1_555
N13 Ni0 2.097731 1_555
N14 O37 1.254125 1_555
N14 O46 1.278480 1_555
N14 Ni3 2.097731 1_555
N15 O0 1.254125 1_554
N15 O47 1.278480 1_555
N15 Ni1 2.097731 1_555
N16 O35 1.254125 1_555
N16 O42 1.278480 1_555
N16 Ni3 2.097731 1_555
N17 O17 1.254125 1_545
N17 O5 1.278480 1_555
N17 Ni0 2.097731 1_555
N18 O1 1.254125 1_656
N18 O45 1.278480 1_555
N18 Ni2 2.097731 1_656
N19 O18 1.254125 1_655
N19 O16 1.278480 1_555
N19 Ni2 2.097731 1_656
N20 O8 1.254125 1_545
N20 O11 1.278480 1_555
N20 Ni1 2.097731 1_555
N21 O15 1.254125 1_445
N21 O19 1.278480 1_555
N21 Ni0 2.097731 1_555
N22 O21 1.254125 1_554
N22 O22 1.278480 1_555
N22 Ni2 2.097731 1_555
N23 O3 1.254125 1_555
N23 O25 1.278480 1_555
N23 Ni3 2.097731 1_555
