# generated using pymatgen
data_HfFeO3
_symmetry_space_group_name_H-M   'P 1'
_cell_length_a   5.03794600
_cell_length_b   5.33040400
_cell_length_c   8.77720000
_cell_angle_alpha   90.00000000
_cell_angle_beta   90.00000000
_cell_angle_gamma   90.00000000
_symmetry_Int_Tables_number   1
_chemical_formula_structural   HfFeO3
_chemical_formula_sum   'Hf4 Fe4 O12'
_cell_volume   235.70545233
_cell_formula_units_Z   4
loop_
 _symmetry_equiv_pos_site_id
 _symmetry_equiv_pos_as_xyz
  1  'x, y, z'
loop_
 _atom_site_type_symbol
 _atom_site_label
 _atom_site_symmetry_multiplicity
 _atom_site_fract_x
 _atom_site_fract_y
 _atom_site_fract_z
 _atom_site_occupancy
  Hf  Hf0  1  0.04452800  0.42956500  0.25000000  1
  Hf  Hf1  1  0.45547200  0.92956500  0.25000000  1
  Hf  Hf2  1  0.54452800  0.07043500  0.75000000  1
  Hf  Hf3  1  0.95547200  0.57043500  0.75000000  1
  Fe  Fe0  1  0.00000000  0.00000000  0.50000000  1
  Fe  Fe1  1  0.00000000  0.00000000  0.00000000  1
  Fe  Fe2  1  0.50000000  0.50000000  0.50000000  1
  Fe  Fe3  1  0.50000000  0.50000000  0.00000000  1
  O  O0  1  0.17777600  0.90578000  0.75000000  1
  O  O1  1  0.19489600  0.70077500  0.10076900  1
  O  O2  1  0.19489600  0.70077500  0.39923100  1
  O  O3  1  0.30510400  0.20077500  0.10076900  1
  O  O4  1  0.30510400  0.20077500  0.39923100  1
  O  O5  1  0.32222400  0.40578000  0.75000000  1
  O  O6  1  0.67777600  0.59422000  0.25000000  1
  O  O7  1  0.69489600  0.79922500  0.60076900  1
  O  O8  1  0.69489600  0.79922500  0.89923100  1
  O  O9  1  0.80510400  0.29922500  0.60076900  1
  O  O10  1  0.80510400  0.29922500  0.89923100  1
  O  O11  1  0.82222400  0.09422000  0.25000000  1
loop_
_geom_bond_atom_site_label_1
_geom_bond_atom_site_label_2
_geom_bond_distance
_geom_bond_site_symmetry_2
Hf0 O6 2.045538 1_455
Hf0 O1 2.092716 1_555
Hf0 O2 2.092716 1_555
Hf0 O11 2.109394 1_455
Hf0 O3 2.219527 1_555
Hf0 O4 2.219527 1_555
Hf1 O11 2.045538 1_565
Hf1 O4 2.092716 1_565
Hf1 O3 2.092716 1_565
Hf1 O6 2.109394 1_555
Hf1 O2 2.219527 1_555
Hf1 O1 2.219527 1_555
Hf2 O0 2.045538 1_545
Hf2 O8 2.092716 1_545
Hf2 O7 2.092716 1_545
Hf2 O5 2.109394 1_555
Hf2 O9 2.219527 1_555
Hf2 O10 2.219527 1_555
Hf3 O5 2.045538 1_655
Hf3 O9 2.092716 1_555
Hf3 O10 2.092716 1_555
Hf3 O0 2.109394 1_655
Hf3 O8 2.219527 1_555
Hf3 O7 2.219527 1_555
Fe0 O4 2.071306 1_555
Fe0 O7 2.071306 1_445
Fe0 O9 2.071318 1_455
Fe0 O2 2.071318 1_545
Fe0 O11 2.422671 1_455
Fe0 O0 2.422671 1_545
Fe1 O3 2.071306 1_555
Fe1 O8 2.071306 1_444
Fe1 O10 2.071318 1_454
Fe1 O1 2.071318 1_545
Fe1 O0 2.422671 1_544
Fe1 O11 2.422671 1_455
Fe2 O9 2.071306 1_555
Fe2 O2 2.071306 1_555
Fe2 O7 2.071318 1_555
Fe2 O4 2.071318 1_555
Fe2 O6 2.422671 1_555
Fe2 O5 2.422671 1_555
Fe3 O10 2.071306 1_554
Fe3 O1 2.071306 1_555
Fe3 O8 2.071318 1_554
Fe3 O3 2.071318 1_555
Fe3 O6 2.422671 1_555
Fe3 O5 2.422671 1_554
