# generated using pymatgen
data_LiVSiO4
_symmetry_space_group_name_H-M   'P 1'
_cell_length_a   5.21519808
_cell_length_b   9.02649832
_cell_length_c   9.60642513
_cell_angle_alpha   89.97637682
_cell_angle_beta   89.99251858
_cell_angle_gamma   90.01268956
_symmetry_Int_Tables_number   1
_chemical_formula_structural   LiVSiO4
_chemical_formula_sum   'Li4 V4 Si4 O16'
_cell_volume   452.22218584
_cell_formula_units_Z   4
loop_
 _symmetry_equiv_pos_site_id
 _symmetry_equiv_pos_as_xyz
  1  'x, y, z'
loop_
 _atom_site_type_symbol
 _atom_site_label
 _atom_site_symmetry_multiplicity
 _atom_site_fract_x
 _atom_site_fract_y
 _atom_site_fract_z
 _atom_site_occupancy
  Li  Li0  1  0.50000300  0.50003400  0.23119800  1
  Li  Li1  1  0.99998800  0.00006800  0.23113900  1
  Li  Li2  1  0.49959600  0.49991700  0.73115900  1
  Li  Li3  1  0.99957700  0.99994000  0.73120800  1
  V  V0  1  0.50027000  0.83326200  0.12265000  1
  V  V1  1  0.99993500  0.66655700  0.62257400  1
  V  V2  1  0.00005000  0.33345600  0.12254000  1
  V  V3  1  0.49990000  0.16654300  0.62263700  1
  Si  Si0  1  0.99988400  0.33340600  0.75978800  1
  Si  Si1  1  0.49987600  0.83341600  0.75980100  1
  Si  Si2  1  0.50001600  0.16659400  0.25973300  1
  Si  Si3  1  0.00006200  0.66660700  0.25976100  1
  O  O0  1  0.00116200  0.33376800  0.92888700  1
  O  O1  1  0.50118800  0.83376000  0.92894300  1
  O  O2  1  0.50074800  0.16636500  0.42893200  1
  O  O3  1  0.00069400  0.66637100  0.42892800  1
  O  O4  1  0.84245400  0.18682000  0.70281100  1
  O  O5  1  0.34244700  0.68680400  0.70280300  1
  O  O6  1  0.85807400  0.48520300  0.70264400  1
  O  O7  1  0.35806900  0.98520100  0.70264200  1
  O  O8  1  0.20198300  0.17189200  0.20200500  1
  O  O9  1  0.70200700  0.67179000  0.20198200  1
  O  O10  1  0.29770500  0.32816400  0.70165500  1
  O  O11  1  0.79770600  0.82817900  0.70166300  1
  O  O12  1  0.64154300  0.01474200  0.20254500  1
  O  O13  1  0.14161400  0.51479600  0.20256900  1
  O  O14  1  0.65704300  0.31316800  0.20221700  1
  O  O15  1  0.15701200  0.81317700  0.20222900  1
loop_
_geom_bond_atom_site_label_1
_geom_bond_atom_site_label_2
_geom_bond_distance
_geom_bond_site_symmetry_2
Li0 O13 1.893945 1_555
Li0 O9 1.895008 1_555
Li0 O14 1.895867 1_555
Li1 O12 1.894129 1_555
Li1 O8 1.895368 1_655
Li1 O15 1.895931 1_645
Li2 O6 1.894159 1_555
Li2 O5 1.895238 1_555
Li2 O10 1.895301 1_555
Li3 O7 1.894318 1_655
Li3 O4 1.895180 1_565
Li3 O11 1.895362 1_555
O0 Si0 1.624456 1_455
O0 V2 1.860322 1_556
O1 Si1 1.624870 1_555
O1 V0 1.860841 1_556
O2 Si2 1.625403 1_555
O2 V3 1.860819 1_555
O3 Si3 1.625094 1_555
O3 V1 1.860251 1_455
O4 Si0 1.650653 1_555
O4 V3 1.954112 1_555
O5 Si1 1.650906 1_555
O5 V1 1.954094 1_455
O6 Si0 1.650962 1_555
O6 V1 1.953719 1_555
O7 Si1 1.650913 1_555
O7 V3 1.953324 1_565
O8 Si2 1.651033 1_555
O8 V2 1.954119 1_555
O9 Si3 1.651276 1_655
O9 V0 1.952450 1_555
O10 Si0 1.651166 1_455
O10 V3 1.953929 1_555
O11 Si1 1.651225 1_555
O11 V1 1.954297 1_555
O12 Si2 1.651166 1_555
O12 V0 1.953460 1_545
O13 Si3 1.650929 1_555
O13 V2 1.953480 1_555
O14 Si2 1.650813 1_555
O14 V2 1.954163 1_655
O15 Si3 1.650636 1_555
O15 V0 1.954823 1_555
