# generated using pymatgen
data_Li7V7P6(O8F)3
_symmetry_space_group_name_H-M   'P 1'
_cell_length_a   13.65879572
_cell_length_b   13.65879572
_cell_length_c   6.44972100
_cell_angle_alpha   90.00000000
_cell_angle_beta   90.00000000
_cell_angle_gamma   119.99999865
_symmetry_Int_Tables_number   1
_chemical_formula_structural   Li7V7P6(O8F)3
_chemical_formula_sum   'Li14 V14 P12 O48 F6'
_cell_volume   1042.06878237
_cell_formula_units_Z   2
loop_
 _symmetry_equiv_pos_site_id
 _symmetry_equiv_pos_as_xyz
  1  'x, y, z'
loop_
 _atom_site_type_symbol
 _atom_site_label
 _atom_site_symmetry_multiplicity
 _atom_site_fract_x
 _atom_site_fract_y
 _atom_site_fract_z
 _atom_site_occupancy
  Li  Li0  1  0.18332600  0.25528200  0.74315300  1
  Li  Li1  1  0.92804400  0.18332600  0.24315300  1
  Li  Li2  1  0.37559900  0.49987800  0.24409300  1
  Li  Li3  1  0.49987800  0.12427900  0.74409300  1
  Li  Li4  1  0.25528200  0.07195600  0.24315300  1
  Li  Li5  1  0.87572100  0.37559900  0.74409300  1
  Li  Li6  1  0.66666700  0.33333300  0.56202400  1
  Li  Li7  1  0.33333300  0.66666700  0.06202400  1
  Li  Li8  1  0.12427900  0.62440100  0.24409300  1
  Li  Li9  1  0.74471800  0.92804400  0.74315300  1
  Li  Li10  1  0.50012200  0.87572100  0.24409300  1
  Li  Li11  1  0.62440100  0.50012200  0.74409300  1
  Li  Li12  1  0.07195600  0.81667400  0.74315300  1
  Li  Li13  1  0.81667400  0.74471800  0.24315300  1
  V  V0  1  0.70541200  0.12652200  0.98902800  1
  V  V1  1  0.70572500  0.12310000  0.48876100  1
  V  V2  1  0.12652200  0.42111100  0.48902800  1
  V  V3  1  0.12310000  0.41737500  0.98876100  1
  V  V4  1  0.58262500  0.70572500  0.98876100  1
  V  V5  1  0.57888900  0.70541200  0.48902800  1
  V  V6  1  0.00000000  0.00000000  0.99280000  1
  V  V7  1  0.00000000  0.00000000  0.49280000  1
  V  V8  1  0.42111100  0.29458800  0.98902800  1
  V  V9  1  0.41737500  0.29427500  0.48876100  1
  V  V10  1  0.87690000  0.58262500  0.48876100  1
  V  V11  1  0.87347800  0.57888900  0.98902800  1
  V  V12  1  0.29427500  0.87690000  0.98876100  1
  V  V13  1  0.29458800  0.87347800  0.48902800  1
  P  P0  1  0.18314900  0.24230500  0.24104800  1
  P  P1  1  0.94084400  0.18314900  0.74104800  1
  P  P2  1  0.36777200  0.48464400  0.74000000  1
  P  P3  1  0.48464400  0.11687200  0.24000000  1
  P  P4  1  0.88312800  0.36777200  0.24000000  1
  P  P5  1  0.24230500  0.05915600  0.74104800  1
  P  P6  1  0.75769500  0.94084400  0.24104800  1
  P  P7  1  0.11687200  0.63222800  0.74000000  1
  P  P8  1  0.51535600  0.88312800  0.74000000  1
  P  P9  1  0.63222800  0.51535600  0.24000000  1
  P  P10  1  0.05915600  0.81685100  0.24104800  1
  P  P11  1  0.81685100  0.75769500  0.74104800  1
  O  O0  1  0.12451200  0.10927800  0.24237900  1
  O  O1  1  0.01523400  0.12451200  0.74237900  1
  O  O2  1  0.69436800  0.01135300  0.23833800  1
  O  O3  1  0.36566600  0.36777900  0.74524100  1
  O  O4  1  0.14759400  0.27874300  0.43908800  1
  O  O5  1  0.86885100  0.14759400  0.93908800  1
  O  O6  1  0.14508200  0.27677300  0.04404500  1
  O  O7  1  0.86830900  0.14508200  0.54404500  1
  O  O8  1  0.01135300  0.31698500  0.73833800  1
  O  O9  1  0.36777900  0.00211200  0.24524100  1
  O  O10  1  0.42799300  0.54609500  0.53876300  1
  O  O11  1  0.54609500  0.11810200  0.03876300  1
  O  O12  1  0.24331700  0.45885900  0.73853800  1
  O  O13  1  0.55308300  0.13018200  0.43979400  1
  O  O14  1  0.42290100  0.55308300  0.93979400  1
  O  O15  1  0.68301500  0.69436800  0.73833800  1
  O  O16  1  0.78445800  0.24331700  0.23853800  1
  O  O17  1  0.99788800  0.36566600  0.24524100  1
  O  O18  1  0.10927800  0.98476600  0.74237900  1
  O  O19  1  0.45885900  0.21554200  0.23853800  1
  O  O20  1  0.27677300  0.13169100  0.54404500  1
  O  O21  1  0.88189800  0.42799300  0.03876300  1
  O  O22  1  0.27874300  0.13114900  0.93908800  1
  O  O23  1  0.13018200  0.57709900  0.93979400  1
  O  O24  1  0.86981800  0.42290100  0.43979400  1
  O  O25  1  0.72125700  0.86885100  0.43908800  1
  O  O26  1  0.11810200  0.57200700  0.53876300  1
  O  O27  1  0.72322700  0.86830900  0.04404500  1
  O  O28  1  0.54114100  0.78445800  0.73853800  1
  O  O29  1  0.89072200  0.01523400  0.24237900  1
  O  O30  1  0.00211200  0.63433400  0.74524100  1
  O  O31  1  0.21554200  0.75668300  0.73853800  1
  O  O32  1  0.31698500  0.30563200  0.23833800  1
  O  O33  1  0.57709900  0.44691700  0.43979400  1
  O  O34  1  0.44691700  0.86981800  0.93979400  1
  O  O35  1  0.75668300  0.54114100  0.23853800  1
  O  O36  1  0.45390500  0.88189800  0.53876300  1
  O  O37  1  0.57200700  0.45390500  0.03876300  1
  O  O38  1  0.63222100  0.99788800  0.74524100  1
  O  O39  1  0.98864700  0.68301500  0.23833800  1
  O  O40  1  0.13169100  0.85491800  0.04404500  1
  O  O41  1  0.85491800  0.72322700  0.54404500  1
  O  O42  1  0.13114900  0.85240600  0.43908800  1
  O  O43  1  0.85240600  0.72125700  0.93908800  1
  O  O44  1  0.63433400  0.63222100  0.24524100  1
  O  O45  1  0.30563200  0.98864700  0.73833800  1
  O  O46  1  0.98476600  0.87548800  0.24237900  1
  O  O47  1  0.87548800  0.89072200  0.74237900  1
  F  F0  1  0.72530100  0.24146000  0.72948500  1
  F  F1  1  0.24146000  0.51615900  0.22948500  1
  F  F2  1  0.48384100  0.72530100  0.22948500  1
  F  F3  1  0.51615900  0.27469900  0.72948500  1
  F  F4  1  0.75854000  0.48384100  0.72948500  1
  F  F5  1  0.27469900  0.75854000  0.22948500  1
loop_
_geom_bond_atom_site_label_1
_geom_bond_atom_site_label_2
_geom_bond_distance
_geom_bond_site_symmetry_2
Li0 O6 2.068470 1_556
Li0 O4 2.084066 1_555
Li0 O1 2.088253 1_555
Li0 O3 2.176499 1_555
Li0 O12 2.475013 1_555
Li1 O7 2.068470 1_555
Li1 O5 2.084066 1_554
Li1 O29 2.088253 1_555
Li1 O17 2.176497 1_555
Li1 O16 2.475013 1_555
Li2 O10 2.017654 1_555
Li2 O14 2.080383 1_554
Li2 O32 2.357437 1_555
Li3 O11 2.017654 1_556
Li3 O13 2.080383 1_555
Li3 O45 2.357437 1_545
Li4 O20 2.068470 1_555
Li4 O22 2.084066 1_554
Li4 O0 2.088253 1_555
Li4 O9 2.176510 1_555
Li4 O19 2.475013 1_555
Li5 O21 2.017654 1_556
Li5 O24 2.080383 1_555
Li5 O8 2.357437 1_655
Li6 O24 2.534368 1_555
Li6 O13 2.534369 1_555
Li6 O33 2.534380 1_555
Li7 O23 2.534368 1_554
Li7 O34 2.534369 1_554
Li7 O14 2.534380 1_554
Li8 O26 2.017654 1_555
Li8 O23 2.080383 1_554
Li8 O39 2.357437 1_455
Li9 O27 2.068470 1_556
Li9 O25 2.084066 1_555
Li9 O47 2.088253 1_555
Li9 O38 2.176510 1_555
Li9 O28 2.475013 1_555
Li10 O36 2.017654 1_555
Li10 O34 2.080383 1_554
Li10 O2 2.357437 1_565
Li11 O37 2.017654 1_556
Li11 O33 2.080383 1_555
Li11 O15 2.357437 1_555
Li12 O40 2.068470 1_556
Li12 O42 2.084066 1_555
Li12 O18 2.088253 1_555
Li12 O30 2.176497 1_555
Li12 O31 2.475013 1_555
Li13 O41 2.068470 1_555
Li13 O43 2.084066 1_554
Li13 O46 2.088253 1_555
Li13 O44 2.176499 1_555
Li13 O35 2.475013 1_555
O0 P0 1.577255 1_555
O0 V6 2.274408 1_554
O0 V7 2.278254 1_555
O1 P1 1.577255 1_455
O1 V7 2.274408 1_555
O1 V6 2.278254 1_555
O2 P6 1.583984 1_545
O2 V1 2.173870 1_555
O2 V0 2.201274 1_554
O3 P2 1.582410 1_555
O3 V8 2.191419 1_555
O3 V9 2.225388 1_555
O4 P0 1.535172 1_555
O4 V2 2.127826 1_555
O5 P1 1.535172 1_555
O5 V0 2.127813 1_555
O6 P0 1.533376 1_555
O6 V3 2.117084 1_554
O7 P1 1.533376 1_555
O7 V1 2.117084 1_555
O8 P1 1.583984 1_455
O8 V3 2.173871 1_555
O8 V2 2.201278 1_555
O9 P3 1.582416 1_555
O9 V13 2.191404 1_545
O9 V12 2.225381 1_544
O10 P2 1.541196 1_555
O10 V5 2.145029 1_555
O11 P3 1.541196 1_555
O11 V0 2.145035 1_554
O12 P2 1.554064 1_555
O12 V2 2.139623 1_555
O12 V3 2.165977 1_555
O13 P3 1.548379 1_555
O13 V1 2.158150 1_555
O14 P2 1.548379 1_555
O14 V4 2.158150 1_555
O15 P11 1.583984 1_555
O15 V4 2.173870 1_555
O15 V5 2.201284 1_555
O16 P4 1.554064 1_555
O16 V0 2.139621 1_554
O16 V1 2.165977 1_555
O17 P4 1.582423 1_555
O17 V2 2.191402 1_655
O17 V3 2.225380 1_654
O18 P5 1.577255 1_565
O18 V7 2.274408 1_565
O18 V6 2.278254 1_565
O19 P3 1.554064 1_555
O19 V8 2.139614 1_554
O19 V9 2.165977 1_555
O20 P5 1.533376 1_555
O20 V9 2.117084 1_555
O21 P4 1.541196 1_555
O21 V11 2.145022 1_554
O22 P5 1.535172 1_555
O22 V8 2.127818 1_555
O23 P7 1.548379 1_555
O23 V3 2.158150 1_555
O24 P4 1.548379 1_555
O24 V10 2.158150 1_555
O25 P6 1.535172 1_555
O25 V5 2.127818 1_555
O26 P7 1.541196 1_555
O26 V2 2.145022 1_555
O27 P6 1.533376 1_555
O27 V4 2.117084 1_554
O28 P8 1.554064 1_555
O28 V5 2.139614 1_555
O28 V4 2.165977 1_555
O29 P6 1.577255 1_545
O29 V6 2.274408 1_654
O29 V7 2.278254 1_655
O30 P7 1.582423 1_555
O30 V11 2.191402 1_455
O30 V10 2.225380 1_455
O31 P7 1.554064 1_555
O31 V13 2.139621 1_555
O31 V12 2.165977 1_555
O32 P0 1.583984 1_555
O32 V9 2.173870 1_555
O32 V8 2.201284 1_554
O33 P9 1.548379 1_555
O33 V9 2.158150 1_555
O34 P8 1.548379 1_555
O34 V12 2.158150 1_555
O35 P9 1.554064 1_555
O35 V11 2.139623 1_554
O35 V10 2.165977 1_555
O36 P8 1.541196 1_555
O36 V13 2.145035 1_555
O37 P9 1.541196 1_555
O37 V8 2.145029 1_554
O38 P8 1.582416 1_555
O38 V0 2.191404 1_565
O38 V1 2.225381 1_565
O39 P10 1.583984 1_655
O39 V10 2.173871 1_555
O39 V11 2.201278 1_554
O40 P10 1.533376 1_555
O40 V12 2.117084 1_554
O41 P11 1.533376 1_555
O41 V10 2.117084 1_555
O42 P10 1.535172 1_555
O42 V13 2.127813 1_555
O43 P11 1.535172 1_555
O43 V11 2.127826 1_555
O44 P9 1.582410 1_555
O44 V5 2.191419 1_555
O44 V4 2.225388 1_554
O45 P5 1.583984 1_565
O45 V12 2.173870 1_555
O45 V13 2.201274 1_555
O46 P10 1.577255 1_655
O46 V6 2.274408 1_664
O46 V7 2.278254 1_665
O47 P11 1.577255 1_555
O47 V7 2.274408 1_665
O47 V6 2.278254 1_665
F0 Li5 1.955157 1_555
F0 Li6 2.094674 1_555
F0 V1 2.159485 1_555
F0 V0 2.216790 1_555
F1 Li2 1.955157 1_555
F1 Li7 2.094683 1_555
F1 V3 2.159485 1_554
F1 V2 2.216787 1_555
F2 Li10 1.955157 1_555
F2 Li7 2.094685 1_555
F2 V4 2.159485 1_554
F2 V5 2.216781 1_555
F3 Li3 1.955157 1_555
F3 Li6 2.094685 1_555
F3 V9 2.159485 1_555
F3 V8 2.216781 1_555
F4 Li11 1.955157 1_555
F4 Li6 2.094683 1_555
F4 V10 2.159485 1_555
F4 V11 2.216787 1_555
F5 Li8 1.955157 1_555
F5 Li7 2.094674 1_555
F5 V12 2.159485 1_554
F5 V13 2.216790 1_555
