# generated using pymatgen
data_Mn8O13F3
_symmetry_space_group_name_H-M   'P 1'
_cell_length_a   6.74861321
_cell_length_b   5.52281954
_cell_length_c   6.70285453
_cell_angle_alpha   89.68715624
_cell_angle_beta   96.06567361
_cell_angle_gamma   89.35955868
_symmetry_Int_Tables_number   1
_chemical_formula_structural   Mn8O13F3
_chemical_formula_sum   'Mn8 O13 F3'
_cell_volume   248.40486954
_cell_formula_units_Z   1
loop_
 _symmetry_equiv_pos_site_id
 _symmetry_equiv_pos_as_xyz
  1  'x, y, z'
loop_
 _atom_site_type_symbol
 _atom_site_label
 _atom_site_symmetry_multiplicity
 _atom_site_fract_x
 _atom_site_fract_y
 _atom_site_fract_z
 _atom_site_occupancy
  Mn  Mn0  1  0.37486800  0.35276500  0.12703100  1
  Mn  Mn1  1  0.11551100  0.66667600  0.37703100  1
  Mn  Mn2  1  0.87759400  0.17137500  0.13503400  1
  Mn  Mn3  1  0.37491700  0.11660500  0.62206300  1
  Mn  Mn4  1  0.13425200  0.85768300  0.87956600  1
  Mn  Mn5  1  0.62752400  0.85338100  0.36841600  1
  Mn  Mn6  1  0.62575100  0.64754600  0.87105900  1
  Mn  Mn7  1  0.87567800  0.35777600  0.62720100  1
  O  O0  1  0.15474600  0.11534800  0.08007200  1
  O  O1  1  0.17072400  0.61656100  0.09871300  1
  O  O2  1  0.57348900  0.61160400  0.15097400  1
  O  O3  1  0.07714300  0.61545700  0.65941600  1
  O  O4  1  0.34620700  0.88448000  0.42044500  1
  O  O5  1  0.09698400  0.10418600  0.67208700  1
  O  O6  1  0.59820900  0.11397300  0.16895800  1
  O  O7  1  0.40401000  0.88376200  0.82923600  1
  O  O8  1  0.65375600  0.10213600  0.57742800  1
  O  O9  1  0.89960900  0.89560800  0.32114900  1
  O  O10  1  0.92896600  0.39326600  0.35082100  1
  O  O11  1  0.67227100  0.60898400  0.58851200  1
  O  O12  1  0.82267200  0.38701900  0.90416300  1
  F  F0  1  0.32908900  0.38007100  0.42910000  1
  F  F1  1  0.41185800  0.36875400  0.82118400  1
  F  F2  1  0.85417400  0.89498800  0.92034100  1
loop_
_geom_bond_atom_site_label_1
_geom_bond_atom_site_label_2
_geom_bond_distance
_geom_bond_site_symmetry_2
Mn0 O2 1.966184 1_555
Mn0 O6 1.987964 1_555
Mn0 O1 1.988329 1_555
Mn0 O0 1.993576 1_555
Mn1 O9 1.923578 1_455
Mn1 O3 1.956800 1_555
Mn1 O1 1.961088 1_555
Mn1 O10 1.973443 1_455
Mn1 O4 1.976219 1_555
Mn2 O10 1.907059 1_555
Mn2 O12 1.949179 1_554
Mn2 O6 1.952013 1_555
Mn2 O9 1.957785 1_545
Mn2 O0 1.965645 1_655
Mn3 O4 1.864534 1_545
Mn3 O7 1.880904 1_545
Mn3 O8 1.937230 1_555
Mn3 O5 1.941850 1_555
Mn4 O7 1.893111 1_555
Mn4 O5 1.936090 1_565
Mn4 O0 1.958673 1_566
Mn4 O1 1.971430 1_556
Mn4 O3 2.007126 1_555
Mn5 O9 1.912614 1_555
Mn5 O6 1.953093 1_565
Mn5 O8 1.963549 1_565
Mn5 O4 1.971981 1_555
Mn5 O2 1.989987 1_555
Mn5 O11 1.991096 1_555
Mn6 O12 1.943462 1_555
Mn6 O2 1.954836 1_556
Mn6 O11 1.964493 1_555
Mn6 O7 1.970676 1_555
Mn7 O10 1.933400 1_555
Mn7 O12 1.934613 1_555
Mn7 O11 1.937698 1_555
Mn7 O3 1.976112 1_655
Mn7 O5 2.033778 1_655
Mn7 O8 2.072307 1_555
F0 Mn3 1.941812 1_555
F0 Mn0 2.086190 1_555
F0 Mn1 2.131064 1_555
F1 Mn3 1.934042 1_555
F1 Mn0 2.092720 1_556
F1 Mn6 2.125900 1_555
F2 Mn4 1.947011 1_655
F2 Mn6 2.073017 1_555
F2 Mn2 2.099329 1_566
