# generated using pymatgen
data_Li6Mn5SbO12
_symmetry_space_group_name_H-M   'P 1'
_cell_length_a   5.31810128
_cell_length_b   5.31810128
_cell_length_c   10.44754596
_cell_angle_alpha   86.67357865
_cell_angle_beta   86.67357865
_cell_angle_gamma   117.05946145
_symmetry_Int_Tables_number   1
_chemical_formula_structural   Li6Mn5SbO12
_chemical_formula_sum   'Li6 Mn5 Sb1 O12'
_cell_volume   261.50453357
_cell_formula_units_Z   1
loop_
 _symmetry_equiv_pos_site_id
 _symmetry_equiv_pos_as_xyz
  1  'x, y, z'
loop_
 _atom_site_type_symbol
 _atom_site_label
 _atom_site_symmetry_multiplicity
 _atom_site_fract_x
 _atom_site_fract_y
 _atom_site_fract_z
 _atom_site_occupancy
  Li  Li0  1  0.43694000  0.09793000  0.71452900  1
  Li  Li1  1  0.23591700  0.23591700  0.28529700  1
  Li  Li2  1  0.90207000  0.56306000  0.28547100  1
  Li  Li3  1  0.09793000  0.43694000  0.71452900  1
  Li  Li4  1  0.76408300  0.76408300  0.71470300  1
  Li  Li5  1  0.56306000  0.90207000  0.28547100  1
  Mn  Mn0  1  0.83232900  0.16767100  0.50000000  1
  Mn  Mn1  1  0.50000000  0.50000000  0.50000000  1
  Mn  Mn2  1  0.16767100  0.83232900  0.50000000  1
  Mn  Mn3  1  0.66689900  0.33310100  0.00000000  1
  Mn  Mn4  1  0.33310100  0.66689900  0.00000000  1
  Sb  Sb0  1  0.00000000  0.00000000  0.00000000  1
  O  O0  1  0.67435500  0.99773100  0.10607800  1
  O  O1  1  0.00226900  0.32564500  0.89392200  1
  O  O2  1  0.56902500  0.21327100  0.38349100  1
  O  O3  1  0.10339600  0.10339600  0.60886200  1
  O  O4  1  0.78672900  0.43097500  0.61650900  1
  O  O5  1  0.29877200  0.29877200  0.09912300  1
  O  O6  1  0.70122800  0.70122800  0.90087700  1
  O  O7  1  0.21327100  0.56902500  0.38349100  1
  O  O8  1  0.89660400  0.89660400  0.39113800  1
  O  O9  1  0.43097500  0.78672900  0.61650900  1
  O  O10  1  0.99773100  0.67435500  0.10607800  1
  O  O11  1  0.32564500  0.00226900  0.89392200  1
loop_
_geom_bond_atom_site_label_1
_geom_bond_atom_site_label_2
_geom_bond_distance
_geom_bond_site_symmetry_2
Li0 O11 1.899599 1_555
Li0 O9 1.985303 1_545
Li0 O4 2.053514 1_555
Li0 O3 2.153243 1_555
Li1 O5 1.937568 1_555
Li1 O8 2.075924 1_445
Li1 O2 2.143792 1_555
Li1 O7 2.143792 1_555
Li2 O10 1.899599 1_555
Li2 O7 1.985303 1_655
Li2 O2 2.053514 1_555
Li2 O8 2.153243 1_555
Li3 O1 1.899599 1_555
Li3 O4 1.985303 1_455
Li3 O9 2.053514 1_555
Li3 O3 2.153243 1_555
Li4 O6 1.937568 1_555
Li4 O3 2.075924 1_665
Li4 O9 2.143792 1_555
Li4 O4 2.143792 1_555
Li5 O0 1.899599 1_555
Li5 O2 1.985303 1_565
Li5 O7 2.053514 1_555
Li5 O8 2.153243 1_555
Mn0 O4 1.993425 1_555
Mn0 O2 1.993425 1_555
Mn0 O3 2.020386 1_655
Mn0 O8 2.020386 1_545
Mn0 O9 2.370613 1_545
Mn0 O7 2.370613 1_655
Mn1 O9 2.148116 1_555
Mn1 O4 2.148116 1_555
Mn1 O7 2.148116 1_555
Mn1 O2 2.148116 1_555
Mn1 O8 2.363589 1_555
Mn1 O3 2.363589 1_555
Mn2 O9 1.993425 1_555
Mn2 O7 1.993425 1_555
Mn2 O8 2.020386 1_455
Mn2 O3 2.020386 1_565
Mn2 O4 2.370613 1_455
Mn2 O2 2.370613 1_565
Mn3 O0 2.061758 1_545
Mn3 O1 2.061758 1_654
Mn3 O5 2.087129 1_555
Mn3 O6 2.087129 1_554
Mn3 O10 2.274180 1_555
Mn3 O11 2.274180 1_554
Mn4 O10 2.061758 1_455
Mn4 O11 2.061758 1_564
Mn4 O5 2.087129 1_555
Mn4 O6 2.087129 1_554
Mn4 O0 2.274180 1_555
Mn4 O1 2.274180 1_554
O0 Sb0 1.996060 1_665
O1 Sb0 1.996060 1_556
O5 Sb0 2.051000 1_555
O6 Sb0 2.051000 1_666
O10 Sb0 1.996060 1_665
O11 Sb0 1.996060 1_556
