# generated using pymatgen
data_LiCoSiO4
_symmetry_space_group_name_H-M   'P 1'
_cell_length_a   10.10157491
_cell_length_b   10.10157491
_cell_length_c   16.27832373
_cell_angle_alpha   82.64699707
_cell_angle_beta   82.64699707
_cell_angle_gamma   58.42426518
_symmetry_Int_Tables_number   1
_chemical_formula_structural   LiCoSiO4
_chemical_formula_sum   'Li16 Co16 Si16 O64'
_cell_volume   1399.85038400
_cell_formula_units_Z   16
loop_
 _symmetry_equiv_pos_site_id
 _symmetry_equiv_pos_as_xyz
  1  'x, y, z'
loop_
 _atom_site_type_symbol
 _atom_site_label
 _atom_site_symmetry_multiplicity
 _atom_site_fract_x
 _atom_site_fract_y
 _atom_site_fract_z
 _atom_site_occupancy
  Li  Li0  1  0.20315800  0.80981100  0.00241200  1
  Li  Li1  1  0.80981100  0.20315800  0.50241200  1
  Li  Li2  1  0.70095600  0.57656100  0.25253500  1
  Li  Li3  1  0.26213800  0.07666100  0.25120100  1
  Li  Li4  1  0.13984300  0.30930600  0.00134200  1
  Li  Li5  1  0.57656100  0.70095600  0.75253500  1
  Li  Li6  1  0.70510800  0.80852100  0.00316600  1
  Li  Li7  1  0.07666100  0.26213800  0.75120100  1
  Li  Li8  1  0.30930600  0.13984300  0.50134200  1
  Li  Li9  1  0.80852100  0.70510800  0.50316600  1
  Li  Li10  1  0.20300400  0.57018500  0.25174400  1
  Li  Li11  1  0.76218200  0.08173900  0.25329100  1
  Li  Li12  1  0.63907000  0.30905500  0.00244400  1
  Li  Li13  1  0.57018500  0.20300400  0.75174400  1
  Li  Li14  1  0.08173900  0.76218200  0.75329100  1
  Li  Li15  1  0.30905500  0.63907000  0.50244400  1
  Co  Co0  1  0.88240100  0.26853200  0.12879100  1
  Co  Co1  1  0.44682200  0.77041700  0.12897400  1
  Co  Co2  1  0.26853200  0.88240100  0.62879100  1
  Co  Co3  1  0.77041700  0.44682200  0.62897400  1
  Co  Co4  1  0.00490300  0.32113100  0.37836300  1
  Co  Co5  1  0.50906500  0.88189200  0.37874300  1
  Co  Co6  1  0.32113100  0.00490300  0.87836300  1
  Co  Co7  1  0.88189200  0.50906500  0.87874300  1
  Co  Co8  1  0.38012200  0.27145200  0.12791200  1
  Co  Co9  1  0.94680600  0.76924100  0.13026900  1
  Co  Co10  1  0.27145200  0.38012200  0.62791200  1
  Co  Co11  1  0.76924100  0.94680600  0.63026900  1
  Co  Co12  1  0.00876600  0.82204600  0.37899000  1
  Co  Co13  1  0.50346600  0.38341300  0.37944400  1
  Co  Co14  1  0.82204600  0.00876600  0.87899000  1
  Co  Co15  1  0.38341300  0.50346600  0.87944400  1
  Si  Si0  1  0.10143100  0.91637600  0.19087300  1
  Si  Si1  1  0.91637600  0.10143100  0.69087300  1
  Si  Si2  1  0.16832300  0.98046400  0.43935400  1
  Si  Si3  1  0.66557700  0.53825300  0.44123900  1
  Si  Si4  1  0.98046400  0.16832300  0.93935400  1
  Si  Si5  1  0.53825400  0.66557700  0.94123900  1
  Si  Si6  1  0.04111600  0.41929900  0.18894800  1
  Si  Si7  1  0.60196200  0.91935800  0.19065000  1
  Si  Si8  1  0.41929900  0.04111600  0.68894800  1
  Si  Si9  1  0.91935800  0.60196200  0.69065000  1
  Si  Si10  1  0.16576000  0.47987100  0.43935900  1
  Si  Si11  1  0.66564000  0.04004900  0.44190300  1
  Si  Si12  1  0.47987100  0.16576000  0.93935900  1
  Si  Si13  1  0.04004900  0.66564000  0.94190300  1
  Si  Si14  1  0.54288900  0.42047400  0.18919000  1
  Si  Si15  1  0.42047400  0.54288900  0.68919000  1
  O  O0  1  0.67538800  0.33187000  0.11375600  1
  O  O1  1  0.94944000  0.09262700  0.20209400  1
  O  O2  1  0.52044300  0.59047800  0.20000600  1
  O  O3  1  0.41973300  0.74584600  0.02261100  1
  O  O4  1  0.33187000  0.67538800  0.61375600  1
  O  O5  1  0.50507300  0.54487700  0.42472300  1
  O  O6  1  0.98407500  0.23989500  0.02377200  1
  O  O7  1  0.25981600  0.92563900  0.17864200  1
  O  O8  1  0.09262700  0.94944000  0.70209400  1
  O  O9  1  0.00145100  0.14217100  0.42397500  1
  O  O10  1  0.59047800  0.52044300  0.70000600  1
  O  O11  1  0.74584600  0.41973300  0.52261100  1
  O  O12  1  0.54487700  0.50507300  0.92472300  1
  O  O13  1  0.79474100  0.46575100  0.36153500  1
  O  O14  1  0.29775000  0.96896800  0.36333900  1
  O  O15  1  0.87655100  0.43765300  0.16960600  1
  O  O16  1  0.23989500  0.98407500  0.52377200  1
  O  O17  1  0.92563900  0.25981600  0.67864200  1
  O  O18  1  0.14217100  0.00145100  0.92397500  1
  O  O19  1  0.62893000  0.71316100  0.45310600  1
  O  O20  1  0.59074800  0.83829900  0.11237300  1
  O  O21  1  0.10696600  0.30041300  0.27244400  1
  O  O22  1  0.60293300  0.80855000  0.27452600  1
  O  O23  1  0.46575100  0.79474100  0.86153500  1
  O  O24  1  0.96896800  0.29775000  0.86333900  1
  O  O25  1  0.43765300  0.87655100  0.66960600  1
  O  O26  1  0.17319500  0.33623000  0.11232800  1
  O  O27  1  0.44778800  0.09456000  0.20041100  1
  O  O28  1  0.13232500  0.33643600  0.44674800  1
  O  O29  1  0.71316100  0.62893000  0.95310600  1
  O  O30  1  0.83829900  0.59074800  0.61237300  1
  O  O31  1  0.30041300  0.10696600  0.77244400  1
  O  O32  1  0.80855000  0.60293300  0.77452600  1
  O  O33  1  0.01860300  0.58885500  0.20164500  1
  O  O34  1  0.92176600  0.74236000  0.02406800  1
  O  O35  1  0.33623000  0.17319500  0.61232800  1
  O  O36  1  0.50725300  0.04474200  0.42398300  1
  O  O37  1  0.48005900  0.24331800  0.02219200  1
  O  O38  1  0.76034500  0.92927500  0.17817200  1
  O  O39  1  0.09456000  0.44778800  0.70041100  1
  O  O40  1  0.33643600  0.13232500  0.94674800  1
  O  O41  1  0.00133300  0.64494900  0.42521500  1
  O  O42  1  0.58885500  0.01860300  0.70164500  1
  O  O43  1  0.74236000  0.92176600  0.52406800  1
  O  O44  1  0.04474200  0.50725300  0.92398300  1
  O  O45  1  0.29357000  0.46528300  0.36124900  1
  O  O46  1  0.79953200  0.96825300  0.36418200  1
  O  O47  1  0.24331800  0.48005900  0.52219200  1
  O  O48  1  0.37908600  0.43703300  0.16984500  1
  O  O49  1  0.92927500  0.76034500  0.67817200  1
  O  O50  1  0.64494900  0.00133300  0.92521500  1
  O  O51  1  0.62609500  0.21595300  0.45398900  1
  O  O52  1  0.08706600  0.84138900  0.11062700  1
  O  O53  1  0.10496200  0.79867100  0.27154700  1
  O  O54  1  0.60501000  0.31023500  0.27584700  1
  O  O55  1  0.46528300  0.29357000  0.86124900  1
  O  O56  1  0.96825300  0.79953200  0.86418200  1
  O  O57  1  0.43703300  0.37908600  0.66984500  1
  O  O58  1  0.21595300  0.62609500  0.95398900  1
  O  O59  1  0.13970900  0.83377900  0.44581600  1
  O  O60  1  0.84138900  0.08706600  0.61062700  1
  O  O61  1  0.79867100  0.10496200  0.77154700  1
  O  O62  1  0.31023500  0.60501000  0.77584700  1
  O  O63  1  0.83377900  0.13970900  0.94581600  1
loop_
_geom_bond_atom_site_label_1
_geom_bond_atom_site_label_2
_geom_bond_distance
_geom_bond_site_symmetry_2
Li0 O52 1.950230 1_555
Li0 O3 1.990278 1_555
Li0 O18 2.019178 1_564
Li0 O58 2.044326 1_554
Li1 O60 1.950230 1_555
Li1 O11 1.990278 1_555
Li1 O9 2.019178 1_655
Li1 O51 2.044326 1_555
Li2 O13 2.027335 1_555
Li2 O2 2.043485 1_555
Li2 O15 2.050120 1_555
Li2 O22 2.072268 1_555
Li3 O14 1.973568 1_545
Li3 O21 2.009058 1_555
Li3 O27 2.037935 1_555
Li3 O7 2.056395 1_545
Li4 O26 1.956796 1_555
Li4 O6 2.010888 1_455
Li4 O44 2.039705 1_554
Li4 O40 2.041219 1_554
Li5 O23 2.027335 1_555
Li5 O10 2.043485 1_555
Li5 O25 2.050120 1_555
Li5 O32 2.072268 1_555
Li6 O20 1.957691 1_555
Li6 O34 1.988200 1_555
Li6 O50 2.024405 1_564
Li6 O29 2.041739 1_554
Li7 O24 1.973568 1_455
Li7 O31 2.009058 1_555
Li7 O39 2.037935 1_555
Li7 O17 2.056395 1_455
Li8 O35 1.956796 1_555
Li8 O16 2.010888 1_545
Li8 O36 2.039705 1_555
Li8 O28 2.041219 1_555
Li9 O30 1.957691 1_555
Li9 O43 1.988200 1_555
Li9 O41 2.024405 1_655
Li9 O19 2.041739 1_555
Li10 O45 2.013965 1_555
Li10 O48 2.024064 1_555
Li10 O53 2.031453 1_555
Li10 O33 2.037651 1_555
Li11 O46 1.976536 1_545
Li11 O1 2.018838 1_555
Li11 O54 2.052588 1_555
Li11 O38 2.094133 1_545
Li12 O0 1.958710 1_555
Li12 O37 2.013603 1_555
Li12 O63 2.015089 1_554
Li12 O12 2.029922 1_554
Li13 O55 2.013965 1_555
Li13 O57 2.024064 1_555
Li13 O61 2.031453 1_555
Li13 O42 2.037651 1_555
Li14 O56 1.976536 1_455
Li14 O8 2.018838 1_555
Li14 O62 2.052588 1_555
Li14 O49 2.094133 1_455
Li15 O4 1.958710 1_555
Li15 O47 2.013603 1_555
Li15 O59 2.015089 1_555
Li15 O5 2.029922 1_555
Co0 O6 1.851233 1_555
Co0 O1 1.855750 1_555
Co0 O0 1.879349 1_555
Co0 O15 1.881028 1_555
Co1 O3 1.853826 1_555
Co1 O2 1.860232 1_555
Co1 O7 1.874137 1_555
Co1 O20 1.884954 1_555
Co2 O16 1.851233 1_555
Co2 O8 1.855750 1_555
Co2 O4 1.879349 1_555
Co2 O25 1.881028 1_555
Co3 O11 1.853826 1_555
Co3 O10 1.860232 1_555
Co3 O17 1.874137 1_555
Co3 O30 1.884954 1_555
Co4 O21 1.868409 1_555
Co4 O13 1.874750 1_455
Co4 O9 1.880528 1_555
Co4 O28 1.881252 1_555
Co5 O22 1.870910 1_555
Co5 O14 1.872799 1_555
Co5 O19 1.876783 1_555
Co5 O36 1.877214 1_565
Co6 O31 1.868409 1_555
Co6 O23 1.874750 1_545
Co6 O18 1.880528 1_555
Co6 O40 1.881252 1_555
Co7 O32 1.870910 1_555
Co7 O24 1.872799 1_555
Co7 O29 1.876783 1_555
Co7 O44 1.877214 1_655
Co8 O27 1.854874 1_555
Co8 O37 1.855151 1_555
Co8 O26 1.876874 1_555
Co8 O48 1.880378 1_555
Co9 O34 1.852132 1_555
Co9 O33 1.867109 1_655
Co9 O38 1.878058 1_555
Co9 O52 1.883254 1_655
Co10 O39 1.854874 1_555
Co10 O47 1.855151 1_555
Co10 O35 1.876874 1_555
Co10 O57 1.880378 1_555
Co11 O43 1.852132 1_555
Co11 O42 1.867109 1_565
Co11 O49 1.878058 1_555
Co11 O60 1.883254 1_565
Co12 O46 1.864632 1_455
Co12 O53 1.867989 1_555
Co12 O59 1.874164 1_555
Co12 O41 1.885169 1_555
Co13 O54 1.877429 1_555
Co13 O45 1.878551 1_555
Co13 O51 1.879732 1_555
Co13 O5 1.882108 1_555
Co14 O56 1.864632 1_545
Co14 O61 1.867989 1_555
Co14 O63 1.874164 1_555
Co14 O50 1.885169 1_555
Co15 O62 1.877429 1_555
Co15 O55 1.878551 1_555
Co15 O58 1.879732 1_555
Co15 O12 1.882108 1_555
O0 Si14 1.645126 1_555
O1 Si0 1.645986 1_645
O2 Si14 1.640412 1_555
O3 Si5 1.642490 1_554
O4 Si15 1.645126 1_555
O5 Si3 1.642823 1_555
O6 Si4 1.645351 1_554
O7 Si0 1.636665 1_555
O8 Si1 1.645986 1_465
O9 Si2 1.640782 1_545
O10 Si15 1.640412 1_555
O11 Si3 1.642487 1_555
O12 Si5 1.642828 1_555
O13 Si3 1.652674 1_555
O14 Si2 1.648532 1_555
O15 Si6 1.641105 1_655
O16 Si2 1.645351 1_555
O17 Si1 1.636665 1_555
O18 Si4 1.640782 1_455
O19 Si3 1.637127 1_555
O20 Si7 1.645626 1_555
O21 Si6 1.645934 1_555
O22 Si7 1.648623 1_555
O23 Si5 1.652675 1_555
O24 Si4 1.648532 1_555
O25 Si8 1.641105 1_565
O26 Si6 1.646007 1_555
O27 Si7 1.644713 1_545
O28 Si10 1.638716 1_555
O29 Si5 1.637117 1_555
O30 Si9 1.645626 1_555
O31 Si8 1.645934 1_555
O32 Si9 1.648623 1_555
O33 Si6 1.642779 1_555
O34 Si13 1.644296 1_654
O35 Si8 1.646007 1_555
O36 Si11 1.638200 1_555
O37 Si12 1.644555 1_554
O38 Si7 1.640271 1_555
O39 Si9 1.644713 1_455
O40 Si12 1.638716 1_555
O41 Si10 1.640593 1_555
O42 Si8 1.642779 1_555
O43 Si11 1.644296 1_565
O44 Si13 1.638200 1_555
O45 Si10 1.653433 1_555
O46 Si11 1.650924 1_565
O47 Si10 1.644555 1_555
O48 Si14 1.641677 1_555
O49 Si9 1.640271 1_555
O50 Si12 1.640593 1_555
O51 Si11 1.637587 1_555
O52 Si0 1.648662 1_555
O53 Si0 1.645449 1_555
O54 Si14 1.648155 1_555
O55 Si12 1.653433 1_555
O56 Si13 1.650924 1_655
O57 Si15 1.641677 1_555
O58 Si13 1.637587 1_555
O59 Si2 1.640441 1_555
O60 Si1 1.648662 1_555
O61 Si1 1.645449 1_555
O62 Si15 1.648155 1_555
O63 Si4 1.640441 1_555
