# generated using pymatgen
data_Ti3Mn2P6WO24
_symmetry_space_group_name_H-M   'P 1'
_cell_length_a   8.74011317
_cell_length_b   8.72917455
_cell_length_c   8.72917369
_cell_angle_alpha   60.00000009
_cell_angle_beta   60.04139041
_cell_angle_gamma   60.04139282
_symmetry_Int_Tables_number   1
_chemical_formula_structural   Ti3Mn2P6WO24
_chemical_formula_sum   'Ti3 Mn2 P6 W1 O24'
_cell_volume   471.21574950
_cell_formula_units_Z   1
loop_
 _symmetry_equiv_pos_site_id
 _symmetry_equiv_pos_as_xyz
  1  'x, y, z'
loop_
 _atom_site_type_symbol
 _atom_site_label
 _atom_site_symmetry_multiplicity
 _atom_site_fract_x
 _atom_site_fract_y
 _atom_site_fract_z
 _atom_site_occupancy
  Ti  Ti0  1  0.06179400  0.64606800  0.64606800  1
  Ti  Ti1  1  0.43570100  0.85476600  0.85476600  1
  Ti  Ti2  1  0.93912800  0.35362400  0.35362400  1
  Mn  Mn0  1  0.00698200  0.99767300  0.99767300  1
  Mn  Mn1  1  0.49688200  0.50103900  0.50103900  1
  P  P0  1  0.24651000  0.25168300  0.54788400  1
  P  P1  1  0.24651000  0.95392200  0.25168300  1
  P  P2  1  0.24651000  0.54788400  0.95392200  1
  P  P3  1  0.75205700  0.46092800  0.04298900  1
  P  P4  1  0.75205700  0.04298900  0.74402600  1
  P  P5  1  0.75205700  0.74402600  0.46092800  1
  W  W0  1  0.57463400  0.14178900  0.14178900  1
  O  O0  1  0.07135300  0.11844000  0.30963400  1
  O  O1  1  0.07135300  0.50057400  0.11844000  1
  O  O2  1  0.07135300  0.30963400  0.50057400  1
  O  O3  1  0.23223100  0.08854100  0.73911900  1
  O  O4  1  0.42717900  0.19493400  0.39543800  1
  O  O5  1  0.25227100  0.41644000  0.56815700  1
  O  O6  1  0.23223100  0.94010900  0.08854100  1
  O  O7  1  0.25227100  0.76313300  0.41644000  1
  O  O8  1  0.57284900  0.61799700  0.00120500  1
  O  O9  1  0.25227100  0.56815700  0.76313300  1
  O  O10  1  0.77745800  0.26761100  0.05366700  1
  O  O11  1  0.57284900  0.00120500  0.80794900  1
  O  O12  1  0.42717900  0.98244700  0.19493400  1
  O  O13  1  0.23223100  0.73911900  0.94010900  1
  O  O14  1  0.73667500  0.44644800  0.23502700  1
  O  O15  1  0.42717900  0.39543800  0.98244700  1
  O  O16  1  0.73667500  0.23502700  0.58184900  1
  O  O17  1  0.77745800  0.05366700  0.90126300  1
  O  O18  1  0.73667500  0.58184900  0.44644800  1
  O  O19  1  0.57284900  0.80794900  0.61799700  1
  O  O20  1  0.77745800  0.90126300  0.26761100  1
  O  O21  1  0.92637600  0.68213800  0.50857700  1
  O  O22  1  0.92637600  0.50857700  0.88290800  1
  O  O23  1  0.92637600  0.88290800  0.68213800  1
loop_
_geom_bond_atom_site_label_1
_geom_bond_atom_site_label_2
_geom_bond_distance
_geom_bond_site_symmetry_2
Mn0 O6 2.220471 1_556
Mn0 O3 2.220475 1_565
Mn0 O13 2.220477 1_555
Mn0 O10 2.294975 1_466
Mn0 O20 2.294980 1_456
Mn0 O17 2.294987 1_465
Mn1 O14 2.293481 1_555
Mn1 O18 2.293481 1_555
Mn1 O16 2.293481 1_555
Mn1 O5 2.313550 1_555
Mn1 O7 2.313556 1_555
Mn1 O9 2.313561 1_555
O0 P1 1.555371 1_545
O0 Ti2 1.916564 1_455
O1 P2 1.555366 1_554
O1 Ti2 1.916567 1_455
O2 P0 1.555361 1_555
O2 Ti2 1.916571 1_455
O3 P0 1.556413 1_555
O3 Ti1 2.110547 1_545
O4 P0 1.512932 1_555
O4 W0 2.087743 1_555
O5 P0 1.561405 1_555
O5 Ti0 2.037530 1_555
O6 P1 1.556408 1_555
O6 Ti1 2.110550 1_554
O7 P1 1.561395 1_555
O7 Ti0 2.037540 1_555
O8 P3 1.546559 1_555
O8 Ti1 1.938189 1_554
O9 P2 1.561388 1_555
O9 Ti0 2.037549 1_555
O10 P3 1.547524 1_555
O10 W0 2.162937 1_555
O11 P4 1.546559 1_555
O11 Ti1 1.938193 1_545
O12 P1 1.512927 1_555
O12 W0 2.087766 1_565
O13 P2 1.556417 1_555
O13 Ti1 2.110544 1_555
O14 P3 1.556966 1_555
O14 Ti2 2.101914 1_555
O15 P2 1.512930 1_555
O15 W0 2.087755 1_556
O16 P4 1.556970 1_555
O16 Ti2 2.101912 1_555
O17 P4 1.547516 1_555
O17 W0 2.162950 1_556
O18 P5 1.556975 1_555
O18 Ti2 2.101908 1_555
O19 P5 1.546559 1_555
O19 Ti1 1.938185 1_555
O20 P5 1.547521 1_555
O20 W0 2.162942 1_565
O21 P5 1.540219 1_555
O21 Ti0 1.899749 1_655
O22 P3 1.540222 1_556
O22 Ti0 1.899753 1_655
O23 P4 1.540224 1_565
O23 Ti0 1.899757 1_655
