# generated using pymatgen
data_KZnH4Br3O2
_symmetry_space_group_name_H-M   'P 1'
_cell_length_a   12.68105500
_cell_length_b   6.81272900
_cell_length_c   11.24981722
_cell_angle_alpha   63.29687362
_cell_angle_beta   90.00000000
_cell_angle_gamma   90.00000000
_symmetry_Int_Tables_number   1
_chemical_formula_structural   KZnH4Br3O2
_chemical_formula_sum   'K4 Zn4 H16 Br12 O8'
_cell_volume   868.24459073
_cell_formula_units_Z   4
loop_
 _symmetry_equiv_pos_site_id
 _symmetry_equiv_pos_as_xyz
  1  'x, y, z'
loop_
 _atom_site_type_symbol
 _atom_site_label
 _atom_site_symmetry_multiplicity
 _atom_site_fract_x
 _atom_site_fract_y
 _atom_site_fract_z
 _atom_site_occupancy
  K  K0  1  0.83148300  0.27859900  0.99165700  1
  K  K1  1  0.33148300  0.72140100  0.50834300  1
  K  K2  1  0.16851700  0.72140100  0.00834300  1
  K  K3  1  0.66851700  0.27859900  0.49165700  1
  Zn  Zn0  1  0.92819600  0.00047800  0.73981800  1
  Zn  Zn1  1  0.42819600  0.99952200  0.76018200  1
  Zn  Zn2  1  0.07180400  0.99952200  0.26018200  1
  Zn  Zn3  1  0.57180400  0.00047800  0.23981800  1
  H  H0  1  0.26245400  0.21770300  0.79708800  1
  H  H1  1  0.76245400  0.78229700  0.70291200  1
  H  H2  1  0.73754600  0.78229700  0.20291200  1
  H  H3  1  0.23754600  0.21770300  0.29708800  1
  H  H4  1  0.32862600  0.10718300  0.93365700  1
  H  H5  1  0.82862600  0.89281700  0.56634300  1
  H  H6  1  0.67137400  0.89281700  0.06634300  1
  H  H7  1  0.17137400  0.10718300  0.43365700  1
  H  H8  1  0.13839800  0.49851100  0.71491300  1
  H  H9  1  0.63839800  0.50148900  0.78508700  1
  H  H10  1  0.86160200  0.50148900  0.28508700  1
  H  H11  1  0.36160200  0.49851100  0.21491300  1
  H  H12  1  0.13766200  0.33958800  0.64996500  1
  H  H13  1  0.63766200  0.66041200  0.85003500  1
  H  H14  1  0.86233800  0.66041200  0.35003500  1
  H  H15  1  0.36233800  0.33958800  0.14996500  1
  Br  Br0  1  0.39877200  0.22596800  0.52556500  1
  Br  Br1  1  0.89877200  0.77403200  0.97443500  1
  Br  Br2  1  0.60122800  0.77403200  0.47443500  1
  Br  Br3  1  0.10122800  0.22596800  0.02556500  1
  Br  Br4  1  0.39412800  0.61820200  0.83002000  1
  Br  Br5  1  0.89412800  0.38179800  0.66998000  1
  Br  Br6  1  0.60587200  0.38179800  0.16998000  1
  Br  Br7  1  0.10587200  0.61820200  0.33002000  1
  Br  Br8  1  0.10019200  0.92815000  0.67461400  1
  Br  Br9  1  0.60019200  0.07185000  0.82538600  1
  Br  Br10  1  0.89980800  0.07185000  0.32538600  1
  Br  Br11  1  0.39980800  0.92815000  0.17461400  1
  O  O0  1  0.80621600  0.91403200  0.64386500  1
  O  O1  1  0.30621600  0.08596800  0.85613500  1
  O  O2  1  0.19378400  0.08596800  0.35613500  1
  O  O3  1  0.69378400  0.91403200  0.14386500  1
  O  O4  1  0.68497900  0.58663800  0.81380200  1
  O  O5  1  0.18497900  0.41336200  0.68619800  1
  O  O6  1  0.31502100  0.41336200  0.18619800  1
  O  O7  1  0.81502100  0.58663800  0.31380200  1
loop_
_geom_bond_atom_site_label_1
_geom_bond_atom_site_label_2
_geom_bond_distance
_geom_bond_site_symmetry_2
K0 O4 2.843449 1_555
K0 O3 2.885769 1_546
K1 O5 2.843449 1_555
K1 O2 2.885769 1_565
K2 O6 2.843449 1_555
K2 O1 2.885769 1_564
K3 O7 2.843449 1_555
K3 O0 2.885769 1_545
H0 O1 1.009399 1_555
H1 O0 1.009399 1_555
H2 O3 1.009399 1_555
H3 O2 1.009399 1_555
H4 O1 0.987677 1_555
H5 O0 0.987677 1_555
H6 O3 0.987677 1_555
H7 O2 0.987677 1_555
H8 O5 0.978880 1_555
H9 O4 0.978880 1_555
H10 O7 0.978880 1_555
H11 O6 0.978880 1_555
H12 O5 0.981283 1_555
H13 O4 0.981283 1_555
H14 O7 0.981283 1_555
H15 O6 0.981283 1_555
Br0 Zn1 2.413734 1_545
Br0 K1 3.401507 1_555
Br0 K3 3.442674 1_555
Br0 K1 3.630490 1_545
Br1 Zn0 2.413734 1_565
Br1 K0 3.401507 1_555
Br1 K2 3.442674 1_656
Br1 K0 3.630490 1_565
Br2 Zn3 2.413734 1_565
Br2 K3 3.401507 1_555
Br2 K1 3.442674 1_555
Br2 K3 3.630490 1_565
Br3 Zn2 2.413734 1_545
Br3 K2 3.401507 1_555
Br3 K0 3.442674 1_454
Br3 K2 3.630490 1_545
Br4 Zn1 2.391294 1_555
Br4 K1 3.454639 1_555
Br4 K2 3.737858 1_556
Br5 Zn0 2.391294 1_555
Br5 K0 3.454639 1_555
Br5 K3 3.737858 1_555
Br6 Zn3 2.391294 1_555
Br6 K3 3.454639 1_555
Br6 K0 3.737858 1_554
Br7 Zn2 2.391294 1_555
Br7 K2 3.454639 1_555
Br7 K1 3.737858 1_555
Br8 Zn0 2.421338 1_465
Br8 K2 3.475262 1_556
Br9 Zn1 2.421338 1_545
Br9 K3 3.475262 1_555
Br10 Zn2 2.421338 1_645
Br10 K0 3.475262 1_554
Br11 Zn3 2.421338 1_565
Br11 K1 3.475262 1_555
O0 Zn0 2.115682 1_565
O1 Zn1 2.115682 1_545
O2 Zn2 2.115682 1_545
O3 Zn3 2.115682 1_565
