# generated using pymatgen
data_Mn6O5F7
_symmetry_space_group_name_H-M   'P 1'
_cell_length_a   4.73081100
_cell_length_b   5.72699204
_cell_length_c   7.87890331
_cell_angle_alpha   86.53429477
_cell_angle_beta   88.82132844
_cell_angle_gamma   88.81586131
_symmetry_Int_Tables_number   1
_chemical_formula_structural   Mn6O5F7
_chemical_formula_sum   'Mn6 O5 F7'
_cell_volume   212.98979776
_cell_formula_units_Z   1
loop_
 _symmetry_equiv_pos_site_id
 _symmetry_equiv_pos_as_xyz
  1  'x, y, z'
loop_
 _atom_site_type_symbol
 _atom_site_label
 _atom_site_symmetry_multiplicity
 _atom_site_fract_x
 _atom_site_fract_y
 _atom_site_fract_z
 _atom_site_occupancy
  Mn  Mn0  1  0.51304200  0.51030600  0.01122400  1
  Mn  Mn1  1  0.55075700  0.82700300  0.65926100  1
  Mn  Mn2  1  0.48811900  0.16859600  0.33400700  1
  Mn  Mn3  1  0.97194500  0.33262800  0.68265100  1
  Mn  Mn4  1  0.98685900  0.66346300  0.32157200  1
  Mn  Mn5  1  0.98792400  0.98610400  0.98943600  1
  O  O0  1  0.80967100  0.04161200  0.77454300  1
  O  O1  1  0.81103100  0.70661900  0.09624800  1
  O  O2  1  0.69295800  0.52751900  0.78048400  1
  O  O3  1  0.69091200  0.87886000  0.42656400  1
  O  O4  1  0.31180500  0.46362300  0.23461300  1
  F  F0  1  0.79346200  0.36288200  0.43723700  1
  F  F1  1  0.70763000  0.20010700  0.10881200  1
  F  F2  1  0.28582300  0.13957100  0.57152300  1
  F  F3  1  0.31322700  0.80511000  0.87992100  1
  F  F4  1  0.17437700  0.62450500  0.56361700  1
  F  F5  1  0.20071100  0.97148100  0.21202400  1
  F  F6  1  0.20974900  0.29000800  0.91626200  1
loop_
_geom_bond_atom_site_label_1
_geom_bond_atom_site_label_2
_geom_bond_distance
_geom_bond_site_symmetry_2
Mn0 O1 1.973709 1_555
Mn0 O2 1.989311 1_554
Mn0 O4 1.990054 1_555
Mn1 O3 1.944601 1_555
Mn1 O0 2.019623 1_565
Mn1 O2 2.021680 1_555
Mn2 O4 1.993104 1_555
Mn2 O3 2.005548 1_545
Mn3 O2 1.892925 1_555
Mn3 O0 1.943031 1_555
Mn4 O1 1.975831 1_555
Mn4 O4 2.030068 1_655
Mn4 O3 2.042191 1_555
Mn5 O0 1.913485 1_565
Mn5 O1 1.958065 1_556
F0 Mn2 2.051922 1_555
F0 Mn4 2.114713 1_555
F0 Mn3 2.121881 1_555
F1 Mn2 2.037722 1_555
F1 Mn5 2.041061 1_544
F1 Mn0 2.095466 1_555
F2 Mn3 2.046867 1_455
F2 Mn2 2.083464 1_555
F2 Mn1 2.246426 1_545
F3 Mn5 2.043256 1_455
F3 Mn1 2.049421 1_555
F3 Mn0 2.139485 1_556
F4 Mn3 2.104887 1_455
F4 Mn4 2.117442 1_455
F4 Mn1 2.308563 1_555
F5 Mn5 2.036515 1_454
F5 Mn2 2.072473 1_565
F5 Mn4 2.175778 1_455
F6 Mn5 2.095739 1_445
F6 Mn0 2.107930 1_556
F6 Mn3 2.175440 1_455
