# generated using pymatgen
data_LiCoGeO4
_symmetry_space_group_name_H-M   'P 1'
_cell_length_a   5.71607900
_cell_length_b   5.11817600
_cell_length_c   8.05469800
_cell_angle_alpha   50.62464401
_cell_angle_beta   90.00000000
_cell_angle_gamma   90.00000000
_symmetry_Int_Tables_number   1
_chemical_formula_structural   LiCoGeO4
_chemical_formula_sum   'Li2 Co2 Ge2 O8'
_cell_volume   182.15699461
_cell_formula_units_Z   2
loop_
 _symmetry_equiv_pos_site_id
 _symmetry_equiv_pos_as_xyz
  1  'x, y, z'
loop_
 _atom_site_type_symbol
 _atom_site_label
 _atom_site_symmetry_multiplicity
 _atom_site_fract_x
 _atom_site_fract_y
 _atom_site_fract_z
 _atom_site_occupancy
  Li  Li0  1  0.66070500  0.74679700  0.24899200  1
  Li  Li1  1  0.33929500  0.74679700  0.74899200  1
  Co  Co0  1  0.17221400  0.99228200  0.00305700  1
  Co  Co1  1  0.82778600  0.99228200  0.50305700  1
  Ge  Ge0  1  0.84839100  0.50020300  0.99936700  1
  Ge  Ge1  1  0.15160900  0.50020300  0.49936700  1
  O  O0  1  0.87299600  0.82403500  0.02099300  1
  O  O1  1  0.13175800  0.38184000  0.97600300  1
  O  O2  1  0.71185700  0.14274200  0.23704200  1
  O  O3  1  0.32204100  0.66705300  0.26484400  1
  O  O4  1  0.86824200  0.38184000  0.47600300  1
  O  O5  1  0.12700400  0.82403500  0.52099300  1
  O  O6  1  0.28814300  0.14274200  0.73704200  1
  O  O7  1  0.67795900  0.66705300  0.76484400  1
loop_
_geom_bond_atom_site_label_1
_geom_bond_atom_site_label_2
_geom_bond_distance
_geom_bond_site_symmetry_2
Li0 O3 1.965757 1_555
Li0 O4 1.976430 1_555
Li0 O2 1.988475 1_565
Li0 O0 2.019965 1_555
Li1 O7 1.965757 1_555
Li1 O1 1.976430 1_555
Li1 O6 1.988475 1_565
Li1 O5 2.019965 1_555
Co0 O3 1.870059 1_555
Co0 O1 1.877509 1_564
Co0 O6 1.878730 1_564
Co0 O0 1.878792 1_455
Co1 O7 1.870059 1_555
Co1 O4 1.877509 1_565
Co1 O2 1.878730 1_565
Co1 O5 1.878792 1_655
Ge0 O0 1.778625 1_556
Ge0 O1 1.780631 1_655
Ge0 O2 1.782503 1_556
Ge0 O7 1.788836 1_555
Ge1 O5 1.778625 1_555
Ge1 O4 1.780631 1_455
Ge1 O6 1.782503 1_555
Ge1 O3 1.788836 1_555
