# generated using pymatgen
data_Li2Fe(Si2O5)2
_symmetry_space_group_name_H-M   'P 1'
_cell_length_a   7.14796400
_cell_length_b   9.54321200
_cell_length_c   14.33584200
_cell_angle_alpha   90.00000000
_cell_angle_beta   90.00000000
_cell_angle_gamma   90.00000000
_symmetry_Int_Tables_number   1
_chemical_formula_structural   Li2Fe(Si2O5)2
_chemical_formula_sum   'Li8 Fe4 Si16 O40'
_cell_volume   977.91280762
_cell_formula_units_Z   4
loop_
 _symmetry_equiv_pos_site_id
 _symmetry_equiv_pos_as_xyz
  1  'x, y, z'
loop_
 _atom_site_type_symbol
 _atom_site_label
 _atom_site_symmetry_multiplicity
 _atom_site_fract_x
 _atom_site_fract_y
 _atom_site_fract_z
 _atom_site_occupancy
  Li  Li0  1  0.68015500  0.08682100  0.82701100  1
  Li  Li1  1  0.07185300  0.16011100  0.53148200  1
  Li  Li2  1  0.57185300  0.33988900  0.46851800  1
  Li  Li3  1  0.18015500  0.41317900  0.17298900  1
  Li  Li4  1  0.31984500  0.58682100  0.67298900  1
  Li  Li5  1  0.92814700  0.66011100  0.96851800  1
  Li  Li6  1  0.42814700  0.83988900  0.03148200  1
  Li  Li7  1  0.81984500  0.91317900  0.32701100  1
  Fe  Fe0  1  0.00936200  0.19789100  0.34079100  1
  Fe  Fe1  1  0.50936200  0.30210900  0.65920900  1
  Fe  Fe2  1  0.99063800  0.69789100  0.15920900  1
  Fe  Fe3  1  0.49063800  0.80210900  0.84079100  1
  Si  Si0  1  0.46267000  0.02677700  0.56727600  1
  Si  Si1  1  0.23997200  0.06119700  0.89773800  1
  Si  Si2  1  0.31848300  0.09763200  0.21616200  1
  Si  Si3  1  0.73768000  0.13391500  0.17524900  1
  Si  Si4  1  0.23768000  0.36608500  0.82475100  1
  Si  Si5  1  0.81848300  0.40236800  0.78383800  1
  Si  Si6  1  0.73997200  0.43880300  0.10226200  1
  Si  Si7  1  0.96267000  0.47322300  0.43272400  1
  Si  Si8  1  0.53733000  0.52677700  0.93272400  1
  Si  Si9  1  0.76002800  0.56119700  0.60226200  1
  Si  Si10  1  0.68151700  0.59763200  0.28383800  1
  Si  Si11  1  0.26232000  0.63391500  0.32475100  1
  Si  Si12  1  0.76232000  0.86608500  0.67524900  1
  Si  Si13  1  0.18151700  0.90236800  0.71616200  1
  Si  Si14  1  0.26002800  0.93880300  0.39773800  1
  Si  Si15  1  0.03733000  0.97322300  0.06727600  1
  O  O0  1  0.12260800  0.98752600  0.81160300  1
  O  O1  1  0.19849400  0.98639200  0.15021500  1
  O  O2  1  0.08349100  0.03364300  0.42887400  1
  O  O3  1  0.82898900  0.01281400  0.10708400  1
  O  O4  1  0.08926900  0.08390000  0.98334000  1
  O  O5  1  0.51137000  0.12986000  0.15871700  1
  O  O6  1  0.79564100  0.10171800  0.28228900  1
  O  O7  1  0.46082400  0.19032900  0.53717800  1
  O  O8  1  0.31648100  0.21314000  0.86006900  1
  O  O9  1  0.20051500  0.23852400  0.23949400  1
  O  O10  1  0.70051500  0.26147600  0.76050600  1
  O  O11  1  0.81648100  0.28686000  0.13993100  1
  O  O12  1  0.96082400  0.30967100  0.46282200  1
  O  O13  1  0.29564100  0.39828200  0.71771100  1
  O  O14  1  0.01137000  0.37014000  0.84128300  1
  O  O15  1  0.58926900  0.41610000  0.01666000  1
  O  O16  1  0.32898900  0.48718600  0.89291600  1
  O  O17  1  0.58349100  0.46635700  0.57112600  1
  O  O18  1  0.69849400  0.51360800  0.84978500  1
  O  O19  1  0.62260800  0.51247400  0.18839700  1
  O  O20  1  0.87739200  0.48752600  0.68839700  1
  O  O21  1  0.80150600  0.48639200  0.34978500  1
  O  O22  1  0.91650900  0.53364300  0.07112600  1
  O  O23  1  0.17101100  0.51281400  0.39291600  1
  O  O24  1  0.91073100  0.58390000  0.51666000  1
  O  O25  1  0.48863000  0.62986000  0.34128300  1
  O  O26  1  0.20435900  0.60171800  0.21771100  1
  O  O27  1  0.53917600  0.69032900  0.96282200  1
  O  O28  1  0.68351900  0.71314000  0.63993100  1
  O  O29  1  0.79948500  0.73852400  0.26050600  1
  O  O30  1  0.29948500  0.76147600  0.73949400  1
  O  O31  1  0.18351900  0.78686000  0.36006900  1
  O  O32  1  0.03917600  0.80967100  0.03717800  1
  O  O33  1  0.70435900  0.89828200  0.78228900  1
  O  O34  1  0.98863000  0.87014000  0.65871700  1
  O  O35  1  0.41073100  0.91610000  0.48334000  1
  O  O36  1  0.67101100  0.98718600  0.60708400  1
  O  O37  1  0.41650900  0.96635700  0.92887400  1
  O  O38  1  0.30150600  0.01360800  0.65021500  1
  O  O39  1  0.37739200  0.01247400  0.31160300  1
loop_
_geom_bond_atom_site_label_1
_geom_bond_atom_site_label_2
_geom_bond_distance
_geom_bond_site_symmetry_2
Li0 O33 1.917900 1_545
Li0 O10 1.925690 1_555
Li1 O2 1.904551 1_555
Li1 O12 1.906786 1_455
Li2 O17 1.904551 1_555
Li2 O7 1.906786 1_555
Li3 O26 1.917900 1_555
Li3 O9 1.925690 1_555
Li4 O13 1.917900 1_555
Li4 O30 1.925690 1_555
Li5 O22 1.904551 1_556
Li5 O32 1.906786 1_656
Li6 O37 1.904551 1_554
Li6 O27 1.906786 1_554
Li7 O6 1.917900 1_565
Li7 O29 1.925690 1_555
Fe0 O6 1.969647 1_455
Fe0 O9 2.031283 1_555
Fe0 O12 2.078165 1_455
Fe0 O2 2.081393 1_555
Fe1 O13 1.969647 1_555
Fe1 O10 2.031283 1_555
Fe1 O7 2.078165 1_555
Fe1 O17 2.081393 1_555
Fe2 O26 1.969647 1_655
Fe2 O29 2.031283 1_555
Fe2 O32 2.078165 1_655
Fe2 O22 2.081393 1_555
Fe3 O33 1.969647 1_555
Fe3 O30 2.031283 1_555
Fe3 O27 2.078165 1_555
Fe3 O37 2.081393 1_555
O0 Si13 1.646148 1_555
O0 Si1 1.650103 1_565
O1 Si2 1.660232 1_565
O1 Si15 1.660303 1_555
O2 Si14 1.615780 1_545
O3 Si15 1.638959 1_645
O3 Si3 1.648191 1_555
O4 Si15 1.643574 1_546
O4 Si1 1.647212 1_555
O5 Si2 1.635155 1_555
O5 Si3 1.635383 1_555
O6 Si3 1.618880 1_555
O7 Si0 1.619408 1_555
O8 Si1 1.641119 1_555
O8 Si4 1.644389 1_555
O9 Si2 1.621963 1_555
O10 Si5 1.621963 1_555
O11 Si6 1.641119 1_555
O11 Si3 1.644389 1_555
O12 Si7 1.619408 1_555
O13 Si4 1.618880 1_555
O14 Si5 1.635155 1_455
O14 Si4 1.635383 1_555
O15 Si8 1.643574 1_554
O15 Si6 1.647212 1_555
O16 Si8 1.638959 1_555
O16 Si4 1.648191 1_555
O17 Si9 1.615780 1_555
O18 Si5 1.660232 1_555
O18 Si8 1.660303 1_555
O19 Si10 1.646148 1_555
O19 Si6 1.650103 1_555
O20 Si5 1.646148 1_555
O20 Si9 1.650103 1_555
O21 Si10 1.660232 1_555
O21 Si7 1.660303 1_555
O22 Si6 1.615780 1_555
O23 Si7 1.638959 1_455
O23 Si11 1.648191 1_555
O24 Si7 1.643574 1_555
O24 Si9 1.647212 1_555
O25 Si10 1.635155 1_555
O25 Si11 1.635383 1_555
O26 Si11 1.618880 1_555
O27 Si8 1.619408 1_555
O28 Si9 1.641119 1_555
O28 Si12 1.644389 1_555
O29 Si10 1.621963 1_555
O30 Si13 1.621963 1_555
O31 Si14 1.641119 1_555
O31 Si11 1.644389 1_555
O32 Si15 1.619408 1_555
O33 Si12 1.618880 1_555
O34 Si13 1.635155 1_655
O34 Si12 1.635383 1_555
O35 Si0 1.643574 1_565
O35 Si14 1.647212 1_555
O36 Si0 1.638959 1_565
O36 Si12 1.648191 1_555
O37 Si1 1.615780 1_565
O38 Si13 1.660232 1_545
O38 Si0 1.660303 1_555
O39 Si2 1.646148 1_555
O39 Si14 1.650103 1_545
