# generated using pymatgen
data_LiCr2P3O13
_symmetry_space_group_name_H-M   'P 1'
_cell_length_a   8.73406191
_cell_length_b   8.73406191
_cell_length_c   8.42668022
_cell_angle_alpha   69.80382707
_cell_angle_beta   69.80382707
_cell_angle_gamma   106.98955468
_symmetry_Int_Tables_number   1
_chemical_formula_structural   LiCr2P3O13
_chemical_formula_sum   'Li2 Cr4 P6 O26'
_cell_volume   500.65406273
_cell_formula_units_Z   2
loop_
 _symmetry_equiv_pos_site_id
 _symmetry_equiv_pos_as_xyz
  1  'x, y, z'
loop_
 _atom_site_type_symbol
 _atom_site_label
 _atom_site_symmetry_multiplicity
 _atom_site_fract_x
 _atom_site_fract_y
 _atom_site_fract_z
 _atom_site_occupancy
  Li  Li0  1  0.00000000  0.50000000  0.50000000  1
  Li  Li1  1  0.50000000  0.00000000  0.00000000  1
  Cr  Cr0  1  0.16254800  0.32894600  0.82716900  1
  Cr  Cr1  1  0.67105400  0.83745200  0.67283100  1
  Cr  Cr2  1  0.32894600  0.16254800  0.32716900  1
  Cr  Cr3  1  0.83745200  0.67105400  0.17283100  1
  P  P0  1  0.99055200  0.00944800  0.75000000  1
  P  P1  1  0.24134600  0.64879800  0.94386500  1
  P  P2  1  0.64879800  0.24134600  0.44386500  1
  P  P3  1  0.35120200  0.75865400  0.55613500  1
  P  P4  1  0.75865400  0.35120200  0.05613500  1
  P  P5  1  0.00944800  0.99055200  0.25000000  1
  O  O0  1  0.89764800  0.35546500  0.88583400  1
  O  O1  1  0.99880900  0.88956300  0.92687400  1
  O  O2  1  0.20109200  0.45716800  0.96471100  1
  O  O3  1  0.78696100  0.93822600  0.79504300  1
  O  O4  1  0.34482500  0.30651500  0.76961400  1
  O  O5  1  0.43963700  0.75432700  0.90507700  1
  O  O6  1  0.64453500  0.10235200  0.61416600  1
  O  O7  1  0.69348500  0.65517500  0.73038600  1
  O  O8  1  0.75432700  0.43963700  0.40507700  1
  O  O9  1  0.06177400  0.21303900  0.70495700  1
  O  O10  1  0.23671700  0.76328300  0.75000000  1
  O  O11  1  0.88956300  0.99880900  0.42687400  1
  O  O12  1  0.45716800  0.20109200  0.46471100  1
  O  O13  1  0.54283200  0.79890800  0.53528900  1
  O  O14  1  0.11043700  0.00119100  0.57312600  1
  O  O15  1  0.76328300  0.23671700  0.25000000  1
  O  O16  1  0.93822600  0.78696100  0.29504300  1
  O  O17  1  0.24567300  0.56036300  0.59492300  1
  O  O18  1  0.30651500  0.34482500  0.26961400  1
  O  O19  1  0.35546500  0.89764800  0.38583400  1
  O  O20  1  0.56036300  0.24567300  0.09492300  1
  O  O21  1  0.65517500  0.69348500  0.23038600  1
  O  O22  1  0.21303900  0.06177400  0.20495700  1
  O  O23  1  0.79890800  0.54283200  0.03528900  1
  O  O24  1  0.00119100  0.11043700  0.07312600  1
  O  O25  1  0.10235200  0.64453500  0.11416600  1
loop_
_geom_bond_atom_site_label_1
_geom_bond_atom_site_label_2
_geom_bond_distance
_geom_bond_site_symmetry_2
Li0 O17 2.517351 1_555
Li0 O8 2.517351 1_455
Li1 O20 2.517351 1_555
Li1 O5 2.517351 1_544
Cr0 O4 1.588357 1_555
Cr0 O24 1.898501 1_556
Cr0 O2 1.912105 1_555
Cr0 O9 1.919661 1_555
Cr0 O17 1.967895 1_555
Cr0 O0 2.292055 1_455
Cr1 O7 1.588357 1_555
Cr1 O11 1.898501 1_555
Cr1 O13 1.912105 1_555
Cr1 O3 1.919661 1_555
Cr1 O5 1.967895 1_555
Cr1 O6 2.292055 1_565
Cr2 O18 1.588357 1_555
Cr2 O14 1.898501 1_555
Cr2 O12 1.912105 1_555
Cr2 O22 1.919661 1_555
Cr2 O20 1.967895 1_555
Cr2 O19 2.292055 1_545
Cr3 O21 1.588357 1_555
Cr3 O1 1.898501 1_554
Cr3 O23 1.912105 1_555
Cr3 O16 1.919661 1_555
Cr3 O8 1.967895 1_555
Cr3 O25 2.292055 1_655
O0 P4 1.506107 1_556
O1 P0 1.537475 1_565
O2 P1 1.538257 1_555
O3 P0 1.554822 1_565
O5 P1 1.556941 1_555
O6 P2 1.506107 1_555
O8 P2 1.556941 1_555
O9 P0 1.554822 1_455
O10 P1 1.616041 1_555
O10 P3 1.616041 1_555
O11 P5 1.537475 1_655
O12 P2 1.538257 1_555
O13 P3 1.538257 1_555
O14 P0 1.537475 1_455
O15 P2 1.616041 1_555
O15 P4 1.616041 1_555
O16 P5 1.554822 1_655
O17 P3 1.556941 1_555
O19 P3 1.506107 1_555
O20 P4 1.556941 1_555
O22 P5 1.554822 1_545
O23 P4 1.538257 1_555
O24 P5 1.537475 1_545
O25 P1 1.506107 1_554
