# generated using pymatgen
data_LiVOF3
_symmetry_space_group_name_H-M   'P 1'
_cell_length_a   5.03737127
_cell_length_b   6.00190478
_cell_length_c   9.82806399
_cell_angle_alpha   90.00028394
_cell_angle_beta   87.47895113
_cell_angle_gamma   90.00004485
_symmetry_Int_Tables_number   1
_chemical_formula_structural   LiVOF3
_chemical_formula_sum   'Li4 V4 O4 F12'
_cell_volume   296.85235100
_cell_formula_units_Z   4
loop_
 _symmetry_equiv_pos_site_id
 _symmetry_equiv_pos_as_xyz
  1  'x, y, z'
loop_
 _atom_site_type_symbol
 _atom_site_label
 _atom_site_symmetry_multiplicity
 _atom_site_fract_x
 _atom_site_fract_y
 _atom_site_fract_z
 _atom_site_occupancy
  Li  Li0  1  0.76750000  0.64866300  0.30157600  1
  Li  Li1  1  0.76756800  0.14859700  0.80157900  1
  Li  Li2  1  0.73250100  0.64866200  0.69842400  1
  Li  Li3  1  0.73243200  0.14859900  0.19842000  1
  V  V0  1  0.74999800  0.62573500  0.00000500  1
  V  V1  1  0.74999900  0.12594200  0.49999400  1
  V  V2  1  0.24999300  0.85096500  0.50000600  1
  V  V3  1  0.25000100  0.35099500  0.99999700  1
  O  O0  1  0.93410900  0.41173200  0.09914100  1
  O  O1  1  0.93408800  0.91178700  0.59912000  1
  O  O2  1  0.56588300  0.41172400  0.90085600  1
  O  O3  1  0.56592500  0.91179500  0.40088300  1
  F  F0  1  0.10471000  0.14439800  0.88449700  1
  F  F1  1  0.10437900  0.64440000  0.38464500  1
  F  F2  1  0.39529300  0.14440000  0.11550300  1
  F  F3  1  0.39562500  0.64440000  0.61535400  1
  F  F4  1  0.43006600  0.59453600  0.11719700  1
  F  F5  1  0.43007100  0.09462200  0.61719500  1
  F  F6  1  0.06993600  0.59453500  0.88280300  1
  F  F7  1  0.06992600  0.09462300  0.38280500  1
  F  F8  1  0.83947700  0.85442000  0.12595800  1
  F  F9  1  0.83959300  0.35445600  0.62597900  1
  F  F10  1  0.66052700  0.85441100  0.87404500  1
  F  F11  1  0.66040100  0.35446600  0.37401700  1
loop_
_geom_bond_atom_site_label_1
_geom_bond_atom_site_label_2
_geom_bond_distance
_geom_bond_site_symmetry_2
Li0 O3 2.095374 1_555
Li0 O0 2.556938 1_555
Li1 O2 2.095477 1_555
Li1 O1 2.556583 1_545
Li2 O1 2.095363 1_555
Li2 O2 2.556962 1_555
Li3 O0 2.095501 1_555
Li3 O3 2.556584 1_545
O0 V3 1.864953 1_654
O0 V0 1.881139 1_555
O1 V2 1.864964 1_655
O1 V1 1.881652 1_565
O2 V3 1.864889 1_555
O2 V0 1.881243 1_556
O3 V2 1.865131 1_555
O3 V1 1.881493 1_565
F0 V3 1.853325 1_555
F0 Li1 1.915919 1_455
F1 V2 1.853023 1_555
F1 Li0 1.915415 1_455
F2 V3 1.853364 1_554
F2 Li3 1.915900 1_555
F3 V2 1.852989 1_555
F3 Li2 1.915405 1_555
F4 V0 1.948243 1_555
F4 V3 2.092366 1_554
F5 V1 1.948346 1_555
F5 V2 2.092820 1_545
F6 V0 1.948322 1_456
F6 V3 2.092337 1_555
F7 V1 1.948275 1_455
F7 V2 2.092875 1_545
F8 V0 1.915319 1_555
F8 Li3 1.970180 1_565
F8 Li0 2.140213 1_555
F9 V1 1.914943 1_555
F9 Li2 1.970328 1_555
F9 Li1 2.140458 1_555
F10 V0 1.915324 1_556
F10 Li1 1.970232 1_565
F10 Li2 2.140198 1_555
F11 V1 1.914949 1_555
F11 Li0 1.970280 1_555
F11 Li3 2.140456 1_555
