# generated using pymatgen
data_Na2Sn4O9
_symmetry_space_group_name_H-M   'P 1'
_cell_length_a   5.50371971
_cell_length_b   5.50371971
_cell_length_c   14.74611700
_cell_angle_alpha   90.00000000
_cell_angle_beta   90.00000000
_cell_angle_gamma   119.99999651
_symmetry_Int_Tables_number   1
_chemical_formula_structural   Na2Sn4O9
_chemical_formula_sum   'Na4 Sn8 O18'
_cell_volume   386.83070472
_cell_formula_units_Z   2
loop_
 _symmetry_equiv_pos_site_id
 _symmetry_equiv_pos_as_xyz
  1  'x, y, z'
loop_
 _atom_site_type_symbol
 _atom_site_label
 _atom_site_symmetry_multiplicity
 _atom_site_fract_x
 _atom_site_fract_y
 _atom_site_fract_z
 _atom_site_occupancy
  Na  Na0  1  0.00000000  0.00000000  0.14859100  1
  Na  Na1  1  0.00000000  0.00000000  0.35140900  1
  Na  Na2  1  0.00000000  0.00000000  0.64859100  1
  Na  Na3  1  0.00000000  0.00000000  0.85140900  1
  Sn  Sn0  1  0.33333300  0.66666700  0.31239900  1
  Sn  Sn1  1  0.33333300  0.66666700  0.02434200  1
  Sn  Sn2  1  0.33333300  0.66666700  0.81239900  1
  Sn  Sn3  1  0.33333300  0.66666700  0.52434200  1
  Sn  Sn4  1  0.66666700  0.33333300  0.18760100  1
  Sn  Sn5  1  0.66666700  0.33333300  0.68760100  1
  Sn  Sn6  1  0.66666700  0.33333300  0.47565800  1
  Sn  Sn7  1  0.66666700  0.33333300  0.97565800  1
  O  O0  1  0.00000000  0.66022100  0.75000000  1
  O  O1  1  0.04037200  0.64262000  0.42072300  1
  O  O2  1  0.35738000  0.95962800  0.92072300  1
  O  O3  1  0.00000000  0.33977900  0.25000000  1
  O  O4  1  0.04037200  0.39775100  0.92072300  1
  O  O5  1  0.35738000  0.39775100  0.42072300  1
  O  O6  1  0.33977900  0.33977900  0.75000000  1
  O  O7  1  0.39775100  0.35738000  0.07927700  1
  O  O8  1  0.60224900  0.95962800  0.42072300  1
  O  O9  1  0.33977900  0.00000000  0.25000000  1
  O  O10  1  0.39775100  0.04037200  0.57927700  1
  O  O11  1  0.60224900  0.64262000  0.92072300  1
  O  O12  1  0.66022100  0.66022100  0.25000000  1
  O  O13  1  0.64262000  0.60224900  0.57927700  1
  O  O14  1  0.95962800  0.60224900  0.07927700  1
  O  O15  1  0.64262000  0.04037200  0.07927700  1
  O  O16  1  0.66022100  0.00000000  0.75000000  1
  O  O17  1  0.95962800  0.35738000  0.57927700  1
loop_
_geom_bond_atom_site_label_1
_geom_bond_atom_site_label_2
_geom_bond_distance
_geom_bond_site_symmetry_2
Na0 O14 2.323763 1_445
Na0 O7 2.323765 1_555
Na0 O15 2.323768 1_455
Na0 O9 2.394425 1_555
Na0 O3 2.394425 1_555
Na0 O12 2.394425 1_445
Na1 O8 2.323763 1_445
Na1 O5 2.323765 1_555
Na1 O1 2.323768 1_545
Na1 O3 2.394425 1_555
Na1 O9 2.394425 1_555
Na1 O12 2.394425 1_445
Na2 O10 2.323763 1_555
Na2 O13 2.323765 1_445
Na2 O17 2.323768 1_455
Na2 O0 2.394425 1_545
Na2 O16 2.394425 1_455
Na2 O6 2.394425 1_555
Na3 O4 2.323763 1_555
Na3 O11 2.323765 1_445
Na3 O2 2.323768 1_545
Na3 O0 2.394425 1_545
Na3 O16 2.394425 1_455
Na3 O6 2.394425 1_555
O0 Sn2 2.036784 1_555
O0 Sn5 2.036786 1_455
O1 Sn6 2.069544 1_455
O1 Sn3 2.176831 1_555
O1 Sn0 2.226079 1_555
O2 Sn7 2.069544 1_565
O2 Sn1 2.176831 1_556
O2 Sn2 2.226079 1_555
O3 Sn4 2.036784 1_455
O3 Sn0 2.036786 1_555
O4 Sn7 2.069544 1_455
O4 Sn1 2.176834 1_556
O4 Sn2 2.226083 1_555
O5 Sn6 2.069544 1_555
O5 Sn3 2.176838 1_555
O5 Sn0 2.226087 1_555
O6 Sn2 2.036789 1_555
O6 Sn5 2.036789 1_555
O7 Sn1 2.069544 1_555
O7 Sn7 2.176838 1_554
O7 Sn4 2.226087 1_555
O8 Sn6 2.069544 1_565
O8 Sn3 2.176834 1_555
O8 Sn0 2.226083 1_555
O9 Sn0 2.036784 1_545
O9 Sn4 2.036786 1_555
O10 Sn3 2.069544 1_545
O10 Sn6 2.176834 1_555
O10 Sn5 2.226083 1_555
O11 Sn7 2.069544 1_555
O11 Sn1 2.176838 1_556
O11 Sn2 2.226087 1_555
O12 Sn0 2.036789 1_555
O12 Sn4 2.036789 1_555
O13 Sn3 2.069544 1_555
O13 Sn6 2.176838 1_555
O13 Sn5 2.226087 1_555
O14 Sn1 2.069544 1_655
O14 Sn7 2.176834 1_554
O14 Sn4 2.226083 1_555
O15 Sn1 2.069544 1_545
O15 Sn7 2.176831 1_554
O15 Sn4 2.226079 1_555
O16 Sn5 2.036784 1_555
O16 Sn2 2.036786 1_545
O17 Sn3 2.069544 1_655
O17 Sn6 2.176831 1_555
O17 Sn5 2.226079 1_555
