# generated using pymatgen
data_Li9V19O48
_symmetry_space_group_name_H-M   'P 1'
_cell_length_a   5.08133900
_cell_length_b   10.29972594
_cell_length_c   17.23841519
_cell_angle_alpha   89.96067253
_cell_angle_beta   89.36630863
_cell_angle_gamma   89.91274118
_symmetry_Int_Tables_number   1
_chemical_formula_structural   Li9V19O48
_chemical_formula_sum   'Li9 V19 O48'
_cell_volume   902.14014971
_cell_formula_units_Z   1
loop_
 _symmetry_equiv_pos_site_id
 _symmetry_equiv_pos_as_xyz
  1  'x, y, z'
loop_
 _atom_site_type_symbol
 _atom_site_label
 _atom_site_symmetry_multiplicity
 _atom_site_fract_x
 _atom_site_fract_y
 _atom_site_fract_z
 _atom_site_occupancy
  Li  Li0  1  0.09482600  0.25015600  0.25100600  1
  Li  Li1  1  0.25302200  0.41749700  0.96931300  1
  Li  Li2  1  0.25120700  0.58197700  0.47254400  1
  Li  Li3  1  0.25258200  0.91830300  0.47281000  1
  Li  Li4  1  0.23983900  0.25755700  0.80226200  1
  Li  Li5  1  0.75809300  0.75395300  0.19254900  1
  Li  Li6  1  0.75075500  0.91845900  0.02856200  1
  Li  Li7  1  0.74388600  0.25217600  0.70337700  1
  Li  Li8  1  0.90605200  0.75067400  0.74900500  1
  V  V0  1  0.40865100  0.74737900  0.75046800  1
  V  V1  1  0.59429700  0.24747600  0.24838400  1
  V  V2  1  0.24452000  0.75104000  0.29952900  1
  V  V3  1  0.22977000  0.74980600  0.94406700  1
  V  V4  1  0.22345100  0.02967500  0.65675100  1
  V  V5  1  0.22169500  0.47077900  0.65503100  1
  V  V6  1  0.23781700  0.07143200  0.97366100  1
  V  V7  1  0.28929000  0.52663200  0.15444000  1
  V  V8  1  0.28858800  0.97262300  0.15715800  1
  V  V9  1  0.28598600  0.25029300  0.44368100  1
  V  V10  1  0.71390500  0.75037000  0.55746700  1
  V  V11  1  0.71354700  0.47156300  0.84209000  1
  V  V12  1  0.71586400  0.02495400  0.84527600  1
  V  V13  1  0.75932400  0.06881800  0.52890800  1
  V  V14  1  0.75746300  0.43123400  0.52844700  1
  V  V15  1  0.76581600  0.57047500  0.02302300  1
  V  V16  1  0.77255500  0.52920000  0.34275900  1
  V  V17  1  0.77613100  0.97082800  0.34413900  1
  V  V18  1  0.76936000  0.24889300  0.05614200  1
  O  O0  1  0.05899300  0.23670500  0.99669700  1
  O  O1  1  0.05682500  0.61585400  0.36547600  1
  O  O2  1  0.05726100  0.88189500  0.36837800  1
  O  O3  1  0.10902600  0.63063600  0.21255200  1
  O  O4  1  0.09191200  0.87438700  0.21631300  1
  O  O5  1  0.08610500  0.11918200  0.46535900  1
  O  O6  1  0.08396100  0.38113300  0.46488100  1
  O  O7  1  0.10193600  0.00806300  0.07258100  1
  O  O8  1  0.07567100  0.49813300  0.07802900  1
  O  O9  1  0.17550800  0.74727100  0.84320500  1
  O  O10  1  0.17667100  0.61963700  0.70386700  1
  O  O11  1  0.17904900  0.88036400  0.70511900  1
  O  O12  1  0.36958000  0.12108400  0.20744100  1
  O  O13  1  0.36414700  0.38290300  0.20391100  1
  O  O14  1  0.36653400  0.25150600  0.34489900  1
  O  O15  1  0.42864300  0.49579200  0.57450600  1
  O  O16  1  0.43263700  0.00584700  0.57672100  1
  O  O17  1  0.39984700  0.89010700  0.96634000  1
  O  O18  1  0.44086500  0.62381600  0.96681400  1
  O  O19  1  0.39465900  0.12607500  0.71415500  1
  O  O20  1  0.40377600  0.37396800  0.70891300  1
  O  O21  1  0.41832600  0.10776100  0.88321000  1
  O  O22  1  0.44797300  0.38463700  0.86946200  1
  O  O23  1  0.45219300  0.75046800  0.49785800  1
  O  O24  1  0.57859200  0.25060500  0.50688500  1
  O  O25  1  0.58091700  0.60725300  0.11832100  1
  O  O26  1  0.55865000  0.88896600  0.13118700  1
  O  O27  1  0.56297100  0.62728200  0.29081700  1
  O  O28  1  0.55819200  0.87446200  0.29511400  1
  O  O29  1  0.56028400  0.12318900  0.03400800  1
  O  O30  1  0.59912700  0.38976600  0.03455100  1
  O  O31  1  0.61118900  0.01438800  0.43103100  1
  O  O32  1  0.60889200  0.48786000  0.42977200  1
  O  O33  1  0.62855100  0.75199400  0.65713900  1
  O  O34  1  0.63022900  0.62108200  0.79345400  1
  O  O35  1  0.63644600  0.88079900  0.79668800  1
  O  O36  1  0.82698800  0.11727600  0.29264700  1
  O  O37  1  0.82046500  0.38212400  0.29117100  1
  O  O38  1  0.82479700  0.24637500  0.15730800  1
  O  O39  1  0.90247700  0.50851400  0.93019000  1
  O  O40  1  0.92457700  0.99657200  0.92468100  1
  O  O41  1  0.90372700  0.60854900  0.53684600  1
  O  O42  1  0.90487600  0.89166900  0.53674600  1
  O  O43  1  0.89045600  0.12056100  0.78644600  1
  O  O44  1  0.91156900  0.38185400  0.78410500  1
  O  O45  1  0.92337900  0.11229600  0.61899300  1
  O  O46  1  0.92068000  0.38707300  0.61780700  1
  O  O47  1  0.94157500  0.73804700  0.00455400  1
loop_
_geom_bond_atom_site_label_1
_geom_bond_atom_site_label_2
_geom_bond_distance
_geom_bond_site_symmetry_2
Li0 O36 2.055087 1_455
Li0 O37 2.060255 1_455
Li0 O12 2.062276 1_555
Li0 O13 2.093061 1_555
Li0 O38 2.131281 1_455
Li0 O14 2.139074 1_555
Li1 O22 2.005169 1_555
Li1 O30 2.116843 1_556
Li1 O39 2.127694 1_455
Li1 O0 2.157876 1_555
Li1 O8 2.230835 1_556
Li1 O18 2.331053 1_555
Li2 O23 2.064311 1_555
Li2 O41 2.092085 1_455
Li2 O1 2.131261 1_555
Li2 O15 2.172726 1_555
Li2 O32 2.180066 1_555
Li2 O6 2.242129 1_555
Li3 O23 2.051048 1_555
Li3 O42 2.090362 1_455
Li3 O2 2.099551 1_555
Li3 O31 2.189523 1_565
Li3 O16 2.213527 1_565
Li3 O5 2.238203 1_565
Li4 O22 2.051108 1_555
Li4 O44 2.126930 1_455
Li4 O20 2.166046 1_555
Li4 O19 2.175500 1_555
Li4 O21 2.273969 1_555
Li4 O43 2.288228 1_455
Li5 O26 2.024135 1_555
Li5 O4 2.146214 1_655
Li5 O25 2.182462 1_555
Li5 O3 2.217673 1_655
Li5 O27 2.349160 1_555
Li5 O28 2.378625 1_555
Li6 O26 2.033913 1_555
Li6 O17 2.111745 1_554
Li6 O47 2.133312 1_555
Li6 O40 2.144617 1_554
Li6 O7 2.155877 1_665
Li6 O29 2.320355 1_565
Li7 O43 2.112047 1_555
Li7 O44 2.116320 1_555
Li7 O20 2.135258 1_555
Li7 O19 2.206764 1_555
Li7 O46 2.210213 1_555
Li7 O45 2.234519 1_555
Li8 O11 2.064451 1_655
Li8 O10 2.071240 1_655
Li8 O34 2.076916 1_555
Li8 O35 2.078395 1_555
Li8 O33 2.132058 1_555
Li8 O9 2.135838 1_655
O0 V18 1.788315 1_456
O0 V6 1.967056 1_555
O1 V16 1.747384 1_455
O1 V2 2.029432 1_555
O2 V17 1.750135 1_455
O2 V2 2.025785 1_555
O3 V7 1.722855 1_555
O3 V2 2.070739 1_555
O4 V8 1.743987 1_555
O4 V2 2.071780 1_555
O5 V9 1.729135 1_555
O5 V13 2.046458 1_455
O6 V9 1.729627 1_555
O6 V14 2.043870 1_455
O7 V8 1.785293 1_545
O7 V6 1.945332 1_554
O8 V7 1.741425 1_555
O8 V15 1.990416 1_455
O9 V3 1.763654 1_555
O9 V0 1.979197 1_555
O10 V5 1.763008 1_555
O10 V0 1.947572 1_555
O11 V4 1.762459 1_565
O11 V0 1.965253 1_555
O12 V8 1.808455 1_545
O12 V1 1.876247 1_555
O13 V7 1.751335 1_555
O13 V1 1.978493 1_555
O14 V9 1.746977 1_555
O14 V1 2.016590 1_555
O15 V5 1.751317 1_555
O15 V14 1.957617 1_555
O16 V4 1.749453 1_555
O16 V13 1.956504 1_555
O17 V3 1.730434 1_555
O17 V6 2.043297 1_565
O18 V3 1.729919 1_555
O18 V15 1.999755 1_556
O19 V4 1.656779 1_555
O20 V5 1.651653 1_555
O21 V6 1.838785 1_555
O21 V12 1.848194 1_555
O22 V11 1.683543 1_555
O23 V10 1.689558 1_555
O24 V9 1.853002 1_555
O24 V14 2.106901 1_555
O24 V13 2.120078 1_555
O25 V7 1.804362 1_555
O25 V15 1.921092 1_555
O26 V8 1.676111 1_555
O27 V16 1.724241 1_555
O27 V2 2.062616 1_555
O28 V17 1.717831 1_555
O28 V2 2.040971 1_555
O29 V18 1.721736 1_555
O29 V6 2.022966 1_554
O30 V18 1.730490 1_555
O30 V15 2.054687 1_555
O31 V17 1.766183 1_545
O31 V13 1.938647 1_555
O32 V16 1.759378 1_555
O32 V14 1.956834 1_555
O33 V10 1.767509 1_555
O33 V0 1.949226 1_555
O34 V11 1.804958 1_555
O34 V0 1.876590 1_555
O35 V12 1.754966 1_565
O35 V0 1.972254 1_555
O36 V17 1.767528 1_545
O36 V1 1.947383 1_555
O37 V16 1.772230 1_555
O37 V1 1.952715 1_555
O38 V18 1.769785 1_555
O38 V1 1.948379 1_555
O39 V11 1.845833 1_555
O39 V15 1.850921 1_556
O40 V12 1.764789 1_565
O40 V6 1.968554 1_665
O41 V10 1.783045 1_555
O41 V14 1.978780 1_555
O42 V10 1.784147 1_555
O42 V13 1.972850 1_565
O43 V12 1.663310 1_555
O44 V11 1.685686 1_555
O45 V13 1.826951 1_555
O45 V4 1.868146 1_655
O46 V14 1.814878 1_555
O46 V5 1.876458 1_655
O47 V3 1.792484 1_654
O47 V15 1.968633 1_555
