# generated using pymatgen
data_Mn3O5F
_symmetry_space_group_name_H-M   'P 1'
_cell_length_a   4.54501589
_cell_length_b   4.54501589
_cell_length_c   9.02403500
_cell_angle_alpha   90.00000000
_cell_angle_beta   90.00000000
_cell_angle_gamma   92.04360528
_symmetry_Int_Tables_number   1
_chemical_formula_structural   Mn3O5F
_chemical_formula_sum   'Mn6 O10 F2'
_cell_volume   186.29245820
_cell_formula_units_Z   2
loop_
 _symmetry_equiv_pos_site_id
 _symmetry_equiv_pos_as_xyz
  1  'x, y, z'
loop_
 _atom_site_type_symbol
 _atom_site_label
 _atom_site_symmetry_multiplicity
 _atom_site_fract_x
 _atom_site_fract_y
 _atom_site_fract_z
 _atom_site_occupancy
  Mn  Mn0  1  0.99270100  0.00729900  0.65968100  1
  Mn  Mn1  1  0.99270100  0.00729900  0.34031900  1
  Mn  Mn2  1  0.98365300  0.01634700  0.00000000  1
  Mn  Mn3  1  0.51678200  0.48321800  0.83229200  1
  Mn  Mn4  1  0.49319500  0.50680500  0.50000000  1
  Mn  Mn5  1  0.51678200  0.48321800  0.16770800  1
  O  O0  1  0.80294500  0.19705500  0.50000000  1
  O  O1  1  0.80524300  0.19475700  0.17185300  1
  O  O2  1  0.80524300  0.19475700  0.82814700  1
  O  O3  1  0.30505100  0.30574300  0.66644500  1
  O  O4  1  0.30505100  0.30574300  0.33355500  1
  O  O5  1  0.30728900  0.30346800  0.00000000  1
  O  O6  1  0.69425700  0.69494900  0.66644500  1
  O  O7  1  0.69425700  0.69494900  0.33355500  1
  O  O8  1  0.69653200  0.69271100  0.00000000  1
  O  O9  1  0.19061000  0.80939000  0.50000000  1
  F  F0  1  0.19885500  0.80114500  0.16941000  1
  F  F1  1  0.19885500  0.80114500  0.83059000  1
loop_
_geom_bond_atom_site_label_1
_geom_bond_atom_site_label_2
_geom_bond_distance
_geom_bond_site_symmetry_2
Mn0 O0 1.901855 1_555
Mn0 O6 1.929161 1_545
Mn0 O3 1.929161 1_655
Mn0 O9 1.937083 1_645
Mn0 O2 1.953130 1_555
Mn1 O0 1.901855 1_555
Mn1 O7 1.929161 1_545
Mn1 O4 1.929161 1_655
Mn1 O9 1.937083 1_645
Mn1 O1 1.953130 1_555
Mn2 O5 1.931239 1_655
Mn2 O8 1.931239 1_545
Mn2 O1 1.940860 1_555
Mn2 O2 1.940860 1_554
Mn3 O2 1.887259 1_555
Mn3 O3 1.939378 1_555
Mn3 O6 1.939378 1_555
Mn3 O5 1.951649 1_556
Mn3 O8 1.951649 1_556
Mn4 O3 1.940773 1_555
Mn4 O6 1.940773 1_555
Mn4 O4 1.940773 1_555
Mn4 O7 1.940773 1_555
Mn4 O9 1.979276 1_555
Mn4 O0 2.026144 1_555
Mn5 O1 1.887259 1_555
Mn5 O4 1.939378 1_555
Mn5 O7 1.939378 1_555
Mn5 O5 1.951649 1_555
Mn5 O8 1.951649 1_555
F0 Mn1 2.048684 1_465
F0 Mn2 2.078145 1_465
F0 Mn5 2.079688 1_555
F1 Mn0 2.048684 1_465
F1 Mn2 2.078145 1_466
F1 Mn3 2.079688 1_555
