# generated using pymatgen
data_Li4Cr3NiO8
_symmetry_space_group_name_H-M   'P 1'
_cell_length_a   5.12637721
_cell_length_b   5.89074329
_cell_length_c   10.62229171
_cell_angle_alpha   105.96370510
_cell_angle_beta   85.46103156
_cell_angle_gamma   73.09293087
_symmetry_Int_Tables_number   1
_chemical_formula_structural   Li4Cr3NiO8
_chemical_formula_sum   'Li8 Cr6 Ni2 O16'
_cell_volume   290.62546889
_cell_formula_units_Z   2
loop_
 _symmetry_equiv_pos_site_id
 _symmetry_equiv_pos_as_xyz
  1  'x, y, z'
loop_
 _atom_site_type_symbol
 _atom_site_label
 _atom_site_symmetry_multiplicity
 _atom_site_fract_x
 _atom_site_fract_y
 _atom_site_fract_z
 _atom_site_occupancy
  Li  Li0  1  0.99998600  0.12504300  0.74993900  1
  Li  Li1  1  0.00062400  0.00218900  0.99573500  1
  Li  Li2  1  0.99944500  0.24787800  0.50426900  1
  Li  Li3  1  0.00046400  0.37486200  0.24997300  1
  Li  Li4  1  0.00001900  0.62495000  0.74994600  1
  Li  Li5  1  0.00400800  0.49323500  0.99917400  1
  Li  Li6  1  0.99623600  0.75673600  0.50083600  1
  Li  Li7  1  0.99940300  0.87532000  0.25019500  1
  Cr  Cr0  1  0.50105600  0.31190000  0.37616100  1
  Cr  Cr1  1  0.50100300  0.55724900  0.87241600  1
  Cr  Cr2  1  0.50050300  0.43508400  0.12323200  1
  Cr  Cr3  1  0.49916700  0.69270000  0.62760500  1
  Cr  Cr4  1  0.49939400  0.81489300  0.37674700  1
  Cr  Cr5  1  0.49885900  0.93811200  0.12382100  1
  Ni  Ni0  1  0.49917200  0.06243800  0.87516200  1
  Ni  Ni1  1  0.50086300  0.18750300  0.62480300  1
  O  O0  1  0.27573400  0.08719100  0.31064500  1
  O  O1  1  0.73030800  0.03199100  0.43437700  1
  O  O2  1  0.27732500  0.34240600  0.81428600  1
  O  O3  1  0.73278000  0.29586700  0.94207900  1
  O  O4  1  0.72417100  0.16282800  0.18934800  1
  O  O5  1  0.26952200  0.21803400  0.06565100  1
  O  O6  1  0.27935100  0.46518600  0.56075900  1
  O  O7  1  0.73296900  0.42280800  0.69349300  1
  O  O8  1  0.27891700  0.58595300  0.31001300  1
  O  O9  1  0.72436500  0.53938000  0.44106500  1
  O  O10  1  0.26719800  0.82718500  0.80653000  1
  O  O11  1  0.72067200  0.78484100  0.93928900  1
  O  O12  1  0.27560300  0.71057700  0.05891900  1
  O  O13  1  0.26721200  0.95404900  0.55792500  1
  O  O14  1  0.72091100  0.66407400  0.18997000  1
  O  O15  1  0.72276300  0.90753700  0.68563800  1
loop_
_geom_bond_atom_site_label_1
_geom_bond_atom_site_label_2
_geom_bond_distance
_geom_bond_site_symmetry_2
Li0 O7 2.149835 1_555
Li0 O10 2.151497 1_645
Li0 O13 2.162505 1_645
Li0 O3 2.163463 1_555
Li0 O15 2.204359 1_545
Li0 O2 2.204381 1_655
Li1 O3 2.118395 1_455
Li1 O10 2.139096 1_545
Li1 O5 2.174969 1_556
Li1 O12 2.182637 1_546
Li1 O4 2.195849 1_456
Li1 O11 2.200245 1_445
Li2 O13 2.118850 1_645
Li2 O7 2.139019 1_555
Li2 O1 2.176095 1_555
Li2 O9 2.182544 1_555
Li2 O0 2.195560 1_655
Li2 O6 2.199959 1_655
Li3 O5 2.103773 1_555
Li3 O0 2.152233 1_555
Li3 O14 2.164318 1_455
Li3 O4 2.170681 1_455
Li3 O9 2.174431 1_455
Li3 O8 2.175065 1_555
Li4 O7 2.082547 1_455
Li4 O10 2.083736 1_555
Li4 O15 2.158891 1_455
Li4 O2 2.159037 1_555
Li4 O6 2.166817 1_555
Li4 O11 2.168095 1_455
Li5 O3 2.082951 1_455
Li5 O5 2.116070 1_556
Li5 O2 2.119007 1_555
Li5 O12 2.170291 1_556
Li5 O11 2.182014 1_455
Li5 O14 2.188494 1_456
Li6 O13 2.081620 1_655
Li6 O1 2.117118 1_565
Li6 O15 2.118691 1_555
Li6 O9 2.171582 1_555
Li6 O6 2.181497 1_655
Li6 O8 2.187732 1_655
Li7 O1 2.102739 1_565
Li7 O4 2.152549 1_565
Li7 O8 2.163737 1_655
Li7 O0 2.169836 1_665
Li7 O12 2.176147 1_655
Li7 O14 2.176227 1_555
Cr0 O6 2.007103 1_555
Cr0 O1 2.007768 1_555
Cr0 O8 2.019409 1_555
Cr0 O0 2.020042 1_555
Cr0 O9 2.022489 1_555
Cr0 O4 2.028591 1_555
Cr1 O2 1.955528 1_555
Cr1 O7 1.979909 1_555
Cr1 O3 2.007959 1_555
Cr1 O11 2.012719 1_555
Cr1 O10 2.022682 1_555
Cr1 O12 2.030290 1_556
Cr2 O5 1.993996 1_555
Cr2 O3 1.998631 1_554
Cr2 O4 2.014324 1_555
Cr2 O12 2.018864 1_555
Cr2 O14 2.021406 1_555
Cr2 O8 2.025539 1_555
Cr3 O15 1.954976 1_555
Cr3 O10 1.979922 1_555
Cr3 O13 2.008300 1_555
Cr3 O6 2.012911 1_555
Cr3 O7 2.022505 1_555
Cr3 O9 2.030232 1_555
Cr4 O1 1.994018 1_565
Cr4 O13 1.998659 1_555
Cr4 O0 2.014397 1_565
Cr4 O9 2.019115 1_555
Cr4 O8 2.021457 1_555
Cr4 O14 2.025377 1_555
Cr5 O11 2.006733 1_554
Cr5 O5 2.007702 1_565
Cr5 O14 2.019191 1_555
Cr5 O4 2.020056 1_565
Cr5 O12 2.022509 1_555
Cr5 O0 2.028704 1_565
Ni0 O2 2.010854 1_555
Ni0 O11 2.020525 1_545
Ni0 O15 2.053122 1_545
Ni0 O5 2.072570 1_556
Ni0 O3 2.094070 1_555
Ni0 O10 2.099086 1_545
Ni1 O15 2.010684 1_545
Ni1 O6 2.020388 1_555
Ni1 O2 2.052672 1_555
Ni1 O1 2.071643 1_555
Ni1 O13 2.094267 1_545
Ni1 O7 2.099971 1_555
