# generated using pymatgen
data_Li3Fe4(OF3)3
_symmetry_space_group_name_H-M   'P 1'
_cell_length_a   5.92415700
_cell_length_b   5.99293216
_cell_length_c   6.08094926
_cell_angle_alpha   99.71510315
_cell_angle_beta   99.85840489
_cell_angle_gamma   99.62458321
_symmetry_Int_Tables_number   1
_chemical_formula_structural   Li3Fe4(OF3)3
_chemical_formula_sum   'Li3 Fe4 O3 F9'
_cell_volume   205.33570484
_cell_formula_units_Z   1
loop_
 _symmetry_equiv_pos_site_id
 _symmetry_equiv_pos_as_xyz
  1  'x, y, z'
loop_
 _atom_site_type_symbol
 _atom_site_label
 _atom_site_symmetry_multiplicity
 _atom_site_fract_x
 _atom_site_fract_y
 _atom_site_fract_z
 _atom_site_occupancy
  Li  Li0  1  0.00855900  0.99374800  0.00321700  1
  Li  Li1  1  0.86853600  0.68072300  0.39236400  1
  Li  Li2  1  0.29525800  0.60159400  0.11858900  1
  Fe  Fe0  1  0.66640800  0.40987300  0.84591400  1
  Fe  Fe1  1  0.14180200  0.34077600  0.61734800  1
  Fe  Fe2  1  0.60691600  0.15005900  0.34747300  1
  Fe  Fe3  1  0.39233100  0.86253200  0.68157200  1
  O  O0  1  0.39860900  0.17081700  0.57910100  1
  O  O1  1  0.41784300  0.59175800  0.80627600  1
  O  O2  1  0.81901800  0.40313800  0.58843700  1
  F  F0  1  0.68005100  0.06854300  0.89446000  1
  F  F1  1  0.10455100  0.30594000  0.92784700  1
  F  F2  1  0.93605500  0.10440300  0.31716900  1
  F  F3  1  0.18649300  0.57703800  0.40453600  1
  F  F4  1  0.07055800  0.88138200  0.69047100  1
  F  F5  1  0.57130900  0.39692100  0.17091100  1
  F  F6  1  0.60560600  0.83566200  0.44962100  1
  F  F7  1  0.88856800  0.67094200  0.04724300  1
  F  F8  1  0.34153000  0.95415300  0.11745300  1
loop_
_geom_bond_atom_site_label_1
_geom_bond_atom_site_label_2
_geom_bond_distance
_geom_bond_site_symmetry_2
Li1 O2 2.213833 1_555
Li2 O1 2.141605 1_554
Fe0 O2 1.935464 1_555
Fe0 O1 1.979513 1_555
Fe0 O0 2.185386 1_555
Fe1 O0 1.991347 1_555
Fe1 O2 1.993291 1_455
Fe1 O1 2.051212 1_555
Fe2 O2 2.002122 1_555
Fe2 O0 2.027229 1_555
Fe3 O1 1.920733 1_555
Fe3 O0 2.043657 1_565
F0 Fe3 2.026520 1_545
F0 Li0 2.092068 1_646
F0 Fe0 2.128131 1_555
F1 Fe1 1.979299 1_555
F1 Li2 1.987323 1_556
F1 Li0 2.014141 1_546
F2 Fe2 2.048228 1_555
F2 Li0 2.053723 1_645
F2 Fe1 2.147649 1_655
F3 Li2 1.974505 1_555
F3 Li1 2.073354 1_455
F3 Fe1 2.088048 1_555
F3 Fe3 2.208724 1_555
F4 Fe3 1.937701 1_555
F4 Li0 2.023576 1_556
F4 Li1 2.050540 1_455
F5 Fe2 1.987169 1_555
F5 Fe0 2.155819 1_554
F5 Li2 2.214606 1_555
F5 Li1 2.284797 1_555
F6 Li1 1.992455 1_555
F6 Fe3 2.052652 1_555
F6 Fe2 2.080315 1_565
F6 Li2 2.513444 1_555
F7 Fe0 1.947334 1_554
F7 Li0 2.024748 1_655
F7 Li1 2.113764 1_555
F7 Li2 2.490661 1_655
F8 Fe2 1.970321 1_565
F8 Li0 2.042752 1_555
F8 Li2 2.085973 1_555
