# generated using pymatgen
data_Li2Ti4O9
_symmetry_space_group_name_H-M   'P 1'
_cell_length_a   5.02225007
_cell_length_b   5.02224980
_cell_length_c   13.81786819
_cell_angle_alpha   89.99998025
_cell_angle_beta   90.00001402
_cell_angle_gamma   119.99968916
_symmetry_Int_Tables_number   1
_chemical_formula_structural   Li2Ti4O9
_chemical_formula_sum   'Li4 Ti8 O18'
_cell_volume   301.83505767
_cell_formula_units_Z   2
loop_
 _symmetry_equiv_pos_site_id
 _symmetry_equiv_pos_as_xyz
  1  'x, y, z'
loop_
 _atom_site_type_symbol
 _atom_site_label
 _atom_site_symmetry_multiplicity
 _atom_site_fract_x
 _atom_site_fract_y
 _atom_site_fract_z
 _atom_site_occupancy
  Li  Li0  1  -0.00000988  -0.00000946  0.14527225  1
  Li  Li1  1  -0.00000833  -0.00000889  0.35471096  1
  Li  Li2  1  0.00000835  0.00000851  0.64528893  1
  Li  Li3  1  0.00000998  0.00000932  0.85472779  1
  Ti  Ti0  1  0.33333293  0.66666648  0.02486791  1
  Ti  Ti1  1  0.33333170  0.66666521  0.31225758  1
  Ti  Ti2  1  0.33333357  0.66666696  0.52486073  1
  Ti  Ti3  1  0.33333468  0.66666794  0.81228135  1
  Ti  Ti4  1  0.66666542  0.33333194  0.18771848  1
  Ti  Ti5  1  0.66666846  0.33333447  0.68774237  1
  Ti  Ti6  1  0.66666648  0.33333283  0.47513919  1
  Ti  Ti7  1  0.66666705  0.33333335  0.97513214  1
  O  O0  1  0.99997671  0.66163873  0.75002243  1
  O  O1  1  0.02561413  0.64281410  0.41834677  1
  O  O2  1  0.35713033  0.97435849  0.91836410  1
  O  O3  1  0.00002344  0.33836201  0.24997761  1
  O  O4  1  0.02564308  0.38277231  0.91836412  1
  O  O5  1  0.35718639  0.38280105  0.41834679  1
  O  O6  1  0.33835929  0.33833557  0.75002245  1
  O  O7  1  0.38277291  0.35713148  0.08163561  1
  O  O8  1  0.61719938  0.97438430  0.41834674  1
  O  O9  1  0.33833877  0.99997644  0.24997758  1
  O  O10  1  0.38280052  0.02561564  0.58165330  1
  O  O11  1  0.61722723  0.64286919  0.91836416  1
  O  O12  1  0.66163986  0.66166333  0.24997754  1
  O  O13  1  0.64281402  0.61719880  0.58165323  1
  O  O14  1  0.97435749  0.61722744  0.08163567  1
  O  O15  1  0.64286899  0.02564094  0.08163565  1
  O  O16  1  0.66166240  0.00002330  0.75002232  1
  O  O17  1  0.97438563  0.35718524  0.58165325  1
loop_
_geom_bond_atom_site_label_1
_geom_bond_atom_site_label_2
_geom_bond_distance
_geom_bond_site_symmetry_2
Li0 O14 2.058561 1_445
Li0 O15 2.058562 1_455
Li0 O7 2.058639 1_555
Li0 O12 2.231731 1_445
Li0 O3 2.231787 1_555
Li0 O9 2.231790 1_545
Li1 O1 2.058741 1_545
Li1 O8 2.058741 1_445
Li1 O5 2.058812 1_555
Li1 O12 2.231987 1_445
Li1 O9 2.232037 1_545
Li1 O3 2.232038 1_555
Li2 O17 2.058739 1_455
Li2 O10 2.058739 1_555
Li2 O13 2.058809 1_445
Li2 O6 2.231985 1_555
Li2 O16 2.232033 1_455
Li2 O0 2.232035 1_445
Li3 O2 2.058558 1_545
Li3 O4 2.058558 1_555
Li3 O11 2.058636 1_445
Li3 O6 2.231728 1_555
Li3 O0 2.231784 1_445
Li3 O16 2.231787 1_455
O0 Ti5 1.871180 1_555
O0 Ti3 1.871206 1_655
O1 Ti6 1.865352 1_455
O1 Ti1 2.089626 1_555
O1 Ti2 2.093751 1_555
O2 Ti7 1.865383 1_565
O2 Ti3 2.089555 1_555
O2 Ti0 2.093642 1_556
O3 Ti1 1.871178 1_555
O3 Ti4 1.871206 1_455
O4 Ti7 1.865381 1_455
O4 Ti3 2.089562 1_555
O4 Ti0 2.093642 1_556
O5 Ti6 1.865344 1_555
O5 Ti1 2.089624 1_555
O5 Ti2 2.093749 1_555
O6 Ti5 1.871189 1_555
O6 Ti3 1.871211 1_555
O7 Ti0 1.865370 1_555
O7 Ti4 2.089554 1_555
O7 Ti7 2.093638 1_554
O8 Ti6 1.865349 1_565
O8 Ti1 2.089635 1_555
O8 Ti2 2.093751 1_555
O9 Ti1 1.871179 1_555
O9 Ti4 1.871204 1_565
O10 Ti2 1.865351 1_545
O10 Ti5 2.089634 1_555
O10 Ti6 2.093752 1_555
O11 Ti7 1.865375 1_555
O11 Ti3 2.089552 1_555
O11 Ti0 2.093640 1_556
O12 Ti1 1.871186 1_555
O12 Ti4 1.871210 1_555
O13 Ti2 1.865346 1_555
O13 Ti5 2.089623 1_555
O13 Ti6 2.093749 1_555
O14 Ti0 1.865377 1_655
O14 Ti4 2.089563 1_555
O14 Ti7 2.093640 1_554
O15 Ti0 1.865379 1_545
O15 Ti4 2.089556 1_555
O15 Ti7 2.093639 1_554
O16 Ti5 1.871181 1_555
O16 Ti3 1.871205 1_545
O17 Ti2 1.865354 1_655
O17 Ti5 2.089625 1_555
O17 Ti6 2.093752 1_555
