# generated using pymatgen
data_Li4Mn3Co3(SnO8)2
_symmetry_space_group_name_H-M   'P 1'
_cell_length_a   5.80931297
_cell_length_b   5.82398000
_cell_length_c   9.63818437
_cell_angle_alpha   89.98585746
_cell_angle_beta   89.88831177
_cell_angle_gamma   120.07378642
_symmetry_Int_Tables_number   1
_chemical_formula_structural   Li4Mn3Co3(SnO8)2
_chemical_formula_sum   'Li4 Mn3 Co3 Sn2 O16'
_cell_volume   282.19275773
_cell_formula_units_Z   1
loop_
 _symmetry_equiv_pos_site_id
 _symmetry_equiv_pos_as_xyz
  1  'x, y, z'
loop_
 _atom_site_type_symbol
 _atom_site_label
 _atom_site_symmetry_multiplicity
 _atom_site_fract_x
 _atom_site_fract_y
 _atom_site_fract_z
 _atom_site_occupancy
  Li  Li0  1  0.33351500  0.66674300  0.89380300  1
  Li  Li1  1  0.00146600  0.00078800  0.99581600  1
  Li  Li2  1  0.00568400  0.00313800  0.49345200  1
  Li  Li3  1  0.67092900  0.33560400  0.38839900  1
  Mn  Mn0  1  0.66078100  0.83016500  0.21524600  1
  Mn  Mn1  1  0.83045100  0.66121800  0.71596200  1
  Mn  Mn2  1  0.83024500  0.16909700  0.71601300  1
  Co  Co0  1  0.17074300  0.83081300  0.21573100  1
  Co  Co1  1  0.17039600  0.33992800  0.21559500  1
  Co  Co2  1  0.34077700  0.17034600  0.71535800  1
  Sn  Sn0  1  0.32849200  0.66408800  0.49142200  1
  Sn  Sn1  1  0.65976200  0.32989600  0.99527600  1
  O  O0  1  0.15347700  0.83930400  0.60377500  1
  O  O1  1  0.03579600  0.51817600  0.33033100  1
  O  O2  1  0.33402900  0.66724900  0.11298900  1
  O  O3  1  0.99996800  0.99977700  0.30705100  1
  O  O4  1  0.00250900  0.00099700  0.80856000  1
  O  O5  1  0.15326400  0.31409400  0.60375200  1
  O  O6  1  0.48489600  0.96824500  0.33218700  1
  O  O7  1  0.48475500  0.51619600  0.33205600  1
  O  O8  1  0.30959600  0.15475700  0.10355700  1
  O  O9  1  0.68257400  0.84126700  0.60347000  1
  O  O10  1  0.51880500  0.48594500  0.83261900  1
  O  O11  1  0.51890200  0.03277700  0.83273400  1
  O  O12  1  0.67032200  0.33553600  0.61131100  1
  O  O13  1  0.84045900  0.68430000  0.10392500  1
  O  O14  1  0.96708800  0.48352700  0.83336000  1
  O  O15  1  0.84031500  0.15632800  0.10408900  1
loop_
_geom_bond_atom_site_label_1
_geom_bond_atom_site_label_2
_geom_bond_distance
_geom_bond_site_symmetry_2
Li0 O14 1.933378 1_455
Li0 O11 1.935640 1_565
Li0 O10 1.936211 1_555
Li0 O2 2.112564 1_556
Li1 O4 1.804804 1_555
Li1 O8 1.866976 1_556
Li1 O13 1.904049 1_446
Li1 O15 1.905942 1_456
Li2 O3 1.796869 1_445
Li2 O5 1.895606 1_555
Li2 O0 1.897980 1_545
Li2 O9 1.937702 1_445
Li3 O1 1.916484 1_655
Li3 O7 1.926892 1_555
Li3 O6 1.929874 1_545
Li3 O12 2.148463 1_555
Mn0 O2 1.917675 1_555
Mn0 O3 1.922969 1_555
Mn0 O7 1.943517 1_555
Mn0 O6 1.944361 1_555
Mn0 O13 1.961423 1_555
Mn0 O15 1.962897 1_565
Mn1 O12 1.927862 1_555
Mn1 O10 1.929563 1_555
Mn1 O4 1.932224 1_665
Mn1 O0 1.951216 1_655
Mn1 O14 1.951287 1_555
Mn1 O9 1.979642 1_555
Mn2 O11 1.928655 1_555
Mn2 O12 1.930500 1_555
Mn2 O4 1.934047 1_655
Mn2 O5 1.951563 1_655
Mn2 O14 1.951945 1_555
Mn2 O9 1.980141 1_545
Co0 O2 1.921003 1_555
Co0 O3 1.924242 1_455
Co0 O1 1.927407 1_555
Co0 O6 1.943086 1_555
Co0 O8 1.961974 1_565
Co0 O13 1.984559 1_455
Co1 O2 1.922207 1_555
Co1 O3 1.926582 1_445
Co1 O1 1.929439 1_555
Co1 O7 1.943832 1_555
Co1 O8 1.963211 1_555
Co1 O15 1.982167 1_455
Co2 O4 1.921338 1_555
Co2 O12 1.934527 1_555
Co2 O10 1.955947 1_555
Co2 O11 1.956413 1_555
Co2 O0 1.990164 1_545
Co2 O5 1.990655 1_555
O0 Sn0 2.069722 1_555
O1 Sn0 2.141679 1_555
O5 Sn0 2.068408 1_555
O6 Sn0 2.167712 1_555
O7 Sn0 2.168889 1_555
O8 Sn1 2.044333 1_554
O9 Sn0 2.084253 1_555
O10 Sn1 2.168965 1_555
O11 Sn1 2.169193 1_555
O13 Sn1 2.071864 1_554
O14 Sn1 2.193377 1_555
O15 Sn1 2.070821 1_554
