# generated using pymatgen
data_CsFeH4Cl3O2
_symmetry_space_group_name_H-M   'P 1'
_cell_length_a   7.32817800
_cell_length_b   9.05840800
_cell_length_c   11.59416800
_cell_angle_alpha   90.00000000
_cell_angle_beta   90.00000000
_cell_angle_gamma   90.00000000
_symmetry_Int_Tables_number   1
_chemical_formula_structural   CsFeH4Cl3O2
_chemical_formula_sum   'Cs4 Fe4 H16 Cl12 O8'
_cell_volume   769.63972652
_cell_formula_units_Z   4
loop_
 _symmetry_equiv_pos_site_id
 _symmetry_equiv_pos_as_xyz
  1  'x, y, z'
loop_
 _atom_site_type_symbol
 _atom_site_label
 _atom_site_symmetry_multiplicity
 _atom_site_fract_x
 _atom_site_fract_y
 _atom_site_fract_z
 _atom_site_occupancy
  Cs  Cs0  1  0.00000000  0.25000000  0.64800900  1
  Cs  Cs1  1  0.00000000  0.75000000  0.85199100  1
  Cs  Cs2  1  0.00000000  0.75000000  0.35199100  1
  Cs  Cs3  1  0.00000000  0.25000000  0.14800900  1
  Fe  Fe0  1  0.52894400  0.00000000  0.75000000  1
  Fe  Fe1  1  0.47105600  0.50000000  0.75000000  1
  Fe  Fe2  1  0.47105600  0.00000000  0.25000000  1
  Fe  Fe3  1  0.52894400  0.50000000  0.25000000  1
  H  H0  1  0.31184200  0.02047700  0.94366700  1
  H  H1  1  0.68815800  0.47952300  0.94366700  1
  H  H2  1  0.68815800  0.52047700  0.55633300  1
  H  H3  1  0.31184200  0.97952300  0.55633300  1
  H  H4  1  0.68815800  0.97952300  0.05633300  1
  H  H5  1  0.31184200  0.52047700  0.05633300  1
  H  H6  1  0.31184200  0.47952300  0.44366700  1
  H  H7  1  0.68815800  0.02047700  0.44366700  1
  H  H8  1  0.30771800  0.17686400  0.88135000  1
  H  H9  1  0.69228200  0.32313600  0.88135000  1
  H  H10  1  0.69228200  0.67686400  0.61865000  1
  H  H11  1  0.30771800  0.82313600  0.61865000  1
  H  H12  1  0.69228200  0.82313600  0.11865000  1
  H  H13  1  0.30771800  0.67686400  0.11865000  1
  H  H14  1  0.30771800  0.32313600  0.38135000  1
  H  H15  1  0.69228200  0.17686400  0.38135000  1
  Cl  Cl0  1  0.50000000  0.25000000  0.65253000  1
  Cl  Cl1  1  0.50000000  0.75000000  0.84747000  1
  Cl  Cl2  1  0.50000000  0.75000000  0.34747000  1
  Cl  Cl3  1  0.50000000  0.25000000  0.15253000  1
  Cl  Cl4  1  0.76900800  0.08874000  0.88976900  1
  Cl  Cl5  1  0.23099200  0.41126000  0.88976900  1
  Cl  Cl6  1  0.23099200  0.58874000  0.61023100  1
  Cl  Cl7  1  0.76900800  0.91126000  0.61023100  1
  Cl  Cl8  1  0.23099200  0.91126000  0.11023100  1
  Cl  Cl9  1  0.76900800  0.58874000  0.11023100  1
  Cl  Cl10  1  0.76900800  0.41126000  0.38976900  1
  Cl  Cl11  1  0.23099200  0.08874000  0.38976900  1
  O  O0  1  0.31617800  0.06940400  0.86730400  1
  O  O1  1  0.68382200  0.43059600  0.86730400  1
  O  O2  1  0.68382200  0.56940400  0.63269600  1
  O  O3  1  0.31617800  0.93059600  0.63269600  1
  O  O4  1  0.68382200  0.93059600  0.13269600  1
  O  O5  1  0.31617800  0.56940400  0.13269600  1
  O  O6  1  0.31617800  0.43059600  0.36730400  1
  O  O7  1  0.68382200  0.06940400  0.36730400  1
loop_
_geom_bond_atom_site_label_1
_geom_bond_atom_site_label_2
_geom_bond_distance
_geom_bond_site_symmetry_2
Fe0 O0 2.162413 1_555
Fe0 O3 2.162413 1_545
Fe1 O1 2.162413 1_555
Fe1 O2 2.162413 1_555
Fe2 O7 2.162413 1_555
Fe2 O4 2.162413 1_545
Fe3 O5 2.162413 1_555
Fe3 O6 2.162413 1_555
H0 O0 0.990610 1_555
H1 O1 0.990610 1_555
H2 O2 0.990610 1_555
H3 O3 0.990610 1_555
H4 O4 0.990610 1_555
H5 O5 0.990610 1_555
H6 O6 0.990610 1_555
H7 O7 0.990610 1_555
H8 O0 0.988890 1_555
H9 O1 0.988890 1_555
H10 O2 0.988890 1_555
H11 O3 0.988890 1_555
H12 O4 0.988890 1_555
H13 O5 0.988890 1_555
H14 O6 0.988890 1_555
H15 O7 0.988890 1_555
Cl0 Fe1 2.539784 1_555
Cl0 Fe0 2.539784 1_555
Cl0 Cs0 3.664464 1_555
Cl0 Cs0 3.664464 1_655
Cl1 Fe1 2.539784 1_555
Cl1 Fe0 2.539784 1_565
Cl1 Cs1 3.664464 1_555
Cl1 Cs1 3.664464 1_655
Cl2 Fe2 2.539784 1_565
Cl2 Fe3 2.539784 1_555
Cl2 Cs2 3.664464 1_555
Cl2 Cs2 3.664464 1_655
Cl3 Fe3 2.539784 1_555
Cl3 Fe2 2.539784 1_555
Cl3 Cs3 3.664464 1_555
Cl3 Cs3 3.664464 1_655
Cl4 Fe0 2.523311 1_555
Cl4 Cs1 3.531658 1_645
Cl4 Cs0 3.585535 1_655
Cl4 Cs3 3.736807 1_656
Cl5 Fe1 2.523311 1_555
Cl5 Cs1 3.531658 1_555
Cl5 Cs0 3.585535 1_555
Cl5 Cs3 3.736807 1_556
Cl6 Fe1 2.523311 1_555
Cl6 Cs0 3.531658 1_555
Cl6 Cs1 3.585535 1_555
Cl6 Cs2 3.736807 1_555
Cl7 Fe0 2.523311 1_565
Cl7 Cs0 3.531658 1_665
Cl7 Cs1 3.585535 1_655
Cl7 Cs2 3.736807 1_655
Cl8 Fe2 2.523311 1_565
Cl8 Cs3 3.531658 1_565
Cl8 Cs2 3.585535 1_555
Cl8 Cs1 3.736807 1_554
Cl9 Fe3 2.523311 1_555
Cl9 Cs3 3.531658 1_655
Cl9 Cs2 3.585535 1_655
Cl9 Cs1 3.736807 1_654
Cl10 Fe3 2.523311 1_555
Cl10 Cs2 3.531658 1_655
Cl10 Cs3 3.585535 1_655
Cl10 Cs0 3.736807 1_655
Cl11 Fe2 2.523311 1_555
Cl11 Cs2 3.531658 1_545
Cl11 Cs3 3.585535 1_555
Cl11 Cs0 3.736807 1_555
