# generated using pymatgen
data_Mg3P4H28(NO12)2
_symmetry_space_group_name_H-M   'P 1'
_cell_length_a   10.76038000
_cell_length_b   7.74361048
_cell_length_c   6.76113515
_cell_angle_alpha   97.91688128
_cell_angle_beta   96.93187999
_cell_angle_gamma   104.65069175
_symmetry_Int_Tables_number   1
_chemical_formula_structural   Mg3P4H28(NO12)2
_chemical_formula_sum   'Mg3 P4 H28 N2 O24'
_cell_volume   532.69614380
_cell_formula_units_Z   1
loop_
 _symmetry_equiv_pos_site_id
 _symmetry_equiv_pos_as_xyz
  1  'x, y, z'
loop_
 _atom_site_type_symbol
 _atom_site_label
 _atom_site_symmetry_multiplicity
 _atom_site_fract_x
 _atom_site_fract_y
 _atom_site_fract_z
 _atom_site_occupancy
  Mg  Mg0  1  0.00000000  0.00000000  0.00000000  1
  Mg  Mg1  1  0.34014600  0.59694900  0.75910000  1
  Mg  Mg2  1  0.65985400  0.40305100  0.24090000  1
  P  P0  1  0.24908600  0.87197900  0.66570900  1
  P  P1  1  0.75091400  0.12802100  0.33429100  1
  P  P2  1  0.20444500  0.47274700  0.30479400  1
  P  P3  1  0.79555500  0.52725300  0.69520600  1
  H  H0  1  0.15592300  0.73452600  0.38736100  1
  H  H1  1  0.84407700  0.26547400  0.61263900  1
  H  H2  1  0.98677200  0.28288700  0.22410800  1
  H  H3  1  0.01322800  0.71711300  0.77589200  1
  H  H4  1  0.37316600  0.97387300  0.21893600  1
  H  H5  1  0.62683400  0.02612700  0.78106400  1
  H  H6  1  0.17830900  0.90665000  0.27211700  1
  H  H7  1  0.82169100  0.09335000  0.72788300  1
  H  H8  1  0.73068500  0.76831000  0.94540000  1
  H  H9  1  0.26931500  0.23169000  0.05460000  1
  H  H10  1  0.70709500  0.88483400  0.11534700  1
  H  H11  1  0.29290500  0.11516600  0.88465300  1
  H  H12  1  0.32082600  0.78348200  0.05665700  1
  H  H13  1  0.67917400  0.21651800  0.94334300  1
  H  H14  1  0.30185400  0.65527900  0.11500400  1
  H  H15  1  0.69814600  0.34472100  0.88499600  1
  H  H16  1  0.10164400  0.40990000  0.81295800  1
  H  H17  1  0.89835600  0.59010000  0.18704200  1
  H  H18  1  0.29573100  0.41573400  0.95849300  1
  H  H19  1  0.70426900  0.58426600  0.04150700  1
  H  H20  1  0.65691400  0.86850800  0.41712100  1
  H  H21  1  0.34308600  0.13149200  0.58287900  1
  H  H22  1  0.57090400  0.77220700  0.54760500  1
  H  H23  1  0.42909600  0.22779300  0.45239500  1
  H  H24  1  0.82170200  0.81867800  0.56179100  1
  H  H25  1  0.17829800  0.18132200  0.43820900  1
  H  H26  1  0.69272900  0.71045700  0.37152700  1
  H  H27  1  0.30727100  0.28954300  0.62847300  1
  N  N0  1  0.68393700  0.79225600  0.47384200  1
  N  N1  1  0.31606300  0.20774400  0.52615800  1
  O  O0  1  0.37171100  0.00924400  0.70935100  1
  O  O1  1  0.62828900  0.99075600  0.29064900  1
  O  O2  1  0.06853700  0.87095700  0.77023500  1
  O  O3  1  0.93146300  0.12904300  0.22976500  1
  O  O4  1  0.38212800  0.77055100  0.69461700  1
  O  O5  1  0.61787200  0.22944900  0.30538300  1
  O  O6  1  0.14987800  0.83024400  0.45308100  1
  O  O7  1  0.85012200  0.16975600  0.54691900  1
  O  O8  1  0.98668700  0.37775800  0.22886400  1
  O  O9  1  0.01331300  0.62224200  0.77113600  1
  O  O10  1  0.35212200  0.40818500  0.18726300  1
  O  O11  1  0.64787800  0.59181500  0.81273700  1
  O  O12  1  0.26482000  0.48328500  0.50364700  1
  O  O13  1  0.73518000  0.51671500  0.49635300  1
  O  O14  1  0.16229600  0.60068400  0.26158800  1
  O  O15  1  0.83770400  0.39931600  0.73841200  1
  O  O16  1  0.22560800  0.93851000  0.17321800  1
  O  O17  1  0.77439200  0.06149000  0.82678200  1
  O  O18  1  0.79761100  0.85279000  0.02902800  1
  O  O19  1  0.20238900  0.14721000  0.97097200  1
  O  O20  1  0.37162300  0.69973400  0.03603700  1
  O  O21  1  0.62837700  0.30026600  0.96396300  1
  O  O22  1  0.25226400  0.42292900  0.83319800  1
  O  O23  1  0.74773600  0.57707100  0.16680200  1
loop_
_geom_bond_atom_site_label_1
_geom_bond_atom_site_label_2
_geom_bond_distance
_geom_bond_site_symmetry_2
Mg0 O3 2.043862 1_455
Mg0 O2 2.043862 1_544
Mg0 O19 2.233768 1_554
Mg0 O18 2.233768 1_445
Mg1 O4 1.450209 1_555
Mg1 O22 1.617660 1_555
Mg1 O12 1.815809 1_555
Mg1 O20 1.885245 1_556
Mg2 O5 1.450209 1_555
Mg2 O23 1.617660 1_555
Mg2 O13 1.815809 1_555
Mg2 O21 1.885245 1_554
H0 O6 0.831680 1_555
H0 O14 1.268558 1_555
H1 O7 0.831680 1_555
H1 O15 1.268558 1_555
H2 O8 0.731147 1_555
H2 O3 1.197612 1_555
H3 O9 0.731147 1_555
H3 O2 1.197612 1_555
H4 O16 1.526386 1_555
H5 O17 1.526386 1_555
H6 O16 0.911644 1_555
H6 O6 1.462485 1_555
H7 O17 0.911644 1_555
H7 O7 1.462485 1_555
H8 O18 0.909822 1_556
H8 O11 1.523067 1_555
H9 O19 0.909822 1_554
H9 O10 1.523067 1_555
H10 O18 1.253155 1_555
H11 O19 1.253155 1_555
H12 O20 0.954761 1_555
H13 O21 0.954761 1_555
H14 O20 0.991878 1_555
H15 O21 0.991878 1_555
H16 O22 1.586068 1_555
H17 O23 1.586068 1_555
H18 O22 0.932766 1_555
H18 O10 1.606342 1_556
H19 O23 0.932766 1_555
H19 O11 1.606342 1_554
H20 N0 0.838204 1_555
H20 O1 1.424464 1_555
H21 N1 0.838204 1_555
H21 O0 1.424464 1_555
H22 N0 1.350698 1_555
H23 N1 1.350698 1_555
H24 N0 1.480966 1_555
H25 N1 1.480966 1_555
H26 N0 0.902283 1_555
H27 N1 0.902283 1_555
O0 P0 1.438086 1_545
O1 P1 1.438086 1_565
O2 P0 2.144542 1_555
O3 P1 2.144542 1_555
O4 P0 1.802231 1_555
O5 P1 1.802231 1_555
O6 P0 1.624133 1_555
O7 P1 1.624133 1_555
O10 P2 2.000935 1_555
O11 P3 2.000935 1_555
O12 P2 1.403014 1_555
O13 P3 1.403014 1_555
O14 P2 1.244001 1_555
O15 P3 1.244001 1_555
