# generated using pymatgen
data_K2Zn(H2N)4
_symmetry_space_group_name_H-M   'P 1'
_cell_length_a   6.93209000
_cell_length_b   7.50022904
_cell_length_c   8.13035550
_cell_angle_alpha   108.04058310
_cell_angle_beta   84.17991551
_cell_angle_gamma   115.82156295
_symmetry_Int_Tables_number   1
_chemical_formula_structural   K2Zn(H2N)4
_chemical_formula_sum   'K4 Zn2 H16 N8'
_cell_volume   361.52564818
_cell_formula_units_Z   2
loop_
 _symmetry_equiv_pos_site_id
 _symmetry_equiv_pos_as_xyz
  1  'x, y, z'
loop_
 _atom_site_type_symbol
 _atom_site_label
 _atom_site_symmetry_multiplicity
 _atom_site_fract_x
 _atom_site_fract_y
 _atom_site_fract_z
 _atom_site_occupancy
  K  K0  1  0.25173800  0.50238800  0.13938300  1
  K  K1  1  0.74826200  0.49761200  0.86061700  1
  K  K2  1  0.30639500  0.57420400  0.68755900  1
  K  K3  1  0.69360500  0.42579600  0.31244100  1
  Zn  Zn0  1  0.22335600  0.10675600  0.76502600  1
  Zn  Zn1  1  0.77664400  0.89324400  0.23497400  1
  H  H0  1  0.08046500  0.79878300  0.08380600  1
  H  H1  1  0.91953500  0.20121700  0.91619400  1
  H  H2  1  0.09578400  0.83353500  0.28723400  1
  H  H3  1  0.90421600  0.16646500  0.71276600  1
  H  H4  1  0.48413700  0.10219300  0.94874900  1
  H  H5  1  0.51586300  0.89780700  0.05125100  1
  H  H6  1  0.28643200  0.11205900  0.06297300  1
  H  H7  1  0.71356800  0.88794100  0.93702700  1
  H  H8  1  0.31658100  0.16449900  0.47824400  1
  H  H9  1  0.68341900  0.83550100  0.52175600  1
  H  H10  1  0.51335500  0.14031600  0.54066600  1
  H  H11  1  0.48664500  0.85968400  0.45933400  1
  H  H12  1  0.09642300  0.20705300  0.35338100  1
  H  H13  1  0.90357700  0.79294700  0.64661900  1
  H  H14  1  0.09428100  0.74438100  0.54763700  1
  H  H15  1  0.90571900  0.25561900  0.45236300  1
  N  N0  1  0.01248600  0.24598400  0.81618400  1
  N  N1  1  0.98751400  0.75401600  0.18381600  1
  N  N2  1  0.40121200  0.19277600  0.98919100  1
  N  N3  1  0.59878800  0.80722400  0.01080900  1
  N  N4  1  0.42486400  0.22559600  0.58098700  1
  N  N5  1  0.57513600  0.77440400  0.41901300  1
  N  N6  1  0.04333800  0.78669400  0.67097400  1
  N  N7  1  0.95666200  0.21330600  0.32902600  1
loop_
_geom_bond_atom_site_label_1
_geom_bond_atom_site_label_2
_geom_bond_distance
_geom_bond_site_symmetry_2
K0 N2 2.835550 1_554
K0 N3 2.878636 1_555
K0 N0 2.886056 1_554
K0 N5 2.921181 1_555
K0 N7 2.971511 1_455
K0 N1 3.082528 1_455
K1 N3 2.835550 1_556
K1 N2 2.878636 1_555
K1 N1 2.886056 1_556
K1 N4 2.921181 1_555
K1 N6 2.971511 1_655
K1 N0 3.082528 1_655
K2 N0 2.845684 1_555
K2 N4 2.929942 1_555
K2 N6 2.932253 1_555
K2 N3 3.036339 1_556
K2 N5 3.043213 1_555
K3 N1 2.845684 1_555
K3 N5 2.929942 1_555
K3 N7 2.932253 1_555
K3 N2 3.036339 1_554
K3 N4 3.043213 1_555
H0 N1 1.031237 1_455
H0 K1 2.734148 1_454
H0 K0 3.096110 1_555
H1 N0 1.031237 1_655
H1 K0 2.734148 1_656
H1 K1 3.096110 1_555
H2 N1 1.026369 1_455
H2 K0 3.001450 1_555
H3 N0 1.026369 1_655
H3 K1 3.001450 1_555
H4 N2 1.031337 1_555
H4 K1 2.996856 1_555
H5 N3 1.031337 1_555
H5 K0 2.996856 1_555
H6 N2 1.033416 1_554
H6 K0 2.910489 1_555
H7 N3 1.033416 1_556
H7 K1 2.910489 1_555
H8 N4 1.030363 1_555
H8 K3 2.991399 1_555
H9 N5 1.030363 1_555
H9 K2 2.991399 1_555
H10 N4 1.031512 1_555
H10 K1 3.056105 1_555
H11 N5 1.031512 1_555
H11 K0 3.056105 1_555
H12 N7 1.031646 1_455
H12 K0 3.003756 1_555
H13 N6 1.031646 1_655
H13 K1 3.003756 1_555
H14 N6 1.029408 1_555
H14 K2 2.821145 1_555
H15 N7 1.029408 1_555
H15 K3 2.821145 1_555
N0 Zn0 2.082698 1_555
N1 Zn1 2.082698 1_555
N2 Zn0 2.071826 1_555
N3 Zn1 2.071826 1_555
N4 Zn0 2.074167 1_555
N5 Zn1 2.074167 1_555
N6 Zn0 2.086031 1_565
N7 Zn1 2.086031 1_545
