# generated using pymatgen
data_LiCu5(PO4)2
_symmetry_space_group_name_H-M   'P 1'
_cell_length_a   5.50968500
_cell_length_b   6.26006004
_cell_length_c   10.46439847
_cell_angle_alpha   90.03162501
_cell_angle_beta   90.10566251
_cell_angle_gamma   90.42724698
_symmetry_Int_Tables_number   1
_chemical_formula_structural   LiCu5(PO4)2
_chemical_formula_sum   'Li2 Cu10 P4 O16'
_cell_volume   360.91643167
_cell_formula_units_Z   2
loop_
 _symmetry_equiv_pos_site_id
 _symmetry_equiv_pos_as_xyz
  1  'x, y, z'
loop_
 _atom_site_type_symbol
 _atom_site_label
 _atom_site_symmetry_multiplicity
 _atom_site_fract_x
 _atom_site_fract_y
 _atom_site_fract_z
 _atom_site_occupancy
  Li  Li0  1  0.67156200  0.24781400  0.49602200  1
  Li  Li1  1  0.32584800  0.25124500  0.24866500  1
  Cu  Cu0  1  0.81130100  0.00293200  0.74925100  1
  Cu  Cu1  1  0.81397300  0.99562500  0.24576800  1
  Cu  Cu2  1  0.66499600  0.24318000  0.00247200  1
  Cu  Cu3  1  0.34582400  0.25534000  0.75076600  1
  Cu  Cu4  1  0.18459000  0.50432700  0.99883500  1
  Cu  Cu5  1  0.18829200  0.49827600  0.49632600  1
  Cu  Cu6  1  0.33967500  0.74389300  0.74790300  1
  Cu  Cu7  1  0.33491600  0.74289000  0.24625800  1
  Cu  Cu8  1  0.66516100  0.75703800  0.49460400  1
  Cu  Cu9  1  0.66044300  0.75562600  0.99997100  1
  P  P0  1  0.17432700  0.00317400  0.00268500  1
  P  P1  1  0.17269500  0.00799700  0.49712500  1
  P  P2  1  0.82595300  0.49098800  0.25318700  1
  P  P3  1  0.82624500  0.49829400  0.74624300  1
  O  O0  1  0.17757900  0.00581600  0.64574800  1
  O  O1  1  0.90491700  0.01467900  0.44906200  1
  O  O2  1  0.18182300  0.00837500  0.15092800  1
  O  O3  1  0.91080100  0.99959900  0.94944000  1
  O  O4  1  0.31774400  0.20371300  0.44248600  1
  O  O5  1  0.30545000  0.20754400  0.94932600  1
  O  O6  1  0.67797500  0.29259500  0.20330500  1
  O  O7  1  0.69561300  0.29765700  0.68724500  1
  O  O8  1  0.82293100  0.49486700  0.89464800  1
  O  O9  1  0.09140900  0.50172300  0.69547400  1
  O  O10  1  0.81672300  0.49121100  0.40159900  1
  O  O11  1  0.09199900  0.48296100  0.20395900  1
  O  O12  1  0.69490300  0.70411900  0.69642100  1
  O  O13  1  0.69994700  0.69712000  0.20006500  1
  O  O14  1  0.29932500  0.79997600  0.44622700  1
  O  O15  1  0.30505900  0.79940700  0.95057500  1
loop_
_geom_bond_atom_site_label_1
_geom_bond_atom_site_label_2
_geom_bond_distance
_geom_bond_site_symmetry_2
Li0 O10 1.980902 1_555
Li0 O1 2.013461 1_555
Li0 O7 2.028982 1_555
Li0 O4 2.044041 1_555
Li1 O2 1.991126 1_555
Li1 O11 2.002356 1_555
Li1 O6 2.013052 1_555
Li1 O4 2.050612 1_555
Cu0 O12 2.048333 1_545
Cu0 O7 2.061224 1_555
Cu0 O3 2.164575 1_545
Cu0 O0 2.292073 1_655
Cu1 O13 2.023785 1_555
Cu1 O6 2.058016 1_565
Cu1 O1 2.187650 1_565
Cu1 O2 2.259220 1_665
Cu2 O5 2.067020 1_554
Cu2 O8 2.120817 1_554
Cu2 O3 2.121289 1_544
Cu2 O6 2.125067 1_555
Cu3 O7 2.055121 1_555
Cu3 O5 2.111328 1_555
Cu3 O0 2.116527 1_555
Cu3 O9 2.169981 1_555
Cu4 O15 2.022818 1_555
Cu4 O5 2.045045 1_555
Cu4 O11 2.211094 1_556
Cu4 O8 2.269996 1_455
Cu5 O14 2.049676 1_555
Cu5 O4 2.060668 1_555
Cu5 O9 2.152332 1_555
Cu5 O10 2.273063 1_455
Cu6 O12 2.047887 1_555
Cu6 O9 2.106111 1_555
Cu6 O0 2.156173 1_565
Cu6 O15 2.157957 1_555
Cu7 O13 2.091107 1_555
Cu7 O2 2.118572 1_565
Cu7 O14 2.132295 1_555
Cu7 O11 2.144634 1_555
Cu8 O14 2.096617 1_555
Cu8 O10 2.106101 1_555
Cu8 O1 2.131850 1_565
Cu8 O12 2.144061 1_555
Cu9 O15 2.044677 1_555
Cu9 O3 2.118277 1_555
Cu9 O13 2.136851 1_556
Cu9 O8 2.168934 1_555
O0 P1 1.555503 1_555
O1 P1 1.558730 1_655
O2 P0 1.552064 1_555
O3 P0 1.554223 1_666
O4 P1 1.566700 1_555
O5 P0 1.568114 1_556
O6 P2 1.569159 1_555
O7 P3 1.568675 1_555
O8 P3 1.553268 1_555
O9 P3 1.555489 1_455
O10 P2 1.553969 1_555
O11 P2 1.555766 1_455
O12 P3 1.571278 1_555
O13 P2 1.571260 1_555
O14 P1 1.574927 1_565
O15 P0 1.567704 1_566
