# generated using pymatgen
data_Li3MnPCO7
_symmetry_space_group_name_H-M   'P 1'
_cell_length_a   6.33059772
_cell_length_b   9.58781764
_cell_length_c   9.44607094
_cell_angle_alpha   63.64535972
_cell_angle_beta   90.00000000
_cell_angle_gamma   90.00000000
_symmetry_Int_Tables_number   1
_chemical_formula_structural   Li3MnPCO7
_chemical_formula_sum   'Li12 Mn4 P4 C4 O28'
_cell_volume   513.75311227
_cell_formula_units_Z   4
loop_
 _symmetry_equiv_pos_site_id
 _symmetry_equiv_pos_as_xyz
  1  'x, y, z'
loop_
 _atom_site_type_symbol
 _atom_site_label
 _atom_site_symmetry_multiplicity
 _atom_site_fract_x
 _atom_site_fract_y
 _atom_site_fract_z
 _atom_site_occupancy
  Li  Li0  1  0.26021304  0.11381749  0.30217177  1
  Li  Li1  1  0.23978696  0.11381749  0.80217177  1
  Li  Li2  1  0.01485793  0.28509749  0.48146703  1
  Li  Li3  1  0.48514207  0.28509749  0.98146703  1
  Li  Li4  1  0.74855668  0.37152528  0.67561736  1
  Li  Li5  1  0.75144332  0.37152528  0.17561736  1
  Li  Li6  1  0.25144332  0.62847472  0.32438264  1
  Li  Li7  1  0.24855668  0.62847472  0.82438264  1
  Li  Li8  1  0.98514207  0.71490251  0.51853297  1
  Li  Li9  1  0.51485793  0.71490251  0.01853297  1
  Li  Li10  1  0.73978696  0.88618251  0.69782823  1
  Li  Li11  1  0.76021304  0.88618251  0.19782823  1
  Mn  Mn0  1  0.51778356  0.25070853  0.50016009  1
  Mn  Mn1  1  0.98221644  0.25070853  0.00016009  1
  Mn  Mn2  1  0.48221644  0.74929147  0.49983991  1
  Mn  Mn3  1  0.01778356  0.74929147  0.99983991  1
  P  P0  1  0.24066860  0.40825488  0.68854631  1
  P  P1  1  0.25933140  0.40825488  0.18854631  1
  P  P2  1  0.75933140  0.59174512  0.31145369  1
  P  P3  1  0.74066860  0.59174512  0.81145369  1
  C  C0  1  0.77357676  0.04786389  0.36908193  1
  C  C1  1  0.72642324  0.04786389  0.86908193  1
  C  C2  1  0.22642324  0.95213611  0.63091807  1
  C  C3  1  0.27357676  0.95213611  0.13091807  1
  O  O0  1  0.68339633  0.06505983  0.72937611  1
  O  O1  1  0.81660367  0.06505983  0.22937611  1
  O  O2  1  0.26336315  0.09286809  0.51932030  1
  O  O3  1  0.76670079  0.16334170  0.40284886  1
  O  O4  1  0.23663685  0.09286809  0.01932030  1
  O  O5  1  0.73329921  0.16334170  0.90284886  1
  O  O6  1  0.05268611  0.30926548  0.68373650  1
  O  O7  1  0.43747044  0.31917761  0.67852478  1
  O  O8  1  0.06252956  0.31917761  0.17852478  1
  O  O9  1  0.44731389  0.30926548  0.18373650  1
  O  O10  1  0.76237164  0.42364014  0.44129345  1
  O  O11  1  0.26080500  0.41219065  0.35055594  1
  O  O12  1  0.73762836  0.42364014  0.94129345  1
  O  O13  1  0.23919500  0.41219065  0.85055594  1
  O  O14  1  0.73919500  0.58780935  0.64944406  1
  O  O15  1  0.23762836  0.57635986  0.55870655  1
  O  O16  1  0.76080500  0.58780935  0.14944406  1
  O  O17  1  0.26237164  0.57635986  0.05870655  1
  O  O18  1  0.94731389  0.69073452  0.31626350  1
  O  O19  1  0.56252956  0.68082239  0.32147522  1
  O  O20  1  0.93747044  0.68082239  0.82147522  1
  O  O21  1  0.55268611  0.69073452  0.81626350  1
  O  O22  1  0.23329921  0.83665830  0.59715114  1
  O  O23  1  0.73663685  0.90713191  0.48067970  1
  O  O24  1  0.26670079  0.83665830  0.09715114  1
  O  O25  1  0.76336315  0.90713191  0.98067970  1
  O  O26  1  0.31660367  0.93494017  0.27062389  1
  O  O27  1  0.18339633  0.93494017  0.77062389  1
loop_
_geom_bond_atom_site_label_1
_geom_bond_atom_site_label_2
_geom_bond_distance
_geom_bond_site_symmetry_2
Li0 O26 1.900366 1_545
Li0 O2 1.970373 1_555
Li0 O9 2.074798 1_555
Li0 O8 2.182958 1_555
Li1 O27 1.900366 1_545
Li1 O4 1.970373 1_556
Li1 O6 2.074798 1_555
Li1 O7 2.182958 1_555
Li2 O10 2.003933 1_455
Li2 O11 2.024942 1_555
Li2 O6 2.038311 1_555
Li2 O3 2.269792 1_455
Li2 O2 2.326915 1_555
Li3 O12 2.003933 1_555
Li3 O13 2.024942 1_555
Li3 O9 2.038311 1_556
Li3 O5 2.269792 1_555
Li3 O4 2.326915 1_556
Li4 O14 1.977282 1_555
Li4 O6 2.007094 1_655
Li4 O7 2.029484 1_555
Li4 O10 2.043204 1_555
Li4 O5 2.190159 1_555
Li5 O16 1.977282 1_555
Li5 O9 2.007094 1_555
Li5 O8 2.029484 1_655
Li5 O12 2.043204 1_554
Li5 O3 2.190159 1_555
Li6 O11 1.977282 1_555
Li6 O18 2.007094 1_455
Li6 O19 2.029484 1_555
Li6 O15 2.043204 1_555
Li6 O24 2.190159 1_555
Li7 O13 1.977282 1_555
Li7 O21 2.007094 1_555
Li7 O20 2.029484 1_455
Li7 O17 2.043204 1_556
Li7 O22 2.190159 1_555
Li8 O15 2.003933 1_655
Li8 O14 2.024942 1_555
Li8 O18 2.038311 1_555
Li8 O22 2.269792 1_655
Li8 O23 2.326915 1_555
Li9 O17 2.003933 1_555
Li9 O16 2.024942 1_555
Li9 O21 2.038311 1_554
Li9 O24 2.269792 1_555
Li9 O25 2.326915 1_554
Li10 O0 1.900366 1_565
Li10 O23 1.970373 1_555
Li10 O21 2.074798 1_555
Li10 O20 2.182958 1_555
Li11 O1 1.900366 1_565
Li11 O25 1.970373 1_554
Li11 O18 2.074798 1_555
Li11 O19 2.182958 1_555
Mn0 O7 2.123715 1_555
Mn0 O10 2.153422 1_555
Mn0 O2 2.161927 1_555
Mn0 O3 2.171031 1_555
Mn0 O11 2.257909 1_555
Mn0 O0 2.352399 1_555
Mn1 O8 2.123715 1_655
Mn1 O12 2.153422 1_554
Mn1 O4 2.161927 1_655
Mn1 O5 2.171031 1_554
Mn1 O13 2.257909 1_654
Mn1 O1 2.352399 1_555
Mn2 O19 2.123715 1_555
Mn2 O15 2.153422 1_555
Mn2 O23 2.161927 1_555
Mn2 O22 2.171031 1_555
Mn2 O14 2.257909 1_555
Mn2 O26 2.352399 1_555
Mn3 O20 2.123715 1_455
Mn3 O17 2.153422 1_556
Mn3 O25 2.161927 1_455
Mn3 O24 2.171031 1_556
Mn3 O16 2.257909 1_456
Mn3 O27 2.352399 1_555
C0 O3 1.281806 1_555
C0 O1 1.284419 1_555
C0 O23 1.312902 1_545
C1 O5 1.281806 1_555
C1 O0 1.284419 1_555
C1 O25 1.312902 1_545
C2 O22 1.281806 1_555
C2 O27 1.284419 1_555
C2 O2 1.312902 1_565
C3 O24 1.281806 1_555
C3 O26 1.284419 1_555
C3 O4 1.312902 1_565
O6 P0 1.535358 1_555
O7 P0 1.536996 1_555
O8 P1 1.536996 1_555
O9 P1 1.535358 1_555
O10 P2 1.532087 1_555
O11 P1 1.547504 1_555
O12 P3 1.532087 1_555
O13 P0 1.547504 1_555
O14 P3 1.547504 1_555
O15 P0 1.532087 1_555
O16 P2 1.547504 1_555
O17 P1 1.532087 1_555
O18 P2 1.535358 1_555
O19 P2 1.536996 1_555
O20 P3 1.536996 1_555
O21 P3 1.535358 1_555
