# generated using pymatgen
data_Na2TiPCO7
_symmetry_space_group_name_H-M   'P 1'
_cell_length_a   6.55742000
_cell_length_b   5.29011200
_cell_length_c   9.06394604
_cell_angle_alpha   89.71133101
_cell_angle_beta   90.00000000
_cell_angle_gamma   90.00000000
_symmetry_Int_Tables_number   1
_chemical_formula_structural   Na2TiPCO7
_chemical_formula_sum   'Na4 Ti2 P2 C2 O14'
_cell_volume   314.41964067
_cell_formula_units_Z   2
loop_
 _symmetry_equiv_pos_site_id
 _symmetry_equiv_pos_as_xyz
  1  'x, y, z'
loop_
 _atom_site_type_symbol
 _atom_site_label
 _atom_site_symmetry_multiplicity
 _atom_site_fract_x
 _atom_site_fract_y
 _atom_site_fract_z
 _atom_site_occupancy
  Na  Na0  1  0.99831700  0.76408800  0.76894400  1
  Na  Na1  1  0.50168300  0.76408800  0.76894400  1
  Na  Na2  1  0.49831700  0.23591200  0.23105600  1
  Na  Na3  1  0.00168300  0.23591200  0.23105600  1
  Ti  Ti0  1  0.25000000  0.21974000  0.65215600  1
  Ti  Ti1  1  0.75000000  0.78026000  0.34784400  1
  P  P0  1  0.75000000  0.29217100  0.57430600  1
  P  P1  1  0.25000000  0.70782900  0.42569400  1
  C  C0  1  0.25000000  0.27170600  0.92749800  1
  C  C1  1  0.75000000  0.72829400  0.07250200  1
  O  O0  1  0.75000000  0.70927300  0.93521700  1
  O  O1  1  0.25000000  0.05211900  0.85784600  1
  O  O2  1  0.25000000  0.46722400  0.83515800  1
  O  O3  1  0.94292400  0.21217300  0.66270500  1
  O  O4  1  0.55707600  0.21217300  0.66270500  1
  O  O5  1  0.25000000  0.84312900  0.57739000  1
  O  O6  1  0.75000000  0.58523400  0.55354700  1
  O  O7  1  0.25000000  0.41476600  0.44645300  1
  O  O8  1  0.75000000  0.15687100  0.42261000  1
  O  O9  1  0.44292400  0.78782700  0.33729500  1
  O  O10  1  0.05707600  0.78782700  0.33729500  1
  O  O11  1  0.75000000  0.53277600  0.16484200  1
  O  O12  1  0.75000000  0.94788100  0.14215400  1
  O  O13  1  0.25000000  0.29072700  0.06478300  1
loop_
_geom_bond_atom_site_label_1
_geom_bond_atom_site_label_2
_geom_bond_distance
_geom_bond_site_symmetry_2
Na0 O0 2.236610 1_555
Na0 O2 2.353886 1_655
Na0 O1 2.388973 1_665
Na0 O5 2.430190 1_655
Na0 O3 2.579746 1_565
Na0 O6 2.716046 1_555
Na1 O0 2.236610 1_555
Na1 O2 2.353886 1_555
Na1 O1 2.388973 1_565
Na1 O5 2.430190 1_555
Na1 O4 2.579746 1_565
Na1 O6 2.716046 1_555
Na2 O13 2.236610 1_555
Na2 O11 2.353886 1_555
Na2 O12 2.388973 1_545
Na2 O8 2.430190 1_555
Na2 O9 2.579746 1_545
Na2 O7 2.716046 1_555
Na3 O13 2.236610 1_555
Na3 O11 2.353886 1_455
Na3 O12 2.388973 1_445
Na3 O8 2.430190 1_455
Na3 O10 2.579746 1_545
Na3 O7 2.716046 1_555
C0 O13 1.248911 1_556
C0 O1 1.324902 1_555
C0 O2 1.327249 1_555
C1 O0 1.248911 1_554
C1 O12 1.324902 1_555
C1 O11 1.327249 1_555
O1 Ti0 2.060458 1_555
O2 Ti0 2.118322 1_555
O3 P0 1.555027 1_555
O3 Ti0 2.016283 1_655
O4 P0 1.555027 1_555
O4 Ti0 2.016283 1_555
O5 P1 1.553301 1_555
O5 Ti0 2.107644 1_565
O6 P0 1.560771 1_555
O6 Ti1 2.126342 1_555
O7 P1 1.560771 1_555
O7 Ti0 2.126342 1_555
O8 P0 1.553301 1_555
O8 Ti1 2.107644 1_545
O9 P1 1.555027 1_555
O9 Ti1 2.016283 1_555
O10 P1 1.555027 1_555
O10 Ti1 2.016283 1_455
O11 Ti1 2.118322 1_555
O12 Ti1 2.060458 1_555
