# generated using pymatgen
data_Hg2W2O7
_symmetry_space_group_name_H-M   'P 1'
_cell_length_a   7.35538643
_cell_length_b   7.35538643
_cell_length_c   14.94653890
_cell_angle_alpha   76.65228349
_cell_angle_beta   76.65228349
_cell_angle_gamma   62.58662069
_symmetry_Int_Tables_number   1
_chemical_formula_structural   Hg2W2O7
_chemical_formula_sum   'Hg8 W8 O28'
_cell_volume   691.13723283
_cell_formula_units_Z   4
loop_
 _symmetry_equiv_pos_site_id
 _symmetry_equiv_pos_as_xyz
  1  'x, y, z'
loop_
 _atom_site_type_symbol
 _atom_site_label
 _atom_site_symmetry_multiplicity
 _atom_site_fract_x
 _atom_site_fract_y
 _atom_site_fract_z
 _atom_site_occupancy
  Hg  Hg0  1  0.92807700  0.23891600  0.43644900  1
  Hg  Hg1  1  0.39062200  0.74173600  0.43949300  1
  Hg  Hg2  1  0.74173600  0.39062200  0.93949300  1
  Hg  Hg3  1  0.76108400  0.07192300  0.06355100  1
  Hg  Hg4  1  0.23891600  0.92807700  0.93644900  1
  Hg  Hg5  1  0.25826400  0.60937800  0.06050700  1
  Hg  Hg6  1  0.60937800  0.25826400  0.56050700  1
  Hg  Hg7  1  0.07192300  0.76108400  0.56355100  1
  W  W0  1  0.84752400  0.84023900  0.31198800  1
  W  W1  1  0.84023900  0.84752400  0.81198800  1
  W  W2  1  0.66387300  0.64261100  0.19041800  1
  W  W3  1  0.64261100  0.66387300  0.69041800  1
  W  W4  1  0.35738900  0.33612700  0.30958200  1
  W  W5  1  0.33612700  0.35738900  0.80958200  1
  W  W6  1  0.15976100  0.15247600  0.18801200  1
  W  W7  1  0.15247600  0.15976100  0.68801200  1
  O  O0  1  0.81228600  0.89092800  0.42623800  1
  O  O1  1  0.83876600  0.79393000  0.16929800  1
  O  O2  1  0.89092800  0.81228600  0.92623800  1
  O  O3  1  0.88358600  0.38568700  0.22534700  1
  O  O4  1  0.64908600  0.71778900  0.32959000  1
  O  O5  1  0.79393000  0.83876600  0.66929800  1
  O  O6  1  0.68105200  0.61146300  0.07453400  1
  O  O7  1  0.92510200  0.42351100  0.67815400  1
  O  O8  1  0.71778900  0.64908700  0.82959000  1
  O  O9  1  0.42351100  0.92510200  0.17815400  1
  O  O10  1  0.97109700  0.02890300  0.75000000  1
  O  O11  1  0.61431300  0.11641400  0.27465300  1
  O  O12  1  0.45610800  0.54389200  0.25000000  1
  O  O13  1  0.38853700  0.31894800  0.42546600  1
  O  O14  1  0.61146300  0.68105200  0.57453400  1
  O  O15  1  0.54389200  0.45610800  0.75000000  1
  O  O16  1  0.38568700  0.88358600  0.72534700  1
  O  O17  1  0.02890300  0.97109700  0.25000000  1
  O  O18  1  0.57648900  0.07489800  0.82184600  1
  O  O19  1  0.28221100  0.35091400  0.17041000  1
  O  O20  1  0.07489800  0.57648900  0.32184600  1
  O  O21  1  0.31894800  0.38853700  0.92546600  1
  O  O22  1  0.20607000  0.16123400  0.33070200  1
  O  O23  1  0.35091400  0.28221100  0.67041000  1
  O  O24  1  0.11641400  0.61431300  0.77465300  1
  O  O25  1  0.10907200  0.18771400  0.07376200  1
  O  O26  1  0.16123400  0.20607000  0.83070200  1
  O  O27  1  0.18771400  0.10907200  0.57376200  1
loop_
_geom_bond_atom_site_label_1
_geom_bond_atom_site_label_2
_geom_bond_distance
_geom_bond_site_symmetry_2
Hg0 O22 2.203309 1_655
Hg1 O4 2.174151 1_555
Hg2 O8 2.174156 1_555
Hg3 O1 2.203309 1_545
Hg4 O26 2.203309 1_565
Hg5 O19 2.174151 1_555
Hg6 O23 2.174151 1_555
Hg7 O5 2.203309 1_455
O0 W0 1.767159 1_555
O1 W2 1.990468 1_555
O1 W0 2.255599 1_555
O2 W1 1.767159 1_555
O3 W2 1.891387 1_555
O3 W6 2.022448 1_655
O4 W0 1.983585 1_555
O4 W2 2.239604 1_555
O5 W3 1.990468 1_555
O5 W1 2.255599 1_555
O6 W2 1.767489 1_555
O7 W7 1.891160 1_655
O7 W3 2.016878 1_555
O8 W1 1.983579 1_555
O8 W3 2.239606 1_555
O9 W6 1.891160 1_565
O9 W2 2.016878 1_555
O10 W1 1.940270 1_545
O10 W7 1.940270 1_655
O11 W4 1.891387 1_555
O11 W0 2.022448 1_545
O12 W4 1.936629 1_555
O12 W2 1.936629 1_555
O13 W4 1.767489 1_555
O14 W3 1.767489 1_555
O15 W5 1.936629 1_555
O15 W3 1.936629 1_555
O16 W3 1.891387 1_555
O16 W7 2.022448 1_565
O17 W0 1.940270 1_455
O17 W6 1.940270 1_565
O18 W1 1.891160 1_545
O18 W5 2.016878 1_555
O19 W6 1.983585 1_555
O19 W4 2.239604 1_555
O20 W0 1.891160 1_455
O20 W4 2.016878 1_555
O21 W5 1.767489 1_555
O22 W4 1.990468 1_555
O22 W6 2.255599 1_555
O23 W7 1.983585 1_555
O23 W5 2.239604 1_555
O24 W5 1.891387 1_555
O24 W1 2.022448 1_455
O25 W6 1.767159 1_555
O26 W5 1.990468 1_555
O26 W7 2.255599 1_555
O27 W7 1.767159 1_555
