# generated using pymatgen
data_LiFe(CoO3)2
_symmetry_space_group_name_H-M   'P 1'
_cell_length_a   6.54234775
_cell_length_b   2.88058675
_cell_length_c   5.94189266
_cell_angle_alpha   89.98781491
_cell_angle_beta   104.92589906
_cell_angle_gamma   77.28999836
_symmetry_Int_Tables_number   1
_chemical_formula_structural   LiFe(CoO3)2
_chemical_formula_sum   'Li1 Fe1 Co2 O6'
_cell_volume   105.35777476
_cell_formula_units_Z   1
loop_
 _symmetry_equiv_pos_site_id
 _symmetry_equiv_pos_as_xyz
  1  'x, y, z'
loop_
 _atom_site_type_symbol
 _atom_site_label
 _atom_site_symmetry_multiplicity
 _atom_site_fract_x
 _atom_site_fract_y
 _atom_site_fract_z
 _atom_site_occupancy
  Li  Li0  1  0.33325900  0.33337200  0.83310500  1
  Fe  Fe0  1  0.33368400  0.33314500  0.33314800  1
  Co  Co0  1  0.67611400  0.66194000  0.66260000  1
  Co  Co1  1  0.99041200  0.00476700  0.00438200  1
  O  O0  1  0.00772200  0.49613400  0.21061400  1
  O  O1  1  0.36827700  0.81573600  0.58134800  1
  O  O2  1  0.29870600  0.85077200  0.08500300  1
  O  O3  1  0.68703400  0.15637600  0.87654600  1
  O  O4  1  0.65902800  0.17056600  0.45626200  1
  O  O5  1  0.97909800  0.51052600  0.79032400  1
loop_
_geom_bond_atom_site_label_1
_geom_bond_atom_site_label_2
_geom_bond_distance
_geom_bond_site_symmetry_2
Li0 O2 2.129704 1_546
Li0 O1 2.129945 1_555
Li0 O2 2.130656 1_556
Li0 O1 2.130911 1_545
Li0 O3 2.203745 1_555
Li0 O5 2.206799 1_455
Fe0 O4 2.011005 1_555
Fe0 O0 2.014390 1_555
Fe0 O2 2.030790 1_545
Fe0 O2 2.030952 1_555
Fe0 O1 2.031273 1_555
Fe0 O1 2.031330 1_545
Co0 O4 1.875866 1_565
Co0 O4 1.875876 1_555
Co0 O5 1.881459 1_555
Co0 O1 1.895223 1_555
Co0 O3 1.910094 1_565
Co0 O3 1.910152 1_555
Co1 O0 1.875069 1_645
Co1 O0 1.875544 1_655
Co1 O3 1.883864 1_554
Co1 O2 1.898126 1_645
Co1 O5 1.910186 1_544
Co1 O5 1.910236 1_554
