# generated using pymatgen
data_Li3MgPCO7
_symmetry_space_group_name_H-M   'P 1'
_cell_length_a   6.42488900
_cell_length_b   5.06750000
_cell_length_c   8.31508597
_cell_angle_alpha   87.84404840
_cell_angle_beta   90.00000000
_cell_angle_gamma   90.00000000
_symmetry_Int_Tables_number   1
_chemical_formula_structural   Li3MgPCO7
_chemical_formula_sum   'Li6 Mg2 P2 C2 O14'
_cell_volume   270.53197231
_cell_formula_units_Z   2
loop_
 _symmetry_equiv_pos_site_id
 _symmetry_equiv_pos_as_xyz
  1  'x, y, z'
loop_
 _atom_site_type_symbol
 _atom_site_label
 _atom_site_symmetry_multiplicity
 _atom_site_fract_x
 _atom_site_fract_y
 _atom_site_fract_z
 _atom_site_occupancy
  Li  Li0  1  0.49786900  0.01743600  0.00038900  1
  Li  Li1  1  0.18316500  0.45623100  0.17214100  1
  Li  Li2  1  0.44308300  0.44682100  0.49791600  1
  Li  Li3  1  0.94308300  0.55317900  0.50208400  1
  Li  Li4  1  0.68316500  0.54376900  0.82785900  1
  Li  Li5  1  0.99786900  0.98256400  0.99961100  1
  Mg  Mg0  1  0.74869600  0.02330700  0.28050900  1
  Mg  Mg1  1  0.24869600  0.97669300  0.71949100  1
  P  P0  1  0.24726700  0.96350800  0.33283400  1
  P  P1  1  0.74726700  0.03649200  0.66716600  1
  C  C0  1  0.74042400  0.50283500  0.13948000  1
  C  C1  1  0.24042400  0.49716500  0.86052000  1
  O  O0  1  0.73045600  0.32447000  0.03102600  1
  O  O1  1  0.76919800  0.74875600  0.09482600  1
  O  O2  1  0.06217100  0.08948500  0.23416900  1
  O  O3  1  0.44349500  0.00956600  0.22968000  1
  O  O4  1  0.72662200  0.43466000  0.29153100  1
  O  O5  1  0.20760700  0.66373400  0.36722600  1
  O  O6  1  0.27454800  0.10914800  0.49282900  1
  O  O7  1  0.77454800  0.89085200  0.50717100  1
  O  O8  1  0.70760700  0.33626600  0.63277400  1
  O  O9  1  0.22662200  0.56534000  0.70846900  1
  O  O10  1  0.94349500  0.99043400  0.77032000  1
  O  O11  1  0.56217100  0.91051500  0.76583100  1
  O  O12  1  0.26919800  0.25124400  0.90517400  1
  O  O13  1  0.23045600  0.67553000  0.96897400  1
loop_
_geom_bond_atom_site_label_1
_geom_bond_atom_site_label_2
_geom_bond_distance
_geom_bond_site_symmetry_2
Li0 O3 1.937250 1_555
Li0 O12 2.029422 1_554
Li0 O11 2.085114 1_544
Li0 O0 2.179128 1_555
Li0 O1 2.330002 1_545
Li0 O13 2.460911 1_544
Li1 O5 1.972324 1_555
Li1 O13 2.009964 1_554
Li1 O2 2.062080 1_555
Li1 O12 2.546729 1_554
Li2 O6 2.026769 1_555
Li2 O8 2.100587 1_555
Li2 O5 2.142005 1_555
Li2 O9 2.332201 1_555
Li2 O4 2.505075 1_555
Li3 O7 2.026769 1_555
Li3 O5 2.100587 1_655
Li3 O8 2.142005 1_555
Li3 O4 2.332201 1_555
Li3 O9 2.505075 1_655
Li4 O8 1.972324 1_555
Li4 O0 2.009964 1_556
Li4 O11 2.062080 1_555
Li4 O1 2.546729 1_556
Li5 O10 1.937250 1_555
Li5 O1 2.029422 1_556
Li5 O2 2.085114 1_666
Li5 O13 2.179128 1_655
Li5 O12 2.330002 1_665
Li5 O0 2.460911 1_566
Mg0 O7 1.983705 1_545
Mg0 O3 2.007674 1_555
Mg0 O2 2.075471 1_655
Mg0 O4 2.094793 1_555
Mg0 O1 2.120966 1_545
Mg0 O0 2.531419 1_555
Mg1 O6 1.983705 1_565
Mg1 O10 2.007674 1_455
Mg1 O11 2.075471 1_555
Mg1 O9 2.094793 1_555
Mg1 O12 2.120966 1_565
Mg1 O13 2.531419 1_555
C0 O1 1.300097 1_555
C0 O4 1.301096 1_555
C0 O0 1.302172 1_555
C1 O12 1.300097 1_555
C1 O9 1.301096 1_555
C1 O13 1.302172 1_555
O2 P0 1.566988 1_545
O3 P0 1.537724 1_545
O5 P0 1.556182 1_555
O6 P0 1.555370 1_545
O7 P1 1.555370 1_565
O8 P1 1.556182 1_555
O10 P1 1.537724 1_565
O11 P1 1.566988 1_565
