# generated using pymatgen
data_NaEuO2
_symmetry_space_group_name_H-M   'P 1'
_cell_length_a   5.92029428
_cell_length_b   5.92029428
_cell_length_c   5.92029403
_cell_angle_alpha   34.58169865
_cell_angle_beta   34.58169865
_cell_angle_gamma   34.58169882
_symmetry_Int_Tables_number   1
_chemical_formula_structural   NaEuO2
_chemical_formula_sum   'Na1 Eu1 O2'
_cell_volume   59.64443856
_cell_formula_units_Z   1
loop_
 _symmetry_equiv_pos_site_id
 _symmetry_equiv_pos_as_xyz
  1  'x, y, z'
loop_
 _atom_site_type_symbol
 _atom_site_label
 _atom_site_symmetry_multiplicity
 _atom_site_fract_x
 _atom_site_fract_y
 _atom_site_fract_z
 _atom_site_occupancy
  Na  Na0  1  0.00000000  0.00000000  0.00000000  1
  Eu  Eu0  1  0.50000000  0.50000000  0.50000000  1
  O  O0  1  0.75998700  0.75998700  0.75998700  1
  O  O1  1  0.24001300  0.24001300  0.24001300  1
loop_
_geom_bond_atom_site_label_1
_geom_bond_atom_site_label_2
_geom_bond_distance
_geom_bond_site_symmetry_2
Na0 O1 2.559693 1_554
Na0 O0 2.559693 1_445
Na0 O0 2.559693 1_454
Na0 O0 2.559693 1_544
Na0 O1 2.559693 1_545
Na0 O1 2.559693 1_455
Eu0 O0 2.371833 1_554
Eu0 O1 2.371833 1_556
Eu0 O1 2.371833 1_565
Eu0 O0 2.371833 1_545
Eu0 O0 2.371833 1_455
Eu0 O1 2.371833 1_655
