# generated using pymatgen
data_Li3MnF7
_symmetry_space_group_name_H-M   'P 1'
_cell_length_a   5.74375201
_cell_length_b   5.74375201
_cell_length_c   5.74375204
_cell_angle_alpha   64.35260740
_cell_angle_beta   64.35260740
_cell_angle_gamma   64.35261221
_symmetry_Int_Tables_number   1
_chemical_formula_structural   Li3MnF7
_chemical_formula_sum   'Li3 Mn1 F7'
_cell_volume   146.79650952
_cell_formula_units_Z   1
loop_
 _symmetry_equiv_pos_site_id
 _symmetry_equiv_pos_as_xyz
  1  'x, y, z'
loop_
 _atom_site_type_symbol
 _atom_site_label
 _atom_site_symmetry_multiplicity
 _atom_site_fract_x
 _atom_site_fract_y
 _atom_site_fract_z
 _atom_site_occupancy
  Li  Li0  1  0.62321600  0.10335500  0.62321600  1
  Li  Li1  1  0.10335500  0.62321600  0.62321600  1
  Li  Li2  1  0.62321600  0.62321600  0.10335500  1
  Mn  Mn0  1  0.00150400  0.00150400  0.00150400  1
  F  F0  1  0.78465500  0.20983800  0.78465500  1
  F  F1  1  0.20983800  0.78465500  0.78465500  1
  F  F2  1  0.78465500  0.78465500  0.20983800  1
  F  F3  1  0.74710600  0.74710600  0.74710600  1
  F  F4  1  0.22900900  0.78756500  0.22900900  1
  F  F5  1  0.22900900  0.22900900  0.78756500  1
  F  F6  1  0.78756500  0.22900900  0.22900900  1
loop_
_geom_bond_atom_site_label_1
_geom_bond_atom_site_label_2
_geom_bond_distance
_geom_bond_site_symmetry_2
F0 Mn0 1.815792 1_656
F0 Li0 1.954459 1_555
F1 Mn0 1.815792 1_566
F1 Li1 1.954459 1_555
F2 Mn0 1.815792 1_665
F2 Li2 1.954459 1_555
F3 Li2 1.765532 1_556
F3 Li0 1.765532 1_565
F3 Li1 1.765532 1_655
F4 Mn0 1.903471 1_565
F4 Li1 1.965605 1_555
F4 Li2 1.965605 1_555
F5 Mn0 1.903471 1_556
F5 Li1 1.965605 1_555
F5 Li0 1.965605 1_555
F6 Mn0 1.903471 1_655
F6 Li0 1.965605 1_555
F6 Li2 1.965605 1_555
