# generated using pymatgen
data_Ho2Be2SiO7
_symmetry_space_group_name_H-M   'P 1'
_cell_length_a   7.31347000
_cell_length_b   7.31347000
_cell_length_c   4.77784700
_cell_angle_alpha   90.00000000
_cell_angle_beta   90.00000000
_cell_angle_gamma   90.00000000
_symmetry_Int_Tables_number   1
_chemical_formula_structural   Ho2Be2SiO7
_chemical_formula_sum   'Ho4 Be4 Si2 O14'
_cell_volume   255.55195447
_cell_formula_units_Z   2
loop_
 _symmetry_equiv_pos_site_id
 _symmetry_equiv_pos_as_xyz
  1  'x, y, z'
loop_
 _atom_site_type_symbol
 _atom_site_label
 _atom_site_symmetry_multiplicity
 _atom_site_fract_x
 _atom_site_fract_y
 _atom_site_fract_z
 _atom_site_occupancy
  Ho  Ho0  1  0.84142100  0.65857900  0.49162800  1
  Ho  Ho1  1  0.34142100  0.84142100  0.50837200  1
  Ho  Ho2  1  0.65857900  0.15857900  0.50837200  1
  Ho  Ho3  1  0.15857900  0.34142100  0.49162800  1
  Be  Be0  1  0.13690500  0.63690500  0.95898100  1
  Be  Be1  1  0.63690500  0.86309500  0.04101900  1
  Be  Be2  1  0.86309500  0.36309500  0.95898100  1
  Be  Be3  1  0.36309500  0.13690500  0.04101900  1
  Si  Si0  1  0.50000000  0.50000000  0.00000000  1
  Si  Si1  1  0.00000000  0.00000000  0.00000000  1
  O  O0  1  0.85859600  0.35859600  0.29180700  1
  O  O1  1  0.35859600  0.14140400  0.70819300  1
  O  O2  1  0.14140400  0.64140400  0.29180700  1
  O  O3  1  0.64140400  0.85859600  0.70819300  1
  O  O4  1  0.50000000  0.00000000  0.18370200  1
  O  O5  1  0.00000000  0.50000000  0.81629800  1
  O  O6  1  0.08246400  0.83745300  0.79904200  1
  O  O7  1  0.16254700  0.08246400  0.20095800  1
  O  O8  1  0.83745300  0.91753600  0.20095800  1
  O  O9  1  0.91753600  0.16254700  0.79904200  1
  O  O10  1  0.58246400  0.66254700  0.20095800  1
  O  O11  1  0.41753600  0.33745300  0.20095800  1
  O  O12  1  0.33745300  0.58246400  0.79904200  1
  O  O13  1  0.66254700  0.41753600  0.79904200  1
loop_
_geom_bond_atom_site_label_1
_geom_bond_atom_site_label_2
_geom_bond_distance
_geom_bond_site_symmetry_2
Ho0 O5 2.257519 1_655
Ho0 O3 2.313073 1_555
Ho0 O8 2.348681 1_555
Ho0 O10 2.348681 1_555
Ho0 O2 2.395940 1_655
Ho0 O0 2.395940 1_555
Ho0 O6 2.641277 1_655
Ho0 O13 2.641277 1_555
Ho1 O4 2.257519 1_565
Ho1 O2 2.313073 1_555
Ho1 O12 2.348681 1_555
Ho1 O6 2.348681 1_555
Ho1 O3 2.395940 1_555
Ho1 O1 2.395940 1_565
Ho1 O10 2.641277 1_555
Ho1 O7 2.641277 1_565
Ho2 O4 2.257519 1_555
Ho2 O0 2.313073 1_555
Ho2 O13 2.348681 1_555
Ho2 O9 2.348681 1_555
Ho2 O1 2.395940 1_555
Ho2 O3 2.395940 1_545
Ho2 O11 2.641277 1_555
Ho2 O8 2.641277 1_545
Ho3 O5 2.257519 1_555
Ho3 O1 2.313073 1_555
Ho3 O11 2.348681 1_555
Ho3 O7 2.348681 1_555
Ho3 O2 2.395940 1_555
Ho3 O0 2.395940 1_455
Ho3 O12 2.641277 1_555
Ho3 O9 2.641277 1_455
Be0 O5 1.571542 1_555
Be0 O2 1.590872 1_556
Be0 O12 1.701084 1_555
Be0 O6 1.701084 1_555
Be1 O4 1.571542 1_565
Be1 O3 1.590872 1_554
Be1 O10 1.701084 1_555
Be1 O8 1.701084 1_555
Be2 O5 1.571542 1_655
Be2 O0 1.590872 1_556
Be2 O13 1.701084 1_555
Be2 O9 1.701084 1_555
Be3 O4 1.571542 1_555
Be3 O1 1.590872 1_554
Be3 O11 1.701084 1_555
Be3 O7 1.701084 1_555
O6 Si1 1.642806 1_566
O7 Si1 1.642806 1_555
O8 Si1 1.642806 1_665
O9 Si1 1.642806 1_656
O10 Si0 1.642806 1_555
O11 Si0 1.642806 1_555
O12 Si0 1.642806 1_556
O13 Si0 1.642806 1_556
