# generated using pymatgen
data_K2Mn3V2(HO5)2
_symmetry_space_group_name_H-M   'P 1'
_cell_length_a   6.09534879
_cell_length_b   8.13823906
_cell_length_c   10.68841674
_cell_angle_alpha   76.05143941
_cell_angle_beta   90.00246293
_cell_angle_gamma   111.99576094
_symmetry_Int_Tables_number   1
_chemical_formula_structural   K2Mn3V2(HO5)2
_chemical_formula_sum   'K4 Mn6 V4 H4 O20'
_cell_volume   474.70918720
_cell_formula_units_Z   2
loop_
 _symmetry_equiv_pos_site_id
 _symmetry_equiv_pos_as_xyz
  1  'x, y, z'
loop_
 _atom_site_type_symbol
 _atom_site_label
 _atom_site_symmetry_multiplicity
 _atom_site_fract_x
 _atom_site_fract_y
 _atom_site_fract_z
 _atom_site_occupancy
  K  K0  1  0.23567261  0.47144773  0.35176014  1
  K  K1  1  0.23705808  0.47396733  0.85202159  1
  K  K2  1  0.76477547  0.52855216  0.14827895  1
  K  K3  1  0.76331665  0.52607395  0.64799620  1
  Mn  Mn0  1  0.26137383  0.00006413  0.74995284  1
  Mn  Mn1  1  0.73536411  0.99997307  0.24997146  1
  Mn  Mn2  1  0.73842101  0.00000438  0.75003412  1
  Mn  Mn3  1  -0.00059779  0.00094307  0.99926262  1
  Mn  Mn4  1  0.99827995  0.99893665  0.50069345  1
  Mn  Mn5  1  0.26907603  0.00004833  0.25000502  1
  V  V0  1  0.37878708  0.75964929  0.04533477  1
  V  V1  1  0.61922618  0.24034319  0.45468551  1
  V  V2  1  0.37869876  0.75726082  0.54591731  1
  V  V3  1  0.62159920  0.24274928  0.95409912  1
  H  H0  1  0.85996110  0.71976870  0.37697839  1
  H  H1  1  0.85882157  0.71773234  0.87744460  1
  H  H2  1  0.14017809  0.28021093  0.12301229  1
  H  H3  1  0.14094994  0.28226832  0.62253071  1
  O  O0  1  0.92796192  0.85396007  0.35804631  1
  O  O1  1  0.92593960  0.85203594  0.85953656  1
  O  O2  1  0.07401945  0.14602003  0.14190880  1
  O  O3  1  0.07383053  0.14796202  0.64041016  1
  O  O4  1  0.41662666  0.83000703  0.37594158  1
  O  O5  1  0.41660820  0.83382579  0.87518759  1
  O  O6  1  0.58674183  0.16998984  0.12408438  1
  O  O7  1  0.58295027  0.16621246  0.62483551  1
  O  O8  1  0.73480619  0.47308442  0.40951977  1
  O  O9  1  0.73769648  0.47538991  0.90910682  1
  O  O10  1  0.26133626  0.52691020  0.09049408  1
  O  O11  1  0.26187055  0.52462414  0.59091826  1
  O  O12  1  0.65125763  0.83383579  0.11080899  1
  O  O13  1  0.65133537  0.83125455  0.61106114  1
  O  O14  1  0.18209086  0.83575861  0.11061381  1
  O  O15  1  0.18072223  0.83151817  0.61126561  1
  O  O16  1  0.34642234  0.16431414  0.38938081  1
  O  O17  1  0.34936053  0.16864983  0.88872131  1
  O  O18  1  0.81737212  0.16604585  0.38920979  1
  O  O19  1  0.82008609  0.16860652  0.88896763  1
loop_
_geom_bond_atom_site_label_1
_geom_bond_atom_site_label_2
_geom_bond_distance
_geom_bond_site_symmetry_2
K0 O11 2.688600 1_555
K0 O10 2.714011 1_555
K0 O18 2.758988 1_455
K0 O16 2.764849 1_555
K0 O4 2.784058 1_555
K0 O8 3.100147 1_555
K0 O8 3.120326 1_455
K1 O10 2.680682 1_556
K1 O11 2.716607 1_555
K1 O19 2.754464 1_455
K1 O17 2.756913 1_555
K1 O5 2.790077 1_555
K1 O9 3.108256 1_555
K1 O9 3.109179 1_455
K2 O9 2.688706 1_554
K2 O8 2.713746 1_555
K2 O12 2.760392 1_555
K2 O14 2.762985 1_655
K2 O6 2.784121 1_555
K2 O10 3.094683 1_655
K2 O10 3.125905 1_555
K3 O8 2.680857 1_555
K3 O9 2.716657 1_555
K3 O13 2.754510 1_555
K3 O15 2.756536 1_655
K3 O7 2.790080 1_555
K3 O11 3.104430 1_655
K3 O11 3.112997 1_555
Mn0 O3 2.116011 1_555
Mn0 O1 2.116226 1_445
Mn0 O7 2.145206 1_555
Mn0 O5 2.145484 1_545
Mn0 O15 2.189879 1_545
Mn0 O17 2.190827 1_555
Mn1 O0 2.123121 1_555
Mn1 O2 2.123278 1_665
Mn1 O6 2.141694 1_565
Mn1 O4 2.142434 1_555
Mn1 O12 2.180276 1_555
Mn1 O18 2.180585 1_565
Mn2 O1 2.116085 1_545
Mn2 O3 2.116249 1_655
Mn2 O7 2.146119 1_555
Mn2 O5 2.146399 1_545
Mn2 O19 2.192327 1_555
Mn2 O13 2.193521 1_545
Mn3 O1 2.089365 1_445
Mn3 O2 2.095465 1_556
Mn3 O19 2.188096 1_455
Mn3 O14 2.193980 1_546
Mn3 O12 2.197923 1_446
Mn3 O17 2.202478 1_555
Mn4 O3 2.089925 1_665
Mn4 O0 2.094940 1_555
Mn4 O13 2.188236 1_555
Mn4 O16 2.195193 1_665
Mn4 O18 2.197115 1_565
Mn4 O15 2.201894 1_655
Mn5 O2 2.134451 1_555
Mn5 O0 2.134656 1_445
Mn5 O4 2.137737 1_545
Mn5 O6 2.137813 1_555
Mn5 O16 2.171762 1_555
Mn5 O14 2.172036 1_545
H0 O0 0.979687 1_555
H0 K3 2.885513 1_555
H1 O1 0.981244 1_555
H1 K2 2.875617 1_556
H2 O2 0.979708 1_555
H2 K1 2.885374 1_554
H3 O3 0.981286 1_555
H3 K0 2.875016 1_555
O4 V2 1.756011 1_555
O5 V0 1.758239 1_556
O6 V3 1.756111 1_554
O7 V1 1.758251 1_555
O8 V1 1.696066 1_555
O9 V3 1.695302 1_555
O10 V0 1.696055 1_555
O11 V2 1.695276 1_555
O12 V0 1.750717 1_555
O13 V2 1.749712 1_555
O14 V0 1.752887 1_555
O15 V2 1.749034 1_555
O16 V1 1.752850 1_555
O17 V3 1.749001 1_555
O18 V1 1.750765 1_555
O19 V3 1.749815 1_555
