# generated using pymatgen
data_Na5CoHO4
_symmetry_space_group_name_H-M   'P 1'
_cell_length_a   9.94047200
_cell_length_b   10.11242600
_cell_length_c   11.99203000
_cell_angle_alpha   90.00000000
_cell_angle_beta   90.00000000
_cell_angle_gamma   90.00000000
_symmetry_Int_Tables_number   1
_chemical_formula_structural   Na5CoHO4
_chemical_formula_sum   'Na40 Co8 H8 O32'
_cell_volume   1205.46628743
_cell_formula_units_Z   8
loop_
 _symmetry_equiv_pos_site_id
 _symmetry_equiv_pos_as_xyz
  1  'x, y, z'
loop_
 _atom_site_type_symbol
 _atom_site_label
 _atom_site_symmetry_multiplicity
 _atom_site_fract_x
 _atom_site_fract_y
 _atom_site_fract_z
 _atom_site_occupancy
  Na  Na0  1  0.98093300  0.59017500  0.20955100  1
  Na  Na1  1  0.98093300  0.90982500  0.20955100  1
  Na  Na2  1  0.07319500  0.06705400  0.41365000  1
  Na  Na3  1  0.07319500  0.43294600  0.41365000  1
  Na  Na4  1  0.08086700  0.75000000  0.44607600  1
  Na  Na5  1  0.11735600  0.25000000  0.98370100  1
  Na  Na6  1  0.13128400  0.56679200  0.99043300  1
  Na  Na7  1  0.13128400  0.93320800  0.99043300  1
  Na  Na8  1  0.21831700  0.57972100  0.67816300  1
  Na  Na9  1  0.21831700  0.92027900  0.67816300  1
  Na  Na10  1  0.28168300  0.07972100  0.17816300  1
  Na  Na11  1  0.28168300  0.42027900  0.17816300  1
  Na  Na12  1  0.36871600  0.06679200  0.49043300  1
  Na  Na13  1  0.36871600  0.43320800  0.49043300  1
  Na  Na14  1  0.38264400  0.75000000  0.48370100  1
  Na  Na15  1  0.41913300  0.25000000  0.94607600  1
  Na  Na16  1  0.42680500  0.56705400  0.91365000  1
  Na  Na17  1  0.42680500  0.93294600  0.91365000  1
  Na  Na18  1  0.51906700  0.09017500  0.70955100  1
  Na  Na19  1  0.51906700  0.40982500  0.70955100  1
  Na  Na20  1  0.48093300  0.59017500  0.29044900  1
  Na  Na21  1  0.48093300  0.90982500  0.29044900  1
  Na  Na22  1  0.57319500  0.06705400  0.08635000  1
  Na  Na23  1  0.57319500  0.43294600  0.08635000  1
  Na  Na24  1  0.58086700  0.75000000  0.05392400  1
  Na  Na25  1  0.61735600  0.25000000  0.51629900  1
  Na  Na26  1  0.63128400  0.56679200  0.50956700  1
  Na  Na27  1  0.63128400  0.93320800  0.50956700  1
  Na  Na28  1  0.71831700  0.57972100  0.82183700  1
  Na  Na29  1  0.71831700  0.92027900  0.82183700  1
  Na  Na30  1  0.78168300  0.07972100  0.32183700  1
  Na  Na31  1  0.78168300  0.42027900  0.32183700  1
  Na  Na32  1  0.86871600  0.06679200  0.00956700  1
  Na  Na33  1  0.86871600  0.43320800  0.00956700  1
  Na  Na34  1  0.88264400  0.75000000  0.01629900  1
  Na  Na35  1  0.91913300  0.25000000  0.55392400  1
  Na  Na36  1  0.92680500  0.93294600  0.58635000  1
  Na  Na37  1  0.92680500  0.56705400  0.58635000  1
  Na  Na38  1  0.01906700  0.09017500  0.79044900  1
  Na  Na39  1  0.01906700  0.40982500  0.79044900  1
  Co  Co0  1  0.01251300  0.25000000  0.21064000  1
  Co  Co1  1  0.20858100  0.25000000  0.61893100  1
  Co  Co2  1  0.29141900  0.75000000  0.11893100  1
  Co  Co3  1  0.48748700  0.75000000  0.71064000  1
  Co  Co4  1  0.51251300  0.25000000  0.28936000  1
  Co  Co5  1  0.70858100  0.25000000  0.88106900  1
  Co  Co6  1  0.79141900  0.75000000  0.38106900  1
  Co  Co7  1  0.98748700  0.75000000  0.78936000  1
  H  H0  1  0.22694200  0.62466200  0.30992200  1
  H  H1  1  0.22694200  0.87533800  0.30992200  1
  H  H2  1  0.27305800  0.12466200  0.80992200  1
  H  H3  1  0.27305800  0.37533800  0.80992200  1
  H  H4  1  0.72694200  0.62466200  0.19007800  1
  H  H5  1  0.72694200  0.87533800  0.19007800  1
  H  H6  1  0.77305800  0.12466200  0.69007800  1
  H  H7  1  0.77305800  0.37533800  0.69007800  1
  O  O0  1  0.05895100  0.75000000  0.64912400  1
  O  O1  1  0.05970600  0.09919500  0.12483300  1
  O  O2  1  0.05970600  0.40080500  0.12483300  1
  O  O3  1  0.09567000  0.09936100  0.60681700  1
  O  O4  1  0.09567000  0.40063900  0.60681700  1
  O  O5  1  0.10809200  0.75000000  0.11867900  1
  O  O6  1  0.24676500  0.08042000  0.87845500  1
  O  O7  1  0.24676500  0.41958000  0.87845500  1
  O  O8  1  0.25323500  0.58042000  0.37845500  1
  O  O9  1  0.25323500  0.91958000  0.37845500  1
  O  O10  1  0.39190800  0.25000000  0.61867900  1
  O  O11  1  0.40433000  0.59936100  0.10681700  1
  O  O12  1  0.40433000  0.90063900  0.10681700  1
  O  O13  1  0.44029400  0.59919500  0.62483300  1
  O  O14  1  0.44029400  0.90080500  0.62483300  1
  O  O15  1  0.44104900  0.25000000  0.14912400  1
  O  O16  1  0.55895100  0.75000000  0.85087600  1
  O  O17  1  0.55970600  0.09919500  0.37516700  1
  O  O18  1  0.55970600  0.40080500  0.37516700  1
  O  O19  1  0.59567000  0.09936100  0.89318300  1
  O  O20  1  0.59567000  0.40063900  0.89318300  1
  O  O21  1  0.60809200  0.75000000  0.38132100  1
  O  O22  1  0.74676500  0.08042000  0.62154500  1
  O  O23  1  0.74676500  0.41958000  0.62154500  1
  O  O24  1  0.75323500  0.58042000  0.12154500  1
  O  O25  1  0.75323500  0.91958000  0.12154500  1
  O  O26  1  0.89190800  0.25000000  0.88132100  1
  O  O27  1  0.90433000  0.90063900  0.39318300  1
  O  O28  1  0.90433000  0.59936100  0.39318300  1
  O  O29  1  0.94029400  0.90080500  0.87516700  1
  O  O30  1  0.94029400  0.59919500  0.87516700  1
  O  O31  1  0.94104900  0.25000000  0.35087600  1
loop_
_geom_bond_atom_site_label_1
_geom_bond_atom_site_label_2
_geom_bond_distance
_geom_bond_site_symmetry_2
Na0 O2 2.304881 1_655
Na0 O5 2.323240 1_655
Na0 O28 2.331909 1_555
Na1 O1 2.304881 1_665
Na1 O5 2.323240 1_655
Na1 O27 2.331909 1_555
Na2 O3 2.350033 1_555
Na2 O9 2.367516 1_545
Na2 O27 2.389550 1_445
Na2 O31 2.390569 1_455
Na3 O4 2.350033 1_555
Na3 O8 2.367516 1_555
Na3 O28 2.389550 1_455
Na3 O31 2.390569 1_455
Na4 O27 2.408815 1_455
Na4 O28 2.408815 1_455
Na4 O0 2.444684 1_555
Na4 O8 2.556198 1_555
Na4 O9 2.556198 1_555
Na5 O1 2.349141 1_556
Na5 O2 2.349141 1_556
Na5 O7 2.487666 1_555
Na5 O6 2.487666 1_555
Na5 O26 2.555328 1_455
Na6 O7 2.310222 1_555
Na6 O30 2.371174 1_455
Na6 O5 2.418841 1_556
Na6 O2 2.433392 1_556
Na7 O6 2.310222 1_565
Na7 O29 2.371174 1_455
Na7 O5 2.418841 1_556
Na7 O1 2.433392 1_566
Na8 O13 2.305792 1_555
Na8 O4 2.344770 1_555
Na8 O0 2.365572 1_555
Na9 O14 2.305792 1_555
Na9 O3 2.344770 1_565
Na9 O0 2.365572 1_555
Na10 O1 2.305792 1_555
Na10 O12 2.344770 1_545
Na10 O15 2.365572 1_555
Na11 O2 2.305792 1_555
Na11 O11 2.344770 1_555
Na11 O15 2.365572 1_555
Na12 O9 2.310222 1_545
Na12 O17 2.371174 1_555
Na12 O10 2.418841 1_555
Na12 O14 2.433392 1_545
Na13 O8 2.310222 1_555
Na13 O18 2.371174 1_555
Na13 O10 2.418841 1_555
Na13 O13 2.433392 1_555
Na14 O13 2.349141 1_555
Na14 O14 2.349141 1_555
Na14 O9 2.487666 1_555
Na14 O8 2.487666 1_555
Na14 O21 2.555328 1_555
Na15 O20 2.408815 1_555
Na15 O19 2.408815 1_555
Na15 O15 2.444684 1_556
Na15 O6 2.556198 1_555
Na15 O7 2.556198 1_555
Na16 O11 2.350033 1_556
Na16 O7 2.367516 1_555
Na16 O20 2.389550 1_555
Na16 O16 2.390569 1_555
Na17 O12 2.350033 1_556
Na17 O6 2.367516 1_565
Na17 O19 2.389550 1_565
Na17 O16 2.390569 1_555
Na18 O14 2.304881 1_545
Na18 O10 2.323240 1_555
Na18 O19 2.331909 1_555
Na19 O13 2.304881 1_555
Na19 O10 2.323240 1_555
Na19 O20 2.331909 1_555
Na20 O18 2.304881 1_555
Na20 O21 2.323240 1_555
Na20 O11 2.331909 1_555
Na21 O17 2.304881 1_565
Na21 O21 2.323240 1_555
Na21 O12 2.331909 1_555
Na22 O19 2.350033 1_554
Na22 O25 2.367516 1_545
Na22 O12 2.389550 1_545
Na22 O15 2.390569 1_555
Na23 O20 2.350033 1_554
Na23 O24 2.367516 1_555
Na23 O11 2.389550 1_555
Na23 O15 2.390569 1_555
Na24 O11 2.408815 1_555
Na24 O12 2.408815 1_555
Na24 O16 2.444684 1_554
Na24 O24 2.556198 1_555
Na24 O25 2.556198 1_555
Na25 O17 2.349141 1_555
Na25 O18 2.349141 1_555
Na25 O22 2.487666 1_555
Na25 O23 2.487666 1_555
Na25 O10 2.555328 1_555
Na26 O23 2.310222 1_555
Na26 O13 2.371174 1_555
Na26 O21 2.418841 1_555
Na26 O18 2.433392 1_555
Na27 O22 2.310222 1_565
Na27 O14 2.371174 1_555
Na27 O21 2.418841 1_555
Na27 O17 2.433392 1_565
Na28 O30 2.305792 1_555
Na28 O20 2.344770 1_555
Na28 O16 2.365572 1_555
Na29 O29 2.305792 1_555
Na29 O19 2.344770 1_565
Na29 O16 2.365572 1_555
Na30 O17 2.305792 1_555
Na30 O27 2.344770 1_545
Na30 O31 2.365572 1_555
Na31 O18 2.305792 1_555
Na31 O28 2.344770 1_555
Na31 O31 2.365572 1_555
Na32 O25 2.310222 1_545
Na32 O1 2.371174 1_655
Na32 O26 2.418841 1_554
Na32 O29 2.433392 1_544
Na33 O24 2.310222 1_555
Na33 O2 2.371174 1_655
Na33 O26 2.418841 1_554
Na33 O30 2.433392 1_554
Na34 O29 2.349141 1_554
Na34 O30 2.349141 1_554
Na34 O24 2.487666 1_555
Na34 O25 2.487666 1_555
Na34 O5 2.555328 1_655
Na35 O3 2.408815 1_655
Na35 O4 2.408815 1_655
Na35 O31 2.444684 1_555
Na35 O23 2.556198 1_555
Na35 O22 2.556198 1_555
Na36 O27 2.350033 1_555
Na36 O22 2.367516 1_565
Na36 O3 2.389550 1_665
Na36 O0 2.390569 1_655
Na37 O28 2.350033 1_555
Na37 O23 2.367516 1_555
Na37 O4 2.389550 1_655
Na37 O0 2.390569 1_655
Na38 O29 2.304881 1_445
Na38 O26 2.323240 1_455
Na38 O3 2.331909 1_555
Na39 O30 2.304881 1_455
Na39 O26 2.323240 1_455
Na39 O4 2.331909 1_555
Co0 O31 1.825599 1_455
Co0 O1 1.898566 1_555
Co0 O2 1.898566 1_555
Co1 O10 1.822359 1_555
Co1 O3 1.897731 1_555
Co1 O4 1.897731 1_555
Co2 O5 1.822359 1_555
Co2 O12 1.897731 1_555
Co2 O11 1.897731 1_555
Co3 O16 1.825599 1_555
Co3 O13 1.898566 1_555
Co3 O14 1.898566 1_555
Co4 O15 1.825599 1_555
Co4 O17 1.898566 1_555
Co4 O18 1.898566 1_555
Co5 O26 1.822359 1_555
Co5 O19 1.897731 1_555
Co5 O20 1.897731 1_555
Co6 O21 1.822359 1_555
Co6 O27 1.897731 1_555
Co6 O28 1.897731 1_555
Co7 O0 1.825599 1_655
Co7 O29 1.898566 1_555
Co7 O30 1.898566 1_555
H0 O8 0.971550 1_555
H0 Na4 2.526036 1_555
H1 O9 0.971550 1_555
H1 Na4 2.526036 1_555
H2 O6 0.971550 1_555
H2 Na15 2.526036 1_555
H3 O7 0.971550 1_555
H3 Na15 2.526036 1_555
H4 O24 0.971550 1_555
H4 Na24 2.526036 1_555
H5 O25 0.971550 1_555
H5 Na24 2.526036 1_555
H6 O22 0.971550 1_555
H6 Na35 2.526036 1_555
H7 O23 0.971550 1_555
H7 Na35 2.526036 1_555
