# generated using pymatgen
data_CoH16C4(NO)7
_symmetry_space_group_name_H-M   'P 1'
_cell_length_a   9.75639600
_cell_length_b   9.26487400
_cell_length_c   14.04321515
_cell_angle_alpha   74.30192527
_cell_angle_beta   90.00000000
_cell_angle_gamma   90.00000000
_symmetry_Int_Tables_number   1
_chemical_formula_structural   CoH16C4(NO)7
_chemical_formula_sum   'Co4 H64 C16 N28 O28'
_cell_volume   1222.04398146
_cell_formula_units_Z   4
loop_
 _symmetry_equiv_pos_site_id
 _symmetry_equiv_pos_as_xyz
  1  'x, y, z'
loop_
 _atom_site_type_symbol
 _atom_site_label
 _atom_site_symmetry_multiplicity
 _atom_site_fract_x
 _atom_site_fract_y
 _atom_site_fract_z
 _atom_site_occupancy
  Co  Co0  1  0.24028800  0.25439300  0.37019100  1
  Co  Co1  1  0.74028800  0.74560700  0.12980900  1
  Co  Co2  1  0.75971200  0.74560700  0.62980900  1
  Co  Co3  1  0.25971200  0.25439300  0.87019100  1
  H  H0  1  0.40967600  0.33527700  0.47519400  1
  H  H1  1  0.90967600  0.66472300  0.02480600  1
  H  H2  1  0.59032400  0.66472300  0.52480600  1
  H  H3  1  0.09032400  0.33527700  0.97519400  1
  H  H4  1  0.46368300  0.39375000  0.36015600  1
  H  H5  1  0.96368300  0.60625000  0.13984400  1
  H  H6  1  0.53631700  0.60625000  0.63984400  1
  H  H7  1  0.03631700  0.39375000  0.86015600  1
  H  H8  1  0.37456400  0.59927100  0.43977100  1
  H  H9  1  0.87456400  0.40072900  0.06022900  1
  H  H10  1  0.62543600  0.40072900  0.56022900  1
  H  H11  1  0.12543600  0.59927100  0.93977100  1
  H  H12  1  0.32076400  0.60165200  0.31772300  1
  H  H13  1  0.82076400  0.39834800  0.18227700  1
  H  H14  1  0.67923600  0.39834800  0.68227700  1
  H  H15  1  0.17923600  0.60165200  0.81772300  1
  H  H16  1  0.16641000  0.45898700  0.51111100  1
  H  H17  1  0.66641000  0.54101300  0.98888900  1
  H  H18  1  0.83359000  0.54101300  0.48888900  1
  H  H19  1  0.33359000  0.45898700  0.01111100  1
  H  H20  1  0.11282700  0.61841100  0.41531500  1
  H  H21  1  0.61282700  0.38158900  0.08468500  1
  H  H22  1  0.88717300  0.38158900  0.58468500  1
  H  H23  1  0.38717300  0.61841100  0.91531500  1
  H  H24  1  0.01897600  0.36023500  0.41409200  1
  H  H25  1  0.51897600  0.63976500  0.08590800  1
  H  H26  1  0.98102400  0.63976500  0.58590800  1
  H  H27  1  0.48102400  0.36023500  0.91409200  1
  H  H28  1  0.07865400  0.46835100  0.30933600  1
  H  H29  1  0.57865400  0.53164900  0.19066400  1
  H  H30  1  0.92134600  0.53164900  0.69066400  1
  H  H31  1  0.42134600  0.46835100  0.80933600  1
  H  H32  1  0.40215100  0.04428700  0.43288000  1
  H  H33  1  0.90215100  0.95571300  0.06712000  1
  H  H34  1  0.59784900  0.95571300  0.56712000  1
  H  H35  1  0.09784900  0.04428700  0.93288000  1
  H  H36  1  0.46441300  0.15471800  0.32870100  1
  H  H37  1  0.96441300  0.84528200  0.17129900  1
  H  H38  1  0.53558700  0.84528200  0.67129900  1
  H  H39  1  0.03558700  0.15471800  0.82870100  1
  H  H40  1  0.37305600  0.89224200  0.32631600  1
  H  H41  1  0.87305600  0.10775800  0.17368400  1
  H  H42  1  0.62694400  0.10775800  0.67368400  1
  H  H43  1  0.12694400  0.89224200  0.82631600  1
  H  H44  1  0.32401900  0.05050600  0.22871300  1
  H  H45  1  0.82401900  0.94949400  0.27128700  1
  H  H46  1  0.67598100  0.94949400  0.77128700  1
  H  H47  1  0.17598100  0.05050600  0.72871300  1
  H  H48  1  0.16286200  0.90460600  0.41840400  1
  H  H49  1  0.66286200  0.09539400  0.08159600  1
  H  H50  1  0.83713800  0.09539400  0.58159600  1
  H  H51  1  0.33713800  0.90460600  0.91840400  1
  H  H52  1  0.11277300  0.91175500  0.29550400  1
  H  H53  1  0.61277300  0.08824500  0.20449600  1
  H  H54  1  0.88722700  0.08824500  0.70449600  1
  H  H55  1  0.38722700  0.91175500  0.79550400  1
  H  H56  1  0.02006500  0.10482900  0.38221000  1
  H  H57  1  0.52006500  0.89517100  0.11779000  1
  H  H58  1  0.97993500  0.89517100  0.61779000  1
  H  H59  1  0.47993500  0.10482900  0.88221000  1
  H  H60  1  0.07007800  0.17191200  0.26604800  1
  H  H61  1  0.57007800  0.82808800  0.23395200  1
  H  H62  1  0.92992200  0.82808800  0.73395200  1
  H  H63  1  0.42992200  0.17191200  0.76604800  1
  C  C0  1  0.31761300  0.53736800  0.39593600  1
  C  C1  1  0.81761300  0.46263200  0.10406400  1
  C  C2  1  0.68238700  0.46263200  0.60406400  1
  C  C3  1  0.18238700  0.53736800  0.89593600  1
  C  C4  1  0.17007500  0.51240300  0.43115300  1
  C  C5  1  0.67007500  0.48759700  0.06884700  1
  C  C6  1  0.82992500  0.48759700  0.56884700  1
  C  C7  1  0.32992500  0.51240300  0.93115300  1
  C  C8  1  0.31649800  0.99876000  0.30871800  1
  C  C9  1  0.81649800  0.00124000  0.19128200  1
  C  C10  1  0.68350200  0.00124000  0.69128200  1
  C  C11  1  0.18350200  0.99876000  0.80871800  1
  C  C12  1  0.16805400  0.97185200  0.34118000  1
  C  C13  1  0.66805400  0.02814800  0.15882000  1
  C  C14  1  0.83194600  0.02814800  0.65882000  1
  C  C15  1  0.33194600  0.97185200  0.84118000  1
  N  N0  1  0.26108000  0.35087900  0.22955100  1
  N  N1  1  0.76108000  0.64912100  0.27044900  1
  N  N2  1  0.73892000  0.64912100  0.77044900  1
  N  N3  1  0.23892000  0.35087900  0.72955100  1
  N  N4  1  0.21661400  0.15625900  0.50993800  1
  N  N5  1  0.71661400  0.84374100  0.99006200  1
  N  N6  1  0.78338600  0.84374100  0.49006200  1
  N  N7  1  0.28338600  0.15625900  0.00993800  1
  N  N8  1  0.37872700  0.38743600  0.40429700  1
  N  N9  1  0.87872700  0.61256400  0.09570300  1
  N  N10  1  0.62127300  0.61256400  0.59570300  1
  N  N11  1  0.12127300  0.38743600  0.90429700  1
  N  N12  1  0.10667800  0.40894800  0.37936000  1
  N  N13  1  0.60667800  0.59105200  0.12064000  1
  N  N14  1  0.89332200  0.59105200  0.62064000  1
  N  N15  1  0.39332200  0.40894800  0.87936000  1
  N  N16  1  0.37650800  0.10204700  0.36187600  1
  N  N17  1  0.87650800  0.89795300  0.13812400  1
  N  N18  1  0.62349200  0.89795300  0.63812400  1
  N  N19  1  0.12349200  0.10204700  0.86187600  1
  N  N20  1  0.10363300  0.11926100  0.33610200  1
  N  N21  1  0.60363300  0.88073900  0.16389800  1
  N  N22  1  0.89636700  0.88073900  0.66389800  1
  N  N23  1  0.39636700  0.11926100  0.83610200  1
  N  N24  1  0.20797200  0.75582800  0.11558000  1
  N  N25  1  0.70797200  0.24417200  0.38442000  1
  N  N26  1  0.79202800  0.24417200  0.88442000  1
  N  N27  1  0.29202800  0.75582800  0.61558000  1
  O  O0  1  0.37764400  0.37630900  0.19220400  1
  O  O1  1  0.87764400  0.62369100  0.30779600  1
  O  O2  1  0.62235600  0.62369100  0.80779600  1
  O  O3  1  0.12235600  0.37630900  0.69220400  1
  O  O4  1  0.15562100  0.38438600  0.17687300  1
  O  O5  1  0.65562100  0.61561400  0.32312700  1
  O  O6  1  0.84437900  0.61561400  0.82312700  1
  O  O7  1  0.34437900  0.38438600  0.67687300  1
  O  O8  1  0.09854300  0.12962300  0.54455600  1
  O  O9  1  0.59854300  0.87037700  0.95544400  1
  O  O10  1  0.90145700  0.87037700  0.45544400  1
  O  O11  1  0.40145700  0.12962300  0.04455600  1
  O  O12  1  0.32014100  0.12068200  0.56403400  1
  O  O13  1  0.82014100  0.87931800  0.93596600  1
  O  O14  1  0.67985900  0.87931800  0.43596600  1
  O  O15  1  0.17985900  0.12068200  0.06403400  1
  O  O16  1  0.33726400  0.75113100  0.12001700  1
  O  O17  1  0.83726400  0.24886900  0.37998300  1
  O  O18  1  0.66273600  0.24886900  0.87998300  1
  O  O19  1  0.16273600  0.75113100  0.62001700  1
  O  O20  1  0.14641600  0.79099000  0.03312700  1
  O  O21  1  0.64641600  0.20901000  0.46687300  1
  O  O22  1  0.85358400  0.20901000  0.96687300  1
  O  O23  1  0.35358400  0.79099000  0.53312700  1
  O  O24  1  0.13766800  0.72408000  0.19553400  1
  O  O25  1  0.63766800  0.27592000  0.30446600  1
  O  O26  1  0.86233200  0.27592000  0.80446600  1
  O  O27  1  0.36233200  0.72408000  0.69553400  1
loop_
_geom_bond_atom_site_label_1
_geom_bond_atom_site_label_2
_geom_bond_distance
_geom_bond_site_symmetry_2
Co0 N4 1.940576 1_555
Co0 N0 1.945671 1_555
Co0 N16 1.965031 1_555
Co0 N12 1.966223 1_555
Co0 N8 1.972952 1_555
Co0 N20 1.974472 1_555
Co1 N5 1.940576 1_554
Co1 N1 1.945671 1_555
Co1 N17 1.965031 1_555
Co1 N13 1.966223 1_555
Co1 N9 1.972952 1_555
Co1 N21 1.974472 1_555
Co2 N6 1.940576 1_555
Co2 N2 1.945671 1_555
Co2 N18 1.965031 1_555
Co2 N14 1.966223 1_555
Co2 N10 1.972952 1_555
Co2 N22 1.974472 1_555
Co3 N7 1.940576 1_556
Co3 N3 1.945671 1_555
Co3 N19 1.965031 1_555
Co3 N15 1.966223 1_555
Co3 N11 1.972952 1_555
Co3 N23 1.974472 1_555
H0 N8 1.027427 1_555
H1 N9 1.027427 1_555
H2 N10 1.027427 1_555
H3 N11 1.027427 1_555
H4 N8 1.027165 1_555
H5 N9 1.027165 1_555
H6 N10 1.027165 1_555
H7 N11 1.027165 1_555
H24 N12 1.026944 1_555
H25 N13 1.026944 1_555
H26 N14 1.026944 1_555
H27 N15 1.026944 1_555
H28 N12 1.025567 1_555
H29 N13 1.025567 1_555
H30 N14 1.025567 1_555
H31 N15 1.025567 1_555
H32 N16 1.026875 1_555
H33 N17 1.026875 1_555
H34 N18 1.026875 1_555
H35 N19 1.026875 1_555
H36 N16 1.033294 1_555
H37 N17 1.033294 1_555
H38 N18 1.033294 1_555
H39 N19 1.033294 1_555
H56 N20 1.027152 1_555
H57 N21 1.027152 1_555
H58 N22 1.027152 1_555
H59 N23 1.027152 1_555
H60 N20 1.026289 1_555
H61 N21 1.026289 1_555
H62 N22 1.026289 1_555
H63 N23 1.026289 1_555
C0 H8 1.098933 1_555
C0 H12 1.099123 1_555
C0 N8 1.486824 1_555
C1 H9 1.098933 1_555
C1 H13 1.099123 1_555
C1 N9 1.486824 1_555
C2 H10 1.098933 1_555
C2 H14 1.099123 1_555
C2 N10 1.486824 1_555
C3 H11 1.098933 1_555
C3 H15 1.099123 1_555
C3 N11 1.486824 1_555
C4 H16 1.098326 1_555
C4 H20 1.099018 1_555
C4 N12 1.485790 1_555
C5 H17 1.098326 1_554
C5 H21 1.099018 1_555
C5 N13 1.485790 1_555
C6 H18 1.098326 1_555
C6 H22 1.099018 1_555
C6 N14 1.485790 1_555
C7 H19 1.098326 1_556
C7 H23 1.099018 1_555
C7 N15 1.485790 1_555
C8 H44 1.098209 1_565
C8 H40 1.098866 1_555
C8 N16 1.484038 1_565
C9 H45 1.098209 1_545
C9 H41 1.098866 1_555
C9 N17 1.484038 1_545
C10 H46 1.098209 1_545
C10 H42 1.098866 1_555
C10 N18 1.484038 1_545
C11 H47 1.098209 1_565
C11 H43 1.098866 1_555
C11 N19 1.484038 1_565
C12 H48 1.095987 1_555
C12 H52 1.098005 1_555
C12 N20 1.487489 1_565
C13 H49 1.095987 1_555
C13 H53 1.098005 1_555
C13 N21 1.487489 1_545
C14 H50 1.095987 1_555
C14 H54 1.098005 1_555
C14 N22 1.487489 1_545
C15 H51 1.095987 1_555
C15 H55 1.098005 1_555
C15 N23 1.487489 1_565
N0 O0 1.247814 1_555
N0 O4 1.256181 1_555
N1 O1 1.247814 1_555
N1 O5 1.256181 1_555
N2 O2 1.247814 1_555
N2 O6 1.256181 1_555
N3 O3 1.247814 1_555
N3 O7 1.256181 1_555
N4 O8 1.248720 1_555
N4 O12 1.253181 1_555
N5 O9 1.248720 1_555
N5 O13 1.253181 1_555
N6 O10 1.248720 1_555
N6 O14 1.253181 1_555
N7 O11 1.248720 1_555
N7 O15 1.253181 1_555
N24 O16 1.263131 1_555
N24 O20 1.266265 1_555
N24 O24 1.280228 1_555
N25 O17 1.263131 1_555
N25 O21 1.266265 1_555
N25 O25 1.280228 1_555
N26 O18 1.263131 1_555
N26 O22 1.266265 1_555
N26 O26 1.280228 1_555
N27 O19 1.263131 1_555
N27 O23 1.266265 1_555
N27 O27 1.280228 1_555
