# generated using pymatgen
data_Na2MoO6
_symmetry_space_group_name_H-M   'P 1'
_cell_length_a   9.42148100
_cell_length_b   10.26281400
_cell_length_c   11.74753400
_cell_angle_alpha   90.00000000
_cell_angle_beta   90.00000000
_cell_angle_gamma   90.00000000
_symmetry_Int_Tables_number   1
_chemical_formula_structural   Na2MoO6
_chemical_formula_sum   'Na16 Mo8 O48'
_cell_volume   1135.87971874
_cell_formula_units_Z   8
loop_
 _symmetry_equiv_pos_site_id
 _symmetry_equiv_pos_as_xyz
  1  'x, y, z'
loop_
 _atom_site_type_symbol
 _atom_site_label
 _atom_site_symmetry_multiplicity
 _atom_site_fract_x
 _atom_site_fract_y
 _atom_site_fract_z
 _atom_site_occupancy
  Na  Na0  1  0.43912200  0.99957200  0.26412000  1
  Na  Na1  1  0.93912200  0.50042800  0.73588000  1
  Na  Na2  1  0.56087800  0.49957200  0.23588000  1
  Na  Na3  1  0.06087800  0.00042800  0.76412000  1
  Na  Na4  1  0.56087800  0.00042800  0.73588000  1
  Na  Na5  1  0.06087800  0.49957200  0.26412000  1
  Na  Na6  1  0.43912200  0.50042800  0.76412000  1
  Na  Na7  1  0.93912200  0.99957200  0.23588000  1
  Na  Na8  1  0.97749000  0.76009600  0.54176000  1
  Na  Na9  1  0.47749000  0.73990400  0.45824000  1
  Na  Na10  1  0.02251000  0.26009600  0.95824000  1
  Na  Na11  1  0.52251000  0.23990400  0.04176000  1
  Na  Na12  1  0.02251000  0.23990400  0.45824000  1
  Na  Na13  1  0.52251000  0.26009600  0.54176000  1
  Na  Na14  1  0.97749000  0.73990400  0.04176000  1
  Na  Na15  1  0.47749000  0.76009600  0.95824000  1
  Mo  Mo0  1  0.74868800  0.03863100  0.48716700  1
  Mo  Mo1  1  0.24868800  0.46136900  0.51283300  1
  Mo  Mo2  1  0.25131200  0.53863100  0.01283300  1
  Mo  Mo3  1  0.75131200  0.96136900  0.98716700  1
  Mo  Mo4  1  0.25131200  0.96136900  0.51283300  1
  Mo  Mo5  1  0.75131200  0.53863100  0.48716700  1
  Mo  Mo6  1  0.74868800  0.46136900  0.98716700  1
  Mo  Mo7  1  0.24868800  0.03863100  0.01283300  1
  O  O0  1  0.69679600  0.04623700  0.33919200  1
  O  O1  1  0.19679600  0.45376300  0.66080800  1
  O  O2  1  0.30320400  0.54623700  0.16080800  1
  O  O3  1  0.80320400  0.95376300  0.83919200  1
  O  O4  1  0.30320400  0.95376300  0.66080800  1
  O  O5  1  0.80320400  0.54623700  0.33919200  1
  O  O6  1  0.69679600  0.45376300  0.83919200  1
  O  O7  1  0.19679600  0.04623700  0.16080800  1
  O  O8  1  0.54206500  0.03989800  0.53713200  1
  O  O9  1  0.04206500  0.46010200  0.46286800  1
  O  O10  1  0.45793500  0.53989800  0.96286800  1
  O  O11  1  0.95793500  0.96010200  0.03713200  1
  O  O12  1  0.45793500  0.96010200  0.46286800  1
  O  O13  1  0.95793500  0.53989800  0.53713200  1
  O  O14  1  0.54206500  0.46010200  0.03713200  1
  O  O15  1  0.04206500  0.03989800  0.96286800  1
  O  O16  1  0.75784800  0.11198700  0.62662200  1
  O  O17  1  0.25784800  0.38801300  0.37337800  1
  O  O18  1  0.24215200  0.61198700  0.87337800  1
  O  O19  1  0.74215200  0.88801300  0.12662200  1
  O  O20  1  0.24215200  0.88801300  0.37337800  1
  O  O21  1  0.74215200  0.61198700  0.62662200  1
  O  O22  1  0.75784800  0.38801300  0.12662200  1
  O  O23  1  0.25784800  0.11198700  0.87337800  1
  O  O24  1  0.96040500  0.02118100  0.44909200  1
  O  O25  1  0.46040500  0.47881900  0.55090800  1
  O  O26  1  0.03959500  0.52118100  0.05090800  1
  O  O27  1  0.53959500  0.97881900  0.94909200  1
  O  O28  1  0.03959500  0.97881900  0.55090800  1
  O  O29  1  0.53959500  0.52118100  0.44909200  1
  O  O30  1  0.96040500  0.47881900  0.94909200  1
  O  O31  1  0.46040500  0.02118100  0.05090800  1
  O  O32  1  0.75221600  0.24852800  0.43621500  1
  O  O33  1  0.25221600  0.25147200  0.56378500  1
  O  O34  1  0.24778400  0.74852800  0.06378500  1
  O  O35  1  0.74778400  0.75147200  0.93621500  1
  O  O36  1  0.24778400  0.75147200  0.56378500  1
  O  O37  1  0.74778400  0.74852800  0.43621500  1
  O  O38  1  0.75221600  0.25147200  0.93621500  1
  O  O39  1  0.25221600  0.24852800  0.06378500  1
  O  O40  1  0.74125600  0.85040700  0.52405000  1
  O  O41  1  0.24125600  0.64959300  0.47595000  1
  O  O42  1  0.25874400  0.35040700  0.97595000  1
  O  O43  1  0.75874400  0.14959300  0.02405000  1
  O  O44  1  0.25874400  0.14959300  0.47595000  1
  O  O45  1  0.75874400  0.35040700  0.52405000  1
  O  O46  1  0.74125600  0.64959300  0.02405000  1
  O  O47  1  0.24125600  0.85040700  0.97595000  1
loop_
_geom_bond_atom_site_label_1
_geom_bond_atom_site_label_2
_geom_bond_distance
_geom_bond_site_symmetry_2
Na0 O12 2.376297 1_555
Na0 O31 2.522496 1_565
Na0 O20 2.530222 1_555
Na0 O0 2.626920 1_565
Na0 O7 2.629589 1_565
Na1 O13 2.376297 1_555
Na1 O30 2.522496 1_555
Na1 O21 2.530222 1_555
Na1 O1 2.626920 1_655
Na1 O6 2.629589 1_555
Na2 O14 2.376297 1_555
Na2 O29 2.522496 1_555
Na2 O22 2.530222 1_555
Na2 O2 2.626920 1_555
Na2 O5 2.629589 1_555
Na3 O15 2.376297 1_555
Na3 O28 2.522496 1_545
Na3 O23 2.530222 1_555
Na3 O3 2.626920 1_445
Na3 O4 2.629589 1_545
Na4 O8 2.376297 1_555
Na4 O27 2.522496 1_545
Na4 O16 2.530222 1_555
Na4 O4 2.626920 1_545
Na4 O3 2.629589 1_545
Na5 O9 2.376297 1_555
Na5 O26 2.522496 1_555
Na5 O17 2.530222 1_555
Na5 O5 2.626920 1_455
Na5 O2 2.629589 1_555
Na6 O10 2.376297 1_555
Na6 O25 2.522496 1_555
Na6 O18 2.530222 1_555
Na6 O6 2.626920 1_555
Na6 O1 2.629589 1_555
Na7 O11 2.376297 1_555
Na7 O24 2.522496 1_565
Na7 O19 2.530222 1_555
Na7 O7 2.626920 1_665
Na7 O0 2.629589 1_565
Na8 O13 2.268000 1_555
Na8 O28 2.322209 1_655
Na8 O40 2.419907 1_555
Na8 O37 2.497011 1_555
Na8 O36 2.561210 1_655
Na8 O41 2.838902 1_655
Na9 O12 2.268000 1_555
Na9 O29 2.322209 1_555
Na9 O41 2.419907 1_555
Na9 O36 2.497011 1_555
Na9 O37 2.561210 1_555
Na9 O40 2.838902 1_555
Na10 O15 2.268000 1_555
Na10 O30 2.322209 1_455
Na10 O42 2.419907 1_555
Na10 O39 2.497011 1_556
Na10 O38 2.561210 1_455
Na10 O43 2.838902 1_456
Na11 O14 2.268000 1_555
Na11 O31 2.322209 1_555
Na11 O43 2.419907 1_555
Na11 O38 2.497011 1_554
Na11 O39 2.561210 1_555
Na11 O42 2.838902 1_554
Na12 O9 2.268000 1_555
Na12 O24 2.322209 1_455
Na12 O44 2.419907 1_555
Na12 O33 2.497011 1_555
Na12 O32 2.561210 1_455
Na12 O45 2.838902 1_455
Na13 O8 2.268000 1_555
Na13 O25 2.322209 1_555
Na13 O45 2.419907 1_555
Na13 O32 2.497011 1_555
Na13 O33 2.561210 1_555
Na13 O44 2.838902 1_555
Na14 O11 2.268000 1_555
Na14 O26 2.322209 1_655
Na14 O46 2.419907 1_555
Na14 O35 2.497011 1_554
Na14 O34 2.561210 1_655
Na14 O47 2.838902 1_654
Na15 O10 2.268000 1_555
Na15 O27 2.322209 1_555
Na15 O47 2.419907 1_555
Na15 O34 2.497011 1_556
Na15 O35 2.561210 1_555
Na15 O46 2.838902 1_556
Mo0 O16 1.805017 1_555
Mo0 O0 1.807470 1_555
Mo0 O40 1.980943 1_545
Mo0 O8 2.033302 1_555
Mo0 O24 2.052052 1_555
Mo0 O32 2.235995 1_555
Mo1 O17 1.805017 1_555
Mo1 O1 1.807470 1_555
Mo1 O41 1.980943 1_555
Mo1 O9 2.033302 1_555
Mo1 O25 2.052052 1_555
Mo1 O33 2.235995 1_555
Mo2 O18 1.805017 1_554
Mo2 O2 1.807470 1_555
Mo2 O42 1.980943 1_554
Mo2 O10 2.033302 1_554
Mo2 O26 2.052052 1_555
Mo2 O34 2.235995 1_555
Mo3 O19 1.805017 1_556
Mo3 O3 1.807470 1_555
Mo3 O43 1.980943 1_566
Mo3 O11 2.033302 1_556
Mo3 O27 2.052052 1_555
Mo3 O35 2.235995 1_555
Mo4 O20 1.805017 1_555
Mo4 O4 1.807470 1_555
Mo4 O44 1.980943 1_565
Mo4 O12 2.033302 1_555
Mo4 O28 2.052052 1_555
Mo4 O36 2.235995 1_555
Mo5 O21 1.805017 1_555
Mo5 O5 1.807470 1_555
Mo5 O45 1.980943 1_555
Mo5 O13 2.033302 1_555
Mo5 O29 2.052052 1_555
Mo5 O37 2.235995 1_555
Mo6 O22 1.805017 1_556
Mo6 O6 1.807470 1_555
Mo6 O46 1.980943 1_556
Mo6 O14 2.033302 1_556
Mo6 O30 2.052052 1_555
Mo6 O38 2.235995 1_555
Mo7 O23 1.805017 1_554
Mo7 O7 1.807470 1_555
Mo7 O47 1.980943 1_544
Mo7 O15 2.033302 1_554
Mo7 O31 2.052052 1_555
Mo7 O39 2.235995 1_555
O10 O14 1.435279 1_556
O11 O15 1.435279 1_664
O12 O8 1.435279 1_565
O13 O9 1.435279 1_655
O24 O28 1.475222 1_645
O25 O29 1.475222 1_555
O26 O30 1.475222 1_454
O27 O31 1.475222 1_566
O32 O45 1.470270 1_555
O33 O44 1.470270 1_555
O34 O47 1.470270 1_554
O35 O46 1.470270 1_556
O36 O41 1.470270 1_555
O37 O40 1.470270 1_555
O38 O43 1.470270 1_556
O39 O42 1.470270 1_554
