# generated using pymatgen
data_Na5Ni2P2(CO7)2
_symmetry_space_group_name_H-M   'P 1'
_cell_length_a   8.88201677
_cell_length_b   5.25091669
_cell_length_c   13.22588554
_cell_angle_alpha   90.02679389
_cell_angle_beta   90.13313791
_cell_angle_gamma   88.07818339
_symmetry_Int_Tables_number   1
_chemical_formula_structural   Na5Ni2P2(CO7)2
_chemical_formula_sum   'Na10 Ni4 P4 C4 O28'
_cell_volume   616.48983504
_cell_formula_units_Z   2
loop_
 _symmetry_equiv_pos_site_id
 _symmetry_equiv_pos_as_xyz
  1  'x, y, z'
loop_
 _atom_site_type_symbol
 _atom_site_label
 _atom_site_symmetry_multiplicity
 _atom_site_fract_x
 _atom_site_fract_y
 _atom_site_fract_z
 _atom_site_occupancy
  Na  Na0  1  0.07942700  0.77207800  0.12926500  1
  Na  Na1  1  0.27433100  0.25788500  0.00478700  1
  Na  Na2  1  0.27525100  0.25696700  0.24429700  1
  Na  Na3  1  0.26593600  0.25313400  0.50683100  1
  Na  Na4  1  0.26587600  0.25381900  0.74371000  1
  Na  Na5  1  0.72805700  0.74734200  0.48750800  1
  Na  Na6  1  0.73233500  0.74553900  0.75444700  1
  Na  Na7  1  0.72897600  0.74374800  0.00032200  1
  Na  Na8  1  0.91718400  0.22392500  0.87508900  1
  Na  Na9  1  0.91056300  0.21810000  0.36757600  1
  Ni  Ni0  1  0.34412600  0.77554200  0.37487800  1
  Ni  Ni1  1  0.34512400  0.77788000  0.87527000  1
  Ni  Ni2  1  0.65766700  0.21965700  0.12946800  1
  Ni  Ni3  1  0.65553500  0.22274100  0.62431000  1
  P  P0  1  0.42129700  0.72096600  0.12598000  1
  P  P1  1  0.42226900  0.71951700  0.62458600  1
  P  P2  1  0.57791200  0.28270000  0.37513300  1
  P  P3  1  0.58187300  0.28105200  0.87521700  1
  C  C0  1  0.06732000  0.70806500  0.37755200  1
  C  C1  1  0.06291800  0.71159200  0.87475300  1
  C  C2  1  0.93114400  0.28866600  0.62473400  1
  C  C3  1  0.93967700  0.28826600  0.12244500  1
  O  O0  1  0.08355100  0.31616400  0.12454600  1
  O  O1  1  0.07165900  0.31418600  0.62504600  1
  O  O2  1  0.12674300  0.93350100  0.37394800  1
  O  O3  1  0.12059000  0.93628100  0.87599900  1
  O  O4  1  0.16326900  0.51359100  0.37477300  1
  O  O5  1  0.15686500  0.51512900  0.87419000  1
  O  O6  1  0.32416200  0.78831300  0.53064600  1
  O  O7  1  0.31675200  0.78777400  0.03329100  1
  O  O8  1  0.31875200  0.79022700  0.21874600  1
  O  O9  1  0.32564500  0.79075100  0.71804900  1
  O  O10  1  0.43030100  0.13620700  0.37572500  1
  O  O11  1  0.43189900  0.14050200  0.87427800  1
  O  O12  1  0.45630400  0.42750200  0.12532300  1
  O  O13  1  0.45968400  0.42487400  0.62526100  1
  O  O14  1  0.53480800  0.57405000  0.37907800  1
  O  O15  1  0.54656700  0.57516300  0.87502200  1
  O  O16  1  0.57247700  0.86143900  0.62351100  1
  O  O17  1  0.56606700  0.86960700  0.12392900  1
  O  O18  1  0.68202100  0.20979500  0.78197800  1
  O  O19  1  0.68160000  0.21003500  0.96851600  1
  O  O20  1  0.67705600  0.22596900  0.28189700  1
  O  O21  1  0.68070700  0.21490200  0.46743300  1
  O  O22  1  0.84566700  0.48237000  0.12131700  1
  O  O23  1  0.83313600  0.47986100  0.62453600  1
  O  O24  1  0.86988700  0.06671300  0.62481500  1
  O  O25  1  0.88299400  0.06297200  0.12296900  1
  O  O26  1  0.91931900  0.68439500  0.87599000  1
  O  O27  1  0.92639500  0.68260500  0.38110800  1
loop_
_geom_bond_atom_site_label_1
_geom_bond_atom_site_label_2
_geom_bond_distance
_geom_bond_site_symmetry_2
Na0 O25 2.281407 1_465
Na0 O0 2.393805 1_555
Na0 O8 2.435162 1_555
Na0 O7 2.466891 1_555
Na0 O22 2.616627 1_455
Na0 O0 2.859125 1_565
Na1 O11 2.295726 1_554
Na1 O0 2.334749 1_555
Na1 O5 2.407454 1_554
Na1 O12 2.455675 1_555
Na1 O7 2.513061 1_545
Na1 O3 2.785489 1_544
Na1 O7 2.845089 1_555
Na2 O10 2.291615 1_555
Na2 O0 2.335946 1_555
Na2 O4 2.387233 1_555
Na2 O12 2.444089 1_555
Na2 O8 2.491243 1_545
Na2 O2 2.780043 1_545
Na2 O8 2.859742 1_555
Na3 O10 2.337869 1_555
Na3 O1 2.345178 1_555
Na3 O4 2.379857 1_555
Na3 O6 2.497831 1_545
Na3 O13 2.513622 1_555
Na3 O2 2.749635 1_545
Na3 O6 2.891310 1_555
Na4 O11 2.332580 1_555
Na4 O1 2.343198 1_555
Na4 O5 2.390548 1_555
Na4 O9 2.494562 1_545
Na4 O13 2.518285 1_555
Na4 O3 2.768410 1_545
Na4 O9 2.906555 1_555
Na5 O27 2.273796 1_555
Na5 O16 2.336459 1_555
Na5 O14 2.433691 1_555
Na5 O23 2.456592 1_555
Na5 O21 2.491147 1_565
Na5 O24 2.797378 1_565
Na5 O21 2.853332 1_555
Na6 O16 2.305844 1_555
Na6 O26 2.323302 1_555
Na6 O23 2.370879 1_555
Na6 O15 2.485662 1_555
Na6 O18 2.490356 1_565
Na6 O24 2.725238 1_565
Na6 O18 2.886542 1_555
Na7 O17 2.269120 1_555
Na7 O22 2.327596 1_555
Na7 O26 2.374134 1_554
Na7 O15 2.497441 1_554
Na7 O19 2.505971 1_564
Na7 O25 2.730075 1_565
Na7 O19 2.878386 1_554
Na8 O3 2.315672 1_645
Na8 O26 2.418623 1_555
Na8 O18 2.425521 1_555
Na8 O19 2.435753 1_555
Na8 O5 2.662465 1_655
Na8 O26 2.832485 1_545
Na9 O20 2.360235 1_555
Na9 O2 2.394598 1_645
Na9 O21 2.434634 1_555
Na9 O27 2.454258 1_555
Na9 O4 2.772531 1_655
Na9 O27 2.816395 1_545
Ni0 O14 1.967318 1_555
Ni0 O10 2.066325 1_565
Ni0 O6 2.069060 1_555
Ni0 O2 2.075711 1_555
Ni0 O8 2.077912 1_555
Ni0 O4 2.149554 1_555
Ni1 O15 2.051014 1_555
Ni1 O11 2.078052 1_565
Ni1 O9 2.087110 1_555
Ni1 O7 2.106095 1_556
Ni1 O3 2.134952 1_555
Ni1 O5 2.203252 1_555
Ni2 O20 2.023303 1_555
Ni2 O17 2.036111 1_545
Ni2 O12 2.064354 1_555
Ni2 O25 2.140098 1_555
Ni2 O19 2.140216 1_554
Ni2 O22 2.204171 1_555
Ni3 O13 2.007234 1_555
Ni3 O24 2.047281 1_555
Ni3 O16 2.058496 1_545
Ni3 O21 2.087604 1_555
Ni3 O18 2.098860 1_555
Ni3 O23 2.110451 1_555
C0 O27 1.264253 1_455
C0 O4 1.308493 1_555
C0 O2 1.313076 1_555
C1 O26 1.288312 1_455
C1 O3 1.301970 1_555
C1 O5 1.304933 1_555
C2 O1 1.259687 1_655
C2 O24 1.302634 1_555
C2 O23 1.306553 1_555
C3 O0 1.291365 1_655
C3 O22 1.295815 1_555
C3 O25 1.301145 1_555
O6 P1 1.551691 1_555
O7 P0 1.568881 1_555
O8 P0 1.565154 1_555
O9 P1 1.545131 1_555
O10 P2 1.542206 1_555
O11 P3 1.544373 1_555
O12 P0 1.561781 1_555
O13 P1 1.571525 1_555
O14 P2 1.565403 1_555
O15 P3 1.565531 1_555
O16 P1 1.549934 1_555
O17 P0 1.526703 1_555
O18 P3 1.560220 1_555
O19 P3 1.555480 1_555
O20 P2 1.540100 1_555
O21 P2 1.556923 1_555
