# generated using pymatgen
data_Li4Nb3Cr2Fe3O16
_symmetry_space_group_name_H-M   'P 1'
_cell_length_a   6.07255044
_cell_length_b   6.07255044
_cell_length_c   9.76184567
_cell_angle_alpha   88.61972993
_cell_angle_beta   88.61972993
_cell_angle_gamma   59.97051593
_symmetry_Int_Tables_number   1
_chemical_formula_structural   Li4Nb3Cr2Fe3O16
_chemical_formula_sum   'Li4 Nb3 Cr2 Fe3 O16'
_cell_volume   311.53562522
_cell_formula_units_Z   1
loop_
 _symmetry_equiv_pos_site_id
 _symmetry_equiv_pos_as_xyz
  1  'x, y, z'
loop_
 _atom_site_type_symbol
 _atom_site_label
 _atom_site_symmetry_multiplicity
 _atom_site_fract_x
 _atom_site_fract_y
 _atom_site_fract_z
 _atom_site_occupancy
  Li  Li0  1  0.33392100  0.33392100  0.09751000  1
  Li  Li1  1  0.99050700  0.99050700  0.99947600  1
  Li  Li2  1  0.98347100  0.98347100  0.51281700  1
  Li  Li3  1  0.66487400  0.66487400  0.61536000  1
  Nb  Nb0  1  0.17314300  0.17314300  0.78948500  1
  Nb  Nb1  1  0.33919000  0.83852700  0.28793200  1
  Nb  Nb2  1  0.83852700  0.33919000  0.28793200  1
  Cr  Cr0  1  0.34328600  0.34328600  0.52300600  1
  Cr  Cr1  1  0.67263700  0.67263700  0.00944200  1
  Fe  Fe0  1  0.16650800  0.66342700  0.78616300  1
  Fe  Fe1  1  0.66342700  0.16650800  0.78616300  1
  Fe  Fe2  1  0.83017000  0.83017000  0.28279000  1
  O  O0  1  0.17752000  0.67459000  0.40134000  1
  O  O1  1  0.47799200  0.47799200  0.65828900  1
  O  O2  1  0.33210200  0.33210200  0.89901100  1
  O  O3  1  0.00489600  0.00489600  0.69382100  1
  O  O4  1  0.00797100  0.00797100  0.18425200  1
  O  O5  1  0.67459000  0.17752000  0.40134000  1
  O  O6  1  0.04445900  0.47432200  0.65074500  1
  O  O7  1  0.47432200  0.04445900  0.65074500  1
  O  O8  1  0.83459700  0.83459700  0.89889500  1
  O  O9  1  0.16932800  0.16932800  0.39714800  1
  O  O10  1  0.51866100  0.95995500  0.15435400  1
  O  O11  1  0.95995500  0.51866100  0.15435400  1
  O  O12  1  0.65992500  0.65992500  0.40394800  1
  O  O13  1  0.33908500  0.84720600  0.90168300  1
  O  O14  1  0.52227200  0.52227200  0.16171100  1
  O  O15  1  0.84720600  0.33908500  0.90168300  1
loop_
_geom_bond_atom_site_label_1
_geom_bond_atom_site_label_2
_geom_bond_distance
_geom_bond_site_symmetry_2
Li0 O2 1.938343 1_554
Li0 O10 2.035423 1_545
Li0 O11 2.035423 1_455
Li0 O14 2.094671 1_555
Li1 O4 1.818162 1_666
Li1 O8 1.934822 1_555
Li1 O15 2.061134 1_565
Li1 O13 2.061134 1_655
Li2 O3 1.787456 1_665
Li2 O0 1.978722 1_655
Li2 O5 1.978722 1_565
Li2 O9 2.230404 1_665
Li3 O1 1.998649 1_555
Li3 O6 2.030025 1_655
Li3 O7 2.030025 1_565
Li3 O12 2.065875 1_555
Nb0 O2 2.009662 1_555
Nb0 O15 2.021140 1_455
Nb0 O13 2.021140 1_545
Nb0 O3 2.023979 1_555
Nb0 O6 2.071494 1_555
Nb0 O7 2.071494 1_555
Nb1 O0 2.013269 1_555
Nb1 O4 2.026102 1_565
Nb1 O10 2.030119 1_555
Nb1 O12 2.045773 1_555
Nb1 O9 2.052373 1_565
Nb1 O14 2.086486 1_555
Nb2 O5 2.013269 1_555
Nb2 O4 2.026102 1_655
Nb2 O11 2.030119 1_555
Nb2 O12 2.045773 1_555
Nb2 O9 2.052373 1_655
Nb2 O14 2.086486 1_555
Cr0 O1 1.963699 1_555
Cr0 O6 1.993635 1_555
Cr0 O7 1.993635 1_555
Cr0 O5 2.094507 1_555
Cr0 O0 2.094507 1_555
Cr0 O9 2.232323 1_555
Cr1 O8 1.991237 1_554
Cr1 O15 2.057383 1_554
Cr1 O13 2.057383 1_554
Cr1 O10 2.083721 1_555
Cr1 O11 2.083721 1_555
Cr1 O14 2.140253 1_555
Fe0 O3 1.997804 1_565
Fe0 O2 2.048021 1_555
Fe0 O8 2.050670 1_455
Fe0 O1 2.055757 1_555
Fe0 O6 2.141891 1_555
Fe0 O13 2.214404 1_555
Fe1 O3 1.997804 1_655
Fe1 O2 2.048021 1_555
Fe1 O8 2.050670 1_545
Fe1 O1 2.055757 1_555
Fe1 O7 2.141891 1_555
Fe1 O15 2.214404 1_555
Fe2 O4 2.079312 1_665
Fe2 O11 2.084684 1_555
Fe2 O10 2.084684 1_555
Fe2 O12 2.118570 1_555
Fe2 O5 2.179759 1_565
Fe2 O0 2.179759 1_655
