# generated using pymatgen
data_Li2VCrP2(HO5)2
_symmetry_space_group_name_H-M   'P 1'
_cell_length_a   5.42692370
_cell_length_b   7.39666929
_cell_length_c   5.16594288
_cell_angle_alpha   109.02707665
_cell_angle_beta   97.88693187
_cell_angle_gamma   106.64675473
_symmetry_Int_Tables_number   1
_chemical_formula_structural   Li2VCrP2(HO5)2
_chemical_formula_sum   'Li2 V1 Cr1 P2 H2 O10'
_cell_volume   181.63135078
_cell_formula_units_Z   1
loop_
 _symmetry_equiv_pos_site_id
 _symmetry_equiv_pos_as_xyz
  1  'x, y, z'
loop_
 _atom_site_type_symbol
 _atom_site_label
 _atom_site_symmetry_multiplicity
 _atom_site_fract_x
 _atom_site_fract_y
 _atom_site_fract_z
 _atom_site_occupancy
  Li  Li0  1  0.39708500  0.82345000  0.74732000  1
  Li  Li1  1  0.60291500  0.17655100  0.25268200  1
  V  V0  1  0.99999800  0.49999800  0.99999900  1
  Cr  Cr0  1  0.99999600  0.99999200  0.99999400  1
  P  P0  1  0.35821100  0.23048400  0.67472800  1
  P  P1  1  0.64178900  0.76951600  0.32527200  1
  H  H0  1  0.06039900  0.33740800  0.36029700  1
  H  H1  1  0.93960000  0.66259300  0.63970300  1
  O  O0  1  0.05024300  0.72754000  0.83775700  1
  O  O1  1  0.20512100  0.38018400  0.72417500  1
  O  O2  1  0.34465800  0.65912400  0.30421600  1
  O  O3  1  0.24996400  0.06901500  0.36681600  1
  O  O4  1  0.33705600  0.11928300  0.88567400  1
  O  O5  1  0.66294600  0.88071900  0.11432900  1
  O  O6  1  0.75003800  0.93098800  0.63318300  1
  O  O7  1  0.65534300  0.34087900  0.69578500  1
  O  O8  1  0.79487900  0.61981800  0.27582800  1
  O  O9  1  0.94975900  0.27246000  0.16224200  1
loop_
_geom_bond_atom_site_label_1
_geom_bond_atom_site_label_2
_geom_bond_distance
_geom_bond_site_symmetry_2
Li0 O0 1.989200 1_555
Li0 O5 2.056988 1_556
Li0 O6 2.095740 1_555
Li0 O2 2.146409 1_555
Li0 O4 2.204012 1_565
Li1 O9 1.989216 1_555
Li1 O4 2.056981 1_554
Li1 O3 2.095719 1_555
Li1 O7 2.146406 1_555
Li1 O5 2.204010 1_545
Cr0 O6 1.989626 1_555
Cr0 O3 1.989661 1_666
Cr0 O0 2.028364 1_655
Cr0 O9 2.028451 1_566
Cr0 O5 2.045642 1_556
Cr0 O4 2.045679 1_665
H0 O9 0.991857 1_455
H1 O0 0.991859 1_655
O0 V0 2.080633 1_455
O1 P0 1.543519 1_555
O1 V0 2.057196 1_455
O2 P1 1.555094 1_555
O2 V0 2.019797 1_454
O3 P0 1.550671 1_555
O4 P0 1.562658 1_555
O5 P1 1.562655 1_555
O6 P1 1.550675 1_555
O7 P0 1.555103 1_555
O7 V0 2.019769 1_555
O8 P1 1.543507 1_555
O8 V0 2.057212 1_554
O9 V0 2.080612 1_554
