# generated using pymatgen
data_Li4MnCrO6
_symmetry_space_group_name_H-M   'P 1'
_cell_length_a   5.02243400
_cell_length_b   8.68789174
_cell_length_c   9.75175993
_cell_angle_alpha   98.19491479
_cell_angle_beta   94.81953857
_cell_angle_gamma   89.70553641
_symmetry_Int_Tables_number   1
_chemical_formula_structural   Li4MnCrO6
_chemical_formula_sum   'Li16 Mn4 Cr4 O24'
_cell_volume   419.66766499
_cell_formula_units_Z   4
loop_
 _symmetry_equiv_pos_site_id
 _symmetry_equiv_pos_as_xyz
  1  'x, y, z'
loop_
 _atom_site_type_symbol
 _atom_site_label
 _atom_site_symmetry_multiplicity
 _atom_site_fract_x
 _atom_site_fract_y
 _atom_site_fract_z
 _atom_site_occupancy
  Li  Li0  1  0.99546200  0.16894000  0.50021700  1
  Li  Li1  1  0.87672100  0.37505900  0.74933400  1
  Li  Li2  1  0.75270500  0.24971700  0.99995300  1
  Li  Li3  1  0.74170000  0.91998800  0.99997600  1
  Li  Li4  1  0.75919400  0.58074700  0.00046400  1
  Li  Li5  1  0.62411100  0.12223700  0.24989600  1
  Li  Li6  1  0.50259700  0.33136000  0.50053800  1
  Li  Li7  1  0.50362900  0.00112800  0.49966300  1
  Li  Li8  1  0.49085100  0.66742800  0.49871500  1
  Li  Li9  1  0.37320900  0.87481100  0.75044900  1
  Li  Li10  1  0.25422900  0.75029600  0.99973500  1
  Li  Li11  1  0.23954200  0.42090000  0.00000000  1
  Li  Li12  1  0.25425100  0.07886400  0.99904500  1
  Li  Li13  1  0.12394700  0.62273100  0.25010100  1
  Li  Li14  1  0.00498700  0.83044300  0.49997000  1
  Li  Li15  1  0.00227100  0.50104000  0.50015000  1
  Mn  Mn0  1  0.87693800  0.04317500  0.75129500  1
  Mn  Mn1  1  0.62565400  0.79178900  0.25028200  1
  Mn  Mn2  1  0.37319300  0.20660300  0.74904700  1
  Mn  Mn3  1  0.12518200  0.29197000  0.24989600  1
  Cr  Cr0  1  0.87093600  0.71222400  0.75106500  1
  Cr  Cr1  1  0.62281700  0.45529100  0.24969900  1
  Cr  Cr2  1  0.37785200  0.53807000  0.74890800  1
  Cr  Cr3  1  0.12311100  0.95515600  0.24980600  1
  O  O0  1  0.96654300  0.10738400  0.13847800  1
  O  O1  1  0.92873300  0.78740900  0.13890200  1
  O  O2  1  0.93288500  0.42673000  0.13419000  1
  O  O3  1  0.81638100  0.96399200  0.36322000  1
  O  O4  1  0.82265200  0.32548200  0.36325600  1
  O  O5  1  0.78473500  0.64386100  0.36209200  1
  O  O6  1  0.71735900  0.85796800  0.63915600  1
  O  O7  1  0.66908700  0.53563500  0.63713500  1
  O  O8  1  0.67688800  0.17847000  0.63672600  1
  O  O9  1  0.46772600  0.60694900  0.13830800  1
  O  O10  1  0.58052100  0.71407500  0.86269500  1
  O  O11  1  0.57309800  0.07200700  0.86346900  1
  O  O12  1  0.43295300  0.92657400  0.13461900  1
  O  O13  1  0.42845200  0.28754200  0.13856400  1
  O  O14  1  0.53249600  0.39191400  0.86161200  1
  O  O15  1  0.32293700  0.82491300  0.36363000  1
  O  O16  1  0.31617300  0.46384800  0.36286200  1
  O  O17  1  0.28476200  0.14368800  0.36165500  1
  O  O18  1  0.21127200  0.35298000  0.63716600  1
  O  O19  1  0.17444700  0.67678600  0.63613500  1
  O  O20  1  0.17852700  0.03426200  0.63859300  1
  O  O21  1  0.07636600  0.57434000  0.86420000  1
  O  O22  1  0.07169000  0.21559700  0.86138000  1
  O  O23  1  0.03822800  0.89763000  0.86375300  1
loop_
_geom_bond_atom_site_label_1
_geom_bond_atom_site_label_2
_geom_bond_distance
_geom_bond_site_symmetry_2
Li0 O17 2.056024 1_655
Li0 O20 2.065405 1_655
Li0 O8 2.159661 1_555
Li0 O18 2.163501 1_655
Li0 O4 2.167424 1_555
Li0 O3 2.213725 1_545
Li1 O18 2.074187 1_655
Li1 O22 2.076019 1_655
Li1 O8 2.104282 1_555
Li1 O7 2.111707 1_555
Li1 O14 2.116353 1_555
Li1 O21 2.129293 1_655
Li2 O2 2.034430 1_556
Li2 O11 2.048324 1_555
Li2 O22 2.173784 1_655
Li2 O0 2.173975 1_556
Li2 O14 2.186263 1_555
Li2 O13 2.196586 1_556
Li3 O1 2.065048 1_556
Li3 O23 2.067924 1_655
Li3 O12 2.109883 1_556
Li3 O11 2.129253 1_565
Li3 O10 2.190407 1_555
Li3 O0 2.210387 1_566
Li4 O10 2.045086 1_554
Li4 O9 2.059536 1_555
Li4 O2 2.132216 1_555
Li4 O21 2.154091 1_654
Li4 O1 2.214226 1_555
Li4 O14 2.224434 1_554
Li5 O3 2.069795 1_545
Li5 O12 2.089443 1_545
Li5 O17 2.092436 1_555
Li5 O0 2.103993 1_555
Li5 O13 2.111310 1_555
Li5 O4 2.147255 1_555
Li6 O18 2.050542 1_555
Li6 O16 2.054832 1_555
Li6 O8 2.142429 1_555
Li6 O4 2.172561 1_555
Li6 O7 2.185718 1_555
Li6 O17 2.197615 1_555
Li7 O8 2.036868 1_555
Li7 O15 2.039640 1_545
Li7 O3 2.136685 1_545
Li7 O17 2.183158 1_555
Li7 O6 2.184692 1_545
Li7 O20 2.200030 1_555
Li8 O7 2.039969 1_555
Li8 O5 2.060381 1_555
Li8 O15 2.152634 1_555
Li8 O19 2.157126 1_555
Li8 O16 2.192184 1_555
Li8 O6 2.240847 1_555
Li9 O20 2.074259 1_565
Li9 O23 2.082586 1_555
Li9 O11 2.109779 1_565
Li9 O6 2.110510 1_555
Li9 O10 2.112264 1_555
Li9 O19 2.117308 1_555
Li10 O21 2.030128 1_555
Li10 O12 2.030466 1_556
Li10 O9 2.179314 1_556
Li10 O23 2.191276 1_555
Li10 O10 2.193936 1_555
Li10 O1 2.204744 1_456
Li11 O14 2.069407 1_554
Li11 O13 2.070747 1_555
Li11 O2 2.099058 1_455
Li11 O21 2.124180 1_554
Li11 O22 2.203640 1_554
Li11 O9 2.209749 1_555
Li12 O0 2.056371 1_456
Li12 O22 2.071403 1_555
Li12 O23 2.140509 1_545
Li12 O12 2.142677 1_546
Li12 O11 2.155988 1_555
Li12 O13 2.239762 1_556
Li13 O16 2.070569 1_555
Li13 O5 2.093124 1_455
Li13 O2 2.093788 1_455
Li13 O1 2.105542 1_455
Li13 O9 2.111803 1_555
Li13 O15 2.141882 1_555
Li14 O6 2.054194 1_455
Li14 O3 2.058981 1_455
Li14 O19 2.138556 1_555
Li14 O15 2.158199 1_555
Li14 O5 2.192332 1_455
Li14 O20 2.204118 1_565
Li15 O19 2.020215 1_555
Li15 O4 2.038034 1_455
Li15 O16 2.146722 1_555
Li15 O5 2.181968 1_455
Li15 O18 2.186827 1_555
Li15 O7 2.220599 1_455
Mn0 O23 1.921798 1_645
Mn0 O22 1.932178 1_655
Mn0 O20 1.939718 1_655
Mn0 O11 1.945901 1_555
Mn0 O6 1.947214 1_545
Mn0 O8 1.952689 1_555
Mn1 O5 1.929105 1_555
Mn1 O3 1.933013 1_555
Mn1 O12 1.939478 1_555
Mn1 O1 1.940023 1_555
Mn1 O9 1.941122 1_555
Mn1 O15 1.950218 1_555
Mn2 O18 1.924780 1_555
Mn2 O20 1.932938 1_555
Mn2 O22 1.937076 1_555
Mn2 O8 1.945910 1_555
Mn2 O11 1.947339 1_555
Mn2 O14 1.949083 1_555
Mn3 O16 1.931765 1_555
Mn3 O17 1.931997 1_555
Mn3 O0 1.938561 1_455
Mn3 O2 1.938686 1_455
Mn3 O13 1.940502 1_555
Mn3 O4 1.949728 1_455
Cr0 O10 1.890594 1_555
Cr0 O6 1.905686 1_555
Cr0 O19 1.964303 1_655
Cr0 O23 1.965280 1_655
Cr0 O21 1.972189 1_655
Cr0 O7 1.989127 1_555
Cr1 O13 1.907360 1_555
Cr1 O4 1.913926 1_555
Cr1 O9 1.943715 1_555
Cr1 O16 1.963734 1_555
Cr1 O5 1.974484 1_555
Cr1 O2 1.991648 1_555
Cr2 O7 1.894476 1_555
Cr2 O14 1.915156 1_555
Cr2 O18 1.958128 1_555
Cr2 O21 1.958645 1_555
Cr2 O19 1.970238 1_555
Cr2 O10 1.986970 1_555
Cr3 O1 1.906442 1_455
Cr3 O15 1.918040 1_555
Cr3 O0 1.949684 1_465
Cr3 O3 1.965506 1_455
Cr3 O17 1.971611 1_565
Cr3 O12 1.988789 1_555
