# generated using pymatgen
data_MnFeO4
_symmetry_space_group_name_H-M   'P 1'
_cell_length_a   5.57960600
_cell_length_b   4.40513600
_cell_length_c   4.98157107
_cell_angle_alpha   89.21121041
_cell_angle_beta   90.00000000
_cell_angle_gamma   90.00000000
_symmetry_Int_Tables_number   1
_chemical_formula_structural   MnFeO4
_chemical_formula_sum   'Mn2 Fe2 O8'
_cell_volume   122.43005005
_cell_formula_units_Z   2
loop_
 _symmetry_equiv_pos_site_id
 _symmetry_equiv_pos_as_xyz
  1  'x, y, z'
loop_
 _atom_site_type_symbol
 _atom_site_label
 _atom_site_symmetry_multiplicity
 _atom_site_fract_x
 _atom_site_fract_y
 _atom_site_fract_z
 _atom_site_occupancy
  Mn  Mn0  1  0.85441900  0.00000000  0.75000000  1
  Mn  Mn1  1  0.14558100  0.00000000  0.25000000  1
  Fe  Fe0  1  0.34463200  0.50000000  0.75000000  1
  Fe  Fe1  1  0.65536800  0.50000000  0.25000000  1
  O  O0  1  0.10798300  0.22803500  0.57157200  1
  O  O1  1  0.89201700  0.22803500  0.07157200  1
  O  O2  1  0.62306000  0.25350300  0.59302900  1
  O  O3  1  0.37694000  0.25350300  0.09302900  1
  O  O4  1  0.62306000  0.74649700  0.90697100  1
  O  O5  1  0.37694000  0.74649700  0.40697100  1
  O  O6  1  0.10798300  0.77196500  0.92842800  1
  O  O7  1  0.89201700  0.77196500  0.42842800  1
loop_
_geom_bond_atom_site_label_1
_geom_bond_atom_site_label_2
_geom_bond_distance
_geom_bond_site_symmetry_2
Mn0 O2 1.871063 1_555
Mn0 O4 1.871063 1_545
Mn0 O1 1.914047 1_556
Mn0 O7 1.914047 1_545
Mn0 O6 1.943236 1_645
Mn0 O0 1.943236 1_655
Mn1 O3 1.871063 1_555
Mn1 O5 1.871063 1_545
Mn1 O0 1.914047 1_555
Mn1 O6 1.914047 1_544
Mn1 O1 1.943236 1_455
Mn1 O7 1.943236 1_445
Fe0 O6 1.999540 1_555
Fe0 O0 1.999540 1_555
Fe0 O5 2.020040 1_555
Fe0 O3 2.020040 1_556
Fe0 O4 2.056049 1_555
Fe0 O2 2.056049 1_555
Fe1 O7 1.999540 1_555
Fe1 O1 1.999540 1_555
Fe1 O4 2.020040 1_554
Fe1 O2 2.020040 1_555
Fe1 O5 2.056049 1_555
Fe1 O3 2.056049 1_555
