# generated using pymatgen
data_Al2Si3H8(NO5)2
_symmetry_space_group_name_H-M   'P 1'
_cell_length_a   6.59844400
_cell_length_b   12.99586600
_cell_length_c   13.00639039
_cell_angle_alpha   89.25706826
_cell_angle_beta   90.00000000
_cell_angle_gamma   90.00000000
_symmetry_Int_Tables_number   1
_chemical_formula_structural   Al2Si3H8(NO5)2
_chemical_formula_sum   'Al8 Si12 H32 N8 O40'
_cell_volume   1115.23665338
_cell_formula_units_Z   4
loop_
 _symmetry_equiv_pos_site_id
 _symmetry_equiv_pos_as_xyz
  1  'x, y, z'
loop_
 _atom_site_type_symbol
 _atom_site_label
 _atom_site_symmetry_multiplicity
 _atom_site_fract_x
 _atom_site_fract_y
 _atom_site_fract_z
 _atom_site_occupancy
  Al  Al0  1  0.88205900  0.61778000  0.68838600  1
  Al  Al1  1  0.38205900  0.38222000  0.31161400  1
  Al  Al2  1  0.88025400  0.87737800  0.80835900  1
  Al  Al3  1  0.38025400  0.12262200  0.19164100  1
  Al  Al4  1  0.13307800  0.68685500  0.11767600  1
  Al  Al5  1  0.63307800  0.31314500  0.88232400  1
  Al  Al6  1  0.13284500  0.80941100  0.37751000  1
  Al  Al7  1  0.63284500  0.19058900  0.62249000  1
  Si  Si0  1  0.49646000  0.74230600  0.73989500  1
  Si  Si1  1  0.99646000  0.25769400  0.26010500  1
  Si  Si2  1  0.74739300  0.75714300  0.24052000  1
  Si  Si3  1  0.24739300  0.24285700  0.75948000  1
  Si  Si4  1  0.87319300  0.38197600  0.69188900  1
  Si  Si5  1  0.37319300  0.61802400  0.30811100  1
  Si  Si6  1  0.87492300  0.11459000  0.81366900  1
  Si  Si7  1  0.37492300  0.88541000  0.18633100  1
  Si  Si8  1  0.12177400  0.68856300  0.88018900  1
  Si  Si9  1  0.62177400  0.31143700  0.11981100  1
  Si  Si10  1  0.12503300  0.81329400  0.61466300  1
  Si  Si11  1  0.62503300  0.18670600  0.38533700  1
  H  H0  1  0.27575000  0.46858400  0.61172400  1
  H  H1  1  0.77575000  0.53141600  0.38827600  1
  H  H2  1  0.48023000  0.54785000  0.61982600  1
  H  H3  1  0.98023000  0.45215000  0.38017400  1
  H  H4  1  0.40959200  0.49801500  0.50325600  1
  H  H5  1  0.90959200  0.50198500  0.49674400  1
  H  H6  1  0.51261400  0.41974100  0.59497900  1
  H  H7  1  0.01261400  0.58025900  0.40502100  1
  H  H8  1  0.73020900  0.09508500  0.08580200  1
  H  H9  1  0.23020900  0.90491500  0.91419800  1
  H  H10  1  0.97001400  0.06255300  0.11611200  1
  H  H11  1  0.47001400  0.93744700  0.88388800  1
  H  H12  1  0.78521000  0.97136800  0.12152200  1
  H  H13  1  0.28521000  0.02863200  0.87847800  1
  H  H14  1  0.86203300  0.01743500  0.00467500  1
  H  H15  1  0.36203300  0.98256500  0.99532500  1
  H  H16  1  0.72991900  0.88483900  0.43181700  1
  H  H17  1  0.22991900  0.11516100  0.56818300  1
  H  H18  1  0.48773500  0.91571400  0.41050000  1
  H  H19  1  0.98773500  0.08428600  0.58950000  1
  H  H20  1  0.62950000  0.99591800  0.48378900  1
  H  H21  1  0.12950000  0.00408200  0.51621100  1
  H  H22  1  0.55984200  0.87779800  0.53053000  1
  H  H23  1  0.05984200  0.12220200  0.46947000  1
  H  H24  1  0.72323000  0.62276100  0.05559500  1
  H  H25  1  0.22323000  0.37723900  0.94440500  1
  H  H26  1  0.74500300  0.59970100  0.92706800  1
  H  H27  1  0.24500300  0.40029900  0.07293200  1
  H  H28  1  0.51263800  0.61383500  0.98075700  1
  H  H29  1  0.01263800  0.38616500  0.01924300  1
  H  H30  1  0.65048300  0.50591100  0.00525900  1
  H  H31  1  0.15048300  0.49408900  0.99474100  1
  N  N0  1  0.41821900  0.48369100  0.58282700  1
  N  N1  1  0.91821900  0.51630900  0.41717300  1
  N  N2  1  0.83896200  0.03560100  0.08218700  1
  N  N3  1  0.33896200  0.96439900  0.91781300  1
  N  N4  1  0.60375400  0.91848700  0.46559500  1
  N  N5  1  0.10375400  0.08151300  0.53440500  1
  N  N6  1  0.65705500  0.58593300  0.99260700  1
  N  N7  1  0.15705500  0.41406700  0.00739300  1
  O  O0  1  0.63750400  0.82197000  0.80377000  1
  O  O1  1  0.13750400  0.17803000  0.19623000  1
  O  O2  1  0.62246700  0.65248100  0.68049100  1
  O  O3  1  0.12246700  0.34751900  0.31950900  1
  O  O4  1  0.87415500  0.69152500  0.15556700  1
  O  O5  1  0.37415500  0.30847500  0.84443300  1
  O  O6  1  0.88660400  0.81360800  0.32637700  1
  O  O7  1  0.38660400  0.18639200  0.67362300  1
  O  O8  1  0.91682100  0.49378600  0.63583000  1
  O  O9  1  0.41682100  0.50621400  0.36417000  1
  O  O10  1  0.86431700  0.99950000  0.86618300  1
  O  O11  1  0.36431700  0.00050000  0.13381700  1
  O  O12  1  0.15212500  0.63324400  0.99324700  1
  O  O13  1  0.65212500  0.36675600  0.00675300  1
  O  O14  1  0.13185000  0.86644800  0.49955200  1
  O  O15  1  0.63185000  0.13355200  0.50044800  1
  O  O16  1  0.95057200  0.62293200  0.81938100  1
  O  O17  1  0.45057200  0.37706800  0.18061900  1
  O  O18  1  0.99403300  0.88861600  0.68753500  1
  O  O19  1  0.49403300  0.11138400  0.31246500  1
  O  O20  1  0.73562500  0.18968500  0.88155000  1
  O  O21  1  0.23562500  0.81031500  0.11845000  1
  O  O22  1  0.71423400  0.31987200  0.61871500  1
  O  O23  1  0.21423400  0.68012800  0.38128500  1
  O  O24  1  0.77786600  0.39697100  0.80553100  1
  O  O25  1  0.27786600  0.60302900  0.19446900  1
  O  O26  1  0.80797200  0.11489800  0.69265100  1
  O  O27  1  0.30797200  0.88510200  0.30734900  1
  O  O28  1  0.04983100  0.80845800  0.89037800  1
  O  O29  1  0.54983100  0.19154200  0.10962200  1
  O  O30  1  0.03444400  0.69756900  0.61225200  1
  O  O31  1  0.53444400  0.30243100  0.38774800  1
  O  O32  1  0.09321600  0.32138200  0.69735300  1
  O  O33  1  0.59321600  0.67861800  0.30264700  1
  O  O34  1  0.11750200  0.15121200  0.82025200  1
  O  O35  1  0.61750200  0.84878800  0.17974800  1
  O  O36  1  0.36599300  0.80946900  0.65398800  1
  O  O37  1  0.86599300  0.19053100  0.34601200  1
  O  O38  1  0.34346600  0.68325000  0.82194900  1
  O  O39  1  0.84346600  0.31675000  0.17805100  1
loop_
_geom_bond_atom_site_label_1
_geom_bond_atom_site_label_2
_geom_bond_distance
_geom_bond_site_symmetry_2
Al0 O30 1.743612 1_655
Al0 O16 1.764839 1_555
Al0 O8 1.773437 1_555
Al0 O2 1.773909 1_555
Al1 O31 1.743612 1_555
Al1 O17 1.764839 1_555
Al1 O9 1.773437 1_555
Al1 O3 1.773909 1_555
Al2 O18 1.746020 1_555
Al2 O0 1.757515 1_555
Al2 O10 1.768181 1_555
Al2 O28 1.779745 1_655
Al3 O19 1.746020 1_555
Al3 O1 1.757515 1_555
Al3 O11 1.768181 1_555
Al3 O29 1.779745 1_555
Al4 O21 1.741465 1_555
Al4 O25 1.751828 1_555
Al4 O12 1.774707 1_554
Al4 O4 1.779402 1_455
Al5 O20 1.741465 1_555
Al5 O24 1.751828 1_555
Al5 O13 1.774707 1_556
Al5 O5 1.779402 1_555
Al6 O6 1.756227 1_455
Al6 O14 1.760569 1_555
Al6 O23 1.763964 1_555
Al6 O27 1.764197 1_555
Al7 O7 1.756227 1_555
Al7 O15 1.760569 1_555
Al7 O22 1.763964 1_555
Al7 O26 1.764197 1_555
H0 N0 1.030354 1_555
H1 N1 1.030354 1_555
H2 N0 1.051015 1_555
H3 N1 1.051015 1_555
H4 N0 1.050705 1_555
H5 N1 1.050705 1_555
H6 N0 1.048920 1_555
H7 N1 1.048920 1_455
H8 N2 1.056269 1_555
H9 N3 1.056269 1_555
H10 N2 1.034003 1_555
H11 N3 1.034003 1_555
H12 N2 1.035999 1_565
H13 N3 1.035999 1_545
H14 N2 1.049500 1_555
H15 N3 1.049500 1_555
H16 N4 1.040315 1_555
H17 N5 1.040315 1_555
H18 N4 1.049535 1_555
H19 N5 1.049535 1_655
H20 N4 1.050542 1_555
H21 N5 1.050542 1_555
H22 N4 1.032129 1_555
H23 N5 1.032129 1_555
H24 N6 1.049318 1_554
H25 N7 1.049318 1_556
H26 N6 1.044730 1_555
H27 N7 1.044730 1_555
H28 N6 1.030467 1_555
H29 N7 1.030467 1_555
H30 N6 1.051679 1_554
H31 N7 1.051679 1_556
O0 Si0 1.628037 1_555
O1 Si1 1.628037 1_455
O2 Si0 1.635351 1_555
O3 Si1 1.635351 1_455
O4 Si2 1.634666 1_555
O5 Si3 1.634666 1_555
O6 Si2 1.628038 1_555
O7 Si3 1.628038 1_555
O8 Si4 1.642689 1_555
O9 Si5 1.642689 1_555
O10 Si6 1.637687 1_565
O11 Si7 1.637687 1_545
O12 Si8 1.640682 1_555
O13 Si9 1.640682 1_555
O14 Si10 1.641319 1_555
O15 Si11 1.641319 1_555
O16 Si8 1.626851 1_655
O17 Si9 1.626851 1_555
O18 Si10 1.621038 1_655
O19 Si11 1.621038 1_555
O20 Si6 1.612172 1_555
O21 Si7 1.612172 1_555
O22 Si4 1.636235 1_555
O23 Si5 1.636235 1_555
O24 Si4 1.620431 1_555
O25 Si5 1.620431 1_555
O26 Si6 1.634783 1_555
O27 Si7 1.634783 1_555
O28 Si8 1.635869 1_555
O29 Si9 1.635869 1_555
O30 Si10 1.619062 1_555
O31 Si11 1.619062 1_555
O32 Si3 1.645581 1_555
O32 Si4 1.652713 1_455
O33 Si2 1.645581 1_555
O33 Si5 1.652713 1_555
O34 Si3 1.659348 1_555
O34 Si6 1.672412 1_455
O35 Si2 1.659348 1_555
O35 Si7 1.672412 1_555
O36 Si0 1.651097 1_555
O36 Si10 1.670747 1_555
O37 Si1 1.651097 1_555
O37 Si11 1.670747 1_555
O38 Si8 1.649172 1_555
O38 Si0 1.651029 1_555
O39 Si9 1.649172 1_555
O39 Si1 1.651029 1_555
