# generated using pymatgen
data_LiCo3NiO8
_symmetry_space_group_name_H-M   'P 1'
_cell_length_a   5.57106894
_cell_length_b   9.64230296
_cell_length_c   5.78290150
_cell_angle_alpha   106.35399582
_cell_angle_beta   118.72272340
_cell_angle_gamma   89.94710700
_symmetry_Int_Tables_number   1
_chemical_formula_structural   LiCo3NiO8
_chemical_formula_sum   'Li2 Co6 Ni2 O16'
_cell_volume   258.04489666
_cell_formula_units_Z   2
loop_
 _symmetry_equiv_pos_site_id
 _symmetry_equiv_pos_as_xyz
  1  'x, y, z'
loop_
 _atom_site_type_symbol
 _atom_site_label
 _atom_site_symmetry_multiplicity
 _atom_site_fract_x
 _atom_site_fract_y
 _atom_site_fract_z
 _atom_site_occupancy
  Li  Li0  1  0.75350301  0.24982189  0.50148432  1
  Li  Li1  1  0.24821848  0.75141487  0.49911568  1
  Co  Co0  1  0.75010615  0.25015356  0.00054064  1
  Co  Co1  1  0.24965524  0.74970248  0.99918550  1
  Co  Co2  1  0.49987589  0.99989608  0.99996860  1
  Co  Co3  1  0.00002562  0.50006528  0.00017214  1
  Co  Co4  1  0.25026858  0.25011843  0.00078570  1
  Co  Co5  1  0.74961122  0.74974801  0.99921738  1
  Ni  Ni0  1  0.50001063  0.50000959  0.00005773  1
  Ni  Ni1  1  0.99985864  0.99991039  0.99990155  1
  O  O0  1  0.09514150  0.36571355  0.19099639  1
  O  O1  1  0.59474142  0.86513534  0.18970731  1
  O  O2  1  0.90467513  0.63420079  0.80897891  1
  O  O3  1  0.40505236  0.13469134  0.81013462  1
  O  O4  1  0.35067081  0.11721321  0.20099129  1
  O  O5  1  0.85052118  0.61741639  0.20078574  1
  O  O6  1  0.84936762  0.11721775  0.20092137  1
  O  O7  1  0.34925664  0.61746541  0.20058855  1
  O  O8  1  0.60018725  0.36681906  0.20126340  1
  O  O9  1  0.09975105  0.86634463  0.19999253  1
  O  O10  1  0.39980842  0.63308748  0.79881137  1
  O  O11  1  0.90006542  0.13348585  0.79978992  1
  O  O12  1  0.15039709  0.88257021  0.79880464  1
  O  O13  1  0.65076460  0.38262980  0.79959858  1
  O  O14  1  0.64908746  0.88252957  0.79878434  1
  O  O15  1  0.14937956  0.38263704  0.79942082  1
loop_
_geom_bond_atom_site_label_1
_geom_bond_atom_site_label_2
_geom_bond_distance
_geom_bond_site_symmetry_2
Li0 O6 2.140229 1_555
Li0 O15 2.140805 1_655
Li0 O11 2.152932 1_555
Li0 O13 2.154840 1_555
Li0 O8 2.166176 1_555
Li0 O4 2.167222 1_555
Li1 O12 2.138246 1_555
Li1 O9 2.146410 1_555
Li1 O5 2.151928 1_455
Li1 O14 2.154207 1_555
Li1 O7 2.154603 1_555
Li1 O10 2.173396 1_555
Co0 O3 1.851055 1_554
Co0 O0 1.851367 1_655
Co0 O13 1.872102 1_554
Co0 O8 1.872199 1_555
Co0 O11 1.872483 1_554
Co0 O6 1.873728 1_555
Co1 O2 1.850997 1_455
Co1 O1 1.851019 1_556
Co1 O10 1.871622 1_555
Co1 O7 1.871911 1_556
Co1 O9 1.872367 1_556
Co1 O12 1.873165 1_555
Co2 O1 1.848236 1_556
Co2 O3 1.848886 1_565
Co2 O4 1.873084 1_566
Co2 O12 1.873454 1_555
Co2 O6 1.873550 1_566
Co2 O14 1.873935 1_555
Co3 O2 1.848512 1_454
Co3 O0 1.848921 1_555
Co3 O5 1.872892 1_455
Co3 O7 1.872953 1_555
Co3 O15 1.873117 1_554
Co3 O13 1.873178 1_454
Co4 O3 1.849008 1_554
Co4 O0 1.849494 1_555
Co4 O4 1.872792 1_555
Co4 O8 1.872886 1_555
Co4 O11 1.873636 1_454
Co4 O15 1.874079 1_554
Co5 O1 1.848596 1_556
Co5 O2 1.849133 1_555
Co5 O10 1.872261 1_555
Co5 O14 1.872648 1_555
Co5 O9 1.873288 1_656
Co5 O5 1.873323 1_556
Ni0 O13 1.877588 1_554
Ni0 O7 1.878177 1_555
Ni0 O5 1.878182 1_555
Ni0 O10 1.878242 1_554
Ni0 O15 1.878567 1_554
Ni0 O8 1.879016 1_555
Ni1 O9 1.877817 1_656
Ni1 O11 1.877978 1_565
Ni1 O6 1.878351 1_566
Ni1 O4 1.878895 1_666
Ni1 O12 1.878978 1_655
Ni1 O14 1.879039 1_555
