# generated using pymatgen
data_Th8Al4H11
_symmetry_space_group_name_H-M   'P 1'
_cell_length_a   7.69809600
_cell_length_b   7.69809600
_cell_length_c   19.02401100
_cell_angle_alpha   90.00000000
_cell_angle_beta   90.00000000
_cell_angle_gamma   90.00000000
_symmetry_Int_Tables_number   1
_chemical_formula_structural   Th8Al4H11
_chemical_formula_sum   'Th24 Al12 H33'
_cell_volume   1127.37586672
_cell_formula_units_Z   3
loop_
 _symmetry_equiv_pos_site_id
 _symmetry_equiv_pos_as_xyz
  1  'x, y, z'
loop_
 _atom_site_type_symbol
 _atom_site_label
 _atom_site_symmetry_multiplicity
 _atom_site_fract_x
 _atom_site_fract_y
 _atom_site_fract_z
 _atom_site_occupancy
  Th  Th0  1  0.33625400  0.33625400  0.24935500  1
  Th  Th1  1  0.66374600  0.66374600  0.24935500  1
  Th  Th2  1  0.66374600  0.33625400  0.75064500  1
  Th  Th3  1  0.33625400  0.66374600  0.75064500  1
  Th  Th4  1  0.83704400  0.83704400  0.74666300  1
  Th  Th5  1  0.16295600  0.16295600  0.74666300  1
  Th  Th6  1  0.16295600  0.83704400  0.25333700  1
  Th  Th7  1  0.83704400  0.16295600  0.25333700  1
  Th  Th8  1  0.83984800  0.83984800  0.08451500  1
  Th  Th9  1  0.16015200  0.16015200  0.08451500  1
  Th  Th10  1  0.16015200  0.83984800  0.91548500  1
  Th  Th11  1  0.83984800  0.16015200  0.91548500  1
  Th  Th12  1  0.33860900  0.33860900  0.58374800  1
  Th  Th13  1  0.66139100  0.66139100  0.58374800  1
  Th  Th14  1  0.66139100  0.33860900  0.41625200  1
  Th  Th15  1  0.33860900  0.66139100  0.41625200  1
  Th  Th16  1  0.33207800  0.33207800  0.91647000  1
  Th  Th17  1  0.66792200  0.66792200  0.91647000  1
  Th  Th18  1  0.66792200  0.33207800  0.08353000  1
  Th  Th19  1  0.33207800  0.66792200  0.08353000  1
  Th  Th20  1  0.83198600  0.83198600  0.41631300  1
  Th  Th21  1  0.16801400  0.16801400  0.41631300  1
  Th  Th22  1  0.16801400  0.83198600  0.58368700  1
  Th  Th23  1  0.83198600  0.16801400  0.58368700  1
  Al  Al0  1  0.50000000  0.00000000  0.33322100  1
  Al  Al1  1  0.50000000  0.00000000  0.66677900  1
  Al  Al2  1  0.00000000  0.50000000  0.66677900  1
  Al  Al3  1  0.00000000  0.50000000  0.33322100  1
  Al  Al4  1  0.50000000  0.00000000  0.16760000  1
  Al  Al5  1  0.50000000  0.00000000  0.83240000  1
  Al  Al6  1  0.00000000  0.50000000  0.83240000  1
  Al  Al7  1  0.00000000  0.50000000  0.16760000  1
  Al  Al8  1  0.00000000  0.50000000  0.00000000  1
  Al  Al9  1  0.50000000  0.00000000  0.00000000  1
  Al  Al10  1  0.00000000  0.50000000  0.50000000  1
  Al  Al11  1  0.50000000  0.00000000  0.50000000  1
  H  H0  1  0.37116300  0.37116300  0.36732800  1
  H  H1  1  0.62883700  0.62883700  0.36732800  1
  H  H2  1  0.62883700  0.37116300  0.63267200  1
  H  H3  1  0.37116300  0.62883700  0.63267200  1
  H  H4  1  0.37246200  0.37246200  0.12307300  1
  H  H5  1  0.62753800  0.62753800  0.12307300  1
  H  H6  1  0.62753800  0.37246200  0.87692700  1
  H  H7  1  0.37246200  0.62753800  0.87692700  1
  H  H8  1  0.37234100  0.37234100  0.70854000  1
  H  H9  1  0.62765900  0.62765900  0.70854000  1
  H  H10  1  0.62765900  0.37234100  0.29146000  1
  H  H11  1  0.37234100  0.62765900  0.29146000  1
  H  H12  1  0.37185400  0.37185400  0.46606900  1
  H  H13  1  0.62814600  0.62814600  0.46606900  1
  H  H14  1  0.62814600  0.37185400  0.53393100  1
  H  H15  1  0.37185400  0.62814600  0.53393100  1
  H  H16  1  0.86783000  0.86783000  0.86490700  1
  H  H17  1  0.13217000  0.13217000  0.86490700  1
  H  H18  1  0.13217000  0.86783000  0.13509300  1
  H  H19  1  0.86783000  0.13217000  0.13509300  1
  H  H20  1  0.87315600  0.87315600  0.62037700  1
  H  H21  1  0.12684400  0.12684400  0.62037700  1
  H  H22  1  0.12684400  0.87315600  0.37962300  1
  H  H23  1  0.87315600  0.12684400  0.37962300  1
  H  H24  1  0.87311600  0.87311600  0.21057900  1
  H  H25  1  0.12688400  0.12688400  0.21057900  1
  H  H26  1  0.12688400  0.87311600  0.78942100  1
  H  H27  1  0.87311600  0.12688400  0.78942100  1
  H  H28  1  0.86984300  0.86984300  0.96573500  1
  H  H29  1  0.13015700  0.13015700  0.96573500  1
  H  H30  1  0.13015700  0.86984300  0.03426500  1
  H  H31  1  0.86984300  0.13015700  0.03426500  1
  H  H32  1  0.50000000  0.50000000  0.00000000  1
loop_
_geom_bond_atom_site_label_1
_geom_bond_atom_site_label_2
_geom_bond_distance
_geom_bond_site_symmetry_2
Al0 Al4 3.150776 1_555
Al0 Al11 3.172806 1_555
Al0 Th6 3.258084 1_545
Al0 Th7 3.258084 1_555
Al0 Th21 3.271544 1_555
Al0 Th20 3.271544 1_545
Al0 Th14 3.291389 1_555
Al0 Th15 3.291389 1_545
Al0 Th0 3.291637 1_555
Al0 Th1 3.291637 1_545
Al1 Al5 3.150776 1_555
Al1 Al11 3.172806 1_555
Al1 Th4 3.258084 1_545
Al1 Th5 3.258084 1_555
Al1 Th22 3.271544 1_545
Al1 Th23 3.271544 1_555
Al1 Th12 3.291389 1_555
Al1 Th13 3.291389 1_545
Al1 Th2 3.291637 1_555
Al1 Th3 3.291637 1_545
Al2 Al6 3.150776 1_555
Al2 Th4 3.258084 1_455
Al2 Th5 3.258084 1_555
Al2 Th23 3.271544 1_455
Al2 Th22 3.271544 1_555
Al2 Th12 3.291389 1_555
Al2 Th13 3.291389 1_455
Al2 Th3 3.291637 1_555
Al2 Th2 3.291637 1_455
Al3 Al7 3.150776 1_555
Al3 Th7 3.258084 1_455
Al3 Th6 3.258084 1_555
Al3 Th20 3.271544 1_455
Al3 Th21 3.271544 1_555
Al3 Th15 3.291389 1_555
Al3 Th14 3.291389 1_455
Al3 Th1 3.291637 1_455
Al3 Th0 3.291637 1_555
Al4 Al9 3.188424 1_555
Al4 Th1 3.272360 1_545
Al4 Th0 3.272360 1_555
Al4 Th19 3.280847 1_545
Al4 Th18 3.280847 1_555
Al4 Th8 3.295860 1_545
Al4 Th9 3.295860 1_555
Al4 Th6 3.311487 1_545
Al4 Th7 3.311487 1_555
Al5 Al9 3.188424 1_556
Al5 Th2 3.272360 1_555
Al5 Th3 3.272360 1_545
Al5 Th17 3.280847 1_545
Al5 Th16 3.280847 1_555
Al5 Th10 3.295860 1_545
Al5 Th11 3.295860 1_555
Al5 Th4 3.311487 1_545
Al5 Th5 3.311487 1_555
Al6 Al8 3.188424 1_556
Al6 Th3 3.272360 1_555
Al6 Th2 3.272360 1_455
Al6 Th17 3.280847 1_455
Al6 Th16 3.280847 1_555
Al6 Th11 3.295860 1_455
Al6 Th10 3.295860 1_555
Al6 Th4 3.311487 1_455
Al6 Th5 3.311487 1_555
Al7 Al8 3.188424 1_555
Al7 Th1 3.272360 1_455
Al7 Th0 3.272360 1_555
Al7 Th19 3.280847 1_555
Al7 Th18 3.280847 1_455
Al7 Th9 3.295860 1_555
Al7 Th8 3.295860 1_455
Al7 Th6 3.311487 1_555
Al7 Th7 3.311487 1_455
Al8 Th19 3.275851 1_555
Al8 Th17 3.275851 1_454
Al8 Th18 3.275851 1_455
Al8 Th16 3.275851 1_554
Al8 Th9 3.308993 1_555
Al8 Th8 3.308993 1_455
Al8 Th11 3.308993 1_454
Al8 Th10 3.308993 1_554
Al9 Th19 3.275851 1_545
Al9 Th17 3.275851 1_544
Al9 Th16 3.275851 1_554
Al9 Th18 3.275851 1_555
Al9 Th8 3.308993 1_545
Al9 Th10 3.308993 1_544
Al9 Th11 3.308993 1_554
Al9 Th9 3.308993 1_555
Al10 Al3 3.172806 1_555
Al10 Al2 3.172806 1_555
Al10 Th23 3.277028 1_455
Al10 Th22 3.277028 1_555
Al10 Th20 3.277028 1_455
Al10 Th21 3.277028 1_555
Al10 Th15 3.297957 1_555
Al10 Th12 3.297957 1_555
Al10 Th14 3.297957 1_455
Al10 Th13 3.297957 1_455
Al11 Th23 3.277028 1_555
Al11 Th22 3.277028 1_545
Al11 Th21 3.277028 1_555
Al11 Th20 3.277028 1_545
Al11 Th14 3.297957 1_555
Al11 Th15 3.297957 1_545
Al11 Th12 3.297957 1_555
Al11 Th13 3.297957 1_545
H0 Th0 2.276270 1_555
H0 Th21 2.399946 1_555
H0 Th15 2.433254 1_555
H0 Th14 2.433254 1_555
H1 Th1 2.276270 1_555
H1 Th20 2.399946 1_555
H1 Th15 2.433254 1_555
H1 Th14 2.433254 1_555
H2 Th2 2.276270 1_555
H2 Th23 2.399946 1_555
H2 Th13 2.433254 1_555
H2 Th12 2.433254 1_555
H3 Th3 2.276270 1_555
H3 Th22 2.399946 1_555
H3 Th13 2.433254 1_555
H3 Th12 2.433254 1_555
H4 Th19 2.415742 1_555
H4 Th18 2.415742 1_555
H4 Th9 2.424970 1_555
H4 Th0 2.434515 1_555
H5 Th19 2.415742 1_555
H5 Th18 2.415742 1_555
H5 Th8 2.424970 1_555
H5 Th1 2.434515 1_555
H6 Th17 2.415742 1_555
H6 Th16 2.415742 1_555
H6 Th11 2.424970 1_555
H6 Th2 2.434515 1_555
H7 Th17 2.415742 1_555
H7 Th16 2.415742 1_555
H7 Th10 2.424970 1_555
H7 Th3 2.434515 1_555
H8 Th5 2.392115 1_555
H8 Th2 2.398128 1_555
H8 Th3 2.398128 1_555
H8 Th12 2.402279 1_555
H9 Th4 2.392115 1_555
H9 Th2 2.398128 1_555
H9 Th3 2.398128 1_555
H9 Th13 2.402279 1_555
H10 Th7 2.392115 1_555
H10 Th0 2.398128 1_555
H10 Th1 2.398128 1_555
H10 Th14 2.402279 1_555
H11 Th6 2.392115 1_555
H11 Th0 2.398128 1_555
H11 Th1 2.398128 1_555
H11 Th15 2.402279 1_555
H12 Th12 2.267794 1_555
H12 Th21 2.412597 1_555
H12 Th15 2.435486 1_555
H12 Th14 2.435486 1_555
H13 Th13 2.267794 1_555
H13 Th20 2.412597 1_555
H13 Th15 2.435486 1_555
H13 Th14 2.435486 1_555
H14 Th14 2.267794 1_555
H14 Th23 2.412597 1_555
H14 Th13 2.435486 1_555
H14 Th12 2.435486 1_555
H15 Th15 2.267794 1_555
H15 Th22 2.412597 1_555
H15 Th13 2.435486 1_555
H15 Th12 2.435486 1_555
H16 Th4 2.274307 1_555
H16 Th17 2.387201 1_555
H16 Th11 2.456863 1_565
H16 Th10 2.456863 1_655
H17 Th5 2.274307 1_555
H17 Th16 2.387201 1_555
H17 Th11 2.456863 1_455
H17 Th10 2.456863 1_545
H18 Th6 2.274307 1_555
H18 Th19 2.387201 1_555
H18 Th8 2.456863 1_455
H18 Th9 2.456863 1_565
H19 Th7 2.274307 1_555
H19 Th18 2.387201 1_555
H19 Th8 2.456863 1_545
H19 Th9 2.456863 1_655
H20 Th22 2.395795 1_655
H20 Th23 2.395795 1_565
H20 Th13 2.408442 1_555
H20 Th4 2.434421 1_555
H21 Th22 2.395795 1_545
H21 Th23 2.395795 1_455
H21 Th12 2.408442 1_555
H21 Th5 2.434421 1_555
H22 Th21 2.395795 1_565
H22 Th20 2.395795 1_455
H22 Th15 2.408442 1_555
H22 Th6 2.434421 1_555
H23 Th21 2.395795 1_655
H23 Th20 2.395795 1_545
H23 Th14 2.408442 1_555
H23 Th7 2.434421 1_555
H24 Th6 2.391046 1_655
H24 Th7 2.391046 1_565
H24 Th1 2.395755 1_555
H24 Th8 2.425437 1_555
H25 Th7 2.391046 1_455
H25 Th6 2.391046 1_545
H25 Th0 2.395755 1_555
H25 Th9 2.425437 1_555
H26 Th5 2.391046 1_565
H26 Th4 2.391046 1_455
H26 Th3 2.395755 1_555
H26 Th10 2.425437 1_555
H27 Th5 2.391046 1_655
H27 Th4 2.391046 1_545
H27 Th2 2.395755 1_555
H27 Th11 2.425437 1_555
H28 Th8 2.283145 1_556
H28 Th17 2.389716 1_555
H28 Th11 2.441643 1_565
H28 Th10 2.441643 1_655
H29 Th9 2.283145 1_556
H29 Th16 2.389716 1_555
H29 Th11 2.441643 1_455
H29 Th10 2.441643 1_545
H30 Th10 2.283145 1_554
H30 Th19 2.389716 1_555
H30 Th8 2.441643 1_455
H30 Th9 2.441643 1_565
H31 Th11 2.283145 1_554
H31 Th18 2.389716 1_555
H31 Th8 2.441643 1_545
H31 Th9 2.441643 1_655
H32 Th17 2.422231 1_554
H32 Th16 2.422231 1_554
H32 Th19 2.422231 1_555
H32 Th18 2.422231 1_555
