# generated using pymatgen
data_NaMnPCO7
_symmetry_space_group_name_H-M   'P 1'
_cell_length_a   8.18021399
_cell_length_b   8.18021399
_cell_length_c   10.30199817
_cell_angle_alpha   72.15870900
_cell_angle_beta   72.15870900
_cell_angle_gamma   100.20906116
_symmetry_Int_Tables_number   1
_chemical_formula_structural   NaMnPCO7
_chemical_formula_sum   'Na4 Mn4 P4 C4 O28'
_cell_volume   596.04252670
_cell_formula_units_Z   4
loop_
 _symmetry_equiv_pos_site_id
 _symmetry_equiv_pos_as_xyz
  1  'x, y, z'
loop_
 _atom_site_type_symbol
 _atom_site_label
 _atom_site_symmetry_multiplicity
 _atom_site_fract_x
 _atom_site_fract_y
 _atom_site_fract_z
 _atom_site_occupancy
  Na  Na0  1  0.76105000  0.47107200  0.75650400  1
  Na  Na1  1  0.47107200  0.76105000  0.75650400  1
  Na  Na2  1  0.50821100  0.75848500  0.23386500  1
  Na  Na3  1  0.75848500  0.50821100  0.23386500  1
  Mn  Mn0  1  0.94395900  0.94395900  0.65460900  1
  Mn  Mn1  1  0.42806900  0.42806900  0.66090300  1
  Mn  Mn2  1  0.56233900  0.06276800  0.34319300  1
  Mn  Mn3  1  0.06276800  0.56233900  0.34319300  1
  P  P0  1  0.20002500  0.70229600  0.56829100  1
  P  P1  1  0.70229600  0.20002500  0.56829100  1
  P  P2  1  0.30135300  0.30135300  0.42804400  1
  P  P3  1  0.79594700  0.79594700  0.43606500  1
  C  C0  1  0.78045800  0.78045800  0.91859400  1
  C  C1  1  0.27551200  0.27551200  0.92790300  1
  C  C2  1  0.72947400  0.21649100  0.07796600  1
  C  C3  1  0.21649100  0.72947400  0.07796600  1
  O  O0  1  0.29964500  0.81273600  0.94448400  1
  O  O1  1  0.81273600  0.29964500  0.94448400  1
  O  O2  1  0.42076800  0.42076800  0.85969700  1
  O  O3  1  0.92101200  0.92101200  0.85789900  1
  O  O4  1  0.73683700  0.73683700  0.81639700  1
  O  O5  1  0.22974500  0.22974500  0.82869300  1
  O  O6  1  0.28086200  0.58957400  0.66889900  1
  O  O7  1  0.08261300  0.77698900  0.67075100  1
  O  O8  1  0.77698900  0.08261300  0.67075100  1
  O  O9  1  0.58957400  0.28086200  0.66889900  1
  O  O10  1  0.15307600  0.15307600  0.56620000  1
  O  O11  1  0.57948700  0.07587100  0.52492600  1
  O  O12  1  0.07587100  0.57948700  0.52492600  1
  O  O13  1  0.64909300  0.64909300  0.58045000  1
  O  O14  1  0.34843100  0.84915900  0.42675700  1
  O  O15  1  0.42491500  0.42491500  0.47313200  1
  O  O16  1  0.91842100  0.91842100  0.47853500  1
  O  O17  1  0.84915900  0.34843100  0.42675700  1
  O  O18  1  0.23247800  0.42736000  0.32512400  1
  O  O19  1  0.42736000  0.23247800  0.32512400  1
  O  O20  1  0.70968600  0.90159500  0.33598000  1
  O  O21  1  0.90159500  0.70968600  0.33598000  1
  O  O22  1  0.77077000  0.25879700  0.18095000  1
  O  O23  1  0.25879700  0.77077000  0.18095000  1
  O  O24  1  0.58533300  0.07506400  0.14104700  1
  O  O25  1  0.07506400  0.58533300  0.14104700  1
  O  O26  1  0.69488500  0.69488500  0.05384800  1
  O  O27  1  0.19728500  0.19728500  0.06155700  1
loop_
_geom_bond_atom_site_label_1
_geom_bond_atom_site_label_2
_geom_bond_distance
_geom_bond_site_symmetry_2
Na0 O1 2.223369 1_555
Na0 O4 2.458861 1_555
Na0 O9 2.462855 1_555
Na0 O13 2.474087 1_555
Na0 O2 2.561333 1_555
Na0 O12 2.690628 1_655
Na1 O0 2.223369 1_555
Na1 O4 2.458861 1_555
Na1 O6 2.462855 1_555
Na1 O13 2.474087 1_555
Na1 O2 2.561333 1_555
Na1 O11 2.690628 1_565
Na2 O26 2.275816 1_555
Na2 O23 2.278280 1_555
Na2 O24 2.356405 1_565
Na2 O14 2.421296 1_555
Na2 O20 2.515257 1_555
Na2 O15 2.859395 1_555
Na2 O18 2.877979 1_555
Na3 O26 2.275816 1_555
Na3 O22 2.278280 1_555
Na3 O25 2.356405 1_655
Na3 O17 2.421296 1_555
Na3 O21 2.515257 1_555
Na3 O15 2.859395 1_555
Na3 O19 2.877979 1_555
Mn0 O7 1.924891 1_655
Mn0 O8 1.924891 1_565
Mn0 O10 1.932695 1_665
Mn0 O16 1.956143 1_555
Mn0 O3 1.990543 1_555
Mn0 O4 2.010202 1_555
Mn1 O6 1.942195 1_555
Mn1 O9 1.942195 1_555
Mn1 O15 1.950443 1_555
Mn1 O5 1.970316 1_555
Mn1 O2 2.012505 1_555
Mn1 O13 2.056593 1_555
Mn2 O19 1.921472 1_555
Mn2 O20 1.940379 1_545
Mn2 O11 1.953179 1_555
Mn2 O22 1.978472 1_555
Mn2 O14 1.981815 1_545
Mn2 O24 2.001812 1_555
Mn3 O18 1.921472 1_555
Mn3 O21 1.940379 1_455
Mn3 O12 1.953179 1_555
Mn3 O23 1.978472 1_555
Mn3 O17 1.981815 1_455
Mn3 O25 2.001812 1_555
C0 O26 1.245990 1_556
C0 O3 1.298158 1_555
C0 O4 1.333561 1_555
C1 O27 1.220605 1_556
C1 O5 1.320678 1_555
C1 O2 1.339325 1_555
C2 O1 1.227299 1_554
C2 O24 1.318051 1_555
C2 O22 1.327641 1_555
C3 O0 1.227299 1_554
C3 O25 1.318051 1_555
C3 O23 1.327641 1_555
O6 P0 1.553147 1_555
O7 P0 1.546600 1_555
O8 P1 1.546600 1_555
O9 P1 1.553147 1_555
O10 P2 1.526748 1_555
O11 P1 1.559368 1_555
O12 P0 1.559368 1_555
O13 P3 1.548332 1_555
O14 P0 1.538848 1_555
O15 P2 1.572345 1_555
O16 P3 1.542817 1_555
O17 P1 1.538848 1_555
O18 P2 1.551235 1_555
O19 P2 1.551235 1_555
O20 P3 1.556885 1_555
O21 P3 1.556885 1_555
