# generated using pymatgen
data_Yb6H20N8O49
_symmetry_space_group_name_H-M   'P 1'
_cell_length_a   10.14965700
_cell_length_b   10.31901813
_cell_length_c   11.48385659
_cell_angle_alpha   95.98916879
_cell_angle_beta   109.75412361
_cell_angle_gamma   108.50932435
_symmetry_Int_Tables_number   1
_chemical_formula_structural   Yb6H20N8O49
_chemical_formula_sum   'Yb6 H20 N8 O49'
_cell_volume   1042.80304504
_cell_formula_units_Z   1
loop_
 _symmetry_equiv_pos_site_id
 _symmetry_equiv_pos_as_xyz
  1  'x, y, z'
loop_
 _atom_site_type_symbol
 _atom_site_label
 _atom_site_symmetry_multiplicity
 _atom_site_fract_x
 _atom_site_fract_y
 _atom_site_fract_z
 _atom_site_occupancy
  Yb  Yb0  1  0.74442300  0.47040700  0.61563100  1
  Yb  Yb1  1  0.25557700  0.52959300  0.38436900  1
  Yb  Yb2  1  0.36106300  0.24040200  0.47662400  1
  Yb  Yb3  1  0.63893700  0.75959800  0.52337600  1
  Yb  Yb4  1  0.54273100  0.45191200  0.30788000  1
  Yb  Yb5  1  0.45726900  0.54808800  0.69212000  1
  H  H0  1  0.59742200  0.20801200  0.39851200  1
  H  H1  1  0.40257800  0.79198800  0.60148800  1
  H  H2  1  0.84001000  0.65333300  0.44185500  1
  H  H3  1  0.15999000  0.34666700  0.55814500  1
  H  H4  1  0.20426700  0.26822000  0.21921900  1
  H  H5  1  0.79573300  0.73178000  0.78078100  1
  H  H6  1  0.43237200  0.66821700  0.24244500  1
  H  H7  1  0.56762800  0.33178300  0.75755500  1
  H  H8  1  0.98752100  0.72734300  0.64600700  1
  H  H9  1  0.01247900  0.27265700  0.35399300  1
  H  H10  1  0.09644700  0.65602500  0.71759500  1
  H  H11  1  0.90355300  0.34397500  0.28240500  1
  H  H12  1  0.96129300  0.53592800  0.87535000  1
  H  H13  1  0.03870700  0.46407200  0.12465000  1
  H  H14  1  0.18312200  0.97986400  0.20929200  1
  H  H15  1  0.81687800  0.02013600  0.79070800  1
  H  H16  1  0.06737000  0.95527900  0.35104900  1
  H  H17  1  0.93263000  0.04472100  0.64895100  1
  H  H18  1  0.01956500  0.80693700  0.86537500  1
  H  H19  1  0.98043500  0.19306300  0.13462500  1
  N  N0  1  0.90482700  0.27612700  0.60597400  1
  N  N1  1  0.09517300  0.72387300  0.39402600  1
  N  N2  1  0.31911700  0.01940900  0.63285100  1
  N  N3  1  0.68088300  0.98059100  0.36714900  1
  N  N4  1  0.75438100  0.50115900  0.17980100  1
  N  N5  1  0.24561900  0.49884100  0.82019900  1
  N  N6  1  0.67576800  0.20378700  0.95628300  1
  N  N7  1  0.32423200  0.79621300  0.04371700  1
  O  O0  1  0.50000000  0.50000000  0.50000000  1
  O  O1  1  0.57449400  0.28723800  0.42844700  1
  O  O2  1  0.42550600  0.71276200  0.57155300  1
  O  O3  1  0.75785600  0.61746200  0.47044700  1
  O  O4  1  0.24214400  0.38253800  0.52955300  1
  O  O5  1  0.29828300  0.33628500  0.29384000  1
  O  O6  1  0.70171700  0.66371500  0.70616000  1
  O  O7  1  0.46367800  0.63911000  0.32297700  1
  O  O8  1  0.53632200  0.36089000  0.67702300  1
  O  O9  1  0.00354100  0.67231400  0.70990100  1
  O  O10  1  0.99645900  0.32768600  0.29009900  1
  O  O11  1  0.85165600  0.51517200  0.84260500  1
  O  O12  1  0.14834400  0.48482800  0.15739500  1
  O  O13  1  0.23300100  0.03183200  0.29908000  1
  O  O14  1  0.76699900  0.96816800  0.70092000  1
  O  O15  1  0.10898600  0.04767800  0.32850600  1
  O  O16  1  0.89101400  0.95232200  0.67149400  1
  O  O17  1  0.36677200  0.20852700  0.05093900  1
  O  O18  1  0.63322800  0.79147300  0.94906100  1
  O  O19  1  0.36071900  0.33094000  0.08387100  1
  O  O20  1  0.63928100  0.66906000  0.91612900  1
  O  O21  1  0.74604900  0.88093000  0.04319400  1
  O  O22  1  0.25395100  0.11907000  0.95680600  1
  O  O23  1  0.95180700  0.83267600  0.90057900  1
  O  O24  1  0.04819300  0.16732400  0.09942100  1
  O  O25  1  0.81350300  0.25243700  0.65998500  1
  O  O26  1  0.18649700  0.74756300  0.34001500  1
  O  O27  1  0.92729300  0.38254500  0.55868500  1
  O  O28  1  0.07270700  0.61745500  0.44131500  1
  O  O29  1  0.97563000  0.19594500  0.59762700  1
  O  O30  1  0.02437000  0.80405500  0.40237300  1
  O  O31  1  0.24464400  0.09683100  0.63007600  1
  O  O32  1  0.75535600  0.90316900  0.36992400  1
  O  O33  1  0.40899900  0.04141700  0.57599500  1
  O  O34  1  0.59100100  0.95858300  0.42400500  1
  O  O35  1  0.30531200  0.92120100  0.68906400  1
  O  O36  1  0.69468800  0.07879900  0.31093600  1
  O  O37  1  0.73801400  0.40374400  0.24104500  1
  O  O38  1  0.26198600  0.59625600  0.75895500  1
  O  O39  1  0.66473400  0.56542600  0.16563200  1
  O  O40  1  0.33526600  0.43457400  0.83436800  1
  O  O41  1  0.85562000  0.53105600  0.13764100  1
  O  O42  1  0.14438000  0.46894400  0.86235900  1
  O  O43  1  0.57138400  0.24397700  0.89977900  1
  O  O44  1  0.42861600  0.75602300  0.10022100  1
  O  O45  1  0.66923000  0.14246500  0.04346500  1
  O  O46  1  0.33077000  0.85753500  0.95653500  1
  O  O47  1  0.78741700  0.22591900  0.92497300  1
  O  O48  1  0.21258300  0.77408100  0.07502700  1
loop_
_geom_bond_atom_site_label_1
_geom_bond_atom_site_label_2
_geom_bond_distance
_geom_bond_site_symmetry_2
H0 O1 0.978221 1_555
H1 O2 0.978221 1_555
H2 O3 0.977023 1_555
H3 O4 0.977023 1_555
H4 O5 1.017019 1_555
H4 O24 1.633038 1_555
H5 O6 1.017019 1_555
H5 O23 1.633038 1_555
H6 O7 0.983050 1_555
H7 O8 0.983050 1_555
H8 O9 0.975806 1_655
H9 O10 0.975806 1_455
H10 O9 0.986233 1_555
H11 O10 0.986233 1_555
H12 O11 0.987200 1_555
H13 O12 0.987200 1_555
H14 O13 0.983078 1_565
H15 O14 0.983078 1_545
H16 O15 1.012054 1_565
H16 O30 1.704810 1_555
H17 O16 1.012054 1_545
H17 O29 1.704810 1_555
H18 O23 0.994208 1_455
H19 O24 0.994208 1_655
N0 O25 1.256994 1_555
N0 O27 1.265688 1_555
N0 O29 1.271901 1_555
N1 O26 1.256994 1_555
N1 O28 1.265688 1_555
N1 O30 1.271901 1_555
N2 O35 1.253341 1_545
N2 O31 1.258206 1_555
N2 O33 1.269711 1_555
N3 O36 1.253341 1_565
N3 O32 1.258206 1_555
N3 O34 1.269711 1_555
N4 O41 1.245639 1_555
N4 O39 1.264802 1_555
N4 O37 1.285777 1_555
N5 O42 1.245639 1_555
N5 O40 1.264802 1_555
N5 O38 1.285777 1_555
N6 O45 1.248057 1_556
N6 O43 1.259335 1_555
N6 O47 1.262468 1_555
N7 O46 1.248057 1_554
N7 O44 1.259335 1_555
N7 O48 1.262468 1_555
O0 Yb5 2.420123 1_555
O0 Yb4 2.420123 1_555
O0 Yb0 2.519874 1_555
O0 Yb1 2.519874 1_555
O0 Yb3 2.536176 1_555
O0 Yb2 2.536176 1_555
O1 Yb2 2.330995 1_555
O1 Yb4 2.333576 1_555
O1 Yb0 2.396707 1_555
O2 Yb3 2.330995 1_555
O2 Yb5 2.333576 1_555
O2 Yb1 2.396707 1_555
O3 Yb4 2.319883 1_555
O3 Yb3 2.326234 1_555
O3 Yb0 2.377256 1_555
O4 Yb5 2.319883 1_555
O4 Yb2 2.326234 1_555
O4 Yb1 2.377256 1_555
O5 Yb4 2.327057 1_555
O5 Yb1 2.380868 1_555
O5 Yb2 2.391779 1_555
O6 Yb5 2.327057 1_555
O6 Yb0 2.380868 1_555
O6 Yb3 2.391779 1_555
O7 Yb3 2.288612 1_555
O7 Yb4 2.326697 1_555
O7 Yb1 2.427492 1_555
O8 Yb2 2.288612 1_555
O8 Yb5 2.326697 1_555
O8 Yb0 2.427492 1_555
O9 Yb0 2.560328 1_455
O10 Yb1 2.560328 1_655
O11 Yb0 2.388275 1_555
O12 Yb1 2.388275 1_555
O13 Yb2 2.448543 1_555
O14 Yb3 2.448543 1_555
O15 Yb2 2.552641 1_555
O16 Yb3 2.552641 1_555
O17 O22 1.271149 1_554
O17 O19 1.306796 1_555
O18 O21 1.271149 1_556
O18 O20 1.306796 1_555
O19 Yb4 2.498399 1_555
O20 Yb5 2.498399 1_555
O25 Yb0 2.609416 1_555
O26 Yb1 2.609416 1_555
O27 Yb0 2.541626 1_555
O28 Yb1 2.541626 1_555
O31 Yb2 2.745432 1_555
O32 Yb3 2.745432 1_555
O33 Yb2 2.550116 1_555
O34 Yb3 2.550116 1_555
O37 Yb4 2.517721 1_555
O38 Yb5 2.517721 1_555
O39 Yb4 2.533705 1_555
O40 Yb5 2.533705 1_555
