# generated using pymatgen
data_LiFeF4
_symmetry_space_group_name_H-M   'P 1'
_cell_length_a   3.96847300
_cell_length_b   6.56917100
_cell_length_c   12.39890237
_cell_angle_alpha   70.79447275
_cell_angle_beta   90.00000000
_cell_angle_gamma   90.00000000
_symmetry_Int_Tables_number   1
_chemical_formula_structural   LiFeF4
_chemical_formula_sum   'Li4 Fe4 F16'
_cell_volume   305.24443649
_cell_formula_units_Z   4
loop_
 _symmetry_equiv_pos_site_id
 _symmetry_equiv_pos_as_xyz
  1  'x, y, z'
loop_
 _atom_site_type_symbol
 _atom_site_label
 _atom_site_symmetry_multiplicity
 _atom_site_fract_x
 _atom_site_fract_y
 _atom_site_fract_z
 _atom_site_occupancy
  Li  Li0  1  0.00943200  0.64567100  0.89118300  1
  Li  Li1  1  0.49056800  0.64567100  0.39118300  1
  Li  Li2  1  0.50943200  0.35432900  0.60881700  1
  Li  Li3  1  0.99056800  0.35432900  0.10881700  1
  Fe  Fe0  1  0.25193700  0.84980600  0.61279000  1
  Fe  Fe1  1  0.24806300  0.84980600  0.11279000  1
  Fe  Fe2  1  0.75193700  0.15019400  0.88721000  1
  Fe  Fe3  1  0.74806300  0.15019400  0.38721000  1
  F  F0  1  0.25626400  0.10143100  0.65103100  1
  F  F1  1  0.24373600  0.10143100  0.15103100  1
  F  F2  1  0.75640800  0.90356600  0.57106000  1
  F  F3  1  0.74359200  0.90356600  0.07106000  1
  F  F4  1  0.25107200  0.65359500  0.75909100  1
  F  F5  1  0.29132400  0.63519200  0.53824200  1
  F  F6  1  0.24892800  0.65359500  0.25909100  1
  F  F7  1  0.79132400  0.36480800  0.96175800  1
  F  F8  1  0.20867600  0.63519200  0.03824200  1
  F  F9  1  0.75107200  0.34640500  0.74090900  1
  F  F10  1  0.70867600  0.36480800  0.46175800  1
  F  F11  1  0.74892800  0.34640500  0.24090900  1
  F  F12  1  0.25640800  0.09643400  0.92894000  1
  F  F13  1  0.24359200  0.09643400  0.42894000  1
  F  F14  1  0.75626400  0.89856900  0.84896900  1
  F  F15  1  0.74373600  0.89856900  0.34896900  1
loop_
_geom_bond_atom_site_label_1
_geom_bond_atom_site_label_2
_geom_bond_distance
_geom_bond_site_symmetry_2
F0 Li2 1.863138 1_555
F0 Fe0 1.863613 1_545
F1 Li3 1.863138 1_455
F1 Fe1 1.863613 1_545
F2 Fe0 2.034529 1_655
F2 Fe0 2.068848 1_555
F2 Fe3 2.322166 1_565
F3 Fe1 2.034529 1_555
F3 Fe1 2.068848 1_655
F3 Fe2 2.322166 1_564
F4 Fe0 1.847594 1_555
F4 Li0 1.883763 1_555
F5 Fe0 1.929708 1_555
F5 Li2 1.963888 1_555
F5 Li1 1.967749 1_555
F6 Fe1 1.847594 1_555
F6 Li1 1.883763 1_555
F7 Fe2 1.929708 1_555
F7 Li0 1.963888 1_655
F7 Li3 1.967749 1_556
F8 Fe1 1.929708 1_555
F8 Li3 1.963888 1_455
F8 Li0 1.967749 1_554
F9 Fe2 1.847594 1_555
F9 Li2 1.883763 1_555
F10 Fe3 1.929708 1_555
F10 Li1 1.963888 1_555
F10 Li2 1.967749 1_555
F11 Fe3 1.847594 1_555
F11 Li3 1.883763 1_555
F12 Fe2 2.034529 1_555
F12 Fe2 2.068848 1_455
F12 Fe1 2.322166 1_546
F13 Fe3 2.034529 1_455
F13 Fe3 2.068848 1_555
F13 Fe0 2.322166 1_545
F14 Li0 1.863138 1_655
F14 Fe2 1.863613 1_565
F15 Li1 1.863138 1_555
F15 Fe3 1.863613 1_565
