# generated using pymatgen
data_Li2Ni3(P2O7)2
_symmetry_space_group_name_H-M   'P 1'
_cell_length_a   6.98092607
_cell_length_b   8.72308289
_cell_length_c   9.52644765
_cell_angle_alpha   74.26548284
_cell_angle_beta   94.60382998
_cell_angle_gamma   67.33101905
_symmetry_Int_Tables_number   1
_chemical_formula_structural   Li2Ni3(P2O7)2
_chemical_formula_sum   'Li4 Ni6 P8 O28'
_cell_volume   503.96682146
_cell_formula_units_Z   2
loop_
 _symmetry_equiv_pos_site_id
 _symmetry_equiv_pos_as_xyz
  1  'x, y, z'
loop_
 _atom_site_type_symbol
 _atom_site_label
 _atom_site_symmetry_multiplicity
 _atom_site_fract_x
 _atom_site_fract_y
 _atom_site_fract_z
 _atom_site_occupancy
  Li  Li0  1  0.00510800  0.00989600  0.67834900  1
  Li  Li1  1  0.00502800  0.50990500  0.17842500  1
  Li  Li2  1  0.99501500  0.49000700  0.82168100  1
  Li  Li3  1  0.99499200  0.98994000  0.32157400  1
  Ni  Ni0  1  0.99971300  0.50022000  0.49997600  1
  Ni  Ni1  1  0.48754200  0.32807700  0.99829300  1
  Ni  Ni2  1  0.51241500  0.67202900  0.00163300  1
  Ni  Ni3  1  0.00013900  0.99986400  0.99989200  1
  Ni  Ni4  1  0.48760400  0.82825900  0.49828300  1
  Ni  Ni5  1  0.51265600  0.17202600  0.50187900  1
  P  P0  1  0.71993900  0.85647600  0.79638600  1
  P  P1  1  0.71995600  0.35647800  0.29637700  1
  P  P2  1  0.28007800  0.64350100  0.70360700  1
  P  P3  1  0.28003400  0.14352500  0.20361600  1
  P  P4  1  0.29641200  0.15122200  0.78669700  1
  P  P5  1  0.29642100  0.65121400  0.28672000  1
  P  P6  1  0.70358300  0.34877600  0.71333800  1
  P  P7  1  0.70350300  0.84875900  0.21328200  1
  O  O0  1  0.26747900  0.23504800  0.61611900  1
  O  O1  1  0.26749500  0.73503600  0.11612200  1
  O  O2  1  0.73251400  0.26492200  0.88390500  1
  O  O3  1  0.73248500  0.76494900  0.38388300  1
  O  O4  1  0.65506300  0.91343000  0.62424900  1
  O  O5  1  0.65505300  0.41339000  0.12424300  1
  O  O6  1  0.34496100  0.58659000  0.87574800  1
  O  O7  1  0.34494100  0.08666500  0.37574000  1
  O  O8  1  0.28871400  0.77979900  0.36888800  1
  O  O9  1  0.28862900  0.27981400  0.86885400  1
  O  O10  1  0.71127500  0.72016500  0.13110900  1
  O  O11  1  0.71142700  0.22014300  0.63118200  1
  O  O12  1  0.91559000  0.87855900  0.84954600  1
  O  O13  1  0.91554900  0.37861300  0.34956800  1
  O  O14  1  0.08443900  0.62143000  0.65045000  1
  O  O15  1  0.08444600  0.12137400  0.15043200  1
  O  O16  1  0.52901800  0.98917700  0.84976200  1
  O  O17  1  0.52902300  0.48915800  0.34977100  1
  O  O18  1  0.47097400  0.51079200  0.65023200  1
  O  O19  1  0.47095200  0.01082000  0.15022600  1
  O  O20  1  0.26807000  0.82862600  0.63377900  1
  O  O21  1  0.26804200  0.32863500  0.13375900  1
  O  O22  1  0.73194200  0.67136700  0.86620800  1
  O  O23  1  0.73195800  0.17136400  0.36622100  1
  O  O24  1  0.85226200  0.43673700  0.67110700  1
  O  O25  1  0.85219200  0.93667800  0.17098600  1
  O  O26  1  0.14768500  0.06326300  0.82894300  1
  O  O27  1  0.14768400  0.56328100  0.32895900  1
loop_
_geom_bond_atom_site_label_1
_geom_bond_atom_site_label_2
_geom_bond_distance
_geom_bond_site_symmetry_2
Li0 O26 1.937956 1_555
Li0 O12 2.016182 1_445
Li0 O11 2.067740 1_455
Li0 O20 2.074188 1_545
Li1 O27 1.937871 1_555
Li1 O13 2.015487 1_455
Li1 O10 2.067963 1_455
Li1 O21 2.074850 1_555
Li2 O24 1.937942 1_555
Li2 O14 2.016364 1_655
Li2 O9 2.067228 1_655
Li2 O22 2.074836 1_555
Li3 O25 1.938179 1_555
Li3 O15 2.015957 1_665
Li3 O8 2.067366 1_655
Li3 O23 2.075488 1_565
Ni0 O24 2.059883 1_555
Ni0 O27 2.060575 1_655
Ni0 O14 2.165782 1_655
Ni0 O13 2.166375 1_555
Ni0 O3 2.235828 1_555
Ni0 O0 2.239619 1_655
Ni1 O9 2.020710 1_555
Ni1 O6 2.023435 1_555
Ni1 O5 2.071418 1_556
Ni1 O2 2.077034 1_555
Ni1 O21 2.080511 1_556
Ni2 O10 2.019953 1_555
Ni2 O5 2.024432 1_555
Ni2 O6 2.071573 1_554
Ni2 O1 2.077278 1_555
Ni2 O22 2.080291 1_554
Ni3 O26 2.058829 1_565
Ni3 O25 2.061287 1_456
Ni3 O12 2.164977 1_455
Ni3 O15 2.167098 1_566
Ni3 O1 2.236874 1_556
Ni3 O2 2.238436 1_465
Ni4 O8 2.021437 1_555
Ni4 O7 2.022723 1_565
Ni4 O4 2.070367 1_555
Ni4 O3 2.076748 1_555
Ni4 O20 2.081081 1_555
Ni5 O11 2.018392 1_555
Ni5 O4 2.023581 1_545
Ni5 O7 2.073798 1_555
Ni5 O0 2.077089 1_555
Ni5 O23 2.080568 1_555
O0 P4 1.550848 1_555
O1 P5 1.551023 1_555
O2 P6 1.550788 1_555
O3 P7 1.550982 1_555
O4 P0 1.551302 1_555
O5 P1 1.551319 1_555
O6 P2 1.551371 1_555
O7 P3 1.551267 1_555
O8 P5 1.519926 1_555
O9 P4 1.519793 1_555
O10 P7 1.519934 1_555
O11 P6 1.520007 1_555
O12 P0 1.517803 1_555
O13 P1 1.517773 1_555
O14 P2 1.517658 1_555
O15 P3 1.517800 1_555
O16 P4 1.615338 1_565
O16 P0 1.616691 1_555
O17 P5 1.615350 1_555
O17 P1 1.616749 1_555
O18 P6 1.615274 1_555
O18 P2 1.616619 1_555
O19 P7 1.615142 1_545
O19 P3 1.616772 1_555
O20 P2 1.536684 1_555
O21 P3 1.536647 1_555
O22 P0 1.536561 1_555
O23 P1 1.536634 1_555
O24 P6 1.530143 1_555
O25 P7 1.530064 1_555
O26 P4 1.530456 1_555
O27 P5 1.530349 1_555
