# generated using pymatgen
data_CsCoH18N6(ClO2)4
_symmetry_space_group_name_H-M   'P 1'
_cell_length_a   8.07877265
_cell_length_b   8.07877265
_cell_length_c   10.28508847
_cell_angle_alpha   66.67585577
_cell_angle_beta   66.67585577
_cell_angle_gamma   60.02420373
_symmetry_Int_Tables_number   1
_chemical_formula_structural   CsCoH18N6(ClO2)4
_chemical_formula_sum   'Cs1 Co1 H18 N6 Cl4 O8'
_cell_volume   517.13621953
_cell_formula_units_Z   1
loop_
 _symmetry_equiv_pos_site_id
 _symmetry_equiv_pos_as_xyz
  1  'x, y, z'
loop_
 _atom_site_type_symbol
 _atom_site_label
 _atom_site_symmetry_multiplicity
 _atom_site_fract_x
 _atom_site_fract_y
 _atom_site_fract_z
 _atom_site_occupancy
  Cs  Cs0  1  0.49685200  0.49685200  0.50912000  1
  Co  Co0  1  0.04631400  0.04631400  0.86061200  1
  H  H0  1  0.38650300  0.79699800  0.82373500  1
  H  H1  1  0.98835200  0.78778500  0.83243600  1
  H  H2  1  0.98684600  0.39200500  0.83649800  1
  H  H3  1  0.79699800  0.38650300  0.82373500  1
  H  H4  1  0.39200500  0.98684600  0.83649800  1
  H  H5  1  0.78778500  0.98835200  0.83243600  1
  H  H6  1  0.20382500  0.50472200  0.08814200  1
  H  H7  1  0.20450400  0.70495900  0.09689600  1
  H  H8  1  0.99321600  0.70376900  0.10001400  1
  H  H9  1  0.08888700  0.57575400  0.24947300  1
  H  H10  1  0.20357800  0.20357800  0.08730200  1
  H  H11  1  0.50472200  0.20382500  0.08814200  1
  H  H12  1  0.70495900  0.20450400  0.09689600  1
  H  H13  1  0.99264000  0.20313100  0.09957800  1
  H  H14  1  0.20313100  0.99264000  0.09957800  1
  H  H15  1  0.70376900  0.99321600  0.10001400  1
  H  H16  1  0.57575400  0.08888700  0.24947300  1
  H  H17  1  0.08697100  0.08697100  0.24934200  1
  N  N0  1  0.30529200  0.90853800  0.87539100  1
  N  N1  1  0.90978600  0.90978600  0.87370500  1
  N  N2  1  0.90853800  0.30529200  0.87539100  1
  N  N3  1  0.12005900  0.62393900  0.13738500  1
  N  N4  1  0.62393900  0.12005900  0.13738500  1
  N  N5  1  0.11890800  0.11890800  0.13730100  1
  Cl  Cl0  1  0.81589100  0.81589100  0.55250800  1
  Cl  Cl1  1  0.61836300  0.61836300  0.15266400  1
  Cl  Cl2  1  0.35872300  0.35872300  0.92217500  1
  Cl  Cl3  1  0.19005400  0.19005400  0.42962400  1
  O  O0  1  0.87012500  0.87012500  0.39099900  1
  O  O1  1  0.30757800  0.01164200  0.37337300  1
  O  O2  1  0.01164200  0.30757800  0.37337300  1
  O  O3  1  0.30759500  0.30759500  0.37312900  1
  O  O4  1  0.69949600  0.69949600  0.60512900  1
  O  O5  1  0.99544400  0.69969400  0.60485200  1
  O  O6  1  0.69969400  0.99544400  0.60485200  1
  O  O7  1  0.13744800  0.13744800  0.58684300  1
loop_
_geom_bond_atom_site_label_1
_geom_bond_atom_site_label_2
_geom_bond_distance
_geom_bond_site_symmetry_2
Cs0 O5 3.398486 1_455
Cs0 O6 3.398486 1_545
Cs0 O4 3.402027 1_555
Cs0 O2 3.510207 1_655
Cs0 O1 3.510207 1_565
Cs0 O3 3.514917 1_555
Co0 N2 1.852080 1_455
Co0 N0 1.852080 1_545
Co0 N1 1.852484 1_445
Co0 O7 2.504190 1_555
H0 N0 1.018341 1_555
H1 N1 1.023368 1_555
H2 N2 1.035157 1_555
H3 N2 1.018341 1_555
H4 N0 1.035157 1_555
H5 N1 1.023368 1_555
H6 N3 1.051498 1_555
H7 N3 1.035692 1_555
H8 N3 1.033902 1_655
H9 N3 1.027951 1_555
H10 N5 1.053900 1_555
H11 N4 1.051498 1_555
H12 N4 1.035692 1_555
H13 N5 1.031922 1_655
H14 N5 1.031922 1_565
H15 N4 1.033902 1_565
H16 N4 1.027951 1_555
H17 N5 1.027959 1_555
Cl0 O6 1.460377 1_555
Cl0 O5 1.460377 1_555
Cl0 O4 1.462508 1_555
Cl0 O0 1.477320 1_555
Cl1 Cs0 3.260582 1_555
Cl2 H10 2.055450 1_556
Cl2 H6 2.073372 1_556
Cl2 H11 2.073372 1_556
Cl2 Cs0 3.778218 1_555
Cl3 O7 1.438083 1_555
Cl3 O3 1.472504 1_555
Cl3 O2 1.473610 1_555
Cl3 O1 1.473610 1_555
