# generated using pymatgen
data_LiNbCuO4
_symmetry_space_group_name_H-M   'P 1'
_cell_length_a   5.81878100
_cell_length_b   5.81878100
_cell_length_c   9.70383800
_cell_angle_alpha   90.00000000
_cell_angle_beta   90.00000000
_cell_angle_gamma   90.00000000
_symmetry_Int_Tables_number   1
_chemical_formula_structural   LiNbCuO4
_chemical_formula_sum   'Li4 Nb4 Cu4 O16'
_cell_volume   328.55460738
_cell_formula_units_Z   4
loop_
 _symmetry_equiv_pos_site_id
 _symmetry_equiv_pos_as_xyz
  1  'x, y, z'
loop_
 _atom_site_type_symbol
 _atom_site_label
 _atom_site_symmetry_multiplicity
 _atom_site_fract_x
 _atom_site_fract_y
 _atom_site_fract_z
 _atom_site_occupancy
  Li  Li0  1  0.50000000  0.74005500  0.00000000  1
  Li  Li1  1  0.50000000  0.25994500  0.50000000  1
  Li  Li2  1  0.74005500  0.50000000  0.25000000  1
  Li  Li3  1  0.25994500  0.50000000  0.75000000  1
  Nb  Nb0  1  0.75850100  0.75850100  0.62500000  1
  Nb  Nb1  1  0.75850100  0.24149900  0.87500000  1
  Nb  Nb2  1  0.24149900  0.75850100  0.37500000  1
  Nb  Nb3  1  0.24149900  0.24149900  0.12500000  1
  Cu  Cu0  1  0.73935600  0.00000000  0.25000000  1
  Cu  Cu1  1  0.00000000  0.73935600  0.00000000  1
  Cu  Cu2  1  0.00000000  0.26064400  0.50000000  1
  Cu  Cu3  1  0.26064400  0.00000000  0.75000000  1
  O  O0  1  0.50304300  0.75851400  0.25911400  1
  O  O1  1  0.50304300  0.24148600  0.24088600  1
  O  O2  1  0.75851400  0.50304300  0.99088600  1
  O  O3  1  0.75851400  0.49695700  0.50911400  1
  O  O4  1  0.75939000  0.98102300  0.99032800  1
  O  O5  1  0.75939000  0.01897700  0.50967200  1
  O  O6  1  0.98102300  0.75939000  0.25967200  1
  O  O7  1  0.98102300  0.24061000  0.24032800  1
  O  O8  1  0.01897700  0.75939000  0.74032800  1
  O  O9  1  0.01897700  0.24061000  0.75967200  1
  O  O10  1  0.24061000  0.01897700  0.49032800  1
  O  O11  1  0.24061000  0.98102300  0.00967200  1
  O  O12  1  0.24148600  0.50304300  0.00911400  1
  O  O13  1  0.24148600  0.49695700  0.49088600  1
  O  O14  1  0.49695700  0.75851400  0.74088600  1
  O  O15  1  0.49695700  0.24148600  0.75911400  1
loop_
_geom_bond_atom_site_label_1
_geom_bond_atom_site_label_2
_geom_bond_distance
_geom_bond_site_symmetry_2
Li0 O2 2.042676 1_554
Li0 O12 2.042676 1_555
Li0 O4 2.062254 1_554
Li0 O11 2.062254 1_555
Li0 O14 2.516756 1_554
Li0 O0 2.516756 1_555
Li1 O13 2.042676 1_555
Li1 O3 2.042676 1_555
Li1 O5 2.062254 1_555
Li1 O10 2.062254 1_555
Li1 O15 2.516756 1_555
Li1 O1 2.516756 1_555
Li2 O1 2.042676 1_555
Li2 O0 2.042676 1_555
Li2 O6 2.062254 1_555
Li2 O7 2.062254 1_555
Li2 O2 2.516756 1_554
Li2 O3 2.516756 1_555
Li3 O14 2.042676 1_555
Li3 O15 2.042676 1_555
Li3 O9 2.062254 1_555
Li3 O8 2.062254 1_555
Li3 O13 2.516756 1_555
Li3 O12 2.516756 1_556
Nb0 O8 1.884057 1_655
Nb0 O5 1.884057 1_565
Nb0 O14 1.892265 1_555
Nb0 O3 1.892265 1_555
Nb1 O9 1.884057 1_655
Nb1 O4 1.884057 1_545
Nb1 O15 1.892265 1_555
Nb1 O2 1.892265 1_555
Nb2 O6 1.884057 1_455
Nb2 O10 1.884057 1_565
Nb2 O0 1.892265 1_555
Nb2 O13 1.892265 1_555
Nb3 O11 1.884057 1_545
Nb3 O7 1.884057 1_455
Nb3 O12 1.892265 1_555
Nb3 O1 1.892265 1_555
Cu0 O0 1.968007 1_545
Cu0 O1 1.968007 1_555
Cu0 O7 1.986552 1_555
Cu0 O6 1.986552 1_545
Cu0 O4 2.524926 1_544
Cu0 O5 2.524926 1_555
Cu1 O12 1.968007 1_555
Cu1 O2 1.968007 1_454
Cu1 O4 1.986552 1_454
Cu1 O11 1.986552 1_555
Cu1 O6 2.524926 1_455
Cu1 O8 2.524926 1_554
Cu2 O3 1.968007 1_455
Cu2 O13 1.968007 1_555
Cu2 O10 1.986552 1_555
Cu2 O5 1.986552 1_455
Cu2 O9 2.524926 1_555
Cu2 O7 2.524926 1_455
Cu3 O14 1.968007 1_545
Cu3 O15 1.968007 1_555
Cu3 O9 1.986552 1_555
Cu3 O8 1.986552 1_545
Cu3 O11 2.524926 1_546
Cu3 O10 2.524926 1_555
