# generated using pymatgen
data_Mn8O13F3
_symmetry_space_group_name_H-M   'P 1'
_cell_length_a   4.98112400
_cell_length_b   7.04808339
_cell_length_c   7.16515485
_cell_angle_alpha   101.77883077
_cell_angle_beta   90.31690880
_cell_angle_gamma   90.10299792
_symmetry_Int_Tables_number   1
_chemical_formula_structural   Mn8O13F3
_chemical_formula_sum   'Mn8 O13 F3'
_cell_volume   246.24801274
_cell_formula_units_Z   1
loop_
 _symmetry_equiv_pos_site_id
 _symmetry_equiv_pos_as_xyz
  1  'x, y, z'
loop_
 _atom_site_type_symbol
 _atom_site_label
 _atom_site_symmetry_multiplicity
 _atom_site_fract_x
 _atom_site_fract_y
 _atom_site_fract_z
 _atom_site_occupancy
  Mn  Mn0  1  0.73193200  0.06593100  0.42889100  1
  Mn  Mn1  1  0.25890900  0.41970400  0.08457600  1
  Mn  Mn2  1  0.76150400  0.07745400  0.93349400  1
  Mn  Mn3  1  0.27751400  0.43281100  0.56939200  1
  Mn  Mn4  1  0.75915600  0.58848800  0.42222800  1
  Mn  Mn5  1  0.24391200  0.91937700  0.08650500  1
  Mn  Mn6  1  0.23185700  0.93036400  0.56619300  1
  Mn  Mn7  1  0.73920400  0.57759600  0.93200600  1
  O  O0  1  0.08331100  0.16857200  0.05895000  1
  O  O1  1  0.57559600  0.06052800  0.17165800  1
  O  O2  1  0.91131500  0.06162200  0.67250700  1
  O  O3  1  0.41912900  0.66782400  0.05605500  1
  O  O4  1  0.92693100  0.55658700  0.16705500  1
  O  O5  1  0.41416500  0.17469600  0.56091400  1
  O  O6  1  0.43793600  0.44300600  0.33361400  1
  O  O7  1  0.08871300  0.67249700  0.56004400  1
  O  O8  1  0.59356500  0.56075200  0.67238100  1
  O  O9  1  0.05713400  0.93800900  0.33639400  1
  O  O10  1  0.55773200  0.83462900  0.43832400  1
  O  O11  1  0.58089200  0.32593200  0.93855500  1
  O  O12  1  0.91836000  0.82611500  0.93977000  1
  F  F0  1  0.93241700  0.31640800  0.43776300  1
  F  F1  1  0.07511500  0.43996100  0.81575300  1
  F  F2  1  0.42370100  0.94113600  0.81697700  1
loop_
_geom_bond_atom_site_label_1
_geom_bond_atom_site_label_2
_geom_bond_distance
_geom_bond_site_symmetry_2
Mn0 O10 1.858954 1_545
Mn0 O9 1.910311 1_645
Mn0 O5 1.926847 1_555
Mn0 O2 1.962329 1_555
Mn0 O1 1.990050 1_555
Mn1 O0 1.947213 1_555
Mn1 O4 1.948913 1_455
Mn1 O11 1.960568 1_554
Mn1 O6 1.966849 1_555
Mn1 O3 1.969664 1_555
Mn2 O0 1.880060 1_656
Mn2 O12 1.946190 1_545
Mn2 O11 1.964132 1_555
Mn2 O1 1.970798 1_556
Mn2 O2 1.999199 1_555
Mn3 O8 1.883199 1_555
Mn3 O6 1.887328 1_555
Mn3 O5 1.932963 1_555
Mn3 O7 1.947807 1_555
Mn4 O6 1.931762 1_555
Mn4 O7 1.939146 1_655
Mn4 O4 1.985342 1_555
Mn4 O10 1.988821 1_555
Mn4 O8 2.022382 1_555
Mn5 O3 1.949999 1_555
Mn5 O1 1.956204 1_565
Mn5 O12 1.965263 1_454
Mn5 O0 1.977011 1_565
Mn5 O9 2.002888 1_555
Mn6 O9 1.868691 1_555
Mn6 O10 1.922904 1_555
Mn6 O2 1.927820 1_465
Mn6 O7 1.943149 1_555
Mn6 O5 1.952680 1_565
Mn7 O3 1.877467 1_556
Mn7 O11 1.949255 1_555
Mn7 O4 1.953872 1_556
Mn7 O12 1.954881 1_555
Mn7 O8 1.973704 1_555
F0 Mn0 2.016195 1_555
F0 Mn3 2.044151 1_655
F0 Mn4 2.127582 1_555
F1 Mn3 2.029406 1_555
F1 Mn7 2.031223 1_455
F1 Mn1 2.159132 1_556
F2 Mn6 2.018131 1_555
F2 Mn2 2.025472 1_565
F2 Mn5 2.166716 1_556
