# generated using pymatgen
data_LiMnP2O7
_symmetry_space_group_name_H-M   'P 1'
_cell_length_a   11.40752300
_cell_length_b   6.65761900
_cell_length_c   7.94901001
_cell_angle_alpha   60.90145027
_cell_angle_beta   90.00000000
_cell_angle_gamma   90.00000000
_symmetry_Int_Tables_number   1
_chemical_formula_structural   LiMnP2O7
_chemical_formula_sum   'Li4 Mn4 P8 O28'
_cell_volume   527.50634496
_cell_formula_units_Z   4
loop_
 _symmetry_equiv_pos_site_id
 _symmetry_equiv_pos_as_xyz
  1  'x, y, z'
loop_
 _atom_site_type_symbol
 _atom_site_label
 _atom_site_symmetry_multiplicity
 _atom_site_fract_x
 _atom_site_fract_y
 _atom_site_fract_z
 _atom_site_occupancy
  Li  Li0  1  0.08925300  0.73497700  0.73856400  1
  Li  Li1  1  0.41074700  0.73497700  0.23856400  1
  Li  Li2  1  0.58925300  0.26502300  0.76143600  1
  Li  Li3  1  0.91074700  0.26502300  0.26143600  1
  Mn  Mn0  1  0.70873900  0.55141000  0.90108400  1
  Mn  Mn1  1  0.79126100  0.55141000  0.40108300  1
  Mn  Mn2  1  0.20873900  0.44859000  0.59891600  1
  Mn  Mn3  1  0.29126100  0.44859000  0.09891600  1
  P  P0  1  0.35098100  0.98799300  0.78963400  1
  P  P1  1  0.14901900  0.98799300  0.28963400  1
  P  P2  1  0.41316600  0.63100000  0.69030700  1
  P  P3  1  0.08683400  0.63100000  0.19030700  1
  P  P4  1  0.91316600  0.36900000  0.80969300  1
  P  P5  1  0.58683400  0.36900000  0.30969300  1
  P  P6  1  0.85098100  0.01200700  0.71036600  1
  P  P7  1  0.64901900  0.01200700  0.21036600  1
  O  O0  1  0.23381300  0.11955200  0.71149900  1
  O  O1  1  0.33419700  0.77254300  0.99155800  1
  O  O2  1  0.94706900  0.86779400  0.70308900  1
  O  O3  1  0.38357600  0.89144700  0.64320400  1
  O  O4  1  0.26618700  0.11955200  0.21149900  1
  O  O5  1  0.16580300  0.77254300  0.49155800  1
  O  O6  1  0.11727500  0.60805200  0.01389700  1
  O  O7  1  0.55293100  0.86779400  0.20308900  1
  O  O8  1  0.11642400  0.89144700  0.14320400  1
  O  O9  1  0.31306300  0.48166100  0.83640500  1
  O  O10  1  0.38272500  0.60805200  0.51389700  1
  O  O11  1  0.53789900  0.57558100  0.76288100  1
  O  O12  1  0.03789900  0.42441900  0.73711900  1
  O  O13  1  0.81306300  0.51833900  0.66359500  1
  O  O14  1  0.18693700  0.48166100  0.33640500  1
  O  O15  1  0.96210100  0.57558100  0.26288100  1
  O  O16  1  0.46210100  0.42441900  0.23711900  1
  O  O17  1  0.61727500  0.39194800  0.48610300  1
  O  O18  1  0.68693700  0.51833900  0.16359500  1
  O  O19  1  0.88357600  0.10855300  0.85679600  1
  O  O20  1  0.44706900  0.13220600  0.79691100  1
  O  O21  1  0.88272500  0.39194800  0.98610300  1
  O  O22  1  0.83419700  0.22745700  0.50844200  1
  O  O23  1  0.73381300  0.88044800  0.78850100  1
  O  O24  1  0.61642400  0.10855300  0.35679600  1
  O  O25  1  0.05293100  0.13220600  0.29691100  1
  O  O26  1  0.66580300  0.22745700  0.00844200  1
  O  O27  1  0.76618700  0.88044800  0.28850100  1
loop_
_geom_bond_atom_site_label_1
_geom_bond_atom_site_label_2
_geom_bond_distance
_geom_bond_site_symmetry_2
Li0 O2 1.802682 1_455
Li0 O6 1.951286 1_556
Li0 O5 2.050034 1_555
Li0 O12 2.154366 1_555
Li1 O7 1.802682 1_555
Li1 O10 1.951286 1_555
Li1 O1 2.050034 1_554
Li1 O16 2.154366 1_555
Li2 O20 1.802682 1_555
Li2 O17 1.951286 1_555
Li2 O26 2.050034 1_556
Li2 O11 2.154366 1_555
Li3 O25 1.802682 1_655
Li3 O21 1.951286 1_554
Li3 O22 2.050034 1_555
Li3 O15 2.154366 1_555
Mn0 O23 1.942861 1_555
Mn0 O26 1.956935 1_556
Mn0 O18 2.004445 1_556
Mn0 O21 2.196634 1_555
Mn0 O11 2.204287 1_555
Mn0 O13 2.330843 1_555
Mn1 O27 1.942862 1_555
Mn1 O22 1.956934 1_555
Mn1 O13 2.004452 1_555
Mn1 O17 2.196634 1_555
Mn1 O15 2.204284 1_555
Mn1 O18 2.330836 1_555
Mn2 O0 1.942861 1_555
Mn2 O5 1.956935 1_555
Mn2 O14 2.004445 1_555
Mn2 O10 2.196634 1_555
Mn2 O12 2.204287 1_555
Mn2 O9 2.330843 1_555
Mn3 O4 1.942861 1_555
Mn3 O1 1.956935 1_554
Mn3 O9 2.004445 1_554
Mn3 O6 2.196634 1_555
Mn3 O16 2.204287 1_555
Mn3 O14 2.330843 1_555
O0 P0 1.552511 1_545
O1 P0 1.559214 1_555
O2 P6 1.476712 1_565
O3 P2 1.621505 1_555
O3 P0 1.622936 1_555
O4 P1 1.552511 1_545
O5 P1 1.559214 1_555
O6 P3 1.522730 1_555
O7 P7 1.476712 1_565
O8 P3 1.621505 1_555
O8 P1 1.622936 1_555
O9 P2 1.586875 1_555
O10 P2 1.522730 1_555
O11 P2 1.512131 1_555
O12 P4 1.512131 1_455
O13 P4 1.586875 1_555
O14 P3 1.586875 1_555
O15 P3 1.512131 1_655
O16 P5 1.512131 1_555
O17 P5 1.522730 1_555
O18 P5 1.586875 1_555
O19 P4 1.621505 1_555
O19 P6 1.622936 1_555
O20 P0 1.476712 1_545
O21 P4 1.522730 1_555
O22 P6 1.559214 1_555
O23 P6 1.552511 1_565
O24 P5 1.621505 1_555
O24 P7 1.622936 1_555
O25 P1 1.476712 1_545
O26 P7 1.559214 1_555
O27 P7 1.552511 1_565
