# generated using pymatgen
data_Li3Mn2CrO6
_symmetry_space_group_name_H-M   'P 1'
_cell_length_a   3.04295965
_cell_length_b   6.52196283
_cell_length_c   12.08900016
_cell_angle_alpha   75.83938753
_cell_angle_beta   90.00221645
_cell_angle_gamma   103.49174774
_symmetry_Int_Tables_number   1
_chemical_formula_structural   Li3Mn2CrO6
_chemical_formula_sum   'Li6 Mn4 Cr2 O12'
_cell_volume   225.79487131
_cell_formula_units_Z   2
loop_
 _symmetry_equiv_pos_site_id
 _symmetry_equiv_pos_as_xyz
  1  'x, y, z'
loop_
 _atom_site_type_symbol
 _atom_site_label
 _atom_site_symmetry_multiplicity
 _atom_site_fract_x
 _atom_site_fract_y
 _atom_site_fract_z
 _atom_site_occupancy
  Li  Li0  1  0.66664500  0.33328600  0.08333900  1
  Li  Li1  1  0.66664500  0.33328200  0.58334200  1
  Li  Li2  1  0.99632900  0.99260900  0.25305800  1
  Li  Li3  1  0.99632700  0.99260900  0.75306000  1
  Li  Li4  1  0.33697600  0.67401400  0.41361400  1
  Li  Li5  1  0.33697900  0.67401300  0.91361600  1
  Mn  Mn0  1  0.99719200  0.99443200  0.49742900  1
  Mn  Mn1  1  0.33610400  0.67222300  0.16925000  1
  Mn  Mn2  1  0.99723200  0.99443500  0.99741400  1
  Mn  Mn3  1  0.33609700  0.67224900  0.66923900  1
  Cr  Cr0  1  0.66668900  0.33335800  0.83332600  1
  Cr  Cr1  1  0.66678100  0.33334000  0.33331700  1
  O  O0  1  0.50443100  0.00884900  0.87656100  1
  O  O1  1  0.50441800  0.00883500  0.37655500  1
  O  O2  1  0.82888000  0.65781400  0.29012500  1
  O  O3  1  0.82889400  0.65783300  0.79010800  1
  O  O4  1  0.84062400  0.68124000  0.04410000  1
  O  O5  1  0.84061500  0.68124200  0.54409000  1
  O  O6  1  0.49273100  0.98544400  0.62256700  1
  O  O7  1  0.49272900  0.98544600  0.12257600  1
  O  O8  1  0.17680600  0.35366700  0.21591200  1
  O  O9  1  0.17681000  0.35367200  0.71589900  1
  O  O10  1  0.15653100  0.31305600  0.45075200  1
  O  O11  1  0.15653600  0.31305500  0.95074900  1
loop_
_geom_bond_atom_site_label_1
_geom_bond_atom_site_label_2
_geom_bond_distance
_geom_bond_site_symmetry_2
Li0 O7 2.136567 1_545
Li0 O4 2.137272 1_555
Li0 O11 2.236919 1_554
Li0 O8 2.236948 1_655
Li0 O11 2.237034 1_654
Li0 O8 2.237158 1_555
Li1 O6 2.136560 1_545
Li1 O5 2.137304 1_555
Li1 O9 2.236819 1_655
Li1 O10 2.236927 1_555
Li1 O10 2.237011 1_655
Li1 O9 2.237031 1_555
Li2 O2 2.056776 1_555
Li2 O1 2.152046 1_665
Li2 O1 2.152234 1_565
Li2 O7 2.200269 1_555
Li2 O7 2.200277 1_655
Li2 O8 2.219813 1_665
Li3 O3 2.056668 1_555
Li3 O0 2.152117 1_665
Li3 O0 2.152270 1_565
Li3 O6 2.200357 1_555
Li3 O6 2.200386 1_655
Li3 O9 2.219834 1_665
Li4 O1 2.056941 1_565
Li4 O2 2.151984 1_455
Li4 O2 2.152086 1_555
Li4 O5 2.200293 1_455
Li4 O5 2.200313 1_555
Li4 O10 2.219197 1_555
Li5 O0 2.057036 1_565
Li5 O3 2.152116 1_455
Li5 O3 2.152222 1_555
Li5 O4 2.200348 1_456
Li5 O4 2.200395 1_556
Li5 O11 2.219200 1_555
Mn0 O5 1.923441 1_555
Mn0 O10 1.956516 1_665
Mn0 O1 2.095455 1_565
Mn0 O1 2.095643 1_665
Mn0 O6 2.136159 1_555
Mn0 O6 2.136220 1_655
Mn1 O7 1.923647 1_555
Mn1 O8 1.956097 1_555
Mn1 O2 2.095470 1_555
Mn1 O2 2.095635 1_455
Mn1 O4 2.136198 1_455
Mn1 O4 2.136329 1_555
Mn2 O4 1.923482 1_556
Mn2 O11 1.956488 1_665
Mn2 O0 2.095344 1_565
Mn2 O0 2.095388 1_665
Mn2 O7 2.136333 1_656
Mn2 O7 2.136451 1_556
Mn3 O6 1.923476 1_555
Mn3 O9 1.956224 1_555
Mn3 O3 2.095468 1_555
Mn3 O3 2.095525 1_455
Mn3 O5 2.136191 1_455
Mn3 O5 2.136366 1_555
Cr0 O3 1.991636 1_555
Cr0 O0 1.991845 1_555
Cr0 O11 2.062619 1_655
Cr0 O9 2.062644 1_655
Cr0 O11 2.062703 1_555
Cr0 O9 2.062728 1_555
Cr1 O2 1.991629 1_555
Cr1 O1 1.991821 1_555
Cr1 O8 2.062226 1_655
Cr1 O10 2.062491 1_655
Cr1 O8 2.062770 1_555
Cr1 O10 2.063053 1_555
