# generated using pymatgen
data_Li3Mn4(BO3)4
_symmetry_space_group_name_H-M   'P 1'
_cell_length_a   5.29149400
_cell_length_b   6.20734319
_cell_length_c   7.84272800
_cell_angle_alpha   79.14851024
_cell_angle_beta   87.42970977
_cell_angle_gamma   87.53834646
_symmetry_Int_Tables_number   1
_chemical_formula_structural   Li3Mn4(BO3)4
_chemical_formula_sum   'Li3 Mn4 B4 O12'
_cell_volume   252.58593659
_cell_formula_units_Z   1
loop_
 _symmetry_equiv_pos_site_id
 _symmetry_equiv_pos_as_xyz
  1  'x, y, z'
loop_
 _atom_site_type_symbol
 _atom_site_label
 _atom_site_symmetry_multiplicity
 _atom_site_fract_x
 _atom_site_fract_y
 _atom_site_fract_z
 _atom_site_occupancy
  Li  Li0  1  0.57455200  0.87158700  0.81161900  1
  Li  Li1  1  0.93143500  0.63224000  0.68767300  1
  Li  Li2  1  0.41229800  0.14039400  0.20485300  1
  Mn  Mn0  1  0.42159500  0.41779600  0.82785500  1
  Mn  Mn1  1  0.08464700  0.08868100  0.66794000  1
  Mn  Mn2  1  0.91277400  0.93350100  0.31362400  1
  Mn  Mn3  1  0.58013100  0.57560600  0.18505700  1
  B  B0  1  0.42722700  0.76449300  0.49788600  1
  B  B1  1  0.92372700  0.25939000  0.99478000  1
  B  B2  1  0.07651900  0.75480400  0.00326800  1
  B  B3  1  0.57516200  0.21714200  0.50434000  1
  O  O0  1  0.33249300  0.70102300  0.98252700  1
  O  O1  1  0.93232500  0.83734700  0.86162100  1
  O  O2  1  0.02929200  0.34226500  0.82870200  1
  O  O3  1  0.16740900  0.80246200  0.51422000  1
  O  O4  1  0.57110400  0.66557000  0.63476700  1
  O  O5  1  0.54566700  0.84532600  0.33524200  1
  O  O6  1  0.47444100  0.15689400  0.67482800  1
  O  O7  1  0.43500400  0.33311200  0.37627100  1
  O  O8  1  0.82551900  0.14134900  0.47244900  1
  O  O9  1  0.95420600  0.70789400  0.16958700  1
  O  O10  1  0.07863500  0.14355600  0.11962100  1
  O  O11  1  0.66773100  0.29894300  0.03138100  1
loop_
_geom_bond_atom_site_label_1
_geom_bond_atom_site_label_2
_geom_bond_distance
_geom_bond_site_symmetry_2
Li0 O1 1.945155 1_555
Li0 O6 1.955245 1_565
Li0 O0 1.996580 1_555
Li0 O4 2.057089 1_555
Li1 O4 1.963461 1_555
Li1 O3 1.986432 1_655
Li1 O2 1.988234 1_655
Li1 O1 2.034005 1_555
Li2 O10 1.913741 1_555
Li2 O7 1.971102 1_555
Li2 O11 2.022770 1_555
Li2 O5 2.036403 1_545
Mn0 O4 2.098739 1_555
Mn0 O11 2.109259 1_556
Mn0 O2 2.147158 1_555
Mn0 O6 2.191848 1_555
Mn0 O0 2.337768 1_555
Mn1 O8 2.073394 1_455
Mn1 O1 2.120579 1_445
Mn1 O6 2.128408 1_555
Mn1 O2 2.197207 1_555
Mn1 O3 2.343937 1_545
Mn2 O9 1.957653 1_555
Mn2 O8 1.982847 1_565
Mn2 O10 2.004230 1_665
Mn2 O5 2.031908 1_555
Mn2 O3 2.136885 1_655
Mn3 O7 2.061666 1_555
Mn3 O0 2.116501 1_554
Mn3 O9 2.165105 1_555
Mn3 O5 2.218273 1_555
Mn3 O11 2.297299 1_555
B0 O4 1.376248 1_555
B0 O3 1.389187 1_555
B0 O5 1.409239 1_555
B1 O10 1.379782 1_656
B1 O11 1.393096 1_556
B1 O2 1.407240 1_655
B2 O1 1.380911 1_454
B2 O0 1.390820 1_554
B2 O9 1.415127 1_455
B3 O7 1.351218 1_555
B3 O6 1.405934 1_555
B3 O8 1.414195 1_555
