# generated using pymatgen
data_LiTiPCO7
_symmetry_space_group_name_H-M   'P 1'
_cell_length_a   6.44769500
_cell_length_b   5.24368800
_cell_length_c   8.24287290
_cell_angle_alpha   82.12488996
_cell_angle_beta   90.00000000
_cell_angle_gamma   90.00000000
_symmetry_Int_Tables_number   1
_chemical_formula_structural   LiTiPCO7
_chemical_formula_sum   'Li2 Ti2 P2 C2 O14'
_cell_volume   276.06077215
_cell_formula_units_Z   2
loop_
 _symmetry_equiv_pos_site_id
 _symmetry_equiv_pos_as_xyz
  1  'x, y, z'
loop_
 _atom_site_type_symbol
 _atom_site_label
 _atom_site_symmetry_multiplicity
 _atom_site_fract_x
 _atom_site_fract_y
 _atom_site_fract_z
 _atom_site_occupancy
  Li  Li0  1  0.25000000  0.75467000  0.09921300  1
  Li  Li1  1  0.75000000  0.24533000  0.90078700  1
  Ti  Ti0  1  0.75000000  0.79598500  0.31570100  1
  Ti  Ti1  1  0.25000000  0.20401500  0.68429900  1
  P  P0  1  0.25000000  0.75064400  0.42401900  1
  P  P1  1  0.75000000  0.24935600  0.57598100  1
  C  C0  1  0.75000000  0.68630500  0.03465400  1
  C  C1  1  0.25000000  0.31369500  0.96534600  1
  O  O0  1  0.75000000  0.92983800  0.07072000  1
  O  O1  1  0.25000000  0.37542800  0.10495700  1
  O  O2  1  0.75000000  0.52012900  0.17019100  1
  O  O3  1  0.06097600  0.80084300  0.30843100  1
  O  O4  1  0.43902400  0.80084300  0.30843100  1
  O  O5  1  0.75000000  0.08076100  0.43776500  1
  O  O6  1  0.25000000  0.46499100  0.50364800  1
  O  O7  1  0.75000000  0.53500900  0.49635200  1
  O  O8  1  0.25000000  0.91923900  0.56223500  1
  O  O9  1  0.93902400  0.19915700  0.69156900  1
  O  O10  1  0.56097600  0.19915700  0.69156900  1
  O  O11  1  0.25000000  0.47987100  0.82980900  1
  O  O12  1  0.75000000  0.62457200  0.89504300  1
  O  O13  1  0.25000000  0.07016200  0.92928000  1
loop_
_geom_bond_atom_site_label_1
_geom_bond_atom_site_label_2
_geom_bond_distance
_geom_bond_site_symmetry_2
Li0 O1 1.982694 1_555
Li0 O13 2.015912 1_564
Li0 O4 2.152333 1_555
Li0 O3 2.152333 1_555
Li1 O12 1.982694 1_555
Li1 O0 2.015912 1_546
Li1 O9 2.152333 1_555
Li1 O10 2.152333 1_555
C0 O12 1.237417 1_554
C0 O2 1.319353 1_555
C0 O0 1.350248 1_555
C1 O1 1.237417 1_556
C1 O11 1.319353 1_555
C1 O13 1.350248 1_555
O0 Ti0 2.044996 1_555
O2 Ti0 2.001602 1_555
O3 P0 1.547173 1_555
O3 Ti0 2.006031 1_455
O4 P0 1.547173 1_555
O4 Ti0 2.006031 1_555
O5 P1 1.534784 1_555
O5 Ti0 1.911531 1_545
O6 P0 1.550819 1_555
O6 Ti1 1.879279 1_555
O7 P1 1.550819 1_555
O7 Ti0 1.879279 1_555
O8 P0 1.534784 1_555
O8 Ti1 1.911531 1_565
O9 P1 1.547173 1_555
O9 Ti1 2.006031 1_655
O10 P1 1.547173 1_555
O10 Ti1 2.006031 1_555
O11 Ti1 2.001602 1_555
O13 Ti1 2.044996 1_555
