# generated using pymatgen
data_NaMnPCO7
_symmetry_space_group_name_H-M   'P 1'
_cell_length_a   6.24364600
_cell_length_b   10.30084600
_cell_length_c   10.43862393
_cell_angle_alpha   61.54780532
_cell_angle_beta   90.00000000
_cell_angle_gamma   90.00000000
_symmetry_Int_Tables_number   1
_chemical_formula_structural   NaMnPCO7
_chemical_formula_sum   'Na4 Mn4 P4 C4 O28'
_cell_volume   590.26831526
_cell_formula_units_Z   4
loop_
 _symmetry_equiv_pos_site_id
 _symmetry_equiv_pos_as_xyz
  1  'x, y, z'
loop_
 _atom_site_type_symbol
 _atom_site_label
 _atom_site_symmetry_multiplicity
 _atom_site_fract_x
 _atom_site_fract_y
 _atom_site_fract_z
 _atom_site_occupancy
  Na  Na0  1  0.97011300  0.75912900  0.99385500  1
  Na  Na1  1  0.52988700  0.75912900  0.49385500  1
  Na  Na2  1  0.02988700  0.24087100  0.00614500  1
  Na  Na3  1  0.47011300  0.24087100  0.50614500  1
  Mn  Mn0  1  0.25237000  0.65830000  0.81220700  1
  Mn  Mn1  1  0.24763000  0.65830000  0.31220700  1
  Mn  Mn2  1  0.74763000  0.34170000  0.18779300  1
  Mn  Mn3  1  0.75237000  0.34170000  0.68779300  1
  P  P0  1  0.74976400  0.56713600  0.82556300  1
  P  P1  1  0.75023600  0.56713600  0.32556300  1
  P  P2  1  0.25023600  0.43286400  0.17443700  1
  P  P3  1  0.24976400  0.43286400  0.67443700  1
  C  C0  1  0.24078100  0.92323800  0.65308500  1
  C  C1  1  0.25921900  0.92323800  0.15308500  1
  C  C2  1  0.75921900  0.07676200  0.34691500  1
  C  C3  1  0.74078100  0.07676200  0.84691500  1
  O  O0  1  0.76344100  0.94258300  0.42922600  1
  O  O1  1  0.73655900  0.94258300  0.92922600  1
  O  O2  1  0.24009400  0.85866600  0.79723100  1
  O  O3  1  0.25990600  0.85866600  0.29723100  1
  O  O4  1  0.24881300  0.82142600  0.60892900  1
  O  O5  1  0.25118700  0.82142600  0.10892900  1
  O  O6  1  0.94335400  0.66730600  0.81312400  1
  O  O7  1  0.55755800  0.67191600  0.79968400  1
  O  O8  1  0.94244200  0.67191600  0.29968400  1
  O  O9  1  0.55664600  0.66730600  0.31312400  1
  O  O10  1  0.74918100  0.52438400  0.20122700  1
  O  O11  1  0.25115700  0.57415400  0.02694600  1
  O  O12  1  0.75081900  0.52438400  0.70122700  1
  O  O13  1  0.24884300  0.57415400  0.52694600  1
  O  O14  1  0.74884300  0.42584600  0.97305400  1
  O  O15  1  0.25081900  0.47561600  0.79877300  1
  O  O16  1  0.75115700  0.42584600  0.47305400  1
  O  O17  1  0.24918100  0.47561600  0.29877300  1
  O  O18  1  0.44244200  0.32808400  0.20031600  1
  O  O19  1  0.05664600  0.33269400  0.18687600  1
  O  O20  1  0.44335400  0.33269400  0.68687600  1
  O  O21  1  0.05755800  0.32808400  0.70031600  1
  O  O22  1  0.75118700  0.17857400  0.39107100  1
  O  O23  1  0.74881300  0.17857400  0.89107100  1
  O  O24  1  0.75990600  0.14133400  0.20276900  1
  O  O25  1  0.74009400  0.14133400  0.70276900  1
  O  O26  1  0.23655900  0.05741700  0.57077400  1
  O  O27  1  0.26344100  0.05741700  0.07077400  1
loop_
_geom_bond_atom_site_label_1
_geom_bond_atom_site_label_2
_geom_bond_distance
_geom_bond_site_symmetry_2
Na0 O1 2.222133 1_555
Na0 O5 2.380959 1_656
Na0 O2 2.469861 1_655
Na0 O6 2.486372 1_555
Na0 O11 2.490348 1_656
Na0 O10 2.729131 1_556
Na0 O8 2.880242 1_556
Na1 O0 2.222133 1_555
Na1 O4 2.380959 1_555
Na1 O3 2.469861 1_555
Na1 O9 2.486372 1_555
Na1 O13 2.490348 1_555
Na1 O12 2.729131 1_555
Na1 O7 2.880242 1_555
Na2 O27 2.222133 1_555
Na2 O23 2.380959 1_454
Na2 O24 2.469861 1_455
Na2 O19 2.486372 1_555
Na2 O14 2.490348 1_454
Na2 O15 2.729131 1_554
Na2 O21 2.880242 1_554
Na3 O26 2.222133 1_555
Na3 O22 2.380959 1_555
Na3 O25 2.469861 1_555
Na3 O20 2.486372 1_555
Na3 O16 2.490348 1_555
Na3 O17 2.729131 1_555
Na3 O18 2.880242 1_555
Mn0 O7 1.910541 1_555
Mn0 O6 1.931858 1_455
Mn0 O15 1.952531 1_555
Mn0 O11 1.981085 1_556
Mn0 O4 1.982221 1_555
Mn0 O2 1.995675 1_555
Mn1 O8 1.910541 1_455
Mn1 O9 1.931858 1_555
Mn1 O17 1.952531 1_555
Mn1 O13 1.981085 1_555
Mn1 O5 1.982221 1_555
Mn1 O3 1.995675 1_555
Mn2 O18 1.910541 1_555
Mn2 O19 1.931858 1_655
Mn2 O10 1.952531 1_555
Mn2 O14 1.981085 1_554
Mn2 O22 1.982221 1_555
Mn2 O24 1.995675 1_555
Mn3 O21 1.910541 1_655
Mn3 O20 1.931858 1_555
Mn3 O12 1.952531 1_555
Mn3 O16 1.981085 1_555
Mn3 O23 1.982221 1_555
Mn3 O25 1.995675 1_555
C0 O26 1.231960 1_565
C0 O2 1.323960 1_555
C0 O4 1.332461 1_555
C1 O27 1.231960 1_565
C1 O3 1.323960 1_555
C1 O5 1.332461 1_555
C2 O0 1.231960 1_545
C2 O24 1.323960 1_555
C2 O22 1.332461 1_555
C3 O1 1.231960 1_545
C3 O25 1.323960 1_555
C3 O23 1.332461 1_555
O6 P0 1.553981 1_555
O7 P0 1.549274 1_555
O8 P1 1.549274 1_555
O9 P1 1.553981 1_555
O10 P1 1.556643 1_555
O11 P2 1.534119 1_555
O12 P0 1.556643 1_555
O13 P3 1.534119 1_555
O14 P0 1.534119 1_555
O15 P3 1.556643 1_555
O16 P1 1.534119 1_555
O17 P2 1.556643 1_555
O18 P2 1.549274 1_555
O19 P2 1.553981 1_555
O20 P3 1.553981 1_555
O21 P3 1.549274 1_555
