# generated using pymatgen
data_Li3Cr2(NiO4)2
_symmetry_space_group_name_H-M   'P 1'
_cell_length_a   5.82340763
_cell_length_b   5.82340763
_cell_length_c   5.83980502
_cell_angle_alpha   60.65392491
_cell_angle_beta   60.65392491
_cell_angle_gamma   60.95581887
_symmetry_Int_Tables_number   1
_chemical_formula_structural   Li3Cr2(NiO4)2
_chemical_formula_sum   'Li3 Cr2 Ni2 O8'
_cell_volume   142.41678829
_cell_formula_units_Z   1
loop_
 _symmetry_equiv_pos_site_id
 _symmetry_equiv_pos_as_xyz
  1  'x, y, z'
loop_
 _atom_site_type_symbol
 _atom_site_label
 _atom_site_symmetry_multiplicity
 _atom_site_fract_x
 _atom_site_fract_y
 _atom_site_fract_z
 _atom_site_occupancy
  Li  Li0  1  0.00000000  0.50000000  0.50000000  1
  Li  Li1  1  0.50000000  0.50000000  0.00000000  1
  Li  Li2  1  0.50000000  0.00000000  0.50000000  1
  Cr  Cr0  1  0.50000000  0.00000000  0.00000000  1
  Cr  Cr1  1  0.00000000  0.50000000  0.00000000  1
  Ni  Ni0  1  0.00000000  0.00000000  0.50000000  1
  Ni  Ni1  1  0.00000000  0.00000000  0.00000000  1
  O  O0  1  0.76977700  0.21212300  0.77342400  1
  O  O1  1  0.23022700  0.23022700  0.78329800  1
  O  O2  1  0.21212300  0.76977700  0.77342400  1
  O  O3  1  0.25137300  0.25137300  0.22963800  1
  O  O4  1  0.74862700  0.74862700  0.77036200  1
  O  O5  1  0.78787700  0.23022300  0.22657600  1
  O  O6  1  0.76977300  0.76977300  0.21670200  1
  O  O7  1  0.23022300  0.78787700  0.22657600  1
loop_
_geom_bond_atom_site_label_1
_geom_bond_atom_site_label_2
_geom_bond_distance
_geom_bond_site_symmetry_2
Li0 O6 2.141038 1_455
Li0 O1 2.141038 1_555
Li0 O0 2.148888 1_455
Li0 O7 2.148888 1_555
Li0 O3 2.156220 1_555
Li0 O4 2.156220 1_455
Li1 O4 2.054298 1_554
Li1 O3 2.054298 1_555
Li1 O7 2.146794 1_555
Li1 O2 2.146794 1_554
Li1 O5 2.146794 1_555
Li1 O0 2.146794 1_554
Li2 O6 2.141038 1_545
Li2 O1 2.141038 1_555
Li2 O2 2.148888 1_545
Li2 O5 2.148888 1_555
Li2 O4 2.156220 1_545
Li2 O3 2.156220 1_555
Cr0 O7 1.997384 1_545
Cr0 O0 1.997384 1_554
Cr0 O4 2.000160 1_544
Cr0 O3 2.000160 1_555
Cr0 O6 2.026714 1_545
Cr0 O1 2.026714 1_554
Cr1 O5 1.997384 1_455
Cr1 O2 1.997384 1_554
Cr1 O4 2.000160 1_454
Cr1 O3 2.000160 1_555
Cr1 O6 2.026714 1_455
Cr1 O1 2.026714 1_554
Ni0 O2 2.024828 1_545
Ni0 O5 2.024828 1_455
Ni0 O0 2.024828 1_455
Ni0 O7 2.024828 1_545
Ni0 O3 2.080479 1_555
Ni0 O4 2.080479 1_445
Ni1 O0 1.898093 1_454
Ni1 O2 1.898093 1_544
Ni1 O5 1.898093 1_455
Ni1 O7 1.898093 1_545
Ni1 O6 1.901514 1_445
Ni1 O1 1.901514 1_554
