# generated using pymatgen
data_Li3V4(OF3)3
_symmetry_space_group_name_H-M   'P 1'
_cell_length_a   5.12435600
_cell_length_b   5.51201441
_cell_length_c   7.70100558
_cell_angle_alpha   94.73782579
_cell_angle_beta   90.96015217
_cell_angle_gamma   92.33340452
_symmetry_Int_Tables_number   1
_chemical_formula_structural   Li3V4(OF3)3
_chemical_formula_sum   'Li3 V4 O3 F9'
_cell_volume   216.55172950
_cell_formula_units_Z   1
loop_
 _symmetry_equiv_pos_site_id
 _symmetry_equiv_pos_as_xyz
  1  'x, y, z'
loop_
 _atom_site_type_symbol
 _atom_site_label
 _atom_site_symmetry_multiplicity
 _atom_site_fract_x
 _atom_site_fract_y
 _atom_site_fract_z
 _atom_site_occupancy
  Li  Li0  1  0.97789800  0.60403000  0.21638500  1
  Li  Li1  1  0.51066900  0.05297500  0.18946300  1
  Li  Li2  1  0.48993000  0.93893700  0.80711100  1
  V  V0  1  0.98898700  0.99003100  0.50176600  1
  V  V1  1  0.51237300  0.51214000  0.49736400  1
  V  V2  1  0.50243600  0.49800600  0.99431900  1
  V  V3  1  0.00306300  0.00596100  0.99804700  1
  O  O0  1  0.80585100  0.69716500  0.44063600  1
  O  O1  1  0.70360400  0.80122600  0.05387300  1
  O  O2  1  0.32502200  0.18399300  0.96269700  1
  F  F0  1  0.85064800  0.02082400  0.75095300  1
  F  F1  1  0.81843200  0.31234800  0.08751600  1
  F  F2  1  0.68640400  0.18816700  0.42081400  1
  F  F3  1  0.61585700  0.49686200  0.74543500  1
  F  F4  1  0.35755400  0.50997800  0.25087500  1
  F  F5  1  0.31517400  0.82464800  0.57973800  1
  F  F6  1  0.19488200  0.30519300  0.54721900  1
  F  F7  1  0.19655600  0.69942300  0.92485300  1
  F  F8  1  0.14314100  0.96881800  0.25211200  1
loop_
_geom_bond_atom_site_label_1
_geom_bond_atom_site_label_2
_geom_bond_distance
_geom_bond_site_symmetry_2
Li0 O0 1.991136 1_555
Li0 O1 2.239094 1_555
Li1 O1 1.974914 1_545
Li1 O2 2.164440 1_554
Li2 O2 1.958002 1_565
Li2 O1 2.371182 1_556
O0 V0 1.855941 1_555
O0 V1 1.861011 1_555
O1 V3 1.942778 1_664
O1 V2 1.945163 1_554
O2 V2 1.917411 1_555
O2 V3 1.919996 1_555
F0 Li2 1.949005 1_545
F0 V0 2.053157 1_545
F0 V3 2.053970 1_655
F1 Li0 1.959539 1_555
F1 V3 2.044913 1_654
F1 V2 2.098028 1_554
F1 Li1 2.278342 1_555
F2 V0 2.050253 1_545
F2 Li1 2.052496 1_555
F2 V1 2.074874 1_555
F3 V1 1.983475 1_555
F3 V2 2.011729 1_555
F3 Li2 2.554749 1_555
F4 V1 2.043962 1_555
F4 Li0 2.052267 1_455
F4 V2 2.119129 1_554
F5 Li2 1.996019 1_555
F5 V0 2.041158 1_455
F5 V1 2.091280 1_555
F6 V0 1.997856 1_445
F6 V1 2.009397 1_555
F7 V3 2.038028 1_565
F7 V2 2.046296 1_555
F7 Li2 2.215173 1_555
F8 Li1 1.997803 1_565
F8 V0 2.086936 1_455
F8 V3 2.101511 1_564
F8 Li0 2.144261 1_455
