# generated using pymatgen
data_Mg3Si2O9
_symmetry_space_group_name_H-M   'P 1'
_cell_length_a   5.56761912
_cell_length_b   5.56761912
_cell_length_c   15.19193002
_cell_angle_alpha   89.35352186
_cell_angle_beta   89.35352186
_cell_angle_gamma   122.89161395
_symmetry_Int_Tables_number   1
_chemical_formula_structural   Mg3Si2O9
_chemical_formula_sum   'Mg3 Si2 O9'
_cell_volume   395.32545568
_cell_formula_units_Z   1
loop_
 _symmetry_equiv_pos_site_id
 _symmetry_equiv_pos_as_xyz
  1  'x, y, z'
loop_
 _atom_site_type_symbol
 _atom_site_label
 _atom_site_symmetry_multiplicity
 _atom_site_fract_x
 _atom_site_fract_y
 _atom_site_fract_z
 _atom_site_occupancy
  Mg  Mg0  1  0.35855800  0.35855800  0.23184900  1
  Mg  Mg1  1  0.03353400  0.64584700  0.22388100  1
  Mg  Mg2  1  0.64584700  0.03353400  0.22388100  1
  Si  Si0  1  0.66902700  0.34285800  0.03650000  1
  Si  Si1  1  0.34285800  0.66902700  0.03650000  1
  O  O0  1  0.50572200  0.50572200  0.00288100  1
  O  O1  1  0.50803200  0.00802300  0.00302100  1
  O  O2  1  0.00802300  0.50803200  0.00302100  1
  O  O3  1  0.66160200  0.33900900  0.14501200  1
  O  O4  1  0.33900900  0.66160200  0.14501200  1
  O  O5  1  0.91653800  0.91653800  0.18759100  1
  O  O6  1  0.74509100  0.74509100  0.26255100  1
  O  O7  1  0.01012900  0.32313100  0.28154900  1
  O  O8  1  0.32313100  0.01012900  0.28154900  1
loop_
_geom_bond_atom_site_label_1
_geom_bond_atom_site_label_2
_geom_bond_distance
_geom_bond_site_symmetry_2
Mg0 O8 1.979970 1_555
Mg0 O7 1.979970 1_555
Mg0 O6 2.120253 1_555
Mg0 O4 2.179774 1_555
Mg0 O3 2.179774 1_555
Mg0 O5 2.462069 1_445
Mg1 O7 1.928850 1_555
Mg1 O8 2.000252 1_565
Mg1 O5 2.013756 1_455
Mg1 O4 2.031141 1_555
Mg1 O6 2.044331 1_455
Mg1 O3 2.214084 1_455
Mg2 O8 1.928850 1_555
Mg2 O7 2.000252 1_655
Mg2 O5 2.013756 1_545
Mg2 O3 2.031141 1_555
Mg2 O6 2.044331 1_545
Mg2 O4 2.214084 1_545
O0 Si0 1.674879 1_555
O0 Si1 1.674879 1_555
O1 Si1 1.658104 1_545
O1 Si0 1.659606 1_555
O2 Si0 1.658104 1_455
O2 Si1 1.659606 1_555
O3 Si0 1.648164 1_555
O4 Si1 1.648164 1_555
O5 O6 1.442391 1_555
