# generated using pymatgen
data_H2
_symmetry_space_group_name_H-M   'P 1'
_cell_length_a   6.18307875
_cell_length_b   11.75828296
_cell_length_c   4.56887025
_cell_angle_alpha   90.00000000
_cell_angle_beta   90.00000000
_cell_angle_gamma   90.00000000
_symmetry_Int_Tables_number   1
_chemical_formula_structural   H2
_chemical_formula_sum   H16
_cell_volume   332.16778452
_cell_formula_units_Z   8
loop_
 _symmetry_equiv_pos_site_id
 _symmetry_equiv_pos_as_xyz
  1  'x, y, z'
loop_
 _atom_site_type_symbol
 _atom_site_label
 _atom_site_symmetry_multiplicity
 _atom_site_fract_x
 _atom_site_fract_y
 _atom_site_fract_z
 _atom_site_occupancy
  H  H0  1  0.54692185  0.75000000  0.29404356  1
  H  H1  1  0.04692185  0.75000000  0.20595644  1
  H  H2  1  0.45307815  0.25000000  0.70595644  1
  H  H3  1  0.95307815  0.25000000  0.79404356  1
  H  H4  1  0.60309739  0.75000000  0.43733098  1
  H  H5  1  0.10309739  0.75000000  0.06266902  1
  H  H6  1  0.39690261  0.25000000  0.56266902  1
  H  H7  1  0.89690261  0.25000000  0.93733098  1
  H  H8  1  0.45007237  0.99635423  0.04398634  1
  H  H9  1  0.95007237  0.50364577  0.45601366  1
  H  H10  1  0.54992763  0.49635423  0.95601366  1
  H  H11  1  0.04992763  0.00364577  0.54398634  1
  H  H12  1  0.54992763  0.00364577  0.95601366  1
  H  H13  1  0.04992763  0.49635423  0.54398634  1
  H  H14  1  0.45007237  0.50364577  0.04398634  1
  H  H15  1  0.95007237  0.99635423  0.45601366  1
loop_
_geom_bond_atom_site_label_1
_geom_bond_atom_site_label_2
_geom_bond_distance
_geom_bond_site_symmetry_2
H0 H4 0.741097 1_555
H1 H5 0.741097 1_555
H2 H6 0.741097 1_555
H3 H7 0.741097 1_555
H10 H14 0.741688 1_556
H11 H15 0.741688 1_445
H12 H8 0.741688 1_546
H13 H9 0.741688 1_455
