# generated using pymatgen
data_Li3MnV(PO4)3
_symmetry_space_group_name_H-M   'P 1'
_cell_length_a   8.55761200
_cell_length_b   8.75531980
_cell_length_c   12.12097897
_cell_angle_alpha   89.83003169
_cell_angle_beta   88.38979796
_cell_angle_gamma   89.73197189
_symmetry_Int_Tables_number   1
_chemical_formula_structural   Li3MnV(PO4)3
_chemical_formula_sum   'Li12 Mn4 V4 P12 O48'
_cell_volume   907.78767057
_cell_formula_units_Z   4
loop_
 _symmetry_equiv_pos_site_id
 _symmetry_equiv_pos_as_xyz
  1  'x, y, z'
loop_
 _atom_site_type_symbol
 _atom_site_label
 _atom_site_symmetry_multiplicity
 _atom_site_fract_x
 _atom_site_fract_y
 _atom_site_fract_z
 _atom_site_occupancy
  Li  Li0  1  0.06521100  0.51270200  0.65442200  1
  Li  Li1  1  0.08007200  0.08604000  0.30881100  1
  Li  Li2  1  0.17900400  0.78011000  0.82214400  1
  Li  Li3  1  0.32006800  0.27972200  0.67732400  1
  Li  Li4  1  0.41960600  0.58709700  0.19039800  1
  Li  Li5  1  0.43430100  0.01230400  0.84576900  1
  Li  Li6  1  0.56455200  0.98580600  0.15342200  1
  Li  Li7  1  0.58039800  0.41510300  0.80897300  1
  Li  Li8  1  0.68007000  0.71933300  0.32205200  1
  Li  Li9  1  0.81936300  0.21989300  0.17676200  1
  Li  Li10  1  0.92098100  0.91428400  0.69106100  1
  Li  Li11  1  0.93441500  0.48652200  0.34600500  1
  Mn  Mn0  1  0.25439800  0.96396700  0.60919800  1
  Mn  Mn1  1  0.74685700  0.47004100  0.60537600  1
  Mn  Mn2  1  0.75343600  0.53665100  0.10917500  1
  Mn  Mn3  1  0.75229700  0.97138200  0.89380500  1
  V  V0  1  0.24354700  0.02638600  0.10478600  1
  V  V1  1  0.24475900  0.46493900  0.89150600  1
  V  V2  1  0.25487600  0.52551500  0.39351000  1
  V  V3  1  0.74440200  0.03450500  0.39028100  1
  P  P0  1  0.04089200  0.24697000  0.50957200  1
  P  P1  1  0.11515500  0.38205500  0.15287000  1
  P  P2  1  0.11573200  0.11154700  0.85319800  1
  P  P3  1  0.38537500  0.88309600  0.34922400  1
  P  P4  1  0.38545500  0.61085800  0.64553800  1
  P  P5  1  0.45645200  0.74788100  0.98984500  1
  P  P6  1  0.54145100  0.24919600  0.01001800  1
  P  P7  1  0.61668400  0.39029100  0.35009300  1
  P  P8  1  0.61589600  0.12010800  0.65046800  1
  P  P9  1  0.88506300  0.89029500  0.14861100  1
  P  P10  1  0.88465800  0.61828100  0.85250000  1
  P  P11  1  0.95632900  0.74899900  0.48995600  1
  O  O0  1  0.05284000  0.89268000  0.10343000  1
  O  O1  1  0.04468300  0.86749000  0.55596100  1
  O  O2  1  0.05607900  0.66490800  0.40048800  1
  O  O3  1  0.05736700  0.57871900  0.81355700  1
  O  O4  1  0.10055800  0.35946500  0.41796300  1
  O  O5  1  0.12747000  0.20502700  0.16886600  1
  O  O6  1  0.14045600  0.42127900  0.03071600  1
  O  O7  1  0.12995000  0.99437500  0.75331200  1
  O  O8  1  0.17465600  0.27015500  0.81281100  1
  O  O9  1  0.18736600  0.17572300  0.56448200  1
  O  O10  1  0.23080300  0.47113300  0.22346000  1
  O  O11  1  0.23611800  0.04943800  0.93728700  1
  O  O12  1  0.26440700  0.55016400  0.56266500  1
  O  O13  1  0.27090400  0.97170000  0.27657700  1
  O  O14  1  0.31116600  0.67671200  0.93454400  1
  O  O15  1  0.32618900  0.77044600  0.68723800  1
  O  O16  1  0.36150700  0.91982900  0.47204300  1
  O  O17  1  0.37195000  0.49493200  0.74553900  1
  O  O18  1  0.37633200  0.70615400  0.33110000  1
  O  O19  1  0.39843100  0.85976500  0.08157300  1
  O  O20  1  0.44329900  0.16401800  0.09908700  1
  O  O21  1  0.44509300  0.08475600  0.69101600  1
  O  O22  1  0.44859100  0.39479100  0.39593000  1
  O  O23  1  0.44993200  0.36918700  0.94432600  1
  O  O24  1  0.54648900  0.62680200  0.05402900  1
  O  O25  1  0.55382800  0.61201000  0.60088300  1
  O  O26  1  0.55842700  0.92157900  0.31201900  1
  O  O27  1  0.55169700  0.83145000  0.89787800  1
  O  O28  1  0.59969500  0.13688200  0.91590200  1
  O  O29  1  0.62368600  0.29961200  0.66576100  1
  O  O30  1  0.62681000  0.50680300  0.24897500  1
  O  O31  1  0.63793300  0.08185200  0.52821200  1
  O  O32  1  0.66890300  0.22951100  0.31081200  1
  O  O33  1  0.68529700  0.31963500  0.06488200  1
  O  O34  1  0.73352900  0.03081500  0.71965300  1
  O  O35  1  0.73676400  0.45132600  0.43202800  1
  O  O36  1  0.76335600  0.95152800  0.06634700  1
  O  O37  1  0.77004600  0.53020500  0.78207500  1
  O  O38  1  0.81281700  0.82059000  0.43293200  1
  O  O39  1  0.83112500  0.73057100  0.19038200  1
  O  O40  1  0.87449500  0.00727300  0.24789700  1
  O  O41  1  0.86534600  0.58270900  0.97610500  1
  O  O42  1  0.87910700  0.79719100  0.83400100  1
  O  O43  1  0.89624100  0.63519200  0.58213300  1
  O  O44  1  0.94284000  0.41743000  0.19137600  1
  O  O45  1  0.94589700  0.33242400  0.60133300  1
  O  O46  1  0.94960000  0.12815200  0.44547400  1
  O  O47  1  0.94817000  0.11373700  0.89826700  1
loop_
_geom_bond_atom_site_label_1
_geom_bond_atom_site_label_2
_geom_bond_distance
_geom_bond_site_symmetry_2
Li0 O45 2.001489 1_455
Li0 O3 2.014476 1_555
Li0 O43 2.014908 1_455
Li0 O12 2.036384 1_555
Li1 O13 1.942394 1_545
Li1 O46 2.005584 1_455
Li1 O5 2.020381 1_555
Li1 O40 2.050136 1_455
Li2 O14 2.006117 1_555
Li2 O15 2.037538 1_555
Li2 O3 2.056144 1_555
Li2 O7 2.096317 1_555
Li3 O21 2.019229 1_555
Li3 O9 2.023318 1_555
Li3 O8 2.034145 1_555
Li3 O17 2.113956 1_555
Li4 O10 1.943830 1_555
Li4 O24 1.982741 1_555
Li4 O18 2.025756 1_555
Li4 O30 2.049046 1_555
Li5 O21 1.978165 1_555
Li5 O27 1.982504 1_545
Li5 O28 2.000791 1_555
Li5 O11 2.025784 1_555
Li6 O20 1.990513 1_565
Li6 O36 1.998645 1_555
Li6 O26 2.000648 1_555
Li6 O19 2.021660 1_555
Li7 O37 1.933752 1_555
Li7 O23 1.999271 1_555
Li7 O29 2.035605 1_555
Li7 O17 2.079402 1_555
Li8 O38 1.996246 1_555
Li8 O39 2.027834 1_555
Li8 O26 2.054869 1_555
Li8 O30 2.120182 1_555
Li9 O33 1.997223 1_555
Li9 O44 2.041697 1_555
Li9 O32 2.046266 1_555
Li9 O40 2.106309 1_555
Li10 O34 1.920901 1_565
Li10 O1 1.967873 1_655
Li10 O42 2.034510 1_555
Li10 O7 2.085589 1_655
Li11 O44 1.970453 1_555
Li11 O35 1.986682 1_555
Li11 O2 2.004841 1_655
Li11 O4 2.017137 1_655
Mn0 O16 1.915228 1_555
Mn0 O9 2.015358 1_565
Mn0 O7 2.037630 1_555
Mn0 O15 2.038725 1_555
Mn0 O1 2.105514 1_555
Mn0 O21 2.208687 1_565
Mn1 O43 1.949105 1_555
Mn1 O29 1.959121 1_555
Mn1 O25 2.064482 1_555
Mn1 O45 2.081310 1_555
Mn1 O35 2.112227 1_555
Mn1 O37 2.221613 1_555
Mn2 O41 1.895860 1_554
Mn2 O30 2.002678 1_555
Mn2 O24 2.063116 1_555
Mn2 O33 2.066985 1_555
Mn2 O39 2.085845 1_555
Mn2 O44 2.185906 1_555
Mn3 O28 1.960024 1_565
Mn3 O42 1.993962 1_555
Mn3 O47 2.095484 1_565
Mn3 O36 2.102819 1_556
Mn3 O27 2.113030 1_555
Mn3 O34 2.182702 1_565
O0 P9 1.522434 1_455
O0 V0 2.013349 1_565
O1 P11 1.527832 1_455
O2 P11 1.547116 1_455
O2 V2 2.088990 1_555
O3 P10 1.576127 1_455
O3 V1 2.126335 1_555
O4 P0 1.558884 1_555
O4 V2 1.984646 1_555
O5 P1 1.564877 1_555
O5 V0 1.996397 1_555
O6 P1 1.528637 1_555
O6 V1 1.924770 1_554
O7 P2 1.590907 1_565
O8 P2 1.552720 1_555
O8 V1 2.056576 1_555
O9 P0 1.562170 1_555
O10 P1 1.542257 1_555
O10 V2 2.132645 1_555
O11 P2 1.564091 1_555
O11 V0 2.042401 1_556
O12 P4 1.559247 1_555
O12 V2 2.066215 1_555
O13 P3 1.540811 1_555
O13 V0 2.154148 1_565
O14 P5 1.562027 1_555
O14 V1 2.016228 1_555
O15 P4 1.564655 1_555
O16 P3 1.531821 1_555
O17 P4 1.580714 1_555
O17 V1 2.067769 1_555
O18 P3 1.567901 1_555
O18 V2 2.029272 1_555
O19 P5 1.553438 1_554
O19 V0 1.981790 1_565
O20 P6 1.541861 1_555
O20 V0 2.095475 1_555
O21 P8 1.561019 1_555
O22 P7 1.527785 1_555
O22 V2 2.010892 1_555
O23 P6 1.540602 1_556
O23 V1 2.059545 1_555
O24 P5 1.530963 1_554
O25 P4 1.524943 1_555
O26 P3 1.573602 1_555
O26 V3 2.124949 1_565
O27 P5 1.546605 1_555
O28 P6 1.576987 1_556
O29 P8 1.584986 1_555
O30 P7 1.593038 1_555
O31 P8 1.526537 1_555
O31 V3 1.926672 1_555
O32 P7 1.547283 1_555
O32 V3 2.067650 1_555
O33 P6 1.547068 1_555
O34 P8 1.537522 1_555
O35 P7 1.547085 1_555
O36 P9 1.554478 1_555
O37 P10 1.530793 1_555
O38 P11 1.554616 1_555
O38 V3 2.029476 1_565
O39 P9 1.553617 1_555
O40 P9 1.582949 1_545
O40 V3 2.041257 1_555
O41 P10 1.533868 1_555
O42 P10 1.582405 1_555
O43 P11 1.572089 1_555
O44 P1 1.564011 1_655
O45 P0 1.551167 1_655
O46 P0 1.530579 1_655
O46 V3 2.070290 1_555
O47 P2 1.520108 1_655
