# generated using pymatgen
data_VOF3
_symmetry_space_group_name_H-M   'P 1'
_cell_length_a   7.90121700
_cell_length_b   5.29786600
_cell_length_c   9.09324561
_cell_angle_alpha   69.99318840
_cell_angle_beta   90.00000000
_cell_angle_gamma   90.00000000
_symmetry_Int_Tables_number   1
_chemical_formula_structural   VOF3
_chemical_formula_sum   'V4 O4 F12'
_cell_volume   357.66867135
_cell_formula_units_Z   4
loop_
 _symmetry_equiv_pos_site_id
 _symmetry_equiv_pos_as_xyz
  1  'x, y, z'
loop_
 _atom_site_type_symbol
 _atom_site_label
 _atom_site_symmetry_multiplicity
 _atom_site_fract_x
 _atom_site_fract_y
 _atom_site_fract_z
 _atom_site_occupancy
  V  V0  1  0.67556500  0.86358200  0.54809100  1
  V  V1  1  0.82443500  0.86358200  0.04809100  1
  V  V2  1  0.17556500  0.13641800  0.95190900  1
  V  V3  1  0.32443500  0.13641800  0.45190900  1
  O  O0  1  0.94004100  0.93115900  0.88920300  1
  O  O1  1  0.55995900  0.93115900  0.38920300  1
  O  O2  1  0.44004100  0.06884100  0.61079700  1
  O  O3  1  0.05995900  0.06884100  0.11079700  1
  F  F0  1  0.26998500  0.85107100  0.92928700  1
  F  F1  1  0.23001500  0.85107100  0.42928700  1
  F  F2  1  0.85712500  0.71248600  0.50607800  1
  F  F3  1  0.59473700  0.59229400  0.70426500  1
  F  F4  1  0.09473700  0.40770600  0.79573500  1
  F  F5  1  0.35712500  0.28751400  0.99392200  1
  F  F6  1  0.64287500  0.71248600  0.00607800  1
  F  F7  1  0.90526300  0.59229400  0.20426500  1
  F  F8  1  0.40526300  0.40770600  0.29573500  1
  F  F9  1  0.14287500  0.28751400  0.49392200  1
  F  F10  1  0.76998500  0.14892900  0.57071300  1
  F  F11  1  0.73001500  0.14892900  0.07071300  1
loop_
_geom_bond_atom_site_label_1
_geom_bond_atom_site_label_2
_geom_bond_distance
_geom_bond_site_symmetry_2
O0 V1 1.641966 1_556
O1 V0 1.641966 1_555
O2 V3 1.641966 1_555
O3 V2 1.641966 1_554
F0 V2 1.759829 1_565
F1 V3 1.759829 1_565
F2 V0 1.747543 1_555
F3 V0 1.758884 1_555
F4 V2 1.758884 1_555
F5 V2 1.747543 1_555
F6 V1 1.747543 1_555
F7 V1 1.758884 1_555
F8 V3 1.758884 1_555
F9 V3 1.747543 1_555
F10 V0 1.759829 1_545
F11 V1 1.759829 1_545
