# generated using pymatgen
data_LiV4CuO12
_symmetry_space_group_name_H-M   'P 1'
_cell_length_a   5.00378000
_cell_length_b   5.38938176
_cell_length_c   7.34331714
_cell_angle_alpha   84.54029710
_cell_angle_beta   89.83654650
_cell_angle_gamma   89.79127652
_symmetry_Int_Tables_number   1
_chemical_formula_structural   LiV4CuO12
_chemical_formula_sum   'Li1 V4 Cu1 O12'
_cell_volume   197.12897429
_cell_formula_units_Z   1
loop_
 _symmetry_equiv_pos_site_id
 _symmetry_equiv_pos_as_xyz
  1  'x, y, z'
loop_
 _atom_site_type_symbol
 _atom_site_label
 _atom_site_symmetry_multiplicity
 _atom_site_fract_x
 _atom_site_fract_y
 _atom_site_fract_z
 _atom_site_occupancy
  Li  Li0  1  0.49789500  0.93146500  0.21025400  1
  V  V0  1  0.99027000  0.98562800  0.00703500  1
  V  V1  1  0.50621700  0.50651200  0.49152600  1
  V  V2  1  0.00718700  0.98500400  0.49340200  1
  V  V3  1  0.49199000  0.48928100  0.99412900  1
  Cu  Cu0  1  0.00057600  0.40520600  0.70728900  1
  O  O0  1  0.70703500  0.24577500  0.57936100  1
  O  O1  1  0.88177100  0.03415600  0.27210800  1
  O  O2  1  0.69669200  0.83973000  0.97351700  1
  O  O3  1  0.82104400  0.71822800  0.58413800  1
  O  O4  1  0.20323100  0.74429300  0.06769500  1
  O  O5  1  0.59793400  0.53754500  0.26996800  1
  O  O6  1  0.35612000  0.53635700  0.77081200  1
  O  O7  1  0.81095500  0.35659100  0.94613500  1
  O  O8  1  0.19429900  0.34717200  0.47662400  1
  O  O9  1  0.32069700  0.23320200  0.08010300  1
  O  O10  1  0.10369000  0.05620100  0.76924300  1
  O  O11  1  0.31239600  0.84885200  0.45726100  1
loop_
_geom_bond_atom_site_label_1
_geom_bond_atom_site_label_2
_geom_bond_distance
_geom_bond_site_symmetry_2
Li0 O9 2.010630 1_565
Li0 O11 2.046842 1_555
Li0 O1 2.064645 1_565
Li0 O2 2.099091 1_554
Li0 O4 2.123208 1_555
Li0 O5 2.183182 1_555
Cu0 O10 1.960227 1_555
Cu0 O0 1.987176 1_455
Cu0 O7 1.987466 1_455
Cu0 O6 1.989698 1_555
Cu0 O8 1.998952 1_555
Cu0 O3 2.043055 1_455
O0 V1 1.794799 1_555
O0 V2 2.185701 1_645
O1 V2 1.739948 1_645
O1 V0 2.059582 1_545
O2 V0 1.698269 1_556
O2 V3 2.144313 1_555
O3 V2 1.789572 1_655
O3 V1 2.100703 1_555
O4 V0 1.705283 1_455
O4 V3 2.095412 1_554
O5 V1 1.682303 1_555
O5 V3 2.135187 1_554
O6 V3 1.772497 1_555
O6 V1 2.202087 1_555
O7 V3 1.794255 1_555
O7 V0 2.195720 1_546
O8 V1 1.792774 1_555
O8 V2 2.160656 1_545
O9 V3 1.696364 1_554
O9 V0 2.226931 1_445
O10 V0 1.839956 1_446
O10 V2 2.153658 1_545
O11 V2 1.722724 1_555
O11 V1 2.075558 1_555
