# generated using pymatgen
data_Na4Co2C4SO16
_symmetry_space_group_name_H-M   'P 1'
_cell_length_a   9.97822673
_cell_length_b   9.95585090
_cell_length_c   9.82554081
_cell_angle_alpha   60.58211172
_cell_angle_beta   60.35505331
_cell_angle_gamma   59.06283498
_symmetry_Int_Tables_number   1
_chemical_formula_structural   Na4Co2C4SO16
_chemical_formula_sum   'Na8 Co4 C8 S2 O32'
_cell_volume   689.91726211
_cell_formula_units_Z   2
loop_
 _symmetry_equiv_pos_site_id
 _symmetry_equiv_pos_as_xyz
  1  'x, y, z'
loop_
 _atom_site_type_symbol
 _atom_site_label
 _atom_site_symmetry_multiplicity
 _atom_site_fract_x
 _atom_site_fract_y
 _atom_site_fract_z
 _atom_site_occupancy
  Na  Na0  1  0.28727000  0.71273000  0.28727000  1
  Na  Na1  1  0.96225200  0.53774800  0.53774800  1
  Na  Na2  1  0.53774800  0.96225200  0.96225200  1
  Na  Na3  1  0.53727000  0.96273000  0.53727000  1
  Na  Na4  1  0.71273000  0.28727000  0.71273000  1
  Na  Na5  1  0.71225200  0.28774800  0.28774800  1
  Na  Na6  1  0.28774800  0.71225200  0.71225200  1
  Na  Na7  1  0.96273000  0.53727000  0.96273000  1
  Co  Co0  1  0.12500000  0.12500000  0.62500000  1
  Co  Co1  1  0.12500000  0.62500000  0.12500000  1
  Co  Co2  1  0.12500000  0.12500000  0.12500000  1
  Co  Co3  1  0.62500000  0.12500000  0.12500000  1
  C  C0  1  0.26507000  0.90725200  0.91276400  1
  C  C1  1  0.91491500  0.91276400  0.90725200  1
  C  C2  1  0.91276400  0.91491500  0.26507000  1
  C  C3  1  0.90725200  0.26507000  0.91491500  1
  C  C4  1  0.34274800  0.98493000  0.33508500  1
  C  C5  1  0.33723600  0.33508500  0.98493000  1
  C  C6  1  0.33508500  0.33723600  0.34274800  1
  C  C7  1  0.98493000  0.34274800  0.33723600  1
  S  S0  1  0.50000000  0.50000000  0.50000000  1
  S  S1  1  0.75000000  0.75000000  0.75000000  1
  O  O0  1  0.21941200  0.30797900  0.48141700  1
  O  O1  1  0.99119200  0.48141700  0.30797900  1
  O  O2  1  0.27318700  0.93240900  0.02598300  1
  O  O3  1  0.27168200  0.01645800  0.76802500  1
  O  O4  1  0.02598300  0.76842000  0.27318700  1
  O  O5  1  0.56664900  0.31514400  0.55958300  1
  O  O6  1  0.94383400  0.76802500  0.01645800  1
  O  O7  1  0.55958300  0.55862300  0.56664900  1
  O  O8  1  0.55862300  0.55958300  0.31514400  1
  O  O9  1  0.94202100  0.03058800  0.25880800  1
  O  O10  1  0.76802500  0.94383400  0.27168200  1
  O  O11  1  0.31514400  0.56664900  0.55862300  1
  O  O12  1  0.76842000  0.02598300  0.93240900  1
  O  O13  1  0.01645800  0.27168200  0.94383400  1
  O  O14  1  0.93240900  0.27318700  0.76842000  1
  O  O15  1  0.76858300  0.25880800  0.03058800  1
  O  O16  1  0.48141700  0.99119200  0.21941200  1
  O  O17  1  0.31759100  0.97681300  0.48158000  1
  O  O18  1  0.23354200  0.97831800  0.30616600  1
  O  O19  1  0.48158000  0.22401700  0.31759100  1
  O  O20  1  0.93485600  0.68335100  0.69137700  1
  O  O21  1  0.48197500  0.30616600  0.97831800  1
  O  O22  1  0.30797900  0.21941200  0.99119200  1
  O  O23  1  0.69137700  0.69041700  0.93485600  1
  O  O24  1  0.69041700  0.69137700  0.68335100  1
  O  O25  1  0.30616600  0.48197500  0.23354200  1
  O  O26  1  0.68335100  0.93485600  0.69041700  1
  O  O27  1  0.22401700  0.48158000  0.97681300  1
  O  O28  1  0.97831800  0.23354200  0.48197500  1
  O  O29  1  0.97681300  0.31759100  0.22401700  1
  O  O30  1  0.25880800  0.76858300  0.94202100  1
  O  O31  1  0.03058800  0.94202100  0.76858300  1
loop_
_geom_bond_atom_site_label_1
_geom_bond_atom_site_label_2
_geom_bond_distance
_geom_bond_site_symmetry_2
Na0 O8 2.410310 1_555
Na0 O11 2.410310 1_555
Na0 O2 2.432932 1_555
Na0 O4 2.432936 1_555
Na0 O25 2.497930 1_555
Na0 O18 2.497940 1_555
Na1 O24 2.405930 1_555
Na1 O20 2.405935 1_555
Na1 O0 2.434549 1_655
Na1 O1 2.434549 1_555
Na1 O4 2.537238 1_655
Na1 O14 2.537240 1_555
Na2 O26 2.405926 1_555
Na2 O23 2.405926 1_555
Na2 O16 2.434549 1_556
Na2 O22 2.434549 1_565
Na2 O12 2.537233 1_565
Na2 O2 2.537243 1_556
Na3 O24 2.410314 1_555
Na3 O26 2.410319 1_555
Na3 O17 2.432926 1_555
Na3 O19 2.432931 1_565
Na3 O3 2.497935 1_565
Na3 O10 2.497936 1_555
Na4 O7 2.410314 1_555
Na4 O5 2.410319 1_555
Na4 O14 2.432926 1_555
Na4 O12 2.432931 1_555
Na4 O28 2.497935 1_555
Na4 O21 2.497936 1_555
Na5 O5 2.405926 1_555
Na5 O8 2.405926 1_555
Na5 O9 2.434549 1_555
Na5 O15 2.434549 1_555
Na5 O19 2.537233 1_555
Na5 O29 2.537243 1_555
Na6 O7 2.405930 1_555
Na6 O11 2.405935 1_555
Na6 O30 2.434549 1_555
Na6 O31 2.434549 1_555
Na6 O27 2.537238 1_555
Na6 O17 2.537240 1_555
Na7 O23 2.410310 1_555
Na7 O20 2.410310 1_555
Na7 O29 2.432932 1_556
Na7 O27 2.432936 1_655
Na7 O6 2.497930 1_556
Na7 O13 2.497940 1_655
Co0 O0 2.030159 1_555
Co0 O31 2.030159 1_545
Co0 O3 2.049757 1_555
Co0 O28 2.049757 1_455
Co0 O14 2.074526 1_455
Co0 O17 2.074526 1_545
Co1 O1 2.030159 1_455
Co1 O30 2.030159 1_554
Co1 O25 2.049765 1_555
Co1 O6 2.049765 1_455
Co1 O4 2.074523 1_555
Co1 O27 2.074523 1_554
Co2 O22 2.030159 1_554
Co2 O9 2.030159 1_455
Co2 O18 2.049764 1_545
Co2 O13 2.049764 1_554
Co2 O29 2.074531 1_455
Co2 O2 2.074531 1_545
Co3 O15 2.030159 1_555
Co3 O16 2.030159 1_545
Co3 O10 2.049758 1_545
Co3 O21 2.049758 1_554
Co3 O19 2.074531 1_555
Co3 O12 2.074531 1_554
C0 O3 1.292648 1_565
C0 O30 1.293666 1_555
C0 O2 1.300192 1_556
C1 O6 1.292647 1_556
C1 O31 1.293662 1_655
C1 O12 1.300204 1_565
C2 O10 1.292655 1_555
C2 O9 1.293657 1_565
C2 O4 1.300205 1_655
C3 O13 1.292635 1_655
C3 O15 1.293663 1_556
C3 O14 1.300211 1_555
C4 O18 1.292635 1_555
C4 O16 1.293663 1_555
C4 O17 1.300211 1_555
C5 O21 1.292655 1_555
C5 O22 1.293657 1_555
C5 O27 1.300205 1_555
C6 O25 1.292647 1_555
C6 O0 1.293662 1_555
C6 O19 1.300204 1_555
C7 O28 1.292648 1_555
C7 O1 1.293666 1_555
C7 O29 1.300192 1_555
O5 S0 1.496785 1_555
O7 S0 1.496777 1_555
O8 S0 1.496785 1_555
O11 S0 1.496785 1_555
O20 S1 1.496785 1_555
O23 S1 1.496785 1_555
O24 S1 1.496777 1_555
O26 S1 1.496785 1_555
