# generated using pymatgen
data_RbDyO2
_symmetry_space_group_name_H-M   'P 1'
_cell_length_a   6.81234256
_cell_length_b   6.81234256
_cell_length_c   6.81234290
_cell_angle_alpha   29.57269551
_cell_angle_beta   29.57269551
_cell_angle_gamma   29.57269602
_symmetry_Int_Tables_number   1
_chemical_formula_structural   RbDyO2
_chemical_formula_sum   'Rb1 Dy1 O2'
_cell_volume   68.16566202
_cell_formula_units_Z   1
loop_
 _symmetry_equiv_pos_site_id
 _symmetry_equiv_pos_as_xyz
  1  'x, y, z'
loop_
 _atom_site_type_symbol
 _atom_site_label
 _atom_site_symmetry_multiplicity
 _atom_site_fract_x
 _atom_site_fract_y
 _atom_site_fract_z
 _atom_site_occupancy
  Rb  Rb0  1  -0.00000000  0.00000000  -0.00000000  1
  Dy  Dy0  1  0.50000000  0.50000000  0.50000000  1
  O  O0  1  0.77473118  0.77473118  0.77473118  1
  O  O1  1  0.22526882  0.22526882  0.22526882  1
loop_
_geom_bond_atom_site_label_1
_geom_bond_atom_site_label_2
_geom_bond_distance
_geom_bond_site_symmetry_2
Dy0 O1 2.310883 1_565
Dy0 O1 2.310883 1_655
Dy0 O0 2.310883 1_545
Dy0 O0 2.310883 1_455
Dy0 O1 2.310883 1_556
Dy0 O0 2.310883 1_554
O0 Rb0 2.912787 1_566
O0 Rb0 2.912787 1_656
O0 Rb0 2.912787 1_665
O1 Rb0 2.912787 1_655
O1 Rb0 2.912787 1_565
O1 Rb0 2.912787 1_556
