# generated using pymatgen
data_Li2MnFe(BO3)2
_symmetry_space_group_name_H-M   'P 1'
_cell_length_a   3.16191500
_cell_length_b   8.26431600
_cell_length_c   14.31362748
_cell_angle_alpha   89.98522936
_cell_angle_beta   90.00000000
_cell_angle_gamma   90.00000000
_symmetry_Int_Tables_number   1
_chemical_formula_structural   Li2MnFe(BO3)2
_chemical_formula_sum   'Li6 Mn3 Fe3 B6 O18'
_cell_volume   374.03031359
_cell_formula_units_Z   3
loop_
 _symmetry_equiv_pos_site_id
 _symmetry_equiv_pos_as_xyz
  1  'x, y, z'
loop_
 _atom_site_type_symbol
 _atom_site_label
 _atom_site_symmetry_multiplicity
 _atom_site_fract_x
 _atom_site_fract_y
 _atom_site_fract_z
 _atom_site_occupancy
  Li  Li0  1  0.50000000  0.70743900  0.01051300  1
  Li  Li1  1  0.50000000  0.65801600  0.64201900  1
  Li  Li2  1  0.50000000  0.63268900  0.34809100  1
  Li  Li3  1  0.50000000  0.20704700  0.50655400  1
  Li  Li4  1  0.50000000  0.16013100  0.14228100  1
  Li  Li5  1  0.50000000  0.13453400  0.85050300  1
  Mn  Mn0  1  0.00000000  0.86583500  0.49363200  1
  Mn  Mn1  1  0.00000000  0.80802200  0.82016000  1
  Mn  Mn2  1  0.00000000  0.32566300  0.68591400  1
  Fe  Fe0  1  0.00000000  0.82426600  0.18369800  1
  Fe  Fe1  1  0.00000000  0.36355300  0.99660100  1
  Fe  Fe2  1  0.00000000  0.31307900  0.32005800  1
  B  B0  1  0.50000000  0.00034800  0.33139500  1
  B  B1  1  0.00000000  0.00195800  0.00055800  1
  B  B2  1  0.50000000  0.99980200  0.66667400  1
  B  B3  1  0.50000000  0.49968500  0.83538800  1
  B  B4  1  0.00000000  0.49812000  0.49951400  1
  B  B5  1  0.50000000  0.50003500  0.16646900  1
  O  O0  1  0.50000000  0.99101100  0.56969100  1
  O  O1  1  0.50000000  0.98202700  0.23466300  1
  O  O2  1  0.50000000  0.86314400  0.38828700  1
  O  O3  1  0.50000000  0.85868100  0.71948100  1
  O  O4  1  0.00000000  0.84934100  0.04242200  1
  O  O5  1  0.50000000  0.65278800  0.87603700  1
  O  O6  1  0.50000000  0.65239100  0.20829800  1
  O  O7  1  0.00000000  0.63534000  0.55619000  1
  O  O8  1  0.00000000  0.51392600  0.40238200  1
  O  O9  1  0.50000000  0.48705000  0.06955900  1
  O  O10  1  0.50000000  0.48541000  0.73819700  1
  O  O11  1  0.50000000  0.36227300  0.89159300  1
  O  O12  1  0.50000000  0.36119100  0.22166300  1
  O  O13  1  0.00000000  0.34465900  0.53954000  1
  O  O14  1  0.50000000  0.15427300  0.37131200  1
  O  O15  1  0.50000000  0.14938500  0.71089600  1
  O  O16  1  0.00000000  0.14045200  0.05601400  1
  O  O17  1  0.00000000  0.01643800  0.90375200  1
loop_
_geom_bond_atom_site_label_1
_geom_bond_atom_site_label_2
_geom_bond_distance
_geom_bond_site_symmetry_2
Li0 O5 1.977232 1_554
Li0 O9 2.007704 1_555
Li0 O4 2.020789 1_555
Li0 O4 2.020789 1_655
Li1 O10 1.982167 1_555
Li1 O3 1.995108 1_555
Li1 O7 2.010954 1_555
Li1 O7 2.010954 1_655
Li2 O2 1.989702 1_555
Li2 O6 2.007517 1_555
Li2 O8 2.016495 1_655
Li2 O8 2.016495 1_555
Li3 O14 1.984437 1_555
Li3 O0 2.000873 1_545
Li3 O13 2.003998 1_555
Li3 O13 2.003998 1_655
Li4 O1 1.978394 1_545
Li4 O16 2.012634 1_555
Li4 O16 2.012634 1_655
Li4 O12 2.013211 1_555
Li5 O11 1.972008 1_555
Li5 O15 2.002017 1_555
Li5 O17 2.008112 1_655
Li5 O17 2.008112 1_555
Mn0 O7 2.104638 1_555
Mn0 O0 2.180690 1_455
Mn0 O0 2.180690 1_555
Mn0 O2 2.184859 1_455
Mn0 O2 2.184859 1_555
Mn1 O17 2.097475 1_565
Mn1 O3 2.179704 1_455
Mn1 O3 2.179704 1_555
Mn1 O5 2.187332 1_555
Mn1 O5 2.187332 1_455
Mn2 O13 2.100976 1_555
Mn2 O15 2.179298 1_555
Mn2 O15 2.179298 1_455
Mn2 O10 2.191553 1_455
Mn2 O10 2.191553 1_555
Fe0 O4 2.032709 1_555
Fe0 O6 2.154245 1_455
Fe0 O6 2.154245 1_555
Fe0 O1 2.175302 1_555
Fe0 O1 2.175302 1_455
Fe1 O16 2.030249 1_556
Fe1 O9 2.152252 1_556
Fe1 O9 2.152252 1_456
Fe1 O11 2.181443 1_555
Fe1 O11 2.181443 1_455
Fe2 O8 2.035847 1_555
Fe2 O12 2.154250 1_555
Fe2 O12 2.154250 1_455
Fe2 O14 2.181650 1_455
Fe2 O14 2.181650 1_555
B0 O1 1.392879 1_545
B0 O14 1.394641 1_555
B0 O2 1.395844 1_545
B1 O17 1.390772 1_554
B1 O16 1.393041 1_555
B1 O4 1.396244 1_545
B2 O15 1.388977 1_565
B2 O3 1.389623 1_555
B2 O0 1.390097 1_555
B3 O11 1.391535 1_555
B3 O5 1.392794 1_555
B3 O10 1.396179 1_555
B4 O13 1.391516 1_555
B4 O7 1.394491 1_555
B4 O8 1.396401 1_555
B5 O9 1.391306 1_555
B5 O12 1.392953 1_555
B5 O6 1.394360 1_555
