# generated using pymatgen
data_Na5Bi2As(CO4)4
_symmetry_space_group_name_H-M   'P 1'
_cell_length_a   10.46862600
_cell_length_b   10.46996599
_cell_length_c   18.11417618
_cell_angle_alpha   73.98442710
_cell_angle_beta   73.21239274
_cell_angle_gamma   60.22533848
_symmetry_Int_Tables_number   1
_chemical_formula_structural   Na5Bi2As(CO4)4
_chemical_formula_sum   'Na20 Bi8 As4 C16 O64'
_cell_volume   1628.77656864
_cell_formula_units_Z   4
loop_
 _symmetry_equiv_pos_site_id
 _symmetry_equiv_pos_as_xyz
  1  'x, y, z'
loop_
 _atom_site_type_symbol
 _atom_site_label
 _atom_site_symmetry_multiplicity
 _atom_site_fract_x
 _atom_site_fract_y
 _atom_site_fract_z
 _atom_site_occupancy
  Na  Na0  1  0.41074400  0.91009900  0.16053900  1
  Na  Na1  1  0.39798700  0.28467500  0.03387400  1
  Na  Na2  1  0.28386900  0.78480600  0.53436300  1
  Na  Na3  1  0.78229600  0.28676100  0.03448200  1
  Na  Na4  1  0.71422600  0.60772500  0.46414400  1
  Na  Na5  1  0.41082300  0.51752400  0.16113400  1
  Na  Na6  1  0.20930100  0.10567500  0.96278600  1
  Na  Na7  1  0.10567500  0.21452600  0.46482700  1
  Na  Na8  1  0.01920300  0.91009700  0.16031800  1
  Na  Na9  1  0.51312800  0.41119300  0.65811300  1
  Na  Na10  1  0.09040900  0.59100200  0.34060100  1
  Na  Na11  1  0.91627400  0.40516700  0.66014700  1
  Na  Na12  1  0.47728400  0.59105100  0.34078600  1
  Na  Na13  1  0.59024400  0.47570200  0.84208600  1
  Na  Na14  1  0.89772300  0.78466400  0.53381500  1
  Na  Na15  1  0.20163700  0.72742400  0.96437500  1
  Na  Na16  1  0.71495200  0.21409400  0.46461700  1
  Na  Na17  1  0.90971700  0.02296700  0.66283100  1
  Na  Na18  1  0.60813300  0.71925000  0.96596700  1
  Na  Na19  1  0.58947800  0.09221300  0.84056200  1
  Bi  Bi0  1  0.99547400  0.51011500  0.99948100  1
  Bi  Bi1  1  0.24792600  0.24250600  0.25302800  1
  Bi  Bi2  1  0.49631100  0.00925100  0.49936200  1
  Bi  Bi3  1  0.75690600  0.24244200  0.25211500  1
  Bi  Bi4  1  0.24484900  0.75461400  0.75202300  1
  Bi  Bi5  1  0.75320200  0.74638000  0.75059400  1
  Bi  Bi6  1  0.75027600  0.75534700  0.24523600  1
  Bi  Bi7  1  0.24530300  0.25039700  0.74822200  1
  As  As0  1  0.18763800  0.68725000  0.43752200  1
  As  As1  1  0.31326400  0.81198500  0.06246900  1
  As  As2  1  0.68875300  0.18618900  0.93716200  1
  As  As3  1  0.81075400  0.31421300  0.56254500  1
  C  C0  1  0.08329000  0.19889700  0.13592400  1
  C  C1  1  0.08799100  0.57761700  0.14056600  1
  C  C2  1  0.42106500  0.91821300  0.36113200  1
  C  C3  1  0.60963400  0.11275500  0.16955600  1
  C  C4  1  0.11028000  0.61093200  0.66972300  1
  C  C5  1  0.41876500  0.30162900  0.35899300  1
  C  C6  1  0.80083300  0.91705400  0.36021500  1
  C  C7  1  0.30180200  0.41942000  0.86035500  1
  C  C8  1  0.19510800  0.07888400  0.63761700  1
  C  C9  1  0.69378500  0.57816900  0.14081300  1
  C  C10  1  0.58230900  0.69693800  0.63880800  1
  C  C11  1  0.58741600  0.07788300  0.64075400  1
  C  C12  1  0.88546000  0.39537000  0.33259400  1
  C  C13  1  0.39424800  0.88837100  0.83258000  1
  C  C14  1  0.91664900  0.42222900  0.86034300  1
  C  C15  1  0.91712800  0.80011900  0.86003400  1
  O  O0  1  0.13246400  0.26489600  0.07053400  1
  O  O1  1  0.07358400  0.59928600  0.46644700  1
  O  O2  1  0.23075100  0.70223900  0.33647100  1
  O  O3  1  0.15767200  0.13873200  0.19268700  1
  O  O4  1  0.03972400  0.62930400  0.07489600  1
  O  O5  1  0.35996900  0.59977400  0.46670700  1
  O  O6  1  0.08676200  0.84723800  0.48040100  1
  O  O7  1  0.98972600  0.35895200  0.79870200  1
  O  O8  1  0.48063600  0.12350200  0.16799500  1
  O  O9  1  0.48998000  0.84647800  0.30174200  1
  O  O10  1  0.21072100  0.45425900  0.14810700  1
  O  O11  1  0.30165800  0.04461300  0.35616300  1
  O  O12  1  0.22661700  0.48207900  0.67519500  1
  O  O13  1  0.72670500  0.98461800  0.17381100  1
  O  O14  1  0.01711200  0.38000500  0.33317200  1
  O  O15  1  0.41368000  0.64470600  0.02720900  1
  O  O16  1  0.14428100  0.91369000  0.03070700  1
  O  O17  1  0.47228700  0.86313900  0.42661300  1
  O  O18  1  0.62148900  0.23249900  0.16713900  1
  O  O19  1  0.12187400  0.73115300  0.66751000  1
  O  O20  1  0.34646100  0.36370300  0.30079700  1
  O  O21  1  0.80950000  0.79096800  0.35533400  1
  O  O22  1  0.30866900  0.29605300  0.85285400  1
  O  O23  1  0.41185200  0.91488500  0.02891700  1
  O  O24  1  0.28135500  0.77643400  0.16324100  1
  O  O25  1  0.95940500  0.19025400  0.14362900  1
  O  O26  1  0.45883900  0.68842900  0.64582400  1
  O  O27  1  0.26137600  0.02799700  0.57117700  1
  O  O28  1  0.75898400  0.52736800  0.07448000  1
  O  O29  1  0.85406100  0.98815500  0.29952100  1
  O  O30  1  0.36723900  0.23187800  0.42141000  1
  O  O31  1  0.36049200  0.49164500  0.80235200  1
  O  O32  1  0.63341900  0.76254000  0.57412900  1
  O  O33  1  0.63646600  0.50475300  0.19867500  1
  O  O34  1  0.13608300  0.00569500  0.69428400  1
  O  O35  1  0.04454400  0.79727600  0.85672200  1
  O  O36  1  0.73864500  0.97102200  0.42569400  1
  O  O37  1  0.23771900  0.47083600  0.92641900  1
  O  O38  1  0.54171000  0.30929400  0.35424900  1
  O  O39  1  0.57374900  0.09918900  0.96695200  1
  O  O40  1  0.70527400  0.22999500  0.83627400  1
  O  O41  1  0.18545800  0.20239500  0.64560700  1
  O  O42  1  0.68344000  0.70277800  0.14798500  1
  O  O43  1  0.65516000  0.63668400  0.69683400  1
  O  O44  1  0.87010500  0.27902900  0.33399100  1
  O  O45  1  0.54058900  0.12898800  0.57462900  1
  O  O46  1  0.37903000  0.77131600  0.83302400  1
  O  O47  1  0.58412800  0.35876100  0.97208200  1
  O  O48  1  0.85020700  0.09736600  0.97364800  1
  O  O49  1  0.98207600  0.62281600  0.66672100  1
  O  O50  1  0.71123100  0.95476800  0.64789400  1
  O  O51  1  0.28003000  0.01859400  0.83229900  1
  O  O52  1  0.77051000  0.52626900  0.33250100  1
  O  O53  1  0.78891800  0.54219300  0.85661000  1
  O  O54  1  0.52554300  0.87165400  0.83427000  1
  O  O55  1  0.51312100  0.15122400  0.69924000  1
  O  O56  1  0.01440000  0.65192400  0.19904300  1
  O  O57  1  0.91248000  0.14433200  0.53007300  1
  O  O58  1  0.64466900  0.41451000  0.52773500  1
  O  O59  1  0.96876400  0.36859300  0.92530900  1
  O  O60  1  0.84642700  0.86708300  0.80127900  1
  O  O61  1  0.91216600  0.41438000  0.52888500  1
  O  O62  1  0.77399600  0.28360000  0.66332300  1
  O  O63  1  0.86094700  0.73296700  0.92174500  1
loop_
_geom_bond_atom_site_label_1
_geom_bond_atom_site_label_2
_geom_bond_distance
_geom_bond_site_symmetry_2
Na0 O24 2.366905 1_555
Na0 O23 2.367667 1_555
Na0 O42 2.579923 1_555
Na0 O3 2.582159 1_565
Na0 O8 2.719012 1_565
Na0 O9 2.722252 1_555
Na1 O39 2.255706 1_554
Na1 O47 2.326785 1_554
Na1 O37 2.635869 1_554
Na1 O8 2.645859 1_555
Na1 O10 2.739432 1_555
Na1 O0 2.764043 1_555
Na2 O5 2.258963 1_555
Na2 O6 2.261296 1_555
Na2 O19 2.616179 1_555
Na2 O17 2.621515 1_555
Na2 O27 2.689616 1_565
Na2 O26 2.761554 1_555
Na3 O48 2.237172 1_554
Na3 O47 2.341112 1_554
Na3 O18 2.605918 1_555
Na3 O59 2.636598 1_554
Na3 O28 2.687939 1_555
Na3 O25 2.742643 1_555
Na4 O58 2.375312 1_555
Na4 O61 2.386353 1_555
Na4 O52 2.563656 1_555
Na4 O32 2.599752 1_555
Na4 O21 2.690497 1_555
Na4 O17 2.700539 1_555
Na5 O24 2.359017 1_555
Na5 O15 2.423707 1_555
Na5 O33 2.573752 1_555
Na5 O10 2.575359 1_555
Na5 O18 2.684034 1_555
Na5 O20 2.700524 1_555
Na6 O16 2.351154 1_546
Na6 O23 2.421063 1_546
Na6 O51 2.544428 1_555
Na6 O0 2.606171 1_556
Na6 O59 2.729678 1_455
Na6 O22 2.773643 1_555
Na7 O61 2.366554 1_455
Na7 O57 2.375624 1_455
Na7 O27 2.599677 1_555
Na7 O14 2.636404 1_555
Na7 O11 2.687564 1_555
Na7 O30 2.705664 1_555
Na8 O16 2.335050 1_555
Na8 O24 2.391959 1_555
Na8 O56 2.620968 1_555
Na8 O25 2.623635 1_465
Na8 O29 2.688985 1_455
Na8 O13 2.710121 1_455
Na9 O58 2.366154 1_555
Na9 O62 2.389028 1_555
Na9 O55 2.616261 1_555
Na9 O26 2.622224 1_555
Na9 O12 2.650011 1_555
Na9 O31 2.748697 1_555
Na10 O1 2.257675 1_555
Na10 O2 2.260169 1_555
Na10 O21 2.615831 1_455
Na10 O20 2.619792 1_555
Na10 O56 2.717938 1_555
Na10 O14 2.719262 1_555
Na11 O61 2.364956 1_555
Na11 O62 2.373765 1_555
Na11 O41 2.540786 1_655
Na11 O43 2.654828 1_555
Na11 O7 2.683227 1_555
Na11 O49 2.727215 1_555
Na12 O2 2.259315 1_555
Na12 O5 2.259374 1_555
Na12 O9 2.631512 1_555
Na12 O38 2.634153 1_555
Na12 O33 2.744088 1_555
Na12 O52 2.761822 1_555
Na13 O40 2.253585 1_555
Na13 O47 2.334095 1_555
Na13 O53 2.595145 1_555
Na13 O31 2.620263 1_555
Na13 O46 2.761859 1_555
Na13 O43 2.807693 1_555
Na14 O1 2.259631 1_655
Na14 O6 2.261321 1_655
Na14 O49 2.634012 1_555
Na14 O36 2.639017 1_555
Na14 O50 2.738732 1_555
Na14 O32 2.760200 1_555
Na15 O16 2.306684 1_556
Na15 O15 2.445241 1_556
Na15 O4 2.563352 1_556
Na15 O35 2.629275 1_555
Na15 O46 2.648185 1_555
Na15 O37 2.773779 1_555
Na16 O58 2.357148 1_555
Na16 O57 2.377745 1_555
Na16 O45 2.575149 1_555
Na16 O44 2.586157 1_555
Na16 O36 2.701406 1_545
Na16 O38 2.734788 1_555
Na17 O62 2.370790 1_555
Na17 O57 2.389293 1_555
Na17 O34 2.504083 1_655
Na17 O50 2.608749 1_545
Na17 O60 2.692165 1_545
Na17 O19 2.738815 1_645
Na18 O23 2.339477 1_556
Na18 O15 2.404037 1_556
Na18 O54 2.589491 1_555
Na18 O63 2.599278 1_555
Na18 O28 2.618536 1_556
Na18 O53 2.705279 1_555
Na19 O39 2.266406 1_555
Na19 O40 2.275328 1_555
Na19 O60 2.611621 1_545
Na19 O22 2.626624 1_555
Na19 O55 2.718958 1_555
Na19 O54 2.741887 1_545
Bi0 O63 2.340785 1_555
Bi0 O4 2.349123 1_656
Bi0 O37 2.382773 1_655
Bi0 O28 2.399143 1_556
Bi0 O59 2.409544 1_555
Bi0 O0 2.427113 1_656
Bi1 O11 2.326613 1_555
Bi1 O3 2.353585 1_555
Bi1 O14 2.385512 1_555
Bi1 O8 2.395111 1_555
Bi1 O20 2.417527 1_555
Bi1 O10 2.433933 1_555
Bi2 O30 2.326077 1_555
Bi2 O45 2.351739 1_555
Bi2 O27 2.364948 1_555
Bi2 O36 2.389038 1_545
Bi2 O17 2.413714 1_545
Bi2 O32 2.465132 1_545
Bi3 O29 2.326734 1_545
Bi3 O44 2.351654 1_555
Bi3 O25 2.385352 1_555
Bi3 O38 2.393477 1_555
Bi3 O33 2.422464 1_555
Bi3 O18 2.425975 1_555
Bi4 O35 2.330962 1_555
Bi4 O34 2.344985 1_565
Bi4 O19 2.391924 1_555
Bi4 O46 2.394309 1_555
Bi4 O31 2.412327 1_555
Bi4 O26 2.429754 1_555
Bi5 O54 2.367158 1_555
Bi5 O49 2.371907 1_555
Bi5 O43 2.384553 1_555
Bi5 O50 2.386328 1_555
Bi5 O53 2.398652 1_555
Bi5 O60 2.403172 1_555
Bi6 O13 2.319358 1_555
Bi6 O42 2.350593 1_555
Bi6 O56 2.389111 1_655
Bi6 O9 2.393506 1_555
Bi6 O21 2.419747 1_555
Bi6 O52 2.427532 1_555
Bi7 O7 2.329481 1_455
Bi7 O12 2.362154 1_555
Bi7 O41 2.366654 1_555
Bi7 O51 2.397038 1_555
Bi7 O22 2.408715 1_555
Bi7 O55 2.430250 1_555
As0 O6 1.735395 1_555
As0 O1 1.735753 1_555
As0 O2 1.735947 1_555
As0 O5 1.736577 1_555
As1 O16 1.724334 1_555
As1 O23 1.725099 1_555
As1 O24 1.725852 1_555
As1 O15 1.726640 1_555
As2 O48 1.703949 1_555
As2 O39 1.735807 1_555
As2 O40 1.736012 1_555
As2 O47 1.768990 1_555
As3 O62 1.725442 1_555
As3 O61 1.725618 1_555
As3 O57 1.725656 1_555
As3 O58 1.725663 1_555
C0 O3 1.295493 1_555
C0 O0 1.301895 1_555
C0 O25 1.309452 1_455
C1 O4 1.297550 1_555
C1 O10 1.301329 1_555
C1 O56 1.307244 1_555
C2 O11 1.295501 1_565
C2 O9 1.304334 1_555
C2 O17 1.307615 1_555
C3 O13 1.293189 1_545
C3 O8 1.306336 1_555
C3 O18 1.307756 1_555
C4 O12 1.295077 1_555
C4 O49 1.300882 1_455
C4 O19 1.312161 1_555
C5 O30 1.298440 1_555
C5 O20 1.304184 1_555
C5 O38 1.305853 1_555
C6 O29 1.296104 1_555
C6 O21 1.303675 1_555
C6 O36 1.307039 1_555
C7 O22 1.300370 1_555
C7 O31 1.305134 1_555
C7 O37 1.305747 1_555
C8 O41 1.291700 1_555
C8 O34 1.300966 1_555
C8 O27 1.310723 1_555
C9 O42 1.294525 1_555
C9 O33 1.303725 1_555
C9 O28 1.308007 1_555
C10 O32 1.299826 1_555
C10 O43 1.305271 1_555
C10 O26 1.306917 1_555
C11 O45 1.298598 1_555
C11 O55 1.302575 1_555
C11 O50 1.305296 1_545
C12 O44 1.298200 1_555
C12 O52 1.299349 1_555
C12 O14 1.308690 1_655
C13 O51 1.291984 1_565
C13 O54 1.305060 1_555
C13 O46 1.309650 1_555
C14 O7 1.297033 1_555
C14 O59 1.303765 1_555
C14 O53 1.306708 1_555
C15 O63 1.298861 1_555
C15 O35 1.303465 1_655
C15 O60 1.303841 1_555
