# generated using pymatgen
data_Tb2Zr2O7
_symmetry_space_group_name_H-M   'P 1'
_cell_length_a   7.50623547
_cell_length_b   7.50623547
_cell_length_c   7.50623547
_cell_angle_alpha   60.00000000
_cell_angle_beta   60.00000000
_cell_angle_gamma   60.00000000
_symmetry_Int_Tables_number   1
_chemical_formula_structural   Tb2Zr2O7
_chemical_formula_sum   'Tb4 Zr4 O14'
_cell_volume   299.05533464
_cell_formula_units_Z   2
loop_
 _symmetry_equiv_pos_site_id
 _symmetry_equiv_pos_as_xyz
  1  'x, y, z'
loop_
 _atom_site_type_symbol
 _atom_site_label
 _atom_site_symmetry_multiplicity
 _atom_site_fract_x
 _atom_site_fract_y
 _atom_site_fract_z
 _atom_site_occupancy
  Tb  Tb0  1  0.62500000  0.62500000  0.62500000  1
  Tb  Tb1  1  0.12500000  0.62500000  0.62500000  1
  Tb  Tb2  1  0.62500000  0.12500000  0.62500000  1
  Tb  Tb3  1  0.62500000  0.62500000  0.12500000  1
  Zr  Zr0  1  0.12500000  0.12500000  0.62500000  1
  Zr  Zr1  1  0.12500000  0.62500000  0.12500000  1
  Zr  Zr2  1  0.62500000  0.12500000  0.12500000  1
  Zr  Zr3  1  0.12500000  0.12500000  0.12500000  1
  O  O0  1  0.50000000  0.50000000  0.50000000  1
  O  O1  1  0.75000000  0.75000000  0.75000000  1
  O  O2  1  0.21534400  0.78465600  0.78465600  1
  O  O3  1  0.21534400  0.21534400  0.78465600  1
  O  O4  1  0.78465600  0.21534400  0.78465600  1
  O  O5  1  0.78465600  0.78465600  0.21534400  1
  O  O6  1  0.21534400  0.78465600  0.21534400  1
  O  O7  1  0.46534400  0.03465600  0.03465600  1
  O  O8  1  0.78465600  0.21534400  0.21534400  1
  O  O9  1  0.03465600  0.46534400  0.03465600  1
  O  O10  1  0.46534400  0.03465600  0.46534400  1
  O  O11  1  0.46534400  0.46534400  0.03465600  1
  O  O12  1  0.03465600  0.03465600  0.46534400  1
  O  O13  1  0.03465600  0.46534400  0.46534400  1
loop_
_geom_bond_atom_site_label_1
_geom_bond_atom_site_label_2
_geom_bond_distance
_geom_bond_site_symmetry_2
O0 Tb0 2.298306 1_555
O0 Tb1 2.298306 1_555
O0 Tb3 2.298306 1_555
O0 Tb2 2.298306 1_555
O1 Tb2 2.298306 1_565
O1 Tb0 2.298306 1_555
O1 Tb3 2.298306 1_556
O1 Tb1 2.298306 1_655
O2 Zr0 2.107423 1_565
O2 Zr1 2.107423 1_556
O2 Tb0 2.528611 1_555
O2 Tb1 2.528611 1_555
O3 Zr3 2.107423 1_556
O3 Zr0 2.107423 1_555
O3 Tb2 2.528611 1_555
O3 Tb1 2.528611 1_555
O4 Zr0 2.107423 1_655
O4 Zr2 2.107423 1_556
O4 Tb2 2.528611 1_555
O4 Tb0 2.528611 1_555
O5 Zr2 2.107423 1_565
O5 Zr1 2.107423 1_655
O5 Tb0 2.528611 1_555
O5 Tb3 2.528611 1_555
O6 Zr3 2.107423 1_565
O6 Zr1 2.107423 1_555
O6 Tb3 2.528611 1_555
O6 Tb1 2.528611 1_555
O7 Zr3 2.107423 1_555
O7 Zr2 2.107423 1_555
O7 Tb2 2.528611 1_554
O7 Tb3 2.528611 1_545
O8 Zr3 2.107423 1_655
O8 Zr2 2.107423 1_555
O8 Tb2 2.528611 1_555
O8 Tb3 2.528611 1_555
O9 Zr3 2.107423 1_555
O9 Zr1 2.107423 1_555
O9 Tb1 2.528611 1_554
O9 Tb3 2.528611 1_455
O10 Zr2 2.107423 1_555
O10 Zr0 2.107423 1_555
O10 Tb2 2.528611 1_555
O10 Tb0 2.528611 1_545
O11 Zr1 2.107423 1_555
O11 Zr2 2.107423 1_555
O11 Tb3 2.528611 1_555
O11 Tb0 2.528611 1_554
O12 Zr3 2.107423 1_555
O12 Zr0 2.107423 1_555
O12 Tb1 2.528611 1_545
O12 Tb2 2.528611 1_455
O13 Zr1 2.107423 1_555
O13 Zr0 2.107423 1_555
O13 Tb0 2.528611 1_455
O13 Tb1 2.528611 1_555
