# generated using pymatgen
data_MoH2Cl2O3
_symmetry_space_group_name_H-M   'P 1'
_cell_length_a   3.92988300
_cell_length_b   7.88999100
_cell_length_c   9.26396800
_cell_angle_alpha   90.00000000
_cell_angle_beta   90.00000000
_cell_angle_gamma   90.00000000
_symmetry_Int_Tables_number   1
_chemical_formula_structural   MoH2Cl2O3
_chemical_formula_sum   'Mo2 H4 Cl4 O6'
_cell_volume   287.24546105
_cell_formula_units_Z   2
loop_
 _symmetry_equiv_pos_site_id
 _symmetry_equiv_pos_as_xyz
  1  'x, y, z'
loop_
 _atom_site_type_symbol
 _atom_site_label
 _atom_site_symmetry_multiplicity
 _atom_site_fract_x
 _atom_site_fract_y
 _atom_site_fract_z
 _atom_site_occupancy
  Mo  Mo0  1  0.66179900  0.79493300  0.50000000  1
  Mo  Mo1  1  0.33820100  0.29493300  0.00000000  1
  H  H0  1  0.84282500  0.45264200  0.58488600  1
  H  H1  1  0.84282500  0.45264200  0.41511400  1
  H  H2  1  0.15717500  0.95264200  0.91511400  1
  H  H3  1  0.15717500  0.95264200  0.08488600  1
  Cl  Cl0  1  0.74989500  0.73617000  0.74642400  1
  Cl  Cl1  1  0.74989500  0.73617000  0.25357600  1
  Cl  Cl2  1  0.25010500  0.23617000  0.75357600  1
  Cl  Cl3  1  0.25010500  0.23617000  0.24642400  1
  O  O0  1  0.72431300  0.49560900  0.50000000  1
  O  O1  1  0.27568700  0.99560900  0.00000000  1
  O  O2  1  0.69955200  0.00979300  0.50000000  1
  O  O3  1  0.30044800  0.50979300  0.00000000  1
  O  O4  1  0.21485100  0.76484100  0.50000000  1
  O  O5  1  0.78514900  0.26484100  0.00000000  1
loop_
_geom_bond_atom_site_label_1
_geom_bond_atom_site_label_2
_geom_bond_distance
_geom_bond_site_symmetry_2
Mo0 O2 1.701723 1_565
Mo0 O4 1.772428 1_555
Mo0 O4 2.186359 1_655
Mo0 O0 2.374407 1_555
Mo1 O3 1.701723 1_555
Mo1 O5 1.772428 1_555
Mo1 O5 2.186359 1_455
Mo1 O1 2.374407 1_545
H0 O0 0.974800 1_555
H1 O0 0.974800 1_555
H2 O1 0.974800 1_556
H3 O1 0.974800 1_555
Cl0 Mo0 2.355056 1_555
Cl1 Mo0 2.355056 1_555
Cl2 Mo1 2.355056 1_556
Cl3 Mo1 2.355056 1_555
