# generated using pymatgen
data_TiWO4
_symmetry_space_group_name_H-M   'P 1'
_cell_length_a   3.12368100
_cell_length_b   4.71396600
_cell_length_c   14.18244969
_cell_angle_alpha   89.95337947
_cell_angle_beta   90.00000000
_cell_angle_gamma   90.00000000
_symmetry_Int_Tables_number   1
_chemical_formula_structural   TiWO4
_chemical_formula_sum   'Ti3 W3 O12'
_cell_volume   208.83545353
_cell_formula_units_Z   3
loop_
 _symmetry_equiv_pos_site_id
 _symmetry_equiv_pos_as_xyz
  1  'x, y, z'
loop_
 _atom_site_type_symbol
 _atom_site_label
 _atom_site_symmetry_multiplicity
 _atom_site_fract_x
 _atom_site_fract_y
 _atom_site_fract_z
 _atom_site_occupancy
  Ti  Ti0  1  0.00000000  0.99766500  0.34107300  1
  Ti  Ti1  1  0.00000000  0.00233500  0.65892700  1
  Ti  Ti2  1  0.50000000  0.50000000  0.50000000  1
  W  W0  1  0.00000000  0.00000000  0.00000000  1
  W  W1  1  0.50000000  0.50017100  0.17458500  1
  W  W2  1  0.50000000  0.49982900  0.82541500  1
  O  O0  1  0.50000000  0.81220800  0.40326600  1
  O  O1  1  0.50000000  0.79224400  0.06846100  1
  O  O2  1  0.50000000  0.80750000  0.72390100  1
  O  O3  1  0.00000000  0.68692300  0.56361100  1
  O  O4  1  0.00000000  0.70485400  0.89511500  1
  O  O5  1  0.00000000  0.71078500  0.24195900  1
  O  O6  1  0.00000000  0.31307700  0.43638900  1
  O  O7  1  0.00000000  0.29514600  0.10488500  1
  O  O8  1  0.00000000  0.28921500  0.75804100  1
  O  O9  1  0.50000000  0.18779200  0.59673400  1
  O  O10  1  0.50000000  0.19250000  0.27609900  1
  O  O11  1  0.50000000  0.20775600  0.93153900  1
loop_
_geom_bond_atom_site_label_1
_geom_bond_atom_site_label_2
_geom_bond_distance
_geom_bond_site_symmetry_2
O0 Ti0 1.995092 1_555
O0 Ti0 1.995092 1_655
O0 Ti2 2.011195 1_555
O1 W1 2.039016 1_555
O1 W0 2.083187 1_565
O1 W0 2.083187 1_665
O2 Ti1 2.032401 1_565
O2 Ti1 2.032401 1_665
O2 W2 2.042769 1_555
O3 Ti2 2.007724 1_455
O3 Ti2 2.007724 1_555
O3 Ti1 2.010316 1_565
O4 W0 2.037607 1_566
O4 W2 2.086181 1_455
O4 W2 2.086181 1_555
O5 Ti0 1.951373 1_555
O5 W1 2.083178 1_555
O5 W1 2.083178 1_455
O6 Ti2 2.007724 1_455
O6 Ti2 2.007724 1_555
O6 Ti0 2.010316 1_545
O7 W0 2.037607 1_555
O7 W1 2.086181 1_555
O7 W1 2.086181 1_455
O8 Ti1 1.951373 1_555
O8 W2 2.083178 1_455
O8 W2 2.083178 1_555
O9 Ti1 1.995092 1_655
O9 Ti1 1.995092 1_555
O9 Ti2 2.011195 1_555
O10 Ti0 2.032401 1_545
O10 Ti0 2.032401 1_645
O10 W1 2.042769 1_555
O11 W2 2.039016 1_555
O11 W0 2.083187 1_656
O11 W0 2.083187 1_556
