# generated using pymatgen
data_Sr8Mg3Fe(MoO6)4
_symmetry_space_group_name_H-M   'P 1'
_cell_length_a   11.25110382
_cell_length_b   7.93809691
_cell_length_c   9.85050852
_cell_angle_alpha   113.73977420
_cell_angle_beta   89.86820620
_cell_angle_gamma   45.09502704
_symmetry_Int_Tables_number   1
_chemical_formula_structural   Sr8Mg3Fe(MoO6)4
_chemical_formula_sum   'Sr8 Mg3 Fe1 Mo4 O24'
_cell_volume   511.68596629
_cell_formula_units_Z   1
loop_
 _symmetry_equiv_pos_site_id
 _symmetry_equiv_pos_as_xyz
  1  'x, y, z'
loop_
 _atom_site_type_symbol
 _atom_site_label
 _atom_site_symmetry_multiplicity
 _atom_site_fract_x
 _atom_site_fract_y
 _atom_site_fract_z
 _atom_site_occupancy
  Sr  Sr0  1  0.12143400  0.24823200  0.25000700  1
  Sr  Sr1  1  0.12221600  0.75717300  0.24917100  1
  Sr  Sr2  1  0.37778400  0.24282700  0.75082900  1
  Sr  Sr3  1  0.62882700  0.25139900  0.24999400  1
  Sr  Sr4  1  0.37856600  0.75176800  0.74999300  1
  Sr  Sr5  1  0.62846400  0.74116000  0.24947000  1
  Sr  Sr6  1  0.87153600  0.25884000  0.75053000  1
  Sr  Sr7  1  0.87117300  0.74860100  0.75000600  1
  Mg  Mg0  1  0.00128000  0.99734000  0.99741300  1
  Mg  Mg1  1  0.49872000  0.00266000  0.00258700  1
  Mg  Mg2  1  0.75000000  0.00000000  0.50000000  1
  Fe  Fe0  1  0.25000000  0.00000000  0.50000000  1
  Mo  Mo0  1  0.25000000  0.50000000  0.50000000  1
  Mo  Mo1  1  0.50113200  0.49789200  0.99777200  1
  Mo  Mo2  1  0.75000000  0.50000000  0.50000000  1
  Mo  Mo3  1  0.99886800  0.50210800  0.00222800  1
  O  O0  1  0.03778300  0.21860500  0.99481200  1
  O  O1  1  0.12259000  0.25481900  0.75504200  1
  O  O2  1  0.00928000  0.70669500  0.49993800  1
  O  O3  1  0.23896400  0.29793500  0.00297000  1
  O  O4  1  0.28595600  0.21871900  0.50011300  1
  O  O5  1  0.36946000  0.26108000  0.26123000  1
  O  O6  1  0.13054000  0.73892000  0.73877000  1
  O  O7  1  0.21404400  0.78128100  0.49988700  1
  O  O8  1  0.26103600  0.70206500  0.99703000  1
  O  O9  1  0.49072000  0.29330500  0.50006200  1
  O  O10  1  0.53245600  0.22952900  0.00541500  1
  O  O11  1  0.37741000  0.74518100  0.24495800  1
  O  O12  1  0.62063500  0.25931500  0.75893200  1
  O  O13  1  0.46221700  0.78139500  0.00518800  1
  O  O14  1  0.49702900  0.71878200  0.49996800  1
  O  O15  1  0.74185700  0.29232200  0.99723800  1
  O  O16  1  0.78215700  0.22557500  0.49910700  1
  O  O17  1  0.87458800  0.24988400  0.25067500  1
  O  O18  1  0.62541200  0.75011600  0.74932500  1
  O  O19  1  0.71784300  0.77442500  0.50089300  1
  O  O20  1  0.75814300  0.70767800  0.00276200  1
  O  O21  1  0.00297100  0.28121800  0.50003200  1
  O  O22  1  0.87936500  0.74068500  0.24106800  1
  O  O23  1  0.96754400  0.77047100  0.99458500  1
loop_
_geom_bond_atom_site_label_1
_geom_bond_atom_site_label_2
_geom_bond_distance
_geom_bond_site_symmetry_2
Mg0 O17 2.048612 1_466
Mg0 O0 2.075814 1_565
Mg0 O23 2.076746 1_455
Mg0 O15 2.087131 1_465
Mg0 O8 2.087219 1_555
Mg0 O6 2.092130 1_555
Mg1 O18 2.048612 1_544
Mg1 O13 2.075814 1_545
Mg1 O10 2.076746 1_555
Mg1 O20 2.087131 1_545
Mg1 O3 2.087219 1_555
Mg1 O5 2.092130 1_555
Mg2 O16 2.065117 1_555
Mg2 O19 2.065117 1_545
Mg2 O2 2.083334 1_645
Mg2 O9 2.083334 1_555
Mg2 O22 2.094472 1_545
Mg2 O12 2.094472 1_555
Fe0 O21 1.986881 1_555
Fe0 O14 1.986881 1_545
Fe0 O4 2.041617 1_555
Fe0 O7 2.041617 1_545
Fe0 O11 2.063002 1_545
Fe0 O1 2.063002 1_555
Mo0 O5 1.931380 1_555
Mo0 O6 1.931380 1_555
Mo0 O2 1.937558 1_555
Mo0 O9 1.937558 1_555
Mo0 O7 1.968731 1_555
Mo0 O4 1.968731 1_555
Mo1 O12 1.931947 1_555
Mo1 O10 1.933204 1_556
Mo1 O13 1.933387 1_556
Mo1 O15 1.936870 1_555
Mo1 O8 1.937096 1_555
Mo1 O11 1.999456 1_556
Mo2 O19 1.936039 1_555
Mo2 O16 1.936039 1_555
Mo2 O18 2.016770 1_555
Mo2 O17 2.016770 1_555
Mo2 O14 2.034350 1_555
Mo2 O21 2.034350 1_655
Mo3 O22 1.931947 1_555
Mo3 O23 1.933204 1_554
Mo3 O0 1.933387 1_654
Mo3 O20 1.936870 1_555
Mo3 O3 1.937096 1_655
Mo3 O1 1.999456 1_654
O0 Sr4 2.636413 1_545
O0 Sr0 2.666023 1_556
O0 Sr6 3.031004 1_455
O0 Sr5 3.050499 1_456
O1 Sr4 2.800923 1_545
O1 Sr6 2.802852 1_455
O1 Sr2 2.804467 1_555
O1 Sr7 2.805519 1_455
O2 Sr7 2.680632 1_455
O2 Sr0 2.680668 1_555
O2 Sr1 3.062400 1_555
O2 Sr6 3.063734 1_465
O3 Sr2 2.634835 1_554
O3 Sr1 2.646251 1_555
O3 Sr4 3.023620 1_544
O3 Sr0 3.052988 1_555
O4 Sr5 2.666779 1_545
O4 Sr2 2.667156 1_555
O4 Sr0 3.069919 1_555
O4 Sr7 3.070294 1_455
O5 Sr5 2.858663 1_545
O5 Sr1 2.858681 1_555
O5 Sr0 2.864271 1_555
O5 Sr3 2.865116 1_555
O6 Sr6 2.858663 1_465
O6 Sr2 2.858681 1_555
O6 Sr4 2.864271 1_555
O6 Sr7 2.865116 1_455
O7 Sr6 2.666779 1_465
O7 Sr1 2.667156 1_555
O7 Sr4 3.069919 1_555
O7 Sr3 3.070294 1_555
O8 Sr1 2.634835 1_556
O8 Sr2 2.646251 1_555
O8 Sr0 3.023620 1_566
O8 Sr4 3.052988 1_555
O9 Sr3 2.680632 1_555
O9 Sr4 2.680668 1_555
O9 Sr2 3.062400 1_555
O9 Sr5 3.063734 1_545
O10 Sr3 2.636512 1_555
O10 Sr7 2.666249 1_544
O10 Sr1 3.028104 1_555
O10 Sr2 3.049997 1_554
O11 Sr0 2.800923 1_565
O11 Sr5 2.802852 1_555
O11 Sr1 2.804467 1_555
O11 Sr3 2.805519 1_555
O12 Sr4 2.820166 1_555
O12 Sr6 2.821232 1_555
O12 Sr7 2.822508 1_545
O12 Sr2 2.826074 1_555
O13 Sr0 2.636413 1_565
O13 Sr4 2.666023 1_554
O13 Sr5 3.031004 1_555
O13 Sr6 3.050499 1_554
O14 Sr4 2.623677 1_555
O14 Sr3 2.624326 1_555
O14 Sr5 3.002351 1_555
O14 Sr2 3.006572 1_565
O15 Sr5 2.633502 1_556
O15 Sr6 2.649794 1_555
O15 Sr3 3.023522 1_556
O15 Sr7 3.054653 1_545
O16 Sr1 2.650632 1_645
O16 Sr6 2.659803 1_555
O16 Sr3 2.994141 1_555
O16 Sr4 3.005318 1_555
O17 Sr3 2.756641 1_555
O17 Sr1 2.761896 1_645
O17 Sr0 2.768028 1_655
O17 Sr5 2.768981 1_555
O18 Sr7 2.756641 1_555
O18 Sr2 2.761896 1_565
O18 Sr4 2.768028 1_555
O18 Sr6 2.768981 1_555
O19 Sr2 2.650632 1_565
O19 Sr5 2.659803 1_555
O19 Sr7 2.994141 1_555
O19 Sr0 3.005318 1_655
O20 Sr6 2.633502 1_554
O20 Sr5 2.649794 1_555
O20 Sr7 3.023522 1_554
O20 Sr3 3.054653 1_565
O21 Sr0 2.623677 1_555
O21 Sr7 2.624326 1_455
O21 Sr6 3.002351 1_455
O21 Sr1 3.006572 1_545
O22 Sr0 2.820166 1_655
O22 Sr5 2.821232 1_555
O22 Sr3 2.822508 1_565
O22 Sr1 2.826074 1_655
O23 Sr7 2.636512 1_555
O23 Sr3 2.666249 1_566
O23 Sr2 3.028104 1_655
O23 Sr1 3.049997 1_656
