# generated using pymatgen
data_Li7(SbS)2
_symmetry_space_group_name_H-M   'P 1'
_cell_length_a   5.63030600
_cell_length_b   8.68482906
_cell_length_c   8.76397537
_cell_angle_alpha   80.54633359
_cell_angle_beta   85.41257567
_cell_angle_gamma   84.88803644
_symmetry_Int_Tables_number   1
_chemical_formula_structural   Li7(SbS)2
_chemical_formula_sum   'Li14 Sb4 S4'
_cell_volume   420.10920964
_cell_formula_units_Z   2
loop_
 _symmetry_equiv_pos_site_id
 _symmetry_equiv_pos_as_xyz
  1  'x, y, z'
loop_
 _atom_site_type_symbol
 _atom_site_label
 _atom_site_symmetry_multiplicity
 _atom_site_fract_x
 _atom_site_fract_y
 _atom_site_fract_z
 _atom_site_occupancy
  Li  Li0  1  0.51437200  0.17836100  0.93661000  1
  Li  Li1  1  0.08318700  0.73962600  0.81487500  1
  Li  Li2  1  0.65359500  0.72526100  0.67400600  1
  Li  Li3  1  0.23891000  0.61630100  0.46743500  1
  Li  Li4  1  0.49226600  0.04732300  0.65472600  1
  Li  Li5  1  0.03166400  0.13320300  0.91005500  1
  Li  Li6  1  0.98992200  0.06505600  0.62639700  1
  Li  Li7  1  0.01007800  0.93494400  0.37360300  1
  Li  Li8  1  0.96833600  0.86679700  0.08994500  1
  Li  Li9  1  0.50773400  0.95267700  0.34527400  1
  Li  Li10  1  0.76109000  0.38369900  0.53256500  1
  Li  Li11  1  0.34640500  0.27473900  0.32599400  1
  Li  Li12  1  0.91681300  0.26037400  0.18512500  1
  Li  Li13  1  0.48562800  0.82163900  0.06339000  1
  Sb  Sb0  1  0.84989800  0.45203500  0.88599400  1
  Sb  Sb1  1  0.23385900  0.33688100  0.67693900  1
  Sb  Sb2  1  0.76614100  0.66311900  0.32306100  1
  Sb  Sb3  1  0.15010200  0.54796500  0.11400600  1
  S  S0  1  0.76268400  0.94567300  0.85743200  1
  S  S1  1  0.28107800  0.84772200  0.57893800  1
  S  S2  1  0.71892200  0.15227800  0.42106200  1
  S  S3  1  0.23731600  0.05432700  0.14256800  1
loop_
_geom_bond_atom_site_label_1
_geom_bond_atom_site_label_2
_geom_bond_distance
_geom_bond_site_symmetry_2
Li0 S3 2.462133 1_556
Li0 S0 2.514353 1_545
Li0 Sb1 2.954160 1_555
Li0 Sb0 3.120018 1_555
Li1 S1 2.361888 1_555
Li1 S0 2.476655 1_455
Li1 Sb0 2.880002 1_455
Li1 Sb3 2.897941 1_556
Li2 S1 2.411486 1_555
Li2 S0 2.829148 1_555
Li2 Sb0 2.952430 1_555
Li2 Sb2 3.213278 1_555
Li3 S1 2.412083 1_555
Li3 Sb1 2.793069 1_555
Li3 Sb2 3.004749 1_455
Li3 Sb2 3.165974 1_555
Li3 Sb3 3.331801 1_555
Li4 S1 2.394144 1_545
Li4 S2 2.414347 1_555
Li4 S0 2.435447 1_545
Li4 Sb1 2.818190 1_555
Li5 S3 2.395798 1_556
Li5 S0 2.440652 1_445
Li5 Sb1 2.720042 1_555
Li5 Sb0 2.845504 1_455
Li6 S2 2.434286 1_555
Li6 S0 2.438041 1_545
Li6 S1 2.453653 1_645
Li6 Sb1 2.945221 1_655
Li7 S1 2.434286 1_555
Li7 S3 2.438041 1_565
Li7 S2 2.453653 1_465
Li7 Sb2 2.945221 1_455
Li8 S0 2.395798 1_554
Li8 S3 2.440652 1_665
Li8 Sb2 2.720042 1_555
Li8 Sb3 2.845504 1_655
Li9 S2 2.394144 1_565
Li9 S1 2.414347 1_555
Li9 S3 2.435447 1_565
Li9 Sb2 2.818190 1_555
Li10 S2 2.412083 1_555
Li10 Sb2 2.793069 1_555
Li10 Sb1 3.004749 1_655
Li10 Sb1 3.165974 1_555
Li10 Sb0 3.331801 1_555
Li11 S2 2.411486 1_555
Li11 S3 2.829148 1_555
Li11 Sb3 2.952430 1_555
Li11 Sb1 3.213278 1_555
Li12 S2 2.361888 1_555
Li12 S3 2.476655 1_655
Li12 Sb3 2.880002 1_655
Li12 Sb0 2.897941 1_554
Li13 S0 2.462133 1_554
Li13 S3 2.514353 1_565
Li13 Sb2 2.954160 1_555
Li13 Sb3 3.120018 1_555
Sb0 Sb1 2.934876 1_655
Sb0 Sb3 2.980323 1_656
Sb2 Sb3 2.934876 1_655
