# generated using pymatgen
data_Li3Bi(BO3)2
_symmetry_space_group_name_H-M   'P 1'
_cell_length_a   4.83476800
_cell_length_b   7.64171176
_cell_length_c   8.90827162
_cell_angle_alpha   111.12093131
_cell_angle_beta   90.76749157
_cell_angle_gamma   92.14705337
_symmetry_Int_Tables_number   1
_chemical_formula_structural   Li3Bi(BO3)2
_chemical_formula_sum   'Li6 Bi2 B4 O12'
_cell_volume   306.67097276
_cell_formula_units_Z   2
loop_
 _symmetry_equiv_pos_site_id
 _symmetry_equiv_pos_as_xyz
  1  'x, y, z'
loop_
 _atom_site_type_symbol
 _atom_site_label
 _atom_site_symmetry_multiplicity
 _atom_site_fract_x
 _atom_site_fract_y
 _atom_site_fract_z
 _atom_site_occupancy
  Li  Li0  1  0.04274000  0.66031100  0.25925000  1
  Li  Li1  1  0.66494400  0.40704900  0.37485600  1
  Li  Li2  1  0.76905200  0.65170000  0.75269300  1
  Li  Li3  1  0.23094800  0.34830000  0.24730700  1
  Li  Li4  1  0.33505600  0.59295100  0.62514400  1
  Li  Li5  1  0.95726000  0.33968900  0.74075000  1
  Bi  Bi0  1  0.40384400  0.04298700  0.80287700  1
  Bi  Bi1  1  0.59615600  0.95701300  0.19712300  1
  B  B0  1  0.55347700  0.74108400  0.45663000  1
  B  B1  1  0.72838900  0.28517300  0.05479700  1
  B  B2  1  0.27161100  0.71482700  0.94520300  1
  B  B3  1  0.44652300  0.25891600  0.54337000  1
  O  O0  1  0.71188000  0.81131100  0.36103000  1
  O  O1  1  0.19863500  0.78360900  0.10987400  1
  O  O2  1  0.62164800  0.80051800  0.62250900  1
  O  O3  1  0.34914800  0.60128000  0.39825800  1
  O  O4  1  0.88461300  0.39575200  0.18299300  1
  O  O5  1  0.53383300  0.78579500  0.92182700  1
  O  O6  1  0.46616700  0.21420500  0.07817300  1
  O  O7  1  0.11538700  0.60424800  0.81700700  1
  O  O8  1  0.65085200  0.39872000  0.60174200  1
  O  O9  1  0.37835200  0.19948200  0.37749100  1
  O  O10  1  0.80136500  0.21639100  0.89012600  1
  O  O11  1  0.28812000  0.18868900  0.63897000  1
loop_
_geom_bond_atom_site_label_1
_geom_bond_atom_site_label_2
_geom_bond_distance
_geom_bond_site_symmetry_2
Li0 O4 2.003416 1_455
Li0 O1 2.025780 1_555
Li0 O0 2.033605 1_455
Li0 O3 2.082068 1_555
Li1 O4 2.001454 1_555
Li1 O8 2.046915 1_555
Li1 O9 2.073501 1_555
Li1 O3 2.129068 1_555
Li2 O7 1.852844 1_655
Li2 O5 1.906305 1_555
Li2 O8 1.973641 1_555
Li2 O2 2.033509 1_555
Li3 O4 1.852844 1_455
Li3 O6 1.906305 1_555
Li3 O3 1.973641 1_555
Li3 O9 2.033509 1_555
Li4 O7 2.001454 1_555
Li4 O3 2.046915 1_555
Li4 O2 2.073501 1_555
Li4 O8 2.129068 1_555
Li5 O7 2.003416 1_655
Li5 O10 2.025780 1_555
Li5 O11 2.033605 1_655
Li5 O8 2.082068 1_555
Bi0 O11 2.209324 1_555
Bi0 O10 2.254041 1_555
Bi0 O2 2.273698 1_545
Bi0 O6 2.335644 1_556
Bi0 O5 2.637450 1_545
Bi1 O0 2.209324 1_555
Bi1 O1 2.254041 1_555
Bi1 O9 2.273698 1_565
Bi1 O5 2.335644 1_554
Bi1 O6 2.637450 1_565
B0 O3 1.376395 1_555
B0 O0 1.384137 1_555
B0 O2 1.410871 1_555
B1 O4 1.349934 1_555
B1 O6 1.407724 1_555
B1 O10 1.422933 1_554
B2 O7 1.349934 1_555
B2 O5 1.407724 1_555
B2 O1 1.422933 1_556
B3 O8 1.376395 1_555
B3 O11 1.384137 1_555
B3 O9 1.410871 1_555
