# generated using pymatgen
data_Li4V3P8O29
_symmetry_space_group_name_H-M   'P 1'
_cell_length_a   9.77631300
_cell_length_b   9.78359382
_cell_length_c   13.93052488
_cell_angle_alpha   90.08945018
_cell_angle_beta   90.08138329
_cell_angle_gamma   119.95394658
_symmetry_Int_Tables_number   1
_chemical_formula_structural   Li4V3P8O29
_chemical_formula_sum   'Li8 V6 P16 O58'
_cell_volume   1154.43915504
_cell_formula_units_Z   2
loop_
 _symmetry_equiv_pos_site_id
 _symmetry_equiv_pos_as_xyz
  1  'x, y, z'
loop_
 _atom_site_type_symbol
 _atom_site_label
 _atom_site_symmetry_multiplicity
 _atom_site_fract_x
 _atom_site_fract_y
 _atom_site_fract_z
 _atom_site_occupancy
  Li  Li0  1  0.91049400  0.22936800  0.55937500  1
  Li  Li1  1  0.77015400  0.09306600  0.06064500  1
  Li  Li2  1  0.32287000  0.22546900  0.05905400  1
  Li  Li3  1  0.67762100  0.90414500  0.44080200  1
  Li  Li4  1  0.32242100  0.09520800  0.55844200  1
  Li  Li5  1  0.68063400  0.76899000  0.93983900  1
  Li  Li6  1  0.09068500  0.77177700  0.44074000  1
  Li  Li7  1  0.09553500  0.32409300  0.93947200  1
  V  V0  1  0.56607000  0.99892200  0.24847900  1
  V  V1  1  0.42688600  0.99506300  0.75494700  1
  V  V2  1  0.57150000  0.56554600  0.74435200  1
  V  V3  1  0.43211900  0.43663900  0.25682900  1
  V  V4  1  0.99517500  0.56609300  0.24432800  1
  V  V5  1  0.00025900  0.43675000  0.75166100  1
  P  P0  1  0.91628300  0.68766500  0.84405800  1
  P  P1  1  0.77233900  0.68689600  0.34137500  1
  P  P2  1  0.91240700  0.23115400  0.34350800  1
  P  P3  1  0.66279600  0.33124900  0.12690900  1
  P  P4  1  0.66365700  0.32668900  0.62683100  1
  P  P5  1  0.76981000  0.08815800  0.84217300  1
  P  P6  1  0.68031600  0.91236400  0.65888400  1
  P  P7  1  0.31866100  0.23270000  0.84183400  1
  P  P8  1  0.68184400  0.76753300  0.15504900  1
  P  P9  1  0.31939700  0.08745000  0.34203000  1
  P  P10  1  0.22956500  0.91402200  0.15736900  1
  P  P11  1  0.33171800  0.66920400  0.37327400  1
  P  P12  1  0.33765500  0.66523800  0.87307100  1
  P  P13  1  0.08623300  0.76883000  0.65666400  1
  P  P14  1  0.22877300  0.31513800  0.65707300  1
  P  P15  1  0.08820000  0.31687300  0.15943900  1
  O  O0  1  0.01097700  0.76758600  0.56447200  1
  O  O1  1  0.91703000  0.66144900  0.33961600  1
  O  O2  1  0.75104000  0.75641600  0.06346800  1
  O  O3  1  0.74342200  0.66094100  0.83597000  1
  O  O4  1  0.90484600  0.52375000  0.82365300  1
  O  O5  1  0.81411500  0.48235700  0.17348800  1
  O  O6  1  0.90559700  0.38316000  0.32053500  1
  O  O7  1  0.00004400  0.24175600  0.06825100  1
  O  O8  1  0.91754300  0.25336400  0.84215100  1
  O  O9  1  0.66474600  0.47837100  0.67366100  1
  O  O10  1  0.61873000  0.52321300  0.32438200  1
  O  O11  1  0.81201800  0.32574300  0.66690300  1
  O  O12  1  0.66778100  0.33536200  0.02037800  1
  O  O13  1  0.65768100  0.32908000  0.52045800  1
  O  O14  1  0.67372700  0.18638300  0.16649700  1
  O  O15  1  0.47803600  0.38462700  0.82351300  1
  O  O16  1  0.51389900  0.33117700  0.16904400  1
  O  O17  1  0.74451600  0.08359700  0.33853700  1
  O  O18  1  0.79310200  0.00103400  0.75005600  1
  O  O19  1  0.75698400  0.99924600  0.56843600  1
  O  O20  1  0.75569100  0.99844900  0.93225500  1
  O  O21  1  0.61839200  0.09729400  0.82296600  1
  O  O22  1  0.51073400  0.18113900  0.66992500  1
  O  O23  1  0.66286400  0.91583000  0.16014700  1
  O  O24  1  0.47920300  0.09896100  0.32460200  1
  O  O25  1  0.34036600  0.25585100  0.33400200  1
  O  O26  1  0.79468900  0.78874400  0.24559000  1
  O  O27  1  0.76179700  0.76837800  0.42800900  1
  O  O28  1  0.24138900  0.23291700  0.57181400  1
  O  O29  1  0.65728000  0.74434700  0.66336800  1
  O  O30  1  0.52179400  0.90622400  0.67726000  1
  O  O31  1  0.34251300  0.08802200  0.83648300  1
  O  O32  1  0.48552900  0.81300300  0.33278900  1
  O  O33  1  0.38148500  0.90431000  0.17479900  1
  O  O34  1  0.23537100  0.00523700  0.07193300  1
  O  O35  1  0.24165200  0.00320600  0.43263300  1
  O  O36  1  0.20519700  0.99472400  0.25319400  1
  O  O37  1  0.25680400  0.91909400  0.66429100  1
  O  O38  1  0.49004900  0.67154600  0.83031300  1
  O  O39  1  0.52197200  0.61649300  0.17944400  1
  O  O40  1  0.33545200  0.81473800  0.82645200  1
  O  O41  1  0.34202600  0.67173500  0.97950600  1
  O  O42  1  0.33106700  0.66461600  0.47971600  1
  O  O43  1  0.18210800  0.66901500  0.33077000  1
  O  O44  1  0.38184900  0.47678800  0.67722500  1
  O  O45  1  0.33144600  0.51771200  0.32687200  1
  O  O46  1  0.08545900  0.74332300  0.16506600  1
  O  O47  1  0.99563100  0.78928600  0.74684900  1
  O  O48  1  0.99984500  0.76841700  0.93180200  1
  O  O49  1  0.10024800  0.62186800  0.67627500  1
  O  O50  1  0.18789700  0.51406100  0.83373700  1
  O  O51  1  0.09680100  0.47837700  0.17631400  1
  O  O52  1  0.25568400  0.33832400  0.15994000  1
  O  O53  1  0.24369400  0.24284600  0.93334300  1
  O  O54  1  0.20441700  0.21060300  0.75351200  1
  O  O55  1  0.08312500  0.33794600  0.65949800  1
  O  O56  1  0.99406300  0.24027700  0.43463800  1
  O  O57  1  0.00075800  0.20812900  0.25069500  1
loop_
_geom_bond_atom_site_label_1
_geom_bond_atom_site_label_2
_geom_bond_distance
_geom_bond_site_symmetry_2
Li0 O56 1.901537 1_555
Li0 O19 1.991079 1_545
Li0 O55 2.029903 1_655
Li0 O11 2.228418 1_555
Li1 O7 1.978013 1_655
Li1 O20 1.984738 1_544
Li1 O23 2.055152 1_545
Li1 O14 2.180777 1_555
Li2 O34 1.888800 1_555
Li2 O53 1.955331 1_554
Li2 O52 2.085103 1_555
Li2 O16 2.227830 1_555
Li3 O27 1.888008 1_555
Li3 O19 1.974594 1_555
Li3 O17 2.098449 1_565
Li3 O32 2.213918 1_555
Li4 O28 1.882265 1_555
Li4 O35 1.945930 1_555
Li4 O37 2.112210 1_545
Li4 O22 2.224896 1_555
Li5 O2 1.880635 1_556
Li5 O20 1.986275 1_555
Li5 O3 2.057588 1_555
Li5 O38 2.218545 1_555
Li6 O0 1.884679 1_555
Li6 O35 1.995458 1_565
Li6 O1 2.047018 1_455
Li6 O43 2.247864 1_555
Li7 O53 1.971555 1_555
Li7 O7 1.999253 1_556
Li7 O8 2.032914 1_455
Li7 O50 2.185322 1_555
O0 P13 1.476194 1_555
O1 P1 1.554116 1_555
O1 V4 1.981607 1_555
O2 P8 1.473955 1_555
O3 P0 1.579588 1_555
O3 V2 1.936140 1_555
O4 P0 1.576233 1_555
O4 V5 1.842069 1_655
O5 P3 1.614120 1_555
O5 V4 1.822814 1_555
O6 P2 1.555251 1_555
O6 V4 1.881623 1_555
O7 P15 1.502664 1_555
O8 P5 1.538588 1_555
O8 V5 2.005776 1_655
O9 P4 1.615276 1_555
O9 V2 1.817835 1_555
O10 P1 1.572263 1_555
O10 V3 1.838707 1_555
O11 P4 1.557739 1_555
O11 V5 1.988535 1_655
O12 P3 1.484851 1_555
O13 P4 1.483581 1_555
O14 P3 1.574117 1_555
O14 V0 1.964195 1_545
O15 P7 1.546534 1_555
O15 V2 1.891528 1_555
O16 P3 1.569996 1_555
O16 V3 2.005467 1_555
O17 P2 1.554373 1_555
O17 V0 1.962385 1_545
O18 P5 1.617515 1_555
O18 P6 1.618279 1_545
O19 P6 1.497230 1_555
O20 P5 1.499023 1_565
O21 P5 1.549831 1_555
O21 V1 1.877621 1_545
O22 P4 1.581939 1_555
O22 V1 1.976920 1_545
O23 P8 1.553408 1_555
O23 V0 1.959305 1_555
O24 P9 1.529023 1_555
O24 V0 1.906044 1_545
O25 P9 1.559605 1_555
O25 V3 1.874346 1_555
O26 P1 1.615130 1_555
O26 P8 1.617894 1_555
O27 P1 1.477169 1_555
O28 P14 1.472904 1_555
O29 P6 1.545125 1_555
O29 V2 1.892087 1_555
O30 P6 1.542435 1_555
O30 V1 1.895469 1_555
O31 P7 1.546873 1_555
O31 V1 1.883146 1_545
O32 P11 1.565502 1_555
O32 V0 1.971562 1_555
O33 P10 1.553650 1_555
O33 V0 1.868281 1_555
O34 P10 1.472767 1_545
O35 P9 1.493461 1_555
O36 P9 1.606890 1_565
O36 P10 1.627125 1_555
O37 P13 1.582467 1_555
O37 V1 1.915486 1_555
O38 P12 1.577679 1_555
O38 V2 1.991738 1_555
O39 P8 1.561619 1_555
O39 V3 1.869512 1_555
O40 P12 1.611192 1_555
O40 V1 1.826730 1_555
O41 P12 1.483599 1_555
O42 P11 1.483469 1_555
O43 P11 1.576301 1_555
O43 V4 1.989001 1_455
O44 P14 1.566372 1_555
O44 V2 1.857658 1_555
O45 P11 1.614819 1_555
O45 V3 1.824763 1_555
O46 P10 1.561028 1_555
O46 V4 1.866875 1_455
O47 P13 1.606973 1_655
O47 P0 1.631266 1_555
O48 P0 1.461248 1_555
O49 P13 1.535764 1_555
O49 V5 1.891947 1_555
O50 P12 1.569754 1_555
O50 V5 1.962193 1_555
O51 P15 1.557280 1_555
O51 V4 1.863555 1_455
O52 P15 1.543341 1_555
O52 V3 2.013623 1_555
O53 P7 1.498980 1_555
O54 P7 1.600665 1_555
O54 P14 1.633870 1_555
O55 P14 1.547848 1_555
O55 V5 2.005038 1_555
O56 P2 1.477314 1_555
O57 P15 1.605562 1_555
O57 P2 1.632498 1_455
