# generated using pymatgen
data_Ba2CaI6
_symmetry_space_group_name_H-M   'P 1'
_cell_length_a   9.64968600
_cell_length_b   10.73390500
_cell_length_c   18.33106300
_cell_angle_alpha   55.75208950
_cell_angle_beta   90.00000000
_cell_angle_gamma   90.00000000
_symmetry_Int_Tables_number   1
_chemical_formula_structural   Ba2CaI6
_chemical_formula_sum   'Ba8 Ca4 I24'
_cell_volume   1569.49297994
_cell_formula_units_Z   4
loop_
 _symmetry_equiv_pos_site_id
 _symmetry_equiv_pos_as_xyz
  1  'x, y, z'
loop_
 _atom_site_type_symbol
 _atom_site_label
 _atom_site_symmetry_multiplicity
 _atom_site_fract_x
 _atom_site_fract_y
 _atom_site_fract_z
 _atom_site_occupancy
  Ba  Ba0  1  0.71179400  0.29051700  0.09493900  1
  Ba  Ba1  1  0.89642600  0.64342000  0.70925000  1
  Ba  Ba2  1  0.39642600  0.35658000  0.79075000  1
  Ba  Ba3  1  0.21179400  0.70948300  0.40506100  1
  Ba  Ba4  1  0.78820600  0.29051700  0.59493900  1
  Ba  Ba5  1  0.60357400  0.64342000  0.20925000  1
  Ba  Ba6  1  0.10357400  0.35658000  0.29075000  1
  Ba  Ba7  1  0.28820600  0.70948300  0.90506100  1
  Ca  Ca0  1  0.64542900  0.92971700  0.43023300  1
  Ca  Ca1  1  0.14542900  0.07028300  0.06976700  1
  Ca  Ca2  1  0.85457100  0.92971700  0.93023300  1
  Ca  Ca3  1  0.35457100  0.07028300  0.56976700  1
  I  I0  1  0.33527800  0.02635600  0.41378600  1
  I  I1  1  0.26084800  0.73016100  0.70244800  1
  I  I2  1  0.60741600  0.56711400  0.86386600  1
  I  I3  1  0.94591300  0.83722700  0.47819000  1
  I  I4  1  0.06075200  0.41076900  0.92581900  1
  I  I5  1  0.05828600  0.10468200  0.21914500  1
  I  I6  1  0.55828600  0.89531800  0.28085500  1
  I  I7  1  0.44591300  0.16277300  0.02181000  1
  I  I8  1  0.56075200  0.58923100  0.57418100  1
  I  I9  1  0.10741600  0.43288600  0.63613400  1
  I  I10  1  0.76084800  0.26983900  0.79755200  1
  I  I11  1  0.83527800  0.97364400  0.08621400  1
  I  I12  1  0.16472200  0.02635600  0.91378600  1
  I  I13  1  0.23915200  0.73016100  0.20244800  1
  I  I14  1  0.89258400  0.56711400  0.36386600  1
  I  I15  1  0.43924800  0.41076900  0.42581900  1
  I  I16  1  0.55408700  0.83722700  0.97819000  1
  I  I17  1  0.44171400  0.10468200  0.71914500  1
  I  I18  1  0.94171400  0.89531800  0.78085500  1
  I  I19  1  0.93924800  0.58923100  0.07418100  1
  I  I20  1  0.05408700  0.16277300  0.52181000  1
  I  I21  1  0.39258400  0.43288600  0.13613400  1
  I  I22  1  0.73915200  0.26983900  0.29755200  1
  I  I23  1  0.66472200  0.97364400  0.58621400  1
loop_
_geom_bond_atom_site_label_1
_geom_bond_atom_site_label_2
_geom_bond_distance
_geom_bond_site_symmetry_2
Ba0 I7 3.511232 1_555
Ba0 I22 3.603570 1_555
Ba0 I2 3.690049 1_554
Ba0 I11 3.691406 1_545
Ba0 I21 3.700345 1_555
Ba0 I19 3.724210 1_555
Ba0 I5 3.902601 1_655
Ba0 I6 3.941031 1_545
Ba1 I3 3.546585 1_555
Ba1 I10 3.620208 1_555
Ba1 I1 3.621871 1_655
Ba1 I18 3.635840 1_555
Ba1 I4 3.654105 1_655
Ba1 I23 3.694848 1_555
Ba1 I2 3.724083 1_555
Ba1 I9 3.802328 1_655
Ba2 I7 3.546585 1_556
Ba2 I1 3.620208 1_555
Ba2 I10 3.621871 1_555
Ba2 I17 3.635840 1_555
Ba2 I8 3.654105 1_555
Ba2 I12 3.694848 1_555
Ba2 I9 3.724083 1_555
Ba2 I2 3.802328 1_555
Ba3 I3 3.511232 1_455
Ba3 I13 3.603570 1_555
Ba3 I9 3.690049 1_555
Ba3 I0 3.691406 1_565
Ba3 I14 3.700345 1_455
Ba3 I15 3.724210 1_555
Ba3 I6 3.902601 1_555
Ba3 I5 3.941031 1_565
Ba4 I20 3.511232 1_655
Ba4 I10 3.603570 1_555
Ba4 I14 3.690049 1_555
Ba4 I23 3.691406 1_545
Ba4 I9 3.700345 1_655
Ba4 I8 3.724210 1_555
Ba4 I17 3.902601 1_555
Ba4 I18 3.941031 1_545
Ba5 I16 3.546585 1_554
Ba5 I22 3.620208 1_555
Ba5 I13 3.621871 1_555
Ba5 I6 3.635840 1_555
Ba5 I15 3.654105 1_555
Ba5 I11 3.694848 1_555
Ba5 I14 3.724083 1_555
Ba5 I21 3.802328 1_555
Ba6 I20 3.546585 1_555
Ba6 I13 3.620208 1_555
Ba6 I22 3.621871 1_455
Ba6 I5 3.635840 1_555
Ba6 I19 3.654105 1_455
Ba6 I0 3.694848 1_555
Ba6 I21 3.724083 1_555
Ba6 I14 3.802328 1_455
Ba7 I16 3.511232 1_555
Ba7 I1 3.603570 1_555
Ba7 I21 3.690049 1_556
Ba7 I12 3.691406 1_565
Ba7 I2 3.700345 1_555
Ba7 I4 3.724210 1_555
Ba7 I18 3.902601 1_455
Ba7 I17 3.941031 1_565
Ca0 I3 3.030453 1_555
Ca0 I6 3.078881 1_555
Ca0 I0 3.126039 1_565
Ca0 I23 3.154363 1_555
Ca0 I22 3.172970 1_565
Ca0 I8 3.183243 1_555
Ca1 I7 3.030453 1_555
Ca1 I5 3.078881 1_555
Ca1 I11 3.126039 1_445
Ca1 I12 3.154363 1_554
Ca1 I13 3.172970 1_545
Ca1 I4 3.183243 1_554
Ca2 I16 3.030453 1_555
Ca2 I18 3.078881 1_555
Ca2 I12 3.126039 1_665
Ca2 I11 3.154363 1_556
Ca2 I10 3.172970 1_565
Ca2 I19 3.183243 1_556
Ca3 I20 3.030453 1_555
Ca3 I17 3.078881 1_555
Ca3 I23 3.126039 1_545
Ca3 I0 3.154363 1_555
Ca3 I1 3.172970 1_545
Ca3 I15 3.183243 1_555
