# generated using pymatgen
data_Li5Cu3(SbO5)2
_symmetry_space_group_name_H-M   'P 1'
_cell_length_a   5.26470500
_cell_length_b   5.51250697
_cell_length_c   7.89198463
_cell_angle_alpha   103.60675013
_cell_angle_beta   104.37367167
_cell_angle_gamma   104.07605544
_symmetry_Int_Tables_number   1
_chemical_formula_structural   Li5Cu3(SbO5)2
_chemical_formula_sum   'Li5 Cu3 Sb2 O10'
_cell_volume   204.27792647
_cell_formula_units_Z   1
loop_
 _symmetry_equiv_pos_site_id
 _symmetry_equiv_pos_as_xyz
  1  'x, y, z'
loop_
 _atom_site_type_symbol
 _atom_site_label
 _atom_site_symmetry_multiplicity
 _atom_site_fract_x
 _atom_site_fract_y
 _atom_site_fract_z
 _atom_site_occupancy
  Li  Li0  1  0.22399000  0.88998600  0.38310300  1
  Li  Li1  1  0.41949000  0.29933500  0.80747800  1
  Li  Li2  1  0.50000000  0.50000000  0.50000000  1
  Li  Li3  1  0.58051000  0.70066500  0.19252200  1
  Li  Li4  1  0.77601000  0.11001400  0.61689700  1
  Cu  Cu0  1  0.00000000  0.50000000  0.00000000  1
  Cu  Cu1  1  0.70823000  0.88808300  0.89840500  1
  Cu  Cu2  1  0.29177000  0.11191700  0.10159500  1
  Sb  Sb0  1  0.10911400  0.69468200  0.70089200  1
  Sb  Sb1  1  0.89088600  0.30531800  0.29910800  1
  O  O0  1  0.05695100  0.03078500  0.82979200  1
  O  O1  1  0.35708200  0.66781300  0.92708900  1
  O  O2  1  0.13789300  0.33759700  0.55053000  1
  O  O3  1  0.21294200  0.52109200  0.24957400  1
  O  O4  1  0.44582100  0.88996600  0.65905900  1
  O  O5  1  0.55417900  0.11003400  0.34094100  1
  O  O6  1  0.78705800  0.47890800  0.75042600  1
  O  O7  1  0.86210700  0.66240300  0.44947000  1
  O  O8  1  0.64291800  0.33218700  0.07291100  1
  O  O9  1  0.94304900  0.96921500  0.17020800  1
loop_
_geom_bond_atom_site_label_1
_geom_bond_atom_site_label_2
_geom_bond_distance
_geom_bond_site_symmetry_2
Li0 O5 2.013798 1_565
Li0 O3 2.037864 1_555
Li0 O9 2.151052 1_455
Li0 O4 2.200978 1_555
Li0 O7 2.262748 1_455
Li1 O8 2.073427 1_556
Li1 O6 2.153579 1_555
Li1 O1 2.168270 1_555
Li1 O0 2.186475 1_555
Li1 O2 2.283682 1_555
Li1 O4 2.339395 1_545
Li2 O2 2.076069 1_555
Li2 O7 2.076069 1_555
Li2 O6 2.216784 1_555
Li2 O3 2.216784 1_555
Li2 O5 2.341930 1_555
Li2 O4 2.341930 1_555
Li3 O1 2.073427 1_554
Li3 O3 2.153579 1_555
Li3 O8 2.168270 1_555
Li3 O9 2.186475 1_555
Li3 O7 2.283682 1_555
Li3 O5 2.339395 1_565
Li4 O4 2.013798 1_545
Li4 O6 2.037864 1_555
Li4 O0 2.151052 1_655
Li4 O5 2.200978 1_555
Li4 O2 2.262748 1_655
Cu0 O6 1.970363 1_454
Cu0 O3 1.970363 1_555
Cu0 O1 2.159306 1_554
Cu0 O8 2.159306 1_455
Cu1 O1 2.046582 1_555
Cu1 O4 2.048720 1_555
Cu1 O0 2.067392 1_665
Cu1 O9 2.071884 1_556
Cu1 O6 2.465823 1_555
Cu1 O8 2.658278 1_566
Cu2 O8 2.046582 1_555
Cu2 O5 2.048720 1_555
Cu2 O9 2.067392 1_445
Cu2 O0 2.071884 1_554
Cu2 O3 2.465823 1_555
Cu2 O1 2.658278 1_544
O0 Sb0 2.010575 1_545
O1 Sb0 1.993579 1_555
O2 Sb1 2.024870 1_455
O2 Sb0 2.107397 1_555
O3 Sb1 2.002329 1_455
O4 Sb0 1.984881 1_555
O5 Sb1 1.984881 1_555
O6 Sb0 2.002329 1_655
O7 Sb0 2.024870 1_655
O7 Sb1 2.107397 1_555
O8 Sb1 1.993579 1_555
O9 Sb1 2.010575 1_565
