# generated using pymatgen
data_Li32Mn3Cr13O48
_symmetry_space_group_name_H-M   'P 1'
_cell_length_a   5.03807400
_cell_length_b   8.71651601
_cell_length_c   19.51754599
_cell_angle_alpha   98.15936396
_cell_angle_beta   94.89354239
_cell_angle_gamma   89.74844775
_symmetry_Int_Tables_number   1
_chemical_formula_structural   Li32Mn3Cr13O48
_chemical_formula_sum   'Li32 Mn3 Cr13 O48'
_cell_volume   845.30756398
_cell_formula_units_Z   1
loop_
 _symmetry_equiv_pos_site_id
 _symmetry_equiv_pos_as_xyz
  1  'x, y, z'
loop_
 _atom_site_type_symbol
 _atom_site_label
 _atom_site_symmetry_multiplicity
 _atom_site_fract_x
 _atom_site_fract_y
 _atom_site_fract_z
 _atom_site_occupancy
  Li  Li0  1  0.99010900  0.16921500  0.24954000  1
  Li  Li1  1  0.87612100  0.37585900  0.37529800  1
  Li  Li2  1  0.75236300  0.25008000  0.99988300  1
  Li  Li3  1  0.74004100  0.92043700  0.00024700  1
  Li  Li4  1  0.98932800  0.16801900  0.74925600  1
  Li  Li5  1  0.75698900  0.58003700  0.49949400  1
  Li  Li6  1  0.87230900  0.37347300  0.87471400  1
  Li  Li7  1  0.75257500  0.24856700  0.50016800  1
  Li  Li8  1  0.73906800  0.92068500  0.49930300  1
  Li  Li9  1  0.62432100  0.12424400  0.12484900  1
  Li  Li10  1  0.75445000  0.57823200  0.99920900  1
  Li  Li11  1  0.50884800  0.33065400  0.25000900  1
  Li  Li12  1  0.62438800  0.12559700  0.62529200  1
  Li  Li13  1  0.49795000  0.00015400  0.25003700  1
  Li  Li14  1  0.49563200  0.67042400  0.25053900  1
  Li  Li15  1  0.50679800  0.32958400  0.74976400  1
  Li  Li16  1  0.37719900  0.87667000  0.37510300  1
  Li  Li17  1  0.50029400  0.00224300  0.75019800  1
  Li  Li18  1  0.25171800  0.75116700  0.99965800  1
  Li  Li19  1  0.49029100  0.66866400  0.75034000  1
  Li  Li20  1  0.24411300  0.41963500  0.99974400  1
  Li  Li21  1  0.37442100  0.87454300  0.87475400  1
  Li  Li22  1  0.26229700  0.08219100  0.50069100  1
  Li  Li23  1  0.24805600  0.74893200  0.50007200  1
  Li  Li24  1  0.12436600  0.62443500  0.12497900  1
  Li  Li25  1  0.24262800  0.42025400  0.50068300  1
  Li  Li26  1  0.00560800  0.83150400  0.25047700  1
  Li  Li27  1  0.26043400  0.07923800  0.00020800  1
  Li  Li28  1  0.12605800  0.62308800  0.62462700  1
  Li  Li29  1  0.99955500  0.49976900  0.25030100  1
  Li  Li30  1  0.00878900  0.83116300  0.75067600  1
  Li  Li31  1  0.00533500  0.49938400  0.74967500  1
  Mn  Mn0  1  0.87270000  0.70809600  0.37424100  1
  Mn  Mn1  1  0.37628500  0.54198300  0.87544500  1
  Mn  Mn2  1  0.12883900  0.29080100  0.62604100  1
  Cr  Cr0  1  0.88187000  0.03949900  0.37480700  1
  Cr  Cr1  1  0.87133900  0.70390900  0.87471700  1
  Cr  Cr2  1  0.87702300  0.03751400  0.87486500  1
  Cr  Cr3  1  0.61798800  0.78949800  0.12398000  1
  Cr  Cr4  1  0.63158300  0.45522700  0.12608900  1
  Cr  Cr5  1  0.61922700  0.79439500  0.62377700  1
  Cr  Cr6  1  0.63086700  0.45726400  0.62555200  1
  Cr  Cr7  1  0.37538400  0.54595300  0.37485700  1
  Cr  Cr8  1  0.37572800  0.21249000  0.37560100  1
  Cr  Cr9  1  0.36911600  0.21171800  0.87535600  1
  Cr  Cr10  1  0.11528200  0.95861700  0.12372400  1
  Cr  Cr11  1  0.13445200  0.29518400  0.12661500  1
  Cr  Cr12  1  0.11783800  0.95469600  0.62453500  1
  O  O0  1  0.96813400  0.10509300  0.06882000  1
  O  O1  1  0.92429600  0.78472400  0.06853900  1
  O  O2  1  0.93230800  0.42306000  0.06796100  1
  O  O3  1  0.96847100  0.10747100  0.56947200  1
  O  O4  1  0.82288500  0.96215600  0.18075800  1
  O  O5  1  0.81924100  0.32288600  0.18291600  1
  O  O6  1  0.93185000  0.78743400  0.56829900  1
  O  O7  1  0.92885300  0.42663300  0.56822700  1
  O  O8  1  0.78334400  0.64021000  0.18101000  1
  O  O9  1  0.70992000  0.85310400  0.31847100  1
  O  O10  1  0.81556700  0.95945700  0.68123800  1
  O  O11  1  0.82636800  0.32124000  0.68243400  1
  O  O12  1  0.68296800  0.53506900  0.31905600  1
  O  O13  1  0.67315200  0.17452900  0.31814800  1
  O  O14  1  0.78053600  0.64016200  0.68077500  1
  O  O15  1  0.71695600  0.85257600  0.81852200  1
  O  O16  1  0.46650900  0.60843500  0.06908200  1
  O  O17  1  0.57315200  0.71377800  0.43065700  1
  O  O18  1  0.57558400  0.07173400  0.43273100  1
  O  O19  1  0.67618300  0.53527000  0.81904000  1
  O  O20  1  0.67353200  0.17819100  0.81781500  1
  O  O21  1  0.42647200  0.92942600  0.06682700  1
  O  O22  1  0.43323700  0.29019500  0.06908700  1
  O  O23  1  0.53251200  0.39568400  0.43144500  1
  O  O24  1  0.46643300  0.60861500  0.56821900  1
  O  O25  1  0.56737600  0.71457300  0.93079400  1
  O  O26  1  0.57694600  0.07481800  0.93199000  1
  O  O27  1  0.32465200  0.82616100  0.18159500  1
  O  O28  1  0.31801400  0.46451100  0.18170500  1
  O  O29  1  0.43213000  0.92606700  0.56715300  1
  O  O30  1  0.42842000  0.28807800  0.56969700  1
  O  O31  1  0.54000100  0.39764900  0.93162700  1
  O  O32  1  0.28328700  0.14595300  0.18145500  1
  O  O33  1  0.21775200  0.35897000  0.31904700  1
  O  O34  1  0.31783400  0.82759600  0.68228100  1
  O  O35  1  0.31832100  0.46490400  0.68131200  1
  O  O36  1  0.17578000  0.67721100  0.31803700  1
  O  O37  1  0.17102400  0.03646400  0.31873700  1
  O  O38  1  0.28823300  0.14420100  0.68107500  1
  O  O39  1  0.21612700  0.35714700  0.81952700  1
  O  O40  1  0.06847900  0.57285400  0.43199700  1
  O  O41  1  0.08005800  0.21462900  0.43133800  1
  O  O42  1  0.18146200  0.67721600  0.81771800  1
  O  O43  1  0.16783900  0.03527900  0.81854000  1
  O  O44  1  0.03246600  0.89316300  0.43061800  1
  O  O45  1  0.07389800  0.57357600  0.93179800  1
  O  O46  1  0.08147500  0.21444300  0.93154000  1
  O  O47  1  0.03199300  0.89242000  0.93088200  1
loop_
_geom_bond_atom_site_label_1
_geom_bond_atom_site_label_2
_geom_bond_distance
_geom_bond_site_symmetry_2
Li0 O37 2.053783 1_655
Li0 O32 2.060195 1_655
Li0 O5 2.125895 1_555
Li0 O13 2.166038 1_555
Li0 O4 2.214054 1_545
Li0 O33 2.237350 1_655
Li1 O12 2.077521 1_555
Li1 O40 2.098698 1_655
Li1 O41 2.111619 1_655
Li1 O33 2.112747 1_655
Li1 O23 2.120102 1_555
Li1 O13 2.152910 1_555
Li2 O2 2.024497 1_556
Li2 O26 2.026863 1_555
Li2 O22 2.182451 1_556
Li2 O31 2.192052 1_555
Li2 O0 2.193227 1_556
Li2 O46 2.209120 1_655
Li3 O1 2.065068 1_555
Li3 O47 2.073335 1_654
Li3 O21 2.123854 1_555
Li3 O26 2.138495 1_564
Li3 O0 2.201100 1_565
Li3 O25 2.221767 1_554
Li4 O43 2.050277 1_655
Li4 O38 2.083845 1_655
Li4 O11 2.112063 1_555
Li4 O20 2.158234 1_555
Li4 O10 2.228064 1_545
Li4 O39 2.238687 1_655
Li5 O24 2.059378 1_555
Li5 O17 2.060261 1_555
Li5 O40 2.128513 1_655
Li5 O7 2.153634 1_555
Li5 O23 2.186105 1_555
Li5 O6 2.229483 1_555
Li6 O31 2.080612 1_555
Li6 O19 2.094188 1_555
Li6 O20 2.102914 1_555
Li6 O39 2.110336 1_655
Li6 O46 2.118085 1_655
Li6 O45 2.141477 1_655
Li7 O18 2.034524 1_555
Li7 O7 2.046433 1_555
Li7 O3 2.175950 1_555
Li7 O30 2.206293 1_555
Li7 O41 2.208027 1_655
Li7 O23 2.212409 1_555
Li8 O44 2.069611 1_655
Li8 O6 2.077671 1_555
Li8 O18 2.096093 1_565
Li8 O29 2.116191 1_555
Li8 O17 2.209686 1_555
Li8 O3 2.230627 1_565
Li9 O4 2.103945 1_545
Li9 O21 2.106200 1_545
Li9 O22 2.111765 1_555
Li9 O32 2.114267 1_555
Li9 O0 2.119643 1_555
Li9 O5 2.124808 1_555
Li10 O16 2.065386 1_556
Li10 O25 2.075942 1_555
Li10 O31 2.137110 1_555
Li10 O45 2.160652 1_655
Li10 O2 2.175399 1_556
Li10 O1 2.219794 1_556
Li11 O33 2.065652 1_555
Li11 O28 2.067831 1_555
Li11 O5 2.118499 1_555
Li11 O13 2.149845 1_555
Li11 O32 2.195173 1_555
Li11 O12 2.211525 1_555
Li12 O38 2.083726 1_555
Li12 O30 2.097412 1_555
Li12 O11 2.114050 1_555
Li12 O10 2.115268 1_545
Li12 O3 2.118474 1_555
Li12 O29 2.125497 1_545
Li13 O27 2.020988 1_545
Li13 O13 2.023510 1_555
Li13 O9 2.190424 1_545
Li13 O32 2.190945 1_555
Li13 O37 2.205148 1_555
Li13 O4 2.205383 1_545
Li14 O8 2.059804 1_555
Li14 O12 2.072157 1_555
Li14 O9 2.151879 1_555
Li14 O36 2.162172 1_555
Li14 O27 2.169321 1_555
Li14 O28 2.225235 1_555
Li15 O35 2.073380 1_555
Li15 O39 2.073754 1_555
Li15 O20 2.123332 1_555
Li15 O11 2.158044 1_555
Li15 O38 2.183986 1_555
Li15 O19 2.213427 1_555
Li16 O9 2.079050 1_555
Li16 O17 2.099598 1_555
Li16 O18 2.106008 1_565
Li16 O37 2.111051 1_565
Li16 O44 2.117963 1_555
Li16 O36 2.136811 1_555
Li17 O20 2.023914 1_555
Li17 O34 2.037448 1_545
Li17 O10 2.165775 1_545
Li17 O38 2.170018 1_555
Li17 O15 2.214645 1_545
Li17 O43 2.221582 1_555
Li18 O21 2.035920 1_556
Li18 O45 2.044696 1_555
Li18 O25 2.162368 1_555
Li18 O47 2.178735 1_555
Li18 O16 2.184349 1_556
Li18 O1 2.208288 1_456
Li19 O19 2.060504 1_555
Li19 O14 2.069592 1_555
Li19 O42 2.115655 1_555
Li19 O34 2.180235 1_555
Li19 O15 2.189989 1_555
Li19 O35 2.203486 1_555
Li20 O22 2.053425 1_556
Li20 O31 2.071167 1_555
Li20 O2 2.141600 1_456
Li20 O45 2.143719 1_555
Li20 O46 2.189364 1_555
Li20 O16 2.218202 1_556
Li21 O25 2.079722 1_555
Li21 O42 2.104577 1_555
Li21 O47 2.114762 1_555
Li21 O43 2.116282 1_565
Li21 O15 2.116571 1_555
Li21 O26 2.145718 1_565
Li22 O41 2.056708 1_555
Li22 O3 2.072254 1_455
Li22 O29 2.137334 1_545
Li22 O18 2.140212 1_555
Li22 O30 2.206775 1_555
Li22 O44 2.243424 1_545
Li23 O40 2.041493 1_555
Li23 O29 2.046884 1_555
Li23 O6 2.157336 1_455
Li23 O24 2.162338 1_555
Li23 O44 2.195086 1_555
Li23 O17 2.206426 1_555
Li24 O28 2.088695 1_555
Li24 O1 2.101568 1_455
Li24 O8 2.107720 1_455
Li24 O16 2.111042 1_555
Li24 O2 2.128957 1_455
Li24 O27 2.145890 1_555
Li25 O30 2.057625 1_555
Li25 O23 2.063197 1_555
Li25 O7 2.138681 1_455
Li25 O40 2.152083 1_555
Li25 O41 2.202336 1_555
Li25 O24 2.202929 1_555
Li26 O4 2.052551 1_455
Li26 O9 2.068738 1_455
Li26 O36 2.140768 1_555
Li26 O27 2.177953 1_555
Li26 O37 2.192990 1_565
Li26 O8 2.233408 1_455
Li27 O46 2.056909 1_554
Li27 O0 2.064119 1_455
Li27 O21 2.093415 1_545
Li27 O26 2.159664 1_554
Li27 O47 2.220906 1_544
Li27 O22 2.249249 1_555
Li28 O35 2.074088 1_555
Li28 O7 2.103439 1_455
Li28 O24 2.109367 1_555
Li28 O6 2.114076 1_455
Li28 O14 2.128436 1_455
Li28 O34 2.153517 1_555
Li29 O36 2.039519 1_655
Li29 O5 2.040835 1_555
Li29 O12 2.164045 1_555
Li29 O28 2.169428 1_655
Li29 O33 2.172300 1_655
Li29 O8 2.172776 1_555
Li30 O15 2.051736 1_455
Li30 O10 2.056808 1_455
Li30 O34 2.132967 1_555
Li30 O42 2.136246 1_555
Li30 O43 2.173589 1_565
Li30 O14 2.249418 1_455
Li31 O11 2.044123 1_455
Li31 O42 2.044622 1_555
Li31 O35 2.144303 1_555
Li31 O39 2.178269 1_555
Li31 O14 2.189331 1_455
Li31 O19 2.222366 1_455
Mn0 O9 1.919405 1_555
Mn0 O12 1.929859 1_555
Mn0 O17 1.939012 1_555
Mn0 O36 1.950816 1_655
Mn0 O40 1.952062 1_655
Mn0 O44 1.953793 1_655
Mn1 O31 1.921891 1_555
Mn1 O25 1.931578 1_555
Mn1 O19 1.939830 1_555
Mn1 O39 1.949350 1_555
Mn1 O42 1.949478 1_555
Mn1 O45 1.950041 1_555
Mn2 O38 1.914403 1_555
Mn2 O35 1.936589 1_555
Mn2 O30 1.939940 1_555
Mn2 O3 1.945179 1_455
Mn2 O11 1.950315 1_455
Mn2 O7 1.965961 1_455
Cr0 O37 1.893129 1_655
Cr0 O44 1.906333 1_645
Cr0 O13 1.968280 1_555
Cr0 O41 1.972805 1_655
Cr0 O18 1.985408 1_555
Cr0 O9 1.985427 1_545
Cr1 O19 1.919713 1_555
Cr1 O45 1.930888 1_655
Cr1 O15 1.932925 1_555
Cr1 O25 1.951286 1_555
Cr1 O47 1.976299 1_655
Cr1 O42 1.988164 1_655
Cr2 O43 1.903690 1_655
Cr2 O47 1.908559 1_645
Cr2 O26 1.953136 1_555
Cr2 O15 1.953238 1_545
Cr2 O20 1.994050 1_555
Cr2 O46 1.999574 1_655
Cr3 O16 1.900623 1_555
Cr3 O27 1.930814 1_555
Cr3 O1 1.955923 1_555
Cr3 O21 1.963454 1_555
Cr3 O8 1.967156 1_555
Cr3 O4 1.975772 1_555
Cr4 O5 1.905093 1_555
Cr4 O22 1.916839 1_555
Cr4 O8 1.927137 1_555
Cr4 O2 1.964797 1_555
Cr4 O28 1.986721 1_555
Cr4 O16 1.991772 1_555
Cr5 O29 1.897359 1_555
Cr5 O10 1.916111 1_555
Cr5 O24 1.939280 1_555
Cr5 O34 1.972662 1_555
Cr5 O6 1.981989 1_555
Cr5 O14 1.991496 1_555
Cr6 O14 1.912068 1_555
Cr6 O30 1.941819 1_555
Cr6 O7 1.942983 1_555
Cr6 O11 1.945576 1_555
Cr6 O24 1.982466 1_555
Cr6 O35 1.984732 1_555
Cr7 O17 1.922034 1_555
Cr7 O36 1.926111 1_555
Cr7 O23 1.953073 1_555
Cr7 O33 1.957915 1_555
Cr7 O12 1.963112 1_555
Cr7 O40 1.976430 1_555
Cr8 O41 1.916549 1_555
Cr8 O33 1.929574 1_555
Cr8 O23 1.931804 1_555
Cr8 O13 1.946593 1_555
Cr8 O18 1.987046 1_555
Cr8 O37 1.996195 1_555
Cr9 O46 1.888522 1_555
Cr9 O39 1.904867 1_555
Cr9 O20 1.973720 1_555
Cr9 O26 1.976885 1_555
Cr9 O31 1.979815 1_555
Cr9 O43 1.990218 1_555
Cr10 O0 1.890113 1_465
Cr10 O4 1.918276 1_455
Cr10 O1 1.938034 1_455
Cr10 O27 1.969167 1_555
Cr10 O21 1.992297 1_555
Cr10 O32 1.994896 1_565
Cr11 O28 1.892519 1_555
Cr11 O32 1.910397 1_555
Cr11 O2 1.934795 1_455
Cr11 O22 1.949984 1_555
Cr11 O5 2.001688 1_455
Cr11 O0 2.010063 1_455
Cr12 O6 1.894889 1_455
Cr12 O34 1.914097 1_555
Cr12 O3 1.937537 1_465
Cr12 O10 1.954373 1_455
Cr12 O38 2.004159 1_565
Cr12 O29 2.010862 1_555
