# generated using pymatgen
data_SrNb2O4
_symmetry_space_group_name_H-M   'P 1'
_cell_length_a   5.12647151
_cell_length_b   5.92015555
_cell_length_c   12.58161869
_cell_angle_alpha   90.00000000
_cell_angle_beta   90.00000000
_cell_angle_gamma   90.00000000
_symmetry_Int_Tables_number   1
_chemical_formula_structural   SrNb2O4
_chemical_formula_sum   'Sr4 Nb8 O16'
_cell_volume   381.84594667
_cell_formula_units_Z   4
loop_
 _symmetry_equiv_pos_site_id
 _symmetry_equiv_pos_as_xyz
  1  'x, y, z'
loop_
 _atom_site_type_symbol
 _atom_site_label
 _atom_site_symmetry_multiplicity
 _atom_site_fract_x
 _atom_site_fract_y
 _atom_site_fract_z
 _atom_site_occupancy
  Sr  Sr0  1  0.30272454  0.25000000  0.00351922  1
  Sr  Sr1  1  0.30272454  0.75000000  0.49648078  1
  Sr  Sr2  1  0.69727546  0.25000000  0.50351922  1
  Sr  Sr3  1  0.69727546  0.75000000  0.99648078  1
  Nb  Nb0  1  0.15580811  -0.00000000  0.25000000  1
  Nb  Nb1  1  0.15580811  0.50000000  0.25000000  1
  Nb  Nb2  1  0.34156695  0.25000000  0.74718231  1
  Nb  Nb3  1  0.34156695  0.75000000  0.75281769  1
  Nb  Nb4  1  0.65843305  0.25000000  0.24718231  1
  Nb  Nb5  1  0.65843305  0.75000000  0.25281769  1
  Nb  Nb6  1  0.84419189  -0.00000000  0.75000000  1
  Nb  Nb7  1  0.84419189  0.50000000  0.75000000  1
  O  O0  1  0.01119503  0.25000000  0.64528913  1
  O  O1  1  0.01119503  0.75000000  0.85471087  1
  O  O2  1  0.01032872  0.25000000  0.85168253  1
  O  O3  1  0.01032872  0.75000000  0.64831747  1
  O  O4  1  0.49194543  0.50440216  0.14359675  1
  O  O5  1  0.49194543  0.99559784  0.14359675  1
  O  O6  1  0.49194543  0.00440216  0.35640325  1
  O  O7  1  0.49194543  0.49559784  0.35640325  1
  O  O8  1  0.50805457  0.50440216  0.64359675  1
  O  O9  1  0.50805457  0.00440216  0.85640325  1
  O  O10  1  0.50805457  0.49559784  0.85640325  1
  O  O11  1  0.50805457  0.99559784  0.64359675  1
  O  O12  1  0.98967128  0.75000000  0.14831747  1
  O  O13  1  0.98967128  0.25000000  0.35168253  1
  O  O14  1  0.98880497  0.25000000  0.14528913  1
  O  O15  1  0.98880497  0.75000000  0.35471087  1
loop_
_geom_bond_atom_site_label_1
_geom_bond_atom_site_label_2
_geom_bond_distance
_geom_bond_site_symmetry_2
Nb0 O12 2.133679 1_445
Nb0 O13 2.133679 1_455
Nb0 O15 2.158498 1_445
Nb0 O14 2.158498 1_455
Nb0 O6 2.182264 1_555
Nb0 O5 2.182264 1_545
Nb1 O12 2.133679 1_455
Nb1 O13 2.133679 1_455
Nb1 O14 2.158498 1_455
Nb1 O15 2.158498 1_455
Nb1 O4 2.182264 1_555
Nb1 O7 2.182264 1_555
Nb2 O0 2.124123 1_555
Nb2 O2 2.147589 1_555
Nb2 O11 2.166867 1_545
Nb2 O8 2.166867 1_555
Nb2 O9 2.175055 1_555
Nb2 O10 2.175055 1_555
Nb3 O1 2.124123 1_555
Nb3 O3 2.147589 1_555
Nb3 O10 2.166867 1_555
Nb3 O9 2.166867 1_565
Nb3 O8 2.175055 1_555
Nb3 O11 2.175055 1_555
Nb4 O14 2.124123 1_555
Nb4 O13 2.147589 1_555
Nb4 O5 2.166867 1_545
Nb4 O4 2.166867 1_555
Nb4 O6 2.175055 1_555
Nb4 O7 2.175055 1_555
Nb5 O15 2.124123 1_555
Nb5 O12 2.147589 1_555
Nb5 O6 2.166867 1_565
Nb5 O7 2.166867 1_555
Nb5 O4 2.175055 1_555
Nb5 O5 2.175055 1_555
Nb6 O3 2.133679 1_645
Nb6 O2 2.133679 1_655
Nb6 O1 2.158498 1_645
Nb6 O0 2.158498 1_655
Nb6 O11 2.182264 1_545
Nb6 O9 2.182264 1_555
Nb7 O3 2.133679 1_655
Nb7 O2 2.133679 1_655
Nb7 O1 2.158498 1_655
Nb7 O0 2.158498 1_655
Nb7 O8 2.182264 1_555
Nb7 O10 2.182264 1_555
O0 Sr2 2.402377 1_455
O1 Sr3 2.402377 1_455
O2 Sr0 2.428234 1_556
O3 Sr1 2.428234 1_555
O4 Sr0 2.513040 1_555
O4 Sr3 2.578391 1_554
O5 Sr0 2.513040 1_565
O5 Sr3 2.578391 1_554
O6 Sr1 2.513040 1_545
O6 Sr2 2.578391 1_555
O7 Sr1 2.513040 1_555
O7 Sr2 2.578391 1_555
O8 Sr2 2.513040 1_555
O8 Sr1 2.578391 1_555
O9 Sr3 2.513040 1_545
O9 Sr0 2.578391 1_556
O10 Sr3 2.513040 1_555
O10 Sr0 2.578391 1_556
O11 Sr2 2.513040 1_565
O11 Sr1 2.578391 1_555
O12 Sr3 2.428234 1_554
O13 Sr2 2.428234 1_555
O14 Sr0 2.402377 1_655
O15 Sr1 2.402377 1_655
