# generated using pymatgen
data_Li2Nb2(PO4)3
_symmetry_space_group_name_H-M   'P 1'
_cell_length_a   8.90114052
_cell_length_b   8.90114052
_cell_length_c   8.89733165
_cell_angle_alpha   60.38625803
_cell_angle_beta   60.38625803
_cell_angle_gamma   62.12256033
_symmetry_Int_Tables_number   1
_chemical_formula_structural   Li2Nb2(PO4)3
_chemical_formula_sum   'Li4 Nb4 P6 O24'
_cell_volume   508.99794935
_cell_formula_units_Z   2
loop_
 _symmetry_equiv_pos_site_id
 _symmetry_equiv_pos_as_xyz
  1  'x, y, z'
loop_
 _atom_site_type_symbol
 _atom_site_label
 _atom_site_symmetry_multiplicity
 _atom_site_fract_x
 _atom_site_fract_y
 _atom_site_fract_z
 _atom_site_occupancy
  Li  Li0  1  0.32262600  0.18490000  0.54805300  1
  Li  Li1  1  0.81510000  0.67737400  0.95194700  1
  Li  Li2  1  0.18490000  0.32262600  0.04805300  1
  Li  Li3  1  0.67737400  0.81510000  0.45194700  1
  Nb  Nb0  1  0.86041500  0.36066200  0.85796900  1
  Nb  Nb1  1  0.63933800  0.13958500  0.64203100  1
  Nb  Nb2  1  0.36066200  0.86041500  0.35796900  1
  Nb  Nb3  1  0.13958500  0.63933800  0.14203100  1
  P  P0  1  0.53415600  0.46584400  0.25000000  1
  P  P1  1  0.46584400  0.53415600  0.75000000  1
  P  P2  1  0.24328000  0.04724300  0.96307100  1
  P  P3  1  0.95275700  0.75672000  0.53692900  1
  P  P4  1  0.04724300  0.24328000  0.46307100  1
  P  P5  1  0.75672000  0.95275700  0.03692900  1
  O  O0  1  0.49899600  0.37371200  0.70227000  1
  O  O1  1  0.88616200  0.18846900  0.51138900  1
  O  O2  1  0.71597700  0.45621700  0.08689000  1
  O  O3  1  0.69824100  0.96793900  0.89095000  1
  O  O4  1  0.37371200  0.49899600  0.20227000  1
  O  O5  1  0.54378300  0.28402300  0.41311000  1
  O  O6  1  0.08756800  0.22972900  0.94511800  1
  O  O7  1  0.39641600  0.07028300  0.77091700  1
  O  O8  1  0.77027100  0.91243200  0.55488200  1
  O  O9  1  0.03206100  0.30175900  0.60905000  1
  O  O10  1  0.07028300  0.39641600  0.27091700  1
  O  O11  1  0.81153100  0.11383800  0.98861100  1
  O  O12  1  0.18846900  0.88616200  0.01138900  1
  O  O13  1  0.92971700  0.60358400  0.72908300  1
  O  O14  1  0.96793900  0.69824100  0.39095000  1
  O  O15  1  0.22972900  0.08756800  0.44511800  1
  O  O16  1  0.60358400  0.92971700  0.22908300  1
  O  O17  1  0.91243200  0.77027100  0.05488200  1
  O  O18  1  0.45621700  0.71597700  0.58689000  1
  O  O19  1  0.62628800  0.50100400  0.79773000  1
  O  O20  1  0.30175900  0.03206100  0.10905000  1
  O  O21  1  0.28402300  0.54378300  0.91311000  1
  O  O22  1  0.11383800  0.81153100  0.48861100  1
  O  O23  1  0.50100400  0.62628800  0.29773000  1
loop_
_geom_bond_atom_site_label_1
_geom_bond_atom_site_label_2
_geom_bond_distance
_geom_bond_site_symmetry_2
Li0 O7 2.016262 1_555
Li0 O5 2.082460 1_555
Li0 O15 2.115578 1_555
Li0 O9 2.172695 1_555
Li1 O13 2.016262 1_555
Li1 O2 2.082460 1_556
Li1 O17 2.115578 1_556
Li1 O3 2.172695 1_555
Li2 O10 2.016262 1_555
Li2 O21 2.082460 1_554
Li2 O6 2.115578 1_554
Li2 O20 2.172695 1_555
Li3 O16 2.016262 1_555
Li3 O18 2.082460 1_555
Li3 O8 2.115578 1_555
Li3 O14 2.172695 1_555
Nb0 O19 2.049013 1_555
Nb0 O11 2.058538 1_555
Nb0 O13 2.113927 1_555
Nb0 O6 2.121400 1_655
Nb0 O9 2.137404 1_655
Nb0 O2 2.150901 1_556
Nb1 O0 2.049013 1_555
Nb1 O1 2.058538 1_555
Nb1 O7 2.113927 1_555
Nb1 O8 2.121400 1_545
Nb1 O3 2.137404 1_545
Nb1 O5 2.150901 1_555
Nb2 O23 2.049013 1_555
Nb2 O22 2.058538 1_555
Nb2 O16 2.113927 1_555
Nb2 O15 2.121400 1_565
Nb2 O20 2.137404 1_565
Nb2 O18 2.150901 1_555
Nb3 O4 2.049013 1_555
Nb3 O12 2.058538 1_555
Nb3 O10 2.113927 1_555
Nb3 O17 2.121400 1_455
Nb3 O14 2.137404 1_455
Nb3 O21 2.150901 1_554
O0 P1 1.545453 1_555
O1 P4 1.521952 1_655
O2 P0 1.550707 1_555
O3 P5 1.550830 1_556
O4 P0 1.545453 1_555
O5 P0 1.550707 1_555
O6 P2 1.562692 1_555
O7 P2 1.560367 1_555
O8 P3 1.562692 1_555
O9 P4 1.550830 1_555
O10 P4 1.560367 1_555
O11 P5 1.521952 1_546
O12 P2 1.521952 1_564
O13 P3 1.560367 1_555
O14 P3 1.550830 1_555
O15 P4 1.562692 1_555
O16 P5 1.560367 1_555
O17 P5 1.562692 1_555
O18 P1 1.550707 1_555
O19 P1 1.545453 1_555
O20 P2 1.550830 1_554
O21 P1 1.550707 1_555
O22 P3 1.521952 1_455
O23 P0 1.545453 1_555
