# generated using pymatgen
data_Li6B3SbO9
_symmetry_space_group_name_H-M   'P 1'
_cell_length_a   16.71376300
_cell_length_b   6.77750700
_cell_length_c   7.29231970
_cell_angle_alpha   74.97076560
_cell_angle_beta   90.00000000
_cell_angle_gamma   90.00000000
_symmetry_Int_Tables_number   1
_chemical_formula_structural   Li6B3SbO9
_chemical_formula_sum   'Li24 B12 Sb4 O36'
_cell_volume   797.80041244
_cell_formula_units_Z   4
loop_
 _symmetry_equiv_pos_site_id
 _symmetry_equiv_pos_as_xyz
  1  'x, y, z'
loop_
 _atom_site_type_symbol
 _atom_site_label
 _atom_site_symmetry_multiplicity
 _atom_site_fract_x
 _atom_site_fract_y
 _atom_site_fract_z
 _atom_site_occupancy
  Li  Li0  1  0.00305100  0.32283100  0.07103200  1
  Li  Li1  1  0.45062100  0.41502700  0.14462200  1
  Li  Li2  1  0.49694900  0.82283100  0.07103200  1
  Li  Li3  1  0.53724500  0.05573400  0.30236200  1
  Li  Li4  1  0.04937900  0.91502700  0.14462200  1
  Li  Li5  1  0.29255100  0.36670000  0.28828800  1
  Li  Li6  1  0.96275500  0.55573400  0.30236200  1
  Li  Li7  1  0.70413700  0.04971300  0.42760900  1
  Li  Li8  1  0.03110000  0.16924500  0.45569900  1
  Li  Li9  1  0.20744900  0.86670000  0.28828800  1
  Li  Li10  1  0.79586300  0.54971300  0.42760900  1
  Li  Li11  1  0.46890000  0.66924500  0.45569900  1
  Li  Li12  1  0.53110000  0.33075500  0.54430100  1
  Li  Li13  1  0.20413700  0.45028700  0.57239100  1
  Li  Li14  1  0.79255100  0.13330000  0.71171200  1
  Li  Li15  1  0.96890000  0.83075500  0.54430100  1
  Li  Li16  1  0.29586300  0.95028700  0.57239100  1
  Li  Li17  1  0.03724500  0.44426600  0.69763800  1
  Li  Li18  1  0.70744900  0.63330000  0.71171200  1
  Li  Li19  1  0.95062100  0.08497300  0.85537800  1
  Li  Li20  1  0.46275500  0.94426600  0.69763800  1
  Li  Li21  1  0.50305100  0.17716900  0.92896800  1
  Li  Li22  1  0.54937900  0.58497300  0.85537800  1
  Li  Li23  1  0.99694900  0.67716900  0.92896800  1
  B  B0  1  0.63410900  0.35159100  0.08220300  1
  B  B1  1  0.86589100  0.85159100  0.08220300  1
  B  B2  1  0.11935900  0.49924700  0.29203400  1
  B  B3  1  0.88668900  0.18393900  0.44152700  1
  B  B4  1  0.38064100  0.99924700  0.29203400  1
  B  B5  1  0.61331100  0.68393900  0.44152700  1
  B  B6  1  0.38668900  0.31606100  0.55847300  1
  B  B7  1  0.61935900  0.00075300  0.70796600  1
  B  B8  1  0.11331100  0.81606100  0.55847300  1
  B  B9  1  0.88064100  0.50075300  0.70796600  1
  B  B10  1  0.13410900  0.14840900  0.91779700  1
  B  B11  1  0.36589100  0.64840900  0.91779700  1
  Sb  Sb0  1  0.81470100  0.32716600  0.07350000  1
  Sb  Sb1  1  0.68529900  0.82716600  0.07350000  1
  Sb  Sb2  1  0.31470100  0.17283400  0.92650000  1
  Sb  Sb3  1  0.18529900  0.67283400  0.92650000  1
  O  O0  1  0.33564100  0.44996300  0.00660700  1
  O  O1  1  0.42946000  0.04017700  0.13023900  1
  O  O2  1  0.55285100  0.32487200  0.08567700  1
  O  O3  1  0.68710500  0.19382000  0.14662900  1
  O  O4  1  0.16435900  0.94996300  0.00660700  1
  O  O5  1  0.07054000  0.54017700  0.13023900  1
  O  O6  1  0.29996300  0.05891800  0.26395800  1
  O  O7  1  0.94714900  0.82487200  0.08567700  1
  O  O8  1  0.81289500  0.69382000  0.14662900  1
  O  O9  1  0.93330700  0.26377900  0.27853800  1
  O  O10  1  0.20003700  0.55891800  0.26395800  1
  O  O11  1  0.56669300  0.76377900  0.27853800  1
  O  O12  1  0.80473600  0.21827300  0.42594900  1
  O  O13  1  0.42425300  0.42382900  0.39517600  1
  O  O14  1  0.58949800  0.09030200  0.53114800  1
  O  O15  1  0.08949800  0.40969800  0.46885200  1
  O  O16  1  0.69526400  0.71827300  0.42594900  1
  O  O17  1  0.92425300  0.07617100  0.60482400  1
  O  O18  1  0.07574700  0.92383000  0.39517600  1
  O  O19  1  0.30473600  0.28172700  0.57405100  1
  O  O20  1  0.91050200  0.59030200  0.53114800  1
  O  O21  1  0.41050200  0.90969800  0.46885200  1
  O  O22  1  0.57574700  0.57617100  0.60482400  1
  O  O23  1  0.19526400  0.78172700  0.57405100  1
  O  O24  1  0.43330700  0.23622100  0.72146200  1
  O  O25  1  0.79996300  0.44108200  0.73604200  1
  O  O26  1  0.06669300  0.73622100  0.72146200  1
  O  O27  1  0.18710500  0.30618000  0.85337100  1
  O  O28  1  0.05285100  0.17512800  0.91432300  1
  O  O29  1  0.70003700  0.94108200  0.73604200  1
  O  O30  1  0.92946000  0.45982300  0.86976100  1
  O  O31  1  0.83564100  0.05003700  0.99339300  1
  O  O32  1  0.31289500  0.80618000  0.85337100  1
  O  O33  1  0.44714900  0.67512800  0.91432300  1
  O  O34  1  0.57054000  0.95982300  0.86976100  1
  O  O35  1  0.66435900  0.55003700  0.99339300  1
loop_
_geom_bond_atom_site_label_1
_geom_bond_atom_site_label_2
_geom_bond_distance
_geom_bond_site_symmetry_2
Li0 O9 1.869408 1_455
Li0 O28 1.895822 1_554
Li0 O30 1.955094 1_454
Li0 O5 1.989611 1_555
Li1 O13 1.895436 1_555
Li1 O2 1.901003 1_555
Li1 O33 2.096661 1_554
Li1 O0 2.153725 1_555
Li1 O1 2.593969 1_555
Li2 O11 1.869408 1_555
Li2 O33 1.895822 1_554
Li2 O34 1.955094 1_554
Li2 O1 1.989611 1_565
Li3 O14 1.950341 1_555
Li3 O11 2.089516 1_545
Li3 O2 2.096979 1_555
Li3 O1 2.213729 1_555
Li3 O21 2.513536 1_545
Li4 O18 1.895438 1_555
Li4 O7 1.901003 1_455
Li4 O28 2.096661 1_564
Li4 O4 2.153725 1_555
Li4 O5 2.593969 1_555
Li5 O10 1.999924 1_555
Li5 O19 2.023183 1_555
Li5 O0 2.110764 1_555
Li5 O6 2.142462 1_555
Li5 O13 2.399883 1_555
Li6 O20 1.950341 1_555
Li6 O9 2.089516 1_555
Li6 O7 2.096979 1_555
Li6 O5 2.213729 1_655
Li6 O15 2.513536 1_655
Li7 O12 2.031048 1_555
Li7 O3 2.048281 1_555
Li7 O14 2.103503 1_555
Li7 O29 2.178715 1_545
Li7 O16 2.254389 1_545
Li8 O15 1.923219 1_555
Li8 O18 1.974571 1_545
Li8 O9 2.078898 1_455
Li8 O17 2.100922 1_455
Li9 O6 1.999924 1_565
Li9 O23 2.023183 1_555
Li9 O4 2.110764 1_555
Li9 O10 2.142462 1_555
Li9 O18 2.399885 1_555
Li10 O16 2.031048 1_555
Li10 O8 2.048281 1_555
Li10 O20 2.103503 1_555
Li10 O25 2.178715 1_555
Li10 O12 2.254389 1_555
Li11 O21 1.923219 1_555
Li11 O13 1.974578 1_555
Li11 O11 2.078898 1_555
Li11 O22 2.100922 1_555
Li12 O14 1.923219 1_555
Li12 O22 1.974578 1_555
Li12 O24 2.078898 1_555
Li12 O13 2.100922 1_555
Li13 O19 2.031048 1_555
Li13 O27 2.048281 1_555
Li13 O15 2.103503 1_555
Li13 O10 2.178715 1_555
Li13 O23 2.254389 1_555
Li14 O29 1.999924 1_545
Li14 O12 2.023183 1_555
Li14 O31 2.110764 1_555
Li14 O25 2.142462 1_555
Li14 O17 2.399883 1_555
Li15 O20 1.923219 1_555
Li15 O17 1.974578 1_565
Li15 O26 2.078898 1_655
Li15 O18 2.100923 1_655
Li16 O23 2.031048 1_555
Li16 O32 2.048281 1_555
Li16 O21 2.103503 1_555
Li16 O6 2.178715 1_565
Li16 O19 2.254389 1_565
Li17 O15 1.950341 1_555
Li17 O26 2.089516 1_555
Li17 O28 2.096979 1_555
Li17 O30 2.213729 1_455
Li17 O20 2.513536 1_455
Li18 O25 1.999924 1_555
Li18 O16 2.023183 1_555
Li18 O35 2.110764 1_555
Li18 O29 2.142462 1_555
Li18 O22 2.399883 1_555
Li19 O17 1.895436 1_555
Li19 O28 1.901003 1_655
Li19 O7 2.096661 1_546
Li19 O31 2.153725 1_555
Li19 O30 2.593969 1_555
Li20 O21 1.950341 1_555
Li20 O24 2.089516 1_565
Li20 O33 2.096979 1_555
Li20 O34 2.213729 1_555
Li20 O14 2.513536 1_565
Li21 O24 1.869408 1_555
Li21 O2 1.895822 1_556
Li21 O1 1.955094 1_556
Li21 O34 1.989611 1_545
Li22 O22 1.895436 1_555
Li22 O33 1.901003 1_555
Li22 O2 2.096661 1_556
Li22 O35 2.153725 1_555
Li22 O34 2.593969 1_555
Li23 O26 1.869408 1_655
Li23 O7 1.895822 1_556
Li23 O5 1.955094 1_656
Li23 O30 1.989611 1_555
B0 O2 1.369512 1_555
B0 O3 1.374100 1_555
B0 O35 1.425569 1_554
B1 O7 1.369512 1_555
B1 O8 1.374100 1_555
B1 O31 1.425569 1_564
B2 O15 1.369003 1_555
B2 O5 1.401804 1_555
B2 O10 1.407410 1_555
B3 O17 1.376450 1_555
B3 O12 1.389079 1_555
B3 O9 1.406783 1_555
B4 O21 1.369003 1_555
B4 O1 1.401804 1_565
B4 O6 1.407410 1_565
B5 O22 1.376450 1_555
B5 O16 1.389079 1_555
B5 O11 1.406783 1_555
B6 O13 1.376450 1_555
B6 O19 1.389079 1_555
B6 O24 1.406783 1_555
B7 O14 1.369003 1_555
B7 O34 1.401804 1_545
B7 O29 1.407410 1_545
B8 O18 1.376452 1_555
B8 O23 1.389079 1_555
B8 O26 1.406783 1_555
B9 O20 1.369003 1_555
B9 O30 1.401804 1_555
B9 O25 1.407410 1_555
B10 O28 1.369512 1_555
B10 O27 1.374100 1_555
B10 O4 1.425569 1_546
B11 O33 1.369512 1_555
B11 O32 1.374100 1_555
B11 O0 1.425569 1_556
O0 Sb2 2.135551 1_554
O1 Sb2 2.449878 1_554
O3 Sb0 2.323624 1_555
O3 Sb1 2.673538 1_545
O4 Sb3 2.135551 1_554
O5 Sb3 2.449878 1_554
O6 Sb2 2.393157 1_554
O8 Sb1 2.323624 1_555
O8 Sb0 2.673538 1_555
O9 Sb0 2.452912 1_555
O10 Sb3 2.393157 1_554
O11 Sb1 2.452912 1_555
O12 Sb0 2.488865 1_555
O16 Sb1 2.488865 1_555
O19 Sb2 2.488865 1_555
O23 Sb3 2.488865 1_555
O24 Sb2 2.452912 1_555
O25 Sb0 2.393157 1_556
O26 Sb3 2.452912 1_555
O27 Sb2 2.323624 1_555
O27 Sb3 2.673538 1_555
O29 Sb1 2.393157 1_556
O30 Sb0 2.449878 1_556
O31 Sb0 2.135551 1_556
O32 Sb3 2.323624 1_555
O32 Sb2 2.673538 1_565
O34 Sb1 2.449878 1_556
O35 Sb1 2.135551 1_556
