# generated using pymatgen
data_FeO
_symmetry_space_group_name_H-M   'P 1'
_cell_length_a   3.07798566
_cell_length_b   3.07798493
_cell_length_c   5.25633287
_cell_angle_alpha   77.33374101
_cell_angle_beta   102.66624768
_cell_angle_gamma   117.26787707
_symmetry_Int_Tables_number   1
_chemical_formula_structural   FeO
_chemical_formula_sum   'Fe2 O2'
_cell_volume   42.78013222
_cell_formula_units_Z   2
loop_
 _symmetry_equiv_pos_site_id
 _symmetry_equiv_pos_as_xyz
  1  'x, y, z'
loop_
 _atom_site_type_symbol
 _atom_site_label
 _atom_site_symmetry_multiplicity
 _atom_site_fract_x
 _atom_site_fract_y
 _atom_site_fract_z
 _atom_site_occupancy
  Fe  Fe0  1  0.50000000  0.50000000  0.50000000  1
  Fe  Fe1  1  0.00000000  0.00000000  0.00000000  1
  O  O0  1  0.75000000  0.25000000  0.25000000  1
  O  O1  1  0.25000000  0.75000000  0.75000000  1
loop_
_geom_bond_atom_site_label_1
_geom_bond_atom_site_label_2
_geom_bond_distance
_geom_bond_site_symmetry_2
Fe0 O1 2.083392 1_555
Fe0 O0 2.083392 1_555
Fe0 O0 2.265716 1_565
Fe0 O1 2.265716 1_545
Fe0 O0 2.265717 1_455
Fe0 O1 2.265717 1_655
Fe1 O1 2.083392 1_544
Fe1 O0 2.083392 1_455
Fe1 O1 2.265716 1_554
Fe1 O0 2.265716 1_445
Fe1 O0 2.265717 1_555
Fe1 O1 2.265717 1_444
