# generated using pymatgen
data_LiMn2(BO3)2
_symmetry_space_group_name_H-M   'P 1'
_cell_length_a   5.20375708
_cell_length_b   5.20376523
_cell_length_c   10.34754295
_cell_angle_alpha   87.84437728
_cell_angle_beta   92.15526501
_cell_angle_gamma   61.96991791
_symmetry_Int_Tables_number   1
_chemical_formula_structural   LiMn2(BO3)2
_chemical_formula_sum   'Li2 Mn4 B4 O12'
_cell_volume   246.67405187
_cell_formula_units_Z   2
loop_
 _symmetry_equiv_pos_site_id
 _symmetry_equiv_pos_as_xyz
  1  'x, y, z'
loop_
 _atom_site_type_symbol
 _atom_site_label
 _atom_site_symmetry_multiplicity
 _atom_site_fract_x
 _atom_site_fract_y
 _atom_site_fract_z
 _atom_site_occupancy
  Li  Li0  1  0.83767800  0.13040400  0.42580300  1
  Li  Li1  1  0.86959700  0.16232900  0.92580200  1
  Mn  Mn0  1  0.15908900  0.47677300  0.37500600  1
  Mn  Mn1  1  0.50045200  0.19353900  0.13251800  1
  Mn  Mn2  1  0.52316000  0.84092700  0.87503000  1
  Mn  Mn3  1  0.80645900  0.49955400  0.63251900  1
  B  B0  1  0.17040600  0.51748600  0.87544400  1
  B  B1  1  0.48093200  0.14640000  0.62073400  1
  B  B2  1  0.48251600  0.82959700  0.37544300  1
  B  B3  1  0.85360300  0.51907100  0.12073300  1
  O  O0  1  0.08721300  0.53229800  0.18849100  1
  O  O1  1  0.21684200  0.36195900  0.56000200  1
  O  O2  1  0.16371800  0.78020700  0.88409300  1
  O  O3  1  0.42850600  0.25810700  0.90632000  1
  O  O4  1  0.50645300  0.08330600  0.34104000  1
  O  O5  1  0.21979700  0.83628200  0.38409300  1
  O  O6  1  0.73489500  0.15153200  0.60801700  1
  O  O7  1  0.46770400  0.91279100  0.68849200  1
  O  O8  1  0.84847100  0.26510800  0.10801600  1
  O  O9  1  0.74189700  0.57149600  0.40632000  1
  O  O10  1  0.63804200  0.78316000  0.06000300  1
  O  O11  1  0.91669600  0.49354900  0.84104100  1
loop_
_geom_bond_atom_site_label_1
_geom_bond_atom_site_label_2
_geom_bond_distance
_geom_bond_site_symmetry_2
Li0 O5 1.933033 1_645
Li0 O6 1.972137 1_555
Li0 O4 2.024771 1_555
Li0 O9 2.107137 1_555
Li1 O2 1.933040 1_645
Li1 O8 1.972134 1_556
Li1 O11 2.024739 1_555
Li1 O3 2.107133 1_555
Mn0 O0 1.936583 1_555
Mn0 O1 1.952840 1_555
Mn0 O9 2.029831 1_455
Mn0 O5 2.043282 1_555
Mn0 O4 2.051006 1_555
Mn1 O8 2.035700 1_555
Mn1 O10 2.088058 1_545
Mn1 O0 2.162141 1_555
Mn1 O4 2.206952 1_555
Mn1 O3 2.342677 1_554
Mn2 O7 1.936804 1_555
Mn2 O10 1.952680 1_556
Mn2 O3 2.029816 1_565
Mn2 O2 2.042951 1_555
Mn2 O11 2.051305 1_555
Mn3 O6 2.035704 1_555
Mn3 O1 2.088075 1_655
Mn3 O7 2.162129 1_555
Mn3 O11 2.206956 1_555
Mn3 O9 2.342685 1_555
B0 O2 1.357574 1_555
B0 O3 1.399729 1_555
B0 O11 1.416983 1_455
B1 O6 1.345564 1_555
B1 O1 1.405324 1_555
B1 O7 1.411480 1_545
B2 O5 1.357569 1_555
B2 O9 1.399738 1_555
B2 O4 1.416977 1_565
B3 O8 1.345566 1_555
B3 O10 1.405317 1_555
B3 O0 1.411484 1_655
