# generated using pymatgen
data_Ti3MnSb2(PO4)6
_symmetry_space_group_name_H-M   'P 1'
_cell_length_a   8.89964944
_cell_length_b   8.89964944
_cell_length_c   8.89964889
_cell_angle_alpha   59.04862855
_cell_angle_beta   59.04862855
_cell_angle_gamma   59.04863252
_symmetry_Int_Tables_number   1
_chemical_formula_structural   Ti3MnSb2(PO4)6
_chemical_formula_sum   'Ti3 Mn1 Sb2 P6 O24'
_cell_volume   487.61598738
_cell_formula_units_Z   1
loop_
 _symmetry_equiv_pos_site_id
 _symmetry_equiv_pos_as_xyz
  1  'x, y, z'
loop_
 _atom_site_type_symbol
 _atom_site_label
 _atom_site_symmetry_multiplicity
 _atom_site_fract_x
 _atom_site_fract_y
 _atom_site_fract_z
 _atom_site_occupancy
  Ti  Ti0  1  0.14699400  0.14699400  0.14699400  1
  Ti  Ti1  1  0.35026600  0.35026600  0.35026600  1
  Ti  Ti2  1  0.64947400  0.64947400  0.64947400  1
  Mn  Mn0  1  0.84849500  0.84849500  0.84849500  1
  Sb  Sb0  1  0.99467200  0.99467200  0.99467200  1
  Sb  Sb1  1  0.49678300  0.49678300  0.49678300  1
  P  P0  1  0.04687000  0.45429600  0.75032400  1
  P  P1  1  0.45429600  0.75032400  0.04687000  1
  P  P2  1  0.25437400  0.95815500  0.53928000  1
  P  P3  1  0.53928000  0.25437400  0.95815500  1
  P  P4  1  0.95815500  0.53928000  0.25437400  1
  P  P5  1  0.75032400  0.04687000  0.45429600  1
  O  O0  1  0.11349800  0.49379900  0.31701500  1
  O  O1  1  0.31701500  0.11349800  0.49379900  1
  O  O2  1  0.06681300  0.26187700  0.91291400  1
  O  O3  1  0.49379900  0.31701500  0.11349800  1
  O  O4  1  0.02664500  0.60411900  0.79854600  1
  O  O5  1  0.23829000  0.42624700  0.58229600  1
  O  O6  1  0.26187700  0.91291400  0.06681300  1
  O  O7  1  0.42624700  0.58229600  0.23829000  1
  O  O8  1  0.19484000  0.99654200  0.38488500  1
  O  O9  1  0.58229600  0.23829000  0.42624700  1
  O  O10  1  0.09350800  0.94408300  0.73116300  1
  O  O11  1  0.38488500  0.19484000  0.99654200  1
  O  O12  1  0.60411900  0.79854600  0.02664500  1
  O  O13  1  0.91291400  0.06681300  0.26187700  1
  O  O14  1  0.41966200  0.76811400  0.55736600  1
  O  O15  1  0.79854600  0.02664500  0.60411900  1
  O  O16  1  0.55736600  0.41966200  0.76811400  1
  O  O17  1  0.73116300  0.09350800  0.94408300  1
  O  O18  1  0.76811400  0.55736600  0.41966200  1
  O  O19  1  0.99654200  0.38488500  0.19484000  1
  O  O20  1  0.49481900  0.69699500  0.88597900  1
  O  O21  1  0.94408300  0.73116300  0.09350800  1
  O  O22  1  0.69699500  0.88597900  0.49481900  1
  O  O23  1  0.88597900  0.49481900  0.69699500  1
loop_
_geom_bond_atom_site_label_1
_geom_bond_atom_site_label_2
_geom_bond_distance
_geom_bond_site_symmetry_2
Mn0 O15 2.040582 1_565
Mn0 O12 2.040582 1_556
Mn0 O4 2.040582 1_655
Mn0 O21 2.284952 1_556
Mn0 O10 2.284952 1_655
Mn0 O17 2.284952 1_565
O0 P4 1.539802 1_455
O0 Ti1 1.908734 1_555
O1 P2 1.539802 1_545
O1 Ti1 1.908734 1_555
O2 P0 1.568601 1_555
O2 Ti0 2.117105 1_556
O2 Sb0 2.430387 1_445
O3 P3 1.539802 1_554
O3 Ti1 1.908734 1_555
O4 P0 1.502244 1_555
O5 P0 1.589588 1_555
O5 Ti1 2.083490 1_555
O5 Sb1 2.336388 1_555
O6 P1 1.568602 1_555
O6 Ti0 2.117106 1_565
O6 Sb0 2.430387 1_454
O7 P1 1.589588 1_555
O7 Ti1 2.083490 1_555
O7 Sb1 2.336388 1_555
O8 P2 1.537950 1_555
O8 Ti0 1.970121 1_565
O9 P5 1.589588 1_555
O9 Ti1 2.083490 1_555
O9 Sb1 2.336388 1_555
O10 P2 1.559220 1_555
O10 Sb0 2.243423 1_455
O11 P3 1.537950 1_555
O11 Ti0 1.970121 1_556
O12 P1 1.502244 1_555
O13 P5 1.568601 1_555
O13 Ti0 2.117106 1_655
O13 Sb0 2.430387 1_544
O14 P2 1.566738 1_555
O14 Ti2 2.140741 1_555
O14 Sb1 2.417968 1_555
O15 P5 1.502244 1_555
O16 P3 1.566738 1_555
O16 Ti2 2.140741 1_555
O16 Sb1 2.417968 1_555
O17 P3 1.559221 1_555
O17 Sb0 2.243423 1_545
O18 P4 1.566738 1_555
O18 Ti2 2.140741 1_555
O18 Sb1 2.417968 1_555
O19 P4 1.537950 1_555
O19 Ti0 1.970121 1_655
O20 P1 1.548346 1_556
O20 Ti2 1.959710 1_555
O21 P4 1.559220 1_555
O21 Sb0 2.243423 1_554
O22 P5 1.548346 1_565
O22 Ti2 1.959710 1_555
O23 P0 1.548346 1_655
O23 Ti2 1.959710 1_555
