# generated using pymatgen
data_Ca6Si3O13
_symmetry_space_group_name_H-M   'P 1'
_cell_length_a   6.87858600
_cell_length_b   7.04384084
_cell_length_c   12.95012255
_cell_angle_alpha   91.00178295
_cell_angle_beta   98.09118639
_cell_angle_gamma   98.01924469
_symmetry_Int_Tables_number   1
_chemical_formula_structural   Ca6Si3O13
_chemical_formula_sum   'Ca12 Si6 O26'
_cell_volume   614.69317839
_cell_formula_units_Z   2
loop_
 _symmetry_equiv_pos_site_id
 _symmetry_equiv_pos_as_xyz
  1  'x, y, z'
loop_
 _atom_site_type_symbol
 _atom_site_label
 _atom_site_symmetry_multiplicity
 _atom_site_fract_x
 _atom_site_fract_y
 _atom_site_fract_z
 _atom_site_occupancy
  Ca  Ca0  1  0.91055300  0.81490100  0.89039500  1
  Ca  Ca1  1  0.08944700  0.18509900  0.10960500  1
  Ca  Ca2  1  0.81356000  0.80364200  0.51185700  1
  Ca  Ca3  1  0.18644000  0.19635800  0.48814300  1
  Ca  Ca4  1  0.68639700  0.80698000  0.12413000  1
  Ca  Ca5  1  0.31360300  0.19302000  0.87587000  1
  Ca  Ca6  1  0.44944200  0.96517600  0.68024100  1
  Ca  Ca7  1  0.55055800  0.03482400  0.31975900  1
  Ca  Ca8  1  0.10652200  0.53087300  0.71044400  1
  Ca  Ca9  1  0.89347800  0.46912700  0.28955600  1
  Ca  Ca10  1  0.40819000  0.53191300  0.29484600  1
  Ca  Ca11  1  0.59181000  0.46808700  0.70515400  1
  Si  Si0  1  0.38586100  0.71437500  0.90222000  1
  Si  Si1  1  0.61413900  0.28562500  0.09778000  1
  Si  Si2  1  0.18883900  0.71316700  0.11420300  1
  Si  Si3  1  0.81116100  0.28683300  0.88579700  1
  Si  Si4  1  0.28709200  0.69764400  0.49081100  1
  Si  Si5  1  0.71290800  0.30235600  0.50918900  1
  O  O0  1  0.38743100  0.51419200  0.83527400  1
  O  O1  1  0.61256900  0.48580800  0.16472600  1
  O  O2  1  0.60819500  0.81584500  0.94657600  1
  O  O3  1  0.39180500  0.18415500  0.05342400  1
  O  O4  1  0.38409800  0.81461300  0.19421400  1
  O  O5  1  0.61590200  0.18538700  0.80578600  1
  O  O6  1  0.25099500  0.84670400  0.82314100  1
  O  O7  1  0.74900500  0.15329600  0.17685900  1
  O  O8  1  0.01234600  0.84680900  0.08694800  1
  O  O9  1  0.98765400  0.15319100  0.91305200  1
  O  O10  1  0.75330900  0.82509200  0.69661900  1
  O  O11  1  0.24669100  0.17490800  0.30338100  1
  O  O12  1  0.15486600  0.86739400  0.51296800  1
  O  O13  1  0.84513400  0.13260600  0.48703200  1
  O  O14  1  0.78911000  0.78029000  0.31682100  1
  O  O15  1  0.21089000  0.21971000  0.68317900  1
  O  O16  1  0.47838900  0.78365300  0.43362500  1
  O  O17  1  0.52161100  0.21634700  0.56637500  1
  O  O18  1  0.25788800  0.66156100  0.00035500  1
  O  O19  1  0.74211200  0.33843900  0.99964500  1
  O  O20  1  0.36391700  0.63134600  0.61032200  1
  O  O21  1  0.63608300  0.36865400  0.38967800  1
  O  O22  1  0.16798700  0.51156300  0.41829300  1
  O  O23  1  0.83201300  0.48843700  0.58170700  1
  O  O24  1  0.88472000  0.48932300  0.83160400  1
  O  O25  1  0.11528000  0.51067700  0.16839600  1
loop_
_geom_bond_atom_site_label_1
_geom_bond_atom_site_label_2
_geom_bond_distance
_geom_bond_site_symmetry_2
Ca0 O2 2.298818 1_555
Ca0 O9 2.371610 1_565
Ca0 O24 2.378594 1_555
Ca0 O8 2.540503 1_656
Ca0 O6 2.593676 1_655
Ca0 O10 2.595412 1_555
Ca1 O3 2.298818 1_555
Ca1 O8 2.371610 1_545
Ca1 O25 2.378594 1_555
Ca1 O9 2.540503 1_454
Ca1 O7 2.593676 1_455
Ca1 O11 2.595412 1_555
Ca2 O12 2.325873 1_655
Ca2 O13 2.329182 1_565
Ca2 O16 2.368228 1_555
Ca2 O23 2.424957 1_555
Ca2 O10 2.490689 1_555
Ca2 O14 2.508562 1_555
Ca3 O13 2.325873 1_455
Ca3 O12 2.329182 1_545
Ca3 O17 2.368228 1_555
Ca3 O22 2.424957 1_555
Ca3 O11 2.490689 1_555
Ca3 O15 2.508562 1_555
Ca4 O2 2.290517 1_554
Ca4 O1 2.334182 1_555
Ca4 O8 2.338921 1_655
Ca4 O4 2.389817 1_555
Ca4 O7 2.483597 1_565
Ca4 O14 2.513677 1_555
Ca5 O3 2.290517 1_556
Ca5 O0 2.334182 1_555
Ca5 O9 2.338921 1_455
Ca5 O5 2.389817 1_555
Ca5 O6 2.483597 1_545
Ca5 O15 2.513677 1_555
Ca6 O5 2.291855 1_565
Ca6 O17 2.367097 1_565
Ca6 O10 2.417730 1_555
Ca6 O20 2.466754 1_555
Ca6 O6 2.536058 1_555
Ca6 O15 2.597020 1_565
Ca6 O12 2.755984 1_555
Ca7 O4 2.291855 1_545
Ca7 O16 2.367097 1_545
Ca7 O11 2.417730 1_555
Ca7 O21 2.466754 1_555
Ca7 O7 2.536058 1_555
Ca7 O14 2.597020 1_545
Ca7 O13 2.755984 1_555
Ca8 O23 2.318004 1_455
Ca8 O24 2.332506 1_455
Ca8 O0 2.356140 1_555
Ca8 O20 2.376011 1_555
Ca8 O15 2.434601 1_555
Ca8 O6 2.632115 1_555
Ca9 O22 2.318004 1_655
Ca9 O25 2.332506 1_655
Ca9 O1 2.356140 1_555
Ca9 O21 2.376011 1_555
Ca9 O14 2.434601 1_555
Ca9 O7 2.632115 1_555
Ca10 O21 2.301819 1_555
Ca10 O1 2.386715 1_555
Ca10 O25 2.396239 1_555
Ca10 O4 2.411028 1_555
Ca10 O22 2.447789 1_555
Ca10 O16 2.452098 1_555
Ca10 O11 2.614342 1_555
Ca10 O14 2.915632 1_555
Ca11 O20 2.301819 1_555
Ca11 O0 2.386715 1_555
Ca11 O24 2.396239 1_555
Ca11 O5 2.411028 1_555
Ca11 O23 2.447789 1_555
Ca11 O17 2.452098 1_555
Ca11 O10 2.614342 1_555
Ca11 O15 2.915632 1_555
O0 Si0 1.644425 1_555
O1 Si1 1.644425 1_555
O2 Si0 1.616499 1_555
O3 Si1 1.616499 1_555
O4 Si2 1.644000 1_555
O5 Si3 1.644000 1_555
O6 Si0 1.668945 1_555
O7 Si1 1.668945 1_555
O8 Si2 1.641472 1_555
O9 Si3 1.641472 1_555
O12 Si4 1.644430 1_555
O13 Si5 1.644430 1_555
O16 Si4 1.647579 1_555
O17 Si5 1.647579 1_555
O18 Si2 1.660713 1_555
O18 Si0 1.663862 1_554
O19 Si3 1.660713 1_555
O19 Si1 1.663862 1_556
O20 Si4 1.660288 1_555
O21 Si5 1.660288 1_555
O22 Si4 1.646788 1_555
O23 Si5 1.646788 1_555
O24 Si3 1.648182 1_555
O25 Si2 1.648182 1_555
