# generated using pymatgen
data_V2Ni3Te3O16
_symmetry_space_group_name_H-M   'P 1'
_cell_length_a   6.08045401
_cell_length_b   6.08045401
_cell_length_c   9.21740589
_cell_angle_alpha   88.93324768
_cell_angle_beta   88.93324768
_cell_angle_gamma   59.80324410
_symmetry_Int_Tables_number   1
_chemical_formula_structural   V2Ni3Te3O16
_chemical_formula_sum   'V2 Ni3 Te3 O16'
_cell_volume   294.47383556
_cell_formula_units_Z   1
loop_
 _symmetry_equiv_pos_site_id
 _symmetry_equiv_pos_as_xyz
  1  'x, y, z'
loop_
 _atom_site_type_symbol
 _atom_site_label
 _atom_site_symmetry_multiplicity
 _atom_site_fract_x
 _atom_site_fract_y
 _atom_site_fract_z
 _atom_site_occupancy
  V  V0  1  0.68134900  0.68134900  0.49501900  1
  V  V1  1  0.36014400  0.36014400  0.03884900  1
  Ni  Ni0  1  0.82724300  0.82724300  0.79258900  1
  Ni  Ni1  1  0.16927400  0.66826100  0.29533200  1
  Ni  Ni2  1  0.66826100  0.16927400  0.29533200  1
  Te  Te0  1  0.32902300  0.82685500  0.78520500  1
  Te  Te1  1  0.82685500  0.32902300  0.78520500  1
  Te  Te2  1  0.16942400  0.16942400  0.28839800  1
  O  O0  1  0.34665300  0.83966700  0.40005500  1
  O  O1  1  0.51324900  0.51324900  0.66054500  1
  O  O2  1  0.65069500  0.65069500  0.90402600  1
  O  O3  1  0.00088400  0.00088400  0.67545600  1
  O  O4  1  0.01012200  0.01012200  0.19308200  1
  O  O5  1  0.83966700  0.34665300  0.40005500  1
  O  O6  1  0.50476100  0.94715400  0.66477300  1
  O  O7  1  0.94715400  0.50476100  0.66477300  1
  O  O8  1  0.15796600  0.15796600  0.89074700  1
  O  O9  1  0.82454600  0.82454600  0.40790700  1
  O  O10  1  0.05074300  0.46756000  0.15146600  1
  O  O11  1  0.46756000  0.05074300  0.15146600  1
  O  O12  1  0.32331800  0.32331800  0.39804600  1
  O  O13  1  0.17477100  0.67198300  0.89683900  1
  O  O14  1  0.48420800  0.48420800  0.15232900  1
  O  O15  1  0.67198300  0.17477100  0.89683900  1
loop_
_geom_bond_atom_site_label_1
_geom_bond_atom_site_label_2
_geom_bond_distance
_geom_bond_site_symmetry_2
Ni0 O13 2.077251 1_655
Ni0 O15 2.077251 1_565
Ni0 O6 2.092928 1_555
Ni0 O7 2.092928 1_555
Ni0 O3 2.105148 1_665
Ni0 O2 2.106406 1_555
Ni1 O4 2.020671 1_565
Ni1 O12 2.038543 1_555
Ni1 O9 2.079761 1_455
Ni1 O0 2.094813 1_555
Ni1 O14 2.112350 1_555
Ni1 O10 2.178938 1_555
Ni2 O4 2.020671 1_655
Ni2 O12 2.038543 1_555
Ni2 O9 2.079761 1_545
Ni2 O5 2.094813 1_555
Ni2 O14 2.112350 1_555
Ni2 O11 2.178938 1_555
O0 V0 1.974525 1_555
O0 Te2 2.007915 1_565
O1 Te1 2.023900 1_555
O1 Te0 2.023900 1_555
O1 V0 2.313463 1_555
O2 Te1 2.025097 1_555
O2 Te0 2.025097 1_555
O3 Te1 2.008849 1_455
O3 Te0 2.008849 1_545
O4 Te2 1.911949 1_555
O5 V0 1.974525 1_555
O5 Te2 2.007915 1_655
O6 Te0 1.902896 1_555
O6 V0 2.121138 1_555
O7 Te1 1.902896 1_555
O7 V0 2.121138 1_555
O8 Te0 2.002589 1_545
O8 Te1 2.002589 1_455
O8 V1 2.555637 1_556
O9 V0 1.694560 1_555
O10 V1 1.939040 1_555
O10 Te2 2.008187 1_555
O11 V1 1.939040 1_555
O11 Te2 2.008187 1_555
O12 Te2 1.929752 1_555
O13 Te0 1.908335 1_555
O13 V1 2.095649 1_556
O14 V1 1.692171 1_555
O15 Te1 1.908335 1_555
O15 V1 2.095649 1_556
