# generated using pymatgen
data_Ca5P3HO13
_symmetry_space_group_name_H-M   'P 1'
_cell_length_a   9.38727727
_cell_length_b   18.76766780
_cell_length_c   6.87335370
_cell_angle_alpha   90.00000000
_cell_angle_beta   90.00000000
_cell_angle_gamma   119.95519316
_symmetry_Int_Tables_number   1
_chemical_formula_structural   Ca5P3HO13
_chemical_formula_sum   'Ca20 P12 H4 O52'
_cell_volume   1049.16836421
_cell_formula_units_Z   4
loop_
 _symmetry_equiv_pos_site_id
 _symmetry_equiv_pos_as_xyz
  1  'x, y, z'
loop_
 _atom_site_type_symbol
 _atom_site_label
 _atom_site_symmetry_multiplicity
 _atom_site_fract_x
 _atom_site_fract_y
 _atom_site_fract_z
 _atom_site_occupancy
  Ca  Ca0  1  0.32487597  0.07986651  0.49971352  1
  Ca  Ca1  1  0.67512403  0.42013349  0.99971352  1
  Ca  Ca2  1  0.67512403  0.92013349  0.50028648  1
  Ca  Ca3  1  0.32487597  0.57986651  0.00028648  1
  Ca  Ca4  1  0.34136316  0.08739612  0.00206956  1
  Ca  Ca5  1  0.65863684  0.41260388  0.50206956  1
  Ca  Ca6  1  0.65863684  0.91260388  0.99793044  1
  Ca  Ca7  1  0.34136316  0.58739612  0.49793044  1
  Ca  Ca8  1  0.24600094  0.74607084  0.24657922  1
  Ca  Ca9  1  0.75399906  0.75392916  0.74657922  1
  Ca  Ca10  1  0.75399906  0.25392916  0.75342078  1
  Ca  Ca11  1  0.24600094  0.24607084  0.25342078  1
  Ca  Ca12  1  0.99260271  0.12302778  0.75549646  1
  Ca  Ca13  1  0.00739729  0.37697222  0.25549646  1
  Ca  Ca14  1  0.00739729  0.87697222  0.24450354  1
  Ca  Ca15  1  0.99260271  0.62302778  0.74450354  1
  Ca  Ca16  1  0.25460237  0.87324140  0.74413602  1
  Ca  Ca17  1  0.74539763  0.62675860  0.24413602  1
  Ca  Ca18  1  0.74539763  0.12675860  0.25586398  1
  Ca  Ca19  1  0.25460237  0.37324140  0.75586398  1
  P  P0  1  0.39785191  0.93381579  0.24492909  1
  P  P1  1  0.60214809  0.56618421  0.74492909  1
  P  P2  1  0.60214809  0.06618421  0.75507091  1
  P  P3  1  0.39785191  0.43381579  0.25507091  1
  P  P4  1  0.63194286  0.76558825  0.24495189  1
  P  P5  1  0.36805714  0.73441175  0.74495189  1
  P  P6  1  0.36805714  0.23441175  0.75504811  1
  P  P7  1  0.63194286  0.26558825  0.25504811  1
  P  P8  1  0.03044907  0.94899589  0.74846118  1
  P  P9  1  0.96955093  0.55100411  0.24846118  1
  P  P10  1  0.96955093  0.05100411  0.25153882  1
  P  P11  1  0.03044907  0.44899589  0.75153882  1
  H  H0  1  0.99947288  0.75037908  0.05608202  1
  H  H1  1  0.00052712  0.74962092  0.55608202  1
  H  H2  1  0.00052712  0.24962092  0.94391798  1
  H  H3  1  0.99947288  0.25037908  0.44391798  1
  O  O0  1  0.32744866  0.99202849  0.23985235  1
  O  O1  1  0.67255134  0.50797151  0.73985235  1
  O  O2  1  0.67255134  0.00797151  0.76014765  1
  O  O3  1  0.32744866  0.49202849  0.26014765  1
  O  O4  1  0.48410832  0.82777557  0.74001506  1
  O  O5  1  0.51589168  0.67222443  0.24001506  1
  O  O6  1  0.51589168  0.17222443  0.25998494  1
  O  O7  1  0.48410832  0.32777557  0.75998494  1
  O  O8  1  0.15612576  0.08606998  0.25385981  1
  O  O9  1  0.84387424  0.41393002  0.75385981  1
  O  O10  1  0.84387424  0.91393002  0.74614019  1
  O  O11  1  0.15612576  0.58606998  0.24614119  1
  O  O12  1  0.58679293  0.98246850  0.26230028  1
  O  O13  1  0.41320707  0.51753150  0.76230028  1
  O  O14  1  0.41320707  0.01753150  0.73769972  1
  O  O15  1  0.58679293  0.48246850  0.23769972  1
  O  O16  1  0.53452027  0.81157281  0.25735032  1
  O  O17  1  0.46547873  0.68842719  0.75735032  1
  O  O18  1  0.46547873  0.18842719  0.74264968  1
  O  O19  1  0.53452027  0.31157281  0.24264968  1
  O  O20  1  0.12249911  0.04345272  0.76746879  1
  O  O21  1  0.87750089  0.45654728  0.26746879  1
  O  O22  1  0.87750089  0.95654728  0.23253121  1
  O  O23  1  0.12249911  0.54345272  0.73253121  1
  O  O24  1  0.32672776  0.87461487  0.41787901  1
  O  O25  1  0.67327224  0.62538513  0.91787901  1
  O  O26  1  0.67327224  0.12538513  0.58212099  1
  O  O27  1  0.32672776  0.37461487  0.08212099  1
  O  O28  1  0.74765827  0.79086973  0.42139985  1
  O  O29  1  0.25234173  0.70913027  0.92139985  1
  O  O30  1  0.25234173  0.20913027  0.57860015  1
  O  O31  1  0.74765827  0.29086973  0.07860015  1
  O  O32  1  0.08013509  0.91296498  0.91811820  1
  O  O33  1  0.91986491  0.58703502  0.41811820  1
  O  O34  1  0.91986491  0.08703502  0.08188180  1
  O  O35  1  0.08013509  0.41296498  0.58188180  1
  O  O36  1  0.35709385  0.88181909  0.05919009  1
  O  O37  1  0.64290615  0.61818091  0.55919009  1
  O  O38  1  0.64290615  0.11818091  0.94080991  1
  O  O39  1  0.35709385  0.38181909  0.44080991  1
  O  O40  1  0.73838535  0.79589040  0.06153508  1
  O  O41  1  0.26161465  0.70410960  0.56153508  1
  O  O42  1  0.26161465  0.20410960  0.93846492  1
  O  O43  1  0.73838535  0.29589040  0.43846492  1
  O  O44  1  0.09048705  0.92913896  0.55932227  1
  O  O45  1  0.90951295  0.57086104  0.05932227  1
  O  O46  1  0.90951295  0.07086104  0.44067773  1
  O  O47  1  0.09048705  0.42913896  0.94067773  1
  O  O48  1  0.99974103  0.74982356  0.19712066  1
  O  O49  1  0.00025897  0.75017644  0.69712066  1
  O  O50  1  0.00025897  0.25017644  0.80287934  1
  O  O51  1  0.99974103  0.24982356  0.30287934  1
loop_
_geom_bond_atom_site_label_1
_geom_bond_atom_site_label_2
_geom_bond_distance
_geom_bond_site_symmetry_2
Ca0 O8 2.358533 1_555
Ca0 O14 2.387601 1_555
Ca0 O6 2.414729 1_555
Ca0 O0 2.438885 1_545
Ca0 O18 2.448647 1_555
Ca0 O20 2.483263 1_555
Ca0 O44 2.606816 1_545
Ca0 O30 2.879689 1_555
Ca0 O26 2.992760 1_555
Ca1 O9 2.358533 1_555
Ca1 O15 2.387601 1_556
Ca1 O7 2.414729 1_555
Ca1 O1 2.438885 1_555
Ca1 O19 2.448648 1_556
Ca1 O21 2.483263 1_556
Ca1 O45 2.606816 1_556
Ca1 O31 2.879689 1_556
Ca1 O27 2.992760 1_556
Ca2 O10 2.358533 1_555
Ca2 O12 2.387601 1_555
Ca2 O4 2.414729 1_555
Ca2 O2 2.438885 1_565
Ca2 O16 2.448648 1_555
Ca2 O22 2.483263 1_555
Ca2 O46 2.606816 1_565
Ca2 O28 2.879689 1_555
Ca2 O24 2.992760 1_555
Ca3 O11 2.358538 1_555
Ca3 O13 2.387601 1_554
Ca3 O5 2.414729 1_555
Ca3 O3 2.438885 1_555
Ca3 O17 2.448647 1_554
Ca3 O23 2.483263 1_554
Ca3 O47 2.606816 1_554
Ca3 O29 2.879689 1_554
Ca3 O25 2.992760 1_554
Ca4 O0 2.378703 1_545
Ca4 O6 2.399291 1_555
Ca4 O20 2.410250 1_554
Ca4 O18 2.434325 1_554
Ca4 O8 2.444629 1_555
Ca4 O14 2.521716 1_554
Ca4 O38 2.624985 1_554
Ca4 O42 2.680890 1_554
Ca4 O32 3.007717 1_544
Ca5 O1 2.378703 1_555
Ca5 O7 2.399291 1_555
Ca5 O21 2.410250 1_555
Ca5 O19 2.434326 1_555
Ca5 O9 2.444629 1_555
Ca5 O15 2.521716 1_555
Ca5 O39 2.624985 1_555
Ca5 O43 2.680890 1_555
Ca5 O33 3.007717 1_555
Ca6 O2 2.378703 1_565
Ca6 O4 2.399291 1_555
Ca6 O22 2.410250 1_556
Ca6 O16 2.434326 1_556
Ca6 O10 2.444629 1_555
Ca6 O12 2.521716 1_556
Ca6 O36 2.624985 1_556
Ca6 O40 2.680890 1_556
Ca6 O34 3.007717 1_566
Ca7 O3 2.378703 1_555
Ca7 O5 2.399291 1_555
Ca7 O23 2.410250 1_555
Ca7 O17 2.434325 1_555
Ca7 O11 2.444624 1_555
Ca7 O13 2.521716 1_555
Ca7 O37 2.624985 1_555
Ca7 O41 2.680890 1_555
Ca7 O35 3.007717 1_555
Ca8 O41 2.333089 1_555
Ca8 O29 2.349671 1_554
Ca8 O16 2.351001 1_555
Ca8 O48 2.372155 1_455
Ca8 O24 2.440259 1_555
Ca8 O36 2.565906 1_555
Ca8 O11 2.683069 1_555
Ca9 O40 2.333089 1_556
Ca9 O28 2.349671 1_555
Ca9 O17 2.351009 1_555
Ca9 O49 2.372155 1_655
Ca9 O25 2.440259 1_555
Ca9 O37 2.565906 1_555
Ca9 O10 2.683069 1_555
Ca10 O43 2.333089 1_555
Ca10 O31 2.349671 1_556
Ca10 O18 2.351009 1_555
Ca10 O50 2.372155 1_655
Ca10 O26 2.440259 1_555
Ca10 O38 2.565906 1_555
Ca10 O9 2.683069 1_555
Ca11 O42 2.333089 1_554
Ca11 O30 2.349671 1_555
Ca11 O19 2.351001 1_555
Ca11 O51 2.372155 1_455
Ca11 O27 2.440259 1_555
Ca11 O39 2.565906 1_555
Ca11 O8 2.683069 1_555
Ca12 O46 2.342349 1_555
Ca12 O34 2.344054 1_556
Ca12 O20 2.354271 1_655
Ca12 O50 2.373670 1_655
Ca12 O30 2.469801 1_655
Ca12 O42 2.537068 1_655
Ca12 O2 2.685423 1_555
Ca13 O47 2.342349 1_554
Ca13 O35 2.344054 1_555
Ca13 O21 2.354271 1_455
Ca13 O51 2.373670 1_455
Ca13 O31 2.469801 1_455
Ca13 O43 2.537068 1_455
Ca13 O3 2.685423 1_555
Ca14 O44 2.342349 1_555
Ca14 O32 2.344054 1_554
Ca14 O22 2.354271 1_455
Ca14 O48 2.373670 1_455
Ca14 O28 2.469801 1_455
Ca14 O40 2.537068 1_455
Ca14 O0 2.685423 1_555
Ca15 O45 2.342349 1_556
Ca15 O33 2.344054 1_555
Ca15 O23 2.354271 1_655
Ca15 O49 2.373670 1_655
Ca15 O29 2.469801 1_655
Ca15 O41 2.537068 1_655
Ca15 O1 2.685423 1_555
Ca16 O24 2.338881 1_555
Ca16 O36 2.342265 1_556
Ca16 O14 2.350641 1_565
Ca16 O49 2.373280 1_555
Ca16 O32 2.426411 1_555
Ca16 O44 2.588747 1_555
Ca16 O4 2.684466 1_555
Ca17 O25 2.338881 1_554
Ca17 O37 2.342265 1_555
Ca17 O15 2.350641 1_555
Ca17 O48 2.373280 1_555
Ca17 O33 2.426411 1_555
Ca17 O45 2.588747 1_555
Ca17 O5 2.684466 1_555
Ca18 O26 2.338881 1_555
Ca18 O38 2.342265 1_554
Ca18 O12 2.350641 1_545
Ca18 O51 2.373280 1_555
Ca18 O34 2.426411 1_555
Ca18 O46 2.588747 1_555
Ca18 O6 2.684466 1_555
Ca19 O27 2.338881 1_556
Ca19 O39 2.342265 1_555
Ca19 O13 2.350641 1_555
Ca19 O50 2.373280 1_555
Ca19 O35 2.426411 1_555
Ca19 O47 2.588747 1_555
Ca19 O7 2.684466 1_555
H0 O48 0.969481 1_555
H1 O49 0.969481 1_555
H2 O50 0.969481 1_555
H3 O51 0.969481 1_555
O0 P0 1.533836 1_555
O1 P1 1.533836 1_555
O2 P2 1.533836 1_555
O3 P3 1.533836 1_555
O4 P5 1.533604 1_555
O5 P4 1.533604 1_555
O6 P7 1.533604 1_555
O7 P6 1.533604 1_555
O8 P10 1.532906 1_455
O9 P11 1.532906 1_655
O10 P8 1.532906 1_655
O11 P9 1.532906 1_455
O12 P0 1.541588 1_555
O13 P1 1.541588 1_555
O14 P2 1.541588 1_555
O15 P3 1.541588 1_555
O16 P4 1.541634 1_555
O17 P5 1.541626 1_555
O18 P6 1.541626 1_555
O19 P7 1.541634 1_555
O20 P8 1.541616 1_545
O21 P9 1.541616 1_555
O22 P10 1.541616 1_565
O23 P11 1.541616 1_555
O24 P0 1.533800 1_555
O25 P1 1.533800 1_555
O26 P2 1.533800 1_555
O27 P3 1.533800 1_555
O28 P4 1.536629 1_555
O29 P5 1.536629 1_555
O30 P6 1.536629 1_555
O31 P7 1.536629 1_555
O32 P8 1.532841 1_555
O33 P9 1.532841 1_555
O34 P10 1.532841 1_555
O35 P11 1.532841 1_555
O36 P0 1.534815 1_555
O37 P1 1.534815 1_555
O38 P2 1.534815 1_555
O39 P3 1.534815 1_555
O40 P4 1.530911 1_555
O41 P5 1.530911 1_555
O42 P6 1.530911 1_555
O43 P7 1.530911 1_555
O44 P8 1.535030 1_555
O45 P9 1.535030 1_555
O46 P10 1.535030 1_555
O47 P11 1.535030 1_555
