# generated using pymatgen
data_Li3MnV2O6
_symmetry_space_group_name_H-M   'P 1'
_cell_length_a   2.93782489
_cell_length_b   13.49133848
_cell_length_c   5.92691724
_cell_angle_alpha   77.39137993
_cell_angle_beta   90.00050791
_cell_angle_gamma   89.99971130
_symmetry_Int_Tables_number   1
_chemical_formula_structural   Li3MnV2O6
_chemical_formula_sum   'Li6 Mn2 V4 O12'
_cell_volume   229.24927644
_cell_formula_units_Z   2
loop_
 _symmetry_equiv_pos_site_id
 _symmetry_equiv_pos_as_xyz
  1  'x, y, z'
loop_
 _atom_site_type_symbol
 _atom_site_label
 _atom_site_symmetry_multiplicity
 _atom_site_fract_x
 _atom_site_fract_y
 _atom_site_fract_z
 _atom_site_occupancy
  Li  Li0  1  0.00000400  0.66669800  0.16666300  1
  Li  Li1  1  0.50000300  0.16669500  0.16667300  1
  Li  Li2  1  0.00000400  0.99464300  0.50814600  1
  Li  Li3  1  0.50000300  0.49478700  0.50756400  1
  Li  Li4  1  0.00000300  0.33875500  0.82517400  1
  Li  Li5  1  0.50000300  0.83861100  0.82574300  1
  Mn  Mn0  1  0.49998900  0.16658900  0.66649100  1
  Mn  Mn1  1  0.99993300  0.66666200  0.66668100  1
  V  V0  1  0.00000500  0.99732200  0.00042400  1
  V  V1  1  0.00001000  0.33599400  0.33286200  1
  V  V2  1  0.50000700  0.49699400  0.00003200  1
  V  V3  1  0.50000600  0.83633700  0.33333000  1
  O  O0  1  0.99998700  0.49788600  0.76491500  1
  O  O1  1  0.50000400  0.99850900  0.76494400  1
  O  O2  1  0.00000200  0.83541700  0.56846200  1
  O  O3  1  0.50000100  0.33479800  0.56841100  1
  O  O4  1  0.00000900  0.83685900  0.09430700  1
  O  O5  1  0.50000800  0.33683400  0.09466900  1
  O  O6  1  0.00002000  0.49648700  0.23904800  1
  O  O7  1  0.49999700  0.99649400  0.23869400  1
  O  O8  1  0.00001100  0.17656800  0.43303600  1
  O  O9  1  0.50000000  0.67625300  0.43321400  1
  O  O10  1  0.99999400  0.15674200  0.90036300  1
  O  O11  1  0.49999800  0.65706500  0.90015000  1
loop_
_geom_bond_atom_site_label_1
_geom_bond_atom_site_label_2
_geom_bond_distance
_geom_bond_site_symmetry_2
Li0 O9 2.181515 1_555
Li0 O9 2.181549 1_455
Li0 O11 2.181592 1_554
Li0 O11 2.181598 1_454
Li0 O4 2.241502 1_555
Li0 O6 2.242159 1_555
Li1 O8 2.181640 1_555
Li1 O10 2.181643 1_554
Li1 O8 2.181653 1_655
Li1 O10 2.181661 1_454
Li1 O5 2.241279 1_555
Li1 O7 2.242097 1_545
Li2 O2 2.099326 1_555
Li2 O1 2.124050 1_555
Li2 O1 2.124069 1_455
Li2 O7 2.165957 1_555
Li2 O7 2.165965 1_455
Li2 O8 2.396934 1_565
Li3 O3 2.109310 1_555
Li3 O0 2.124535 1_555
Li3 O0 2.124619 1_455
Li3 O6 2.162149 1_555
Li3 O6 2.162236 1_655
Li3 O9 2.391017 1_555
Li4 O0 2.098080 1_455
Li4 O3 2.124127 1_455
Li4 O3 2.124137 1_555
Li4 O5 2.166007 1_456
Li4 O5 2.166008 1_556
Li4 O10 2.398084 1_455
Li5 O1 2.108115 1_555
Li5 O2 2.124497 1_555
Li5 O2 2.124511 1_655
Li5 O4 2.162294 1_556
Li5 O4 2.162299 1_656
Li5 O11 2.392065 1_555
Mn0 O8 2.002202 1_555
Mn0 O8 2.002316 1_655
Mn0 O10 2.004080 1_455
Mn0 O10 2.004082 1_555
Mn0 O1 2.214708 1_545
Mn0 O3 2.216303 1_555
Mn1 O9 2.002597 1_555
Mn1 O11 2.002622 1_555
Mn1 O11 2.002883 1_655
Mn1 O9 2.002905 1_655
Mn1 O2 2.223456 1_655
Mn1 O0 2.223733 1_555
O0 V2 2.022940 1_556
O0 V2 2.023007 1_656
O1 V0 2.023875 1_656
O1 V0 2.023889 1_556
O2 V3 2.022963 1_455
O2 V3 2.022998 1_555
O3 V1 2.024118 1_555
O3 V1 2.024174 1_655
O4 V3 2.039678 1_555
O4 V3 2.039709 1_455
O4 V0 2.114317 1_555
O5 V1 2.035649 1_655
O5 V1 2.035659 1_555
O5 V2 2.110551 1_555
O6 V2 2.039676 1_555
O6 V2 2.039713 1_455
O6 V1 2.114692 1_555
O7 V0 2.035967 1_555
O7 V0 2.036019 1_655
O7 V3 2.110511 1_555
O8 V1 2.102671 1_555
O9 V3 2.111108 1_555
O10 V0 2.102554 1_646
O11 V2 2.110938 1_556
