# generated using pymatgen
data_LiHCO2
_symmetry_space_group_name_H-M   'P 1'
_cell_length_a   8.63782770
_cell_length_b   8.63782770
_cell_length_c   13.77546975
_cell_angle_alpha   82.43335843
_cell_angle_beta   82.43335843
_cell_angle_gamma   90.01282335
_symmetry_Int_Tables_number   1
_chemical_formula_structural   LiHCO2
_chemical_formula_sum   'Li16 H16 C16 O32'
_cell_volume   1009.83319434
_cell_formula_units_Z   16
loop_
 _symmetry_equiv_pos_site_id
 _symmetry_equiv_pos_as_xyz
  1  'x, y, z'
loop_
 _atom_site_type_symbol
 _atom_site_label
 _atom_site_symmetry_multiplicity
 _atom_site_fract_x
 _atom_site_fract_y
 _atom_site_fract_z
 _atom_site_occupancy
  Li  Li0  1  0.83209600  0.17508300  0.99139900  1
  Li  Li1  1  0.82491700  0.16790400  0.50860100  1
  Li  Li2  1  0.16790400  0.82491700  0.00860100  1
  Li  Li3  1  0.17508300  0.83209600  0.49139900  1
  Li  Li4  1  0.05889400  0.10283600  0.84015100  1
  Li  Li5  1  0.89716400  0.94110600  0.65984900  1
  Li  Li6  1  0.94110600  0.89716400  0.15984900  1
  Li  Li7  1  0.10283600  0.05889400  0.34015100  1
  Li  Li8  1  0.39172800  0.26922600  0.24547700  1
  Li  Li9  1  0.73077400  0.60827200  0.25452300  1
  Li  Li10  1  0.60827200  0.73077400  0.75452300  1
  Li  Li11  1  0.26922600  0.39172800  0.74547700  1
  Li  Li12  1  0.60751200  0.41539300  0.08827800  1
  Li  Li13  1  0.58460700  0.39248800  0.41172200  1
  Li  Li14  1  0.39248800  0.58460700  0.91172200  1
  Li  Li15  1  0.41539300  0.60751200  0.58827800  1
  H  H0  1  0.64408100  0.90723600  0.91707300  1
  H  H1  1  0.09276400  0.35591900  0.58292700  1
  H  H2  1  0.35591900  0.09276400  0.08292700  1
  H  H3  1  0.90723600  0.64408100  0.41707300  1
  H  H4  1  0.12590000  0.39507000  0.02460500  1
  H  H5  1  0.60493000  0.87410000  0.47539500  1
  H  H6  1  0.87410000  0.60493000  0.97539500  1
  H  H7  1  0.39507000  0.12590000  0.52460500  1
  H  H8  1  0.77083500  0.38275900  0.81496200  1
  H  H9  1  0.61724100  0.22916500  0.68503800  1
  H  H10  1  0.22916500  0.61724100  0.18503800  1
  H  H11  1  0.38275900  0.77083500  0.31496200  1
  H  H12  1  0.66141800  0.02170700  0.26036200  1
  H  H13  1  0.97829300  0.33858200  0.23963800  1
  H  H14  1  0.33858200  0.97829300  0.73963800  1
  H  H15  1  0.02170700  0.66141800  0.76036200  1
  C  C0  1  0.75066800  0.94008300  0.86330000  1
  C  C1  1  0.05991700  0.24933200  0.63670000  1
  C  C2  1  0.24933200  0.05991700  0.13670000  1
  C  C3  1  0.94008300  0.75066800  0.36330000  1
  C  C4  1  0.14284600  0.35222600  0.95122800  1
  C  C5  1  0.64777400  0.85715400  0.54877200  1
  C  C6  1  0.85715400  0.64777400  0.04877200  1
  C  C7  1  0.35222600  0.14284600  0.45122800  1
  C  C8  1  0.68801100  0.42316800  0.87504600  1
  C  C9  1  0.57683200  0.31198900  0.62495400  1
  C  C10  1  0.31198900  0.57683200  0.12495400  1
  C  C11  1  0.42316800  0.68801100  0.37504600  1
  C  C12  1  0.68457300  0.10166400  0.18960800  1
  C  C13  1  0.89833600  0.31542700  0.31039200  1
  C  C14  1  0.31542700  0.89833600  0.81039200  1
  C  C15  1  0.10166400  0.68457300  0.68960800  1
  O  O0  1  0.84255600  0.04025600  0.88508800  1
  O  O1  1  0.95974400  0.15744400  0.61491200  1
  O  O2  1  0.15744400  0.95974400  0.11491200  1
  O  O3  1  0.04025600  0.84255600  0.38508800  1
  O  O4  1  0.76899800  0.87410000  0.78569300  1
  O  O5  1  0.12590000  0.23100200  0.71430700  1
  O  O6  1  0.23100200  0.12590000  0.21430700  1
  O  O7  1  0.87410000  0.76899800  0.28569300  1
  O  O8  1  0.04705800  0.24853600  0.93801500  1
  O  O9  1  0.75146400  0.95294200  0.56198500  1
  O  O10  1  0.95294200  0.75146400  0.06198500  1
  O  O11  1  0.24853600  0.04705800  0.43801500  1
  O  O12  1  0.25543000  0.41083000  0.88853300  1
  O  O13  1  0.58917000  0.74457000  0.61146700  1
  O  O14  1  0.74457000  0.58917000  0.11146700  1
  O  O15  1  0.41083000  0.25543000  0.38853300  1
  O  O16  1  0.60414000  0.53870800  0.85191400  1
  O  O17  1  0.46129200  0.39586000  0.64808600  1
  O  O18  1  0.39586000  0.46129200  0.14808600  1
  O  O19  1  0.53870800  0.60414000  0.35191400  1
  O  O20  1  0.68608800  0.34920900  0.96125400  1
  O  O21  1  0.65079100  0.31391200  0.53874600  1
  O  O22  1  0.31391200  0.65079100  0.03874600  1
  O  O23  1  0.34920900  0.68608800  0.46125400  1
  O  O24  1  0.59598200  0.21677000  0.17719200  1
  O  O25  1  0.78323000  0.40401800  0.32280800  1
  O  O26  1  0.40401800  0.78323000  0.82280800  1
  O  O27  1  0.21677000  0.59598200  0.67719200  1
  O  O28  1  0.79917200  0.06929300  0.12789200  1
  O  O29  1  0.93070700  0.20082800  0.37210800  1
  O  O30  1  0.20082800  0.93070700  0.87210800  1
  O  O31  1  0.06929300  0.79917200  0.62789200  1
loop_
_geom_bond_atom_site_label_1
_geom_bond_atom_site_label_2
_geom_bond_distance
_geom_bond_site_symmetry_2
Li0 O28 1.964135 1_556
Li0 O8 1.976882 1_655
Li0 O0 1.980801 1_555
Li0 O20 1.999891 1_555
Li1 O29 1.964135 1_555
Li1 O9 1.976882 1_545
Li1 O1 1.980801 1_555
Li1 O21 1.999891 1_555
Li2 O30 1.964135 1_554
Li2 O10 1.976882 1_455
Li2 O2 1.980801 1_555
Li2 O22 1.999891 1_555
Li3 O31 1.964135 1_555
Li3 O11 1.976882 1_565
Li3 O3 1.980801 1_555
Li3 O23 1.999891 1_555
Li4 O0 1.942724 1_455
Li4 O5 1.948301 1_555
Li4 O8 1.955090 1_555
Li4 O30 1.969286 1_545
Li5 O1 1.942724 1_565
Li5 O4 1.948301 1_555
Li5 O9 1.955090 1_555
Li5 O31 1.969286 1_655
Li6 O2 1.942724 1_655
Li6 O7 1.948301 1_555
Li6 O10 1.955090 1_555
Li6 O28 1.969286 1_565
Li7 O3 1.942724 1_545
Li7 O6 1.948301 1_555
Li7 O11 1.955090 1_555
Li7 O29 1.969286 1_455
Li8 O24 1.969383 1_555
Li8 O6 1.985129 1_555
Li8 O15 1.987143 1_555
Li8 O18 1.988658 1_555
Li9 O25 1.969383 1_555
Li9 O7 1.985129 1_555
Li9 O14 1.987143 1_555
Li9 O19 1.988658 1_555
Li10 O26 1.969383 1_555
Li10 O4 1.985129 1_555
Li10 O13 1.987143 1_555
Li10 O16 1.988658 1_555
Li11 O27 1.969383 1_555
Li11 O5 1.985129 1_555
Li11 O12 1.987143 1_555
Li11 O17 1.988658 1_555
Li12 O20 1.949409 1_554
Li12 O18 1.966724 1_555
Li12 O24 1.966732 1_555
Li12 O14 1.995462 1_555
Li13 O21 1.949409 1_555
Li13 O19 1.966724 1_555
Li13 O25 1.966732 1_555
Li13 O15 1.995462 1_555
Li14 O22 1.949409 1_556
Li14 O16 1.966724 1_555
Li14 O26 1.966732 1_555
Li14 O12 1.995462 1_555
Li15 O23 1.949409 1_555
Li15 O17 1.966724 1_555
Li15 O27 1.966732 1_555
Li15 O13 1.995462 1_555
C0 H0 1.114354 1_555
C0 O0 1.264751 1_565
C0 O4 1.268369 1_555
C1 H1 1.114354 1_555
C1 O1 1.264751 1_455
C1 O5 1.268369 1_555
C2 H2 1.114354 1_555
C2 O2 1.264751 1_545
C2 O6 1.268369 1_555
C3 H3 1.114354 1_555
C3 O3 1.264751 1_655
C3 O7 1.268369 1_555
C4 H4 1.113410 1_556
C4 O8 1.265774 1_555
C4 O12 1.269376 1_555
C5 H5 1.113410 1_555
C5 O9 1.265774 1_555
C5 O13 1.269376 1_555
C6 H6 1.113410 1_554
C6 O10 1.265774 1_555
C6 O14 1.269376 1_555
C7 H7 1.113410 1_555
C7 O11 1.265774 1_555
C7 O15 1.269376 1_555
C8 H8 1.113091 1_555
C8 O16 1.264827 1_555
C8 O20 1.270310 1_555
C9 H9 1.113091 1_555
C9 O17 1.264827 1_555
C9 O21 1.270310 1_555
C10 H10 1.113091 1_555
C10 O18 1.264827 1_555
C10 O22 1.270310 1_555
C11 H11 1.113091 1_555
C11 O19 1.264827 1_555
C11 O23 1.270310 1_555
C12 H12 1.112791 1_555
C12 O24 1.262309 1_555
C12 O28 1.273554 1_555
C13 H13 1.112791 1_555
C13 O25 1.262309 1_555
C13 O29 1.273554 1_555
C14 H14 1.112791 1_555
C14 O26 1.262309 1_555
C14 O30 1.273554 1_555
C15 H15 1.112791 1_555
C15 O27 1.262309 1_555
C15 O31 1.273554 1_555
