# generated using pymatgen
data_LiFe2(BO3)2
_symmetry_space_group_name_H-M   'P 1'
_cell_length_a   5.23957600
_cell_length_b   9.16961223
_cell_length_c   10.18843605
_cell_angle_alpha   88.76667595
_cell_angle_beta   89.45730238
_cell_angle_gamma   89.51447159
_symmetry_Int_Tables_number   1
_chemical_formula_structural   LiFe2(BO3)2
_chemical_formula_sum   'Li4 Fe8 B8 O24'
_cell_volume   489.35009059
_cell_formula_units_Z   4
loop_
 _symmetry_equiv_pos_site_id
 _symmetry_equiv_pos_as_xyz
  1  'x, y, z'
loop_
 _atom_site_type_symbol
 _atom_site_label
 _atom_site_symmetry_multiplicity
 _atom_site_fract_x
 _atom_site_fract_y
 _atom_site_fract_z
 _atom_site_occupancy
  Li  Li0  1  0.15797000  0.16754300  0.64262800  1
  Li  Li1  1  0.33011100  0.31798500  0.90902500  1
  Li  Li2  1  0.65514600  0.67983100  0.65405700  1
  Li  Li3  1  0.83922300  0.83372900  0.36143500  1
  Fe  Fe0  1  0.15197900  0.83858700  0.62981100  1
  Fe  Fe1  1  0.17896800  0.49765500  0.13698300  1
  Fe  Fe2  1  0.32342100  0.98846900  0.88181100  1
  Fe  Fe3  1  0.33168800  0.65776800  0.37730100  1
  Fe  Fe4  1  0.66546700  0.33864600  0.62585600  1
  Fe  Fe5  1  0.66812700  0.00926900  0.12867200  1
  Fe  Fe6  1  0.83687500  0.16877700  0.37381500  1
  Fe  Fe7  1  0.82884400  0.49612600  0.88800300  1
  B  B0  1  0.16897800  0.49809300  0.63053600  1
  B  B1  1  0.17604100  0.83721800  0.14256100  1
  B  B2  1  0.33182500  0.99289500  0.38125400  1
  B  B3  1  0.32563300  0.65778600  0.86654400  1
  B  B4  1  0.65264300  0.00509400  0.62731800  1
  B  B5  1  0.66064900  0.32848000  0.11773400  1
  B  B6  1  0.83501900  0.50599000  0.39094100  1
  B  B7  1  0.83560200  0.17225500  0.87635800  1
  O  O0  1  0.08754200  0.50406800  0.34986300  1
  O  O1  1  0.09189300  0.16815000  0.85693500  1
  O  O2  1  0.20595800  0.78576800  0.83476800  1
  O  O3  1  0.22231900  0.85519700  0.41807400  1
  O  O4  1  0.19534800  0.11512300  0.39749600  1
  O  O5  1  0.18741900  0.53561200  0.91090600  1
  O  O6  1  0.30253300  0.36832000  0.64434500  1
  O  O7  1  0.32902600  0.94357000  0.08550200  1
  O  O8  1  0.28873800  0.62462800  0.58753800  1
  O  O9  1  0.28702200  0.70485700  0.18404900  1
  O  O10  1  0.40704400  0.33453700  0.09744700  1
  O  O11  1  0.40037800  0.00911400  0.66591300  1
  O  O12  1  0.58444400  0.99082400  0.33413400  1
  O  O13  1  0.58681700  0.64210000  0.84828700  1
  O  O14  1  0.69616200  0.30366000  0.83335500  1
  O  O15  1  0.72520400  0.37674800  0.43623800  1
  O  O16  1  0.69697500  0.63487200  0.38882000  1
  O  O17  1  0.69042100  0.06306800  0.93331500  1
  O  O18  1  0.81711200  0.44493000  0.07635200  1
  O  O19  1  0.78186400  0.87503900  0.61273900  1
  O  O20  1  0.78034000  0.13880300  0.59956200  1
  O  O21  1  0.78005300  0.20539300  0.17151600  1
  O  O22  1  0.92060600  0.86087900  0.16354300  1
  O  O23  1  0.90753700  0.50212800  0.66514300  1
loop_
_geom_bond_atom_site_label_1
_geom_bond_atom_site_label_2
_geom_bond_distance
_geom_bond_site_symmetry_2
Li0 O11 1.933780 1_555
Li0 O6 1.997188 1_555
Li0 O20 2.051140 1_455
Li0 O1 2.207608 1_555
Li0 O4 2.558863 1_555
Li1 O1 1.949422 1_555
Li1 O10 1.974616 1_556
Li1 O14 2.064522 1_555
Li1 O5 2.125481 1_555
Li2 O19 1.950509 1_555
Li2 O13 2.030548 1_555
Li2 O23 2.091676 1_555
Li2 O8 2.111195 1_555
Li3 O12 1.972728 1_555
Li3 O16 1.988839 1_555
Li3 O22 2.067079 1_555
Li3 O3 2.105796 1_655
Fe0 O19 1.973715 1_455
Fe0 O11 2.083886 1_565
Fe0 O8 2.134196 1_555
Fe0 O2 2.154168 1_555
Fe0 O3 2.187369 1_555
Fe1 O10 1.952962 1_555
Fe1 O9 2.054977 1_555
Fe1 O18 2.064128 1_455
Fe1 O0 2.218660 1_555
Fe1 O5 2.322162 1_554
Fe2 O2 2.031394 1_555
Fe2 O1 2.050474 1_565
Fe2 O7 2.107457 1_556
Fe2 O17 2.120795 1_565
Fe2 O11 2.236852 1_565
Fe3 O16 1.928065 1_555
Fe3 O0 1.937826 1_555
Fe3 O3 1.946430 1_555
Fe3 O9 2.021964 1_555
Fe3 O8 2.166818 1_555
Fe4 O6 1.926742 1_555
Fe4 O20 1.947155 1_555
Fe4 O15 1.978296 1_555
Fe4 O23 2.020838 1_555
Fe4 O14 2.138816 1_555
Fe5 O22 1.919707 1_545
Fe5 O7 1.938442 1_545
Fe5 O21 1.955800 1_555
Fe5 O17 2.042775 1_554
Fe5 O12 2.138116 1_545
Fe6 O4 1.953429 1_655
Fe6 O15 2.099950 1_555
Fe6 O21 2.104682 1_555
Fe6 O12 2.156513 1_545
Fe6 O20 2.326927 1_555
Fe7 O13 1.876472 1_555
Fe7 O5 1.933607 1_655
Fe7 O18 1.966246 1_556
Fe7 O14 1.994588 1_555
Fe7 O23 2.303455 1_555
B0 O6 1.380595 1_555
B0 O8 1.384614 1_555
B0 O23 1.411632 1_455
B1 O22 1.369549 1_455
B1 O7 1.382580 1_555
B1 O9 1.400173 1_555
B2 O4 1.336802 1_565
B2 O12 1.403826 1_555
B2 O3 1.432480 1_555
B3 O2 1.360231 1_555
B3 O13 1.386022 1_555
B3 O5 1.403397 1_555
B4 O11 1.375859 1_555
B4 O19 1.376481 1_545
B4 O20 1.423465 1_555
B5 O10 1.347193 1_555
B5 O21 1.390482 1_555
B5 O18 1.406748 1_555
B6 O16 1.380208 1_555
B6 O0 1.384027 1_655
B6 O15 1.389783 1_555
B7 O1 1.355828 1_655
B7 O17 1.377438 1_555
B7 O14 1.464933 1_555
