# generated using pymatgen
data_Hf2N2O
_symmetry_space_group_name_H-M   'P 1'
_cell_length_a   3.43708400
_cell_length_b   4.27311800
_cell_length_c   8.67900688
_cell_angle_alpha   79.85376865
_cell_angle_beta   90.00000000
_cell_angle_gamma   90.00000000
_symmetry_Int_Tables_number   1
_chemical_formula_structural   Hf2N2O
_chemical_formula_sum   'Hf4 N4 O2'
_cell_volume   125.47569833
_cell_formula_units_Z   2
loop_
 _symmetry_equiv_pos_site_id
 _symmetry_equiv_pos_as_xyz
  1  'x, y, z'
loop_
 _atom_site_type_symbol
 _atom_site_label
 _atom_site_symmetry_multiplicity
 _atom_site_fract_x
 _atom_site_fract_y
 _atom_site_fract_z
 _atom_site_occupancy
  Hf  Hf0  1  0.25000000  0.78818700  0.89380300  1
  Hf  Hf1  1  0.25000000  0.62528800  0.32929000  1
  Hf  Hf2  1  0.75000000  0.37471200  0.67071000  1
  Hf  Hf3  1  0.75000000  0.21181300  0.10619700  1
  N  N0  1  0.75000000  0.82835600  0.75110000  1
  N  N1  1  0.75000000  0.71602800  0.09718900  1
  N  N2  1  0.25000000  0.28397200  0.90281100  1
  N  N3  1  0.25000000  0.17164400  0.24890000  1
  O  O0  1  0.25000000  0.31226000  0.56092400  1
  O  O1  1  0.75000000  0.68774000  0.43907600  1
loop_
_geom_bond_atom_site_label_1
_geom_bond_atom_site_label_2
_geom_bond_distance
_geom_bond_site_symmetry_2
Hf0 N0 2.107577 1_555
Hf0 N0 2.107577 1_455
Hf0 N2 2.133708 1_565
Hf0 N2 2.142181 1_555
Hf0 N1 2.443888 1_456
Hf0 N1 2.443888 1_556
Hf1 O1 2.005513 1_455
Hf1 O1 2.005513 1_555
Hf1 N3 2.172783 1_555
Hf1 O0 2.209817 1_555
Hf1 N3 2.315914 1_565
Hf1 N1 2.624190 1_555
Hf1 N1 2.624190 1_455
Hf2 O0 2.005513 1_555
Hf2 O0 2.005513 1_655
Hf2 N0 2.172783 1_555
Hf2 O1 2.209817 1_555
Hf2 N0 2.315914 1_545
Hf2 N2 2.624190 1_555
Hf2 N2 2.624190 1_655
Hf3 N3 2.107577 1_655
Hf3 N3 2.107577 1_555
Hf3 N1 2.133708 1_545
Hf3 N1 2.142181 1_555
Hf3 N2 2.443888 1_654
Hf3 N2 2.443888 1_554
