# generated using pymatgen
data_Li5Ni9O16
_symmetry_space_group_name_H-M   'P 1'
_cell_length_a   4.97177000
_cell_length_b   11.27573368
_cell_length_c   10.33402572
_cell_angle_alpha   99.42864082
_cell_angle_beta   77.39486730
_cell_angle_gamma   80.10967592
_symmetry_Int_Tables_number   1
_chemical_formula_structural   Li5Ni9O16
_chemical_formula_sum   'Li10 Ni18 O32'
_cell_volume   544.61718358
_cell_formula_units_Z   2
loop_
 _symmetry_equiv_pos_site_id
 _symmetry_equiv_pos_as_xyz
  1  'x, y, z'
loop_
 _atom_site_type_symbol
 _atom_site_label
 _atom_site_symmetry_multiplicity
 _atom_site_fract_x
 _atom_site_fract_y
 _atom_site_fract_z
 _atom_site_occupancy
  Li  Li0  1  0.94135200  0.05783800  0.75865600  1
  Li  Li1  1  0.47778700  0.50228000  0.00452800  1
  Li  Li2  1  0.87701500  0.12392500  0.49666900  1
  Li  Li3  1  0.69061100  0.31196400  0.74915200  1
  Li  Li4  1  0.62188900  0.37553600  0.50084800  1
  Li  Li5  1  0.43548500  0.56357500  0.75333100  1
  Li  Li6  1  0.83471300  0.18522000  0.24547200  1
  Li  Li7  1  0.37114800  0.62966200  0.49134400  1
  Li  Li8  1  0.19312000  0.81989000  0.74772500  1
  Li  Li9  1  0.11938000  0.86761000  0.50227500  1
  Ni  Ni0  1  0.84993000  0.65036500  0.86835800  1
  Ni  Ni1  1  0.61063000  0.90478700  0.87977100  1
  Ni  Ni2  1  0.96031900  0.53318000  0.37882500  1
  Ni  Ni3  1  0.77716600  0.71722900  0.62539300  1
  Ni  Ni4  1  0.88941300  0.59468800  0.12618600  1
  Ni  Ni5  1  0.53533400  0.97027100  0.62460700  1
  Ni  Ni6  1  0.70187000  0.78271300  0.37022900  1
  Ni  Ni7  1  0.75316800  0.24959900  0.00443600  1
  Ni  Ni8  1  0.55933200  0.43790100  0.24556400  1
  Ni  Ni9  1  0.35218100  0.15432000  0.87117500  1
  Ni  Ni10  1  0.09141500  0.40463700  0.88436000  1
  Ni  Ni11  1  0.46257000  0.03713500  0.38164200  1
  Ni  Ni12  1  0.28057800  0.22174300  0.62697100  1
  Ni  Ni13  1  0.23752500  0.75431400  0.00839100  1
  Ni  Ni14  1  0.07497500  0.93318600  0.24160900  1
  Ni  Ni15  1  0.42308700  0.09281200  0.12381400  1
  Ni  Ni16  1  0.03192200  0.46575700  0.62302900  1
  Ni  Ni17  1  0.22108500  0.28286300  0.36564000  1
  O  O0  1  0.94053600  0.79957400  0.91361400  1
  O  O1  1  0.84804100  0.89223100  0.68334300  1
  O  O2  1  0.78871400  0.48924800  0.80173200  1
  O  O3  1  0.97953700  0.30373800  0.56963200  1
  O  O4  1  0.98900500  0.76665300  0.19044800  1
  O  O5  1  0.75929600  0.95903700  0.44501600  1
  O  O6  1  0.73627600  0.53944300  0.55710000  1
  O  O7  1  0.55320400  0.72846300  0.80498400  1
  O  O8  1  0.88149500  0.37861500  0.32559700  1
  O  O9  1  0.65052300  0.08342000  0.93236900  1
  O  O10  1  0.30814200  0.99271000  0.80058600  1
  O  O11  1  0.46445900  0.79526900  0.56665700  1
  O  O12  1  0.66197700  0.60408000  0.31763100  1
  O  O13  1  0.79746600  0.42539200  0.06077900  1
  O  O14  1  0.43100500  0.30888500  0.92440300  1
  O  O15  1  0.57622400  0.14805700  0.69290000  1
  O  O16  1  0.60486000  0.66270100  0.03135800  1
  O  O17  1  0.37196400  0.88792600  0.33638600  1
  O  O18  1  0.70764000  0.02479900  0.21864200  1
  O  O19  1  0.14951200  0.57986200  0.93561800  1
  O  O20  1  0.33296300  0.38376200  0.68036800  1
  O  O21  1  0.52378600  0.19825200  0.44826800  1
  O  O22  1  0.51503400  0.26210800  0.18922100  1
  O  O23  1  0.32349500  0.92084700  0.05955200  1
  O  O24  1  0.26693000  0.45789100  0.44138600  1
  O  O25  1  0.08682900  0.62510800  0.68646200  1
  O  O26  1  0.22567100  0.06239200  0.56353800  1
  O  O27  1  0.04557000  0.22960900  0.80861400  1
  O  O28  1  0.19801600  0.52661700  0.21230500  1
  O  O29  1  0.00435800  0.69479000  0.44941400  1
  O  O30  1  0.16298800  0.10763800  0.31438200  1
  O  O31  1  0.11448400  0.16088300  0.03769500  1
loop_
_geom_bond_atom_site_label_1
_geom_bond_atom_site_label_2
_geom_bond_distance
_geom_bond_site_symmetry_2
Li0 O9 1.987627 1_555
Li0 O10 2.010383 1_645
Li0 O1 2.070491 1_545
Li0 O27 2.102443 1_655
Li0 O26 2.209373 1_655
Li0 O15 2.218682 1_555
Li1 O13 1.926305 1_555
Li1 O16 2.013138 1_555
Li1 O19 2.038888 1_554
Li1 O28 2.234434 1_555
Li1 O14 2.271944 1_554
Li1 O2 2.282610 1_554
Li2 O21 2.012918 1_555
Li2 O26 2.056809 1_655
Li2 O30 2.057120 1_655
Li2 O5 2.066210 1_545
Li2 O15 2.185971 1_555
Li2 O3 2.227345 1_555
Li3 O14 1.990670 1_555
Li3 O15 2.056804 1_555
Li3 O3 2.061170 1_555
Li3 O27 2.109890 1_655
Li3 O20 2.137322 1_555
Li3 O2 2.150327 1_555
Li4 O8 1.990670 1_555
Li4 O6 2.056804 1_555
Li4 O20 2.061170 1_555
Li4 O24 2.109890 1_555
Li4 O3 2.137322 1_555
Li4 O21 2.150327 1_555
Li5 O2 2.012918 1_555
Li5 O25 2.056809 1_555
Li5 O19 2.057120 1_555
Li5 O7 2.066210 1_555
Li5 O6 2.185971 1_555
Li5 O20 2.227345 1_555
Li6 O22 1.926305 1_555
Li6 O18 2.013138 1_555
Li6 O30 2.038888 1_655
Li6 O31 2.234434 1_655
Li6 O8 2.271944 1_555
Li6 O21 2.282610 1_555
Li7 O12 1.987627 1_555
Li7 O29 2.010383 1_555
Li7 O11 2.070491 1_555
Li7 O24 2.102443 1_555
Li7 O25 2.209373 1_555
Li7 O6 2.218682 1_555
Li8 O0 1.963718 1_455
Li8 O11 1.999404 1_555
Li8 O1 2.060766 1_455
Li8 O10 2.143164 1_555
Li8 O7 2.155485 1_555
Li8 O25 2.364955 1_555
Li9 O17 1.963718 1_555
Li9 O1 1.999404 1_455
Li9 O11 2.060766 1_555
Li9 O29 2.143164 1_555
Li9 O5 2.155485 1_455
Li9 O26 2.364955 1_565
Ni0 O16 1.819481 1_556
Ni0 O0 1.829416 1_555
Ni0 O7 1.882848 1_555
Ni0 O19 1.886718 1_655
Ni0 O2 1.933574 1_555
Ni0 O25 1.935136 1_655
Ni1 O0 1.984418 1_555
Ni1 O23 2.041021 1_556
Ni1 O10 2.050596 1_555
Ni1 O9 2.053641 1_565
Ni1 O1 2.082406 1_555
Ni1 O7 2.102273 1_555
Ni2 O28 1.844975 1_655
Ni2 O12 1.845766 1_555
Ni2 O8 1.873029 1_555
Ni2 O24 1.904696 1_655
Ni2 O29 1.916242 1_655
Ni2 O6 1.916894 1_555
Ni3 O29 1.871256 1_655
Ni3 O7 1.916461 1_555
Ni3 O11 1.917491 1_555
Ni3 O25 1.984188 1_655
Ni3 O6 2.072964 1_555
Ni3 O1 2.078559 1_555
Ni4 O16 2.007119 1_555
Ni4 O12 2.029212 1_555
Ni4 O28 2.037269 1_655
Ni4 O19 2.069982 1_654
Ni4 O13 2.078887 1_555
Ni4 O4 2.120724 1_555
Ni5 O10 1.871256 1_555
Ni5 O5 1.916461 1_555
Ni5 O1 1.917491 1_555
Ni5 O26 1.984188 1_565
Ni5 O15 2.072964 1_565
Ni5 O11 2.078559 1_555
Ni6 O17 1.984418 1_555
Ni6 O4 2.041021 1_555
Ni6 O29 2.050596 1_655
Ni6 O12 2.053641 1_555
Ni6 O11 2.082406 1_555
Ni6 O5 2.102273 1_555
Ni7 O22 1.983864 1_555
Ni7 O14 2.021864 1_554
Ni7 O31 2.027462 1_655
Ni7 O13 2.035784 1_555
Ni7 O9 2.088858 1_554
Ni7 O27 2.171006 1_654
Ni8 O13 1.983864 1_555
Ni8 O8 2.021864 1_555
Ni8 O28 2.027462 1_555
Ni8 O22 2.035784 1_555
Ni8 O12 2.088858 1_555
Ni8 O24 2.171006 1_555
Ni9 O31 1.844975 1_556
Ni9 O9 1.845766 1_555
Ni9 O14 1.873029 1_555
Ni9 O27 1.904696 1_555
Ni9 O10 1.916242 1_545
Ni9 O15 1.916894 1_555
Ni10 O14 2.003150 1_555
Ni10 O13 2.023406 1_456
Ni10 O19 2.046385 1_555
Ni10 O2 2.058829 1_455
Ni10 O27 2.070241 1_555
Ni10 O20 2.139368 1_555
Ni11 O18 1.819481 1_555
Ni11 O17 1.829416 1_545
Ni11 O5 1.882848 1_545
Ni11 O30 1.886718 1_555
Ni11 O21 1.933574 1_555
Ni11 O26 1.935136 1_555
Ni12 O15 1.875661 1_555
Ni12 O3 1.880757 1_455
Ni12 O26 1.895630 1_555
Ni12 O20 1.898872 1_555
Ni12 O21 1.922948 1_555
Ni12 O27 1.961926 1_555
Ni13 O4 1.981466 1_455
Ni13 O0 1.983952 1_454
Ni13 O23 2.009316 1_555
Ni13 O16 2.019962 1_555
Ni13 O19 2.140341 1_554
Ni13 O7 2.273517 1_554
Ni14 O23 1.981466 1_555
Ni14 O17 1.983952 1_555
Ni14 O4 2.009316 1_455
Ni14 O18 2.019962 1_465
Ni14 O30 2.140341 1_565
Ni14 O5 2.273517 1_455
Ni15 O18 2.007119 1_555
Ni15 O9 2.029212 1_554
Ni15 O31 2.037269 1_555
Ni15 O30 2.069982 1_555
Ni15 O22 2.078887 1_555
Ni15 O23 2.120724 1_545
Ni16 O6 1.875661 1_455
Ni16 O20 1.880757 1_555
Ni16 O25 1.895630 1_555
Ni16 O3 1.898872 1_455
Ni16 O2 1.922948 1_455
Ni16 O24 1.961926 1_555
Ni17 O8 2.003150 1_455
Ni17 O22 2.023406 1_555
Ni17 O30 2.046385 1_555
Ni17 O21 2.058829 1_555
Ni17 O24 2.070241 1_555
Ni17 O3 2.139368 1_455
