# generated using pymatgen
data_Li3V12O29
_symmetry_space_group_name_H-M   'P 1'
_cell_length_a   14.34635261
_cell_length_b   14.34635261
_cell_length_c   10.38060531
_cell_angle_alpha   76.17347999
_cell_angle_beta   76.17347999
_cell_angle_gamma   14.80807039
_symmetry_Int_Tables_number   1
_chemical_formula_structural   Li3V12O29
_chemical_formula_sum   'Li3 V12 O29'
_cell_volume   529.96046382
_cell_formula_units_Z   1
loop_
 _symmetry_equiv_pos_site_id
 _symmetry_equiv_pos_as_xyz
  1  'x, y, z'
loop_
 _atom_site_type_symbol
 _atom_site_label
 _atom_site_symmetry_multiplicity
 _atom_site_fract_x
 _atom_site_fract_y
 _atom_site_fract_z
 _atom_site_occupancy
  Li  Li0  1  0.00727200  0.00727200  0.67508800  1
  Li  Li1  1  0.73310900  0.73310900  0.51870800  1
  Li  Li2  1  0.99352300  0.99352300  0.32603900  1
  V  V0  1  0.06358500  0.06358500  0.92115300  1
  V  V1  1  0.14684100  0.14684100  0.66164600  1
  V  V2  1  0.17722600  0.17722600  0.98371800  1
  V  V3  1  0.30254700  0.30254700  0.79521200  1
  V  V4  1  0.39104700  0.39104700  0.53293200  1
  V  V5  1  0.41537900  0.41537900  0.85592500  1
  V  V6  1  0.58475200  0.58475200  0.14368300  1
  V  V7  1  0.60903100  0.60903100  0.46659600  1
  V  V8  1  0.69613700  0.69613700  0.21069000  1
  V  V9  1  0.82327700  0.82327700  0.02107900  1
  V  V10  1  0.85339300  0.85339300  0.34025300  1
  V  V11  1  0.93590000  0.93590000  0.07947600  1
  O  O0  1  0.09894000  0.09894000  0.08522800  1
  O  O1  1  0.06275400  0.06275400  0.75952600  1
  O  O2  1  0.12276800  0.12276800  0.49310500  1
  O  O3  1  0.14109300  0.14109300  0.83752600  1
  O  O4  1  0.19287700  0.19287700  0.15868900  1
  O  O5  1  0.20639000  0.20639000  0.60177000  1
  O  O6  1  0.23604500  0.23604500  0.88042000  1
  O  O7  1  0.29952500  0.29952500  0.63942300  1
  O  O8  1  0.36823700  0.36823700  0.36525400  1
  O  O9  1  0.33537700  0.33537700  0.96451300  1
  O  O10  1  0.37746400  0.37746400  0.71347600  1
  O  O11  1  0.43111700  0.43111700  0.03717500  1
  O  O12  1  0.45026200  0.45026200  0.48547300  1
  O  O13  1  0.47034100  0.47034100  0.74980800  1
  O  O14  1  0.52977100  0.52977100  0.24975000  1
  O  O15  1  0.00045200  0.00045200  0.99784000  1
  O  O16  1  0.54976300  0.54976300  0.51615700  1
  O  O17  1  0.56996400  0.56996400  0.96234000  1
  O  O18  1  0.62098100  0.62098100  0.28802000  1
  O  O19  1  0.66491200  0.66491200  0.03509200  1
  O  O20  1  0.63386900  0.63386900  0.63511800  1
  O  O21  1  0.69964500  0.69964500  0.36869600  1
  O  O22  1  0.76579700  0.76579700  0.11954900  1
  O  O23  1  0.79479900  0.79479900  0.39426400  1
  O  O24  1  0.80711400  0.80711400  0.83810200  1
  O  O25  1  0.86061100  0.86061100  0.16224600  1
  O  O26  1  0.87676300  0.87676300  0.50983800  1
  O  O27  1  0.93896100  0.93896100  0.23876400  1
  O  O28  1  0.90157700  0.90157700  0.91393600  1
loop_
_geom_bond_atom_site_label_1
_geom_bond_atom_site_label_2
_geom_bond_distance
_geom_bond_site_symmetry_2
Li0 O1 1.981759 1_555
Li0 O13 2.175053 1_455
Li0 O13 2.175053 1_545
Li0 O16 2.576829 1_455
Li0 O16 2.576829 1_545
Li1 O23 1.912307 1_555
Li1 O21 2.011515 1_555
Li1 O5 2.103176 1_655
Li1 O5 2.103176 1_565
Li2 O27 1.977087 1_555
Li2 O14 2.171426 1_655
Li2 O14 2.171426 1_565
Li2 O12 2.586550 1_565
Li2 O12 2.586550 1_655
O0 V6 1.957289 1_455
O0 V6 1.957289 1_545
O0 V0 2.176851 1_554
O0 V2 2.222799 1_554
O1 V0 1.683641 1_555
O1 V1 2.363271 1_555
O2 V7 1.923074 1_455
O2 V7 1.923074 1_545
O2 V1 2.026752 1_555
O3 V1 1.793365 1_555
O3 V2 2.027807 1_555
O3 V0 2.166681 1_555
O4 V8 1.934424 1_455
O4 V8 1.934424 1_545
O4 V2 1.971580 1_554
O5 V1 1.658203 1_555
O6 V2 1.756645 1_555
O6 V3 1.885773 1_555
O7 V3 1.640031 1_555
O8 V10 1.927809 1_455
O8 V10 1.927809 1_545
O8 V4 1.998852 1_555
O9 V9 1.945189 1_456
O9 V9 1.945189 1_546
O9 V3 2.180018 1_555
O9 V5 2.283763 1_555
O10 V4 1.820086 1_555
O10 V5 2.029605 1_555
O10 V3 2.095731 1_555
O11 V11 1.912594 1_455
O11 V11 1.912594 1_545
O11 V5 2.036319 1_554
O12 V4 1.637506 1_555
O13 V5 1.681898 1_555
O14 V6 1.682092 1_555
O15 V0 1.780829 1_555
O15 V11 1.827977 1_446
O16 V7 1.640241 1_555
O17 V0 1.915989 1_565
O17 V0 1.915989 1_655
O17 V6 2.025447 1_556
O18 V7 1.802254 1_555
O18 V6 2.012954 1_555
O18 V8 2.095225 1_555
O19 V2 1.932609 1_654
O19 V2 1.932609 1_564
O19 V8 2.211918 1_555
O19 V6 2.287718 1_555
O20 V1 1.918053 1_655
O20 V1 1.918053 1_565
O20 V7 2.038532 1_555
O21 V8 1.667070 1_555
O22 V9 1.707031 1_555
O22 V8 1.979865 1_555
O23 V10 1.625847 1_555
O24 V3 1.913340 1_565
O24 V3 1.913340 1_655
O24 V9 2.059198 1_556
O25 V10 1.809339 1_555
O25 V9 2.006521 1_555
O25 V11 2.107189 1_555
O26 V4 1.920284 1_655
O26 V4 1.920284 1_565
O26 V10 2.026170 1_555
O27 V11 1.676628 1_555
O27 V10 2.408610 1_555
O28 V5 1.954673 1_655
O28 V5 1.954673 1_565
O28 V11 2.171532 1_556
O28 V9 2.237469 1_556
