# generated using pymatgen
data_LiMnPO4
_symmetry_space_group_name_H-M   'P 1'
_cell_length_a   5.15526584
_cell_length_b   5.15638209
_cell_length_c   16.16193496
_cell_angle_alpha   87.35124517
_cell_angle_beta   92.61462927
_cell_angle_gamma   108.64328261
_symmetry_Int_Tables_number   1
_chemical_formula_structural   LiMnPO4
_chemical_formula_sum   'Li4 Mn4 P4 O16'
_cell_volume   406.43043405
_cell_formula_units_Z   4
loop_
 _symmetry_equiv_pos_site_id
 _symmetry_equiv_pos_as_xyz
  1  'x, y, z'
loop_
 _atom_site_type_symbol
 _atom_site_label
 _atom_site_symmetry_multiplicity
 _atom_site_fract_x
 _atom_site_fract_y
 _atom_site_fract_z
 _atom_site_occupancy
  Li  Li0  1  0.28227800  0.77144300  0.74857400  1
  Li  Li1  1  0.22850100  0.71781700  0.24855700  1
  Li  Li2  1  0.77148900  0.28213700  0.75142900  1
  Li  Li3  1  0.71771100  0.22851500  0.25143600  1
  Mn  Mn0  1  0.92009000  0.62679300  0.58401400  1
  Mn  Mn1  1  0.07992800  0.37330800  0.41598400  1
  Mn  Mn2  1  0.62620000  0.91945100  0.91598400  1
  Mn  Mn3  1  0.37379600  0.08048100  0.08402300  1
  P  P0  1  0.25777000  0.28884000  0.63101300  1
  P  P1  1  0.28871100  0.25759800  0.86898100  1
  P  P2  1  0.71128300  0.74234300  0.13102600  1
  P  P3  1  0.74223400  0.71122700  0.36897900  1
  O  O0  1  0.11025500  0.42749700  0.68876600  1
  O  O1  1  0.57260800  0.88978100  0.18878500  1
  O  O2  1  0.42738900  0.11016400  0.81122100  1
  O  O3  1  0.88977800  0.57259900  0.31122900  1
  O  O4  1  0.97335700  0.15852100  0.85530000  1
  O  O5  1  0.84124300  0.02652000  0.35525500  1
  O  O6  1  0.15881200  0.97355100  0.64475500  1
  O  O7  1  0.02663900  0.84142600  0.14470500  1
  O  O8  1  0.40359700  0.57118400  0.85303900  1
  O  O9  1  0.42858500  0.59619000  0.35311500  1
  O  O10  1  0.57142200  0.40389500  0.64686000  1
  O  O11  1  0.59639200  0.42875700  0.14696800  1
  O  O12  1  0.17313600  0.36920800  0.54168600  1
  O  O13  1  0.63089300  0.82684300  0.04168800  1
  O  O14  1  0.36910500  0.17310100  0.95832000  1
  O  O15  1  0.82680000  0.63081000  0.45830700  1
loop_
_geom_bond_atom_site_label_1
_geom_bond_atom_site_label_2
_geom_bond_distance
_geom_bond_site_symmetry_2
Li0 O2 1.973393 1_565
Li0 O0 1.985152 1_555
Li0 O8 2.112684 1_555
Li0 O6 2.114626 1_555
Li1 O3 1.972610 1_455
Li1 O1 1.984416 1_555
Li1 O9 2.114125 1_555
Li1 O7 2.114765 1_555
Li2 O0 1.972760 1_655
Li2 O2 1.984558 1_555
Li2 O10 2.114494 1_555
Li2 O4 2.115030 1_555
Li3 O1 1.973477 1_545
Li3 O3 1.985611 1_555
Li3 O11 2.112673 1_555
Li3 O5 2.114448 1_555
Mn0 O15 2.067060 1_555
Mn0 O6 2.078563 1_655
Mn0 O10 2.078802 1_555
Mn0 O12 2.281904 1_655
Mn0 O0 2.283695 1_655
Mn1 O12 2.066917 1_555
Mn1 O5 2.078519 1_455
Mn1 O9 2.078927 1_555
Mn1 O15 2.281869 1_455
Mn1 O3 2.283673 1_455
Mn2 O13 2.066235 1_556
Mn2 O8 2.078823 1_555
Mn2 O4 2.079034 1_565
Mn2 O14 2.282379 1_565
Mn2 O2 2.283973 1_565
Mn3 O14 2.066231 1_554
Mn3 O11 2.078847 1_555
Mn3 O7 2.078996 1_545
Mn3 O13 2.282334 1_545
Mn3 O1 2.283929 1_545
O0 P0 1.560389 1_555
O1 P2 1.560274 1_555
O2 P1 1.560281 1_555
O3 P3 1.560361 1_555
O4 P1 1.549041 1_655
O5 P3 1.548970 1_545
O6 P0 1.548983 1_565
O7 P2 1.549047 1_455
O8 P1 1.547540 1_555
O9 P3 1.547616 1_555
O10 P0 1.547598 1_555
O11 P2 1.547541 1_555
O12 P0 1.564991 1_555
O13 P2 1.564955 1_555
O14 P1 1.564971 1_555
O15 P3 1.564972 1_555
