# generated using pymatgen
data_Li4TiMn5O12
_symmetry_space_group_name_H-M   'P 1'
_cell_length_a   5.14860565
_cell_length_b   5.14860565
_cell_length_c   10.25562229
_cell_angle_alpha   88.93292701
_cell_angle_beta   88.93292701
_cell_angle_gamma   118.25455086
_symmetry_Int_Tables_number   1
_chemical_formula_structural   Li4TiMn5O12
_chemical_formula_sum   'Li4 Ti1 Mn5 O12'
_cell_volume   239.30875131
_cell_formula_units_Z   1
loop_
 _symmetry_equiv_pos_site_id
 _symmetry_equiv_pos_as_xyz
  1  'x, y, z'
loop_
 _atom_site_type_symbol
 _atom_site_label
 _atom_site_symmetry_multiplicity
 _atom_site_fract_x
 _atom_site_fract_y
 _atom_site_fract_z
 _atom_site_occupancy
  Li  Li0  1  0.64208800  0.13935400  0.75054900  1
  Li  Li1  1  0.86064600  0.35791200  0.24945100  1
  Li  Li2  1  0.13935400  0.64208800  0.75054900  1
  Li  Li3  1  0.35791200  0.86064600  0.24945100  1
  Ti  Ti0  1  0.00000000  0.00000000  0.00000000  1
  Mn  Mn0  1  0.83592400  0.16407600  0.50000000  1
  Mn  Mn1  1  0.33513300  0.66486700  0.00000000  1
  Mn  Mn2  1  0.66486700  0.33513300  0.00000000  1
  Mn  Mn3  1  0.16407600  0.83592400  0.50000000  1
  Mn  Mn4  1  0.50000000  0.50000000  0.50000000  1
  O  O0  1  0.69320500  0.03482800  0.11025000  1
  O  O1  1  0.96517200  0.30679500  0.88975000  1
  O  O2  1  0.52858500  0.16544200  0.39215600  1
  O  O3  1  0.16544200  0.52858500  0.39215600  1
  O  O4  1  0.83455800  0.47141500  0.60784400  1
  O  O5  1  0.16910400  0.16910400  0.59090700  1
  O  O6  1  0.47141500  0.83455800  0.60784400  1
  O  O7  1  0.03482800  0.69320500  0.11025000  1
  O  O8  1  0.32379400  0.32379400  0.09332200  1
  O  O9  1  0.30679500  0.96517200  0.88975000  1
  O  O10  1  0.67620600  0.67620600  0.90667800  1
  O  O11  1  0.83089600  0.83089600  0.40909300  1
loop_
_geom_bond_atom_site_label_1
_geom_bond_atom_site_label_2
_geom_bond_distance
_geom_bond_site_symmetry_2
Li0 O6 2.050504 1_545
Li0 O9 2.053566 1_545
Li0 O4 2.072579 1_555
Li0 O1 2.079616 1_555
Li1 O3 2.050504 1_655
Li1 O7 2.053566 1_655
Li1 O2 2.072579 1_555
Li1 O0 2.079616 1_555
Li2 O4 2.050504 1_455
Li2 O1 2.053566 1_455
Li2 O6 2.072579 1_555
Li2 O9 2.079616 1_555
Li3 O2 2.050504 1_565
Li3 O0 2.053566 1_565
Li3 O3 2.072579 1_555
Li3 O7 2.079616 1_555
Mn0 O2 1.950030 1_555
Mn0 O4 1.950030 1_555
Mn0 O5 1.957276 1_655
Mn0 O11 1.957276 1_545
Mn0 O3 2.112325 1_655
Mn0 O6 2.112325 1_545
Mn1 O10 1.959942 1_554
Mn1 O8 1.959942 1_555
Mn1 O9 1.960848 1_554
Mn1 O7 1.960848 1_555
Mn1 O1 2.266834 1_454
Mn1 O0 2.266834 1_565
Mn2 O8 1.959942 1_555
Mn2 O10 1.959942 1_554
Mn2 O0 1.960848 1_555
Mn2 O1 1.960848 1_554
Mn2 O9 2.266834 1_544
Mn2 O7 2.266834 1_655
Mn3 O3 1.950030 1_555
Mn3 O6 1.950030 1_555
Mn3 O5 1.957276 1_565
Mn3 O11 1.957276 1_455
Mn3 O2 2.112325 1_565
Mn3 O4 2.112325 1_455
Mn4 O5 1.951354 1_555
Mn4 O11 1.951354 1_555
Mn4 O2 2.125289 1_555
Mn4 O3 2.125289 1_555
Mn4 O6 2.125289 1_555
Mn4 O4 2.125289 1_555
O0 Ti0 2.003703 1_655
O1 Ti0 2.003703 1_656
O7 Ti0 2.003703 1_565
O8 Ti0 1.990462 1_555
O9 Ti0 2.003703 1_566
O10 Ti0 1.990462 1_666
