# generated using pymatgen
data_Li4Cr3Cu2Sb3O16
_symmetry_space_group_name_H-M   'P 1'
_cell_length_a   6.06944008
_cell_length_b   6.11288482
_cell_length_c   9.92030362
_cell_angle_alpha   90.01802359
_cell_angle_beta   89.59105162
_cell_angle_gamma   120.23706306
_symmetry_Int_Tables_number   1
_chemical_formula_structural   Li4Cr3Cu2Sb3O16
_chemical_formula_sum   'Li4 Cr3 Cu2 Sb3 O16'
_cell_volume   317.97562992
_cell_formula_units_Z   1
loop_
 _symmetry_equiv_pos_site_id
 _symmetry_equiv_pos_as_xyz
  1  'x, y, z'
loop_
 _atom_site_type_symbol
 _atom_site_label
 _atom_site_symmetry_multiplicity
 _atom_site_fract_x
 _atom_site_fract_y
 _atom_site_fract_z
 _atom_site_occupancy
  Li  Li0  1  0.33821500  0.66919700  0.89862900  1
  Li  Li1  1  0.02243700  0.01110200  0.00297200  1
  Li  Li2  1  0.01955200  0.00974800  0.49241600  1
  Li  Li3  1  0.67385500  0.33700200  0.37667200  1
  Cr  Cr0  1  0.17364500  0.83377900  0.21518600  1
  Cr  Cr1  1  0.17346500  0.33992200  0.21527000  1
  Cr  Cr2  1  0.33126500  0.16568400  0.71539900  1
  Cu  Cu0  1  0.30921900  0.65460900  0.47755700  1
  Cu  Cu1  1  0.65458900  0.32738500  0.02767000  1
  Sb  Sb0  1  0.66530900  0.83255400  0.21558200  1
  Sb  Sb1  1  0.82437300  0.65952100  0.71580100  1
  Sb  Sb2  1  0.82439800  0.16498800  0.71580200  1
  O  O0  1  0.14262400  0.83636000  0.60623600  1
  O  O1  1  0.04012800  0.51998900  0.32837200  1
  O  O2  1  0.34063200  0.67030200  0.10594200  1
  O  O3  1  0.00176600  0.00091000  0.31314200  1
  O  O4  1  0.99373100  0.99699300  0.81976200  1
  O  O5  1  0.14268300  0.30641500  0.60620600  1
  O  O6  1  0.49018900  0.97019400  0.33164600  1
  O  O7  1  0.49041800  0.51990600  0.33143300  1
  O  O8  1  0.31898900  0.15942200  0.10760000  1
  O  O9  1  0.68548300  0.84275600  0.60204800  1
  O  O10  1  0.51055100  0.48666800  0.82410700  1
  O  O11  1  0.51059700  0.02418900  0.82418600  1
  O  O12  1  0.66286100  0.33141600  0.60296600  1
  O  O13  1  0.84477200  0.69166100  0.10312300  1
  O  O14  1  0.96949900  0.48485500  0.82900100  1
  O  O15  1  0.84475500  0.15277200  0.10311300  1
loop_
_geom_bond_atom_site_label_1
_geom_bond_atom_site_label_2
_geom_bond_distance
_geom_bond_site_symmetry_2
Li0 O10 2.012327 1_555
Li0 O11 2.013048 1_565
Li0 O2 2.056750 1_556
Li0 O14 2.058359 1_455
Li1 O4 1.824934 1_444
Li1 O8 1.876567 1_555
Li1 O15 1.955678 1_455
Li1 O13 1.956565 1_445
Li2 O3 1.781649 1_555
Li2 O0 1.940742 1_545
Li2 O5 1.940950 1_555
Li2 O9 2.054433 1_445
Li3 O1 1.975729 1_655
Li3 O7 1.988023 1_555
Li3 O6 1.989704 1_545
Li3 O12 2.245180 1_555
Cr0 O1 2.004902 1_555
Cr0 O8 2.024636 1_565
Cr0 O3 2.033395 1_565
Cr0 O6 2.034409 1_555
Cr0 O2 2.050376 1_555
Cr0 O13 2.063851 1_455
Cr1 O1 2.002217 1_555
Cr1 O8 2.026270 1_555
Cr1 O3 2.033478 1_555
Cr1 O7 2.034293 1_555
Cr1 O2 2.050932 1_555
Cr1 O15 2.063790 1_455
Cr2 O10 2.015460 1_555
Cr2 O11 2.015700 1_555
Cr2 O4 2.043256 1_445
Cr2 O0 2.056990 1_545
Cr2 O5 2.057552 1_555
Cr2 O12 2.058177 1_555
Cu0 O1 2.053053 1_555
Cu0 O6 2.206394 1_555
Cu0 O7 2.208487 1_555
Cu0 O5 2.235469 1_555
Cu0 O0 2.235718 1_555
Cu0 O9 2.336094 1_555
Cu1 O8 1.924325 1_555
Cu1 O13 2.067303 1_555
Cu1 O15 2.070088 1_555
Cu1 O14 2.560948 1_554
Cu1 O11 2.581701 1_554
Cu1 O10 2.583424 1_554
O0 Sb1 1.987161 1_455
O2 Sb0 2.027671 1_555
O3 Sb0 2.019143 1_445
O4 Sb2 2.062347 1_565
O4 Sb1 2.062526 1_555
O5 Sb2 1.987439 1_455
O6 Sb0 2.011451 1_555
O7 Sb0 2.010214 1_555
O9 Sb2 2.050324 1_565
O9 Sb1 2.050371 1_555
O10 Sb1 1.960445 1_555
O11 Sb2 1.960787 1_555
O12 Sb2 2.066454 1_555
O12 Sb1 2.066561 1_555
O13 Sb0 2.024778 1_555
O14 Sb2 2.034281 1_555
O14 Sb1 2.034464 1_555
O15 Sb0 2.024729 1_545
