# generated using pymatgen
data_Li6MnV3(PO4)6
_symmetry_space_group_name_H-M   'P 1'
_cell_length_a   9.04514118
_cell_length_b   9.04514118
_cell_length_c   9.04514192
_cell_angle_alpha   55.92824756
_cell_angle_beta   55.92824756
_cell_angle_gamma   55.92824768
_symmetry_Int_Tables_number   1
_chemical_formula_structural   Li6MnV3(PO4)6
_chemical_formula_sum   'Li6 Mn1 V3 P6 O24'
_cell_volume   473.89943746
_cell_formula_units_Z   1
loop_
 _symmetry_equiv_pos_site_id
 _symmetry_equiv_pos_as_xyz
  1  'x, y, z'
loop_
 _atom_site_type_symbol
 _atom_site_label
 _atom_site_symmetry_multiplicity
 _atom_site_fract_x
 _atom_site_fract_y
 _atom_site_fract_z
 _atom_site_occupancy
  Li  Li0  1  0.26706000  0.92208600  0.66153800  1
  Li  Li1  1  0.92208600  0.66153800  0.26706000  1
  Li  Li2  1  0.66153800  0.26706000  0.92208600  1
  Li  Li3  1  0.33116900  0.74113700  0.07578000  1
  Li  Li4  1  0.07578000  0.33116900  0.74113700  1
  Li  Li5  1  0.74113700  0.07578000  0.33116900  1
  Mn  Mn0  1  0.14588400  0.14588400  0.14588400  1
  V  V0  1  0.65138800  0.65138800  0.65138800  1
  V  V1  1  0.85386800  0.85386800  0.85386800  1
  V  V2  1  0.34899700  0.34899700  0.34899700  1
  P  P0  1  0.95785300  0.24915900  0.54245600  1
  P  P1  1  0.54245600  0.95785300  0.24915900  1
  P  P2  1  0.24915900  0.54245600  0.95785300  1
  P  P3  1  0.74567200  0.46223700  0.04126800  1
  P  P4  1  0.46223700  0.04126800  0.74567200  1
  P  P5  1  0.04126800  0.74567200  0.46223700  1
  O  O0  1  0.15497600  0.20850700  0.53903500  1
  O  O1  1  0.83186000  0.46398700  0.51455500  1
  O  O2  1  0.51455500  0.83186000  0.46398700  1
  O  O3  1  0.53903500  0.15497600  0.20850700  1
  O  O4  1  0.20850700  0.53903500  0.15497600  1
  O  O5  1  0.98588200  0.20138000  0.39308700  1
  O  O6  1  0.74967300  0.86424000  0.12089600  1
  O  O7  1  0.39308700  0.98588200  0.20138000  1
  O  O8  1  0.46398700  0.51455500  0.83186000  1
  O  O9  1  0.12089600  0.74967300  0.86424000  1
  O  O10  1  0.20138000  0.39308700  0.98588200  1
  O  O11  1  0.86424000  0.12089600  0.74967300  1
  O  O12  1  0.13384100  0.86807900  0.25954500  1
  O  O13  1  0.80054800  0.61726300  0.00293700  1
  O  O14  1  0.86807900  0.25954500  0.13384100  1
  O  O15  1  0.52998400  0.49910400  0.16528600  1
  O  O16  1  0.61726300  0.00293700  0.80054800  1
  O  O17  1  0.25954500  0.13384100  0.86807900  1
  O  O18  1  0.00293700  0.80054800  0.61726300  1
  O  O19  1  0.78615300  0.46735900  0.84426000  1
  O  O20  1  0.46735900  0.84426000  0.78615300  1
  O  O21  1  0.49910400  0.16528600  0.52998400  1
  O  O22  1  0.16528600  0.52998400  0.49910400  1
  O  O23  1  0.84426000  0.78615300  0.46735900  1
loop_
_geom_bond_atom_site_label_1
_geom_bond_atom_site_label_2
_geom_bond_distance
_geom_bond_site_symmetry_2
Li0 O9 1.982917 1_555
Li0 O2 1.993818 1_555
Li0 O0 2.016619 1_565
Li0 O20 2.240196 1_555
Li1 O6 1.982917 1_555
Li1 O1 1.993818 1_555
Li1 O4 2.016619 1_655
Li1 O23 2.240196 1_555
Li2 O11 1.982917 1_555
Li2 O8 1.993818 1_555
Li2 O3 2.016619 1_556
Li2 O19 2.240196 1_555
Li3 O12 1.945503 1_555
Li3 O15 1.978966 1_555
Li3 O20 2.045505 1_554
Li3 O4 2.236207 1_555
Li4 O17 1.945503 1_555
Li4 O22 1.978966 1_555
Li4 O19 2.045505 1_455
Li4 O0 2.236207 1_555
Li5 O14 1.945503 1_555
Li5 O21 1.978966 1_555
Li5 O23 2.045505 1_545
Li5 O3 2.236207 1_555
Mn0 O10 2.040566 1_554
Mn0 O7 2.040566 1_545
Mn0 O5 2.040566 1_455
Mn0 O12 2.160921 1_545
Mn0 O14 2.160921 1_455
Mn0 O17 2.160921 1_554
O0 P0 1.591103 1_455
O0 V2 2.078613 1_555
O1 P0 1.558793 1_555
O1 V0 2.014046 1_555
O2 P1 1.558793 1_555
O2 V0 2.014046 1_555
O3 P1 1.591103 1_545
O3 V2 2.078613 1_555
O4 P2 1.591103 1_554
O4 V2 2.078614 1_555
O5 P0 1.491336 1_555
O6 P1 1.569072 1_555
O6 V1 2.082071 1_554
O7 P1 1.491336 1_555
O8 P2 1.558793 1_555
O8 V0 2.014046 1_555
O9 P2 1.569072 1_555
O9 V1 2.082071 1_455
O10 P2 1.491336 1_555
O11 P0 1.569072 1_555
O11 V1 2.082071 1_545
O12 P5 1.527266 1_555
O13 P3 1.541148 1_555
O13 V1 1.955864 1_554
O14 P3 1.527266 1_555
O15 P3 1.553628 1_555
O15 V2 2.049187 1_555
O16 P4 1.541148 1_555
O16 V1 1.955864 1_545
O17 P4 1.527266 1_555
O18 P5 1.541148 1_555
O18 V1 1.955864 1_455
O19 P3 1.583365 1_556
O19 V0 2.038540 1_555
O20 P4 1.583365 1_565
O20 V0 2.038540 1_555
O21 P4 1.553628 1_555
O21 V2 2.049187 1_555
O22 P5 1.553628 1_555
O22 V2 2.049187 1_555
O23 P5 1.583365 1_655
O23 V0 2.038540 1_555
