# generated using pymatgen
data_Ta2CrNO5
_symmetry_space_group_name_H-M   'P 1'
_cell_length_a   4.77220095
_cell_length_b   10.37525613
_cell_length_c   9.54438789
_cell_angle_alpha   62.61570584
_cell_angle_beta   89.72295152
_cell_angle_gamma   89.87258854
_symmetry_Int_Tables_number   1
_chemical_formula_structural   Ta2CrNO5
_chemical_formula_sum   'Ta8 Cr4 N4 O20'
_cell_volume   419.60910967
_cell_formula_units_Z   4
loop_
 _symmetry_equiv_pos_site_id
 _symmetry_equiv_pos_as_xyz
  1  'x, y, z'
loop_
 _atom_site_type_symbol
 _atom_site_label
 _atom_site_symmetry_multiplicity
 _atom_site_fract_x
 _atom_site_fract_y
 _atom_site_fract_z
 _atom_site_occupancy
  Ta  Ta0  1  0.99736400  0.32642500  0.33547000  1
  Ta  Ta1  1  0.99736600  0.32642500  0.83546900  1
  Ta  Ta2  1  0.99736200  0.67357600  0.16189500  1
  Ta  Ta3  1  0.99736500  0.67357600  0.66189300  1
  Ta  Ta4  1  0.51598900  0.16873500  0.17362900  1
  Ta  Ta5  1  0.51599200  0.16873600  0.67362900  1
  Ta  Ta6  1  0.51599100  0.83126700  0.84236100  1
  Ta  Ta7  1  0.51599300  0.83126500  0.34236300  1
  Cr  Cr0  1  0.49677000  0.49999400  0.99839400  1
  Cr  Cr1  1  0.00028000  0.99999900  0.00013200  1
  Cr  Cr2  1  0.00027800  0.99999800  0.50013500  1
  Cr  Cr3  1  0.49672900  0.49999300  0.49836000  1
  N  N0  1  0.80170600  0.16864600  0.31653200  1
  N  N1  1  0.80170600  0.16864600  0.81653000  1
  N  N2  1  0.80170600  0.83135600  0.98517700  1
  N  N3  1  0.80170700  0.83135500  0.48517600  1
  O  O0  1  0.19536800  0.50000100  0.84768300  1
  O  O1  1  0.19536700  0.50000100  0.34768600  1
  O  O2  1  0.80661600  0.50000100  0.15331000  1
  O  O3  1  0.80661500  0.50000100  0.65330600  1
  O  O4  1  0.19650200  0.82796400  0.68426800  1
  O  O5  1  0.19649900  0.82796300  0.18426900  1
  O  O6  1  0.19650200  0.17203600  0.01223200  1
  O  O7  1  0.19649900  0.17203700  0.51223100  1
  O  O8  1  0.30274900  0.00000000  0.34354900  1
  O  O9  1  0.30274900  0.00000000  0.84354800  1
  O  O10  1  0.68709500  0.00000000  0.15137500  1
  O  O11  1  0.68709500  0.00000100  0.65137500  1
  O  O12  1  0.30091000  0.33270200  0.18020200  1
  O  O13  1  0.30090900  0.33269900  0.68020000  1
  O  O14  1  0.30091100  0.66729800  0.01290400  1
  O  O15  1  0.30090900  0.66730200  0.51289900  1
  O  O16  1  0.69310100  0.33270300  0.98410400  1
  O  O17  1  0.69309900  0.33269900  0.48410600  1
  O  O18  1  0.69310100  0.66729900  0.81680600  1
  O  O19  1  0.69309900  0.66730200  0.31680400  1
loop_
_geom_bond_atom_site_label_1
_geom_bond_atom_site_label_2
_geom_bond_distance
_geom_bond_site_symmetry_2
Cr0 O12 2.029344 1_556
Cr0 O16 2.029372 1_555
Cr0 O14 2.029422 1_556
Cr0 O18 2.029474 1_555
Cr0 O0 2.039090 1_555
Cr0 O2 2.096148 1_556
Cr1 N2 2.053854 1_454
Cr1 N1 2.053895 1_464
Cr1 O5 2.067426 1_555
Cr1 O6 2.067432 1_565
Cr1 O9 2.072722 1_564
Cr1 O10 2.072843 1_465
Cr2 N3 2.053865 1_455
Cr2 N0 2.053900 1_465
Cr2 O4 2.067410 1_555
Cr2 O7 2.067431 1_565
Cr2 O8 2.072739 1_565
Cr2 O11 2.072823 1_465
Cr3 O17 2.029328 1_555
Cr3 O13 2.029406 1_555
Cr3 O19 2.029439 1_555
Cr3 O15 2.029510 1_555
Cr3 O1 2.038701 1_555
Cr3 O3 2.096489 1_555
N0 Ta4 1.932934 1_555
N0 Ta0 1.965932 1_555
N1 Ta5 1.932907 1_555
N1 Ta1 1.965941 1_555
N2 Ta6 1.932941 1_555
N2 Ta2 1.965941 1_556
N3 Ta7 1.932920 1_555
N3 Ta3 1.965936 1_555
O0 Ta1 2.086006 1_455
O0 Ta3 2.086008 1_455
O1 Ta0 2.086017 1_455
O1 Ta2 2.086017 1_455
O2 Ta2 2.054815 1_555
O2 Ta0 2.054829 1_555
O3 Ta3 2.054832 1_555
O3 Ta1 2.054848 1_555
O4 Ta3 1.959067 1_455
O4 Ta6 2.161622 1_555
O5 Ta2 1.959053 1_455
O5 Ta7 2.161642 1_555
O6 Ta1 1.959074 1_454
O6 Ta4 2.161629 1_555
O7 Ta0 1.959058 1_455
O7 Ta5 2.161656 1_555
O8 Ta4 2.027491 1_555
O8 Ta7 2.027501 1_545
O9 Ta6 2.027483 1_545
O9 Ta5 2.027500 1_555
O10 Ta7 2.027488 1_545
O10 Ta4 2.027496 1_555
O11 Ta6 2.027478 1_545
O11 Ta5 2.027491 1_555
O12 Ta4 2.010299 1_555
O12 Ta0 2.046863 1_455
O13 Ta5 2.010265 1_555
O13 Ta1 2.046869 1_455
O14 Ta6 2.010327 1_554
O14 Ta2 2.046877 1_455
O15 Ta7 2.010279 1_555
O15 Ta3 2.046866 1_455
O16 Ta4 2.010315 1_556
O16 Ta1 2.046890 1_555
O17 Ta5 2.010273 1_555
O17 Ta0 2.046883 1_555
O18 Ta6 2.010297 1_555
O18 Ta3 2.046890 1_555
O19 Ta7 2.010262 1_555
O19 Ta2 2.046869 1_555
