# generated using pymatgen
data_V6O5F19
_symmetry_space_group_name_H-M   'P 1'
_cell_length_a   5.38316000
_cell_length_b   5.58729705
_cell_length_c   14.94140505
_cell_angle_alpha   100.53832635
_cell_angle_beta   89.59683184
_cell_angle_gamma   93.59669883
_symmetry_Int_Tables_number   1
_chemical_formula_structural   V6O5F19
_chemical_formula_sum   'V6 O5 F19'
_cell_volume   440.94251448
_cell_formula_units_Z   1
loop_
 _symmetry_equiv_pos_site_id
 _symmetry_equiv_pos_as_xyz
  1  'x, y, z'
loop_
 _atom_site_type_symbol
 _atom_site_label
 _atom_site_symmetry_multiplicity
 _atom_site_fract_x
 _atom_site_fract_y
 _atom_site_fract_z
 _atom_site_occupancy
  V  V0  1  0.03575100  0.95581500  0.99602300  1
  V  V1  1  0.54204900  0.79792500  0.67002900  1
  V  V2  1  0.96302700  0.72314100  0.33899300  1
  V  V3  1  0.54148000  0.46501400  0.00314500  1
  V  V4  1  0.03622300  0.28977500  0.66403100  1
  V  V5  1  0.48019800  0.18309400  0.33094300  1
  O  O0  1  0.80985900  0.96821100  0.36475700  1
  O  O1  1  0.75887700  0.62283900  0.68393800  1
  O  O2  1  0.75918800  0.29210200  0.01830500  1
  O  O3  1  0.21551500  0.73292000  0.98128600  1
  O  O4  1  0.21808500  0.06830300  0.65020600  1
  F  F0  1  0.73221500  0.78004200  0.02696700  1
  F  F1  1  0.28628100  0.86334400  0.31098100  1
  F  F2  1  0.90733900  0.94823600  0.88616100  1
  F  F3  1  0.56284400  0.81689500  0.55289600  1
  F  F4  1  0.92148500  0.62441100  0.22057500  1
  F  F5  1  0.41066700  0.87796600  0.77986300  1
  F  F6  1  0.09487700  0.67384300  0.44188500  1
  F  F7  1  0.41019500  0.54534800  0.11307100  1
  F  F8  1  0.69078900  0.49074000  0.35558400  1
  F  F9  1  0.27046600  0.55035600  0.63813600  1
  F  F10  1  0.20932700  0.33200100  0.30124400  1
  F  F11  1  0.56119500  0.47762300  0.88542600  1
  F  F12  1  0.90785200  0.27593100  0.55396800  1
  F  F13  1  0.60841000  0.10718400  0.22121300  1
  F  F14  1  0.06516000  0.42022300  0.78116500  1
  F  F15  1  0.42417500  0.20840400  0.44874100  1
  F  F16  1  0.06913500  0.08146300  0.11339500  1
  F  F17  1  0.73392800  0.11292000  0.69558100  1
  F  F18  1  0.27340700  0.21393500  0.97149400  1
loop_
_geom_bond_atom_site_label_1
_geom_bond_atom_site_label_2
_geom_bond_distance
_geom_bond_site_symmetry_2
O0 V2 1.627063 1_555
O0 V5 2.312536 1_565
O1 V1 1.607364 1_555
O2 V3 1.607483 1_555
O3 V0 1.607420 1_555
O4 V4 1.608719 1_555
F0 V0 1.949948 1_654
F0 V3 1.956603 1_555
F1 V2 1.937916 1_455
F1 V5 1.986419 1_565
F2 V0 1.777922 1_655
F3 V1 1.774918 1_555
F4 V2 1.765762 1_555
F5 V1 1.774323 1_555
F6 V2 1.771403 1_455
F7 V3 1.775492 1_555
F8 V2 1.941418 1_555
F8 V5 1.976170 1_555
F9 V1 1.947505 1_555
F9 V4 1.956618 1_555
F10 V5 1.819794 1_555
F11 V3 1.775295 1_556
F12 V4 1.775006 1_655
F13 V5 1.763722 1_555
F14 V4 1.772427 1_555
F15 V5 1.765113 1_555
F16 V0 1.771690 1_544
F17 V4 1.950538 1_655
F17 V1 1.960064 1_545
F18 V3 1.946036 1_556
F18 V0 1.950949 1_545
