# generated using pymatgen
data_Fe3O4
_symmetry_space_group_name_H-M   'P 1'
_cell_length_a   6.01688600
_cell_length_b   6.10362292
_cell_length_c   8.52436649
_cell_angle_alpha   89.55849221
_cell_angle_beta   90.00000000
_cell_angle_gamma   90.00000000
_symmetry_Int_Tables_number   1
_chemical_formula_structural   Fe3O4
_chemical_formula_sum   'Fe12 O16'
_cell_volume   313.04638833
_cell_formula_units_Z   4
loop_
 _symmetry_equiv_pos_site_id
 _symmetry_equiv_pos_as_xyz
  1  'x, y, z'
loop_
 _atom_site_type_symbol
 _atom_site_label
 _atom_site_symmetry_multiplicity
 _atom_site_fract_x
 _atom_site_fract_y
 _atom_site_fract_z
 _atom_site_occupancy
  Fe  Fe0  1  0.00000000  0.00000000  0.50000000  1
  Fe  Fe1  1  0.00000000  0.50000000  0.50000000  1
  Fe  Fe2  1  0.50000000  0.00000000  0.00000000  1
  Fe  Fe3  1  0.50000000  0.50000000  0.00000000  1
  Fe  Fe4  1  0.00000000  0.24534200  0.87264400  1
  Fe  Fe5  1  0.00000000  0.75465800  0.12735700  1
  Fe  Fe6  1  0.50000000  0.25510700  0.62426400  1
  Fe  Fe7  1  0.50000000  0.74489300  0.37573600  1
  Fe  Fe8  1  0.74701300  0.75001900  0.75149600  1
  Fe  Fe9  1  0.74701300  0.24998200  0.24850400  1
  Fe  Fe10  1  0.25298700  0.24998200  0.24850400  1
  Fe  Fe11  1  0.25298700  0.75001900  0.75149600  1
  O  O0  1  0.76007000  0.73826800  0.50665400  1
  O  O1  1  0.76007000  0.26173200  0.49334600  1
  O  O2  1  0.23993000  0.26173200  0.49334600  1
  O  O3  1  0.23993000  0.73826800  0.50665400  1
  O  O4  1  0.00000000  0.49175500  0.25753900  1
  O  O5  1  0.00000000  0.50824500  0.74246100  1
  O  O6  1  0.00000000  0.98828500  0.74606200  1
  O  O7  1  0.00000000  0.01171500  0.25393800  1
  O  O8  1  0.74193400  0.76088500  0.99170000  1
  O  O9  1  0.74193400  0.23911500  0.00830000  1
  O  O10  1  0.25806600  0.23911500  0.00830000  1
  O  O11  1  0.25806600  0.76088500  0.99170000  1
  O  O12  1  0.50000000  0.49193900  0.24383200  1
  O  O13  1  0.50000000  0.50806100  0.75616800  1
  O  O14  1  0.50000000  0.99590000  0.75955600  1
  O  O15  1  0.50000000  0.00410000  0.24044400  1
loop_
_geom_bond_atom_site_label_1
_geom_bond_atom_site_label_2
_geom_bond_distance
_geom_bond_site_symmetry_2
Fe0 O7 2.098190 1_555
Fe0 O6 2.098190 1_545
Fe0 O1 2.153588 1_455
Fe0 O2 2.153588 1_555
Fe0 O0 2.153588 1_445
Fe0 O3 2.153588 1_545
Fe1 O3 2.050254 1_555
Fe1 O0 2.050254 1_455
Fe1 O2 2.050254 1_555
Fe1 O1 2.050254 1_455
Fe1 O5 2.067827 1_555
Fe1 O4 2.067827 1_555
Fe2 O14 2.049978 1_544
Fe2 O15 2.049978 1_555
Fe2 O9 2.062929 1_555
Fe2 O8 2.062929 1_544
Fe2 O10 2.062929 1_555
Fe2 O11 2.062929 1_544
Fe3 O13 2.078717 1_554
Fe3 O12 2.078717 1_555
Fe3 O8 2.158207 1_554
Fe3 O9 2.158207 1_555
Fe3 O11 2.158207 1_554
Fe3 O10 2.158207 1_555
Fe4 O6 1.911045 1_545
Fe4 O10 1.936241 1_556
Fe4 O9 1.936241 1_456
Fe4 O5 1.943962 1_555
Fe5 O7 1.911041 1_565
Fe5 O11 1.936246 1_554
Fe5 O8 1.936246 1_454
Fe5 O4 1.943957 1_555
Fe6 O13 1.916967 1_555
Fe6 O2 1.922242 1_555
Fe6 O1 1.922242 1_555
Fe6 O14 1.950635 1_545
Fe7 O12 1.916967 1_555
Fe7 O3 1.922242 1_555
Fe7 O0 1.922242 1_555
Fe7 O15 1.950635 1_565
Fe8 O8 2.049399 1_555
Fe8 O0 2.090384 1_555
Fe8 O13 2.095379 1_555
Fe8 O6 2.105500 1_655
Fe8 O14 2.113656 1_555
Fe8 O5 2.121895 1_655
Fe9 O9 2.049400 1_555
Fe9 O1 2.090384 1_555
Fe9 O12 2.095375 1_555
Fe9 O7 2.105504 1_655
Fe9 O15 2.113660 1_555
Fe9 O4 2.121891 1_655
Fe10 O10 2.049400 1_555
Fe10 O2 2.090384 1_555
Fe10 O12 2.095375 1_555
Fe10 O7 2.105504 1_555
Fe10 O15 2.113660 1_555
Fe10 O4 2.121891 1_555
Fe11 O11 2.049399 1_555
Fe11 O3 2.090384 1_555
Fe11 O13 2.095379 1_555
Fe11 O6 2.105500 1_555
Fe11 O14 2.113656 1_555
Fe11 O5 2.121895 1_555
