# generated using pymatgen
data_LiFeP2O7
_symmetry_space_group_name_H-M   'P 1'
_cell_length_a   9.69259600
_cell_length_b   9.74538908
_cell_length_c   11.21361600
_cell_angle_alpha   90.07755802
_cell_angle_beta   101.65772335
_cell_angle_gamma   90.08242740
_symmetry_Int_Tables_number   1
_chemical_formula_structural   LiFeP2O7
_chemical_formula_sum   'Li8 Fe8 P16 O56'
_cell_volume   1037.36519618
_cell_formula_units_Z   8
loop_
 _symmetry_equiv_pos_site_id
 _symmetry_equiv_pos_as_xyz
  1  'x, y, z'
loop_
 _atom_site_type_symbol
 _atom_site_label
 _atom_site_symmetry_multiplicity
 _atom_site_fract_x
 _atom_site_fract_y
 _atom_site_fract_z
 _atom_site_occupancy
  Li  Li0  1  0.83597900  0.42971000  0.46701100  1
  Li  Li1  1  0.58255100  0.59725500  0.02031200  1
  Li  Li2  1  0.66077800  0.92357800  0.53391700  1
  Li  Li3  1  0.37886500  0.04515800  0.49838200  1
  Li  Li4  1  0.34582600  0.12515100  0.96430800  1
  Li  Li5  1  0.08055200  0.90288500  0.02335200  1
  Li  Li6  1  0.17614900  0.59297100  0.54516600  1
  Li  Li7  1  0.11831500  0.28795100  0.45382100  1
  Fe  Fe0  1  0.79631100  0.91721400  0.32524900  1
  Fe  Fe1  1  0.75501100  0.21079200  0.17121900  1
  Fe  Fe2  1  0.76194800  0.72189600  0.82771400  1
  Fe  Fe3  1  0.70036200  0.42042700  0.67829300  1
  Fe  Fe4  1  0.29633900  0.58574100  0.31980200  1
  Fe  Fe5  1  0.25164800  0.28871300  0.17410000  1
  Fe  Fe6  1  0.26110000  0.77201400  0.83070100  1
  Fe  Fe7  1  0.19752800  0.07364500  0.67741500  1
  P  P0  1  0.98130700  0.44704600  0.24591600  1
  P  P1  1  0.88595200  0.71280500  0.11656500  1
  P  P2  1  0.93151100  0.91861200  0.75539500  1
  P  P3  1  0.87520400  0.14648100  0.57963300  1
  P  P4  1  0.62127000  0.64241300  0.42176900  1
  P  P5  1  0.56876500  0.42228500  0.23367200  1
  P  P6  1  0.48270200  0.05271300  0.24863700  1
  P  P7  1  0.61292700  0.21166100  0.88602300  1
  P  P8  1  0.38860000  0.78905400  0.11559000  1
  P  P9  1  0.51998400  0.95129700  0.74970500  1
  P  P10  1  0.43047200  0.58290600  0.75505000  1
  P  P11  1  0.37652800  0.35345200  0.58511200  1
  P  P12  1  0.12295800  0.85737900  0.42234900  1
  P  P13  1  0.07066400  0.07758400  0.23754700  1
  P  P14  1  0.10068000  0.28317200  0.88632500  1
  P  P15  1  0.01944100  0.54723600  0.74875800  1
  O  O0  1  0.97929600  0.42047300  0.37844500  1
  O  O1  1  0.96816200  0.84918000  0.42992700  1
  O  O2  1  0.91619400  0.08315100  0.26019600  1
  O  O3  1  0.89704500  0.58561400  0.21171900  1
  O  O4  1  0.90675500  0.33772400  0.15803700  1
  O  O5  1  0.81186600  0.82146400  0.18080700  1
  O  O6  1  0.78288200  0.66394800  0.99754800  1
  O  O7  1  0.95599900  0.25168100  0.89836100  1
  O  O8  1  0.87836900  0.06856700  0.70738300  1
  O  O9  1  0.91900400  0.89830900  0.88702500  1
  O  O10  1  0.86525800  0.54124700  0.77413400  1
  O  O11  1  0.81651400  0.29023800  0.59478100  1
  O  O12  1  0.82471200  0.81530100  0.68325500  1
  O  O13  1  0.78783500  0.05803300  0.48051600  1
  O  O14  1  0.70982100  0.55850000  0.52367900  1
  O  O15  1  0.67010100  0.30953700  0.29759900  1
  O  O16  1  0.67652600  0.78874800  0.40658700  1
  O  O17  1  0.63675700  0.03779200  0.22632300  1
  O  O18  1  0.63072300  0.56495600  0.29633000  1
  O  O19  1  0.57725600  0.42728000  0.10198500  1
  O  O20  1  0.52996900  0.75330500  0.09567700  1
  O  O21  1  0.71153300  0.16515900  0.00532100  1
  O  O22  1  0.67736400  0.32796400  0.82289100  1
  O  O23  1  0.61146600  0.08489100  0.79109300  1
  O  O24  1  0.58585000  0.58567300  0.73832300  1
  O  O25  1  0.59754000  0.83564700  0.82784300  1
  O  O26  1  0.52873500  0.34694000  0.57188900  1
  O  O27  1  0.47556800  0.08091500  0.37793700  1
  O  O28  1  0.51175800  0.94098500  0.61460500  1
  O  O29  1  0.46522400  0.64808300  0.42911700  1
  O  O30  1  0.40140900  0.15409100  0.15252100  1
  O  O31  1  0.41490500  0.41254200  0.26077800  1
  O  O32  1  0.40122600  0.91030300  0.21493400  1
  O  O33  1  0.31158900  0.67705700  0.17397500  1
  O  O34  1  0.28597000  0.84662900  0.99814400  1
  O  O35  1  0.46552700  0.23465000  0.89984400  1
  O  O36  1  0.41250600  0.60901700  0.88562200  1
  O  O37  1  0.37230500  0.43264600  0.71187400  1
  O  O38  1  0.36786900  0.96258200  0.78102000  1
  O  O39  1  0.31436400  0.20841000  0.59710700  1
  O  O40  1  0.32589400  0.68674200  0.68044100  1
  O  O41  1  0.27743200  0.43342600  0.48495200  1
  O  O42  1  0.21099700  0.94220200  0.52589300  1
  O  O43  1  0.16304600  0.19594200  0.30558900  1
  O  O44  1  0.18159800  0.71315600  0.40627500  1
  O  O45  1  0.13707200  0.46343800  0.22657600  1
  O  O46  1  0.09124100  0.07679700  0.10851200  1
  O  O47  1  0.13438800  0.93649900  0.29853400  1
  O  O48  1  0.02925500  0.74811500  0.10018700  1
  O  O49  1  0.20685800  0.32423300  0.00593400  1
  O  O50  1  0.18048000  0.16866600  0.82735500  1
  O  O51  1  0.09850400  0.66011400  0.83310800  1
  O  O52  1  0.10417700  0.41007800  0.79397700  1
  O  O53  1  0.08712800  0.91147000  0.73544700  1
  O  O54  1  0.03119100  0.16119900  0.56719500  1
  O  O55  1  0.02206600  0.55920200  0.61616800  1
loop_
_geom_bond_atom_site_label_1
_geom_bond_atom_site_label_2
_geom_bond_distance
_geom_bond_site_symmetry_2
Li0 O0 1.865939 1_555
Li0 O14 1.946950 1_555
Li0 O11 2.012370 1_555
Li0 O15 2.513898 1_555
Li0 O55 2.532162 1_655
Li1 O20 1.859978 1_555
Li1 O19 1.899519 1_555
Li1 O36 2.001453 1_554
Li1 O6 2.110694 1_554
Li2 O28 1.860687 1_555
Li2 O16 1.967763 1_555
Li2 O13 1.971710 1_565
Li2 O12 2.318796 1_555
Li3 O27 1.826497 1_555
Li3 O28 1.928017 1_545
Li3 O42 1.987020 1_545
Li3 O39 2.103658 1_555
Li4 O35 1.828888 1_555
Li4 O50 2.028749 1_555
Li4 O30 2.088693 1_556
Li4 O49 2.460783 1_556
Li5 O48 1.854453 1_555
Li5 O46 1.936564 1_565
Li5 O9 1.955252 1_454
Li5 O34 2.138890 1_554
Li6 O55 1.858088 1_555
Li6 O44 1.959166 1_555
Li6 O41 2.026466 1_555
Li6 O40 2.084568 1_555
Li7 O0 1.935373 1_455
Li7 O43 2.010789 1_555
Li7 O41 2.070052 1_555
Li7 O54 2.071316 1_555
Li7 O39 2.359471 1_555
Fe0 O5 1.900508 1_555
Fe0 O1 1.951171 1_555
Fe0 O16 2.043073 1_555
Fe0 O17 2.078098 1_565
Fe0 O2 2.199489 1_565
Fe0 O13 2.230059 1_565
Fe1 O21 1.875242 1_555
Fe1 O4 1.948943 1_555
Fe1 O15 2.020319 1_555
Fe1 O2 2.088674 1_555
Fe1 O17 2.195788 1_555
Fe2 O25 1.942746 1_555
Fe2 O6 1.958087 1_555
Fe2 O12 2.055098 1_555
Fe2 O10 2.169877 1_555
Fe2 O24 2.231354 1_555
Fe2 O9 2.301215 1_555
Fe3 O22 1.907944 1_555
Fe3 O26 1.973813 1_555
Fe3 O11 2.044776 1_555
Fe3 O10 2.095912 1_555
Fe3 O24 2.140689 1_555
Fe3 O14 2.212505 1_555
Fe4 O33 1.894483 1_555
Fe4 O29 1.932743 1_555
Fe4 O44 2.038503 1_555
Fe4 O45 2.058071 1_555
Fe4 O31 2.217587 1_555
Fe4 O41 2.410475 1_555
Fe5 O49 1.880345 1_555
Fe5 O30 2.008329 1_555
Fe5 O43 2.059622 1_555
Fe5 O31 2.067538 1_555
Fe5 O45 2.178484 1_555
Fe5 O46 2.597654 1_555
Fe6 O51 1.919888 1_555
Fe6 O34 1.981232 1_555
Fe6 O40 2.085528 1_555
Fe6 O36 2.168003 1_555
Fe6 O38 2.249583 1_555
Fe6 O53 2.261413 1_555
Fe7 O50 1.954563 1_555
Fe7 O54 2.014067 1_555
Fe7 O39 2.056532 1_555
Fe7 O53 2.084631 1_545
Fe7 O38 2.116731 1_545
Fe7 O42 2.151538 1_545
O0 P0 1.512864 1_555
O1 P12 1.521818 1_655
O2 P13 1.569386 1_655
O3 P0 1.586084 1_555
O3 P1 1.626074 1_555
O4 P0 1.528223 1_555
O5 P1 1.537888 1_555
O6 P1 1.569715 1_556
O7 P14 1.467755 1_655
O8 P2 1.607171 1_545
O8 P3 1.617066 1_555
O9 P2 1.518419 1_555
O10 P15 1.577771 1_655
O11 P3 1.534882 1_555
O12 P2 1.547900 1_555
O13 P3 1.519992 1_555
O14 P4 1.522994 1_555
O15 P5 1.551324 1_555
O16 P4 1.544302 1_555
O17 P6 1.570000 1_555
O18 P4 1.614371 1_555
O18 P5 1.616143 1_555
O19 P5 1.496344 1_555
O20 P8 1.474309 1_555
O21 P7 1.547455 1_554
O22 P7 1.534507 1_555
O23 P9 1.589143 1_545
O23 P7 1.627866 1_555
O24 P10 1.555008 1_555
O25 P9 1.530360 1_555
O26 P11 1.513643 1_555
O27 P6 1.490664 1_555
O28 P9 1.504097 1_555
O29 P4 1.532339 1_555
O30 P6 1.555801 1_555
O31 P5 1.583745 1_555
O32 P6 1.602309 1_565
O32 P8 1.610321 1_555
O33 P8 1.540834 1_555
O34 P8 1.585242 1_556
O35 P7 1.485151 1_555
O36 P10 1.530055 1_555
O37 P10 1.606847 1_555
O37 P11 1.624345 1_555
O38 P9 1.587080 1_555
O39 P11 1.552388 1_555
O40 P10 1.553680 1_555
O41 P11 1.536235 1_555
O42 P12 1.534473 1_555
O43 P13 1.559783 1_555
O44 P12 1.540782 1_555
O45 P0 1.575967 1_455
O46 P13 1.500033 1_555
O47 P13 1.604339 1_565
O47 P12 1.612237 1_555
O48 P1 1.477596 1_455
O49 P14 1.567716 1_554
O50 P14 1.577327 1_555
O51 P15 1.547203 1_555
O52 P15 1.598442 1_555
O52 P14 1.618827 1_555
O53 P2 1.570529 1_455
O54 P3 1.552603 1_455
O55 P15 1.496866 1_555
