# generated using pymatgen
data_Fe3Co3(SbO8)2
_symmetry_space_group_name_H-M   'P 1'
_cell_length_a   5.87649629
_cell_length_b   5.87649629
_cell_length_c   9.26903854
_cell_angle_alpha   88.11010850
_cell_angle_beta   88.11010850
_cell_angle_gamma   59.76911014
_symmetry_Int_Tables_number   1
_chemical_formula_structural   Fe3Co3(SbO8)2
_chemical_formula_sum   'Fe3 Co3 Sb2 O16'
_cell_volume   276.35843426
_cell_formula_units_Z   1
loop_
 _symmetry_equiv_pos_site_id
 _symmetry_equiv_pos_as_xyz
  1  'x, y, z'
loop_
 _atom_site_type_symbol
 _atom_site_label
 _atom_site_symmetry_multiplicity
 _atom_site_fract_x
 _atom_site_fract_y
 _atom_site_fract_z
 _atom_site_occupancy
  Fe  Fe0  1  0.16577000  0.16577000  0.21292300  1
  Fe  Fe1  1  0.33163200  0.82791800  0.70926200  1
  Fe  Fe2  1  0.82791800  0.33163200  0.70926200  1
  Co  Co0  1  0.16925700  0.65856400  0.21371500  1
  Co  Co1  1  0.65856400  0.16925700  0.21371500  1
  Co  Co2  1  0.82805800  0.82805800  0.71761700  1
  Sb  Sb0  1  0.33511200  0.33511200  0.48915100  1
  Sb  Sb1  1  0.66876300  0.66876300  0.99170200  1
  O  O0  1  0.16419500  0.66771000  0.59926800  1
  O  O1  1  0.48258500  0.48258500  0.32514800  1
  O  O2  1  0.34375500  0.34375500  0.11072900  1
  O  O3  1  0.98845400  0.98845400  0.30655200  1
  O  O4  1  0.98793800  0.98793800  0.80584300  1
  O  O5  1  0.66771000  0.16419500  0.59926800  1
  O  O6  1  0.03731300  0.49797700  0.33981800  1
  O  O7  1  0.49797700  0.03731300  0.33981800  1
  O  O8  1  0.83905400  0.83905400  0.10673600  1
  O  O9  1  0.16604000  0.16604000  0.59822700  1
  O  O10  1  0.53173000  0.96748900  0.83925600  1
  O  O11  1  0.96748900  0.53173000  0.83925600  1
  O  O12  1  0.67877400  0.67877400  0.60802800  1
  O  O13  1  0.32664800  0.83695600  0.09967300  1
  O  O14  1  0.52124700  0.52124700  0.84536300  1
  O  O15  1  0.83695600  0.32664800  0.09967300  1
loop_
_geom_bond_atom_site_label_1
_geom_bond_atom_site_label_2
_geom_bond_distance
_geom_bond_site_symmetry_2
Fe0 O3 1.974517 1_445
Fe0 O13 1.989521 1_545
Fe0 O15 1.989521 1_455
Fe0 O2 2.013975 1_555
Fe0 O6 2.091254 1_555
Fe0 O7 2.091254 1_555
Fe1 O4 1.946460 1_455
Fe1 O12 1.984376 1_555
Fe1 O9 1.984536 1_565
Fe1 O0 1.989028 1_555
Fe1 O14 2.000368 1_555
Fe1 O10 2.153374 1_555
Fe2 O4 1.946460 1_545
Fe2 O12 1.984376 1_555
Fe2 O9 1.984536 1_655
Fe2 O5 1.989028 1_555
Fe2 O14 2.000368 1_555
Fe2 O11 2.153374 1_555
Co0 O6 1.860710 1_555
Co0 O2 1.877980 1_555
Co0 O3 1.898196 1_455
Co0 O1 1.914194 1_555
Co0 O8 1.964331 1_455
Co0 O13 1.977520 1_555
Co1 O7 1.860710 1_555
Co1 O2 1.877980 1_555
Co1 O3 1.898196 1_545
Co1 O1 1.914194 1_555
Co1 O8 1.964331 1_545
Co1 O15 1.977520 1_555
Co2 O4 1.850521 1_555
Co2 O12 1.861055 1_555
Co2 O10 1.862687 1_555
Co2 O11 1.862687 1_555
Co2 O0 2.010992 1_655
Co2 O5 2.010992 1_565
O0 Sb0 1.989443 1_555
O1 Sb0 2.096526 1_555
O5 Sb0 1.989443 1_555
O6 Sb0 2.068889 1_555
O7 Sb0 2.068889 1_555
O8 Sb1 2.070972 1_554
O9 Sb0 1.964175 1_555
O10 Sb1 2.052978 1_555
O11 Sb1 2.052978 1_555
O13 Sb1 1.987947 1_554
O14 Sb1 2.062683 1_555
O15 Sb1 1.987947 1_554
