# generated using pymatgen
data_Li4TiCr5O12
_symmetry_space_group_name_H-M   'P 1'
_cell_length_a   8.90131800
_cell_length_b   8.91148359
_cell_length_c   10.26040097
_cell_angle_alpha   90.41271252
_cell_angle_beta   89.82330555
_cell_angle_gamma   119.94349073
_symmetry_Int_Tables_number   1
_chemical_formula_structural   Li4TiCr5O12
_chemical_formula_sum   'Li12 Ti3 Cr15 O36'
_cell_volume   705.23680153
_cell_formula_units_Z   3
loop_
 _symmetry_equiv_pos_site_id
 _symmetry_equiv_pos_as_xyz
  1  'x, y, z'
loop_
 _atom_site_type_symbol
 _atom_site_label
 _atom_site_symmetry_multiplicity
 _atom_site_fract_x
 _atom_site_fract_y
 _atom_site_fract_z
 _atom_site_occupancy
  Li  Li0  1  0.94224400  0.56342800  0.27280500  1
  Li  Li1  1  0.44259800  0.56058400  0.23002100  1
  Li  Li2  1  0.55740200  0.43941600  0.76997900  1
  Li  Li3  1  0.05775600  0.43657200  0.72719500  1
  Li  Li4  1  0.26571400  0.20630300  0.27753500  1
  Li  Li5  1  0.76292100  0.20443200  0.22550900  1
  Li  Li6  1  0.21536700  0.11916600  0.77062200  1
  Li  Li7  1  0.71349800  0.11599900  0.72631600  1
  Li  Li8  1  0.28650200  0.88400100  0.27368400  1
  Li  Li9  1  0.78463300  0.88083400  0.22937800  1
  Li  Li10  1  0.23707900  0.79556800  0.77449100  1
  Li  Li11  1  0.73428600  0.79369700  0.72246500  1
  Ti  Ti0  1  0.66175200  0.33461700  0.00202700  1
  Ti  Ti1  1  0.00000000  0.00000000  0.00000000  1
  Ti  Ti2  1  0.33824800  0.66538300  0.99797300  1
  Cr  Cr0  1  0.50138000  0.33288600  0.49670500  1
  Cr  Cr1  1  0.16514600  0.33335200  0.49887700  1
  Cr  Cr2  1  0.83382800  0.33522800  0.50020200  1
  Cr  Cr3  1  0.00080300  0.33284100  0.00233400  1
  Cr  Cr4  1  0.33233700  0.33422600  0.00007100  1
  Cr  Cr5  1  0.83524500  0.00266800  0.49840700  1
  Cr  Cr6  1  0.50000000  0.00000000  0.50000000  1
  Cr  Cr7  1  0.16475500  0.99733200  0.50159300  1
  Cr  Cr8  1  0.33543200  0.00202600  0.00290900  1
  Cr  Cr9  1  0.66456800  0.99797400  0.99709100  1
  Cr  Cr10  1  0.16617200  0.66477200  0.49979800  1
  Cr  Cr11  1  0.83485400  0.66664800  0.50112300  1
  Cr  Cr12  1  0.49862000  0.66711400  0.50329500  1
  Cr  Cr13  1  0.99919700  0.66715900  0.99766600  1
  Cr  Cr14  1  0.66766300  0.66577400  0.99992900  1
  O  O0  1  0.95207400  0.55403900  0.60034600  1
  O  O1  1  0.61374300  0.55967200  0.60324300  1
  O  O2  1  0.11598100  0.55869200  0.89610900  1
  O  O3  1  0.44672200  0.55602600  0.89693500  1
  O  O4  1  0.76995700  0.54715000  0.89856200  1
  O  O5  1  0.26775000  0.55565900  0.59934300  1
  O  O6  1  0.73225000  0.44434100  0.40065700  1
  O  O7  1  0.23004300  0.45285000  0.10143800  1
  O  O8  1  0.55327800  0.44397400  0.10306500  1
  O  O9  1  0.88401900  0.44130800  0.10389100  1
  O  O10  1  0.04792600  0.44596100  0.39965400  1
  O  O11  1  0.38625700  0.44032800  0.39675700  1
  O  O12  1  0.27854600  0.22158400  0.59882900  1
  O  O13  1  0.93868400  0.22755300  0.60315400  1
  O  O14  1  0.44550900  0.22626600  0.89476700  1
  O  O15  1  0.77730900  0.22298100  0.90003000  1
  O  O16  1  0.10894700  0.21597200  0.89919500  1
  O  O17  1  0.61947000  0.22566500  0.59763500  1
  O  O18  1  0.05799200  0.10966200  0.40291000  1
  O  O19  1  0.56177500  0.11668500  0.10134900  1
  O  O20  1  0.88364100  0.10505900  0.10449200  1
  O  O21  1  0.21869600  0.11129800  0.10242400  1
  O  O22  1  0.72681000  0.11597300  0.39968600  1
  O  O23  1  0.38012100  0.10437500  0.39618100  1
  O  O24  1  0.27319000  0.88402700  0.60031400  1
  O  O25  1  0.61987900  0.89562500  0.60381900  1
  O  O26  1  0.78130400  0.88870200  0.89757600  1
  O  O27  1  0.11635900  0.89494100  0.89550800  1
  O  O28  1  0.43822500  0.88331500  0.89865100  1
  O  O29  1  0.94200800  0.89033800  0.59709000  1
  O  O30  1  0.38053000  0.77433500  0.40236500  1
  O  O31  1  0.89105300  0.78402800  0.10080500  1
  O  O32  1  0.22269100  0.77701900  0.09997000  1
  O  O33  1  0.55449100  0.77373400  0.10523300  1
  O  O34  1  0.06131600  0.77244700  0.39684600  1
  O  O35  1  0.72145400  0.77841600  0.40117100  1
loop_
_geom_bond_atom_site_label_1
_geom_bond_atom_site_label_2
_geom_bond_distance
_geom_bond_site_symmetry_2
Li0 O9 1.967733 1_555
Li0 O34 2.053294 1_655
Li0 O6 2.089427 1_555
Li0 O10 2.164470 1_655
Li1 O11 1.952260 1_555
Li1 O33 2.092350 1_555
Li1 O7 2.103768 1_555
Li1 O8 2.177596 1_555
Li2 O1 1.952260 1_555
Li2 O14 2.092350 1_555
Li2 O4 2.103768 1_555
Li2 O3 2.177596 1_555
Li3 O2 1.967733 1_555
Li3 O13 2.053294 1_455
Li3 O5 2.089427 1_555
Li3 O0 2.164470 1_455
Li4 O21 1.936262 1_555
Li4 O18 2.055951 1_555
Li4 O23 2.071501 1_555
Li4 O11 2.175885 1_555
Li5 O22 1.918946 1_555
Li5 O19 2.010514 1_555
Li5 O20 2.099187 1_555
Li5 O9 2.221069 1_555
Li6 O12 1.939312 1_555
Li6 O16 2.042935 1_555
Li6 O27 2.164087 1_545
Li6 O14 2.185585 1_555
Li7 O15 1.962033 1_555
Li7 O17 2.059326 1_555
Li7 O25 2.113777 1_545
Li7 O13 2.148542 1_555
Li8 O32 1.962033 1_555
Li8 O30 2.059326 1_555
Li8 O23 2.113777 1_565
Li8 O34 2.148542 1_555
Li9 O35 1.939312 1_555
Li9 O31 2.042935 1_555
Li9 O20 2.164087 1_565
Li9 O33 2.185585 1_555
Li10 O24 1.918946 1_555
Li10 O28 2.010514 1_555
Li10 O27 2.099187 1_555
Li10 O2 2.221069 1_555
Li11 O26 1.936262 1_555
Li11 O29 2.055951 1_555
Li11 O25 2.071501 1_555
Li11 O1 2.175885 1_555
Cr0 O11 2.004651 1_555
Cr0 O12 2.013510 1_555
Cr0 O17 2.028292 1_555
Cr0 O6 2.035898 1_555
Cr0 O23 2.039126 1_555
Cr0 O1 2.058331 1_555
Cr1 O18 1.983033 1_555
Cr1 O5 1.997889 1_555
Cr1 O11 2.002246 1_555
Cr1 O12 2.021752 1_555
Cr1 O10 2.049090 1_555
Cr1 O13 2.049651 1_455
Cr2 O6 1.924553 1_555
Cr2 O17 1.932855 1_555
Cr2 O10 1.948116 1_655
Cr2 O13 1.955111 1_555
Cr2 O0 1.973524 1_555
Cr2 O22 1.976793 1_555
Cr3 O15 2.017854 1_454
Cr3 O9 2.020556 1_455
Cr3 O16 2.027284 1_554
Cr3 O7 2.039633 1_555
Cr3 O20 2.053604 1_455
Cr3 O2 2.062674 1_554
Cr4 O7 1.991876 1_555
Cr4 O8 2.004699 1_555
Cr4 O16 2.010197 1_554
Cr4 O14 2.013369 1_554
Cr4 O3 2.019345 1_554
Cr4 O21 2.022411 1_555
Cr5 O29 1.974997 1_545
Cr5 O18 1.978553 1_655
Cr5 O25 1.982750 1_545
Cr5 O22 1.992701 1_555
Cr5 O35 1.992932 1_545
Cr5 O13 2.037671 1_555
Cr6 O17 2.005301 1_555
Cr6 O30 2.005301 1_545
Cr6 O24 2.030523 1_545
Cr6 O22 2.030523 1_555
Cr6 O25 2.037311 1_545
Cr6 O23 2.037311 1_555
Cr7 O18 1.974997 1_565
Cr7 O29 1.978553 1_455
Cr7 O23 1.982750 1_565
Cr7 O24 1.992701 1_555
Cr7 O12 1.992932 1_565
Cr7 O34 2.037671 1_555
Cr8 O32 2.008305 1_545
Cr8 O28 2.011128 1_544
Cr8 O21 2.014896 1_555
Cr8 O19 2.016431 1_555
Cr8 O27 2.016942 1_544
Cr8 O14 2.062780 1_554
Cr9 O15 2.008305 1_565
Cr9 O19 2.011128 1_566
Cr9 O26 2.014896 1_555
Cr9 O28 2.016431 1_555
Cr9 O20 2.016942 1_566
Cr9 O33 2.062780 1_556
Cr10 O5 1.924553 1_555
Cr10 O30 1.932855 1_555
Cr10 O0 1.948116 1_455
Cr10 O34 1.955111 1_555
Cr10 O10 1.973524 1_555
Cr10 O24 1.976793 1_555
Cr11 O29 1.983033 1_555
Cr11 O6 1.997889 1_555
Cr11 O1 2.002246 1_555
Cr11 O35 2.021752 1_555
Cr11 O0 2.049090 1_555
Cr11 O34 2.049651 1_655
Cr12 O1 2.004651 1_555
Cr12 O35 2.013510 1_555
Cr12 O30 2.028292 1_555
Cr12 O5 2.035898 1_555
Cr12 O25 2.039126 1_555
Cr12 O11 2.058331 1_555
Cr13 O32 2.017854 1_656
Cr13 O2 2.020556 1_655
Cr13 O31 2.027284 1_556
Cr13 O4 2.039633 1_555
Cr13 O27 2.053604 1_655
Cr13 O9 2.062674 1_556
Cr14 O4 1.991876 1_555
Cr14 O3 2.004699 1_555
Cr14 O31 2.010197 1_556
Cr14 O33 2.013369 1_556
Cr14 O8 2.019345 1_556
Cr14 O26 2.022411 1_555
O2 Ti2 2.007799 1_555
O3 Ti2 1.968600 1_555
O4 Ti0 1.960459 1_556
O7 Ti2 1.960459 1_554
O8 Ti0 1.968600 1_555
O9 Ti0 2.007799 1_555
O14 Ti0 1.997721 1_556
O15 Ti0 2.035410 1_556
O16 Ti1 1.968163 1_556
O19 Ti0 1.974789 1_555
O20 Ti1 2.011343 1_655
O21 Ti1 1.986917 1_555
O26 Ti1 1.986917 1_666
O27 Ti1 2.011343 1_566
O28 Ti2 1.974789 1_555
O31 Ti1 1.968163 1_665
O32 Ti2 2.035410 1_554
O33 Ti2 1.997721 1_554
