# generated using pymatgen
data_TiCu3O4
_symmetry_space_group_name_H-M   'P 1'
_cell_length_a   11.55185700
_cell_length_b   3.08972300
_cell_length_c   5.90079345
_cell_angle_alpha   62.97061804
_cell_angle_beta   90.00000000
_cell_angle_gamma   90.00000000
_symmetry_Int_Tables_number   1
_chemical_formula_structural   TiCu3O4
_chemical_formula_sum   'Ti2 Cu6 O8'
_cell_volume   187.60702567
_cell_formula_units_Z   2
loop_
 _symmetry_equiv_pos_site_id
 _symmetry_equiv_pos_as_xyz
  1  'x, y, z'
loop_
 _atom_site_type_symbol
 _atom_site_label
 _atom_site_symmetry_multiplicity
 _atom_site_fract_x
 _atom_site_fract_y
 _atom_site_fract_z
 _atom_site_occupancy
  Ti  Ti0  1  0.50000000  0.00000000  0.50000000  1
  Ti  Ti1  1  0.00000000  0.00000000  0.00000000  1
  Cu  Cu0  1  0.00000000  0.00000000  0.50000000  1
  Cu  Cu1  1  0.24881300  0.69299600  0.82686900  1
  Cu  Cu2  1  0.75118700  0.30700400  0.17313100  1
  Cu  Cu3  1  0.50000000  0.00000000  0.00000000  1
  Cu  Cu4  1  0.25118700  0.69299600  0.32686900  1
  Cu  Cu5  1  0.74881300  0.30700400  0.67313100  1
  O  O0  1  0.40572900  0.75536700  0.80251900  1
  O  O1  1  0.08921500  0.64494400  0.84182400  1
  O  O2  1  0.91078500  0.35505600  0.15817600  1
  O  O3  1  0.59427100  0.24463300  0.19748100  1
  O  O4  1  0.41078500  0.64494400  0.34182400  1
  O  O5  1  0.09427100  0.75536700  0.30251900  1
  O  O6  1  0.58921500  0.35505600  0.65817600  1
  O  O7  1  0.90572900  0.24463300  0.69748100  1
loop_
_geom_bond_atom_site_label_1
_geom_bond_atom_site_label_2
_geom_bond_distance
_geom_bond_site_symmetry_2
Cu0 O7 1.978811 1_455
Cu0 O5 1.978811 1_545
Cu0 O1 2.079153 1_545
Cu0 O2 2.079153 1_455
Cu0 O7 2.349242 1_445
Cu0 O5 2.349242 1_555
Cu1 O0 1.821645 1_555
Cu1 O1 1.848507 1_555
Cu2 O3 1.821645 1_555
Cu2 O2 1.848507 1_555
Cu3 O3 1.978811 1_555
Cu3 O0 1.978811 1_544
Cu3 O6 2.079153 1_554
Cu3 O4 2.079153 1_545
Cu3 O3 2.349242 1_545
Cu3 O0 2.349242 1_554
Cu4 O5 1.821645 1_555
Cu4 O4 1.848507 1_555
Cu5 O7 1.821645 1_555
Cu5 O6 1.848507 1_555
O0 Ti0 1.928079 1_565
O1 Ti1 2.016781 1_566
O1 Ti1 2.052726 1_556
O2 Ti1 2.016781 1_655
O2 Ti1 2.052726 1_665
O3 Ti0 1.928079 1_555
O4 Ti0 2.016781 1_565
O4 Ti0 2.052726 1_555
O5 Ti1 1.928079 1_565
O6 Ti0 2.016781 1_555
O6 Ti0 2.052726 1_565
O7 Ti1 1.928079 1_656
