# generated using pymatgen
data_Y2O3
_symmetry_space_group_name_H-M   'P 1'
_cell_length_a   5.77216498
_cell_length_b   5.94577027
_cell_length_c   16.65857523
_cell_angle_alpha   90.00000000
_cell_angle_beta   90.00000000
_cell_angle_gamma   90.00000000
_symmetry_Int_Tables_number   1
_chemical_formula_structural   Y2O3
_chemical_formula_sum   'Y16 O24'
_cell_volume   571.72175102
_cell_formula_units_Z   8
loop_
 _symmetry_equiv_pos_site_id
 _symmetry_equiv_pos_as_xyz
  1  'x, y, z'
loop_
 _atom_site_type_symbol
 _atom_site_label
 _atom_site_symmetry_multiplicity
 _atom_site_fract_x
 _atom_site_fract_y
 _atom_site_fract_z
 _atom_site_occupancy
  Y  Y0  1  0.00245417  0.20823384  0.07049551  1
  Y  Y1  1  0.99464806  0.76177188  0.18248490  1
  Y  Y2  1  0.00245417  0.29176616  0.57049551  1
  Y  Y3  1  0.99464806  0.73822812  0.68248490  1
  Y  Y4  1  0.50535194  0.26177188  0.18248490  1
  Y  Y5  1  0.50535194  0.23822812  0.68248490  1
  Y  Y6  1  0.49754583  0.70823384  0.07049551  1
  Y  Y7  1  0.49754583  0.79176616  0.57049551  1
  Y  Y8  1  0.50245417  0.20823384  0.42950449  1
  Y  Y9  1  0.50245417  0.29176616  0.92950449  1
  Y  Y10  1  0.49464806  0.76177188  0.31751510  1
  Y  Y11  1  0.49464806  0.73822812  0.81751510  1
  Y  Y12  1  0.99754583  0.70823384  0.42950449  1
  Y  Y13  1  0.00535194  0.26177188  0.31751510  1
  Y  Y14  1  0.00535194  0.23822812  0.81751510  1
  Y  Y15  1  0.99754583  0.79176616  0.92950449  1
  O  O0  1  0.14542808  0.12482434  0.20055888  1
  O  O1  1  0.14542808  0.37517566  0.70055888  1
  O  O2  1  0.14195223  0.84251190  0.05278998  1
  O  O3  1  0.14195223  0.65748810  0.55278998  1
  O  O4  1  0.20695479  0.98196048  0.37501898  1
  O  O5  1  0.20695479  0.51803952  0.87501898  1
  O  O6  1  0.29304521  0.48196048  0.37501898  1
  O  O7  1  0.29304521  0.01803952  0.87501898  1
  O  O8  1  0.35804777  0.15748810  0.55278998  1
  O  O9  1  0.35804777  0.34251190  0.05278998  1
  O  O10  1  0.35457192  0.62482434  0.20055888  1
  O  O11  1  0.35457192  0.87517566  0.70055888  1
  O  O12  1  0.64542808  0.37517566  0.79944112  1
  O  O13  1  0.64542808  0.12482434  0.29944112  1
  O  O14  1  0.64195223  0.84251190  0.44721002  1
  O  O15  1  0.64195223  0.65748810  0.94721002  1
  O  O16  1  0.70695479  0.98196048  0.12498102  1
  O  O17  1  0.70695479  0.51803952  0.62498102  1
  O  O18  1  0.79304521  0.48196048  0.12498102  1
  O  O19  1  0.79304521  0.01803952  0.62498102  1
  O  O20  1  0.85804777  0.34251190  0.44721002  1
  O  O21  1  0.85804777  0.15748810  0.94721002  1
  O  O22  1  0.85457192  0.87517566  0.79944112  1
  O  O23  1  0.85457192  0.62482434  0.29944112  1
loop_
_geom_bond_atom_site_label_1
_geom_bond_atom_site_label_2
_geom_bond_distance
_geom_bond_site_symmetry_2
O0 Y4 2.251631 1_555
O0 Y13 2.261133 1_555
O0 Y1 2.346868 1_445
O0 Y0 2.370966 1_555
O1 Y5 2.251631 1_555
O1 Y14 2.261133 1_555
O1 Y3 2.346868 1_455
O1 Y2 2.370966 1_555
O2 Y6 2.222016 1_555
O2 Y15 2.236907 1_454
O2 Y0 2.337476 1_565
O2 Y1 2.370930 1_455
O3 Y7 2.222016 1_555
O3 Y12 2.236907 1_455
O3 Y2 2.337476 1_555
O3 Y3 2.370930 1_455
O4 Y12 2.221193 1_455
O4 Y13 2.244922 1_565
O4 Y10 2.321476 1_555
O4 Y8 2.354392 1_565
O5 Y15 2.221193 1_455
O5 Y14 2.244922 1_555
O5 Y11 2.321476 1_555
O5 Y9 2.354392 1_555
O6 Y8 2.221193 1_555
O6 Y10 2.244922 1_555
O6 Y13 2.321476 1_555
O6 Y12 2.354392 1_455
O7 Y9 2.221193 1_555
O7 Y11 2.244922 1_545
O7 Y14 2.321476 1_555
O7 Y15 2.354392 1_445
O8 Y2 2.222016 1_555
O8 Y8 2.236907 1_555
O8 Y7 2.337476 1_545
O8 Y5 2.370930 1_555
O9 Y0 2.222016 1_555
O9 Y9 2.236907 1_554
O9 Y6 2.337476 1_555
O9 Y4 2.370930 1_555
O10 Y1 2.251631 1_455
O10 Y10 2.261133 1_555
O10 Y4 2.346868 1_555
O10 Y6 2.370966 1_555
O11 Y3 2.251631 1_455
O11 Y11 2.261133 1_555
O11 Y5 2.346868 1_565
O11 Y7 2.370966 1_555
O12 Y14 2.251631 1_655
O12 Y5 2.261133 1_555
O12 Y11 2.346868 1_555
O12 Y9 2.370966 1_555
O13 Y13 2.251631 1_655
O13 Y4 2.261133 1_555
O13 Y10 2.346868 1_545
O13 Y8 2.370966 1_555
O14 Y12 2.222016 1_555
O14 Y7 2.236907 1_555
O14 Y8 2.337476 1_565
O14 Y10 2.370930 1_555
O15 Y15 2.222016 1_555
O15 Y6 2.236907 1_556
O15 Y9 2.337476 1_555
O15 Y11 2.370930 1_555
O16 Y6 2.221193 1_555
O16 Y4 2.244922 1_565
O16 Y1 2.321476 1_555
O16 Y0 2.354392 1_665
O17 Y7 2.221193 1_555
O17 Y5 2.244922 1_555
O17 Y3 2.321476 1_555
O17 Y2 2.354392 1_655
O18 Y0 2.221193 1_655
O18 Y1 2.244922 1_555
O18 Y4 2.321476 1_555
O18 Y6 2.354392 1_555
O19 Y2 2.221193 1_655
O19 Y3 2.244922 1_545
O19 Y5 2.321476 1_555
O19 Y7 2.354392 1_545
O20 Y8 2.222016 1_555
O20 Y2 2.236907 1_655
O20 Y12 2.337476 1_555
O20 Y13 2.370930 1_655
O21 Y9 2.222016 1_555
O21 Y0 2.236907 1_656
O21 Y15 2.337476 1_545
O21 Y14 2.370930 1_655
O22 Y11 2.251631 1_555
O22 Y3 2.261133 1_555
O22 Y14 2.346868 1_665
O22 Y15 2.370966 1_555
O23 Y10 2.251631 1_555
O23 Y1 2.261133 1_555
O23 Y13 2.346868 1_655
O23 Y12 2.370966 1_555
