# generated using pymatgen
data_Li6MnCo3(PO4)6
_symmetry_space_group_name_H-M   'P 1'
_cell_length_a   8.44118100
_cell_length_b   8.47251886
_cell_length_c   8.63443261
_cell_angle_alpha   62.56437724
_cell_angle_beta   61.75591148
_cell_angle_gamma   62.43535135
_symmetry_Int_Tables_number   1
_chemical_formula_structural   Li6MnCo3(PO4)6
_chemical_formula_sum   'Li6 Mn1 Co3 P6 O24'
_cell_volume   458.55525000
_cell_formula_units_Z   1
loop_
 _symmetry_equiv_pos_site_id
 _symmetry_equiv_pos_as_xyz
  1  'x, y, z'
loop_
 _atom_site_type_symbol
 _atom_site_label
 _atom_site_symmetry_multiplicity
 _atom_site_fract_x
 _atom_site_fract_y
 _atom_site_fract_z
 _atom_site_occupancy
  Li  Li0  1  0.97607200  0.00772900  0.98683200  1
  Li  Li1  1  0.24827400  0.64687100  0.85826100  1
  Li  Li2  1  0.52401000  0.50266300  0.49504900  1
  Li  Li3  1  0.74517800  0.34879900  0.15645700  1
  Li  Li4  1  0.34144700  0.16085700  0.73090000  1
  Li  Li5  1  0.15930000  0.74128700  0.35597700  1
  Mn  Mn0  1  0.14610800  0.14249300  0.14991000  1
  Co  Co0  1  0.85491700  0.86219000  0.85157100  1
  Co  Co1  1  0.64644700  0.64762700  0.63662200  1
  Co  Co2  1  0.35196200  0.35057900  0.35003800  1
  P  P0  1  0.95180000  0.55018100  0.24613600  1
  P  P1  1  0.54788500  0.25271100  0.95091900  1
  P  P2  1  0.25167800  0.94731600  0.55220200  1
  P  P3  1  0.75079400  0.04538900  0.45995900  1
  P  P4  1  0.45650800  0.75007600  0.04062300  1
  P  P5  1  0.04204300  0.46203100  0.74515900  1
  O  O0  1  0.86946300  0.51431000  0.69242800  1
  O  O1  1  0.69446800  0.88565100  0.48634700  1
  O  O2  1  0.95932500  0.72961700  0.07695100  1
  O  O3  1  0.46901400  0.70401900  0.88216300  1
  O  O4  1  0.76064800  0.57050800  0.40367700  1
  O  O5  1  0.98303600  0.38452600  0.19036800  1
  O  O6  1  0.73645500  0.09301200  0.93148400  1
  O  O7  1  0.54776200  0.42075600  0.77128900  1
  O  O8  1  0.41066800  0.75438200  0.57881600  1
  O  O9  1  0.80766700  0.01189200  0.61871700  1
  O  O10  1  0.91444200  0.06638300  0.26534700  1
  O  O11  1  0.62843900  0.80030200  0.99759000  1
  O  O12  1  0.37867000  0.19724300  0.98670200  1
  O  O13  1  0.09347600  0.93026000  0.74524700  1
  O  O14  1  0.19492800  0.96852200  0.39875600  1
  O  O15  1  0.59104100  0.23975400  0.43672300  1
  O  O16  1  0.44130200  0.58826100  0.22911800  1
  O  O17  1  0.26283900  0.91182500  0.07397700  1
  O  O18  1  0.02588200  0.61700200  0.80323400  1
  O  O19  1  0.23281400  0.44238300  0.57901600  1
  O  O20  1  0.51785400  0.30767900  0.11495300  1
  O  O21  1  0.05775400  0.26751800  0.89613100  1
  O  O22  1  0.31203800  0.11219900  0.51658500  1
  O  O23  1  0.11558900  0.51220000  0.30876700  1
loop_
_geom_bond_atom_site_label_1
_geom_bond_atom_site_label_2
_geom_bond_distance
_geom_bond_site_symmetry_2
Li0 O6 2.021300 1_555
Li0 O13 2.113581 1_645
Li0 O2 2.166160 1_546
Li0 O21 2.288767 1_655
Li0 O10 2.445132 1_556
Li0 O17 2.534974 1_646
Li1 O8 2.128500 1_555
Li1 O13 2.137442 1_555
Li1 O3 2.244985 1_555
Li1 O18 2.282216 1_555
Li1 O2 2.298786 1_456
Li1 O7 2.381527 1_555
Li2 O4 2.023879 1_555
Li2 O8 2.205666 1_555
Li2 O7 2.238168 1_555
Li2 O15 2.265638 1_555
Li2 O16 2.408288 1_555
Li2 O19 2.441800 1_555
Li3 O15 2.115370 1_555
Li3 O10 2.164497 1_555
Li3 O20 2.305757 1_555
Li3 O5 2.325767 1_555
Li3 O16 2.433688 1_555
Li3 O21 2.572937 1_654
Li4 O19 2.116941 1_555
Li4 O21 2.130340 1_555
Li4 O22 2.210968 1_555
Li4 O15 2.451808 1_555
Li4 O12 2.538912 1_555
Li5 O16 2.128786 1_555
Li5 O17 2.166317 1_555
Li5 O14 2.286876 1_555
Li5 O23 2.367235 1_555
Li5 O19 2.385298 1_555
Li5 O10 2.597452 1_465
Mn0 O12 1.917526 1_554
Mn0 O5 1.953072 1_455
Mn0 O10 1.990832 1_455
Mn0 O17 2.001823 1_545
Mn0 O14 2.077625 1_545
Mn0 O21 2.270790 1_554
Co0 O11 1.885888 1_555
Co0 O9 1.936752 1_565
Co0 O18 2.006637 1_655
Co0 O13 2.016859 1_655
Co0 O6 2.020183 1_565
Co0 O2 2.125613 1_556
Co1 O0 1.854976 1_555
Co1 O1 1.939668 1_555
Co1 O8 1.971412 1_555
Co1 O4 2.048100 1_555
Co1 O3 2.057222 1_555
Co1 O7 2.060643 1_555
Co2 O23 1.917761 1_555
Co2 O20 1.931786 1_555
Co2 O22 1.937910 1_555
Co2 O19 2.082432 1_555
Co2 O16 2.106389 1_555
Co2 O15 2.131403 1_555
O0 P5 1.539621 1_655
O1 P3 1.522652 1_565
O2 P0 1.550578 1_555
O3 P4 1.533814 1_556
O4 P0 1.537821 1_555
O5 P0 1.559282 1_555
O6 P1 1.534843 1_555
O7 P1 1.548532 1_555
O8 P2 1.562490 1_555
O9 P3 1.525884 1_555
O10 P3 1.586983 1_555
O11 P4 1.530004 1_556
O12 P1 1.557670 1_555
O13 P2 1.559632 1_555
O14 P2 1.522779 1_555
O15 P3 1.570645 1_555
O16 P4 1.566503 1_555
O17 P4 1.574227 1_555
O18 P5 1.539548 1_555
O19 P5 1.569830 1_555
O20 P1 1.563948 1_554
O21 P5 1.553866 1_555
O22 P2 1.555720 1_545
O23 P0 1.563018 1_455
