# generated using pymatgen
data_Mn6O5F7
_symmetry_space_group_name_H-M   'P 1'
_cell_length_a   4.83477344
_cell_length_b   4.83477344
_cell_length_c   9.31959500
_cell_angle_alpha   90.00000000
_cell_angle_beta   90.00000000
_cell_angle_gamma   97.75320201
_symmetry_Int_Tables_number   1
_chemical_formula_structural   Mn6O5F7
_chemical_formula_sum   'Mn6 O5 F7'
_cell_volume   215.85438327
_cell_formula_units_Z   1
loop_
 _symmetry_equiv_pos_site_id
 _symmetry_equiv_pos_as_xyz
  1  'x, y, z'
loop_
 _atom_site_type_symbol
 _atom_site_label
 _atom_site_symmetry_multiplicity
 _atom_site_fract_x
 _atom_site_fract_y
 _atom_site_fract_z
 _atom_site_occupancy
  Mn  Mn0  1  0.99559000  0.99559000  0.83444400  1
  Mn  Mn1  1  0.99559000  0.99559000  0.16555600  1
  Mn  Mn2  1  0.02253100  0.02253100  0.50000000  1
  Mn  Mn3  1  0.49379300  0.49379300  0.67536500  1
  Mn  Mn4  1  0.49675300  0.49675300  0.00000000  1
  Mn  Mn5  1  0.49379300  0.49379300  0.32463500  1
  O  O0  1  0.29777600  0.29777600  0.83640200  1
  O  O1  1  0.29777600  0.29777600  0.16359800  1
  O  O2  1  0.31973300  0.31973300  0.50000000  1
  O  O3  1  0.69243600  0.69243600  0.83522800  1
  O  O4  1  0.69243600  0.69243600  0.16477200  1
  F  F0  1  0.80978300  0.18464200  0.00000000  1
  F  F1  1  0.81083000  0.19098200  0.33427700  1
  F  F2  1  0.81083000  0.19098200  0.66572300  1
  F  F3  1  0.70374200  0.70374200  0.50000000  1
  F  F4  1  0.18464200  0.80978300  0.00000000  1
  F  F5  1  0.19098200  0.81083000  0.33427700  1
  F  F6  1  0.19098200  0.81083000  0.66572300  1
loop_
_geom_bond_atom_site_label_1
_geom_bond_atom_site_label_2
_geom_bond_distance
_geom_bond_site_symmetry_2
Mn0 O0 1.921837 1_665
Mn0 O3 1.927920 1_555
Mn1 O1 1.921837 1_665
Mn1 O4 1.927920 1_555
Mn2 O2 1.890055 1_555
Mn3 O0 1.950983 1_555
Mn3 O3 1.953338 1_555
Mn3 O2 1.973915 1_555
Mn4 O4 1.976547 1_555
Mn4 O3 1.976547 1_554
Mn4 O1 1.981371 1_555
Mn4 O0 1.981371 1_554
Mn5 O1 1.950983 1_555
Mn5 O4 1.953338 1_555
Mn5 O2 1.973915 1_555
F0 Mn1 2.060236 1_545
F0 Mn0 2.060236 1_544
F0 Mn4 2.276772 1_555
F1 Mn2 2.078748 1_655
F1 Mn1 2.095354 1_545
F1 Mn5 2.259733 1_555
F2 Mn2 2.078748 1_655
F2 Mn0 2.095354 1_545
F2 Mn3 2.259733 1_555
F3 Mn2 2.027337 1_665
F3 Mn5 2.110383 1_555
F3 Mn3 2.110383 1_555
F4 Mn1 2.060236 1_455
F4 Mn0 2.060236 1_454
F4 Mn4 2.276772 1_555
F5 Mn2 2.078748 1_565
F5 Mn1 2.095354 1_455
F5 Mn5 2.259733 1_555
F6 Mn2 2.078748 1_565
F6 Mn0 2.095354 1_455
F6 Mn3 2.259733 1_555
