# generated using pymatgen
data_BaCaO2
_symmetry_space_group_name_H-M   'P 1'
_cell_length_a   3.76412400
_cell_length_b   6.32443000
_cell_length_c   12.26173400
_cell_angle_alpha   90.00000000
_cell_angle_beta   90.00000000
_cell_angle_gamma   90.00000000
_symmetry_Int_Tables_number   1
_chemical_formula_structural   BaCaO2
_chemical_formula_sum   'Ba4 Ca4 O8'
_cell_volume   291.90208856
_cell_formula_units_Z   4
loop_
 _symmetry_equiv_pos_site_id
 _symmetry_equiv_pos_as_xyz
  1  'x, y, z'
loop_
 _atom_site_type_symbol
 _atom_site_label
 _atom_site_symmetry_multiplicity
 _atom_site_fract_x
 _atom_site_fract_y
 _atom_site_fract_z
 _atom_site_occupancy
  Ba  Ba0  1  0.25000000  0.59357500  0.64221400  1
  Ba  Ba1  1  0.25000000  0.09357500  0.85778600  1
  Ba  Ba2  1  0.75000000  0.40642500  0.35778600  1
  Ba  Ba3  1  0.75000000  0.90642500  0.14221400  1
  Ca  Ca0  1  0.25000000  0.90897900  0.39270900  1
  Ca  Ca1  1  0.25000000  0.40897900  0.10729100  1
  Ca  Ca2  1  0.75000000  0.59102100  0.89270900  1
  Ca  Ca3  1  0.75000000  0.09102100  0.60729100  1
  O  O0  1  0.25000000  0.21587800  0.51831800  1
  O  O1  1  0.25000000  0.71587800  0.98168200  1
  O  O2  1  0.25000000  0.65115500  0.25228500  1
  O  O3  1  0.25000000  0.15115500  0.24771500  1
  O  O4  1  0.75000000  0.84884500  0.75228500  1
  O  O5  1  0.75000000  0.34884500  0.74771500  1
  O  O6  1  0.75000000  0.78412200  0.48168200  1
  O  O7  1  0.75000000  0.28412200  0.01831800  1
loop_
_geom_bond_atom_site_label_1
_geom_bond_atom_site_label_2
_geom_bond_distance
_geom_bond_site_symmetry_2
Ba0 O5 2.758847 1_555
Ba0 O5 2.758847 1_455
Ba0 O4 2.823146 1_455
Ba0 O4 2.823146 1_555
Ba0 O0 2.830880 1_555
Ba0 O6 2.978091 1_555
Ba0 O6 2.978091 1_455
Ba1 O4 2.758847 1_445
Ba1 O4 2.758847 1_545
Ba1 O5 2.823146 1_555
Ba1 O5 2.823146 1_455
Ba1 O1 2.830880 1_545
Ba1 O7 2.978091 1_556
Ba1 O7 2.978091 1_456
Ba2 O2 2.758847 1_555
Ba2 O2 2.758847 1_655
Ba2 O3 2.823146 1_555
Ba2 O3 2.823146 1_655
Ba2 O6 2.830880 1_555
Ba2 O0 2.978091 1_555
Ba2 O0 2.978091 1_655
Ba3 O3 2.758847 1_665
Ba3 O3 2.758847 1_565
Ba3 O2 2.823146 1_555
Ba3 O2 2.823146 1_655
Ba3 O7 2.830880 1_565
Ba3 O1 2.978091 1_554
Ba3 O1 2.978091 1_654
Ca0 O6 2.314283 1_455
Ca0 O6 2.314283 1_555
Ca0 O3 2.346641 1_565
Ca0 O2 2.371405 1_555
Ca0 O0 2.477801 1_565
Ca1 O7 2.314283 1_455
Ca1 O7 2.314283 1_555
Ca1 O2 2.346641 1_555
Ca1 O3 2.371405 1_555
Ca1 O1 2.477801 1_554
Ca2 O1 2.314283 1_555
Ca2 O1 2.314283 1_655
Ca2 O5 2.346641 1_555
Ca2 O4 2.371405 1_555
Ca2 O7 2.477801 1_556
Ca3 O0 2.314283 1_555
Ca3 O0 2.314283 1_655
Ca3 O4 2.346641 1_545
Ca3 O5 2.371405 1_555
Ca3 O6 2.477801 1_545
