# generated using pymatgen
data_Na2SbPCO7
_symmetry_space_group_name_H-M   'P 1'
_cell_length_a   6.79513100
_cell_length_b   5.43931200
_cell_length_c   9.51084089
_cell_angle_alpha   84.78751472
_cell_angle_beta   90.00000000
_cell_angle_gamma   90.00000000
_symmetry_Int_Tables_number   1
_chemical_formula_structural   Na2SbPCO7
_chemical_formula_sum   'Na4 Sb2 P2 C2 O14'
_cell_volume   350.07494284
_cell_formula_units_Z   2
loop_
 _symmetry_equiv_pos_site_id
 _symmetry_equiv_pos_as_xyz
  1  'x, y, z'
loop_
 _atom_site_type_symbol
 _atom_site_label
 _atom_site_symmetry_multiplicity
 _atom_site_fract_x
 _atom_site_fract_y
 _atom_site_fract_z
 _atom_site_occupancy
  Na  Na0  1  0.48684500  0.24476600  0.78299400  1
  Na  Na1  1  0.01315500  0.24476600  0.78299400  1
  Na  Na2  1  0.51315500  0.75523400  0.21700600  1
  Na  Na3  1  0.98684500  0.75523400  0.21700600  1
  Sb  Sb0  1  0.75000000  0.80239100  0.62576600  1
  Sb  Sb1  1  0.25000000  0.19760900  0.37423400  1
  P  P0  1  0.25000000  0.74604100  0.60511000  1
  P  P1  1  0.75000000  0.25395900  0.39489000  1
  C  C0  1  0.75000000  0.72387700  0.91029500  1
  C  C1  1  0.25000000  0.27612300  0.08970500  1
  O  O0  1  0.25000000  0.27368300  0.95880400  1
  O  O1  1  0.75000000  0.93817400  0.82572100  1
  O  O2  1  0.75000000  0.52723600  0.84046100  1
  O  O3  1  0.06706800  0.87621200  0.66493700  1
  O  O4  1  0.43293200  0.87621200  0.66493700  1
  O  O5  1  0.75000000  0.19017800  0.56242800  1
  O  O6  1  0.25000000  0.46826200  0.64003600  1
  O  O7  1  0.75000000  0.53173800  0.35996400  1
  O  O8  1  0.25000000  0.80982200  0.43757200  1
  O  O9  1  0.56706800  0.12378800  0.33506300  1
  O  O10  1  0.93293200  0.12378800  0.33506300  1
  O  O11  1  0.25000000  0.47276400  0.15953900  1
  O  O12  1  0.25000000  0.06182600  0.17427900  1
  O  O13  1  0.75000000  0.72631700  0.04119600  1
loop_
_geom_bond_atom_site_label_1
_geom_bond_atom_site_label_2
_geom_bond_distance
_geom_bond_site_symmetry_2
Na0 O0 2.336363 1_555
Na0 O6 2.369875 1_555
Na0 O4 2.413020 1_545
Na0 O2 2.451434 1_555
Na0 O1 2.453695 1_545
Na0 O5 2.792764 1_555
Na1 O0 2.336363 1_555
Na1 O6 2.369875 1_555
Na1 O3 2.413020 1_545
Na1 O2 2.451434 1_455
Na1 O1 2.453695 1_445
Na1 O5 2.792764 1_455
Na2 O13 2.336363 1_555
Na2 O7 2.369875 1_555
Na2 O9 2.413020 1_565
Na2 O11 2.451434 1_555
Na2 O12 2.453695 1_565
Na2 O8 2.792764 1_555
Na3 O13 2.336363 1_555
Na3 O7 2.369875 1_555
Na3 O10 2.413020 1_565
Na3 O11 2.451434 1_655
Na3 O12 2.453695 1_665
Na3 O8 2.792764 1_655
C0 O13 1.246254 1_556
C0 O2 1.309290 1_555
C0 O1 1.354747 1_555
C1 O0 1.246254 1_554
C1 O11 1.309290 1_555
C1 O12 1.354747 1_555
O1 Sb0 2.101738 1_555
O2 Sb0 2.419539 1_555
O3 P0 1.563156 1_555
O3 Sb0 2.229160 1_455
O4 P0 1.563156 1_555
O4 Sb0 2.229160 1_555
O5 P1 1.599664 1_555
O5 Sb0 2.140358 1_545
O6 P0 1.517250 1_555
O7 P1 1.517250 1_555
O8 P0 1.599664 1_555
O8 Sb1 2.140358 1_565
O9 P1 1.563156 1_555
O9 Sb1 2.229160 1_555
O10 P1 1.563156 1_555
O10 Sb1 2.229160 1_655
O11 Sb1 2.419539 1_555
O12 Sb1 2.101738 1_555
