# generated using pymatgen
data_Rb5FeO4
_symmetry_space_group_name_H-M   'P 1'
_cell_length_a   10.45730940
_cell_length_b   10.45735405
_cell_length_c   11.07551994
_cell_angle_alpha   67.49554327
_cell_angle_beta   67.49618449
_cell_angle_gamma   100.90925941
_symmetry_Int_Tables_number   1
_chemical_formula_structural   Rb5FeO4
_chemical_formula_sum   'Rb20 Fe4 O16'
_cell_volume   950.39362102
_cell_formula_units_Z   4
loop_
 _symmetry_equiv_pos_site_id
 _symmetry_equiv_pos_as_xyz
  1  'x, y, z'
loop_
 _atom_site_type_symbol
 _atom_site_label
 _atom_site_symmetry_multiplicity
 _atom_site_fract_x
 _atom_site_fract_y
 _atom_site_fract_z
 _atom_site_occupancy
  Rb  Rb0  1  0.32404100  0.57404400  0.25000000  1
  Rb  Rb1  1  0.82403500  0.07403400  0.25000400  1
  Rb  Rb2  1  0.17596900  0.92596600  0.74999500  1
  Rb  Rb3  1  0.67596400  0.42596200  0.75000100  1
  Rb  Rb4  1  0.34515800  0.33383700  0.05880000  1
  Rb  Rb5  1  0.84517100  0.83383900  0.05880500  1
  Rb  Rb6  1  0.58383000  0.09515500  0.05880600  1
  Rb  Rb7  1  0.08384100  0.59516100  0.05880000  1
  Rb  Rb8  1  0.15394800  0.14263200  0.44119400  1
  Rb  Rb9  1  0.65395400  0.64263800  0.44120100  1
  Rb  Rb10  1  0.39263700  0.90394800  0.44120500  1
  Rb  Rb11  1  0.89263900  0.40396400  0.44119600  1
  Rb  Rb12  1  0.34604500  0.35736400  0.55880300  1
  Rb  Rb13  1  0.84604600  0.85735800  0.55879700  1
  Rb  Rb14  1  0.10736000  0.59604900  0.55880100  1
  Rb  Rb15  1  0.60736300  0.09604000  0.55880300  1
  Rb  Rb16  1  0.15483900  0.16615700  0.94120000  1
  Rb  Rb17  1  0.65482900  0.66615500  0.94120100  1
  Rb  Rb18  1  0.91616700  0.40484500  0.94119600  1
  Rb  Rb19  1  0.41616100  0.90484300  0.94120300  1
  Fe  Fe0  1  0.60408000  0.35409400  0.25001000  1
  Fe  Fe1  1  0.89590500  0.14591800  0.74999300  1
  Fe  Fe2  1  0.10410600  0.85409700  0.24999600  1
  Fe  Fe3  1  0.39589600  0.64589500  0.74999600  1
  O  O0  1  0.11696900  0.86696700  0.06352100  1
  O  O1  1  0.61695700  0.36696300  0.06351800  1
  O  O2  1  0.93048800  0.68048700  0.43647300  1
  O  O3  1  0.43048600  0.18048700  0.43646900  1
  O  O4  1  0.56951200  0.81950600  0.56353100  1
  O  O5  1  0.06951800  0.31952100  0.56352300  1
  O  O6  1  0.38303500  0.63303000  0.93648200  1
  O  O7  1  0.88304000  0.13303800  0.93647800  1
  O  O8  1  0.08147500  0.03561600  0.25000300  1
  O  O9  1  0.58147400  0.53560900  0.25000500  1
  O  O10  1  0.28561400  0.83147700  0.25000100  1
  O  O11  1  0.78560900  0.33147900  0.24999900  1
  O  O12  1  0.41852600  0.46438400  0.74999600  1
  O  O13  1  0.91853000  0.96439200  0.74999300  1
  O  O14  1  0.21439100  0.66852300  0.75000000  1
  O  O15  1  0.71439000  0.16852500  0.75000100  1
loop_
_geom_bond_atom_site_label_1
_geom_bond_atom_site_label_2
_geom_bond_distance
_geom_bond_site_symmetry_2
Fe0 O9 1.956705 1_555
Fe0 O11 1.956850 1_555
Fe0 O3 1.966950 1_555
Fe0 O1 1.967222 1_555
Fe1 O15 1.956690 1_555
Fe1 O13 1.956898 1_545
Fe1 O5 1.967046 1_655
Fe1 O7 1.967148 1_555
Fe2 O10 1.956705 1_555
Fe2 O8 1.956870 1_565
Fe2 O0 1.967081 1_555
Fe2 O2 1.967116 1_455
Fe3 O14 1.956667 1_555
Fe3 O12 1.956758 1_555
Fe3 O4 1.967067 1_555
Fe3 O6 1.967228 1_555
O0 Rb16 2.767084 1_564
O0 Rb19 2.767088 1_554
O0 Rb5 2.820651 1_455
O0 Rb7 2.820771 1_555
O0 Rb2 3.065155 1_554
O1 Rb17 2.767098 1_554
O1 Rb18 2.767245 1_554
O1 Rb4 2.820672 1_555
O1 Rb6 2.820748 1_555
O1 Rb3 3.065038 1_554
O2 Rb13 2.767118 1_555
O2 Rb14 2.767124 1_655
O2 Rb11 2.820719 1_555
O2 Rb9 2.820798 1_555
O2 Rb3 3.065139 1_555
O3 Rb15 2.767238 1_555
O3 Rb12 2.767242 1_555
O3 Rb10 2.820824 1_545
O3 Rb8 2.820850 1_555
O3 Rb2 3.065097 1_545
O4 Rb9 2.767131 1_555
O4 Rb10 2.767150 1_555
O4 Rb13 2.820768 1_555
O4 Rb15 2.820809 1_565
O4 Rb1 3.065139 1_565
O5 Rb11 2.767198 1_455
O5 Rb8 2.767292 1_555
O5 Rb12 2.820767 1_555
O5 Rb14 2.820781 1_555
O5 Rb0 3.065104 1_555
O6 Rb4 2.767094 1_556
O6 Rb7 2.767126 1_556
O6 Rb17 2.820626 1_555
O6 Rb19 2.820845 1_555
O6 Rb0 3.065122 1_556
O7 Rb5 2.767173 1_546
O7 Rb6 2.767242 1_556
O7 Rb16 2.820697 1_655
O7 Rb18 2.820767 1_555
O7 Rb1 3.065127 1_556
O8 Rb1 2.796127 1_455
O8 Rb13 2.858311 1_445
O8 Rb16 2.858407 1_554
O8 Rb8 3.005371 1_555
O8 Rb4 3.005522 1_555
O9 Rb0 2.796134 1_555
O9 Rb12 2.858335 1_555
O9 Rb17 2.858442 1_554
O9 Rb9 3.005537 1_555
O9 Rb5 3.005645 1_555
O10 Rb0 2.796103 1_555
O10 Rb14 2.858344 1_555
O10 Rb19 2.858355 1_554
O10 Rb6 3.005471 1_565
O10 Rb10 3.005537 1_555
O11 Rb1 2.796203 1_555
O11 Rb15 2.858400 1_555
O11 Rb18 2.858402 1_554
O11 Rb11 3.005574 1_555
O11 Rb7 3.005587 1_655
O12 Rb3 2.796141 1_555
O12 Rb9 2.858314 1_555
O12 Rb4 2.858403 1_556
O12 Rb12 3.005455 1_555
O12 Rb16 3.005577 1_555
O13 Rb2 2.796155 1_655
O13 Rb8 2.858308 1_665
O13 Rb5 2.858508 1_556
O13 Rb13 3.005587 1_555
O13 Rb17 3.005704 1_555
O14 Rb2 2.796169 1_555
O14 Rb10 2.858298 1_555
O14 Rb7 2.858386 1_556
O14 Rb18 3.005520 1_455
O14 Rb14 3.005549 1_555
O15 Rb3 2.796138 1_555
O15 Rb11 2.858408 1_555
O15 Rb6 2.858410 1_556
O15 Rb15 3.005565 1_555
O15 Rb19 3.005567 1_545
