# generated using pymatgen
data_Mn6O5F7
_symmetry_space_group_name_H-M   'P 1'
_cell_length_a   5.74061066
_cell_length_b   5.74061066
_cell_length_c   7.36258387
_cell_angle_alpha   72.75656430
_cell_angle_beta   72.75656430
_cell_angle_gamma   73.43689420
_symmetry_Int_Tables_number   1
_chemical_formula_structural   Mn6O5F7
_chemical_formula_sum   'Mn6 O5 F7'
_cell_volume   216.07655939
_cell_formula_units_Z   1
loop_
 _symmetry_equiv_pos_site_id
 _symmetry_equiv_pos_as_xyz
  1  'x, y, z'
loop_
 _atom_site_type_symbol
 _atom_site_label
 _atom_site_symmetry_multiplicity
 _atom_site_fract_x
 _atom_site_fract_y
 _atom_site_fract_z
 _atom_site_occupancy
  Mn  Mn0  1  0.30755000  0.30755000  0.16878800  1
  Mn  Mn1  1  0.66172500  0.66172500  0.33117900  1
  Mn  Mn2  1  0.34896100  0.34896100  0.68326900  1
  Mn  Mn3  1  0.66991900  0.66991900  0.83510600  1
  Mn  Mn4  1  0.01780800  0.01780800  0.48662500  1
  Mn  Mn5  1  0.99245300  0.99245300  0.00028100  1
  O  O0  1  0.97812500  0.35285100  0.32930500  1
  O  O1  1  0.76793000  0.76793000  0.03258200  1
  O  O2  1  0.22277300  0.22277300  0.96712000  1
  O  O3  1  0.57313300  0.57313300  0.63266400  1
  O  O4  1  0.35285100  0.97812500  0.32930500  1
  F  F0  1  0.66605700  0.03745600  0.65157500  1
  F  F1  1  0.11430100  0.11430100  0.70589500  1
  F  F2  1  0.42046900  0.42046900  0.37538600  1
  F  F3  1  0.89884600  0.89884600  0.29413200  1
  F  F4  1  0.03745600  0.66605700  0.65157500  1
  F  F5  1  0.66986500  0.29978100  0.01260500  1
  F  F6  1  0.29978100  0.66986500  0.01260500  1
loop_
_geom_bond_atom_site_label_1
_geom_bond_atom_site_label_2
_geom_bond_distance
_geom_bond_site_symmetry_2
Mn0 O0 1.901944 1_455
Mn0 O4 1.901944 1_545
Mn0 O2 1.915771 1_554
Mn1 O1 2.049200 1_555
Mn1 O3 2.062357 1_555
Mn1 O4 2.146316 1_555
Mn1 O0 2.146316 1_555
Mn2 O3 1.956178 1_555
Mn2 O2 1.980200 1_555
Mn3 O1 1.974215 1_556
Mn3 O3 1.999234 1_555
Mn4 O4 1.917980 1_545
Mn4 O0 1.917980 1_455
Mn5 O1 1.990673 1_555
Mn5 O2 2.042020 1_664
F0 Mn4 2.015572 1_655
F0 Mn3 2.139825 1_545
F0 Mn2 2.169206 1_555
F1 Mn5 2.039030 1_446
F1 Mn2 2.103709 1_555
F1 Mn4 2.110742 1_555
F2 Mn2 2.113809 1_555
F2 Mn1 2.121614 1_555
F2 Mn0 2.136078 1_555
F3 Mn5 2.011065 1_555
F3 Mn4 2.086827 1_665
F3 Mn1 2.096763 1_555
F4 Mn4 2.015572 1_565
F4 Mn3 2.139825 1_455
F4 Mn2 2.169206 1_555
F5 Mn0 2.051795 1_555
F5 Mn3 2.139292 1_554
F5 Mn5 2.163961 1_545
F6 Mn0 2.051795 1_555
F6 Mn3 2.139292 1_554
F6 Mn5 2.163961 1_455
