# generated using pymatgen
data_Na3Ni2P2(CO7)2
_symmetry_space_group_name_H-M   'P 1'
_cell_length_a   6.48676000
_cell_length_b   8.91187800
_cell_length_c   10.26454828
_cell_angle_alpha   88.39276306
_cell_angle_beta   90.00000000
_cell_angle_gamma   90.00000000
_symmetry_Int_Tables_number   1
_chemical_formula_structural   Na3Ni2P2(CO7)2
_chemical_formula_sum   'Na6 Ni4 P4 C4 O28'
_cell_volume   593.15201562
_cell_formula_units_Z   2
loop_
 _symmetry_equiv_pos_site_id
 _symmetry_equiv_pos_as_xyz
  1  'x, y, z'
loop_
 _atom_site_type_symbol
 _atom_site_label
 _atom_site_symmetry_multiplicity
 _atom_site_fract_x
 _atom_site_fract_y
 _atom_site_fract_z
 _atom_site_occupancy
  Na  Na0  1  0.28394300  0.74650700  0.87703200  1
  Na  Na1  1  0.71605700  0.74650700  0.37703200  1
  Na  Na2  1  0.76362200  0.25049300  0.62009600  1
  Na  Na3  1  0.23598500  0.24865900  0.62204800  1
  Na  Na4  1  0.76401500  0.24865900  0.12204800  1
  Na  Na5  1  0.23637800  0.25049300  0.12009600  1
  Ni  Ni0  1  0.00048200  0.65600600  0.60769600  1
  Ni  Ni1  1  0.99951800  0.65600600  0.10769600  1
  Ni  Ni2  1  0.50190400  0.34872500  0.89097600  1
  Ni  Ni3  1  0.49809600  0.34872500  0.39097600  1
  P  P0  1  0.49864700  0.57647300  0.64183000  1
  P  P1  1  0.50135300  0.57647300  0.14183000  1
  P  P2  1  0.00136800  0.42818400  0.85898200  1
  P  P3  1  0.99863200  0.42818400  0.35898200  1
  C  C0  1  0.99655500  0.92564900  0.64435600  1
  C  C1  1  0.00344500  0.92564900  0.14435600  1
  C  C2  1  0.50228000  0.07763100  0.85836600  1
  C  C3  1  0.49772000  0.07763100  0.35836600  1
  O  O0  1  0.50096900  0.93999000  0.83952500  1
  O  O1  1  0.49903100  0.93999000  0.33952500  1
  O  O2  1  0.98987600  0.86801600  0.52973300  1
  O  O3  1  0.01012400  0.86801600  0.02973300  1
  O  O4  1  0.00295600  0.82395700  0.73790800  1
  O  O5  1  0.99704400  0.82395700  0.23790800  1
  O  O6  1  0.31091400  0.67746800  0.61099700  1
  O  O7  1  0.68624300  0.67282200  0.60113700  1
  O  O8  1  0.31375700  0.67282200  0.10113700  1
  O  O9  1  0.68908600  0.67746800  0.11099700  1
  O  O10  1  0.00856100  0.57702200  0.93023500  1
  O  O11  1  0.99143900  0.57702200  0.43023500  1
  O  O12  1  0.49676100  0.53650400  0.79062600  1
  O  O13  1  0.50323900  0.53650400  0.29062600  1
  O  O14  1  0.00071300  0.46027000  0.70802600  1
  O  O15  1  0.99928700  0.46027000  0.20802600  1
  O  O16  1  0.49595800  0.42528000  0.57030100  1
  O  O17  1  0.50404200  0.42528000  0.07030100  1
  O  O18  1  0.81354200  0.32893300  0.89695900  1
  O  O19  1  0.18813000  0.32568800  0.89475800  1
  O  O20  1  0.81187000  0.32568800  0.39475800  1
  O  O21  1  0.18645800  0.32893300  0.39695900  1
  O  O22  1  0.50318400  0.17872500  0.76274900  1
  O  O23  1  0.49681600  0.17872500  0.26274900  1
  O  O24  1  0.50206500  0.13678300  0.97314800  1
  O  O25  1  0.49793500  0.13678300  0.47314800  1
  O  O26  1  0.99806200  0.06492900  0.66302300  1
  O  O27  1  0.00193800  0.06492900  0.16302300  1
loop_
_geom_bond_atom_site_label_1
_geom_bond_atom_site_label_2
_geom_bond_distance
_geom_bond_site_symmetry_2
Na0 O0 2.250793 1_555
Na0 O8 2.382317 1_556
Na0 O10 2.392563 1_555
Na0 O4 2.404714 1_555
Na0 O12 2.507610 1_555
Na0 O3 2.622874 1_556
Na0 O6 2.821399 1_555
Na1 O1 2.250793 1_555
Na1 O7 2.382317 1_555
Na1 O11 2.392563 1_555
Na1 O5 2.404714 1_555
Na1 O13 2.507610 1_555
Na1 O2 2.622874 1_555
Na1 O9 2.821399 1_555
Na2 O26 2.280521 1_555
Na2 O22 2.314020 1_555
Na2 O16 2.378570 1_555
Na2 O20 2.410397 1_555
Na2 O25 2.521521 1_555
Na2 O14 2.601850 1_655
Na3 O26 2.280615 1_455
Na3 O22 2.329790 1_555
Na3 O16 2.357259 1_555
Na3 O21 2.420826 1_555
Na3 O25 2.510543 1_555
Na3 O14 2.599575 1_555
Na4 O27 2.280615 1_655
Na4 O23 2.329790 1_555
Na4 O17 2.357259 1_555
Na4 O18 2.420826 1_554
Na4 O24 2.510543 1_554
Na4 O15 2.599575 1_555
Na5 O27 2.280521 1_555
Na5 O23 2.314020 1_555
Na5 O17 2.378570 1_555
Na5 O19 2.410397 1_554
Na5 O24 2.521521 1_554
Na5 O15 2.601850 1_455
Ni0 O11 1.972031 1_455
Ni0 O14 2.000662 1_555
Ni0 O6 2.023135 1_555
Ni0 O2 2.032285 1_455
Ni0 O4 2.034497 1_555
Ni0 O7 2.044865 1_455
Ni1 O10 1.972031 1_654
Ni1 O15 2.000662 1_555
Ni1 O9 2.023135 1_555
Ni1 O3 2.032285 1_655
Ni1 O5 2.034497 1_555
Ni1 O8 2.044865 1_655
Ni2 O12 1.940592 1_555
Ni2 O17 1.980970 1_556
Ni2 O18 2.029981 1_555
Ni2 O22 2.034594 1_555
Ni2 O19 2.045964 1_555
Ni2 O24 2.046858 1_555
Ni3 O13 1.940592 1_555
Ni3 O16 1.980970 1_555
Ni3 O21 2.029981 1_555
Ni3 O23 2.034594 1_555
Ni3 O20 2.045964 1_555
Ni3 O25 2.046858 1_555
C0 O26 1.261286 1_565
C0 O2 1.297635 1_555
C0 O4 1.302437 1_655
C1 O27 1.261286 1_565
C1 O3 1.297635 1_555
C1 O5 1.302437 1_455
C2 O0 1.247167 1_545
C2 O24 1.304169 1_555
C2 O22 1.313543 1_555
C3 O1 1.247167 1_545
C3 O25 1.304169 1_555
C3 O23 1.313543 1_555
O6 P0 1.541840 1_555
O7 P0 1.540277 1_555
O8 P1 1.540277 1_555
O9 P1 1.541840 1_555
O10 P2 1.533271 1_555
O11 P3 1.533271 1_555
O12 P0 1.558598 1_555
O13 P1 1.558598 1_555
O14 P2 1.567758 1_555
O15 P3 1.567758 1_555
O16 P0 1.552543 1_555
O17 P1 1.552543 1_555
O18 P2 1.549010 1_655
O19 P2 1.555018 1_555
O20 P3 1.555018 1_555
O21 P3 1.549010 1_455
