# generated using pymatgen
data_Li4NbFe3O8
_symmetry_space_group_name_H-M   'P 1'
_cell_length_a   5.16308900
_cell_length_b   5.75137864
_cell_length_c   6.60304503
_cell_angle_alpha   89.22178469
_cell_angle_beta   89.80317524
_cell_angle_gamma   89.81296134
_symmetry_Int_Tables_number   1
_chemical_formula_structural   Li4NbFe3O8
_chemical_formula_sum   'Li4 Nb1 Fe3 O8'
_cell_volume   196.05637046
_cell_formula_units_Z   1
loop_
 _symmetry_equiv_pos_site_id
 _symmetry_equiv_pos_as_xyz
  1  'x, y, z'
loop_
 _atom_site_type_symbol
 _atom_site_label
 _atom_site_symmetry_multiplicity
 _atom_site_fract_x
 _atom_site_fract_y
 _atom_site_fract_z
 _atom_site_occupancy
  Li  Li0  1  0.00392600  0.08481200  0.38770500  1
  Li  Li1  1  0.50623600  0.42626400  0.86671400  1
  Li  Li2  1  0.00321700  0.56268600  0.12547500  1
  Li  Li3  1  0.50565500  0.90612100  0.62270900  1
  Nb  Nb0  1  0.49454000  0.91543900  0.12345400  1
  Fe  Fe0  1  0.02536600  0.09813500  0.84968100  1
  Fe  Fe1  1  0.48798500  0.42557400  0.39476200  1
  Fe  Fe2  1  0.00663500  0.58477300  0.62755300  1
  O  O0  1  0.61179800  0.07518400  0.88843300  1
  O  O1  1  0.60672900  0.07465300  0.35482300  1
  O  O2  1  0.12020200  0.42557600  0.86938100  1
  O  O3  1  0.10439600  0.41668000  0.38772400  1
  O  O4  1  0.63719200  0.58514700  0.62608600  1
  O  O5  1  0.61065600  0.60366600  0.12478900  1
  O  O6  1  0.12137300  0.89856000  0.62382200  1
  O  O7  1  0.12769700  0.91672800  0.12688700  1
loop_
_geom_bond_atom_site_label_1
_geom_bond_atom_site_label_2
_geom_bond_distance
_geom_bond_site_symmetry_2
Li0 O6 1.975561 1_545
Li0 O3 1.979568 1_555
Li0 O1 2.064067 1_455
Li0 O7 2.083864 1_545
Li1 O4 1.942661 1_555
Li1 O2 1.993162 1_555
Li1 O5 2.071886 1_556
Li1 O0 2.092905 1_555
Li2 O2 1.967802 1_554
Li2 O3 1.985067 1_555
Li2 O5 2.039734 1_455
Li2 O7 2.137401 1_555
Li3 O4 1.964790 1_555
Li3 O6 1.984687 1_555
Li3 O1 2.071502 1_565
Li3 O0 2.093035 1_565
Nb0 O1 1.885619 1_565
Nb0 O5 1.888752 1_555
Nb0 O0 1.891384 1_564
Nb0 O7 1.894092 1_555
Fe0 O2 1.953553 1_555
Fe0 O6 1.955781 1_545
Fe0 O0 2.153956 1_455
Fe0 O7 2.160846 1_546
Fe1 O4 1.954385 1_555
Fe1 O3 1.982052 1_555
Fe1 O1 2.127003 1_555
Fe1 O5 2.138921 1_555
Fe2 O6 1.901102 1_555
Fe2 O4 1.907519 1_455
Fe2 O2 1.922272 1_555
Fe2 O3 1.931350 1_555
