# generated using pymatgen
data_Li4Mn3Ni(PO4)4
_symmetry_space_group_name_H-M   'P 1'
_cell_length_a   6.10144800
_cell_length_b   4.76822800
_cell_length_c   10.43285751
_cell_angle_alpha   89.89808203
_cell_angle_beta   90.00000000
_cell_angle_gamma   90.00000000
_symmetry_Int_Tables_number   1
_chemical_formula_structural   Li4Mn3Ni(PO4)4
_chemical_formula_sum   'Li4 Mn3 Ni1 P4 O16'
_cell_volume   303.52363636
_cell_formula_units_Z   1
loop_
 _symmetry_equiv_pos_site_id
 _symmetry_equiv_pos_as_xyz
  1  'x, y, z'
loop_
 _atom_site_type_symbol
 _atom_site_label
 _atom_site_symmetry_multiplicity
 _atom_site_fract_x
 _atom_site_fract_y
 _atom_site_fract_z
 _atom_site_occupancy
  Li  Li0  1  0.25003900  0.99967800  0.99865000  1
  Li  Li1  1  0.74996100  0.99967800  0.99865000  1
  Li  Li2  1  0.74954700  0.50094600  0.50182000  1
  Li  Li3  1  0.25045300  0.50094600  0.50182000  1
  Mn  Mn0  1  0.00000000  0.02790700  0.28250200  1
  Mn  Mn1  1  0.00000000  0.47251100  0.77905200  1
  Mn  Mn2  1  0.50000000  0.52631900  0.21998900  1
  Ni  Ni0  1  0.50000000  0.98053000  0.72196800  1
  P  P0  1  0.50000000  0.08728600  0.41189600  1
  P  P1  1  0.50000000  0.40790700  0.90313500  1
  P  P2  1  0.00000000  0.59068000  0.09154400  1
  P  P3  1  0.00000000  0.91323100  0.59352500  1
  O  O0  1  0.50000000  0.20471800  0.55096800  1
  O  O1  1  0.29860800  0.22395200  0.34171400  1
  O  O2  1  0.70139200  0.22395200  0.34171400  1
  O  O3  1  0.00000000  0.23556400  0.59481000  1
  O  O4  1  0.00000000  0.26835400  0.09557100  1
  O  O5  1  0.29904800  0.26762500  0.83410200  1
  O  O6  1  0.70095200  0.26762500  0.83410200  1
  O  O7  1  0.50000000  0.29165000  0.04251100  1
  O  O8  1  0.00000000  0.71233000  0.95336900  1
  O  O9  1  0.79765400  0.72457900  0.16114300  1
  O  O10  1  0.20234600  0.72457900  0.16114300  1
  O  O11  1  0.50000000  0.73030800  0.89709700  1
  O  O12  1  0.50000000  0.76557800  0.40469200  1
  O  O13  1  0.79499900  0.78250500  0.66321000  1
  O  O14  1  0.20500100  0.78250500  0.66321000  1
  O  O15  1  0.00000000  0.78655400  0.45609300  1
loop_
_geom_bond_atom_site_label_1
_geom_bond_atom_site_label_2
_geom_bond_distance
_geom_bond_site_symmetry_2
Li0 O8 2.104808 1_555
Li0 O7 2.115621 1_566
Li0 O5 2.158943 1_565
Li0 O10 2.161329 1_556
Li0 O4 2.235118 1_566
Li0 O11 2.259002 1_555
Li1 O8 2.104808 1_655
Li1 O7 2.115621 1_566
Li1 O6 2.158943 1_565
Li1 O9 2.161329 1_556
Li1 O4 2.235118 1_666
Li1 O11 2.259002 1_555
Li2 O15 2.101206 1_655
Li2 O0 2.138633 1_555
Li2 O2 2.151447 1_555
Li2 O13 2.173109 1_555
Li2 O3 2.207541 1_655
Li2 O12 2.220987 1_555
Li3 O15 2.101206 1_555
Li3 O0 2.138633 1_555
Li3 O1 2.151447 1_555
Li3 O14 2.173109 1_555
Li3 O3 2.207541 1_555
Li3 O12 2.220987 1_555
Mn0 O2 2.139385 1_455
Mn0 O1 2.139385 1_555
Mn0 O15 2.144036 1_545
Mn0 O4 2.260508 1_555
Mn0 O10 2.285982 1_545
Mn0 O9 2.285982 1_445
Mn1 O5 2.147448 1_555
Mn1 O6 2.147448 1_455
Mn1 O8 2.149980 1_555
Mn1 O3 2.231357 1_555
Mn1 O14 2.281145 1_555
Mn1 O13 2.281145 1_455
Mn2 O9 2.137013 1_555
Mn2 O10 2.137013 1_555
Mn2 O7 2.165148 1_555
Mn2 O12 2.241114 1_555
Mn2 O2 2.279210 1_555
Mn2 O1 2.279210 1_555
Ni0 O0 2.078137 1_565
Ni0 O14 2.123471 1_555
Ni0 O13 2.123471 1_555
Ni0 O5 2.179819 1_565
Ni0 O6 2.179819 1_565
Ni0 O11 2.180378 1_555
O0 P0 1.556146 1_555
O1 P0 1.571298 1_555
O2 P0 1.571298 1_555
O3 P3 1.537040 1_545
O4 P2 1.537423 1_555
O5 P1 1.571992 1_555
O6 P1 1.571992 1_555
O7 P1 1.555250 1_554
O8 P2 1.552928 1_556
O9 P2 1.568685 1_655
O10 P2 1.568685 1_555
O11 P1 1.538460 1_555
O12 P0 1.535951 1_565
O13 P3 1.574797 1_655
O14 P3 1.574797 1_555
O15 P3 1.556835 1_555
