# generated using pymatgen
data_LiCrBO3
_symmetry_space_group_name_H-M   'P 1'
_cell_length_a   5.27102398
_cell_length_b   7.91078378
_cell_length_c   6.01422163
_cell_angle_alpha   97.74885929
_cell_angle_beta   93.67002101
_cell_angle_gamma   88.48406783
_symmetry_Int_Tables_number   1
_chemical_formula_structural   LiCrBO3
_chemical_formula_sum   'Li4 Cr4 B4 O12'
_cell_volume   247.94073270
_cell_formula_units_Z   4
loop_
 _symmetry_equiv_pos_site_id
 _symmetry_equiv_pos_as_xyz
  1  'x, y, z'
loop_
 _atom_site_type_symbol
 _atom_site_label
 _atom_site_symmetry_multiplicity
 _atom_site_fract_x
 _atom_site_fract_y
 _atom_site_fract_z
 _atom_site_occupancy
  Li  Li0  1  0.41594100  0.65206800  0.96284800  1
  Li  Li1  1  0.91590800  0.15214200  0.46286000  1
  Li  Li2  1  0.58408500  0.34785900  0.03714000  1
  Li  Li3  1  0.08405800  0.84792800  0.53714900  1
  Cr  Cr0  1  0.40143500  0.98809800  0.23839700  1
  Cr  Cr1  1  0.09857900  0.51189800  0.26159800  1
  Cr  Cr2  1  0.90149200  0.48818400  0.73856600  1
  Cr  Cr3  1  0.59851700  0.01182700  0.76144500  1
  B  B0  1  0.90193900  0.83187200  0.09138400  1
  B  B1  1  0.40191500  0.33182800  0.59135600  1
  B  B2  1  0.09808500  0.16817500  0.90864200  1
  B  B3  1  0.59805300  0.66812300  0.40861700  1
  O  O0  1  0.04296200  0.68354700  0.02331700  1
  O  O1  1  0.54287600  0.18349900  0.52323000  1
  O  O2  1  0.95712400  0.31649800  0.97676500  1
  O  O3  1  0.45702700  0.81645200  0.47669700  1
  O  O4  1  0.64980700  0.84711500  0.00328700  1
  O  O5  1  0.14978600  0.34714700  0.50335700  1
  O  O6  1  0.35021700  0.15285200  0.99664100  1
  O  O7  1  0.85018700  0.65288400  0.49671400  1
  O  O8  1  0.50015700  0.45765300  0.75211500  1
  O  O9  1  0.00008300  0.95769300  0.25211900  1
  O  O10  1  0.49991700  0.54231400  0.24787900  1
  O  O11  1  0.99984800  0.04234200  0.74787800  1
loop_
_geom_bond_atom_site_label_1
_geom_bond_atom_site_label_2
_geom_bond_distance
_geom_bond_site_symmetry_2
Li0 O8 1.918066 1_555
Li0 O4 1.980041 1_556
Li0 O0 2.024984 1_556
Li0 O10 2.042614 1_556
Li1 O9 1.918229 1_645
Li1 O5 1.979815 1_655
Li1 O1 2.025053 1_555
Li1 O11 2.042710 1_555
Li2 O10 1.918247 1_555
Li2 O6 1.979794 1_554
Li2 O2 2.025098 1_554
Li2 O8 2.042712 1_554
Li3 O11 1.918039 1_465
Li3 O7 1.980040 1_455
Li3 O3 2.024908 1_555
Li3 O9 2.042654 1_555
Cr0 O6 2.080324 1_564
Cr0 O3 2.105618 1_555
Cr0 O9 2.143545 1_555
Cr0 O4 2.166029 1_555
Cr0 O1 2.250155 1_565
Cr1 O5 2.080317 1_555
Cr1 O0 2.105559 1_555
Cr1 O10 2.143482 1_555
Cr1 O7 2.166127 1_455
Cr1 O2 2.250172 1_454
Cr2 O7 2.080497 1_555
Cr2 O2 2.105406 1_555
Cr2 O8 2.143478 1_555
Cr2 O5 2.166315 1_655
Cr2 O0 2.249703 1_656
Cr3 O4 2.080513 1_546
Cr3 O1 2.105401 1_555
Cr3 O11 2.143451 1_555
Cr3 O6 2.166247 1_555
Cr3 O3 2.249780 1_545
B0 O9 1.377164 1_655
B0 O0 1.400071 1_655
B0 O4 1.407158 1_555
B1 O8 1.377449 1_555
B1 O1 1.400000 1_555
B1 O5 1.407018 1_555
B2 O11 1.377498 1_455
B2 O2 1.399959 1_455
B2 O6 1.407036 1_555
B3 O10 1.377100 1_555
B3 O3 1.400121 1_555
B3 O7 1.407164 1_555
