# generated using pymatgen
data_Li2Mn2SbO6
_symmetry_space_group_name_H-M   'P 1'
_cell_length_a   5.36401850
_cell_length_b   5.36401850
_cell_length_c   10.29111800
_cell_angle_alpha   90.00000000
_cell_angle_beta   90.00000000
_cell_angle_gamma   117.33436209
_symmetry_Int_Tables_number   1
_chemical_formula_structural   Li2Mn2SbO6
_chemical_formula_sum   'Li4 Mn4 Sb2 O12'
_cell_volume   263.04090580
_cell_formula_units_Z   2
loop_
 _symmetry_equiv_pos_site_id
 _symmetry_equiv_pos_as_xyz
  1  'x, y, z'
loop_
 _atom_site_type_symbol
 _atom_site_label
 _atom_site_symmetry_multiplicity
 _atom_site_fract_x
 _atom_site_fract_y
 _atom_site_fract_z
 _atom_site_occupancy
  Li  Li0  1  0.60720400  0.10720400  0.75000000  1
  Li  Li1  1  0.89279600  0.39279600  0.25000000  1
  Li  Li2  1  0.10720400  0.60720400  0.75000000  1
  Li  Li3  1  0.39279600  0.89279600  0.25000000  1
  Mn  Mn0  1  0.83426300  0.16573700  0.50000000  1
  Mn  Mn1  1  0.66573700  0.33426300  0.00000000  1
  Mn  Mn2  1  0.33426300  0.66573700  0.00000000  1
  Mn  Mn3  1  0.16573700  0.83426300  0.50000000  1
  Sb  Sb0  1  0.00000000  0.00000000  0.00000000  1
  Sb  Sb1  1  0.50000000  0.50000000  0.50000000  1
  O  O0  1  0.70869300  0.04457100  0.11381500  1
  O  O1  1  0.29130700  0.95542900  0.88618500  1
  O  O2  1  0.54457100  0.20869300  0.38618500  1
  O  O3  1  0.79130700  0.45542900  0.61381500  1
  O  O4  1  0.18177400  0.18177400  0.58871700  1
  O  O5  1  0.31822600  0.31822600  0.08871700  1
  O  O6  1  0.68177400  0.68177400  0.91128300  1
  O  O7  1  0.95542900  0.29130700  0.88618500  1
  O  O8  1  0.81822600  0.81822600  0.41128300  1
  O  O9  1  0.20869300  0.54457100  0.38618500  1
  O  O10  1  0.45542900  0.79130700  0.61381500  1
  O  O11  1  0.04457100  0.70869300  0.11381500  1
loop_
_geom_bond_atom_site_label_1
_geom_bond_atom_site_label_2
_geom_bond_distance
_geom_bond_site_symmetry_2
Li0 O1 2.057023 1_545
Li0 O10 2.057023 1_545
Li0 O3 2.175866 1_555
Li0 O7 2.175866 1_555
Li1 O11 2.057023 1_655
Li1 O9 2.057023 1_655
Li1 O2 2.175866 1_555
Li1 O0 2.175866 1_555
Li2 O7 2.057023 1_455
Li2 O3 2.057023 1_455
Li2 O1 2.175866 1_555
Li2 O10 2.175866 1_555
Li3 O0 2.057023 1_565
Li3 O2 2.057023 1_565
Li3 O9 2.175866 1_555
Li3 O11 2.175866 1_555
Mn0 O4 2.041667 1_655
Mn0 O8 2.041667 1_545
Mn0 O3 2.041681 1_555
Mn0 O2 2.041681 1_555
Mn0 O10 2.405610 1_545
Mn0 O9 2.405610 1_655
Mn1 O5 2.041667 1_555
Mn1 O6 2.041667 1_554
Mn1 O7 2.041681 1_554
Mn1 O0 2.041681 1_555
Mn1 O11 2.405610 1_655
Mn1 O1 2.405610 1_544
Mn2 O5 2.041667 1_555
Mn2 O6 2.041667 1_554
Mn2 O1 2.041681 1_554
Mn2 O11 2.041681 1_555
Mn2 O0 2.405610 1_565
Mn2 O7 2.405610 1_454
Mn3 O4 2.041667 1_565
Mn3 O8 2.041667 1_455
Mn3 O9 2.041681 1_555
Mn3 O10 2.041681 1_555
Mn3 O3 2.405610 1_455
Mn3 O2 2.405610 1_565
O0 Sb0 2.052752 1_655
O1 Sb0 2.052752 1_566
O2 Sb1 2.052752 1_555
O3 Sb1 2.052752 1_555
O4 Sb1 1.996290 1_555
O5 Sb0 1.996290 1_555
O6 Sb0 1.996290 1_666
O7 Sb0 2.052752 1_656
O8 Sb1 1.996290 1_555
O9 Sb1 2.052752 1_555
O10 Sb1 2.052752 1_555
O11 Sb0 2.052752 1_565
