# generated using pymatgen
data_Li3V3P8O29
_symmetry_space_group_name_H-M   'P 1'
_cell_length_a   9.74443496
_cell_length_b   9.74443496
_cell_length_c   14.04039518
_cell_angle_alpha   89.99214262
_cell_angle_beta   89.99214262
_cell_angle_gamma   59.88117269
_symmetry_Int_Tables_number   1
_chemical_formula_structural   Li3V3P8O29
_chemical_formula_sum   'Li6 V6 P16 O58'
_cell_volume   1153.19305297
_cell_formula_units_Z   2
loop_
 _symmetry_equiv_pos_site_id
 _symmetry_equiv_pos_as_xyz
  1  'x, y, z'
loop_
 _atom_site_type_symbol
 _atom_site_label
 _atom_site_symmetry_multiplicity
 _atom_site_fract_x
 _atom_site_fract_y
 _atom_site_fract_z
 _atom_site_occupancy
  Li  Li0  1  0.66941700  0.23489800  0.05821700  1
  Li  Li1  1  0.23489800  0.66941700  0.55821700  1
  Li  Li2  1  0.23582700  0.09487700  0.05886400  1
  Li  Li3  1  0.09487700  0.23582700  0.55886400  1
  Li  Li4  1  0.01507500  0.95852000  0.99959800  1
  Li  Li5  1  0.95852000  0.01507500  0.49959800  1
  V  V0  1  0.00157100  0.56704900  0.24616200  1
  V  V1  1  0.99775500  0.43756900  0.75490100  1
  V  V2  1  0.56704900  0.00157100  0.74616200  1
  V  V3  1  0.43756900  0.99775500  0.25490100  1
  V  V4  1  0.56501700  0.43750300  0.25294700  1
  V  V5  1  0.43750300  0.56501700  0.75294700  1
  P  P0  1  0.68889600  0.22344000  0.84209800  1
  P  P1  1  0.69298900  0.08495700  0.34439600  1
  P  P2  1  0.22344000  0.68889600  0.34209800  1
  P  P3  1  0.33559600  0.33045800  0.12941500  1
  P  P4  1  0.33045800  0.33559600  0.62941500  1
  P  P5  1  0.08495700  0.69298900  0.84439600  1
  P  P6  1  0.91599700  0.77511200  0.65809100  1
  P  P7  1  0.22858700  0.08597300  0.84346000  1
  P  P8  1  0.77511200  0.91599700  0.15809100  1
  P  P9  1  0.08597300  0.22858700  0.34346000  1
  P  P10  1  0.91463000  0.30914500  0.15905600  1
  P  P11  1  0.67099200  0.66519000  0.37032800  1
  P  P12  1  0.66519000  0.67099200  0.87032800  1
  P  P13  1  0.77833900  0.30842700  0.65751500  1
  P  P14  1  0.30914500  0.91463000  0.65905600  1
  P  P15  1  0.30842700  0.77833900  0.15751500  1
  O  O0  1  0.79183900  0.21325300  0.57241800  1
  O  O1  1  0.65432200  0.25991300  0.33126900  1
  O  O2  1  0.78261200  0.00446000  0.07350800  1
  O  O3  1  0.65780000  0.08345800  0.83118600  1
  O  O4  1  0.52806100  0.38113400  0.82518200  1
  O  O5  1  0.48695300  0.32929800  0.16954100  1
  O  O6  1  0.38113400  0.52806100  0.32518200  1
  O  O7  1  0.21325300  0.79183900  0.07241800  1
  O  O8  1  0.25991300  0.65432200  0.83126900  1
  O  O9  1  0.47908700  0.18717500  0.67515300  1
  O  O10  1  0.53380200  0.08489200  0.32955600  1
  O  O11  1  0.32929800  0.48695300  0.66954100  1
  O  O12  1  0.33419200  0.32642500  0.02357600  1
  O  O13  1  0.32642500  0.33419200  0.52357600  1
  O  O14  1  0.18717500  0.47908700  0.17515300  1
  O  O15  1  0.38353700  0.08876200  0.82592800  1
  O  O16  1  0.33173900  0.18300600  0.17295200  1
  O  O17  1  0.08345800  0.65780000  0.33118600  1
  O  O18  1  0.99740600  0.79865400  0.75194800  1
  O  O19  1  0.00446000  0.78261200  0.57350800  1
  O  O20  1  0.00801500  0.78361200  0.93140400  1
  O  O21  1  0.08489200  0.53380200  0.82955600  1
  O  O22  1  0.18300600  0.33173900  0.67295200  1
  O  O23  1  0.91389900  0.74215000  0.16344800  1
  O  O24  1  0.08876200  0.38353600  0.32592800  1
  O  O25  1  0.25831700  0.08611700  0.33172000  1
  O  O26  1  0.79865400  0.99740600  0.25194800  1
  O  O27  1  0.78361200  0.00801500  0.43140400  1
  O  O28  1  0.21018100  0.00796800  0.57643900  1
  O  O29  1  0.74215000  0.91389900  0.66344800  1
  O  O30  1  0.91623300  0.61743200  0.67274500  1
  O  O31  1  0.08611700  0.25831700  0.83172000  1
  O  O32  1  0.81645000  0.66372100  0.32314800  1
  O  O33  1  0.91351700  0.46773400  0.17162600  1
  O  O34  1  0.00796800  0.21018100  0.07643900  1
  O  O35  1  0.01464100  0.22052000  0.43553800  1
  O  O36  1  0.98965500  0.20975400  0.25662100  1
  O  O37  1  0.91731100  0.34474500  0.66313400  1
  O  O38  1  0.66372100  0.81645000  0.82314800  1
  O  O39  1  0.61743200  0.91623300  0.17274500  1
  O  O40  1  0.81396600  0.52109500  0.82429600  1
  O  O41  1  0.66358800  0.66694200  0.97535200  1
  O  O42  1  0.66694200  0.66358800  0.47535200  1
  O  O43  1  0.66544200  0.51911400  0.32319800  1
  O  O44  1  0.46773400  0.91351700  0.67162600  1
  O  O45  1  0.52109500  0.81396600  0.32429600  1
  O  O46  1  0.74138600  0.34106200  0.15975800  1
  O  O47  1  0.80085700  0.20715500  0.75446400  1
  O  O48  1  0.76423400  0.22197700  0.93452500  1
  O  O49  1  0.61854100  0.46584200  0.67305800  1
  O  O50  1  0.51911400  0.66544200  0.82319800  1
  O  O51  1  0.46584200  0.61854100  0.17305800  1
  O  O52  1  0.34474500  0.91731100  0.16313400  1
  O  O53  1  0.22052000  0.01464100  0.93553800  1
  O  O54  1  0.20975400  0.98965500  0.75662100  1
  O  O55  1  0.34106200  0.74138600  0.65975800  1
  O  O56  1  0.22197700  0.76423400  0.43452500  1
  O  O57  1  0.20715500  0.80085700  0.25446400  1
loop_
_geom_bond_atom_site_label_1
_geom_bond_atom_site_label_2
_geom_bond_distance
_geom_bond_site_symmetry_2
Li0 O48 1.941252 1_554
Li0 O2 1.954274 1_555
Li0 O46 2.079268 1_555
Li0 O5 2.192891 1_555
Li1 O56 1.941252 1_555
Li1 O19 1.954274 1_555
Li1 O55 2.079268 1_555
Li1 O11 2.192891 1_555
Li2 O53 1.936305 1_554
Li2 O34 1.936370 1_555
Li2 O52 2.102453 1_545
Li2 O16 2.232296 1_555
Li3 O35 1.936305 1_555
Li3 O28 1.936370 1_555
Li3 O37 2.102453 1_455
Li3 O22 2.232296 1_555
Li4 O20 1.986085 1_555
Li4 O7 2.065173 1_556
Li4 O2 2.321700 1_466
Li4 O53 2.492774 1_565
Li4 O34 2.648167 1_566
Li4 O48 2.665038 1_465
Li5 O27 1.986085 1_555
Li5 O0 2.065173 1_555
Li5 O19 2.321700 1_645
Li5 O35 2.492774 1_655
Li5 O28 2.648167 1_655
Li5 O56 2.665038 1_645
O0 P13 1.477418 1_555
O1 P1 1.561315 1_555
O1 V4 1.857322 1_555
O2 P8 1.490533 1_545
O3 P0 1.546217 1_555
O3 V2 1.884817 1_555
O4 P0 1.567480 1_555
O4 V5 1.852263 1_555
O5 P3 1.573633 1_555
O5 V4 1.966545 1_555
O6 P2 1.567480 1_555
O6 V4 1.852263 1_555
O7 P15 1.477418 1_555
O8 P5 1.561315 1_555
O8 V5 1.857322 1_555
O9 P4 1.580991 1_555
O9 V2 1.855718 1_555
O10 P1 1.565462 1_555
O10 V3 1.870460 1_545
O11 P4 1.573633 1_555
O11 V5 1.966545 1_555
O12 P3 1.486793 1_555
O13 P4 1.486793 1_555
O14 P3 1.580991 1_555
O14 V0 1.855718 1_555
O15 P7 1.543440 1_555
O15 V2 1.910187 1_555
O16 P3 1.579088 1_555
O16 V3 1.943571 1_545
O17 P2 1.546217 1_555
O17 V0 1.884817 1_555
O18 P5 1.609717 1_655
O18 P6 1.612917 1_555
O19 P6 1.490533 1_455
O20 P5 1.473058 1_555
O21 P5 1.565462 1_555
O21 V1 1.870460 1_455
O22 P4 1.579088 1_555
O22 V1 1.943571 1_455
O23 P8 1.550860 1_555
O23 V0 1.877950 1_655
O24 P9 1.543431 1_555
O24 V0 1.910194 1_555
O25 P9 1.560454 1_555
O25 V3 1.856353 1_545
O26 P1 1.609717 1_565
O26 P8 1.612917 1_555
O27 P1 1.473058 1_555
O28 P14 1.490811 1_545
O29 P6 1.550860 1_555
O29 V2 1.877950 1_565
O30 P6 1.549046 1_555
O30 V1 1.906791 1_555
O31 P7 1.560454 1_555
O31 V1 1.856353 1_455
O32 P11 1.558023 1_555
O32 V0 1.898464 1_655
O33 P10 1.550051 1_555
O33 V0 1.897862 1_655
O34 P10 1.490811 1_455
O35 P9 1.488373 1_555
O36 P9 1.604493 1_655
O36 P10 1.624281 1_555
O37 P13 1.564079 1_555
O37 V1 1.950612 1_555
O38 P12 1.558023 1_555
O38 V2 1.898464 1_565
O39 P8 1.549046 1_555
O39 V3 1.906791 1_555
O40 P12 1.589909 1_555
O40 V1 1.831946 1_555
O41 P12 1.475391 1_555
O42 P11 1.475391 1_555
O43 P11 1.595142 1_555
O43 V4 1.828782 1_555
O44 P14 1.550051 1_555
O44 V2 1.897862 1_565
O45 P11 1.589909 1_555
O45 V3 1.831946 1_555
O46 P10 1.555570 1_555
O46 V4 1.981808 1_555
O47 P0 1.598535 1_555
O47 P13 1.630113 1_555
O48 P0 1.487600 1_555
O49 P13 1.558242 1_555
O49 V5 1.895513 1_555
O50 P12 1.595142 1_555
O50 V5 1.828782 1_555
O51 P15 1.558242 1_555
O51 V4 1.895513 1_555
O52 P15 1.564079 1_555
O52 V3 1.950612 1_555
O53 P7 1.488373 1_555
O54 P7 1.604493 1_565
O54 P14 1.624281 1_555
O55 P14 1.555570 1_555
O55 V5 1.981808 1_555
O56 P2 1.487600 1_555
O57 P2 1.598535 1_555
O57 P15 1.630113 1_555
