# generated using pymatgen
data_RbC3S2(O2F3)2
_symmetry_space_group_name_H-M   'P 1'
_cell_length_a   12.13133961
_cell_length_b   12.13133961
_cell_length_c   17.32140921
_cell_angle_alpha   80.72060340
_cell_angle_beta   80.72060340
_cell_angle_gamma   26.06090736
_symmetry_Int_Tables_number   1
_chemical_formula_structural   RbC3S2(O2F3)2
_chemical_formula_sum   'Rb4 C12 S8 O16 F24'
_cell_volume   1104.47656508
_cell_formula_units_Z   4
loop_
 _symmetry_equiv_pos_site_id
 _symmetry_equiv_pos_as_xyz
  1  'x, y, z'
loop_
 _atom_site_type_symbol
 _atom_site_label
 _atom_site_symmetry_multiplicity
 _atom_site_fract_x
 _atom_site_fract_y
 _atom_site_fract_z
 _atom_site_occupancy
  Rb  Rb0  1  0.56718900  0.49586400  0.11040000  1
  Rb  Rb1  1  0.50413600  0.43281100  0.38960000  1
  Rb  Rb2  1  0.43281100  0.50413600  0.88960000  1
  Rb  Rb3  1  0.49586400  0.56718900  0.61040000  1
  C  C0  1  0.90335900  0.75779000  0.05047700  1
  C  C1  1  0.24221000  0.09664100  0.44952300  1
  C  C2  1  0.09664100  0.24221000  0.94952300  1
  C  C3  1  0.75779000  0.90335900  0.55047700  1
  C  C4  1  0.03333900  0.63335100  0.29482500  1
  C  C5  1  0.36664900  0.96666100  0.20517500  1
  C  C6  1  0.96666100  0.36664900  0.70517500  1
  C  C7  1  0.63335100  0.03333900  0.79482500  1
  C  C8  1  0.86351200  0.94859800  0.16336700  1
  C  C9  1  0.05140200  0.13648800  0.33663300  1
  C  C10  1  0.13648800  0.05140200  0.83663300  1
  C  C11  1  0.94859800  0.86351200  0.66336700  1
  S  S0  1  0.93824200  0.87322900  0.07157900  1
  S  S1  1  0.12677100  0.06175800  0.42842100  1
  S  S2  1  0.06175800  0.12677100  0.92842100  1
  S  S3  1  0.87322900  0.93824200  0.57157900  1
  S  S4  1  0.01258800  0.80145700  0.24554900  1
  S  S5  1  0.19854300  0.98741200  0.25445100  1
  S  S6  1  0.98741200  0.19854300  0.75445100  1
  S  S7  1  0.80145700  0.01258800  0.74554900  1
  O  O0  1  0.75972900  0.09430700  0.01958700  1
  O  O1  1  0.90569300  0.24027100  0.48041300  1
  O  O2  1  0.24027100  0.90569300  0.98041300  1
  O  O3  1  0.09430700  0.75972900  0.51958700  1
  O  O4  1  0.20632100  0.65451200  0.05545700  1
  O  O5  1  0.34548800  0.79367900  0.44454300  1
  O  O6  1  0.79367900  0.34548800  0.94454300  1
  O  O7  1  0.65451200  0.20632100  0.55545700  1
  O  O8  1  0.86887900  0.98001100  0.30423000  1
  O  O9  1  0.01998900  0.13112100  0.19577000  1
  O  O10  1  0.13112100  0.01998900  0.69577000  1
  O  O11  1  0.98001100  0.86887900  0.80423000  1
  O  O12  1  0.27694500  0.59449900  0.23069300  1
  O  O13  1  0.40550100  0.72305500  0.26930700  1
  O  O14  1  0.72305500  0.40550100  0.76930700  1
  O  O15  1  0.59449900  0.27694500  0.73069300  1
  F  F0  1  0.65992400  0.94441400  0.05663500  1
  F  F1  1  0.05558600  0.34007600  0.44336500  1
  F  F2  1  0.34007600  0.05558600  0.94336500  1
  F  F3  1  0.94441400  0.65992400  0.55663500  1
  F  F4  1  0.99211600  0.67674200  0.97602600  1
  F  F5  1  0.32325800  0.00788400  0.52397400  1
  F  F6  1  0.00788400  0.32325800  0.02397400  1
  F  F7  1  0.67674200  0.99211600  0.47602600  1
  F  F8  1  0.03567900  0.56571000  0.09971900  1
  F  F9  1  0.43429000  0.96432100  0.40028100  1
  F  F10  1  0.96432100  0.43429000  0.90028100  1
  F  F11  1  0.56571000  0.03567900  0.59971900  1
  F  F12  1  0.80303600  0.79515500  0.31217500  1
  F  F13  1  0.20484500  0.19696400  0.18782500  1
  F  F14  1  0.19696400  0.20484500  0.68782500  1
  F  F15  1  0.79515500  0.80303600  0.81217500  1
  F  F16  1  0.16357200  0.45357600  0.25002800  1
  F  F17  1  0.54642400  0.83642800  0.24997200  1
  F  F18  1  0.83642800  0.54642400  0.74997200  1
  F  F19  1  0.45357600  0.16357200  0.75002800  1
  F  F20  1  0.15559800  0.52305200  0.36269700  1
  F  F21  1  0.47694800  0.84440200  0.13730300  1
  F  F22  1  0.84440200  0.47694800  0.63730300  1
  F  F23  1  0.52305200  0.15559800  0.86269700  1
loop_
_geom_bond_atom_site_label_1
_geom_bond_atom_site_label_2
_geom_bond_distance
_geom_bond_site_symmetry_2
C0 F8 1.346950 1_655
C0 F0 1.349899 1_555
C0 F4 1.359480 1_554
C1 F9 1.346950 1_545
C1 F1 1.349899 1_555
C1 F5 1.359480 1_555
C2 F10 1.346950 1_455
C2 F2 1.349899 1_555
C2 F6 1.359480 1_556
C3 F11 1.346950 1_565
C3 F3 1.349899 1_555
C3 F7 1.359480 1_555
C4 F16 1.346980 1_555
C4 F12 1.347397 1_455
C4 F20 1.364457 1_555
C5 F17 1.346980 1_555
C5 F13 1.347397 1_565
C5 F21 1.364457 1_555
C6 F18 1.346980 1_555
C6 F14 1.347397 1_655
C6 F22 1.364457 1_555
C7 F19 1.346980 1_555
C7 F15 1.347397 1_545
C7 F23 1.364457 1_555
C8 S4 1.641383 1_655
C8 S0 1.643278 1_555
C9 S5 1.641383 1_545
C9 S1 1.643278 1_555
C10 S6 1.641383 1_455
C10 S2 1.643278 1_555
C11 S7 1.641383 1_565
C11 S3 1.643278 1_555
O0 S0 1.452152 1_545
O0 Rb2 3.059471 1_554
O0 Rb0 3.536098 1_555
O1 S1 1.452152 1_655
O1 Rb3 3.059471 1_555
O1 Rb1 3.536098 1_555
O2 S2 1.452152 1_565
O2 Rb0 3.059471 1_556
O2 Rb2 3.536098 1_555
O3 S3 1.452152 1_455
O3 Rb1 3.059471 1_555
O3 Rb3 3.536098 1_555
O4 S0 1.461958 1_455
O4 Rb2 3.044630 1_554
O4 Rb0 3.064333 1_555
O5 S1 1.461958 1_565
O5 Rb3 3.044630 1_555
O5 Rb1 3.064333 1_555
O6 S2 1.461958 1_655
O6 Rb0 3.044630 1_556
O6 Rb2 3.064333 1_555
O7 S3 1.461958 1_545
O7 Rb1 3.044630 1_555
O7 Rb3 3.064333 1_555
O8 S4 1.455438 1_655
O8 Rb1 2.963056 1_565
O9 S5 1.455438 1_545
O9 Rb0 2.963056 1_455
O10 S6 1.455438 1_455
O10 Rb3 2.963056 1_545
O11 S7 1.455438 1_565
O11 Rb2 2.963056 1_655
O12 S4 1.459652 1_555
O12 Rb0 3.006577 1_555
O12 Rb1 3.164231 1_555
O13 S5 1.459652 1_555
O13 Rb1 3.006577 1_555
O13 Rb0 3.164231 1_555
O14 S6 1.459652 1_555
O14 Rb2 3.006577 1_555
O14 Rb3 3.164231 1_555
O15 S7 1.459652 1_555
O15 Rb3 3.006577 1_555
O15 Rb2 3.164231 1_555
F20 Rb1 3.383499 1_555
F21 Rb0 3.383499 1_555
F22 Rb3 3.383499 1_555
F23 Rb2 3.383499 1_555
