# generated using pymatgen
data_Li3Cu3(PO4)2
_symmetry_space_group_name_H-M   'P 1'
_cell_length_a   5.44904900
_cell_length_b   6.21412394
_cell_length_c   10.18835654
_cell_angle_alpha   90.12590259
_cell_angle_beta   90.21706227
_cell_angle_gamma   90.55061418
_symmetry_Int_Tables_number   1
_chemical_formula_structural   Li3Cu3(PO4)2
_chemical_formula_sum   'Li6 Cu6 P4 O16'
_cell_volume   344.96934509
_cell_formula_units_Z   2
loop_
 _symmetry_equiv_pos_site_id
 _symmetry_equiv_pos_as_xyz
  1  'x, y, z'
loop_
 _atom_site_type_symbol
 _atom_site_label
 _atom_site_symmetry_multiplicity
 _atom_site_fract_x
 _atom_site_fract_y
 _atom_site_fract_z
 _atom_site_occupancy
  Li  Li0  1  0.15517000  0.00164800  0.74599500  1
  Li  Li1  1  0.15324700  0.00009400  0.24833400  1
  Li  Li2  1  0.32831100  0.75438500  0.49796400  1
  Li  Li3  1  0.32852400  0.75100800  0.99648700  1
  Li  Li4  1  0.67329300  0.74551400  0.74521000  1
  Li  Li5  1  0.84717300  0.49890200  0.49617800  1
  Cu  Cu0  1  0.65666400  0.74495200  0.25149300  1
  Cu  Cu1  1  0.81679000  0.50236400  0.99579800  1
  Cu  Cu2  1  0.66538200  0.26377000  0.74464800  1
  Cu  Cu3  1  0.65742400  0.25439100  0.24789900  1
  Cu  Cu4  1  0.33740400  0.24159200  0.49720800  1
  Cu  Cu5  1  0.33090600  0.24978600  0.99862400  1
  P  P0  1  0.83416200  0.99247500  0.99650200  1
  P  P1  1  0.83053000  0.99259800  0.50238000  1
  P  P2  1  0.17527400  0.50477000  0.25193800  1
  P  P3  1  0.17672600  0.50921200  0.74583400  1
  O  O0  1  0.83600500  0.99127000  0.65556900  1
  O  O1  1  0.09583300  0.98532600  0.44555100  1
  O  O2  1  0.84348000  0.99432400  0.14934300  1
  O  O3  1  0.09930100  0.98638600  0.94048300  1
  O  O4  1  0.68229500  0.79000500  0.45530100  1
  O  O5  1  0.68047400  0.79685700  0.94317300  1
  O  O6  1  0.30228400  0.70909300  0.19321900  1
  O  O7  1  0.32015400  0.70853200  0.69251500  1
  O  O8  1  0.18159700  0.51425600  0.89952200  1
  O  O9  1  0.90818300  0.51456600  0.69265900  1
  O  O10  1  0.17566800  0.51246500  0.40466800  1
  O  O11  1  0.90564700  0.50010600  0.20071300  1
  O  O12  1  0.29754000  0.29288800  0.70071600  1
  O  O13  1  0.29896200  0.29145900  0.20430300  1
  O  O14  1  0.70576300  0.20514100  0.45441300  1
  O  O15  1  0.69983300  0.19986400  0.94795500  1
loop_
_geom_bond_atom_site_label_1
_geom_bond_atom_site_label_2
_geom_bond_distance
_geom_bond_site_symmetry_2
Li0 O0 1.965454 1_445
Li0 O3 2.008211 1_545
Li0 O12 2.017282 1_555
Li0 O7 2.110364 1_545
Li1 O2 1.963002 1_445
Li1 O13 2.022010 1_555
Li1 O1 2.036830 1_545
Li1 O6 2.066898 1_545
Li2 O10 1.954228 1_555
Li2 O4 1.989236 1_555
Li2 O1 1.995641 1_555
Li2 O7 2.003749 1_555
Li3 O8 1.935558 1_555
Li3 O5 2.013013 1_555
Li3 O3 2.014564 1_555
Li3 O6 2.027205 1_556
Li4 O0 1.984607 1_555
Li4 O9 2.005398 1_555
Li4 O7 2.006739 1_555
Li4 O5 2.041474 1_555
Li5 O14 2.018467 1_555
Li5 O10 2.022497 1_655
Li5 O9 2.029964 1_555
Li5 O4 2.069935 1_555
Cu0 O6 2.028178 1_555
Cu0 O4 2.098596 1_555
Cu0 O11 2.113022 1_555
Cu0 O2 2.122628 1_555
Cu1 O15 2.036638 1_555
Cu1 O5 2.053190 1_555
Cu1 O11 2.141476 1_556
Cu1 O8 2.220684 1_655
Cu2 O12 2.061840 1_555
Cu2 O9 2.104553 1_555
Cu2 O15 2.117923 1_555
Cu2 O0 2.141358 1_545
Cu3 O13 2.016968 1_555
Cu3 O11 2.088177 1_555
Cu3 O14 2.142476 1_555
Cu3 O2 2.163314 1_545
Cu4 O14 2.070078 1_555
Cu4 O12 2.109424 1_555
Cu4 O1 2.120485 1_545
Cu4 O10 2.127937 1_555
Cu5 O8 2.099784 1_555
Cu5 O15 2.103139 1_555
Cu5 O13 2.118928 1_556
Cu5 O3 2.138479 1_545
O0 P1 1.560958 1_555
O1 P1 1.560340 1_455
O2 P0 1.557847 1_554
O3 P0 1.556181 1_455
O4 P1 1.562788 1_555
O5 P0 1.564703 1_555
O6 P2 1.561595 1_555
O7 P3 1.558080 1_555
O8 P3 1.566192 1_555
O9 P3 1.559129 1_655
O10 P2 1.556690 1_555
O11 P2 1.557274 1_655
O12 P3 1.571090 1_555
O13 P2 1.569608 1_555
O14 P1 1.569411 1_545
O15 P0 1.568266 1_545
