# generated using pymatgen
data_Na2Fe2C4SO16
_symmetry_space_group_name_H-M   'P 1'
_cell_length_a   9.92589942
_cell_length_b   9.87591033
_cell_length_c   9.86701280
_cell_angle_alpha   60.36516422
_cell_angle_beta   59.86181461
_cell_angle_gamma   59.77302117
_symmetry_Int_Tables_number   1
_chemical_formula_structural   Na2Fe2C4SO16
_chemical_formula_sum   'Na4 Fe4 C8 S2 O32'
_cell_volume   683.89688579
_cell_formula_units_Z   2
loop_
 _symmetry_equiv_pos_site_id
 _symmetry_equiv_pos_as_xyz
  1  'x, y, z'
loop_
 _atom_site_type_symbol
 _atom_site_label
 _atom_site_symmetry_multiplicity
 _atom_site_fract_x
 _atom_site_fract_y
 _atom_site_fract_z
 _atom_site_occupancy
  Na  Na0  1  0.96083200  0.53916800  0.96083200  1
  Na  Na1  1  0.53916700  0.96083300  0.53916700  1
  Na  Na2  1  0.71083200  0.28916700  0.71083300  1
  Na  Na3  1  0.28916700  0.71083200  0.28916800  1
  Fe  Fe0  1  0.12500000  0.62500000  0.12500000  1
  Fe  Fe1  1  0.62500000  0.12500000  0.12500000  1
  Fe  Fe2  1  0.12500000  0.12500000  0.62500000  1
  Fe  Fe3  1  0.12500000  0.12500000  0.12500000  1
  C  C0  1  0.33635700  0.33414400  0.98770400  1
  C  C1  1  0.33414400  0.33635700  0.34179500  1
  C  C2  1  0.34179500  0.98770400  0.33414400  1
  C  C3  1  0.98770400  0.34179500  0.33635700  1
  C  C4  1  0.26229600  0.90820500  0.91364300  1
  C  C5  1  0.90820500  0.26229600  0.91585600  1
  C  C6  1  0.91585600  0.91364300  0.90820500  1
  C  C7  1  0.91364300  0.91585600  0.26229600  1
  S  S0  1  0.75000000  0.75000000  0.75000000  1
  S  S1  1  0.50000000  0.50000000  0.50000000  1
  O  O0  1  0.21870100  0.47565800  0.99123600  1
  O  O1  1  0.30929900  0.21817600  0.98996200  1
  O  O2  1  0.47565800  0.21870100  0.31440500  1
  O  O3  1  0.21817600  0.30929900  0.48256200  1
  O  O4  1  0.93991100  0.76856400  0.01899700  1
  O  O5  1  0.48256200  0.98996200  0.21817600  1
  O  O6  1  0.76856400  0.93991100  0.27252800  1
  O  O7  1  0.23100300  0.97747200  0.31008900  1
  O  O8  1  0.31440500  0.99123600  0.47565800  1
  O  O9  1  0.68915800  0.93424600  0.68947700  1
  O  O10  1  0.27252800  0.01899700  0.76856400  1
  O  O11  1  0.56288100  0.56052300  0.31575400  1
  O  O12  1  0.98996200  0.48256200  0.30929900  1
  O  O13  1  0.99123600  0.31440500  0.21870100  1
  O  O14  1  0.93424600  0.68915800  0.68711900  1
  O  O15  1  0.68947700  0.68711900  0.68915800  1
  O  O16  1  0.56052300  0.56288100  0.56084200  1
  O  O17  1  0.31575400  0.56084200  0.56288100  1
  O  O18  1  0.25876400  0.93559500  0.03129900  1
  O  O19  1  0.26003800  0.76743800  0.94070100  1
  O  O20  1  0.68711900  0.68947700  0.93424600  1
  O  O21  1  0.97747200  0.23100300  0.48143600  1
  O  O22  1  0.56084200  0.31575400  0.56052300  1
  O  O23  1  0.93559500  0.25876400  0.77434200  1
  O  O24  1  0.01899700  0.27252800  0.93991100  1
  O  O25  1  0.48143600  0.31008900  0.97747200  1
  O  O26  1  0.76743800  0.26003800  0.03182400  1
  O  O27  1  0.31008900  0.48143600  0.23100300  1
  O  O28  1  0.03182400  0.94070100  0.76743800  1
  O  O29  1  0.77434200  0.03129900  0.93559500  1
  O  O30  1  0.94070100  0.03182400  0.26003800  1
  O  O31  1  0.03129900  0.77434200  0.25876400  1
loop_
_geom_bond_atom_site_label_1
_geom_bond_atom_site_label_2
_geom_bond_distance
_geom_bond_site_symmetry_2
Na0 O20 2.433839 1_555
Na0 O14 2.433839 1_555
Na0 O13 2.450189 1_556
Na0 O0 2.450189 1_655
Na0 O4 2.489465 1_556
Na0 O24 2.489465 1_655
Na1 O15 2.433851 1_555
Na1 O9 2.433851 1_555
Na1 O8 2.450178 1_555
Na1 O2 2.450178 1_565
Na1 O6 2.489463 1_555
Na1 O10 2.489463 1_565
Na2 O22 2.433842 1_555
Na2 O16 2.433847 1_555
Na2 O29 2.450180 1_555
Na2 O23 2.450187 1_555
Na2 O25 2.489460 1_555
Na2 O21 2.489468 1_555
Na3 O17 2.433842 1_555
Na3 O11 2.433847 1_555
Na3 O31 2.450180 1_555
Na3 O18 2.450187 1_555
Na3 O27 2.489460 1_555
Na3 O7 2.489468 1_555
Fe0 O19 2.000833 1_554
Fe0 O12 2.000833 1_455
Fe0 O0 2.023267 1_554
Fe0 O31 2.023267 1_555
Fe0 O4 2.078414 1_455
Fe0 O27 2.078414 1_555
Fe1 O26 2.000835 1_555
Fe1 O5 2.000835 1_545
Fe1 O2 2.023267 1_555
Fe1 O29 2.023267 1_554
Fe1 O25 2.078414 1_554
Fe1 O6 2.078414 1_545
Fe2 O3 2.000827 1_555
Fe2 O28 2.000827 1_545
Fe2 O23 2.023267 1_455
Fe2 O8 2.023267 1_545
Fe2 O10 2.078414 1_555
Fe2 O21 2.078414 1_455
Fe3 O30 2.000827 1_455
Fe3 O1 2.000827 1_554
Fe3 O13 2.023267 1_455
Fe3 O18 2.023267 1_545
Fe3 O24 2.078414 1_554
Fe3 O7 2.078414 1_545
C0 O1 1.289488 1_555
C0 O25 1.293686 1_555
C0 O0 1.297019 1_555
C1 O3 1.289482 1_555
C1 O27 1.293686 1_555
C1 O2 1.297019 1_555
C2 O5 1.289481 1_555
C2 O7 1.293686 1_555
C2 O8 1.297019 1_555
C3 O12 1.289478 1_555
C3 O21 1.293686 1_555
C3 O13 1.297019 1_555
C4 O19 1.289478 1_555
C4 O10 1.293686 1_565
C4 O18 1.297019 1_556
C5 O26 1.289481 1_556
C5 O24 1.293686 1_655
C5 O23 1.297019 1_555
C6 O28 1.289482 1_655
C6 O4 1.293686 1_556
C6 O29 1.297019 1_565
C7 O30 1.289488 1_565
C7 O6 1.293686 1_555
C7 O31 1.297019 1_655
O9 S0 1.487750 1_555
O11 S1 1.487750 1_555
O14 S0 1.487750 1_555
O15 S0 1.487750 1_555
O16 S1 1.487750 1_555
O17 S1 1.487750 1_555
O20 S0 1.487750 1_555
O22 S1 1.487750 1_555
