# generated using pymatgen
data_Li4Mn3Nb2Ni3O16
_symmetry_space_group_name_H-M   'P 1'
_cell_length_a   5.93241289
_cell_length_b   5.93241289
_cell_length_c   9.64334594
_cell_angle_alpha   89.40099853
_cell_angle_beta   89.40099853
_cell_angle_gamma   59.46942878
_symmetry_Int_Tables_number   1
_chemical_formula_structural   Li4Mn3Nb2Ni3O16
_chemical_formula_sum   'Li4 Mn3 Nb2 Ni3 O16'
_cell_volume   292.30942303
_cell_formula_units_Z   1
loop_
 _symmetry_equiv_pos_site_id
 _symmetry_equiv_pos_as_xyz
  1  'x, y, z'
loop_
 _atom_site_type_symbol
 _atom_site_label
 _atom_site_symmetry_multiplicity
 _atom_site_fract_x
 _atom_site_fract_y
 _atom_site_fract_z
 _atom_site_occupancy
  Li  Li0  1  0.66393100  0.66393100  0.10196700  1
  Li  Li1  1  0.00184000  0.00184000  0.01070800  1
  Li  Li2  1  0.00362500  0.00362500  0.50402100  1
  Li  Li3  1  0.32728600  0.32728600  0.59818100  1
  Mn  Mn0  1  0.33987900  0.83435100  0.78443700  1
  Mn  Mn1  1  0.83435100  0.33987900  0.78443700  1
  Mn  Mn2  1  0.17244200  0.17244200  0.28075400  1
  Nb  Nb0  1  0.67026400  0.67026400  0.50169900  1
  Nb  Nb1  1  0.34814700  0.34814700  0.01449300  1
  Ni  Ni0  1  0.83076600  0.83076600  0.78580700  1
  Ni  Ni1  1  0.16874700  0.66242000  0.28737900  1
  Ni  Ni2  1  0.66242000  0.16874700  0.28737900  1
  O  O0  1  0.33670100  0.84453400  0.40528600  1
  O  O1  1  0.51742000  0.51742000  0.66984700  1
  O  O2  1  0.65714600  0.65714600  0.88982600  1
  O  O3  1  0.00755700  0.00755700  0.69231600  1
  O  O4  1  0.00799500  0.00799500  0.19572700  1
  O  O5  1  0.84453400  0.33670100  0.40528600  1
  O  O6  1  0.50171900  0.95849100  0.66122100  1
  O  O7  1  0.95849100  0.50171900  0.66122100  1
  O  O8  1  0.16140100  0.16140100  0.89497200  1
  O  O9  1  0.83422800  0.83422800  0.41878400  1
  O  O10  1  0.03413100  0.46483700  0.15569300  1
  O  O11  1  0.46483700  0.03413100  0.15569300  1
  O  O12  1  0.32477900  0.32477900  0.39018800  1
  O  O13  1  0.17269100  0.67036800  0.90433500  1
  O  O14  1  0.48206700  0.48206700  0.14617500  1
  O  O15  1  0.67036800  0.17269100  0.90433500  1
loop_
_geom_bond_atom_site_label_1
_geom_bond_atom_site_label_2
_geom_bond_distance
_geom_bond_site_symmetry_2
Li0 O14 1.916548 1_555
Li0 O10 1.965254 1_655
Li0 O11 1.965254 1_565
Li0 O2 2.047784 1_554
Li1 O4 1.786092 1_555
Li1 O8 1.975815 1_554
Li1 O15 1.985411 1_454
Li1 O13 1.985411 1_544
Li2 O3 1.816733 1_555
Li2 O9 1.938041 1_445
Li2 O0 1.945868 1_545
Li2 O5 1.945868 1_455
Li3 O6 1.977924 1_545
Li3 O7 1.977924 1_455
Li3 O12 2.006226 1_555
Li3 O1 2.085043 1_555
Mn0 O6 1.884737 1_555
Mn0 O2 1.920392 1_555
Mn0 O3 1.921217 1_565
Mn0 O1 1.967891 1_555
Mn0 O8 1.988498 1_565
Mn0 O13 2.049326 1_555
Mn1 O7 1.884737 1_555
Mn1 O2 1.920392 1_555
Mn1 O3 1.921217 1_655
Mn1 O1 1.967891 1_555
Mn1 O8 1.988498 1_655
Mn1 O15 2.049326 1_555
Mn2 O4 1.891079 1_555
Mn2 O12 1.901785 1_555
Mn2 O10 1.915065 1_555
Mn2 O11 1.915065 1_555
Mn2 O0 2.055621 1_545
Mn2 O5 2.055621 1_455
Nb0 O9 1.860211 1_555
Nb0 O5 1.946504 1_555
Nb0 O0 1.946504 1_555
Nb0 O6 2.139092 1_555
Nb0 O7 2.139092 1_555
Nb0 O1 2.246655 1_555
Nb1 O14 1.886361 1_555
Nb1 O13 1.955774 1_554
Nb1 O15 1.955774 1_554
Nb1 O10 2.111880 1_555
Nb1 O11 2.111880 1_555
Nb1 O8 2.254662 1_554
Ni0 O3 2.022573 1_665
Ni0 O2 2.040237 1_555
Ni0 O6 2.086930 1_555
Ni0 O7 2.086930 1_555
Ni0 O13 2.095514 1_655
Ni0 O15 2.095514 1_565
Ni1 O4 1.971518 1_565
Ni1 O12 1.986396 1_555
Ni1 O14 2.100203 1_555
Ni1 O9 2.121850 1_455
Ni1 O0 2.143788 1_555
Ni1 O10 2.151205 1_555
Ni2 O4 1.971518 1_655
Ni2 O12 1.986396 1_555
Ni2 O14 2.100203 1_555
Ni2 O9 2.121850 1_545
Ni2 O5 2.143788 1_555
Ni2 O11 2.151205 1_555
