# generated using pymatgen
data_Li(CoO2)2
_symmetry_space_group_name_H-M   'P 1'
_cell_length_a   5.71459870
_cell_length_b   5.71459870
_cell_length_c   4.89661543
_cell_angle_alpha   89.75257301
_cell_angle_beta   89.75257301
_cell_angle_gamma   59.25509040
_symmetry_Int_Tables_number   1
_chemical_formula_structural   Li(CoO2)2
_chemical_formula_sum   'Li2 Co4 O8'
_cell_volume   137.43066721
_cell_formula_units_Z   2
loop_
 _symmetry_equiv_pos_site_id
 _symmetry_equiv_pos_as_xyz
  1  'x, y, z'
loop_
 _atom_site_type_symbol
 _atom_site_label
 _atom_site_symmetry_multiplicity
 _atom_site_fract_x
 _atom_site_fract_y
 _atom_site_fract_z
 _atom_site_occupancy
  Li  Li0  1  0.64951700  0.35048300  0.75000000  1
  Li  Li1  1  0.35048300  0.64951700  0.25000000  1
  Co  Co0  1  0.36832900  0.11630200  0.74562200  1
  Co  Co1  1  0.63167100  0.88369800  0.25437800  1
  Co  Co2  1  0.11630200  0.36832900  0.24562200  1
  Co  Co3  1  0.88369800  0.63167100  0.75437800  1
  O  O0  1  0.28398300  0.01738900  0.40708600  1
  O  O1  1  0.46452000  0.23063200  0.07281600  1
  O  O2  1  0.71601700  0.98261100  0.59291400  1
  O  O3  1  0.23063200  0.46452000  0.57281600  1
  O  O4  1  0.01738900  0.28398300  0.90708600  1
  O  O5  1  0.53548000  0.76936800  0.92718400  1
  O  O6  1  0.76936800  0.53548000  0.42718400  1
  O  O7  1  0.98261100  0.71601700  0.09291400  1
loop_
_geom_bond_atom_site_label_1
_geom_bond_atom_site_label_2
_geom_bond_distance
_geom_bond_site_symmetry_2
Li0 O4 2.085692 1_655
Li0 O2 2.085692 1_545
Li0 O6 2.191320 1_555
Li0 O1 2.191320 1_556
Li0 O5 2.307727 1_555
Li0 O3 2.307727 1_555
Li1 O0 2.085692 1_565
Li1 O7 2.085692 1_455
Li1 O5 2.191320 1_554
Li1 O3 2.191320 1_555
Li1 O6 2.307727 1_555
Li1 O1 2.307727 1_555
Co0 O2 1.879004 1_545
Co0 O4 1.895594 1_555
Co0 O0 1.895599 1_555
Co0 O1 1.918264 1_556
Co0 O3 1.919694 1_555
Co0 O5 1.920759 1_545
Co1 O0 1.879004 1_565
Co1 O7 1.895594 1_555
Co1 O2 1.895599 1_555
Co1 O5 1.918264 1_554
Co1 O6 1.919694 1_555
Co1 O1 1.920759 1_565
Co2 O7 1.879004 1_455
Co2 O0 1.895594 1_555
Co2 O4 1.895599 1_554
Co2 O3 1.918264 1_555
Co2 O1 1.919694 1_555
Co2 O6 1.920759 1_455
Co3 O4 1.879004 1_655
Co3 O2 1.895594 1_555
Co3 O7 1.895599 1_556
Co3 O6 1.918264 1_555
Co3 O5 1.919694 1_555
Co3 O3 1.920759 1_655
