# generated using pymatgen
data_LiCuPO4
_symmetry_space_group_name_H-M   'P 1'
_cell_length_a   9.82199236
_cell_length_b   9.82199236
_cell_length_c   21.61957600
_cell_angle_alpha   90.00000000
_cell_angle_beta   90.00000000
_cell_angle_gamma   120.00000240
_symmetry_Int_Tables_number   1
_chemical_formula_structural   LiCuPO4
_chemical_formula_sum   'Li24 Cu24 P24 O96'
_cell_volume   1806.24632819
_cell_formula_units_Z   24
loop_
 _symmetry_equiv_pos_site_id
 _symmetry_equiv_pos_as_xyz
  1  'x, y, z'
loop_
 _atom_site_type_symbol
 _atom_site_label
 _atom_site_symmetry_multiplicity
 _atom_site_fract_x
 _atom_site_fract_y
 _atom_site_fract_z
 _atom_site_occupancy
  Li  Li0  1  0.14582200  0.82856100  0.67381100  1
  Li  Li1  1  0.18913000  0.88143600  0.00939200  1
  Li  Li2  1  0.18013900  0.79041300  0.37438300  1
  Li  Li3  1  0.11856400  0.30769400  0.67605800  1
  Li  Li4  1  0.33138000  0.68674100  0.82308200  1
  Li  Li5  1  0.31325900  0.64463900  0.48974900  1
  Li  Li6  1  0.35536100  0.66862000  0.15641500  1
  Li  Li7  1  0.17143900  0.31726100  0.34047800  1
  Li  Li8  1  0.20958700  0.38972600  0.04105000  1
  Li  Li9  1  0.61027400  0.81986100  0.70771700  1
  Li  Li10  1  0.30769400  0.18913000  0.84272500  1
  Li  Li11  1  0.31726100  0.14582200  0.50714500  1
  Li  Li12  1  0.68273900  0.85417800  0.00714500  1
  Li  Li13  1  0.69230600  0.81087000  0.34272500  1
  Li  Li14  1  0.38972600  0.18013900  0.20771700  1
  Li  Li15  1  0.79041300  0.61027400  0.54105000  1
  Li  Li16  1  0.82856100  0.68273900  0.84047800  1
  Li  Li17  1  0.64463900  0.33138000  0.65641500  1
  Li  Li18  1  0.68674100  0.35536100  0.98974900  1
  Li  Li19  1  0.66862000  0.31325900  0.32308200  1
  Li  Li20  1  0.88143600  0.69230600  0.17605800  1
  Li  Li21  1  0.81986100  0.20958700  0.87438300  1
  Li  Li22  1  0.81087000  0.11856400  0.50939200  1
  Li  Li23  1  0.85417800  0.17143900  0.17381100  1
  Cu  Cu0  1  0.99796800  0.95653900  0.42767100  1
  Cu  Cu1  1  0.04762700  0.55810700  0.90926700  1
  Cu  Cu2  1  0.04418300  0.51579100  0.24523700  1
  Cu  Cu3  1  0.97916400  0.45855300  0.58374600  1
  Cu  Cu4  1  0.47938900  0.02083600  0.91708000  1
  Cu  Cu5  1  0.47160800  0.95581700  0.57857100  1
  Cu  Cu6  1  0.04346100  0.04142800  0.09433700  1
  Cu  Cu7  1  0.51048000  0.95237300  0.24260000  1
  Cu  Cu8  1  0.04142800  0.99796800  0.26100400  1
  Cu  Cu9  1  0.44189300  0.48952000  0.57593400  1
  Cu  Cu10  1  0.48420900  0.52839200  0.91190400  1
  Cu  Cu11  1  0.54144700  0.52061100  0.25041300  1
  Cu  Cu12  1  0.45855300  0.47938900  0.75041300  1
  Cu  Cu13  1  0.51579100  0.47160800  0.41190400  1
  Cu  Cu14  1  0.55810700  0.51048000  0.07593400  1
  Cu  Cu15  1  0.95857200  0.00203200  0.76100400  1
  Cu  Cu16  1  0.48952000  0.04762700  0.74260000  1
  Cu  Cu17  1  0.95653900  0.95857200  0.59433700  1
  Cu  Cu18  1  0.52839200  0.04418300  0.07857100  1
  Cu  Cu19  1  0.52061100  0.97916400  0.41708000  1
  Cu  Cu20  1  0.02083600  0.54144700  0.08374600  1
  Cu  Cu21  1  0.95581700  0.48420900  0.74523700  1
  Cu  Cu22  1  0.95237300  0.44189300  0.40926700  1
  Cu  Cu23  1  0.00203200  0.04346100  0.92767100  1
  P  P0  1  0.17363400  0.86346000  0.81427400  1
  P  P1  1  0.12585400  0.76742000  0.50651200  1
  P  P2  1  0.21726400  0.87538900  0.15239000  1
  P  P3  1  0.12461100  0.34187500  0.81905700  1
  P  P4  1  0.33027500  0.69321400  0.00938100  1
  P  P5  1  0.13654000  0.31017400  0.48094000  1
  P  P6  1  0.30678600  0.63706100  0.67604800  1
  P  P7  1  0.36293900  0.66972500  0.34271400  1
  P  P8  1  0.23258000  0.35843400  0.17317900  1
  P  P9  1  0.64156600  0.87414600  0.83984600  1
  P  P10  1  0.34187500  0.21726400  0.98572400  1
  P  P11  1  0.31017400  0.17363400  0.64760700  1
  P  P12  1  0.68982600  0.82636600  0.14760700  1
  P  P13  1  0.65812500  0.78273600  0.48572400  1
  P  P14  1  0.35843400  0.12585400  0.33984600  1
  P  P15  1  0.76742000  0.64156600  0.67317900  1
  P  P16  1  0.63706100  0.33027500  0.84271400  1
  P  P17  1  0.69321400  0.36293900  0.17604800  1
  P  P18  1  0.86346000  0.68982600  0.98094000  1
  P  P19  1  0.66972500  0.30678600  0.50938100  1
  P  P20  1  0.87538900  0.65812500  0.31905700  1
  P  P21  1  0.78273600  0.12461100  0.65239000  1
  P  P22  1  0.87414600  0.23258000  0.00651200  1
  P  P23  1  0.82636600  0.13654000  0.31427400  1
  O  O0  1  0.02609900  0.70475800  0.79952500  1
  O  O1  1  0.11945100  0.98345300  0.83482700  1
  O  O2  1  0.00911200  0.66533300  0.55869000  1
  O  O3  1  0.11946300  0.92166300  0.49530100  1
  O  O4  1  0.17608600  0.98670000  0.18890900  1
  O  O5  1  0.06306900  0.72521700  0.13276100  1
  O  O6  1  0.08188300  0.66734600  0.44731600  1
  O  O7  1  0.26708300  0.92391600  0.75212400  1
  O  O8  1  0.30295400  0.95946800  0.09139700  1
  O  O9  1  0.14061500  0.62053500  0.68067000  1
  O  O10  1  0.20350900  0.70622200  0.97183400  1
  O  O11  1  0.28570600  0.84949700  0.86070600  1
  O  O12  1  0.19982800  0.63186600  0.31674200  1
  O  O13  1  0.29522500  0.81423700  0.52588500  1
  O  O14  1  0.04053200  0.34348700  0.75806400  1
  O  O15  1  0.32491100  0.83336700  0.19055400  1
  O  O16  1  0.16663300  0.49154400  0.85722100  1
  O  O17  1  0.01330000  0.18938600  0.85557600  1
  O  O18  1  0.07608400  0.34316700  0.41879000  1
  O  O19  1  0.01654700  0.13599800  0.50149400  1
  O  O20  1  0.25827800  0.63253200  0.07485600  1
  O  O21  1  0.07833700  0.19780000  0.16196800  1
  O  O22  1  0.15050300  0.43620900  0.52737200  1
  O  O23  1  0.18576300  0.48098800  0.19255100  1
  O  O24  1  0.37425400  0.74172200  0.40818900  1
  O  O25  1  0.29377800  0.49728800  0.63850000  1
  O  O26  1  0.36746800  0.62574600  0.74152300  1
  O  O27  1  0.36813400  0.56796200  0.98340900  1
  O  O28  1  0.43203800  0.80017200  0.65007500  1
  O  O29  1  0.47992000  0.85938500  0.01400400  1
  O  O30  1  0.37946500  0.52008000  0.34733700  1
  O  O31  1  0.13599800  0.11945100  0.66816000  1
  O  O32  1  0.18938600  0.17608600  0.02224300  1
  O  O33  1  0.27478300  0.33785200  0.79942800  1
  O  O34  1  0.33265400  0.41453700  0.11398200  1
  O  O35  1  0.50271200  0.79649100  0.30516700  1
  O  O36  1  0.19780000  0.11946300  0.32863400  1
  O  O37  1  0.29524200  0.32134100  0.46619100  1
  O  O38  1  0.33466700  0.34377900  0.22535600  1
  O  O39  1  0.51901200  0.70477500  0.85921800  1
  O  O40  1  0.58546300  0.91811700  0.78064900  1
  O  O41  1  0.56379100  0.71429400  0.19403900  1
  O  O42  1  0.34348700  0.30295400  0.92473100  1
  O  O43  1  0.65622100  0.99088800  0.89202300  1
  O  O44  1  0.50845600  0.67508900  0.52388800  1
  O  O45  1  0.34316700  0.26708300  0.58545700  1
  O  O46  1  0.66214800  0.93693100  0.46609400  1
  O  O47  1  0.67865900  0.97390100  0.13285800  1
  O  O48  1  0.32134100  0.02609900  0.63285800  1
  O  O49  1  0.33785200  0.06306900  0.96609400  1
  O  O50  1  0.65683300  0.73291700  0.08545700  1
  O  O51  1  0.49154400  0.32491100  0.02388800  1
  O  O52  1  0.34377900  0.00911200  0.39202300  1
  O  O53  1  0.65651300  0.69704600  0.42473100  1
  O  O54  1  0.43620900  0.28570600  0.69403900  1
  O  O55  1  0.41453700  0.08188300  0.28064900  1
  O  O56  1  0.48098800  0.29522500  0.35921800  1
  O  O57  1  0.66533300  0.65622100  0.72535600  1
  O  O58  1  0.70475800  0.67865900  0.96619100  1
  O  O59  1  0.80220000  0.88053700  0.82863400  1
  O  O60  1  0.49728800  0.20350900  0.80516700  1
  O  O61  1  0.66734600  0.58546300  0.61398200  1
  O  O62  1  0.72521700  0.66214800  0.29942800  1
  O  O63  1  0.81061400  0.82391400  0.52224300  1
  O  O64  1  0.86400200  0.88054900  0.16816000  1
  O  O65  1  0.62053500  0.47992000  0.84733700  1
  O  O66  1  0.52008000  0.14061500  0.51400400  1
  O  O67  1  0.56796200  0.19982800  0.15007500  1
  O  O68  1  0.63186600  0.43203800  0.48340900  1
  O  O69  1  0.63253200  0.37425400  0.24152300  1
  O  O70  1  0.70622200  0.50271200  0.13850000  1
  O  O71  1  0.62574600  0.25827800  0.90818900  1
  O  O72  1  0.81423700  0.51901200  0.69255100  1
  O  O73  1  0.84949700  0.56379100  0.02737200  1
  O  O74  1  0.92166300  0.80220000  0.66196800  1
  O  O75  1  0.74172200  0.36746800  0.57485600  1
  O  O76  1  0.98345300  0.86400200  0.00149400  1
  O  O77  1  0.92391600  0.65683300  0.91879000  1
  O  O78  1  0.98670000  0.81061400  0.35557600  1
  O  O79  1  0.83336700  0.50845600  0.35722100  1
  O  O80  1  0.67508900  0.16663300  0.69055400  1
  O  O81  1  0.95946800  0.65651300  0.25806400  1
  O  O82  1  0.70477500  0.18576300  0.02588500  1
  O  O83  1  0.80017200  0.36813400  0.81674200  1
  O  O84  1  0.71429400  0.15050300  0.36070600  1
  O  O85  1  0.79649100  0.29377800  0.47183400  1
  O  O86  1  0.85938500  0.37946500  0.18067000  1
  O  O87  1  0.69704600  0.04053200  0.59139700  1
  O  O88  1  0.73291700  0.07608400  0.25212400  1
  O  O89  1  0.91811700  0.33265400  0.94731600  1
  O  O90  1  0.93693100  0.27478300  0.63276100  1
  O  O91  1  0.82391400  0.01330000  0.68890900  1
  O  O92  1  0.88053700  0.07833700  0.99530100  1
  O  O93  1  0.99088800  0.33466700  0.05869000  1
  O  O94  1  0.88054900  0.01654700  0.33482700  1
  O  O95  1  0.97390100  0.29524200  0.29952500  1
loop_
_geom_bond_atom_site_label_1
_geom_bond_atom_site_label_2
_geom_bond_distance
_geom_bond_site_symmetry_2
Li0 O7 2.011665 1_555
Li0 O9 2.023585 1_555
Li0 O48 2.043407 1_565
Li0 O74 2.099993 1_455
Li1 O49 1.893862 1_564
Li1 O76 1.947714 1_455
Li1 O10 1.970785 1_554
Li1 O8 2.030680 1_555
Li2 O6 1.926698 1_555
Li2 O52 1.972412 1_565
Li2 O78 2.047316 1_455
Li2 O12 2.077623 1_555
Li2 O24 2.304303 1_555
Li3 O90 1.893852 1_455
Li3 O31 1.947714 1_555
Li3 O25 1.970790 1_555
Li3 O14 2.030702 1_555
Li4 O39 1.926561 1_555
Li4 O16 1.933013 1_555
Li4 O26 1.950904 1_555
Li4 O11 2.033598 1_555
Li5 O13 1.926561 1_555
Li5 O44 1.933013 1_555
Li5 O24 1.950924 1_555
Li5 O22 2.033589 1_555
Li6 O23 1.926561 1_555
Li6 O15 1.933013 1_555
Li6 O20 1.950904 1_555
Li6 O41 2.033598 1_555
Li7 O18 2.011647 1_555
Li7 O30 2.023585 1_555
Li7 O95 2.043407 1_455
Li7 O36 2.099995 1_555
Li8 O34 1.926680 1_555
Li8 O93 1.972412 1_455
Li8 O32 2.047316 1_555
Li8 O27 2.077623 1_554
Li8 O20 2.304303 1_555
Li9 O40 1.926680 1_555
Li9 O57 1.972408 1_555
Li9 O91 2.047320 1_565
Li9 O28 2.077636 1_555
Li9 O26 2.304303 1_555
Li10 O33 1.893852 1_555
Li10 O1 1.947714 1_545
Li10 O60 1.970794 1_555
Li10 O42 2.030698 1_555
Li11 O45 2.011647 1_555
Li11 O66 2.023585 1_555
Li11 O37 2.043416 1_555
Li11 O3 2.099995 1_545
Li12 O50 2.011647 1_555
Li12 O29 2.023585 1_555
Li12 O58 2.043416 1_554
Li12 O92 2.099995 1_564
Li13 O62 1.893852 1_555
Li13 O94 1.947714 1_565
Li13 O35 1.970794 1_555
Li13 O53 2.030698 1_555
Li14 O55 1.926680 1_555
Li14 O38 1.972408 1_555
Li14 O4 2.047320 1_545
Li14 O67 2.077636 1_555
Li14 O69 2.304303 1_555
Li15 O61 1.926680 1_555
Li15 O2 1.972412 1_655
Li15 O63 2.047316 1_555
Li15 O68 2.077623 1_555
Li15 O75 2.304303 1_555
Li16 O77 2.011647 1_555
Li16 O65 2.023585 1_555
Li16 O0 2.043407 1_655
Li16 O59 2.099995 1_555
Li17 O72 1.926561 1_555
Li17 O80 1.933013 1_555
Li17 O75 1.950904 1_555
Li17 O54 2.033598 1_555
Li18 O82 1.926561 1_556
Li18 O51 1.933013 1_556
Li18 O71 1.950924 1_555
Li18 O73 2.033589 1_556
Li19 O56 1.926561 1_555
Li19 O79 1.933013 1_555
Li19 O69 1.950904 1_555
Li19 O84 2.033598 1_555
Li20 O5 1.893852 1_655
Li20 O64 1.947714 1_555
Li20 O70 1.970790 1_555
Li20 O81 2.030702 1_555
Li21 O89 1.926698 1_555
Li21 O43 1.972412 1_545
Li21 O17 2.047316 1_655
Li21 O83 2.077623 1_555
Li21 O71 2.304303 1_555
Li22 O46 1.893862 1_545
Li22 O19 1.947714 1_655
Li22 O85 1.970785 1_555
Li22 O87 2.030680 1_555
Li23 O88 2.011665 1_555
Li23 O86 2.023585 1_555
Li23 O47 2.043407 1_545
Li23 O21 2.099993 1_655
Cu0 O3 2.021872 1_655
Cu0 O78 2.082625 1_555
Cu0 O19 2.316431 1_665
Cu0 O94 2.527104 1_565
Cu0 O63 2.620397 1_555
Cu1 O77 1.907190 1_455
Cu1 O16 1.955503 1_555
Cu1 O10 2.015669 1_555
Cu1 O89 2.093208 1_455
Cu2 O23 1.955352 1_555
Cu2 O81 1.956962 1_455
Cu2 O12 2.069731 1_555
Cu2 O86 2.146070 1_455
Cu2 O95 2.247498 1_455
Cu3 O90 1.950448 1_555
Cu3 O2 1.976733 1_655
Cu3 O75 2.046906 1_555
Cu3 O22 2.176016 1_655
Cu4 O49 1.950436 1_555
Cu4 O43 1.976739 1_545
Cu4 O71 2.046908 1_555
Cu4 O11 2.176016 1_545
Cu5 O13 1.955352 1_555
Cu5 O87 1.956968 1_565
Cu5 O28 2.069715 1_555
Cu5 O66 2.146070 1_565
Cu5 O48 2.247486 1_565
Cu6 O21 2.021894 1_555
Cu6 O32 2.082612 1_555
Cu6 O64 2.316428 1_445
Cu6 O76 2.527081 1_445
Cu6 O4 2.620393 1_545
Cu7 O88 1.907192 1_565
Cu7 O15 1.955503 1_555
Cu7 O35 2.015665 1_555
Cu7 O55 2.093208 1_565
Cu8 O36 2.021876 1_565
Cu8 O4 2.082632 1_555
Cu8 O94 2.316424 1_465
Cu8 O64 2.527099 1_455
Cu8 O78 2.620399 1_455
Cu9 O45 1.907190 1_555
Cu9 O44 1.955503 1_555
Cu9 O25 2.015658 1_555
Cu9 O61 2.093199 1_555
Cu10 O39 1.955352 1_555
Cu10 O42 1.956970 1_555
Cu10 O27 2.069731 1_555
Cu10 O65 2.146070 1_555
Cu10 O58 2.247486 1_555
Cu11 O62 1.950448 1_555
Cu11 O38 1.976739 1_555
Cu11 O69 2.046906 1_555
Cu11 O41 2.176016 1_555
Cu12 O33 1.950448 1_555
Cu12 O57 1.976739 1_555
Cu12 O26 2.046906 1_555
Cu12 O54 2.176016 1_555
Cu13 O56 1.955352 1_555
Cu13 O53 1.956970 1_555
Cu13 O68 2.069731 1_555
Cu13 O30 2.146070 1_555
Cu13 O37 2.247486 1_555
Cu14 O50 1.907190 1_555
Cu14 O51 1.955503 1_555
Cu14 O70 2.015658 1_555
Cu14 O34 2.093199 1_555
Cu15 O59 2.021876 1_545
Cu15 O91 2.082632 1_555
Cu15 O1 2.316424 1_645
Cu15 O31 2.527099 1_655
Cu15 O17 2.620399 1_655
Cu16 O7 1.907192 1_545
Cu16 O80 1.955503 1_555
Cu16 O60 2.015665 1_555
Cu16 O40 2.093208 1_545
Cu17 O74 2.021894 1_555
Cu17 O63 2.082612 1_555
Cu17 O31 2.316428 1_665
Cu17 O19 2.527081 1_665
Cu17 O91 2.620393 1_565
Cu18 O82 1.955352 1_555
Cu18 O8 1.956968 1_545
Cu18 O67 2.069715 1_555
Cu18 O29 2.146070 1_545
Cu18 O47 2.247486 1_545
Cu19 O46 1.950436 1_555
Cu19 O52 1.976739 1_565
Cu19 O24 2.046908 1_555
Cu19 O84 2.176016 1_565
Cu20 O5 1.950448 1_555
Cu20 O93 1.976733 1_455
Cu20 O20 2.046906 1_555
Cu20 O73 2.176016 1_455
Cu21 O72 1.955352 1_555
Cu21 O14 1.956962 1_655
Cu21 O83 2.069731 1_555
Cu21 O9 2.146070 1_655
Cu21 O0 2.247498 1_655
Cu22 O18 1.907190 1_655
Cu22 O79 1.955503 1_555
Cu22 O85 2.015669 1_555
Cu22 O6 2.093208 1_655
Cu23 O92 2.021872 1_455
Cu23 O17 2.082625 1_555
Cu23 O76 2.316431 1_446
Cu23 O1 2.527104 1_545
Cu23 O32 2.620397 1_556
O0 P0 1.540292 1_555
O1 P0 1.580162 1_555
O2 P1 1.563005 1_555
O3 P1 1.566183 1_555
O4 P2 1.557051 1_555
O5 P2 1.554196 1_555
O6 P1 1.538189 1_555
O7 P0 1.566987 1_555
O8 P2 1.560167 1_555
O9 P6 1.560531 1_555
O10 P4 1.544216 1_556
O11 P0 1.545692 1_555
O12 P7 1.557071 1_555
O13 P1 1.545750 1_555
O14 P3 1.560170 1_555
O15 P2 1.550942 1_555
O16 P3 1.550942 1_555
O17 P3 1.557051 1_555
O18 P5 1.566987 1_555
O19 P5 1.580168 1_555
O20 P4 1.561277 1_555
O21 P8 1.566183 1_555
O22 P5 1.545692 1_555
O23 P8 1.545744 1_555
O24 P7 1.561277 1_555
O25 P6 1.544219 1_555
O26 P6 1.561277 1_555
O27 P4 1.557071 1_556
O28 P6 1.557079 1_555
O29 P4 1.560532 1_555
O30 P7 1.560532 1_555
O31 P11 1.580162 1_555
O32 P10 1.557051 1_554
O33 P3 1.554196 1_555
O34 P8 1.538207 1_555
O35 P7 1.544211 1_555
O36 P14 1.566187 1_555
O37 P5 1.540292 1_555
O38 P8 1.562989 1_555
O39 P9 1.545744 1_555
O40 P9 1.538207 1_555
O41 P12 1.545692 1_555
O42 P10 1.560164 1_555
O43 P9 1.562989 1_555
O44 P13 1.550942 1_555
O45 P11 1.566987 1_555
O46 P13 1.554202 1_555
O47 P12 1.540292 1_555
O48 P11 1.540292 1_555
O49 P10 1.554202 1_555
O50 P12 1.566987 1_555
O51 P10 1.550942 1_554
O52 P14 1.562989 1_555
O53 P13 1.560164 1_555
O54 P11 1.545692 1_555
O55 P14 1.538207 1_555
O56 P14 1.545744 1_555
O57 P15 1.562989 1_555
O58 P18 1.540292 1_555
O59 P9 1.566187 1_555
O60 P16 1.544211 1_555
O61 P15 1.538207 1_555
O62 P20 1.554196 1_555
O63 P13 1.557051 1_555
O64 P12 1.580162 1_555
O65 P16 1.560532 1_555
O66 P19 1.560532 1_555
O67 P17 1.557079 1_555
O68 P19 1.557071 1_555
O69 P17 1.561277 1_555
O70 P17 1.544219 1_555
O71 P16 1.561277 1_555
O72 P15 1.545744 1_555
O73 P18 1.545692 1_554
O74 P15 1.566183 1_555
O75 P19 1.561277 1_555
O76 P18 1.580168 1_554
O77 P18 1.566987 1_555
O78 P20 1.557051 1_555
O79 P20 1.550942 1_555
O80 P21 1.550942 1_555
O81 P20 1.560170 1_555
O82 P22 1.545750 1_555
O83 P16 1.557071 1_555
O84 P23 1.545692 1_555
O85 P19 1.544216 1_555
O86 P17 1.560531 1_555
O87 P21 1.560167 1_555
O88 P23 1.566987 1_555
O89 P22 1.538189 1_556
O90 P21 1.554196 1_555
O91 P21 1.557051 1_555
O92 P22 1.566183 1_556
O93 P22 1.563005 1_555
O94 P23 1.580162 1_555
O95 P23 1.540292 1_555
