# generated using pymatgen
data_H3Ru3C10ClO9
_symmetry_space_group_name_H-M   'P 1'
_cell_length_a   6.70424500
_cell_length_b   14.61713100
_cell_length_c   17.59314400
_cell_angle_alpha   90.00000000
_cell_angle_beta   90.00000000
_cell_angle_gamma   90.00000000
_symmetry_Int_Tables_number   1
_chemical_formula_structural   H3Ru3C10ClO9
_chemical_formula_sum   'H12 Ru12 C40 Cl4 O36'
_cell_volume   1724.07229636
_cell_formula_units_Z   4
loop_
 _symmetry_equiv_pos_site_id
 _symmetry_equiv_pos_as_xyz
  1  'x, y, z'
loop_
 _atom_site_type_symbol
 _atom_site_label
 _atom_site_symmetry_multiplicity
 _atom_site_fract_x
 _atom_site_fract_y
 _atom_site_fract_z
 _atom_site_occupancy
  H  H0  1  0.06703700  0.25000000  0.57339300  1
  H  H1  1  0.43296300  0.25000000  0.07339300  1
  H  H2  1  0.93296300  0.75000000  0.42660700  1
  H  H3  1  0.56703700  0.75000000  0.92660700  1
  H  H4  1  0.05357900  0.33467200  0.69727600  1
  H  H5  1  0.44642100  0.16532800  0.19727600  1
  H  H6  1  0.94642100  0.83467200  0.30272400  1
  H  H7  1  0.55357900  0.66532800  0.80272400  1
  H  H8  1  0.94642100  0.66532800  0.30272400  1
  H  H9  1  0.55357900  0.83467200  0.80272400  1
  H  H10  1  0.05357900  0.16532800  0.69727600  1
  H  H11  1  0.44642100  0.33467200  0.19727600  1
  Ru  Ru0  1  0.19599900  0.34923200  0.60971900  1
  Ru  Ru1  1  0.30400100  0.15076800  0.10971900  1
  Ru  Ru2  1  0.80400100  0.84923200  0.39028100  1
  Ru  Ru3  1  0.69599900  0.65076800  0.89028100  1
  Ru  Ru4  1  0.80400100  0.65076800  0.39028100  1
  Ru  Ru5  1  0.69599900  0.84923200  0.89028100  1
  Ru  Ru6  1  0.19599900  0.15076800  0.60971900  1
  Ru  Ru7  1  0.30400100  0.34923200  0.10971900  1
  Ru  Ru8  1  0.19117900  0.25000000  0.75224800  1
  Ru  Ru9  1  0.30882100  0.25000000  0.25224800  1
  Ru  Ru10  1  0.80882100  0.75000000  0.24775200  1
  Ru  Ru11  1  0.69117900  0.75000000  0.74775200  1
  C  C0  1  0.94172900  0.25000000  0.81346700  1
  C  C1  1  0.55827100  0.25000000  0.31346700  1
  C  C2  1  0.05827100  0.75000000  0.18653300  1
  C  C3  1  0.44172900  0.75000000  0.68653300  1
  C  C4  1  0.33059500  0.34238400  0.80722700  1
  C  C5  1  0.16940500  0.15761600  0.30722700  1
  C  C6  1  0.66940500  0.84238400  0.19277300  1
  C  C7  1  0.83059500  0.65761600  0.69277300  1
  C  C8  1  0.66940500  0.65761600  0.19277300  1
  C  C9  1  0.83059500  0.84238400  0.69277300  1
  C  C10  1  0.33059500  0.15761600  0.80722700  1
  C  C11  1  0.16940500  0.34238400  0.30722700  1
  C  C12  1  0.32529600  0.45425800  0.65138500  1
  C  C13  1  0.17470400  0.04574200  0.15138500  1
  C  C14  1  0.67470400  0.95425800  0.34861500  1
  C  C15  1  0.82529600  0.54574200  0.84861500  1
  C  C16  1  0.67470400  0.54574200  0.34861500  1
  C  C17  1  0.82529600  0.95425800  0.84861500  1
  C  C18  1  0.32529600  0.04574200  0.65138500  1
  C  C19  1  0.17470400  0.45425800  0.15138500  1
  C  C20  1  0.34465800  0.36039800  0.51785900  1
  C  C21  1  0.15534200  0.13960200  0.01785900  1
  C  C22  1  0.65534200  0.86039800  0.48214100  1
  C  C23  1  0.84465800  0.63960200  0.98214100  1
  C  C24  1  0.65534200  0.63960200  0.48214100  1
  C  C25  1  0.84465800  0.86039800  0.98214100  1
  C  C26  1  0.34465800  0.13960200  0.51785900  1
  C  C27  1  0.15534200  0.36039800  0.01785900  1
  C  C28  1  0.95081100  0.41093500  0.57375100  1
  C  C29  1  0.54918900  0.08906500  0.07375100  1
  C  C30  1  0.04918900  0.91093500  0.42624900  1
  C  C31  1  0.45081100  0.58906500  0.92624900  1
  C  C32  1  0.04918900  0.58906500  0.42624900  1
  C  C33  1  0.45081100  0.91093500  0.92624900  1
  C  C34  1  0.95081100  0.08906500  0.57375100  1
  C  C35  1  0.54918900  0.41093500  0.07375100  1
  C  C36  1  0.38301900  0.25000000  0.65834000  1
  C  C37  1  0.11698100  0.25000000  0.15834000  1
  C  C38  1  0.61698100  0.75000000  0.34166000  1
  C  C39  1  0.88301900  0.75000000  0.84166000  1
  Cl  Cl0  1  0.64246100  0.25000000  0.65892500  1
  Cl  Cl1  1  0.85753900  0.25000000  0.15892500  1
  Cl  Cl2  1  0.35753900  0.75000000  0.34107500  1
  Cl  Cl3  1  0.14246100  0.75000000  0.84107500  1
  O  O0  1  0.79671000  0.25000000  0.84885900  1
  O  O1  1  0.70329000  0.25000000  0.34885900  1
  O  O2  1  0.20329000  0.75000000  0.15114100  1
  O  O3  1  0.29671000  0.75000000  0.65114100  1
  O  O4  1  0.42212900  0.39735900  0.83946200  1
  O  O5  1  0.07787100  0.10264100  0.33946200  1
  O  O6  1  0.57787100  0.89735900  0.16053800  1
  O  O7  1  0.92212900  0.60264100  0.66053800  1
  O  O8  1  0.57787100  0.60264100  0.16053800  1
  O  O9  1  0.92212900  0.89735900  0.66053800  1
  O  O10  1  0.42212900  0.10264100  0.83946200  1
  O  O11  1  0.07787100  0.39735900  0.33946200  1
  O  O12  1  0.40721400  0.51633100  0.67785200  1
  O  O13  1  0.09278600  0.98366900  0.17785200  1
  O  O14  1  0.59278600  0.01633100  0.32214800  1
  O  O15  1  0.90721400  0.48366900  0.82214800  1
  O  O16  1  0.59278600  0.48366900  0.32214800  1
  O  O17  1  0.90721400  0.01633100  0.82214800  1
  O  O18  1  0.40721400  0.98366900  0.67785200  1
  O  O19  1  0.09278600  0.51633100  0.17785200  1
  O  O20  1  0.43922600  0.36581000  0.46294800  1
  O  O21  1  0.06077400  0.13419000  0.96294800  1
  O  O22  1  0.56077400  0.86581000  0.53705200  1
  O  O23  1  0.93922600  0.63419000  0.03705200  1
  O  O24  1  0.56077400  0.63419000  0.53705200  1
  O  O25  1  0.93922600  0.86581000  0.03705200  1
  O  O26  1  0.43922600  0.13419000  0.46294800  1
  O  O27  1  0.06077400  0.36581000  0.96294800  1
  O  O28  1  0.80834800  0.44561800  0.55042800  1
  O  O29  1  0.69165200  0.05438200  0.05042800  1
  O  O30  1  0.19165200  0.94561800  0.44957200  1
  O  O31  1  0.30834800  0.55438200  0.94957200  1
  O  O32  1  0.19165200  0.55438200  0.44957200  1
  O  O33  1  0.30834800  0.94561800  0.94957200  1
  O  O34  1  0.80834800  0.05438200  0.55042800  1
  O  O35  1  0.69165200  0.44561800  0.05042800  1
loop_
_geom_bond_atom_site_label_1
_geom_bond_atom_site_label_2
_geom_bond_distance
_geom_bond_site_symmetry_2
H0 Ru0 1.805510 1_555
H0 Ru6 1.805510 1_555
H1 Ru7 1.805510 1_555
H1 Ru1 1.805510 1_555
H2 Ru2 1.805510 1_555
H2 Ru4 1.805510 1_555
H3 Ru5 1.805510 1_555
H3 Ru3 1.805510 1_555
H4 Ru8 1.821582 1_555
H4 Ru0 1.824778 1_555
H5 Ru9 1.821582 1_555
H5 Ru1 1.824778 1_555
H6 Ru10 1.821582 1_555
H6 Ru2 1.824778 1_555
H7 Ru11 1.821582 1_555
H7 Ru3 1.824778 1_555
H8 Ru10 1.821582 1_555
H8 Ru4 1.824778 1_555
H9 Ru11 1.821582 1_555
H9 Ru5 1.824778 1_555
H10 Ru8 1.821582 1_555
H10 Ru6 1.824778 1_555
H11 Ru9 1.821582 1_555
H11 Ru7 1.824778 1_555
C0 O0 1.154538 1_555
C0 Ru8 1.989180 1_655
C1 O1 1.154538 1_555
C1 Ru9 1.989180 1_555
C2 O2 1.154538 1_555
C2 Ru10 1.989180 1_455
C3 O3 1.154538 1_555
C3 Ru11 1.989180 1_555
C4 O4 1.159285 1_555
C4 Ru8 1.905979 1_555
C5 O5 1.159285 1_555
C5 Ru9 1.905979 1_555
C6 O6 1.159285 1_555
C6 Ru10 1.905979 1_555
C7 O7 1.159285 1_555
C7 Ru11 1.905979 1_555
C8 O8 1.159285 1_555
C8 Ru10 1.905979 1_555
C9 O9 1.159285 1_555
C9 Ru11 1.905979 1_555
C10 O10 1.159285 1_555
C10 Ru8 1.905979 1_555
C11 O11 1.159285 1_555
C11 Ru9 1.905979 1_555
C12 O12 1.158311 1_555
C12 Ru0 1.909326 1_555
C13 O13 1.158311 1_545
C13 Ru1 1.909326 1_555
C14 O14 1.158311 1_565
C14 Ru2 1.909326 1_555
C15 O15 1.158311 1_555
C15 Ru3 1.909326 1_555
C16 O16 1.158311 1_555
C16 Ru4 1.909326 1_555
C17 O17 1.158311 1_565
C17 Ru5 1.909326 1_555
C18 O18 1.158311 1_545
C18 Ru6 1.909326 1_555
C19 O19 1.158311 1_555
C19 Ru7 1.909326 1_555
C20 O20 1.158227 1_555
C20 Ru0 1.905713 1_555
C21 O21 1.158227 1_554
C21 Ru1 1.905713 1_555
C22 O22 1.158227 1_555
C22 Ru2 1.905713 1_555
C23 O23 1.158227 1_556
C23 Ru3 1.905713 1_555
C24 O24 1.158227 1_555
C24 Ru4 1.905713 1_555
C25 O25 1.158227 1_556
C25 Ru5 1.905713 1_555
C26 O26 1.158227 1_555
C26 Ru6 1.905713 1_555
C27 O27 1.158227 1_554
C27 Ru7 1.905713 1_555
C28 O28 1.156551 1_555
C28 Ru0 1.978880 1_655
C29 O29 1.156551 1_555
C29 Ru1 1.978880 1_555
C30 O30 1.156551 1_555
C30 Ru2 1.978880 1_455
C31 O31 1.156551 1_555
C31 Ru3 1.978880 1_555
C32 O32 1.156551 1_555
C32 Ru4 1.978880 1_455
C33 O33 1.156551 1_555
C33 Ru5 1.978880 1_555
C34 O34 1.156551 1_555
C34 Ru6 1.978880 1_655
C35 O35 1.156551 1_555
C35 Ru7 1.978880 1_555
C36 Cl0 1.739393 1_555
C36 Ru8 2.093733 1_555
C36 Ru0 2.099452 1_555
C36 Ru6 2.099452 1_555
C37 Cl1 1.739393 1_455
C37 Ru9 2.093733 1_555
C37 Ru7 2.099452 1_555
C37 Ru1 2.099452 1_555
C38 Cl2 1.739393 1_555
C38 Ru10 2.093733 1_555
C38 Ru4 2.099452 1_555
C38 Ru2 2.099452 1_555
C39 Cl3 1.739393 1_655
C39 Ru11 2.093733 1_555
C39 Ru3 2.099452 1_555
C39 Ru5 2.099452 1_555
