# generated using pymatgen
data_Li4VCr3O8
_symmetry_space_group_name_H-M   'P 1'
_cell_length_a   5.13407100
_cell_length_b   7.86984700
_cell_length_c   7.87012571
_cell_angle_alpha   82.08115685
_cell_angle_beta   83.68504940
_cell_angle_gamma   70.98362581
_symmetry_Int_Tables_number   1
_chemical_formula_structural   Li4VCr3O8
_chemical_formula_sum   'Li8 V2 Cr6 O16'
_cell_volume   297.04605218
_cell_formula_units_Z   2
loop_
 _symmetry_equiv_pos_site_id
 _symmetry_equiv_pos_as_xyz
  1  'x, y, z'
loop_
 _atom_site_type_symbol
 _atom_site_label
 _atom_site_symmetry_multiplicity
 _atom_site_fract_x
 _atom_site_fract_y
 _atom_site_fract_z
 _atom_site_occupancy
  Li  Li0  1  0.50114700  0.56176000  0.81291200  1
  Li  Li1  1  0.50089600  0.31198900  0.56235500  1
  Li  Li2  1  0.49885300  0.43824000  0.18708800  1
  Li  Li3  1  0.50092700  0.93807800  0.68617000  1
  Li  Li4  1  0.49907300  0.06192200  0.31383000  1
  Li  Li5  1  0.49773700  0.19060100  0.93497000  1
  Li  Li6  1  0.49910400  0.68801100  0.43764500  1
  Li  Li7  1  0.50226300  0.80939900  0.06503000  1
  V  V0  1  0.00000400  0.12347400  0.12351100  1
  V  V1  1  0.99999600  0.87652600  0.87648900  1
  Cr  Cr0  1  0.99998700  0.25182500  0.74809200  1
  Cr  Cr1  1  0.99998000  0.37454500  0.37445900  1
  Cr  Cr2  1  0.00000000  0.50000000  0.00000000  1
  Cr  Cr3  1  0.00000000  0.00000000  0.50000000  1
  Cr  Cr4  1  0.00002000  0.62545500  0.62554100  1
  Cr  Cr5  1  0.00001300  0.74817500  0.25190800  1
  O  O0  1  0.22491600  0.41330500  0.78152600  1
  O  O1  1  0.77536700  0.46417400  0.59194200  1
  O  O2  1  0.22463300  0.53582600  0.40805800  1
  O  O3  1  0.77291700  0.09211800  0.71622600  1
  O  O4  1  0.22539200  0.16210100  0.53035300  1
  O  O5  1  0.22542900  0.28652000  0.15586800  1
  O  O6  1  0.77465200  0.21225900  0.34266800  1
  O  O7  1  0.22534800  0.78774100  0.65733200  1
  O  O8  1  0.22708300  0.90788200  0.28377400  1
  O  O9  1  0.77276600  0.34028500  0.96474500  1
  O  O10  1  0.77460800  0.83789900  0.46964700  1
  O  O11  1  0.23108800  0.03798900  0.90419800  1
  O  O12  1  0.76891200  0.96201100  0.09580200  1
  O  O13  1  0.22723400  0.65971500  0.03525500  1
  O  O14  1  0.77508400  0.58669500  0.21847400  1
  O  O15  1  0.77457100  0.71348000  0.84413200  1
loop_
_geom_bond_atom_site_label_1
_geom_bond_atom_site_label_2
_geom_bond_distance
_geom_bond_site_symmetry_2
Li0 O9 2.149243 1_555
Li0 O0 2.161848 1_555
Li0 O15 2.169249 1_555
Li0 O1 2.172789 1_555
Li0 O13 2.181243 1_556
Li0 O7 2.192574 1_555
Li1 O3 2.151947 1_555
Li1 O6 2.168217 1_555
Li1 O4 2.168666 1_555
Li1 O1 2.173297 1_555
Li1 O0 2.173414 1_555
Li1 O2 2.179610 1_555
Li2 O13 2.149243 1_555
Li2 O14 2.161848 1_555
Li2 O5 2.169249 1_555
Li2 O2 2.172789 1_555
Li2 O9 2.181243 1_554
Li2 O6 2.192574 1_555
Li3 O11 2.149600 1_565
Li3 O10 2.149706 1_555
Li3 O7 2.165313 1_555
Li3 O3 2.174946 1_565
Li3 O4 2.184910 1_565
Li3 O15 2.191798 1_555
Li4 O12 2.149600 1_545
Li4 O4 2.149706 1_555
Li4 O6 2.165313 1_555
Li4 O8 2.174946 1_545
Li4 O10 2.184910 1_545
Li4 O5 2.191798 1_555
Li5 O11 2.144726 1_555
Li5 O9 2.160829 1_555
Li5 O3 2.163196 1_555
Li5 O0 2.163596 1_555
Li5 O5 2.164696 1_556
Li5 O12 2.214686 1_546
Li6 O8 2.151947 1_555
Li6 O7 2.168217 1_555
Li6 O10 2.168666 1_555
Li6 O2 2.173297 1_555
Li6 O14 2.173414 1_555
Li6 O1 2.179610 1_555
Li7 O12 2.144726 1_555
Li7 O13 2.160829 1_555
Li7 O8 2.163196 1_555
Li7 O14 2.163596 1_555
Li7 O15 2.164696 1_554
Li7 O11 2.214686 1_564
Cr0 O3 2.026754 1_555
Cr0 O9 2.028079 1_555
Cr0 O1 2.030488 1_555
Cr0 O0 2.033014 1_655
Cr0 O4 2.034451 1_655
Cr0 O11 2.049134 1_655
Cr1 O14 2.029420 1_555
Cr1 O2 2.030965 1_655
Cr1 O1 2.031101 1_555
Cr1 O4 2.031279 1_655
Cr1 O6 2.036325 1_555
Cr1 O5 2.036416 1_655
Cr2 O0 2.031835 1_554
Cr2 O14 2.031835 1_455
Cr2 O9 2.034899 1_454
Cr2 O13 2.034899 1_555
Cr2 O5 2.035729 1_555
Cr2 O15 2.035729 1_454
Cr3 O4 2.032330 1_555
Cr3 O10 2.032330 1_445
Cr3 O8 2.033063 1_545
Cr3 O3 2.033063 1_455
Cr3 O7 2.036639 1_545
Cr3 O6 2.036639 1_455
Cr4 O0 2.029420 1_555
Cr4 O1 2.030965 1_455
Cr4 O2 2.031101 1_555
Cr4 O10 2.031279 1_455
Cr4 O7 2.036325 1_555
Cr4 O15 2.036416 1_455
Cr5 O8 2.026754 1_555
Cr5 O13 2.028079 1_555
Cr5 O2 2.030488 1_555
Cr5 O14 2.033014 1_455
Cr5 O10 2.034451 1_455
Cr5 O12 2.049134 1_455
O3 V1 2.067249 1_545
O5 V0 2.042893 1_555
O6 V0 2.041561 1_655
O7 V1 2.041561 1_455
O8 V0 2.067249 1_565
O9 V0 2.066325 1_656
O11 V1 2.045872 1_445
O11 V0 2.046614 1_556
O12 V0 2.045872 1_665
O12 V1 2.046614 1_554
O13 V1 2.066325 1_454
O15 V1 2.042893 1_555
