# generated using pymatgen
data_V3(O2F)2
_symmetry_space_group_name_H-M   'P 1'
_cell_length_a   5.60694466
_cell_length_b   5.60694466
_cell_length_c   7.54967454
_cell_angle_alpha   70.01634858
_cell_angle_beta   70.01634858
_cell_angle_gamma   69.76867341
_symmetry_Int_Tables_number   1
_chemical_formula_structural   V3(O2F)2
_chemical_formula_sum   'V6 O8 F4'
_cell_volume   202.45481942
_cell_formula_units_Z   2
loop_
 _symmetry_equiv_pos_site_id
 _symmetry_equiv_pos_as_xyz
  1  'x, y, z'
loop_
 _atom_site_type_symbol
 _atom_site_label
 _atom_site_symmetry_multiplicity
 _atom_site_fract_x
 _atom_site_fract_y
 _atom_site_fract_z
 _atom_site_occupancy
  V  V0  1  0.67890000  0.67890000  0.85555800  1
  V  V1  1  0.33367900  0.33367900  0.66315300  1
  V  V2  1  0.66206300  0.66206300  0.32289600  1
  V  V3  1  0.34473400  0.34473400  0.19206600  1
  V  V4  1  0.99800400  0.99800400  0.49605400  1
  V  V5  1  0.99504400  0.99504400  0.99626600  1
  O  O0  1  0.63308400  0.02571300  0.66835000  1
  O  O1  1  0.97383200  0.36501500  0.32862500  1
  O  O2  1  0.76781500  0.76781500  0.02879900  1
  O  O3  1  0.43133400  0.43133400  0.36693000  1
  O  O4  1  0.69273100  0.30653800  0.99882400  1
  O  O5  1  0.02571300  0.63308400  0.66835000  1
  O  O6  1  0.36501500  0.97383200  0.32862500  1
  O  O7  1  0.30653800  0.69273100  0.99882400  1
  F  F0  1  0.22927900  0.22927900  0.96361900  1
  F  F1  1  0.56647500  0.56647500  0.62866600  1
  F  F2  1  0.89637000  0.89637000  0.29456900  1
  F  F3  1  0.09939100  0.09939100  0.69982900  1
loop_
_geom_bond_atom_site_label_1
_geom_bond_atom_site_label_2
_geom_bond_distance
_geom_bond_site_symmetry_2
O0 V1 1.948139 1_555
O0 V0 1.966990 1_545
O0 V4 2.000439 1_545
O1 V2 1.954590 1_555
O1 V3 1.962601 1_655
O1 V4 1.999262 1_545
O2 V0 1.808585 1_554
O2 V5 2.000419 1_554
O2 V2 2.019036 1_555
O3 V3 1.803808 1_555
O3 V2 2.006827 1_555
O3 V1 2.033337 1_555
O4 V5 1.969035 1_545
O4 V0 1.984117 1_555
O4 V3 1.990060 1_556
O5 V1 1.948139 1_555
O5 V0 1.966990 1_455
O5 V4 2.000439 1_455
O6 V2 1.954590 1_555
O6 V3 1.962601 1_565
O6 V4 1.999262 1_455
O7 V5 1.969035 1_455
O7 V0 1.984117 1_555
O7 V3 1.990060 1_556
F0 V1 2.062240 1_555
F0 V5 2.064204 1_445
F0 V3 2.372507 1_556
F1 V1 2.046715 1_555
F1 V2 2.100205 1_555
F1 V0 2.340905 1_555
F2 V5 2.047566 1_554
F2 V2 2.075383 1_555
F2 V4 2.091153 1_555
F3 V5 2.034717 1_445
F3 V1 2.055295 1_555
F3 V4 2.105263 1_445
