# generated using pymatgen
data_Li14Cu9(P2O7)8
_symmetry_space_group_name_H-M   'P 1'
_cell_length_a   9.48872500
_cell_length_b   11.07044675
_cell_length_c   12.39608387
_cell_angle_alpha   64.11166259
_cell_angle_beta   67.91263816
_cell_angle_gamma   74.50651594
_symmetry_Int_Tables_number   1
_chemical_formula_structural   Li14Cu9(P2O7)8
_chemical_formula_sum   'Li14 Cu9 P16 O56'
_cell_volume   1077.18372402
_cell_formula_units_Z   1
loop_
 _symmetry_equiv_pos_site_id
 _symmetry_equiv_pos_as_xyz
  1  'x, y, z'
loop_
 _atom_site_type_symbol
 _atom_site_label
 _atom_site_symmetry_multiplicity
 _atom_site_fract_x
 _atom_site_fract_y
 _atom_site_fract_z
 _atom_site_occupancy
  Li  Li0  1  0.92973000  0.87396500  0.58626100  1
  Li  Li1  1  0.64326100  0.97128200  0.41107900  1
  Li  Li2  1  0.03911600  0.62720100  0.91830300  1
  Li  Li3  1  0.42549600  0.88245900  0.07925300  1
  Li  Li4  1  0.52959500  0.63178300  0.42896600  1
  Li  Li5  1  0.34675400  0.48562500  0.82637200  1
  Li  Li6  1  0.85122400  0.49321500  0.32016300  1
  Li  Li7  1  0.14877600  0.50678500  0.67983700  1
  Li  Li8  1  0.65324600  0.51437500  0.17362800  1
  Li  Li9  1  0.47040500  0.36821700  0.57103400  1
  Li  Li10  1  0.57450400  0.11754100  0.92074700  1
  Li  Li11  1  0.96088400  0.37279900  0.08169700  1
  Li  Li12  1  0.35673900  0.02871800  0.58892100  1
  Li  Li13  1  0.07027000  0.12603500  0.41373900  1
  Cu  Cu0  1  0.70091300  0.78478500  0.91664100  1
  Cu  Cu1  1  0.56916400  0.74377800  0.70115000  1
  Cu  Cu2  1  0.19818300  0.78219900  0.41808600  1
  Cu  Cu3  1  0.00000000  0.00000000  0.00000000  1
  Cu  Cu4  1  0.92374900  0.27075100  0.79423700  1
  Cu  Cu5  1  0.07625100  0.72924900  0.20576300  1
  Cu  Cu6  1  0.80181700  0.21780100  0.58191400  1
  Cu  Cu7  1  0.43083600  0.25622200  0.29885000  1
  Cu  Cu8  1  0.29908700  0.21521500  0.08335900  1
  P  P0  1  0.98042600  0.94095900  0.77569900  1
  P  P1  1  0.37254300  0.69024100  0.99314700  1
  P  P2  1  0.47531200  0.94214900  0.27670800  1
  P  P3  1  0.80584500  0.54147900  0.86932000  1
  P  P4  1  0.24044700  0.78677400  0.65754400  1
  P  P5  1  0.87000100  0.69190800  0.49137500  1
  P  P6  1  0.74274600  0.79854600  0.15168500  1
  P  P7  1  0.68806500  0.46001500  0.63005100  1
  P  P8  1  0.31193500  0.53998500  0.36994900  1
  P  P9  1  0.25725400  0.20145400  0.84831500  1
  P  P10  1  0.12999900  0.30809200  0.50862500  1
  P  P11  1  0.75955300  0.21322600  0.34245600  1
  P  P12  1  0.19415500  0.45852100  0.13068000  1
  P  P13  1  0.52468800  0.05785100  0.72329200  1
  P  P14  1  0.62745700  0.30975900  0.00685300  1
  P  P15  1  0.01957400  0.05904100  0.22430100  1
  O  O0  1  0.58235500  0.98998900  0.83777200  1
  O  O1  1  0.91924900  0.80353600  0.86101000  1
  O  O2  1  0.53685700  0.97125300  0.65283500  1
  O  O3  1  0.16562700  0.89726600  0.72759900  1
  O  O4  1  0.74499000  0.69108900  0.79397500  1
  O  O5  1  0.84030000  0.53496700  0.98392500  1
  O  O6  1  0.72600100  0.78971800  0.52692300  1
  O  O7  1  0.00142500  0.70905500  0.52539500  1
  O  O8  1  0.40478800  0.70394900  0.85895900  1
  O  O9  1  0.40940900  0.80729400  0.60621900  1
  O  O10  1  0.66097300  0.89512500  0.23217100  1
  O  O11  1  0.07760800  0.98823100  0.33858600  1
  O  O12  1  0.16188000  0.84622300  0.55349100  1
  O  O13  1  0.90676400  0.70032700  0.35827800  1
  O  O14  1  0.41407500  0.80361600  0.36130700  1
  O  O15  1  0.91323700  0.82241800  0.10054400  1
  O  O16  1  0.93885500  0.47570400  0.79007900  1
  O  O17  1  0.65723800  0.46578400  0.91950400  1
  O  O18  1  0.19982400  0.64513200  0.74898300  1
  O  O19  1  0.03966000  0.96735600  0.15485700  1
  O  O20  1  0.66479800  0.85861000  0.04694800  1
  O  O21  1  0.83262300  0.54030100  0.58317000  1
  O  O22  1  0.55225800  0.52005100  0.71100400  1
  O  O23  1  0.71663300  0.65189800  0.23520100  1
  O  O24  1  0.49479100  0.28923400  0.97607300  1
  O  O25  1  0.77357800  0.22063500  0.96168900  1
  O  O26  1  0.24500000  0.68814200  0.29793700  1
  O  O27  1  0.34056600  0.53129800  0.48796900  1
  O  O28  1  0.65943400  0.46870200  0.51203100  1
  O  O29  1  0.75500000  0.31185800  0.70206300  1
  O  O30  1  0.22642200  0.77936500  0.03831100  1
  O  O31  1  0.50520900  0.71076600  0.02392700  1
  O  O32  1  0.28336700  0.34810200  0.76479900  1
  O  O33  1  0.44774200  0.47994900  0.28899600  1
  O  O34  1  0.16737700  0.45969900  0.41683000  1
  O  O35  1  0.33520200  0.14139000  0.95305200  1
  O  O36  1  0.96034000  0.03264400  0.84514300  1
  O  O37  1  0.80017600  0.35486800  0.25101700  1
  O  O38  1  0.34276200  0.53421600  0.08049600  1
  O  O39  1  0.06114500  0.52429600  0.20992100  1
  O  O40  1  0.08676300  0.17758200  0.89945600  1
  O  O41  1  0.58592500  0.19638400  0.63869300  1
  O  O42  1  0.09323600  0.29967300  0.64172200  1
  O  O43  1  0.83812000  0.15377700  0.44650900  1
  O  O44  1  0.92239200  0.01176900  0.66141400  1
  O  O45  1  0.33902700  0.10487500  0.76782900  1
  O  O46  1  0.59059100  0.19270600  0.39378100  1
  O  O47  1  0.59521200  0.29605100  0.14104100  1
  O  O48  1  0.99857500  0.29094500  0.47460500  1
  O  O49  1  0.27399900  0.21028200  0.47307700  1
  O  O50  1  0.15970000  0.46503300  0.01607500  1
  O  O51  1  0.25501000  0.30891100  0.20602500  1
  O  O52  1  0.83437300  0.10273400  0.27240100  1
  O  O53  1  0.46314300  0.02874700  0.34716500  1
  O  O54  1  0.08075100  0.19646400  0.13899000  1
  O  O55  1  0.41764500  0.01001100  0.16222800  1
loop_
_geom_bond_atom_site_label_1
_geom_bond_atom_site_label_2
_geom_bond_distance
_geom_bond_site_symmetry_2
Li0 O12 2.046035 1_655
Li0 O44 2.082201 1_565
Li0 O7 2.125624 1_655
Li1 O53 1.987643 1_565
Li1 O6 2.050090 1_555
Li1 O52 2.289606 1_565
Li1 O46 2.295983 1_565
Li2 O1 1.954323 1_455
Li2 O50 2.011593 1_556
Li2 O18 2.039864 1_555
Li2 O5 2.100704 1_455
Li3 O55 2.052282 1_565
Li3 O20 2.115236 1_555
Li3 O31 2.152978 1_555
Li4 O14 1.925549 1_555
Li4 O28 1.994959 1_555
Li4 O27 2.087700 1_555
Li4 O23 2.346668 1_555
Li5 O22 1.953651 1_555
Li5 O18 2.047789 1_555
Li5 O32 2.260826 1_555
Li5 O50 2.311131 1_556
Li6 O39 1.965190 1_655
Li6 O23 2.005862 1_555
Li6 O37 2.273748 1_555
Li6 O28 2.342533 1_555
Li7 O16 1.965190 1_455
Li7 O32 2.005862 1_555
Li7 O18 2.273748 1_555
Li7 O27 2.342533 1_555
Li8 O33 1.953651 1_555
Li8 O37 2.047789 1_555
Li8 O23 2.260826 1_555
Li8 O5 2.311131 1_554
Li9 O41 1.925549 1_555
Li9 O27 1.994959 1_555
Li9 O28 2.087700 1_555
Li9 O32 2.346668 1_555
Li10 O0 2.052282 1_545
Li10 O35 2.115236 1_555
Li10 O24 2.152978 1_555
Li11 O54 1.954323 1_655
Li11 O5 2.011593 1_554
Li11 O37 2.039864 1_555
Li11 O50 2.100704 1_655
Li12 O2 1.987643 1_545
Li12 O49 2.050090 1_555
Li12 O3 2.289606 1_545
Li12 O9 2.295983 1_545
Li13 O43 2.046035 1_455
Li13 O11 2.082201 1_545
Li13 O48 2.125624 1_455
Cu0 O1 1.959859 1_555
Cu0 O31 1.972965 1_556
Cu0 O20 1.995355 1_556
Cu0 O4 2.056754 1_555
Cu0 O0 2.214577 1_555
Cu1 O8 1.942561 1_555
Cu1 O6 2.041046 1_555
Cu1 O9 2.055865 1_555
Cu1 O4 2.187559 1_555
Cu1 O2 2.280978 1_555
Cu1 O22 2.471503 1_555
Cu2 O14 1.943595 1_555
Cu2 O7 1.977416 1_555
Cu2 O12 1.977868 1_555
Cu2 O26 2.027148 1_555
Cu2 O11 2.230119 1_555
Cu3 O36 1.954991 1_454
Cu3 O19 1.954991 1_545
Cu3 O40 2.012308 1_554
Cu3 O15 2.012308 1_445
Cu4 O42 1.929545 1_655
Cu4 O25 1.959413 1_555
Cu4 O29 2.146867 1_555
Cu4 O40 2.155861 1_655
Cu4 O16 2.288510 1_555
Cu4 O36 2.385431 1_555
Cu5 O13 1.929545 1_455
Cu5 O30 1.959413 1_555
Cu5 O26 2.146867 1_555
Cu5 O15 2.155861 1_455
Cu5 O39 2.288510 1_555
Cu5 O19 2.385431 1_555
Cu6 O41 1.943595 1_555
Cu6 O48 1.977416 1_555
Cu6 O43 1.977868 1_555
Cu6 O29 2.027148 1_555
Cu6 O44 2.230119 1_555
Cu7 O47 1.942561 1_555
Cu7 O49 2.041046 1_555
Cu7 O46 2.055865 1_555
Cu7 O51 2.187559 1_555
Cu7 O53 2.280978 1_555
Cu7 O33 2.471503 1_555
Cu8 O54 1.959859 1_555
Cu8 O24 1.972965 1_554
Cu8 O35 1.995355 1_554
Cu8 O51 2.056754 1_555
Cu8 O55 2.214577 1_555
O0 P13 1.520209 1_565
O1 P0 1.541113 1_555
O2 P13 1.513733 1_565
O3 P0 1.639326 1_455
O3 P4 1.659622 1_555
O4 P3 1.578840 1_555
O5 P3 1.541949 1_555
O6 P5 1.551461 1_555
O7 P5 1.536513 1_455
O8 P1 1.518286 1_555
O9 P4 1.525785 1_555
O10 P6 1.626872 1_555
O10 P2 1.645876 1_555
O11 P15 1.520208 1_565
O12 P4 1.540247 1_555
O13 P5 1.517480 1_555
O14 P2 1.550095 1_555
O15 P6 1.549086 1_555
O16 P3 1.513025 1_555
O17 P3 1.610573 1_555
O17 P14 1.622717 1_556
O18 P4 1.527877 1_555
O19 P15 1.530954 1_565
O20 P6 1.542852 1_555
O21 P5 1.607574 1_555
O21 P7 1.615547 1_555
O22 P7 1.503882 1_555
O23 P6 1.524182 1_555
O24 P14 1.540000 1_556
O25 P14 1.541761 1_556
O26 P8 1.575337 1_555
O27 P8 1.544495 1_555
O28 P7 1.544495 1_555
O29 P7 1.575337 1_555
O30 P1 1.541761 1_554
O31 P1 1.540000 1_554
O32 P9 1.524182 1_555
O33 P8 1.503882 1_555
O34 P10 1.607574 1_555
O34 P8 1.615547 1_555
O35 P9 1.542852 1_555
O36 P0 1.530954 1_545
O37 P11 1.527877 1_555
O38 P12 1.610573 1_555
O38 P1 1.622717 1_554
O39 P12 1.513025 1_555
O40 P9 1.549086 1_555
O41 P13 1.550095 1_555
O42 P10 1.517480 1_555
O43 P11 1.540247 1_555
O44 P0 1.520208 1_545
O45 P9 1.626872 1_555
O45 P13 1.645876 1_555
O46 P11 1.525785 1_555
O47 P14 1.518286 1_555
O48 P10 1.536513 1_655
O49 P10 1.551461 1_555
O50 P12 1.541949 1_555
O51 P12 1.578840 1_555
O52 P15 1.639326 1_655
O52 P11 1.659622 1_555
O53 P2 1.513733 1_545
O54 P15 1.541113 1_555
O55 P2 1.520209 1_545
