# generated using pymatgen
data_Rb2Te2O2F7
_symmetry_space_group_name_H-M   'P 1'
_cell_length_a   13.02738800
_cell_length_b   6.01476700
_cell_length_c   12.55537173
_cell_angle_alpha   85.29349542
_cell_angle_beta   90.00000000
_cell_angle_gamma   90.00000000
_symmetry_Int_Tables_number   1
_chemical_formula_structural   Rb2Te2O2F7
_chemical_formula_sum   'Rb8 Te8 O8 F28'
_cell_volume   980.48025097
_cell_formula_units_Z   4
loop_
 _symmetry_equiv_pos_site_id
 _symmetry_equiv_pos_as_xyz
  1  'x, y, z'
loop_
 _atom_site_type_symbol
 _atom_site_label
 _atom_site_symmetry_multiplicity
 _atom_site_fract_x
 _atom_site_fract_y
 _atom_site_fract_z
 _atom_site_occupancy
  Rb  Rb0  1  0.60976400  0.74512200  0.88332800  1
  Rb  Rb1  1  0.10976400  0.25487800  0.11667200  1
  Rb  Rb2  1  0.18915800  0.73591900  0.87370000  1
  Rb  Rb3  1  0.68915800  0.26408100  0.12630000  1
  Rb  Rb4  1  0.42397900  0.75165400  0.61596800  1
  Rb  Rb5  1  0.92397900  0.24834600  0.38403200  1
  Rb  Rb6  1  0.84559000  0.77019700  0.62542100  1
  Rb  Rb7  1  0.34559000  0.22980300  0.37457900  1
  Te  Te0  1  0.39690000  0.76661200  0.13265500  1
  Te  Te1  1  0.89690000  0.23338800  0.86734500  1
  Te  Te2  1  0.90009600  0.77249800  0.06249600  1
  Te  Te3  1  0.40009600  0.22750200  0.93750400  1
  Te  Te4  1  0.63697700  0.72988500  0.36456000  1
  Te  Te5  1  0.13697700  0.27011500  0.63544000  1
  Te  Te6  1  0.13570900  0.72851800  0.43896700  1
  Te  Te7  1  0.63570900  0.27148200  0.56103300  1
  O  O0  1  0.89762500  0.94161200  0.18952700  1
  O  O1  1  0.39762500  0.05838800  0.81047300  1
  O  O2  1  0.39488100  0.88504500  0.98669800  1
  O  O3  1  0.89488100  0.11495500  0.01330200  1
  O  O4  1  0.13179100  0.56631800  0.31099500  1
  O  O5  1  0.63179100  0.43368200  0.68900500  1
  O  O6  1  0.63287300  0.61281700  0.51170400  1
  O  O7  1  0.13287300  0.38718300  0.48829600  1
  F  F0  1  0.90812300  0.50842300  0.17473500  1
  F  F1  1  0.40812300  0.49157700  0.82526500  1
  F  F2  1  0.05652600  0.79208800  0.07247200  1
  F  F3  1  0.55652600  0.20791200  0.92752800  1
  F  F4  1  0.50648500  0.55708200  0.08021600  1
  F  F5  1  0.00648500  0.44291800  0.91978400  1
  F  F6  1  0.74221300  0.75908000  0.08342800  1
  F  F7  1  0.24221300  0.24092000  0.91657200  1
  F  F8  1  0.28228700  0.56572200  0.08258400  1
  F  F9  1  0.78228700  0.43427800  0.91741600  1
  F  F10  1  0.30381300  0.02988900  0.15848700  1
  F  F11  1  0.80381300  0.97011100  0.84151300  1
  F  F12  1  0.51293500  0.98263800  0.15807800  1
  F  F13  1  0.01293500  0.01736200  0.84192200  1
  F  F14  1  0.97920100  0.72450000  0.43142600  1
  F  F15  1  0.47920100  0.27550000  0.56857400  1
  F  F16  1  0.63040700  0.00917600  0.67447500  1
  F  F17  1  0.13040700  0.99082400  0.32552500  1
  F  F18  1  0.22726400  0.54233000  0.65809000  1
  F  F19  1  0.72726400  0.45767000  0.34191000  1
  F  F20  1  0.01695400  0.47604200  0.66091400  1
  F  F21  1  0.51695400  0.52395800  0.33908600  1
  F  F22  1  0.29374600  0.72135800  0.41724400  1
  F  F23  1  0.79374600  0.27864200  0.58275600  1
  F  F24  1  0.53060700  0.94834400  0.41258200  1
  F  F25  1  0.03060700  0.05165600  0.58741800  1
  F  F26  1  0.75179500  0.92583200  0.41920600  1
  F  F27  1  0.25179500  0.07416800  0.58079400  1
loop_
_geom_bond_atom_site_label_1
_geom_bond_atom_site_label_2
_geom_bond_distance
_geom_bond_site_symmetry_2
O0 Te2 1.961045 1_555
O0 Rb5 3.197621 1_565
O0 Rb3 3.393365 1_565
O0 Rb1 3.426624 1_665
O1 Te3 1.961045 1_555
O1 Rb4 3.197621 1_545
O1 Rb2 3.393365 1_545
O1 Rb0 3.426624 1_545
O2 Te0 1.911054 1_556
O2 Te3 2.102403 1_565
O2 Rb2 3.195112 1_555
O2 Rb0 3.226204 1_555
O3 Te1 1.911054 1_554
O3 Te2 2.102403 1_545
O3 Rb3 3.195112 1_555
O3 Rb1 3.226204 1_655
O4 Te6 1.947621 1_555
O4 Rb1 3.208424 1_555
O4 Rb5 3.397065 1_455
O4 Rb7 3.496647 1_555
O5 Te7 1.947621 1_555
O5 Rb0 3.208424 1_555
O5 Rb4 3.397065 1_555
O5 Rb6 3.496647 1_555
O6 Te4 1.923085 1_555
O6 Te7 2.095544 1_555
O6 Rb4 3.161664 1_555
O6 Rb6 3.291747 1_555
O7 Te5 1.923085 1_555
O7 Te6 2.095544 1_555
O7 Rb5 3.161664 1_455
O7 Rb7 3.291747 1_555
F0 Te2 2.037726 1_555
F0 Rb5 2.953045 1_555
F0 Rb1 3.152764 1_655
F0 Rb3 3.288369 1_555
F1 Te3 2.037726 1_555
F1 Rb4 2.953045 1_555
F1 Rb0 3.152764 1_555
F1 Rb2 3.288369 1_555
F2 Te2 2.045709 1_455
F2 Rb1 2.964922 1_565
F2 Rb2 3.076729 1_554
F2 Rb1 3.306861 1_555
F3 Te3 2.045709 1_555
F3 Rb0 2.964922 1_545
F3 Rb3 3.076729 1_556
F3 Rb0 3.306861 1_555
F4 Te0 2.048413 1_555
F4 Rb0 2.956591 1_554
F4 Rb3 2.989395 1_555
F5 Te1 2.048413 1_455
F5 Rb1 2.956591 1_556
F5 Rb2 2.989395 1_555
F6 Te2 2.074257 1_555
F6 Rb0 3.054618 1_554
F6 Rb3 3.060849 1_555
F6 Rb3 3.203427 1_565
F7 Te3 2.074257 1_555
F7 Rb1 3.054618 1_556
F7 Rb2 3.060849 1_555
F7 Rb2 3.203427 1_545
F8 Te0 2.051644 1_555
F8 Rb1 2.932376 1_555
F8 Rb2 2.992893 1_554
F9 Te1 2.051644 1_555
F9 Rb0 2.932376 1_555
F9 Rb3 2.992893 1_556
F10 Te0 2.041494 1_545
F10 Rb1 2.894975 1_555
F10 Rb7 3.104579 1_555
F11 Te1 2.041494 1_565
F11 Rb0 2.894975 1_555
F11 Rb6 3.104579 1_555
F12 Te0 2.035505 1_555
F12 Rb3 2.860826 1_565
F13 Te1 2.035505 1_455
F13 Rb2 2.860826 1_545
F14 Te6 2.041323 1_655
F14 Rb6 3.024506 1_555
F14 Rb5 3.058353 1_555
F14 Rb5 3.239067 1_565
F15 Te7 2.041323 1_555
F15 Rb7 3.024506 1_555
F15 Rb4 3.058353 1_555
F15 Rb4 3.239067 1_545
F16 Te7 2.038093 1_555
F16 Rb0 2.964357 1_545
F16 Rb4 3.218293 1_545
F16 Rb6 3.232501 1_545
F17 Te6 2.038093 1_555
F17 Rb1 2.964357 1_565
F17 Rb5 3.218293 1_465
F17 Rb7 3.232501 1_565
F18 Te5 2.054634 1_555
F18 Rb4 2.884949 1_555
F18 Rb2 3.073712 1_555
F19 Te4 2.054634 1_555
F19 Rb5 2.884949 1_555
F19 Rb3 3.073712 1_555
F20 Te5 2.036233 1_555
F20 Rb6 2.860638 1_455
F21 Te4 2.036233 1_555
F21 Rb7 2.860638 1_555
F22 Te6 2.077707 1_555
F22 Rb4 3.035053 1_555
F22 Rb7 3.121606 1_555
F22 Rb7 3.134761 1_565
F23 Te7 2.077707 1_555
F23 Rb5 3.035053 1_555
F23 Rb6 3.121606 1_555
F23 Rb6 3.134761 1_545
F24 Te4 2.034776 1_555
F24 Rb7 2.961510 1_565
F24 Rb4 3.058463 1_555
F25 Te5 2.034776 1_555
F25 Rb6 2.961510 1_445
F25 Rb5 3.058463 1_455
F26 Te4 2.056654 1_555
F26 Rb6 2.945349 1_555
F26 Rb5 2.974724 1_565
F27 Te5 2.056654 1_555
F27 Rb7 2.945349 1_555
F27 Rb4 2.974724 1_545
