# generated using pymatgen
data_Na2WO6
_symmetry_space_group_name_H-M   'P 1'
_cell_length_a   8.91531900
_cell_length_b   10.62367900
_cell_length_c   12.32531800
_cell_angle_alpha   90.00000000
_cell_angle_beta   90.00000000
_cell_angle_gamma   90.00000000
_symmetry_Int_Tables_number   1
_chemical_formula_structural   Na2WO6
_chemical_formula_sum   'Na16 W8 O48'
_cell_volume   1167.37384910
_cell_formula_units_Z   8
loop_
 _symmetry_equiv_pos_site_id
 _symmetry_equiv_pos_as_xyz
  1  'x, y, z'
loop_
 _atom_site_type_symbol
 _atom_site_label
 _atom_site_symmetry_multiplicity
 _atom_site_fract_x
 _atom_site_fract_y
 _atom_site_fract_z
 _atom_site_occupancy
  Na  Na0  1  0.73787400  0.41182500  0.33882100  1
  Na  Na1  1  0.23787400  0.08817500  0.66117900  1
  Na  Na2  1  0.26212600  0.91182500  0.16117900  1
  Na  Na3  1  0.76212600  0.58817500  0.83882100  1
  Na  Na4  1  0.26212600  0.58817500  0.66117900  1
  Na  Na5  1  0.76212600  0.91182500  0.33882100  1
  Na  Na6  1  0.73787400  0.08817500  0.83882100  1
  Na  Na7  1  0.23787400  0.41182500  0.16117900  1
  Na  Na8  1  0.66940500  0.51418300  0.56179900  1
  Na  Na9  1  0.16940500  0.98581700  0.43820100  1
  Na  Na10  1  0.33059500  0.01418300  0.93820100  1
  Na  Na11  1  0.83059500  0.48581700  0.06179900  1
  Na  Na12  1  0.33059500  0.48581700  0.43820100  1
  Na  Na13  1  0.83059500  0.01418300  0.56179900  1
  Na  Na14  1  0.66940500  0.98581700  0.06179900  1
  Na  Na15  1  0.16940500  0.51418300  0.93820100  1
  W  W0  1  0.06694900  0.18820200  0.99865700  1
  W  W1  1  0.56694900  0.31179800  0.00134300  1
  W  W2  1  0.93305100  0.68820200  0.50134300  1
  W  W3  1  0.43305100  0.81179800  0.49865700  1
  W  W4  1  0.93305100  0.81179800  0.00134300  1
  W  W5  1  0.43305100  0.68820200  0.99865700  1
  W  W6  1  0.06694900  0.31179800  0.49865700  1
  W  W7  1  0.56694900  0.18820200  0.50134300  1
  O  O0  1  0.87918600  0.12381600  0.00864600  1
  O  O1  1  0.37918600  0.37618400  0.99135400  1
  O  O2  1  0.12081400  0.62381600  0.49135400  1
  O  O3  1  0.62081400  0.87618400  0.50864600  1
  O  O4  1  0.12081400  0.87618400  0.99135400  1
  O  O5  1  0.62081400  0.62381600  0.00864600  1
  O  O6  1  0.87918600  0.37618400  0.50864600  1
  O  O7  1  0.37918600  0.12381600  0.49135400  1
  O  O8  1  0.19597200  0.11461000  0.09329100  1
  O  O9  1  0.69597200  0.38539000  0.90670900  1
  O  O10  1  0.80402800  0.61461000  0.40670900  1
  O  O11  1  0.30402800  0.88539000  0.59329100  1
  O  O12  1  0.80402800  0.88539000  0.90670900  1
  O  O13  1  0.30402800  0.61461000  0.09329100  1
  O  O14  1  0.19597200  0.38539000  0.59329100  1
  O  O15  1  0.69597200  0.11461000  0.40670900  1
  O  O16  1  0.05187100  0.35697300  0.03206100  1
  O  O17  1  0.55187100  0.14302700  0.96793900  1
  O  O18  1  0.94812900  0.85697300  0.46793900  1
  O  O19  1  0.44812900  0.64302700  0.53206100  1
  O  O20  1  0.94812900  0.64302700  0.96793900  1
  O  O21  1  0.44812900  0.85697300  0.03206100  1
  O  O22  1  0.05187100  0.14302700  0.53206100  1
  O  O23  1  0.55187100  0.35697300  0.46793900  1
  O  O24  1  0.96759100  0.18996800  0.24554300  1
  O  O25  1  0.46759100  0.31003200  0.75445700  1
  O  O26  1  0.03240900  0.68996800  0.25445700  1
  O  O27  1  0.53240900  0.81003200  0.74554300  1
  O  O28  1  0.03240900  0.81003200  0.75445700  1
  O  O29  1  0.53240900  0.68996800  0.24554300  1
  O  O30  1  0.96759100  0.31003200  0.74554300  1
  O  O31  1  0.46759100  0.18996800  0.25445700  1
  O  O32  1  0.99190700  0.08553700  0.28530900  1
  O  O33  1  0.49190700  0.41446300  0.71469100  1
  O  O34  1  0.00809300  0.58553700  0.21469100  1
  O  O35  1  0.50809300  0.91446300  0.78530900  1
  O  O36  1  0.00809300  0.91446300  0.71469100  1
  O  O37  1  0.50809300  0.58553700  0.28530900  1
  O  O38  1  0.99190700  0.41446300  0.78530900  1
  O  O39  1  0.49190700  0.08553700  0.21469100  1
  O  O40  1  0.64199500  0.34595200  0.13652100  1
  O  O41  1  0.14199500  0.15404800  0.86347900  1
  O  O42  1  0.35800500  0.84595200  0.36347900  1
  O  O43  1  0.85800500  0.65404800  0.63652100  1
  O  O44  1  0.35800500  0.65404800  0.86347900  1
  O  O45  1  0.85800500  0.84595200  0.13652100  1
  O  O46  1  0.64199500  0.15404800  0.63652100  1
  O  O47  1  0.14199500  0.34595200  0.36347900  1
loop_
_geom_bond_atom_site_label_1
_geom_bond_atom_site_label_2
_geom_bond_distance
_geom_bond_site_symmetry_2
Na0 O23 2.371091 1_555
Na0 O10 2.385181 1_555
Na0 O6 2.472212 1_555
Na0 O40 2.727180 1_555
Na0 O37 2.835027 1_555
Na1 O22 2.371091 1_555
Na1 O11 2.385181 1_545
Na1 O7 2.472212 1_555
Na1 O41 2.727180 1_555
Na1 O36 2.835027 1_545
Na2 O21 2.371091 1_555
Na2 O8 2.385181 1_565
Na2 O4 2.472212 1_554
Na2 O42 2.727180 1_555
Na2 O39 2.835027 1_565
Na3 O20 2.371091 1_555
Na3 O9 2.385181 1_555
Na3 O5 2.472212 1_556
Na3 O43 2.727180 1_555
Na3 O38 2.835027 1_555
Na4 O19 2.371091 1_555
Na4 O14 2.385181 1_555
Na4 O2 2.472212 1_555
Na4 O44 2.727180 1_555
Na4 O33 2.835027 1_555
Na5 O18 2.371091 1_555
Na5 O15 2.385181 1_565
Na5 O3 2.472212 1_555
Na5 O45 2.727180 1_555
Na5 O32 2.835027 1_565
Na6 O17 2.371091 1_555
Na6 O12 2.385181 1_545
Na6 O0 2.472212 1_556
Na6 O46 2.727180 1_555
Na6 O35 2.835027 1_545
Na7 O16 2.371091 1_555
Na7 O13 2.385181 1_555
Na7 O1 2.472212 1_554
Na7 O47 2.727180 1_555
Na7 O34 2.835027 1_555
Na8 O23 2.285980 1_555
Na8 O43 2.425538 1_555
Na8 O19 2.428925 1_555
Na8 O6 2.465037 1_555
Na8 O10 2.496546 1_555
Na8 O33 2.679102 1_555
Na9 O22 2.285980 1_565
Na9 O42 2.425538 1_555
Na9 O18 2.428925 1_455
Na9 O7 2.465037 1_565
Na9 O11 2.496546 1_555
Na9 O32 2.679102 1_465
Na10 O21 2.285980 1_546
Na10 O41 2.425538 1_555
Na10 O17 2.428925 1_555
Na10 O4 2.465037 1_545
Na10 O8 2.496546 1_556
Na10 O35 2.679102 1_545
Na11 O20 2.285980 1_554
Na11 O40 2.425538 1_555
Na11 O16 2.428925 1_655
Na11 O5 2.465037 1_555
Na11 O9 2.496546 1_554
Na11 O34 2.679102 1_655
Na12 O19 2.285980 1_555
Na12 O47 2.425538 1_555
Na12 O23 2.428925 1_555
Na12 O2 2.465037 1_555
Na12 O14 2.496546 1_555
Na12 O37 2.679102 1_555
Na13 O18 2.285980 1_545
Na13 O46 2.425538 1_555
Na13 O22 2.428925 1_655
Na13 O3 2.465037 1_545
Na13 O15 2.496546 1_555
Na13 O36 2.679102 1_645
Na14 O17 2.285980 1_564
Na14 O45 2.425538 1_555
Na14 O21 2.428925 1_555
Na14 O0 2.465037 1_565
Na14 O12 2.496546 1_554
Na14 O39 2.679102 1_565
Na15 O16 2.285980 1_556
Na15 O44 2.425538 1_555
Na15 O20 2.428925 1_455
Na15 O1 2.465037 1_555
Na15 O13 2.496546 1_556
Na15 O38 2.679102 1_455
O0 W0 1.812513 1_654
O1 W1 1.812513 1_556
O2 W2 1.812513 1_455
O3 W3 1.812513 1_555
O4 W4 1.812513 1_456
O5 W5 1.812513 1_554
O6 W6 1.812513 1_655
O7 W7 1.812513 1_555
O8 W0 1.815175 1_554
O9 W1 1.815175 1_556
O10 W2 1.815175 1_555
O11 W3 1.815175 1_555
O12 W4 1.815175 1_556
O13 W5 1.815175 1_554
O14 W6 1.815175 1_555
O15 W7 1.815175 1_555
O16 W0 1.844537 1_554
O17 W1 1.844537 1_556
O18 W2 1.844537 1_555
O19 W3 1.844537 1_555
O20 W4 1.844537 1_556
O21 W5 1.844537 1_554
O22 W6 1.844537 1_555
O23 W7 1.844537 1_555
O24 O32 1.232105 1_555
O25 O33 1.232105 1_555
O26 O34 1.232105 1_555
O27 O35 1.232105 1_555
O28 O36 1.232105 1_555
O29 O37 1.232105 1_555
O30 O38 1.232105 1_555
O31 O39 1.232105 1_555
O40 W1 1.831727 1_555
O41 W0 1.831727 1_555
O42 W3 1.831727 1_555
O43 W2 1.831727 1_555
O44 W5 1.831727 1_555
O45 W4 1.831727 1_555
O46 W7 1.831727 1_555
O47 W6 1.831727 1_555
