# generated using pymatgen
data_Na2CuBSO7
_symmetry_space_group_name_H-M   'P 1'
_cell_length_a   7.33988000
_cell_length_b   5.06973200
_cell_length_c   8.76142494
_cell_angle_alpha   88.63371267
_cell_angle_beta   90.00000000
_cell_angle_gamma   90.00000000
_symmetry_Int_Tables_number   1
_chemical_formula_structural   Na2CuBSO7
_chemical_formula_sum   'Na4 Cu2 B2 S2 O14'
_cell_volume   325.93065956
_cell_formula_units_Z   2
loop_
 _symmetry_equiv_pos_site_id
 _symmetry_equiv_pos_as_xyz
  1  'x, y, z'
loop_
 _atom_site_type_symbol
 _atom_site_label
 _atom_site_symmetry_multiplicity
 _atom_site_fract_x
 _atom_site_fract_y
 _atom_site_fract_z
 _atom_site_occupancy
  Na  Na0  1  0.50185700  0.76804200  0.76950300  1
  Na  Na1  1  0.99814300  0.76804200  0.76950300  1
  Na  Na2  1  0.49814300  0.23195800  0.23049700  1
  Na  Na3  1  0.00185700  0.23195800  0.23049700  1
  Cu  Cu0  1  0.25000000  0.22595700  0.65540500  1
  Cu  Cu1  1  0.75000000  0.77404300  0.34459500  1
  B  B0  1  0.25000000  0.27401800  0.92578100  1
  B  B1  1  0.75000000  0.72598200  0.07421900  1
  S  S0  1  0.75000000  0.27826900  0.57910400  1
  S  S1  1  0.25000000  0.72173100  0.42089600  1
  O  O0  1  0.75000000  0.71214600  0.92420700  1
  O  O1  1  0.25000000  0.04238100  0.84236300  1
  O  O2  1  0.25000000  0.47626200  0.81347000  1
  O  O3  1  0.91602700  0.21497600  0.66586700  1
  O  O4  1  0.58397300  0.21497600  0.66586700  1
  O  O5  1  0.25000000  0.86006300  0.57179700  1
  O  O6  1  0.75000000  0.57399000  0.53927800  1
  O  O7  1  0.25000000  0.42601000  0.46072200  1
  O  O8  1  0.75000000  0.13993700  0.42820300  1
  O  O9  1  0.41602700  0.78502400  0.33413300  1
  O  O10  1  0.08397300  0.78502400  0.33413300  1
  O  O11  1  0.75000000  0.52373800  0.18653000  1
  O  O12  1  0.75000000  0.95761900  0.15763700  1
  O  O13  1  0.25000000  0.28785400  0.07579300  1
loop_
_geom_bond_atom_site_label_1
_geom_bond_atom_site_label_2
_geom_bond_distance
_geom_bond_site_symmetry_2
Na0 O0 2.283955 1_555
Na0 O2 2.393054 1_555
Na0 O1 2.408642 1_565
Na0 O4 2.494721 1_565
Na0 O5 2.568443 1_555
Na0 O6 2.906621 1_555
Na1 O0 2.283955 1_555
Na1 O2 2.393054 1_655
Na1 O1 2.408642 1_665
Na1 O3 2.494721 1_565
Na1 O5 2.568443 1_655
Na1 O6 2.906621 1_555
Na2 O13 2.283955 1_555
Na2 O11 2.393054 1_555
Na2 O12 2.408642 1_545
Na2 O9 2.494721 1_545
Na2 O8 2.568443 1_555
Na2 O7 2.906621 1_555
Na3 O13 2.283955 1_555
Na3 O11 2.393054 1_455
Na3 O12 2.408642 1_445
Na3 O10 2.494721 1_545
Na3 O8 2.568443 1_455
Na3 O7 2.906621 1_555
Cu0 O1 1.864557 1_555
Cu0 O2 1.900524 1_555
Cu0 O7 1.963555 1_555
Cu0 O5 2.010562 1_545
Cu0 O4 2.453617 1_555
Cu0 O3 2.453617 1_455
Cu1 O12 1.864557 1_555
Cu1 O11 1.900524 1_555
Cu1 O6 1.963555 1_555
Cu1 O8 2.010562 1_565
Cu1 O10 2.453617 1_655
Cu1 O9 2.453617 1_555
B0 O13 1.317858 1_556
B0 O1 1.397911 1_555
B0 O2 1.404079 1_555
B1 O0 1.317858 1_554
B1 O12 1.397911 1_555
B1 O11 1.404079 1_555
O3 S0 1.467725 1_555
O4 S0 1.467725 1_555
O5 S1 1.511296 1_555
O6 S0 1.531172 1_555
O7 S1 1.531172 1_555
O8 S0 1.511296 1_555
O9 S1 1.467725 1_555
O10 S1 1.467725 1_555
