# generated using pymatgen
data_La2Se2O
_symmetry_space_group_name_H-M   'P 1'
_cell_length_a   7.48449077
_cell_length_b   7.45277355
_cell_length_c   8.99800638
_cell_angle_alpha   80.37347683
_cell_angle_beta   90.00000000
_cell_angle_gamma   90.00000000
_symmetry_Int_Tables_number   1
_chemical_formula_structural   La2Se2O
_chemical_formula_sum   'La8 Se8 O4'
_cell_volume   494.84318922
_cell_formula_units_Z   4
loop_
 _symmetry_equiv_pos_site_id
 _symmetry_equiv_pos_as_xyz
  1  'x, y, z'
loop_
 _atom_site_type_symbol
 _atom_site_label
 _atom_site_symmetry_multiplicity
 _atom_site_fract_x
 _atom_site_fract_y
 _atom_site_fract_z
 _atom_site_occupancy
  La  La0  1  0.44747379  0.24480247  0.14310222  1
  La  La1  1  0.05252621  0.74480247  0.14310222  1
  La  La2  1  0.85452772  0.32375023  0.42452153  1
  La  La3  1  0.64547228  0.82375023  0.42452153  1
  La  La4  1  0.35452772  0.17624977  0.57547847  1
  La  La5  1  0.14547228  0.67624977  0.57547847  1
  La  La6  1  0.94747379  0.25519753  0.85689778  1
  La  La7  1  0.55252621  0.75519753  0.85689778  1
  Se  Se0  1  0.77595244  0.47162815  0.07874961  1
  Se  Se1  1  0.72404756  0.97162815  0.07874961  1
  Se  Se2  1  0.13311456  0.06364302  0.32232599  1
  Se  Se3  1  0.36688544  0.56364302  0.32232599  1
  Se  Se4  1  0.63311456  0.43635698  0.67767401  1
  Se  Se5  1  0.86688544  0.93635698  0.67767401  1
  Se  Se6  1  0.27595244  0.02837185  0.92125039  1
  Se  Se7  1  0.22404756  0.52837185  0.92125039  1
  O  O0  1  0.58359762  0.14844529  0.38554415  1
  O  O1  1  0.91640238  0.64844529  0.38554415  1
  O  O2  1  0.08359762  0.35155471  0.61445585  1
  O  O3  1  0.41640238  0.85155471  0.61445585  1
loop_
_geom_bond_atom_site_label_1
_geom_bond_atom_site_label_2
_geom_bond_distance
_geom_bond_site_symmetry_2
La0 O0 2.405965 1_555
La0 Se0 2.984935 1_555
La0 Se1 3.026457 1_545
La0 Se2 3.038271 1_555
La0 Se6 3.051496 1_554
La0 Se7 3.136346 1_554
La0 Se3 3.145258 1_555
La1 O1 2.405965 1_455
La1 Se1 2.984935 1_455
La1 Se0 3.026457 1_455
La1 Se3 3.038271 1_555
La1 Se7 3.051496 1_554
La1 Se6 3.136346 1_564
La1 Se2 3.145258 1_565
La2 O1 2.430932 1_555
La2 O2 2.453891 1_655
La2 O0 2.468822 1_555
La2 Se4 3.046070 1_555
La2 Se2 3.089853 1_655
La2 Se0 3.177044 1_555
La2 Se5 3.366506 1_545
La3 O0 2.430932 1_565
La3 O3 2.453891 1_555
La3 O1 2.468822 1_555
La3 Se5 3.046070 1_555
La3 Se3 3.089853 1_555
La3 Se1 3.177044 1_555
La3 Se4 3.366506 1_555
La4 O3 2.430932 1_545
La4 O0 2.453891 1_555
La4 O2 2.468822 1_555
La4 Se2 3.046070 1_555
La4 Se4 3.089853 1_555
La4 Se6 3.177044 1_555
La4 Se3 3.366506 1_555
La5 O2 2.430932 1_555
La5 O1 2.453891 1_455
La5 O3 2.468822 1_555
La5 Se3 3.046070 1_555
La5 Se5 3.089853 1_455
La5 Se7 3.177044 1_555
La5 Se2 3.366506 1_565
La6 O2 2.405965 1_655
La6 Se6 2.984935 1_655
La6 Se7 3.026457 1_655
La6 Se4 3.038271 1_555
La6 Se0 3.051496 1_556
La6 Se1 3.136346 1_546
La6 Se5 3.145258 1_545
La7 O3 2.405965 1_555
La7 Se7 2.984935 1_555
La7 Se6 3.026457 1_565
La7 Se5 3.038271 1_555
La7 Se1 3.051496 1_556
La7 Se0 3.136346 1_556
La7 Se4 3.145258 1_555
