# generated using pymatgen
data_NaLi2MnPCO7
_symmetry_space_group_name_H-M   'P 1'
_cell_length_a   6.66461300
_cell_length_b   8.72124211
_cell_length_c   10.07300404
_cell_angle_alpha   90.82070344
_cell_angle_beta   90.24389307
_cell_angle_gamma   90.76635644
_symmetry_Int_Tables_number   1
_chemical_formula_structural   NaLi2MnPCO7
_chemical_formula_sum   'Na4 Li8 Mn4 P4 C4 O28'
_cell_volume   585.36207914
_cell_formula_units_Z   4
loop_
 _symmetry_equiv_pos_site_id
 _symmetry_equiv_pos_as_xyz
  1  'x, y, z'
loop_
 _atom_site_type_symbol
 _atom_site_label
 _atom_site_symmetry_multiplicity
 _atom_site_fract_x
 _atom_site_fract_y
 _atom_site_fract_z
 _atom_site_occupancy
  Na  Na0  1  0.24811800  0.91693300  0.87871500  1
  Na  Na1  1  0.24532900  0.91685200  0.37974900  1
  Na  Na2  1  0.50104000  0.74582900  0.12349300  1
  Na  Na3  1  0.50035000  0.25420400  0.37687200  1
  Li  Li0  1  0.01320800  0.73559900  0.61802700  1
  Li  Li1  1  0.48797300  0.73619700  0.61922300  1
  Li  Li2  1  0.01121800  0.73455300  0.11891500  1
  Li  Li3  1  0.51143100  0.26306800  0.88085700  1
  Li  Li4  1  0.98734800  0.26338900  0.88190000  1
  Li  Li5  1  0.98926700  0.26453400  0.38124200  1
  Li  Li6  1  0.75290500  0.08260300  0.62388500  1
  Li  Li7  1  0.75839400  0.08532800  0.12071200  1
  Mn  Mn0  1  0.75273400  0.64095300  0.88581000  1
  Mn  Mn1  1  0.74958700  0.63983800  0.39136300  1
  Mn  Mn2  1  0.24716600  0.35736900  0.61431600  1
  Mn  Mn3  1  0.24980800  0.35890600  0.10900400  1
  P  P0  1  0.24987600  0.58889800  0.84823100  1
  P  P1  1  0.24117200  0.58894700  0.35309300  1
  P  P2  1  0.75003400  0.40557400  0.65210400  1
  P  P3  1  0.75809700  0.40531200  0.14727800  1
  C  C0  1  0.75104700  0.95593900  0.86601200  1
  C  C1  1  0.75905900  0.95265900  0.36714600  1
  C  C2  1  0.24880000  0.05158400  0.63362100  1
  C  C3  1  0.24063300  0.05470800  0.13211000  1
  O  O0  1  0.25092000  0.90204000  0.64133100  1
  O  O1  1  0.22839000  0.90588500  0.14115800  1
  O  O2  1  0.75231700  0.90322900  0.98668500  1
  O  O3  1  0.75010400  0.90117700  0.48799100  1
  O  O4  1  0.75206200  0.86050400  0.76491400  1
  O  O5  1  0.75391200  0.85616900  0.26665000  1
  O  O6  1  0.06718800  0.67935200  0.90154700  1
  O  O7  1  0.43862500  0.67950800  0.89677800  1
  O  O8  1  0.06286600  0.68507500  0.40583300  1
  O  O9  1  0.43400800  0.67755800  0.40026100  1
  O  O10  1  0.24601400  0.58741700  0.69256000  1
  O  O11  1  0.75090300  0.57546600  0.60308300  1
  O  O12  1  0.23442400  0.58285400  0.19770000  1
  O  O13  1  0.76595100  0.57233400  0.09491600  1
  O  O14  1  0.24927600  0.41962000  0.89543100  1
  O  O15  1  0.75415200  0.41240600  0.80762500  1
  O  O16  1  0.23380600  0.42242700  0.40349300  1
  O  O17  1  0.76551900  0.41677600  0.30235300  1
  O  O18  1  0.56269200  0.31329600  0.60463900  1
  O  O19  1  0.93070800  0.31229900  0.59989000  1
  O  O20  1  0.56660600  0.31516300  0.10103900  1
  O  O21  1  0.93389100  0.30578000  0.09581500  1
  O  O22  1  0.24816400  0.13724500  0.74015700  1
  O  O23  1  0.24499400  0.14062500  0.23854000  1
  O  O24  1  0.24707500  0.11696000  0.51875700  1
  O  O25  1  0.24984700  0.11894500  0.01705800  1
  O  O26  1  0.74904300  0.10225200  0.84532800  1
  O  O27  1  0.77194500  0.09785800  0.34478800  1
loop_
_geom_bond_atom_site_label_1
_geom_bond_atom_site_label_2
_geom_bond_distance
_geom_bond_site_symmetry_2
Na0 O25 2.230464 1_566
Na0 O22 2.390927 1_565
Na0 O0 2.393002 1_555
Na0 O6 2.397766 1_555
Na0 O7 2.451905 1_555
Na0 O1 2.650482 1_556
Na1 O24 2.221661 1_565
Na1 O8 2.363466 1_555
Na1 O1 2.405971 1_555
Na1 O23 2.431356 1_565
Na1 O9 2.461624 1_555
Na1 O0 2.640058 1_555
Na2 O1 2.312040 1_555
Na2 O13 2.356419 1_555
Na2 O7 2.381283 1_554
Na2 O12 2.389663 1_555
Na2 O5 2.396214 1_555
Na2 O2 2.569102 1_554
Na2 O9 2.894380 1_555
Na3 O27 2.301829 1_555
Na3 O16 2.332911 1_555
Na3 O18 2.377879 1_555
Na3 O17 2.381514 1_555
Na3 O23 2.390454 1_555
Na3 O24 2.517950 1_555
Na3 O20 2.871234 1_555
Li0 O0 2.144201 1_555
Li0 O10 2.170861 1_555
Li0 O8 2.203461 1_555
Li0 O11 2.226103 1_455
Li0 O4 2.536024 1_455
Li0 O3 2.641603 1_455
Li1 O0 2.166198 1_555
Li1 O10 2.193474 1_555
Li1 O11 2.263549 1_555
Li1 O9 2.282892 1_555
Li1 O4 2.511605 1_555
Li1 O3 2.622323 1_555
Li2 O1 2.075472 1_555
Li2 O13 2.157982 1_455
Li2 O12 2.160027 1_555
Li2 O6 2.268610 1_554
Li2 O5 2.511049 1_455
Li2 O2 2.649501 1_454
Li3 O26 2.157024 1_555
Li3 O15 2.199663 1_555
Li3 O14 2.235732 1_555
Li3 O20 2.284822 1_556
Li3 O22 2.484773 1_555
Li3 O25 2.551974 1_556
Li4 O26 2.133897 1_555
Li4 O15 2.176272 1_555
Li4 O14 2.202585 1_655
Li4 O21 2.212208 1_556
Li4 O22 2.509501 1_655
Li4 O25 2.566877 1_656
Li5 O27 2.066273 1_555
Li5 O16 2.128510 1_655
Li5 O17 2.165899 1_555
Li5 O19 2.271999 1_555
Li5 O23 2.482810 1_655
Li5 O24 2.572418 1_655
Li6 O3 2.077167 1_545
Li6 O26 2.235004 1_555
Li6 O19 2.329887 1_555
Li6 O18 2.402042 1_555
Li6 O4 2.418385 1_545
Li7 O2 2.069501 1_544
Li7 O21 2.254664 1_555
Li7 O27 2.259561 1_555
Li7 O20 2.401793 1_555
Li7 O5 2.497807 1_545
Mn0 O6 2.122775 1_655
Mn0 O7 2.127766 1_555
Mn0 O15 2.132800 1_555
Mn0 O13 2.199646 1_556
Mn0 O4 2.283922 1_555
Mn0 O2 2.489615 1_555
Mn1 O8 2.123647 1_655
Mn1 O17 2.134485 1_555
Mn1 O9 2.135186 1_555
Mn1 O11 2.213085 1_555
Mn1 O5 2.281501 1_555
Mn1 O3 2.465433 1_555
Mn2 O19 2.144148 1_455
Mn2 O18 2.145123 1_555
Mn2 O10 2.145149 1_555
Mn2 O16 2.207687 1_555
Mn2 O24 2.294490 1_555
Mn2 O22 2.315661 1_555
Mn3 O12 2.139978 1_555
Mn3 O20 2.152168 1_555
Mn3 O21 2.152919 1_455
Mn3 O14 2.222878 1_554
Mn3 O25 2.276384 1_555
Mn3 O23 2.323243 1_555
C0 O26 1.296106 1_565
C0 O2 1.305739 1_555
C0 O4 1.306053 1_555
C1 O27 1.291153 1_565
C1 O3 1.304784 1_555
C1 O5 1.307132 1_555
C2 O24 1.297260 1_555
C2 O22 1.298812 1_555
C2 O0 1.307891 1_545
C3 O25 1.295764 1_555
C3 O23 1.299143 1_555
C3 O1 1.303911 1_545
O6 P0 1.553152 1_555
O7 P0 1.550198 1_555
O8 P1 1.554505 1_555
O9 P1 1.559601 1_555
O10 P0 1.568042 1_555
O11 P2 1.568425 1_555
O12 P1 1.565849 1_555
O13 P3 1.556579 1_555
O14 P0 1.557413 1_555
O15 P2 1.566953 1_555
O16 P1 1.545522 1_555
O17 P3 1.564367 1_555
O18 P2 1.546669 1_555
O19 P2 1.551648 1_555
O20 P3 1.556083 1_555
O21 P3 1.553819 1_555
