# generated using pymatgen
data_Li2Cu3(CO3)3
_symmetry_space_group_name_H-M   'P 1'
_cell_length_a   6.24190900
_cell_length_b   8.19034600
_cell_length_c   8.20562718
_cell_angle_alpha   60.21744369
_cell_angle_beta   90.00000000
_cell_angle_gamma   90.00000000
_symmetry_Int_Tables_number   1
_chemical_formula_structural   Li2Cu3(CO3)3
_chemical_formula_sum   'Li4 Cu6 C6 O18'
_cell_volume   364.09064144
_cell_formula_units_Z   2
loop_
 _symmetry_equiv_pos_site_id
 _symmetry_equiv_pos_as_xyz
  1  'x, y, z'
loop_
 _atom_site_type_symbol
 _atom_site_label
 _atom_site_symmetry_multiplicity
 _atom_site_fract_x
 _atom_site_fract_y
 _atom_site_fract_z
 _atom_site_occupancy
  Li  Li0  1  0.00000000  0.67513600  0.02714900  1
  Li  Li1  1  0.50000000  0.02794300  0.29680600  1
  Li  Li2  1  0.50000000  0.29763100  0.67509300  1
  Li  Li3  1  0.00000000  0.29595700  0.67623100  1
  Cu  Cu0  1  0.24807600  0.97804900  0.65543700  1
  Cu  Cu1  1  0.75192400  0.97804900  0.65543700  1
  Cu  Cu2  1  0.75255600  0.66404100  0.35531600  1
  Cu  Cu3  1  0.24744400  0.66404100  0.35531600  1
  Cu  Cu4  1  0.25439400  0.36158600  0.98803000  1
  Cu  Cu5  1  0.74560600  0.36158600  0.98803000  1
  C  C0  1  0.00000000  0.66233000  0.67201800  1
  C  C1  1  0.50000000  0.66393400  0.66448000  1
  C  C2  1  0.25001800  0.00168700  0.99691900  1
  C  C3  1  0.74998200  0.00168700  0.99691900  1
  C  C4  1  0.24999500  0.33385800  0.33500700  1
  C  C5  1  0.75000500  0.33385800  0.33500700  1
  O  O0  1  0.73157600  0.93409500  0.17522000  1
  O  O1  1  0.26842400  0.93409500  0.17522000  1
  O  O2  1  0.00000000  0.84341900  0.58733300  1
  O  O3  1  0.50000000  0.84863900  0.57562000  1
  O  O4  1  0.00000000  0.57353400  0.57604600  1
  O  O5  1  0.50000000  0.57834800  0.56454300  1
  O  O6  1  0.77229400  0.89284300  0.92626000  1
  O  O7  1  0.22770600  0.89284300  0.92626000  1
  O  O8  1  0.00000000  0.56372300  0.85626800  1
  O  O9  1  0.50000000  0.56842500  0.84455700  1
  O  O10  1  0.25353100  0.18546600  0.88425900  1
  O  O11  1  0.74646900  0.18546600  0.88425900  1
  O  O12  1  0.23081100  0.51276600  0.22731700  1
  O  O13  1  0.76918900  0.51276600  0.22731700  1
  O  O14  1  0.26629300  0.22340300  0.26624700  1
  O  O15  1  0.73370700  0.22340300  0.26624700  1
  O  O16  1  0.25263600  0.26234200  0.51817800  1
  O  O17  1  0.74736400  0.26234200  0.51817800  1
loop_
_geom_bond_atom_site_label_1
_geom_bond_atom_site_label_2
_geom_bond_distance
_geom_bond_site_symmetry_2
Li0 O8 2.017397 1_554
Li0 O13 2.090944 1_455
Li0 O12 2.090944 1_555
Li0 O7 2.102021 1_554
Li0 O6 2.102021 1_454
Li1 O3 2.013249 1_545
Li1 O15 2.086853 1_555
Li1 O14 2.086853 1_555
Li1 O0 2.106521 1_545
Li1 O1 2.106521 1_545
Li2 O5 2.009264 1_555
Li2 O17 2.120171 1_555
Li2 O16 2.120171 1_555
Li2 O11 2.142472 1_555
Li2 O10 2.142472 1_555
Li3 O4 1.996932 1_555
Li3 O16 2.144584 1_555
Li3 O17 2.144584 1_455
Li3 O10 2.168539 1_555
Li3 O11 2.168539 1_455
Cu0 O7 1.975104 1_555
Cu0 O16 2.021335 1_565
Cu0 O2 2.130276 1_555
Cu0 O3 2.171338 1_555
Cu1 O6 1.975104 1_555
Cu1 O17 2.021335 1_565
Cu1 O2 2.130276 1_655
Cu1 O3 2.171338 1_555
Cu2 O0 1.961152 1_555
Cu2 O13 1.985399 1_555
Cu2 O5 2.174449 1_555
Cu2 O4 2.209480 1_655
Cu3 O1 1.961152 1_555
Cu3 O12 1.985399 1_555
Cu3 O5 2.174449 1_555
Cu3 O4 2.209480 1_555
Cu4 O14 1.982799 1_556
Cu4 O10 2.006502 1_555
Cu4 O9 2.150550 1_555
Cu4 O8 2.157109 1_555
Cu5 O15 1.982799 1_556
Cu5 O11 2.006502 1_555
Cu5 O9 2.150550 1_555
Cu5 O8 2.157109 1_655
C0 O2 1.287957 1_555
C0 O4 1.310747 1_555
C0 O8 1.313414 1_555
C1 O9 1.283381 1_555
C1 O3 1.313171 1_555
C1 O5 1.317156 1_555
C2 O1 1.286710 1_546
C2 O7 1.289868 1_545
C2 O10 1.318491 1_555
C3 O0 1.286710 1_546
C3 O6 1.289868 1_545
C3 O11 1.318491 1_555
C4 O14 1.286149 1_555
C4 O12 1.286869 1_555
C4 O16 1.314488 1_555
C5 O15 1.286149 1_555
C5 O13 1.286869 1_555
C5 O17 1.314488 1_555
