# generated using pymatgen
data_LiFe6O7F5
_symmetry_space_group_name_H-M   'P 1'
_cell_length_a   5.85159500
_cell_length_b   6.03869647
_cell_length_c   6.09873625
_cell_angle_alpha   100.22656174
_cell_angle_beta   99.97609043
_cell_angle_gamma   98.77386637
_symmetry_Int_Tables_number   1
_chemical_formula_structural   LiFe6O7F5
_chemical_formula_sum   'Li1 Fe6 O7 F5'
_cell_volume   205.10574596
_cell_formula_units_Z   1
loop_
 _symmetry_equiv_pos_site_id
 _symmetry_equiv_pos_as_xyz
  1  'x, y, z'
loop_
 _atom_site_type_symbol
 _atom_site_label
 _atom_site_symmetry_multiplicity
 _atom_site_fract_x
 _atom_site_fract_y
 _atom_site_fract_z
 _atom_site_occupancy
  Li  Li0  1  0.99274200  0.98270700  0.99554300  1
  Fe  Fe0  1  0.29820100  0.61191600  0.13505900  1
  Fe  Fe1  1  0.85046700  0.65125400  0.37215900  1
  Fe  Fe2  1  0.60230700  0.15457800  0.34957900  1
  Fe  Fe3  1  0.40056000  0.85613100  0.65458400  1
  Fe  Fe4  1  0.14722200  0.34549200  0.60992700  1
  Fe  Fe5  1  0.67478200  0.41270400  0.87287800  1
  O  O0  1  0.92838500  0.65780500  0.06905000  1
  O  O1  1  0.57157000  0.40311900  0.17643700  1
  O  O2  1  0.59264700  0.82992700  0.41057100  1
  O  O3  1  0.18843000  0.57539900  0.41610400  1
  O  O4  1  0.82066100  0.41866700  0.59426500  1
  O  O5  1  0.40426700  0.17746600  0.59008500  1
  O  O6  1  0.41328700  0.60718700  0.83334200  1
  F  F0  1  0.31911400  0.95949400  0.11497600  1
  F  F1  1  0.94171200  0.11754300  0.31603800  1
  F  F2  1  0.05503700  0.88486700  0.67190600  1
  F  F3  1  0.68293200  0.05626800  0.88804700  1
  F  F4  1  0.11568000  0.29748000  0.92945300  1
loop_
_geom_bond_atom_site_label_1
_geom_bond_atom_site_label_2
_geom_bond_distance
_geom_bond_site_symmetry_2
Li0 O0 2.082686 1_556
Fe0 O3 1.967623 1_555
Fe0 O6 2.063208 1_554
Fe0 O1 2.191059 1_555
Fe0 O0 2.200573 1_455
Fe0 O2 2.246024 1_555
Fe1 O0 1.984741 1_555
Fe1 O2 2.006079 1_555
Fe1 O1 2.068186 1_555
Fe1 O3 2.080614 1_655
Fe1 O4 2.126176 1_555
Fe2 O1 1.994809 1_555
Fe2 O5 2.019727 1_555
Fe2 O2 2.053635 1_545
Fe2 O4 2.067707 1_555
Fe3 O6 2.010459 1_555
Fe3 O2 2.013282 1_555
Fe3 O5 2.044915 1_565
Fe3 O3 2.094538 1_555
Fe4 O5 1.947207 1_555
Fe4 O3 1.990551 1_555
Fe4 O4 2.016253 1_455
Fe4 O6 2.127833 1_555
Fe5 O0 1.977439 1_556
Fe5 O4 2.032759 1_555
Fe5 O1 2.051903 1_556
Fe5 O6 2.073585 1_555
Fe5 O5 2.235244 1_555
F0 Li0 1.957927 1_454
F0 Fe2 2.040951 1_565
F0 Fe0 2.110344 1_555
F1 Li0 2.069768 1_544
F1 Fe2 2.072755 1_555
F1 Fe4 2.103716 1_655
F2 Li0 2.068491 1_455
F2 Fe3 2.074541 1_555
F2 Fe1 2.139124 1_455
F3 Li0 1.962387 1_545
F3 Fe3 2.045177 1_545
F3 Fe5 2.178116 1_555
F4 Fe4 2.055355 1_555
F4 Li0 2.061174 1_445
F4 Fe0 2.095309 1_556
