# generated using pymatgen
data_Li6Ti2S6O
_symmetry_space_group_name_H-M   'P 1'
_cell_length_a   9.03587900
_cell_length_b   11.53966000
_cell_length_c   11.78381662
_cell_angle_alpha   68.62732107
_cell_angle_beta   90.00000000
_cell_angle_gamma   90.00000000
_symmetry_Int_Tables_number   1
_chemical_formula_structural   Li6Ti2S6O
_chemical_formula_sum   'Li24 Ti8 S24 O4'
_cell_volume   1144.21124907
_cell_formula_units_Z   4
loop_
 _symmetry_equiv_pos_site_id
 _symmetry_equiv_pos_as_xyz
  1  'x, y, z'
loop_
 _atom_site_type_symbol
 _atom_site_label
 _atom_site_symmetry_multiplicity
 _atom_site_fract_x
 _atom_site_fract_y
 _atom_site_fract_z
 _atom_site_occupancy
  Li  Li0  1  0.86104500  0.99896000  0.89606200  1
  Li  Li1  1  0.63895500  0.99896000  0.39606200  1
  Li  Li2  1  0.97899400  0.91103600  0.64604200  1
  Li  Li3  1  0.26378600  0.80417400  0.93553100  1
  Li  Li4  1  0.52100600  0.91103600  0.14604200  1
  Li  Li5  1  0.23621400  0.80417400  0.43553100  1
  Li  Li6  1  0.70149000  0.72416100  0.57567600  1
  Li  Li7  1  0.05866000  0.60332600  0.85679700  1
  Li  Li8  1  0.67223500  0.54609000  0.89703400  1
  Li  Li9  1  0.79851000  0.72416100  0.07567600  1
  Li  Li10  1  0.44134000  0.60332600  0.35679700  1
  Li  Li11  1  0.82776500  0.54609000  0.39703400  1
  Li  Li12  1  0.17223500  0.45391000  0.60296600  1
  Li  Li13  1  0.55866000  0.39667400  0.64320300  1
  Li  Li14  1  0.20149000  0.27583900  0.92432400  1
  Li  Li15  1  0.32776500  0.45391000  0.10296600  1
  Li  Li16  1  0.94134000  0.39667400  0.14320300  1
  Li  Li17  1  0.29851000  0.27583900  0.42432400  1
  Li  Li18  1  0.76378600  0.19582600  0.56446900  1
  Li  Li19  1  0.47899400  0.08896400  0.85395800  1
  Li  Li20  1  0.73621400  0.19582600  0.06446900  1
  Li  Li21  1  0.02100600  0.08896400  0.35395800  1
  Li  Li22  1  0.36104500  0.00104000  0.60393800  1
  Li  Li23  1  0.13895500  0.00104000  0.10393800  1
  Ti  Ti0  1  0.63948100  0.82838300  0.79016300  1
  Ti  Ti1  1  0.86051900  0.82838300  0.29016300  1
  Ti  Ti2  1  0.39095600  0.64099100  0.73260000  1
  Ti  Ti3  1  0.10904400  0.64099100  0.23260000  1
  Ti  Ti4  1  0.89095600  0.35900900  0.76740000  1
  Ti  Ti5  1  0.60904400  0.35900900  0.26740000  1
  Ti  Ti6  1  0.13948100  0.17161700  0.70983700  1
  Ti  Ti7  1  0.36051900  0.17161700  0.20983700  1
  S  S0  1  0.64243300  0.98701600  0.60932700  1
  S  S1  1  0.53108600  0.86392800  0.94910800  1
  S  S2  1  0.85756700  0.98701600  0.10932700  1
  S  S3  1  0.96891400  0.86392800  0.44910800  1
  S  S4  1  0.87464400  0.78757200  0.85153200  1
  S  S5  1  0.23106800  0.79517600  0.72191400  1
  S  S6  1  0.62535600  0.78757200  0.35153200  1
  S  S7  1  0.26893200  0.79517600  0.22191400  1
  S  S8  1  0.38026700  0.59718800  0.56170200  1
  S  S9  1  0.34104100  0.46657500  0.88859800  1
  S  S10  1  0.84104100  0.53342500  0.61140200  1
  S  S11  1  0.11973300  0.59718800  0.06170200  1
  S  S12  1  0.88026700  0.40281200  0.93829800  1
  S  S13  1  0.15895900  0.46657500  0.38859800  1
  S  S14  1  0.65895900  0.53342500  0.11140200  1
  S  S15  1  0.61973300  0.40281200  0.43829800  1
  S  S16  1  0.73106800  0.20482400  0.77808600  1
  S  S17  1  0.37464400  0.21242800  0.64846800  1
  S  S18  1  0.76893200  0.20482400  0.27808600  1
  S  S19  1  0.12535600  0.21242800  0.14846800  1
  S  S20  1  0.03108600  0.13607200  0.55089200  1
  S  S21  1  0.14243300  0.01298400  0.89067300  1
  S  S22  1  0.46891400  0.13607200  0.05089200  1
  S  S23  1  0.35756700  0.01298400  0.39067300  1
  O  O0  1  0.58567200  0.68605800  0.75450200  1
  O  O1  1  0.91432800  0.68605800  0.25450200  1
  O  O2  1  0.08567200  0.31394200  0.74549800  1
  O  O3  1  0.41432800  0.31394200  0.24549800  1
loop_
_geom_bond_atom_site_label_1
_geom_bond_atom_site_label_2
_geom_bond_distance
_geom_bond_site_symmetry_2
Li0 S2 2.466388 1_556
Li0 S21 2.547054 1_665
Li0 S16 2.558978 1_565
Li0 S4 2.678396 1_555
Li1 S0 2.466388 1_555
Li1 S23 2.547054 1_565
Li1 S18 2.558978 1_565
Li1 S6 2.678396 1_555
Li2 S20 2.469834 1_665
Li2 S4 2.503563 1_555
Li2 S3 2.570726 1_555
Li2 S5 2.627469 1_655
Li3 S21 2.521823 1_565
Li3 S1 2.532804 1_555
Li3 S5 2.573927 1_555
Li3 S11 2.649825 1_556
Li4 S22 2.469834 1_565
Li4 S6 2.503563 1_555
Li4 S1 2.570726 1_554
Li4 S7 2.627469 1_555
Li5 S23 2.521823 1_565
Li5 S3 2.532804 1_455
Li5 S7 2.573927 1_555
Li5 S8 2.649825 1_555
Li6 O0 2.248047 1_555
Li6 S10 2.436477 1_555
Li6 S6 2.564434 1_555
Li6 S3 2.985215 1_555
Li7 S11 2.452552 1_556
Li7 S4 2.681956 1_455
Li7 S12 2.693504 1_455
Li7 S5 2.699955 1_555
Li7 S9 2.951295 1_555
Li8 O0 2.016009 1_555
Li8 S12 2.432611 1_555
Li8 S14 2.479458 1_556
Li9 O1 2.248047 1_555
Li9 S14 2.436477 1_555
Li9 S4 2.564434 1_554
Li9 S1 2.985215 1_554
Li10 S8 2.452552 1_555
Li10 S6 2.681956 1_555
Li10 S15 2.693504 1_555
Li10 S7 2.699955 1_555
Li10 S13 2.951295 1_555
Li11 O1 2.016009 1_555
Li11 S15 2.432611 1_555
Li11 S10 2.479458 1_555
Li12 O2 2.016009 1_555
Li12 S8 2.432611 1_555
Li12 S13 2.479458 1_555
Li13 S15 2.452552 1_555
Li13 S17 2.681956 1_555
Li13 S8 2.693504 1_555
Li13 S16 2.699955 1_555
Li13 S10 2.951295 1_555
Li14 O2 2.248047 1_555
Li14 S9 2.436477 1_555
Li14 S19 2.564434 1_556
Li14 S22 2.985215 1_556
Li15 O3 2.016009 1_555
Li15 S11 2.432611 1_555
Li15 S9 2.479458 1_554
Li16 S12 2.452552 1_554
Li16 S19 2.681956 1_655
Li16 S11 2.693504 1_655
Li16 S18 2.699955 1_555
Li16 S14 2.951295 1_555
Li17 O3 2.248047 1_555
Li17 S13 2.436477 1_555
Li17 S17 2.564434 1_555
Li17 S20 2.985215 1_555
Li18 S0 2.521823 1_545
Li18 S20 2.532804 1_655
Li18 S16 2.573927 1_555
Li18 S15 2.649825 1_555
Li19 S1 2.469834 1_545
Li19 S17 2.503563 1_555
Li19 S22 2.570726 1_556
Li19 S16 2.627469 1_555
Li20 S2 2.521823 1_545
Li20 S22 2.532804 1_555
Li20 S18 2.573927 1_555
Li20 S12 2.649825 1_554
Li21 S3 2.469834 1_445
Li21 S19 2.503563 1_555
Li21 S20 2.570726 1_555
Li21 S18 2.627469 1_455
Li22 S23 2.466388 1_555
Li22 S0 2.547054 1_545
Li22 S5 2.558978 1_545
Li22 S17 2.678396 1_555
Li23 S21 2.466388 1_554
Li23 S2 2.547054 1_445
Li23 S7 2.558978 1_545
Li23 S19 2.678396 1_555
S0 Ti0 2.247091 1_555
S1 Ti0 2.279377 1_555
S2 Ti1 2.247091 1_555
S3 Ti1 2.279377 1_555
S4 Ti0 2.238692 1_555
S5 Ti2 2.259536 1_555
S6 Ti1 2.238692 1_555
S7 Ti3 2.259536 1_555
S8 Ti2 2.249951 1_555
S9 Ti2 2.221906 1_555
S10 Ti4 2.221906 1_555
S11 Ti3 2.249951 1_555
S12 Ti4 2.249951 1_555
S13 Ti3 2.221906 1_555
S14 Ti5 2.221906 1_555
S15 Ti5 2.249951 1_555
S16 Ti4 2.259536 1_555
S17 Ti6 2.238692 1_555
S18 Ti5 2.259536 1_555
S19 Ti7 2.238692 1_555
S20 Ti6 2.279377 1_555
S21 Ti6 2.247091 1_555
S22 Ti7 2.279377 1_555
S23 Ti7 2.247091 1_555
O0 Ti2 1.878961 1_555
O0 Ti0 1.900907 1_555
O1 Ti3 1.878961 1_655
O1 Ti1 1.900907 1_555
O2 Ti4 1.878961 1_455
O2 Ti6 1.900907 1_555
O3 Ti5 1.878961 1_555
O3 Ti7 1.900907 1_555
