# generated using pymatgen
data_Li2Fe2Si2O7
_symmetry_space_group_name_H-M   'P 1'
_cell_length_a   5.40811983
_cell_length_b   5.40811983
_cell_length_c   13.33232300
_cell_angle_alpha   90.00000000
_cell_angle_beta   90.00000000
_cell_angle_gamma   124.60520468
_symmetry_Int_Tables_number   1
_chemical_formula_structural   Li2Fe2Si2O7
_chemical_formula_sum   'Li4 Fe4 Si4 O14'
_cell_volume   320.95416135
_cell_formula_units_Z   2
loop_
 _symmetry_equiv_pos_site_id
 _symmetry_equiv_pos_as_xyz
  1  'x, y, z'
loop_
 _atom_site_type_symbol
 _atom_site_label
 _atom_site_symmetry_multiplicity
 _atom_site_fract_x
 _atom_site_fract_y
 _atom_site_fract_z
 _atom_site_occupancy
  Li  Li0  1  0.01474500  0.01474500  0.50000000  1
  Li  Li1  1  0.01474500  0.01474500  0.00000000  1
  Li  Li2  1  0.97794400  0.00140100  0.25000000  1
  Li  Li3  1  0.00140100  0.97794400  0.75000000  1
  Fe  Fe0  1  0.77289900  0.34422900  0.91383800  1
  Fe  Fe1  1  0.77289900  0.34422900  0.58616200  1
  Fe  Fe2  1  0.34422900  0.77289900  0.08616200  1
  Fe  Fe3  1  0.34422900  0.77289900  0.41383800  1
  Si  Si0  1  0.66313700  0.43501300  0.13945400  1
  Si  Si1  1  0.66313700  0.43501300  0.36054600  1
  Si  Si2  1  0.43501300  0.66313700  0.86054600  1
  Si  Si3  1  0.43501300  0.66313700  0.63945400  1
  O  O0  1  0.31416900  0.12932100  0.37875100  1
  O  O1  1  0.31416900  0.12932100  0.12125000  1
  O  O2  1  0.79572400  0.42843900  0.25000000  1
  O  O3  1  0.74748900  0.67080800  0.63323000  1
  O  O4  1  0.74748900  0.67080800  0.86677000  1
  O  O5  1  0.90007500  0.44707900  0.44145000  1
  O  O6  1  0.90007500  0.44707900  0.05855000  1
  O  O7  1  0.12932100  0.31416900  0.62125000  1
  O  O8  1  0.12932100  0.31416900  0.87875000  1
  O  O9  1  0.42843900  0.79572400  0.75000000  1
  O  O10  1  0.67080800  0.74748900  0.36677000  1
  O  O11  1  0.67080800  0.74748900  0.13323000  1
  O  O12  1  0.44707900  0.90007500  0.94145000  1
  O  O13  1  0.44707900  0.90007500  0.55855000  1
loop_
_geom_bond_atom_site_label_1
_geom_bond_atom_site_label_2
_geom_bond_distance
_geom_bond_site_symmetry_2
Li0 O0 2.116514 1_555
Li0 O7 2.116524 1_555
Li0 O10 2.377044 1_445
Li0 O3 2.377044 1_445
Li1 O8 2.116524 1_554
Li1 O1 2.116524 1_555
Li1 O4 2.377044 1_444
Li1 O11 2.377044 1_445
Li2 O11 2.116033 1_545
Li2 O10 2.116033 1_545
Li2 O1 2.302749 1_655
Li2 O0 2.302759 1_655
Li3 O3 2.116033 1_455
Li3 O4 2.116033 1_455
Li3 O7 2.302749 1_565
Li3 O8 2.302749 1_565
Fe0 O4 1.951342 1_555
Fe0 O6 2.017494 1_556
Fe0 O12 2.050050 1_545
Fe0 O8 2.077675 1_655
Fe1 O3 1.951342 1_555
Fe1 O5 2.017494 1_555
Fe1 O13 2.050050 1_545
Fe1 O7 2.077675 1_655
Fe2 O11 1.951342 1_555
Fe2 O12 2.017494 1_554
Fe2 O6 2.050050 1_455
Fe2 O1 2.077675 1_565
Fe3 O10 1.951342 1_555
Fe3 O13 2.017494 1_555
Fe3 O5 2.050050 1_455
Fe3 O0 2.077672 1_565
O0 Si1 1.676282 1_555
O1 Si0 1.676280 1_555
O2 Si1 1.648201 1_555
O2 Si0 1.648201 1_555
O3 Si3 1.668761 1_555
O4 Si2 1.668761 1_555
O5 Si1 1.647635 1_555
O6 Si0 1.647635 1_555
O7 Si3 1.676280 1_555
O8 Si2 1.676280 1_555
O9 Si2 1.648201 1_555
O9 Si3 1.648201 1_555
O10 Si1 1.668761 1_555
O11 Si0 1.668761 1_555
O12 Si2 1.647635 1_555
O13 Si3 1.647635 1_555
