# generated using pymatgen
data_Ti11O18
_symmetry_space_group_name_H-M   'P 1'
_cell_length_a   5.46986894
_cell_length_b   8.75588698
_cell_length_c   7.44186454
_cell_angle_alpha   66.85794261
_cell_angle_beta   96.01029568
_cell_angle_gamma   74.43252819
_symmetry_Int_Tables_number   1
_chemical_formula_structural   Ti11O18
_chemical_formula_sum   'Ti11 O18'
_cell_volume   306.69832204
_cell_formula_units_Z   1
loop_
 _symmetry_equiv_pos_site_id
 _symmetry_equiv_pos_as_xyz
  1  'x, y, z'
loop_
 _atom_site_type_symbol
 _atom_site_label
 _atom_site_symmetry_multiplicity
 _atom_site_fract_x
 _atom_site_fract_y
 _atom_site_fract_z
 _atom_site_occupancy
  Ti  Ti0  1  0.30244962  0.00238658  0.34302574  1
  Ti  Ti1  1  0.67866265  0.99825738  0.13940047  1
  Ti  Ti2  1  0.04534590  0.31631154  0.50493033  1
  Ti  Ti3  1  0.64116058  0.33287732  0.18089725  1
  Ti  Ti4  1  0.68879471  0.99526153  0.66688554  1
  Ti  Ti5  1  0.35903643  0.67309330  0.31538957  1
  Ti  Ti6  1  0.97228258  0.66293027  0.01579645  1
  Ti  Ti7  1  0.02643883  0.32957665  0.98319896  1
  Ti  Ti8  1  0.64004760  0.33662225  0.68172615  1
  Ti  Ti9  1  0.96790767  0.66705880  0.51589118  1
  Ti  Ti10  1  0.35134136  0.68420457  0.81843510  1
  O  O0  1  0.39655821  0.20935679  0.14000154  1
  O  O1  1  0.93261560  0.12327714  0.18719001  1
  O  O2  1  0.29858079  0.10822714  0.52644538  1
  O  O3  1  0.37658773  0.56294448  0.12674581  1
  O  O4  1  0.03548544  0.25056224  0.78200539  1
  O  O5  1  0.72972175  0.22588243  0.48323114  1
  O  O6  1  0.93830322  0.43360784  0.19385151  1
  O  O7  1  0.62240130  0.10932322  0.85105595  1
  O  O8  1  0.26967708  0.45995414  0.51907431  1
  O  O9  1  0.72669293  0.54215832  0.47718229  1
  O  O10  1  0.41389495  0.88648917  0.16346912  1
  O  O11  1  0.06739582  0.55959162  0.81561635  1
  O  O12  1  0.26631811  0.77139999  0.51993550  1
  O  O13  1  0.95948833  0.76961883  0.21046160  1
  O  O14  1  0.61967069  0.44187388  0.87478356  1
  O  O15  1  0.70498997  0.89744343  0.46158376  1
  O  O16  1  0.04245140  0.86690917  0.80309411  1
  O  O17  1  0.61668673  0.78279599  0.85319993  1
loop_
_geom_bond_atom_site_label_1
_geom_bond_atom_site_label_2
_geom_bond_distance
_geom_bond_site_symmetry_2
O0 Ti7 1.991047 1_554
O0 Ti3 2.000641 1_555
O0 Ti1 2.067511 1_545
O0 Ti0 2.084047 1_555
O1 Ti0 1.988000 1_655
O1 Ti3 2.063550 1_555
O1 Ti1 2.067134 1_545
O1 Ti7 2.082329 1_654
O2 Ti2 1.906181 1_555
O2 Ti0 1.926726 1_555
O2 Ti4 2.052686 1_545
O3 Ti5 1.988209 1_555
O3 Ti3 1.997431 1_555
O3 Ti6 2.085459 1_455
O3 Ti10 2.085859 1_554
O4 Ti7 1.879952 1_555
O4 Ti2 1.921690 1_555
O4 Ti8 2.036759 1_455
O5 Ti3 2.011437 1_555
O5 Ti4 2.032983 1_545
O5 Ti8 2.094060 1_555
O5 Ti2 2.099849 1_655
O6 Ti6 1.995659 1_555
O6 Ti3 2.057267 1_555
O6 Ti2 2.069158 1_655
O6 Ti7 2.136494 1_654
O7 Ti1 1.925045 1_546
O7 Ti8 1.927552 1_555
O7 Ti4 1.998312 1_545
O8 Ti2 2.000996 1_555
O8 Ti8 2.005062 1_555
O8 Ti9 2.089251 1_455
O8 Ti5 2.107268 1_555
O9 Ti9 1.990563 1_555
O9 Ti5 1.994679 1_555
O9 Ti8 2.058168 1_555
O9 Ti2 2.178245 1_655
O10 Ti5 1.889700 1_555
O10 Ti1 1.940227 1_555
O10 Ti0 2.022698 1_565
O11 Ti9 1.994486 1_455
O11 Ti7 1.997018 1_555
O11 Ti6 2.068273 1_456
O11 Ti10 2.126957 1_555
O12 Ti10 1.998441 1_555
O12 Ti0 2.009702 1_565
O12 Ti5 2.066995 1_555
O12 Ti9 2.076440 1_455
O13 Ti1 1.998528 1_555
O13 Ti6 2.006500 1_555
O13 Ti5 2.057381 1_655
O13 Ti9 2.080002 1_555
O14 Ti8 1.986193 1_555
O14 Ti3 2.070987 1_556
O14 Ti10 2.081433 1_555
O14 Ti7 2.096305 1_655
O15 Ti9 1.995266 1_555
O15 Ti4 2.022832 1_555
O15 Ti0 2.083474 1_565
O15 Ti1 2.178191 1_555
O16 Ti4 1.886708 1_455
O16 Ti10 1.947354 1_555
O16 Ti6 2.028732 1_456
O17 Ti10 1.920453 1_555
O17 Ti6 1.939622 1_556
O17 Ti4 2.004926 1_555
