# generated using pymatgen
data_Mn7Nb(PO4)12
_symmetry_space_group_name_H-M   'P 1'
_cell_length_a   8.49535600
_cell_length_b   8.52217817
_cell_length_c   11.85042674
_cell_angle_alpha   90.02923117
_cell_angle_beta   90.01057879
_cell_angle_gamma   90.03000537
_symmetry_Int_Tables_number   1
_chemical_formula_structural   Mn7Nb(PO4)12
_chemical_formula_sum   'Mn7 Nb1 P12 O48'
_cell_volume   857.95806054
_cell_formula_units_Z   1
loop_
 _symmetry_equiv_pos_site_id
 _symmetry_equiv_pos_as_xyz
  1  'x, y, z'
loop_
 _atom_site_type_symbol
 _atom_site_label
 _atom_site_symmetry_multiplicity
 _atom_site_fract_x
 _atom_site_fract_y
 _atom_site_fract_z
 _atom_site_occupancy
  Mn  Mn0  1  0.96642000  0.24982500  0.38271100  1
  Mn  Mn1  1  0.53547900  0.25038200  0.61903300  1
  Mn  Mn2  1  0.03484200  0.24981700  0.88253700  1
  Mn  Mn3  1  0.46654200  0.24964700  0.11736100  1
  Mn  Mn4  1  0.53534100  0.75072000  0.88037400  1
  Mn  Mn5  1  0.96514500  0.75061300  0.11644400  1
  Mn  Mn6  1  0.03356000  0.74950900  0.61891500  1
  Nb  Nb0  1  0.46905000  0.74972000  0.37591100  1
  P  P0  1  0.24555600  0.04220200  0.50414200  1
  P  P1  1  0.75003000  0.46527600  0.99943900  1
  P  P2  1  0.25015200  0.53598900  0.00014800  1
  P  P3  1  0.75765200  0.96877600  0.50396300  1
  P  P4  1  0.39110000  0.10679300  0.85493000  1
  P  P5  1  0.10925400  0.10664000  0.14447000  1
  P  P6  1  0.61033500  0.38154600  0.35407800  1
  P  P7  1  0.89181500  0.39327700  0.64506700  1
  P  P8  1  0.09611600  0.60537100  0.35374200  1
  P  P9  1  0.39011200  0.60278900  0.64959800  1
  P  P10  1  0.61273600  0.89957400  0.13642500  1
  P  P11  1  0.89194600  0.89299900  0.85428600  1
  O  O0  1  0.64572100  0.06354400  0.57870900  1
  O  O1  1  0.86432800  0.06201400  0.42513300  1
  O  O2  1  0.90187300  0.07397400  0.84142200  1
  O  O3  1  0.60476900  0.07824800  0.15196300  1
  O  O4  1  0.15862400  0.15038100  0.42132000  1
  O  O5  1  0.34035400  0.14773600  0.58454400  1
  O  O6  1  0.43860300  0.16061300  0.97245000  1
  O  O7  1  0.06046900  0.15987500  0.02680300  1
  O  O8  1  0.22115000  0.15145200  0.82483400  1
  O  O9  1  0.27979600  0.14978500  0.17392700  1
  O  O10  1  0.51355900  0.17827100  0.77256000  1
  O  O11  1  0.98956000  0.17707500  0.22847900  1
  O  O12  1  0.01208300  0.32096800  0.72834500  1
  O  O13  1  0.48852700  0.31172200  0.27228700  1
  O  O14  1  0.78012900  0.33914200  0.32423100  1
  O  O15  1  0.72166800  0.34971400  0.67575300  1
  O  O16  1  0.56200400  0.33622400  0.47356500  1
  O  O17  1  0.93893100  0.34080800  0.52693400  1
  O  O18  1  0.84070300  0.35422500  0.91931900  1
  O  O19  1  0.65794500  0.35806900  0.08075200  1
  O  O20  1  0.09274800  0.42546000  0.34068800  1
  O  O21  1  0.40020600  0.42251600  0.66151300  1
  O  O22  1  0.14159900  0.43962500  0.92326900  1
  O  O23  1  0.35752200  0.43981800  0.07763800  1
  O  O24  1  0.64157000  0.56101800  0.92244100  1
  O  O25  1  0.85924400  0.56137000  0.07570900  1
  O  O26  1  0.59858300  0.56361600  0.34249000  1
  O  O27  1  0.90132300  0.57411900  0.65865000  1
  O  O28  1  0.34152000  0.64618100  0.92001300  1
  O  O29  1  0.15852500  0.64514400  0.08136300  1
  O  O30  1  0.05645900  0.66014100  0.47281500  1
  O  O31  1  0.43765700  0.65823500  0.53049400  1
  O  O32  1  0.22026300  0.64965500  0.67658600  1
  O  O33  1  0.26869800  0.65085900  0.32550800  1
  O  O34  1  0.51152100  0.67789900  0.72957700  1
  O  O35  1  0.97843800  0.68054400  0.27128100  1
  O  O36  1  0.01385700  0.81966200  0.77282300  1
  O  O37  1  0.49297200  0.82455700  0.22034900  1
  O  O38  1  0.72272500  0.84743200  0.82271500  1
  O  O39  1  0.77930700  0.85015200  0.17117300  1
  O  O40  1  0.56625200  0.84399800  0.01984300  1
  O  O41  1  0.93995800  0.84054100  0.97227400  1
  O  O42  1  0.66054200  0.86119600  0.42361600  1
  O  O43  1  0.84376900  0.85733200  0.58483700  1
  O  O44  1  0.09854200  0.92562100  0.15803100  1
  O  O45  1  0.40137000  0.92600800  0.84036000  1
  O  O46  1  0.13921200  0.94197100  0.57914500  1
  O  O47  1  0.35163800  0.94002500  0.42789300  1
loop_
_geom_bond_atom_site_label_1
_geom_bond_atom_site_label_2
_geom_bond_distance
_geom_bond_site_symmetry_2
Mn0 O14 1.888306 1_555
Mn0 O1 1.888456 1_555
Mn0 O17 1.890968 1_555
Mn0 O4 1.896127 1_655
Mn0 O20 1.907726 1_655
Mn0 O11 1.939762 1_555
Mn1 O16 1.886505 1_555
Mn1 O0 1.908331 1_555
Mn1 O15 1.915184 1_555
Mn1 O5 1.917799 1_555
Mn1 O10 1.929652 1_555
Mn1 O21 1.930608 1_555
Mn2 O7 1.886551 1_556
Mn2 O22 1.915618 1_555
Mn2 O8 1.917452 1_555
Mn2 O18 1.924380 1_455
Mn2 O12 1.935198 1_555
Mn2 O2 1.938146 1_455
Mn3 O6 1.891920 1_554
Mn3 O3 1.919100 1_555
Mn3 O13 1.919425 1_555
Mn3 O19 1.919652 1_555
Mn3 O9 1.920957 1_555
Mn3 O23 1.925652 1_555
Mn4 O40 1.852241 1_556
Mn4 O34 1.902128 1_555
Mn4 O24 1.918008 1_555
Mn4 O38 1.918308 1_555
Mn4 O28 1.929962 1_555
Mn4 O45 1.937535 1_555
Mn5 O41 1.885044 1_554
Mn5 O39 1.906287 1_555
Mn5 O25 1.908128 1_555
Mn5 O29 1.918601 1_655
Mn5 O35 1.933195 1_555
Mn5 O44 1.936191 1_655
Mn6 O43 1.899678 1_455
Mn6 O30 1.901155 1_555
Mn6 O32 1.925766 1_555
Mn6 O36 1.926415 1_555
Mn6 O27 1.927965 1_455
Mn6 O46 1.928045 1_555
Nb0 O37 1.961546 1_555
Nb0 O42 1.966234 1_555
Nb0 O26 1.970934 1_555
Nb0 O33 1.990279 1_555
Nb0 O47 2.001391 1_555
Nb0 O31 2.009021 1_555
O0 P3 1.530177 1_545
O1 P3 1.525009 1_545
O2 P11 1.552145 1_545
O3 P10 1.535220 1_545
O4 P0 1.536233 1_555
O5 P0 1.537325 1_555
O6 P4 1.520422 1_555
O7 P5 1.524002 1_555
O8 P4 1.535282 1_555
O9 P5 1.534679 1_555
O10 P4 1.551284 1_555
O11 P5 1.544600 1_655
O12 P7 1.548706 1_455
O13 P6 1.537128 1_555
O14 P6 1.528722 1_555
O15 P7 1.535964 1_555
O16 P6 1.524254 1_555
O17 P7 1.523058 1_555
O18 P1 1.546160 1_555
O19 P1 1.541317 1_554
O20 P8 1.541189 1_555
O21 P9 1.545290 1_555
O22 P2 1.533952 1_556
O23 P2 1.532394 1_555
O24 P1 1.532498 1_555
O25 P1 1.531840 1_554
O26 P6 1.561014 1_555
O27 P7 1.551529 1_555
O28 P2 1.544856 1_556
O29 P2 1.548436 1_555
O30 P8 1.523857 1_555
O31 P9 1.542484 1_555
O32 P9 1.531172 1_555
O33 P8 1.552909 1_555
O34 P9 1.539535 1_555
O35 P8 1.538088 1_655
O36 P11 1.547777 1_455
O37 P10 1.559915 1_555
O38 P11 1.535094 1_555
O39 P10 1.532969 1_555
O40 P10 1.512572 1_555
O41 P11 1.523755 1_555
O42 P3 1.557485 1_555
O43 P3 1.535304 1_555
O44 P5 1.553727 1_565
O45 P4 1.552739 1_565
O46 P0 1.528424 1_565
O47 P0 1.545054 1_565
