# generated using pymatgen
data_Li3MnF5
_symmetry_space_group_name_H-M   'P 1'
_cell_length_a   5.78844300
_cell_length_b   5.78844300
_cell_length_c   11.24769100
_cell_angle_alpha   90.00000000
_cell_angle_beta   90.00000000
_cell_angle_gamma   90.00000000
_symmetry_Int_Tables_number   1
_chemical_formula_structural   Li3MnF5
_chemical_formula_sum   'Li12 Mn4 F20'
_cell_volume   376.86594858
_cell_formula_units_Z   4
loop_
 _symmetry_equiv_pos_site_id
 _symmetry_equiv_pos_as_xyz
  1  'x, y, z'
loop_
 _atom_site_type_symbol
 _atom_site_label
 _atom_site_symmetry_multiplicity
 _atom_site_fract_x
 _atom_site_fract_y
 _atom_site_fract_z
 _atom_site_occupancy
  Li  Li0  1  0.02430000  0.16651000  0.32033700  1
  Li  Li1  1  0.08287800  0.32880600  0.84647400  1
  Li  Li2  1  0.21902500  0.44343600  0.61575600  1
  Li  Li3  1  0.16651000  0.97570000  0.07033700  1
  Li  Li4  1  0.32880600  0.91712200  0.59647400  1
  Li  Li5  1  0.44343600  0.78097500  0.36575600  1
  Li  Li6  1  0.55656400  0.21902500  0.86575600  1
  Li  Li7  1  0.67119400  0.08287800  0.09647400  1
  Li  Li8  1  0.83349000  0.02430000  0.57033700  1
  Li  Li9  1  0.78097500  0.55656400  0.11575600  1
  Li  Li10  1  0.91712200  0.67119400  0.34647400  1
  Li  Li11  1  0.97570000  0.83349000  0.82033700  1
  Mn  Mn0  1  0.28328300  0.48741100  0.14189400  1
  Mn  Mn1  1  0.48741100  0.71671700  0.89189400  1
  Mn  Mn2  1  0.51258900  0.28328300  0.39189400  1
  Mn  Mn3  1  0.71671700  0.51258900  0.64189400  1
  F  F0  1  0.97064200  0.24886000  0.14498400  1
  F  F1  1  0.01302400  0.76774000  0.17449600  1
  F  F2  1  0.15214700  0.57953200  0.96557900  1
  F  F3  1  0.23226000  0.01302400  0.42449600  1
  F  F4  1  0.20506100  0.49104000  0.33055100  1
  F  F5  1  0.24886000  0.02935800  0.89498400  1
  F  F6  1  0.42046800  0.15214700  0.21557900  1
  F  F7  1  0.36899600  0.44218600  0.77136900  1
  F  F8  1  0.55781400  0.36899600  0.02136900  1
  F  F9  1  0.49104000  0.79493900  0.08055100  1
  F  F10  1  0.50896000  0.20506100  0.58055100  1
  F  F11  1  0.44218600  0.63100400  0.52136900  1
  F  F12  1  0.63100400  0.55781400  0.27136900  1
  F  F13  1  0.57953200  0.84785300  0.71557900  1
  F  F14  1  0.75114000  0.97064200  0.39498400  1
  F  F15  1  0.79493900  0.50896000  0.83055100  1
  F  F16  1  0.76774000  0.98697600  0.92449600  1
  F  F17  1  0.84785300  0.42046800  0.46557900  1
  F  F18  1  0.98697600  0.23226000  0.67449600  1
  F  F19  1  0.02935800  0.75114000  0.64498400  1
loop_
_geom_bond_atom_site_label_1
_geom_bond_atom_site_label_2
_geom_bond_distance
_geom_bond_site_symmetry_2
F0 Li0 2.052736 1_655
F0 Li7 2.055544 1_555
F0 Li9 2.117976 1_555
F0 Li3 2.119075 1_645
F0 Mn0 2.276610 1_655
F1 Li3 1.900239 1_555
F1 Li9 1.932593 1_455
F1 Li10 2.088590 1_455
F1 Mn0 2.283594 1_555
F2 Li1 2.015380 1_555
F2 Mn0 2.189375 1_556
F2 Mn1 2.254686 1_555
F2 Li11 2.423406 1_455
F3 Li0 1.900239 1_555
F3 Li5 1.932593 1_545
F3 Li4 2.088590 1_545
F3 Mn2 2.283594 1_555
F4 Li10 1.974204 1_455
F4 Li0 2.153333 1_555
F4 Mn0 2.169827 1_555
F4 Li5 2.208460 1_555
F4 Mn2 2.256338 1_555
F5 Li3 2.052736 1_546
F5 Li1 2.055544 1_555
F5 Li6 2.117976 1_555
F5 Li11 2.119075 1_445
F5 Mn1 2.276610 1_545
F6 Li7 2.015380 1_555
F6 Mn2 2.189375 1_555
F6 Mn0 2.254686 1_555
F6 Li3 2.423406 1_545
F7 Li2 1.953753 1_555
F7 Li1 1.971614 1_555
F7 Li6 1.993616 1_555
F7 Mn1 2.198366 1_555
F7 Mn3 2.517556 1_555
F8 Li6 1.953753 1_554
F8 Li7 1.971614 1_555
F8 Li9 1.993616 1_555
F8 Mn0 2.198366 1_555
F8 Mn1 2.517556 1_554
F9 Li7 1.974204 1_565
F9 Li3 2.153333 1_555
F9 Mn1 2.169827 1_554
F9 Li9 2.208460 1_555
F9 Mn0 2.256338 1_555
F10 Li4 1.974204 1_545
F10 Li8 2.153333 1_555
F10 Mn2 2.169827 1_555
F10 Li2 2.208460 1_555
F10 Mn3 2.256338 1_555
F11 Li5 1.953753 1_555
F11 Li4 1.971614 1_555
F11 Li2 1.993616 1_555
F11 Mn3 2.198366 1_555
F11 Mn2 2.517556 1_555
F12 Li9 1.953753 1_555
F12 Li10 1.971614 1_555
F12 Li5 1.993616 1_555
F12 Mn2 2.198366 1_555
F12 Mn0 2.517556 1_555
F13 Li4 2.015380 1_555
F13 Mn1 2.189375 1_555
F13 Mn3 2.254686 1_555
F13 Li8 2.423406 1_565
F14 Li8 2.052736 1_565
F14 Li10 2.055544 1_555
F14 Li5 2.117976 1_555
F14 Li0 2.119075 1_665
F14 Mn2 2.276610 1_565
F15 Li1 1.974204 1_655
F15 Li11 2.153333 1_555
F15 Mn3 2.169827 1_555
F15 Li6 2.208460 1_555
F15 Mn1 2.256338 1_555
F16 Li11 1.900239 1_555
F16 Li6 1.932593 1_565
F16 Li7 2.088590 1_566
F16 Mn1 2.283594 1_555
F17 Li10 2.015380 1_555
F17 Mn3 2.189375 1_555
F17 Mn2 2.254686 1_555
F17 Li0 2.423406 1_655
F18 Li8 1.900239 1_555
F18 Li2 1.932593 1_655
F18 Li1 2.088590 1_655
F18 Mn3 2.283594 1_555
F19 Li11 2.052736 1_455
F19 Li4 2.055544 1_555
F19 Li2 2.117976 1_555
F19 Li8 2.119075 1_465
F19 Mn3 2.276610 1_455
