# generated using pymatgen
data_Li3Fe8(BO3)8
_symmetry_space_group_name_H-M   'P 1'
_cell_length_a   5.24889700
_cell_length_b   9.15630534
_cell_length_c   10.10403630
_cell_angle_alpha   89.31725443
_cell_angle_beta   89.94924827
_cell_angle_gamma   89.41250228
_symmetry_Int_Tables_number   1
_chemical_formula_structural   Li3Fe8(BO3)8
_chemical_formula_sum   'Li3 Fe8 B8 O24'
_cell_volume   485.54492923
_cell_formula_units_Z   1
loop_
 _symmetry_equiv_pos_site_id
 _symmetry_equiv_pos_as_xyz
  1  'x, y, z'
loop_
 _atom_site_type_symbol
 _atom_site_label
 _atom_site_symmetry_multiplicity
 _atom_site_fract_x
 _atom_site_fract_y
 _atom_site_fract_z
 _atom_site_occupancy
  Li  Li0  1  0.15256000  0.17259300  0.65424700  1
  Li  Li1  1  0.32967800  0.33171900  0.39294200  1
  Li  Li2  1  0.68168500  0.67398800  0.15624400  1
  Fe  Fe0  1  0.16531100  0.83204300  0.62680800  1
  Fe  Fe1  1  0.17165700  0.49867300  0.12956600  1
  Fe  Fe2  1  0.32985000  0.99184300  0.88531200  1
  Fe  Fe3  1  0.33580000  0.66360400  0.38139500  1
  Fe  Fe4  1  0.65169000  0.34473800  0.62997600  1
  Fe  Fe5  1  0.68438200  0.00454200  0.12866700  1
  Fe  Fe6  1  0.83104100  0.15915300  0.37494200  1
  Fe  Fe7  1  0.82833800  0.50096200  0.87279100  1
  B  B0  1  0.15354600  0.49903900  0.62583400  1
  B  B1  1  0.16631600  0.82516700  0.12390200  1
  B  B2  1  0.33460400  0.00483400  0.38753400  1
  B  B3  1  0.32925800  0.66658100  0.88028800  1
  B  B4  1  0.67036300  0.00154200  0.63024400  1
  B  B5  1  0.67559500  0.33861500  0.13394400  1
  B  B6  1  0.83254000  0.48827300  0.36626200  1
  B  B7  1  0.82658100  0.16652400  0.87433100  1
  O  O0  1  0.09216000  0.48317100  0.33063400  1
  O  O1  1  0.08090400  0.14075700  0.85070200  1
  O  O2  1  0.22062700  0.79507400  0.82813700  1
  O  O3  1  0.23549300  0.87414100  0.43375000  1
  O  O4  1  0.19207900  0.13232800  0.39052500  1
  O  O5  1  0.16916500  0.55676200  0.92908400  1
  O  O6  1  0.27766800  0.36754800  0.60323000  1
  O  O7  1  0.31297600  0.93995100  0.07590200  1
  O  O8  1  0.26304800  0.62963100  0.58668900  1
  O  O9  1  0.30037500  0.69701200  0.16478900  1
  O  O10  1  0.41814700  0.35023900  0.14386600  1
  O  O11  1  0.41057200  0.00223600  0.67069100  1
  O  O12  1  0.58309800  0.00965300  0.33986000  1
  O  O13  1  0.58402200  0.64920400  0.88890900  1
  O  O14  1  0.71613200  0.30160500  0.84428300  1
  O  O15  1  0.72188800  0.35995100  0.41781400  1
  O  O16  1  0.69270200  0.61012600  0.34794200  1
  O  O17  1  0.67183500  0.05650500  0.92282000  1
  O  O18  1  0.81522700  0.45891500  0.08436500  1
  O  O19  1  0.81687200  0.87992300  0.63743000  1
  O  O20  1  0.77432900  0.13339000  0.58248300  1
  O  O21  1  0.80692700  0.21519200  0.17861900  1
  O  O22  1  0.91014500  0.83107900  0.13273400  1
  O  O23  1  0.91167100  0.50128400  0.68091400  1
loop_
_geom_bond_atom_site_label_1
_geom_bond_atom_site_label_2
_geom_bond_distance
_geom_bond_site_symmetry_2
Li0 O6 1.971020 1_555
Li0 O1 2.038075 1_555
Li0 O11 2.060505 1_555
Li0 O20 2.149277 1_455
Li1 O0 1.954177 1_555
Li1 O4 1.970657 1_555
Li1 O15 2.093198 1_555
Li1 O6 2.170367 1_555
Li1 O10 2.562695 1_555
Li2 O22 1.894746 1_555
Li2 O9 2.012263 1_555
Li2 O16 2.017288 1_555
Li2 O18 2.213980 1_555
Fe0 O19 1.879627 1_455
Fe0 O8 1.964798 1_555
Fe0 O3 2.018192 1_555
Fe0 O2 2.078369 1_555
Fe0 O11 2.083484 1_565
Fe1 O10 1.871246 1_555
Fe1 O18 1.964863 1_455
Fe1 O9 1.980447 1_555
Fe1 O0 2.077136 1_555
Fe1 O5 2.088220 1_554
Fe2 O1 1.908345 1_565
Fe2 O17 1.935122 1_565
Fe2 O7 1.980098 1_556
Fe2 O2 1.988724 1_555
Fe2 O11 2.210298 1_565
Fe3 O16 1.961489 1_555
Fe3 O3 2.067903 1_555
Fe3 O8 2.128604 1_555
Fe3 O0 2.166243 1_555
Fe3 O9 2.213977 1_555
Fe4 O6 1.990478 1_555
Fe4 O23 2.059269 1_555
Fe4 O20 2.094173 1_555
Fe4 O15 2.177871 1_555
Fe4 O14 2.222021 1_555
Fe5 O22 1.971927 1_545
Fe5 O21 2.106626 1_555
Fe5 O7 2.113634 1_545
Fe5 O17 2.129003 1_554
Fe5 O12 2.199595 1_555
Fe6 O4 1.914785 1_655
Fe6 O12 1.934444 1_555
Fe6 O15 1.973111 1_555
Fe6 O21 2.046716 1_555
Fe6 O20 2.128431 1_555
Fe7 O13 1.866184 1_555
Fe7 O14 1.948514 1_555
Fe7 O5 1.952545 1_655
Fe7 O23 1.987059 1_555
Fe7 O18 2.168780 1_556
B0 O6 1.384331 1_555
B0 O8 1.385282 1_555
B0 O23 1.385807 1_455
B1 O22 1.348070 1_455
B1 O7 1.391472 1_555
B1 O9 1.419426 1_555
B2 O4 1.380659 1_555
B2 O3 1.385539 1_545
B2 O12 1.390968 1_555
B3 O13 1.347813 1_555
B3 O2 1.399637 1_555
B3 O5 1.401817 1_555
B4 O19 1.348081 1_545
B4 O20 1.409705 1_555
B4 O11 1.423167 1_555
B5 O10 1.358125 1_555
B5 O21 1.388705 1_555
B5 O18 1.415689 1_555
B6 O16 1.340290 1_555
B6 O0 1.409610 1_655
B6 O15 1.409980 1_555
B7 O1 1.374402 1_655
B7 O17 1.385237 1_555
B7 O14 1.390938 1_555
