# generated using pymatgen
data_Rb2MgO2
_symmetry_space_group_name_H-M   'P 1'
_cell_length_a   6.48934800
_cell_length_b   9.78014100
_cell_length_c   16.20919867
_cell_angle_alpha   61.68608032
_cell_angle_beta   90.00000000
_cell_angle_gamma   90.00000000
_symmetry_Int_Tables_number   1
_chemical_formula_structural   Rb2MgO2
_chemical_formula_sum   'Rb16 Mg8 O16'
_cell_volume   905.66813618
_cell_formula_units_Z   8
loop_
 _symmetry_equiv_pos_site_id
 _symmetry_equiv_pos_as_xyz
  1  'x, y, z'
loop_
 _atom_site_type_symbol
 _atom_site_label
 _atom_site_symmetry_multiplicity
 _atom_site_fract_x
 _atom_site_fract_y
 _atom_site_fract_z
 _atom_site_occupancy
  Rb  Rb0  1  0.33205500  0.85268900  0.97057200  1
  Rb  Rb1  1  0.87122300  0.92051100  0.83501700  1
  Rb  Rb2  1  0.08411800  0.68063500  0.74003100  1
  Rb  Rb3  1  0.56515500  0.56846400  0.87903600  1
  Rb  Rb4  1  0.16794500  0.85268900  0.47057200  1
  Rb  Rb5  1  0.62877700  0.92051100  0.33501700  1
  Rb  Rb6  1  0.06515500  0.43153600  0.62096400  1
  Rb  Rb7  1  0.58411800  0.31936500  0.75996900  1
  Rb  Rb8  1  0.41588200  0.68063500  0.24003100  1
  Rb  Rb9  1  0.93484500  0.56846400  0.37903600  1
  Rb  Rb10  1  0.37122300  0.07948900  0.66498300  1
  Rb  Rb11  1  0.83205500  0.14731100  0.52942800  1
  Rb  Rb12  1  0.43484500  0.43153600  0.12096400  1
  Rb  Rb13  1  0.91588200  0.31936500  0.25996900  1
  Rb  Rb14  1  0.12877700  0.07948900  0.16498300  1
  Rb  Rb15  1  0.66794500  0.14731100  0.02942800  1
  Mg  Mg0  1  0.62850600  0.75671400  0.62739700  1
  Mg  Mg1  1  0.04983700  0.41187600  0.95967700  1
  Mg  Mg2  1  0.54983700  0.58812400  0.54032300  1
  Mg  Mg3  1  0.12850600  0.24328600  0.87260300  1
  Mg  Mg4  1  0.87149400  0.75671400  0.12739700  1
  Mg  Mg5  1  0.45016300  0.41187600  0.45967700  1
  Mg  Mg6  1  0.95016300  0.58812400  0.04032300  1
  Mg  Mg7  1  0.37149400  0.24328600  0.37260300  1
  O  O0  1  0.69560800  0.86220600  0.69671400  1
  O  O1  1  0.12849500  0.62888700  0.92967500  1
  O  O2  1  0.77473500  0.73991800  0.52732500  1
  O  O3  1  0.40208700  0.61693800  0.64222200  1
  O  O4  1  0.90208700  0.38306200  0.85777800  1
  O  O5  1  0.27473500  0.26008200  0.97267500  1
  O  O6  1  0.80439200  0.86220600  0.19671400  1
  O  O7  1  0.37150500  0.62888700  0.42967500  1
  O  O8  1  0.62849500  0.37111300  0.57032500  1
  O  O9  1  0.19560800  0.13779400  0.80328600  1
  O  O10  1  0.72526500  0.73991800  0.02732500  1
  O  O11  1  0.09791300  0.61693800  0.14222200  1
  O  O12  1  0.59791300  0.38306200  0.35777800  1
  O  O13  1  0.22526500  0.26008200  0.47267500  1
  O  O14  1  0.87150500  0.37111300  0.07032500  1
  O  O15  1  0.30439200  0.13779400  0.30328600  1
loop_
_geom_bond_atom_site_label_1
_geom_bond_atom_site_label_2
_geom_bond_distance
_geom_bond_site_symmetry_2
Mg0 O0 1.901613 1_555
Mg0 O3 1.942620 1_555
Mg0 O2 1.952276 1_555
Mg1 O1 2.005623 1_555
Mg1 O14 2.009132 1_456
Mg1 O5 2.020295 1_555
Mg1 O4 2.041658 1_455
Mg2 O8 2.005623 1_555
Mg2 O7 2.009132 1_555
Mg2 O2 2.020295 1_555
Mg2 O3 2.041658 1_555
Mg3 O9 1.901613 1_555
Mg3 O4 1.942620 1_455
Mg3 O5 1.952276 1_555
Mg4 O6 1.901613 1_555
Mg4 O11 1.942620 1_655
Mg4 O10 1.952276 1_555
Mg5 O7 2.005623 1_555
Mg5 O8 2.009132 1_555
Mg5 O13 2.020295 1_555
Mg5 O12 2.041658 1_555
Mg6 O14 2.005623 1_555
Mg6 O1 2.009132 1_654
Mg6 O10 2.020295 1_555
Mg6 O11 2.041658 1_655
Mg7 O15 1.901613 1_555
Mg7 O12 1.942620 1_555
Mg7 O13 1.952276 1_555
O0 Rb1 2.803948 1_555
O0 Rb10 2.859164 1_565
O0 Rb11 2.956244 1_565
O0 Rb2 2.969847 1_655
O0 Rb3 3.106427 1_555
O1 Rb2 2.883161 1_555
O1 Rb0 2.889936 1_555
O1 Rb1 3.020747 1_455
O1 Rb3 3.084249 1_555
O1 Rb12 3.408006 1_556
O2 Rb4 2.758855 1_655
O2 Rb5 2.917315 1_555
O2 Rb6 3.257224 1_655
O3 Rb2 2.845374 1_555
O3 Rb7 2.870344 1_555
O3 Rb6 2.963102 1_555
O3 Rb4 3.046417 1_555
O4 Rb7 2.845374 1_555
O4 Rb2 2.870344 1_655
O4 Rb3 2.963102 1_555
O4 Rb15 3.046417 1_556
O5 Rb15 2.758855 1_556
O5 Rb14 2.917315 1_556
O5 Rb3 3.257224 1_555
O6 Rb5 2.803948 1_555
O6 Rb14 2.859164 1_665
O6 Rb15 2.956244 1_565
O6 Rb8 2.969847 1_555
O6 Rb9 3.106427 1_555
O7 Rb8 2.883161 1_555
O7 Rb4 2.889936 1_555
O7 Rb5 3.020747 1_555
O7 Rb9 3.084249 1_455
O7 Rb6 3.408006 1_555
O8 Rb7 2.883161 1_555
O8 Rb11 2.889936 1_555
O8 Rb10 3.020747 1_555
O8 Rb6 3.084249 1_655
O8 Rb9 3.408006 1_555
O9 Rb10 2.803948 1_555
O9 Rb1 2.859164 1_445
O9 Rb0 2.956244 1_545
O9 Rb7 2.969847 1_555
O9 Rb6 3.106427 1_555
O10 Rb0 2.758855 1_554
O10 Rb1 2.917315 1_554
O10 Rb12 3.257224 1_555
O11 Rb8 2.845374 1_555
O11 Rb13 2.870344 1_455
O11 Rb12 2.963102 1_555
O11 Rb0 3.046417 1_554
O12 Rb13 2.845374 1_555
O12 Rb8 2.870344 1_555
O12 Rb9 2.963102 1_555
O12 Rb11 3.046417 1_555
O13 Rb11 2.758855 1_455
O13 Rb10 2.917315 1_555
O13 Rb9 3.257224 1_455
O14 Rb13 2.883161 1_555
O14 Rb15 2.889936 1_555
O14 Rb14 3.020747 1_655
O14 Rb12 3.084249 1_555
O14 Rb3 3.408006 1_554
O15 Rb14 2.803948 1_555
O15 Rb5 2.859164 1_545
O15 Rb4 2.956244 1_545
O15 Rb13 2.969847 1_455
O15 Rb12 3.106427 1_555
