# generated using pymatgen
data_Li3Co2SbO6
_symmetry_space_group_name_H-M   'P 1'
_cell_length_a   6.60407335
_cell_length_b   6.60407335
_cell_length_c   6.22046304
_cell_angle_alpha   74.89359694
_cell_angle_beta   74.89359694
_cell_angle_gamma   26.91754129
_symmetry_Int_Tables_number   1
_chemical_formula_structural   Li3Co2SbO6
_chemical_formula_sum   'Li3 Co2 Sb1 O6'
_cell_volume   118.32680114
_cell_formula_units_Z   1
loop_
 _symmetry_equiv_pos_site_id
 _symmetry_equiv_pos_as_xyz
  1  'x, y, z'
loop_
 _atom_site_type_symbol
 _atom_site_label
 _atom_site_symmetry_multiplicity
 _atom_site_fract_x
 _atom_site_fract_y
 _atom_site_fract_z
 _atom_site_occupancy
  Li  Li0  1  0.00000000  0.00000000  0.00000000  1
  Li  Li1  1  0.67567800  0.67567800  0.68375300  1
  Li  Li2  1  0.32432200  0.32432200  0.31624700  1
  Co  Co0  1  0.68228000  0.68228000  0.12755100  1
  Co  Co1  1  0.31772000  0.31772000  0.87244900  1
  Sb  Sb0  1  0.00000000  0.00000000  0.50000000  1
  O  O0  1  0.15763400  0.15763400  0.40181000  1
  O  O1  1  0.84005800  0.84005800  0.08309200  1
  O  O2  1  0.84236600  0.84236600  0.59819000  1
  O  O3  1  0.50077000  0.50077000  0.72212700  1
  O  O4  1  0.49923000  0.49923000  0.27787300  1
  O  O5  1  0.15994200  0.15994200  0.91690800  1
loop_
_geom_bond_atom_site_label_1
_geom_bond_atom_site_label_2
_geom_bond_distance
_geom_bond_site_symmetry_2
Li0 O5 1.979668 1_554
Li0 O1 1.979668 1_445
Li0 O4 2.311109 1_455
Li0 O3 2.311109 1_544
Li0 O3 2.311109 1_454
Li0 O4 2.311109 1_545
Li1 O2 2.063286 1_555
Li1 O5 2.085614 1_565
Li1 O5 2.085614 1_655
Li1 O3 2.194882 1_555
Li1 O0 2.389569 1_655
Li1 O0 2.389569 1_565
Li2 O0 2.063286 1_555
Li2 O1 2.085614 1_545
Li2 O1 2.085614 1_455
Li2 O4 2.194882 1_555
Li2 O2 2.389569 1_455
Li2 O2 2.389569 1_545
Co0 O1 1.970710 1_555
Co0 O5 2.088851 1_564
Co0 O5 2.088851 1_654
Co0 O0 2.254737 1_655
Co0 O0 2.254737 1_565
Co0 O4 2.285794 1_555
Co1 O5 1.970710 1_555
Co1 O1 2.088851 1_456
Co1 O1 2.088851 1_546
Co1 O2 2.254737 1_455
Co1 O2 2.254737 1_545
Co1 O3 2.285794 1_555
O0 Sb0 1.952010 1_555
O2 Sb0 1.952010 1_665
O3 Sb0 2.068620 1_655
O3 Sb0 2.068620 1_565
O4 Sb0 2.068620 1_655
O4 Sb0 2.068620 1_565
