# generated using pymatgen
data_LiFe2(BO3)2
_symmetry_space_group_name_H-M   'P 1'
_cell_length_a   5.28960400
_cell_length_b   9.05618875
_cell_length_c   11.40902517
_cell_angle_alpha   113.06593122
_cell_angle_beta   102.71970761
_cell_angle_gamma   89.80629509
_symmetry_Int_Tables_number   1
_chemical_formula_structural   LiFe2(BO3)2
_chemical_formula_sum   'Li4 Fe8 B8 O24'
_cell_volume   488.40459600
_cell_formula_units_Z   4
loop_
 _symmetry_equiv_pos_site_id
 _symmetry_equiv_pos_as_xyz
  1  'x, y, z'
loop_
 _atom_site_type_symbol
 _atom_site_label
 _atom_site_symmetry_multiplicity
 _atom_site_fract_x
 _atom_site_fract_y
 _atom_site_fract_z
 _atom_site_occupancy
  Li  Li0  1  0.16073500  0.82941300  0.64412800  1
  Li  Li1  1  0.35445900  0.68421400  0.38554300  1
  Li  Li2  1  0.60796000  0.95170400  0.90526400  1
  Li  Li3  1  0.42812400  0.06620100  0.16454800  1
  Fe  Fe0  1  0.40490100  0.71815800  0.13128500  1
  Fe  Fe1  1  0.09507900  0.76536700  0.87987600  1
  Fe  Fe2  1  0.85161600  0.86459900  0.38288900  1
  Fe  Fe3  1  0.66215900  0.64152600  0.62528100  1
  Fe  Fe4  1  0.34996200  0.34714000  0.38408600  1
  Fe  Fe5  1  0.13980600  0.16885400  0.63258400  1
  Fe  Fe6  1  0.91088300  0.24278600  0.13129800  1
  Fe  Fe7  1  0.59680200  0.27156600  0.86809000  1
  B  B0  1  0.64199000  0.97772300  0.62905200  1
  B  B1  1  0.89867900  0.90904900  0.12962900  1
  B  B2  1  0.14929500  0.49102500  0.63207400  1
  B  B3  1  0.40195000  0.38301900  0.12585800  1
  B  B4  1  0.84861300  0.52943700  0.37271100  1
  B  B5  1  0.60100300  0.61152100  0.88182200  1
  B  B6  1  0.35031000  0.00909100  0.37703900  1
  B  B7  1  0.10691500  0.10373600  0.87789500  1
  O  O0  1  0.12703300  0.87447400  0.08497500  1
  O  O1  1  0.47173000  0.86391800  0.35141200  1
  O  O2  1  0.21778600  0.96032000  0.86655300  1
  O  O3  1  0.50560500  0.84199100  0.61872500  1
  O  O4  1  0.87781500  0.96351300  0.58907300  1
  O  O5  1  0.79759300  0.82029500  0.18661400  1
  O  O6  1  0.31291000  0.52957400  0.15945500  1
  O  O7  1  0.06430500  0.65077400  0.68595500  1
  O  O8  1  0.71905600  0.72627900  0.84977700  1
  O  O9  1  0.62021000  0.53609000  0.41286100  1
  O  O10  1  0.98641400  0.67014700  0.39053600  1
  O  O11  1  0.37994500  0.65622700  0.93000900  1
  O  O12  1  0.61772100  0.34280100  0.06890200  1
  O  O13  1  0.36133500  0.47892800  0.57848300  1
  O  O14  1  0.28671200  0.26047200  0.14991900  1
  O  O15  1  0.95298500  0.38288300  0.31721800  1
  O  O16  1  0.69830700  0.47107400  0.87093600  1
  O  O17  1  0.22417300  0.21337500  0.84626500  1
  O  O18  1  0.13488400  0.02238400  0.43052700  1
  O  O19  1  0.43904300  0.12478800  0.34602700  1
  O  O20  1  0.01333600  0.36839200  0.63462900  1
  O  O21  1  0.76251600  0.03408800  0.11123800  1
  O  O22  1  0.54856200  0.12810800  0.67972100  1
  O  O23  1  0.87088100  0.13221300  0.91772400  1
loop_
_geom_bond_atom_site_label_1
_geom_bond_atom_site_label_2
_geom_bond_distance
_geom_bond_site_symmetry_2
Li0 O3 1.919601 1_555
Li0 O7 1.955211 1_555
Li0 O4 2.068937 1_455
Li0 O2 2.289987 1_555
Li1 O1 1.948009 1_555
Li1 O10 1.966152 1_455
Li1 O9 1.998640 1_555
Li1 O6 2.363247 1_555
Li1 O3 2.418866 1_555
Li2 O8 2.014153 1_555
Li2 O2 2.021189 1_555
Li2 O23 2.091154 1_565
Li2 O21 2.128758 1_566
Li3 O19 1.912734 1_555
Li3 O14 1.961868 1_555
Li3 O21 1.978593 1_555
Li3 O0 2.126579 1_545
Fe0 O6 1.939437 1_555
Fe0 O11 2.112600 1_554
Fe0 O5 2.132323 1_555
Fe0 O0 2.161836 1_555
Fe0 O1 2.277992 1_555
Fe1 O11 1.904725 1_555
Fe1 O8 1.951444 1_455
Fe1 O2 1.955244 1_555
Fe1 O7 2.010432 1_555
Fe1 O0 2.120291 1_556
Fe2 O18 1.905171 1_665
Fe2 O10 1.923960 1_555
Fe2 O1 1.961491 1_555
Fe2 O5 2.066905 1_555
Fe2 O4 2.135730 1_555
Fe3 O13 2.002768 1_555
Fe3 O3 2.013995 1_555
Fe3 O7 2.078097 1_655
Fe3 O9 2.187625 1_555
Fe3 O8 2.315499 1_555
Fe4 O19 1.965696 1_555
Fe4 O13 2.052953 1_555
Fe4 O9 2.109275 1_555
Fe4 O15 2.140006 1_455
Fe4 O14 2.414660 1_555
Fe5 O20 1.918119 1_555
Fe5 O4 2.148537 1_445
Fe5 O18 2.156894 1_555
Fe5 O22 2.176777 1_555
Fe5 O17 2.248766 1_555
Fe6 O12 1.934292 1_555
Fe6 O14 1.952533 1_655
Fe6 O21 1.957656 1_555
Fe6 O15 1.960550 1_555
Fe6 O23 2.201664 1_554
Fe7 O16 1.872622 1_555
Fe7 O17 1.978097 1_555
Fe7 O22 1.986096 1_555
Fe7 O23 2.049694 1_555
Fe7 O12 2.099553 1_556
B0 O3 1.378544 1_555
B0 O22 1.391965 1_565
B0 O4 1.408596 1_555
B1 O5 1.385681 1_555
B1 O21 1.399705 1_565
B1 O0 1.400019 1_655
B2 O20 1.338454 1_555
B2 O13 1.375687 1_555
B2 O7 1.446866 1_555
B3 O6 1.344220 1_555
B3 O14 1.412652 1_555
B3 O12 1.412768 1_555
B4 O9 1.376483 1_555
B4 O10 1.390842 1_555
B4 O15 1.399175 1_555
B5 O16 1.340914 1_555
B5 O11 1.392451 1_555
B5 O8 1.416454 1_555
B6 O19 1.345460 1_555
B6 O18 1.390369 1_555
B6 O1 1.415006 1_545
B7 O17 1.372698 1_555
B7 O2 1.394327 1_545
B7 O23 1.409840 1_455
