# generated using pymatgen
data_Li5Sm3(SbO6)2
_symmetry_space_group_name_H-M   'P 1'
_cell_length_a   11.02974700
_cell_length_b   11.03405710
_cell_length_c   11.04645209
_cell_angle_alpha   109.20356096
_cell_angle_beta   109.63224703
_cell_angle_gamma   109.51230147
_symmetry_Int_Tables_number   1
_chemical_formula_structural   Li5Sm3(SbO6)2
_chemical_formula_sum   'Li20 Sm12 Sb8 O48'
_cell_volume   1035.73272597
_cell_formula_units_Z   4
loop_
 _symmetry_equiv_pos_site_id
 _symmetry_equiv_pos_as_xyz
  1  'x, y, z'
loop_
 _atom_site_type_symbol
 _atom_site_label
 _atom_site_symmetry_multiplicity
 _atom_site_fract_x
 _atom_site_fract_y
 _atom_site_fract_z
 _atom_site_occupancy
  Li  Li0  1  0.37194900  0.38897600  0.16119300  1
  Li  Li1  1  0.78812100  0.10564000  0.53089000  1
  Li  Li2  1  0.38658400  0.75824400  0.13268100  1
  Li  Li3  1  0.74178700  0.16882300  0.35335000  1
  Li  Li4  1  0.11102600  0.27887500  0.99738900  1
  Li  Li5  1  0.84981600  0.73676100  0.69883500  1
  Li  Li6  1  0.02323200  0.79076500  0.60444500  1
  Li  Li7  1  0.70743600  0.49212900  0.36653500  1
  Li  Li8  1  0.39463900  0.66434400  0.87027900  1
  Li  Li9  1  0.27638800  0.49802700  0.60378300  1
  Li  Li10  1  0.86876700  0.13345400  0.76222800  1
  Li  Li11  1  0.61813700  0.33052100  0.09588800  1
  Li  Li12  1  0.29480700  0.78096200  0.66947200  1
  Li  Li13  1  0.75716900  0.64004300  0.88070000  1
  Li  Li14  1  0.51169800  0.12441900  0.78416900  1
  Li  Li15  1  0.67458100  0.39828900  0.88801000  1
  Li  Li16  1  0.12396800  0.25512800  0.36845100  1
  Li  Li17  1  0.21916500  0.89044400  0.49830500  1
  Li  Li18  1  0.21265400  0.84223200  0.21857900  1
  Li  Li19  1  0.11442800  0.00851200  0.27812800  1
  Sm  Sm0  1  0.62903500  0.75550400  0.37794100  1
  Sm  Sm1  1  0.75217800  0.38672700  0.63290700  1
  Sm  Sm2  1  0.75499100  0.88295700  0.12720200  1
  Sm  Sm3  1  0.87981200  0.25431700  0.12216400  1
  Sm  Sm4  1  0.63403300  0.87745400  0.75387300  1
  Sm  Sm5  1  0.88396000  0.63817700  0.24402500  1
  Sm  Sm6  1  0.12083300  0.37513300  0.75000300  1
  Sm  Sm7  1  0.39381200  0.14011800  0.25279300  1
  Sm  Sm8  1  0.13770000  0.75766200  0.88467500  1
  Sm  Sm9  1  0.25495100  0.61874800  0.36185400  1
  Sm  Sm10  1  0.25253200  0.11811400  0.86963600  1
  Sm  Sm11  1  0.37308800  0.26041200  0.62358800  1
  Sb  Sb0  1  0.99515500  0.00740900  0.49755300  1
  Sb  Sb1  1  0.01183800  0.00596700  0.00352300  1
  Sb  Sb2  1  0.49849000  0.50141800  0.99737900  1
  Sb  Sb3  1  0.00105500  0.50503200  0.49947700  1
  Sb  Sb4  1  0.50769900  0.00481200  0.00412400  1
  Sb  Sb5  1  0.00465700  0.50627500  0.00279000  1
  Sb  Sb6  1  0.50274300  0.50843800  0.50734700  1
  Sb  Sb7  1  0.50291100  0.00844900  0.50328900  1
  O  O0  1  0.92430300  0.33212100  0.80383100  1
  O  O1  1  0.67846400  0.98350600  0.59484900  1
  O  O2  1  0.41796100  0.53778800  0.33219900  1
  O  O3  1  0.79390400  0.97763700  0.37564400  1
  O  O4  1  0.90761100  0.58475100  0.88268000  1
  O  O5  1  0.90820600  0.33732400  0.53444200  1
  O  O6  1  0.98680100  0.08972000  0.17861700  1
  O  O7  1  0.92661000  0.60913700  0.62019800  1
  O  O8  1  0.52578400  0.70058000  0.10869900  1
  O  O9  1  0.41956100  0.80890000  0.32931500  1
  O  O10  1  0.80882700  0.83344300  0.91352400  1
  O  O11  1  0.29706400  0.37160600  0.96688900  1
  O  O12  1  0.60822700  0.13204500  0.43259000  1
  O  O13  1  0.71251000  0.08625100  0.16950300  1
  O  O14  1  0.09386400  0.42191700  0.11987300  1
  O  O15  1  0.90000800  0.09813400  0.91992200  1
  O  O16  1  0.82831400  0.43083800  0.30094100  1
  O  O17  1  0.37388100  0.47184200  0.79444300  1
  O  O18  1  0.67231700  0.70839800  0.58139600  1
  O  O19  1  0.87806300  0.80106500  0.46540200  1
  O  O20  1  0.58446200  0.38840800  0.41747200  1
  O  O21  1  0.00832700  0.12573700  0.68896300  1
  O  O22  1  0.38995200  0.91397400  0.08720800  1
  O  O23  1  0.17951500  0.60340100  0.97845800  1
  O  O24  1  0.53550300  0.83525100  0.90619100  1
  O  O25  1  0.41891500  0.63117600  0.59132900  1
  O  O26  1  0.12164700  0.20569500  0.52263600  1
  O  O27  1  0.47403500  0.17567000  0.08921300  1
  O  O28  1  0.62787500  0.10304400  0.92671100  1
  O  O29  1  0.83311500  0.41732100  0.03608100  1
  O  O30  1  0.18511000  0.58899200  0.70007800  1
  O  O31  1  0.13825200  0.93293900  0.10409700  1
  O  O32  1  0.61265300  0.51834500  0.19577500  1
  O  O33  1  0.30450000  0.92042800  0.82953700  1
  O  O34  1  0.20940000  0.18225300  0.07708800  1
  O  O35  1  0.40864500  0.89638400  0.59006200  1
  O  O36  1  0.70046700  0.61297700  0.02194100  1
  O  O37  1  0.08922500  0.41671100  0.38854600  1
  O  O38  1  0.48668300  0.30432300  0.88537000  1
  O  O39  1  0.57646800  0.20929500  0.67538200  1
  O  O40  1  0.03788400  0.90987000  0.82882700  1
  O  O41  1  0.10299900  0.68940900  0.48634900  1
  O  O42  1  0.19435400  0.03190700  0.62189500  1
  O  O43  1  0.59777400  0.48337500  0.68171000  1
  O  O44  1  0.32188700  0.02586300  0.40455300  1
  O  O45  1  0.08935900  0.67693700  0.20871700  1
  O  O46  1  0.97414700  0.88669500  0.30103600  1
  O  O47  1  0.32833700  0.30889700  0.42595900  1
loop_
_geom_bond_atom_site_label_1
_geom_bond_atom_site_label_2
_geom_bond_distance
_geom_bond_site_symmetry_2
Li0 O2 1.811277 1_555
Li0 O11 1.938609 1_554
Li0 O34 2.008783 1_555
Li0 O32 2.379123 1_555
Li1 O3 1.865514 1_545
Li1 O1 1.972279 1_545
Li1 O12 2.085067 1_555
Li1 O21 2.352231 1_655
Li1 O5 2.434811 1_555
Li2 O8 1.909789 1_555
Li2 O9 1.922858 1_555
Li2 O22 1.934965 1_555
Li2 O23 1.975254 1_554
Li3 O13 1.790061 1_555
Li3 O5 1.906273 1_555
Li3 O12 1.949818 1_555
Li3 O3 2.428587 1_545
Li4 O14 1.823308 1_556
Li4 O34 1.958921 1_556
Li4 O15 2.136563 1_455
Li4 O11 2.158646 1_555
Li5 O18 1.797422 1_555
Li5 O40 1.886954 1_655
Li5 O7 1.985336 1_555
Li5 O10 2.518931 1_555
Li6 O19 1.876062 1_455
Li6 O7 2.027242 1_455
Li6 O41 2.048269 1_555
Li6 O40 2.311471 1_555
Li6 O42 2.596649 1_565
Li7 O20 1.834566 1_555
Li7 O16 1.920694 1_555
Li7 O32 1.992628 1_555
Li7 O7 2.519103 1_555
Li8 O24 1.806656 1_555
Li8 O17 1.908293 1_555
Li8 O30 2.082169 1_555
Li8 O8 2.355747 1_556
Li9 O25 1.839601 1_555
Li9 O30 1.960822 1_555
Li9 O17 2.182098 1_555
Li9 O37 2.186497 1_555
Li10 O15 1.854187 1_555
Li10 O1 1.903057 1_545
Li10 O0 1.908624 1_555
Li10 O21 1.977644 1_655
Li11 O27 1.864218 1_555
Li11 O32 2.034819 1_555
Li11 O38 2.146101 1_554
Li11 O16 2.199542 1_555
Li11 O29 2.632102 1_555
Li11 O28 2.652026 1_554
Li12 O33 1.865210 1_555
Li12 O41 1.985073 1_555
Li12 O35 2.091608 1_555
Li12 O30 2.258091 1_555
Li12 O25 2.591783 1_555
Li13 O10 1.884127 1_555
Li13 O36 1.937015 1_556
Li13 O43 1.945307 1_555
Li13 O4 1.945959 1_555
Li14 O28 1.807574 1_555
Li14 O39 1.924022 1_555
Li14 O38 2.092758 1_555
Li14 O35 2.263437 1_545
Li15 O29 1.839539 1_556
Li15 O38 1.968514 1_555
Li15 O39 2.144511 1_555
Li15 O36 2.200161 1_556
Li16 O6 1.877010 1_455
Li16 O37 1.904763 1_555
Li16 O47 1.932134 1_555
Li16 O26 1.957081 1_555
Li17 O42 1.873421 1_565
Li17 O35 1.959789 1_555
Li17 O41 2.091557 1_555
Li17 O44 2.294435 1_565
Li18 O45 1.816754 1_555
Li18 O44 1.935239 1_565
Li18 O31 1.989575 1_555
Li18 O9 2.412574 1_555
Li19 O46 1.833663 1_445
Li19 O31 1.972655 1_545
Li19 O6 2.107995 1_455
Li19 O44 2.146411 1_555
O0 Sb5 2.020769 1_656
O0 Sm6 2.375318 1_655
O0 Sm1 2.576063 1_555
O1 Sb7 2.017703 1_565
O1 Sm4 2.498596 1_555
O1 Sm0 2.570601 1_555
O2 Sb6 2.030122 1_555
O2 Sm9 2.326840 1_555
O2 Sm0 2.474120 1_555
O3 Sb0 2.015412 1_565
O3 Sm2 2.414583 1_555
O3 Sm0 2.531695 1_555
O4 Sb5 2.019046 1_656
O4 Sm1 2.383110 1_555
O4 Sm8 2.604114 1_655
O5 Sb3 2.022952 1_655
O5 Sm1 2.436459 1_555
O5 Sm6 2.506898 1_655
O6 Sb1 2.006195 1_655
O6 Sm2 2.517915 1_545
O6 Sm3 2.600419 1_555
O7 Sb3 2.032291 1_655
O7 Sm8 2.524390 1_655
O7 Sm1 2.645350 1_555
O8 Sb2 1.990889 1_554
O8 Sm2 2.542897 1_555
O8 Sm0 2.566537 1_555
O9 Sb7 2.015800 1_565
O9 Sm9 2.493540 1_555
O9 Sm0 2.501481 1_555
O10 Sb1 2.009408 1_666
O10 Sm4 2.442759 1_555
O10 Sm2 2.555911 1_556
O11 Sb2 2.038372 1_555
O11 Sm10 2.443308 1_555
O11 Sm6 2.549967 1_555
O12 Sb7 2.017699 1_555
O12 Sm1 2.425345 1_555
O12 Sm7 2.578066 1_555
O13 Sb4 2.009706 1_555
O13 Sm2 2.372624 1_545
O13 Sm3 2.473451 1_555
O14 Sb5 2.013936 1_555
O14 Sm9 2.330370 1_555
O14 Sm3 2.479701 1_455
O15 Sb1 2.024565 1_656
O15 Sm3 2.463455 1_556
O15 Sm4 2.563965 1_545
O16 Sb3 2.019703 1_655
O16 Sm5 2.504698 1_555
O16 Sm3 2.641736 1_555
O17 Sb2 2.041955 1_555
O17 Sm6 2.432036 1_555
O17 Sm11 2.466462 1_555
O18 Sb6 2.015781 1_555
O18 Sm0 2.400499 1_555
O18 Sm4 2.452899 1_555
O19 Sb0 2.042913 1_565
O19 Sm0 2.388612 1_555
O19 Sm5 2.551134 1_555
O20 Sb6 2.021362 1_555
O20 Sm7 2.353563 1_555
O20 Sm1 2.485867 1_555
O21 Sb0 2.011782 1_455
O21 Sm6 2.345879 1_555
O21 Sm10 2.809772 1_555
O22 Sb4 2.017463 1_565
O22 Sm8 2.407139 1_554
O22 Sm7 2.539314 1_565
O23 Sb5 2.024233 1_556
O23 Sm8 2.355111 1_555
O23 Sm6 2.600659 1_555
O24 Sb4 2.009856 1_566
O24 Sm4 2.373826 1_555
O24 Sm2 2.535737 1_556
O25 Sb6 2.033714 1_555
O25 Sm4 2.420416 1_555
O25 Sm9 2.498045 1_555
O26 Sb0 2.027929 1_455
O26 Sm11 2.379039 1_555
O26 Sm6 2.596323 1_555
O27 Sb4 2.027793 1_555
O27 Sm7 2.347516 1_555
O27 Sm10 2.494718 1_554
O28 Sb4 2.018599 1_556
O28 Sm3 2.380892 1_556
O28 Sm4 2.630494 1_545
O29 Sb5 2.035427 1_655
O29 Sm3 2.412326 1_555
O29 Sm5 2.463437 1_555
O30 Sb3 2.064013 1_555
O30 Sm6 2.525150 1_555
O30 Sm8 2.601028 1_555
O31 Sb1 2.031320 1_565
O31 Sm7 2.446102 1_565
O31 Sm8 2.552218 1_554
O32 Sb2 2.035361 1_554
O32 Sm5 2.609330 1_555
O32 Sm0 2.627818 1_555
O33 Sb4 2.032154 1_566
O33 Sm10 2.377593 1_565
O33 Sm8 2.499312 1_555
O34 Sb1 2.032501 1_555
O34 Sm10 2.422650 1_554
O34 Sm7 2.587095 1_555
O35 Sb7 2.029632 1_565
O35 Sm4 2.659101 1_555
O35 Sm9 2.681843 1_555
O36 Sb2 2.023362 1_554
O36 Sm5 2.455764 1_555
O36 Sm2 2.577331 1_555
O37 Sb3 2.011301 1_555
O37 Sm3 2.530616 1_455
O37 Sm9 2.543693 1_555
O38 Sb2 2.051783 1_555
O38 Sm11 2.530807 1_555
O38 Sm10 2.615418 1_555
O39 Sb7 2.043146 1_555
O39 Sm11 2.423350 1_555
O39 Sm1 2.547504 1_555
O40 Sb1 2.039799 1_566
O40 Sm8 2.423567 1_555
O40 Sm10 2.460792 1_565
O41 Sb3 2.049333 1_555
O41 Sm9 2.650366 1_555
O41 Sm5 2.658629 1_455
O42 Sb0 2.029318 1_455
O42 Sm10 2.346406 1_555
O42 Sm11 2.620623 1_555
O43 Sb6 2.018020 1_555
O43 Sm1 2.404198 1_555
O43 Sm11 2.534803 1_555
O44 Sb7 2.035664 1_555
O44 Sm7 2.577777 1_555
O44 Sm11 2.618621 1_555
O45 Sb5 2.042589 1_555
O45 Sm5 2.350267 1_455
O45 Sm9 2.455902 1_555
O46 Sb0 2.023350 1_565
O46 Sm5 2.350824 1_555
O46 Sm2 2.508851 1_555
O47 Sb6 2.015630 1_555
O47 Sm11 2.348703 1_555
O47 Sm7 2.670583 1_555
