# generated using pymatgen
data_LiCrCo3O8
_symmetry_space_group_name_H-M   'P 1'
_cell_length_a   5.74378531
_cell_length_b   5.73169608
_cell_length_c   10.45716983
_cell_angle_alpha   74.45995063
_cell_angle_beta   89.82624938
_cell_angle_gamma   120.35296950
_symmetry_Int_Tables_number   1
_chemical_formula_structural   LiCrCo3O8
_chemical_formula_sum   'Li2 Cr2 Co6 O16'
_cell_volume   282.22321667
_cell_formula_units_Z   2
loop_
 _symmetry_equiv_pos_site_id
 _symmetry_equiv_pos_as_xyz
  1  'x, y, z'
loop_
 _atom_site_type_symbol
 _atom_site_label
 _atom_site_symmetry_multiplicity
 _atom_site_fract_x
 _atom_site_fract_y
 _atom_site_fract_z
 _atom_site_occupancy
  Li  Li0  1  0.24867300  0.49943500  0.25095700  1
  Li  Li1  1  0.75131300  0.50055500  0.74905000  1
  Cr  Cr0  1  0.50024600  0.00021300  0.49987200  1
  Cr  Cr1  1  0.99996300  0.00001400  0.00002400  1
  Co  Co0  1  0.49999700  0.49998100  0.00000800  1
  Co  Co1  1  0.00002400  0.50003100  0.50000800  1
  Co  Co2  1  0.49997900  0.99999000  0.00001000  1
  Co  Co3  1  0.00001500  0.99997000  0.50001000  1
  Co  Co4  1  0.99997500  0.49999100  0.00000900  1
  Co  Co5  1  0.49997600  0.49998600  0.50000200  1
  O  O0  1  0.63379200  0.26896100  0.09740800  1
  O  O1  1  0.13435200  0.27004500  0.59734900  1
  O  O2  1  0.86560400  0.72990800  0.40266600  1
  O  O3  1  0.36617300  0.73100800  0.90260000  1
  O  O4  1  0.14179800  0.75932200  0.09815100  1
  O  O5  1  0.64163000  0.75705700  0.59991600  1
  O  O6  1  0.88435000  0.24176500  0.39951700  1
  O  O7  1  0.38519000  0.24250300  0.90162600  1
  O  O8  1  0.35663900  0.71628300  0.39904600  1
  O  O9  1  0.85613000  0.71257900  0.90112700  1
  O  O10  1  0.14383600  0.28739500  0.09889400  1
  O  O11  1  0.64334900  0.28369100  0.60095000  1
  O  O12  1  0.61476600  0.75745700  0.09839600  1
  O  O13  1  0.11570500  0.75827200  0.60045700  1
  O  O14  1  0.35835800  0.24294700  0.40008100  1
  O  O15  1  0.85816800  0.24064300  0.90186700  1
loop_
_geom_bond_atom_site_label_1
_geom_bond_atom_site_label_2
_geom_bond_distance
_geom_bond_site_symmetry_2
Li0 O8 2.141424 1_555
Li0 O6 2.144999 1_455
Li0 O10 2.161006 1_555
Li0 O14 2.168763 1_555
Li0 O12 2.174042 1_555
Li0 O4 2.191751 1_555
Li1 O11 2.141583 1_555
Li1 O13 2.145433 1_655
Li1 O9 2.161079 1_555
Li1 O5 2.168862 1_555
Li1 O7 2.174234 1_555
Li1 O15 2.191832 1_555
Cr0 O6 2.001479 1_555
Cr0 O8 2.002120 1_545
Cr0 O11 2.002148 1_555
Cr0 O13 2.004159 1_545
Cr0 O14 2.015429 1_555
Cr0 O5 2.015959 1_545
Cr1 O12 1.999332 1_545
Cr1 O7 1.999551 1_654
Cr1 O15 2.000222 1_554
Cr1 O4 2.000567 1_645
Cr1 O10 2.001765 1_655
Cr1 O9 2.002207 1_544
Co0 O7 1.872250 1_554
Co0 O12 1.872299 1_555
Co0 O9 1.879152 1_554
Co0 O10 1.879297 1_555
Co0 O0 1.921415 1_555
Co0 O3 1.921599 1_554
Co1 O8 1.888489 1_555
Co1 O11 1.888648 1_455
Co1 O13 1.891847 1_555
Co1 O6 1.892293 1_455
Co1 O2 1.918994 1_455
Co1 O1 1.919061 1_555
Co2 O4 1.883908 1_555
Co2 O15 1.883945 1_564
Co2 O7 1.894566 1_564
Co2 O12 1.894653 1_555
Co2 O0 1.911380 1_565
Co2 O3 1.911521 1_554
Co3 O14 1.891575 1_565
Co3 O5 1.891649 1_455
Co3 O13 1.902350 1_555
Co3 O6 1.902840 1_465
Co3 O2 1.915611 1_455
Co3 O1 1.915629 1_565
Co4 O4 1.877493 1_655
Co4 O15 1.877560 1_554
Co4 O9 1.893168 1_554
Co4 O10 1.893283 1_655
Co4 O0 1.914200 1_555
Co4 O3 1.914301 1_654
Co5 O14 1.882240 1_555
Co5 O5 1.882322 1_555
Co5 O2 1.911635 1_555
Co5 O1 1.911656 1_555
Co5 O8 1.914381 1_555
Co5 O11 1.914498 1_555
