# generated using pymatgen
data_Li2CrSiO4
_symmetry_space_group_name_H-M   'P 1'
_cell_length_a   11.31630000
_cell_length_b   5.22721000
_cell_length_c   7.83717198
_cell_angle_alpha   51.22305260
_cell_angle_beta   90.00000000
_cell_angle_gamma   90.00000000
_symmetry_Int_Tables_number   1
_chemical_formula_structural   Li2CrSiO4
_chemical_formula_sum   'Li8 Cr4 Si4 O16'
_cell_volume   361.40989912
_cell_formula_units_Z   4
loop_
 _symmetry_equiv_pos_site_id
 _symmetry_equiv_pos_as_xyz
  1  'x, y, z'
loop_
 _atom_site_type_symbol
 _atom_site_label
 _atom_site_symmetry_multiplicity
 _atom_site_fract_x
 _atom_site_fract_y
 _atom_site_fract_z
 _atom_site_occupancy
  Li  Li0  1  0.65751800  0.68488700  0.50107400  1
  Li  Li1  1  0.43235500  0.45980600  0.74691300  1
  Li  Li2  1  0.93235500  0.54019400  0.75308700  1
  Li  Li3  1  0.15751800  0.31511300  0.99892600  1
  Li  Li4  1  0.84248200  0.68488700  0.00107400  1
  Li  Li5  1  0.06764500  0.45980600  0.24691300  1
  Li  Li6  1  0.56764500  0.54019400  0.25308700  1
  Li  Li7  1  0.34248200  0.31511300  0.49892600  1
  Cr  Cr0  1  0.83104500  0.18213900  0.50793800  1
  Cr  Cr1  1  0.33104500  0.81786100  0.99206200  1
  Cr  Cr2  1  0.66895500  0.18213900  0.00793800  1
  Cr  Cr3  1  0.16895500  0.81786100  0.49206200  1
  Si  Si0  1  0.09209100  0.05774300  0.74783700  1
  Si  Si1  1  0.59209100  0.94225700  0.75216300  1
  Si  Si2  1  0.40790900  0.05774300  0.24783700  1
  Si  Si3  1  0.90790900  0.94225700  0.25216300  1
  O  O0  1  0.17074100  0.18281900  0.52725300  1
  O  O1  1  0.65582300  0.26602600  0.52698800  1
  O  O2  1  0.45890200  0.06167900  0.76060300  1
  O  O3  1  0.08651000  0.37003000  0.74940900  1
  O  O4  1  0.58651000  0.62997000  0.75059100  1
  O  O5  1  0.95890200  0.93832100  0.73939700  1
  O  O6  1  0.15582300  0.73397400  0.97301200  1
  O  O7  1  0.67074100  0.81718100  0.97274700  1
  O  O8  1  0.32925900  0.18281900  0.02725300  1
  O  O9  1  0.84417700  0.26602600  0.02698800  1
  O  O10  1  0.04109800  0.06167900  0.26060300  1
  O  O11  1  0.41349000  0.37003000  0.24940900  1
  O  O12  1  0.91349000  0.62997000  0.25059100  1
  O  O13  1  0.54109800  0.93832100  0.23939700  1
  O  O14  1  0.34417700  0.73397400  0.47301200  1
  O  O15  1  0.82925900  0.81718100  0.47274700  1
loop_
_geom_bond_atom_site_label_1
_geom_bond_atom_site_label_2
_geom_bond_distance
_geom_bond_site_symmetry_2
Li0 O4 1.961878 1_555
Li0 O15 2.027877 1_555
Li0 O1 2.068437 1_555
Li0 O13 2.072055 1_555
Li1 O14 1.950409 1_555
Li1 O4 1.966541 1_555
Li1 O2 2.037899 1_555
Li1 O8 2.073647 1_556
Li2 O9 1.950409 1_556
Li2 O3 1.966541 1_655
Li2 O5 2.037899 1_555
Li2 O15 2.073647 1_555
Li3 O3 1.961878 1_555
Li3 O8 2.027877 1_556
Li3 O6 2.068437 1_555
Li3 O10 2.072055 1_556
Li4 O12 1.961878 1_555
Li4 O7 2.027877 1_554
Li4 O9 2.068437 1_555
Li4 O5 2.072055 1_554
Li5 O6 1.950409 1_554
Li5 O12 1.966541 1_455
Li5 O10 2.037899 1_555
Li5 O0 2.073647 1_555
Li6 O1 1.950409 1_555
Li6 O11 1.966541 1_555
Li6 O13 2.037899 1_555
Li6 O7 2.073647 1_554
Li7 O11 1.961878 1_555
Li7 O0 2.027877 1_555
Li7 O14 2.068437 1_555
Li7 O2 2.072055 1_555
Cr0 O5 2.027916 1_545
Cr0 O1 2.056288 1_555
Cr0 O15 2.091620 1_545
Cr0 O12 2.122318 1_555
Cr1 O2 2.027916 1_565
Cr1 O6 2.056288 1_555
Cr1 O8 2.091620 1_566
Cr1 O11 2.122318 1_556
Cr2 O13 2.027916 1_545
Cr2 O9 2.056288 1_555
Cr2 O7 2.091620 1_544
Cr2 O4 2.122318 1_554
Cr3 O10 2.027916 1_565
Cr3 O14 2.056288 1_555
Cr3 O0 2.091620 1_565
Cr3 O3 2.122318 1_555
O0 Si0 1.671064 1_555
O1 Si1 1.660620 1_545
O2 Si1 1.648468 1_545
O3 Si0 1.641349 1_555
O4 Si1 1.641349 1_555
O5 Si0 1.648468 1_665
O6 Si0 1.660620 1_565
O7 Si1 1.671064 1_555
O8 Si2 1.671064 1_555
O9 Si3 1.660620 1_545
O10 Si3 1.648468 1_445
O11 Si2 1.641349 1_555
O12 Si3 1.641349 1_555
O13 Si2 1.648468 1_565
O14 Si2 1.660620 1_565
O15 Si3 1.671064 1_555
