# generated using pymatgen
data_MnH18C4N8(ClO)4
_symmetry_space_group_name_H-M   'P 1'
_cell_length_a   11.50828500
_cell_length_b   6.41908300
_cell_length_c   11.96740149
_cell_angle_alpha   72.05971089
_cell_angle_beta   90.00000000
_cell_angle_gamma   90.00000000
_symmetry_Int_Tables_number   1
_chemical_formula_structural   MnH18C4N8(ClO)4
_chemical_formula_sum   'Mn2 H36 C8 N16 Cl8 O8'
_cell_volume   841.07860311
_cell_formula_units_Z   2
loop_
 _symmetry_equiv_pos_site_id
 _symmetry_equiv_pos_as_xyz
  1  'x, y, z'
loop_
 _atom_site_type_symbol
 _atom_site_label
 _atom_site_symmetry_multiplicity
 _atom_site_fract_x
 _atom_site_fract_y
 _atom_site_fract_z
 _atom_site_occupancy
  Mn  Mn0  1  0.00000000  0.00000000  0.50000000  1
  Mn  Mn1  1  0.50000000  0.00000000  0.00000000  1
  H  H0  1  0.78575900  0.20602100  0.50081300  1
  H  H1  1  0.71424100  0.20602100  0.00081300  1
  H  H2  1  0.21424100  0.79397900  0.49918700  1
  H  H3  1  0.28575900  0.79397900  0.99918700  1
  H  H4  1  0.88820600  0.36533300  0.50408800  1
  H  H5  1  0.61179400  0.36533300  0.00408800  1
  H  H6  1  0.11179400  0.63466700  0.49591200  1
  H  H7  1  0.38820600  0.63466700  0.99591200  1
  H  H8  1  0.71207100  0.20579400  0.79174300  1
  H  H9  1  0.78792900  0.20579400  0.29174300  1
  H  H10  1  0.28792900  0.79420600  0.20825700  1
  H  H11  1  0.21207100  0.79420600  0.70825700  1
  H  H12  1  0.82433400  0.18291400  0.69626700  1
  H  H13  1  0.67566600  0.18291400  0.19626700  1
  H  H14  1  0.17566600  0.81708600  0.30373300  1
  H  H15  1  0.32433400  0.81708600  0.80373300  1
  H  H16  1  0.00624000  0.16688000  0.74484400  1
  H  H17  1  0.49376000  0.16688000  0.24484400  1
  H  H18  1  0.99376000  0.83312000  0.25515600  1
  H  H19  1  0.50624000  0.83312000  0.75515600  1
  H  H20  1  0.26669900  0.26300200  0.86278200  1
  H  H21  1  0.23330100  0.26300200  0.36278200  1
  H  H22  1  0.73330100  0.73699800  0.13721800  1
  H  H23  1  0.76669900  0.73699800  0.63721800  1
  H  H24  1  0.19337900  0.22297500  0.74146300  1
  H  H25  1  0.30662100  0.22297500  0.24146300  1
  H  H26  1  0.80662100  0.77702500  0.25853700  1
  H  H27  1  0.69337900  0.77702500  0.75853700  1
  H  H28  1  0.15722900  0.31399000  0.01721800  1
  H  H29  1  0.34277100  0.31399000  0.51721800  1
  H  H30  1  0.84277100  0.68601000  0.98278200  1
  H  H31  1  0.65722900  0.68601000  0.48278200  1
  H  H32  1  0.00258400  0.29301500  0.01229600  1
  H  H33  1  0.49741600  0.29301500  0.51229600  1
  H  H34  1  0.99741600  0.70698500  0.98770400  1
  H  H35  1  0.50258400  0.70698500  0.48770400  1
  C  C0  1  0.87699900  0.22603600  0.85230900  1
  C  C1  1  0.62300100  0.22603600  0.35230900  1
  C  C2  1  0.12300100  0.77396400  0.14769100  1
  C  C3  1  0.37699900  0.77396400  0.64769100  1
  C  C4  1  0.08960500  0.25099200  0.87434700  1
  C  C5  1  0.41039500  0.25099200  0.37434700  1
  C  C6  1  0.91039500  0.74900800  0.12565300  1
  C  C7  1  0.58960500  0.74900800  0.62565300  1
  N  N0  1  0.79904100  0.20240000  0.77458700  1
  N  N1  1  0.70095900  0.20240000  0.27458700  1
  N  N2  1  0.20095900  0.79760000  0.22541300  1
  N  N3  1  0.29904100  0.79760000  0.72541300  1
  N  N4  1  0.99223200  0.21509500  0.81787500  1
  N  N5  1  0.50776800  0.21509500  0.31787500  1
  N  N6  1  0.00776800  0.78490500  0.18212500  1
  N  N7  1  0.49223200  0.78490500  0.68212500  1
  N  N8  1  0.19108000  0.23864800  0.82390900  1
  N  N9  1  0.30892000  0.23864800  0.32390900  1
  N  N10  1  0.80892000  0.76135200  0.17609100  1
  N  N11  1  0.69108000  0.76135200  0.67609100  1
  N  N12  1  0.08249500  0.29424800  0.97563000  1
  N  N13  1  0.41750500  0.29424800  0.47563000  1
  N  N14  1  0.91750500  0.70575200  0.02437000  1
  N  N15  1  0.58249500  0.70575200  0.52437000  1
  Cl  Cl0  1  0.00004200  0.79377300  0.70943800  1
  Cl  Cl1  1  0.49995800  0.79377300  0.20943800  1
  Cl  Cl2  1  0.99995800  0.20622700  0.29056200  1
  Cl  Cl3  1  0.50004200  0.20622700  0.79056200  1
  Cl  Cl4  1  0.13952300  0.27069400  0.54493100  1
  Cl  Cl5  1  0.36047700  0.27069400  0.04493100  1
  Cl  Cl6  1  0.86047700  0.72930600  0.45506900  1
  Cl  Cl7  1  0.63952300  0.72930600  0.95506900  1
  O  O0  1  0.86600600  0.20850400  0.53349000  1
  O  O1  1  0.63399400  0.20850400  0.03349000  1
  O  O2  1  0.13399400  0.79149600  0.46651000  1
  O  O3  1  0.36600600  0.79149600  0.96651000  1
  O  O4  1  0.85219900  0.25380400  0.94915400  1
  O  O5  1  0.64780100  0.25380400  0.44915400  1
  O  O6  1  0.14780100  0.74619600  0.05084600  1
  O  O7  1  0.35219900  0.74619600  0.55084600  1
loop_
_geom_bond_atom_site_label_1
_geom_bond_atom_site_label_2
_geom_bond_distance
_geom_bond_site_symmetry_2
Mn0 O0 2.158775 1_455
Mn0 O2 2.158775 1_545
Mn1 O1 2.158775 1_555
Mn1 O3 2.158775 1_544
H0 O0 1.004929 1_555
H0 O5 1.697093 1_555
H1 O1 1.004929 1_555
H1 O4 1.697093 1_554
H2 O2 1.004929 1_555
H2 O7 1.697093 1_555
H3 O3 1.004929 1_555
H3 O6 1.697093 1_556
H4 O0 0.992121 1_555
H5 O1 0.992121 1_555
H6 O2 0.992121 1_555
H7 O3 0.992121 1_555
H8 N0 1.023296 1_555
H9 N1 1.023296 1_555
H10 N2 1.023296 1_555
H11 N3 1.023296 1_555
H12 N0 1.025234 1_555
H13 N1 1.025234 1_555
H14 N2 1.025234 1_555
H15 N3 1.025234 1_555
H16 N4 1.025805 1_455
H17 N5 1.025805 1_555
H18 N6 1.025805 1_655
H19 N7 1.025805 1_555
H20 N8 1.021268 1_555
H21 N9 1.021268 1_555
H22 N10 1.021268 1_555
H23 N11 1.021268 1_555
H24 N8 1.022487 1_555
H25 N9 1.022487 1_555
H26 N10 1.022487 1_555
H27 N11 1.022487 1_555
H28 N12 1.020943 1_554
H29 N13 1.020943 1_555
H30 N14 1.020943 1_556
H31 N15 1.020943 1_555
H32 N12 1.017939 1_554
H33 N13 1.017939 1_555
H34 N14 1.017939 1_556
H35 N15 1.017939 1_555
C0 O4 1.258465 1_555
C0 N0 1.334167 1_555
C0 N4 1.396857 1_555
C1 O5 1.258465 1_555
C1 N1 1.334167 1_555
C1 N5 1.396857 1_555
C2 O6 1.258465 1_555
C2 N2 1.334167 1_555
C2 N6 1.396857 1_555
C3 O7 1.258465 1_555
C3 N3 1.334167 1_555
C3 N7 1.396857 1_555
C4 N12 1.326763 1_555
C4 N8 1.328102 1_555
C4 N4 1.364370 1_455
C5 N13 1.326763 1_555
C5 N9 1.328102 1_555
C5 N5 1.364370 1_555
C6 N14 1.326763 1_555
C6 N10 1.328102 1_555
C6 N6 1.364370 1_655
C7 N15 1.326763 1_555
C7 N11 1.328102 1_555
C7 N7 1.364370 1_555
Cl0 Mn0 2.447561 1_565
Cl1 Mn1 2.447561 1_565
Cl2 Mn0 2.447561 1_655
Cl3 Mn1 2.447561 1_556
Cl4 Mn0 2.542081 1_555
Cl5 Mn1 2.542081 1_555
Cl6 Mn0 2.542081 1_665
Cl7 Mn1 2.542081 1_566
