# generated using pymatgen
data_LiFeF3
_symmetry_space_group_name_H-M   'P 1'
_cell_length_a   5.80141300
_cell_length_b   5.81477765
_cell_length_c   23.26951837
_cell_angle_alpha   89.96246625
_cell_angle_beta   89.95894415
_cell_angle_gamma   60.45980752
_symmetry_Int_Tables_number   1
_chemical_formula_structural   LiFeF3
_chemical_formula_sum   'Li12 Fe12 F36'
_cell_volume   682.93351001
_cell_formula_units_Z   12
loop_
 _symmetry_equiv_pos_site_id
 _symmetry_equiv_pos_as_xyz
  1  'x, y, z'
loop_
 _atom_site_type_symbol
 _atom_site_label
 _atom_site_symmetry_multiplicity
 _atom_site_fract_x
 _atom_site_fract_y
 _atom_site_fract_z
 _atom_site_occupancy
  Li  Li0  1  0.32422100  0.67892600  0.37652400  1
  Li  Li1  1  0.67703500  0.00467400  0.37627700  1
  Li  Li2  1  0.66310300  0.99598000  0.87320700  1
  Li  Li3  1  0.99642300  0.67529300  0.62353100  1
  Li  Li4  1  0.00435400  0.66576500  0.12725600  1
  Li  Li5  1  0.66569300  0.33792800  0.12740600  1
  Li  Li6  1  0.33430700  0.66207200  0.87259400  1
  Li  Li7  1  0.99564600  0.33423500  0.87274400  1
  Li  Li8  1  0.00357700  0.32470700  0.37646900  1
  Li  Li9  1  0.33689700  0.00402000  0.12679300  1
  Li  Li10  1  0.32296500  0.99532600  0.62372300  1
  Li  Li11  1  0.67577900  0.32107400  0.62347600  1
  Fe  Fe0  1  0.66682000  0.66471300  0.01467100  1
  Fe  Fe1  1  0.66503500  0.66161200  0.76212200  1
  Fe  Fe2  1  0.00332600  0.00406400  0.23955000  1
  Fe  Fe3  1  0.66825500  0.67328200  0.26777600  1
  Fe  Fe4  1  0.66680300  0.66636200  0.51590800  1
  Fe  Fe5  1  0.33319700  0.33363800  0.48409200  1
  Fe  Fe6  1  0.33174500  0.32671800  0.73222400  1
  Fe  Fe7  1  0.99667400  0.99593600  0.76045000  1
  Fe  Fe8  1  0.33496500  0.33838800  0.23787800  1
  Fe  Fe9  1  0.33318000  0.33528700  0.98532900  1
  Fe  Fe10  1  0.00000000  0.00000000  0.00000000  1
  Fe  Fe11  1  0.00000000  0.00000000  0.50000000  1
  F  F0  1  0.37992600  0.95390600  0.21150700  1
  F  F1  1  0.29650000  0.05021600  0.03887600  1
  F  F2  1  0.35474300  0.69462100  0.96039500  1
  F  F3  1  0.32436200  0.62250800  0.78828400  1
  F  F4  1  0.68511100  0.95824300  0.46261000  1
  F  F5  1  0.66427400  0.05421900  0.28774200  1
  F  F6  1  0.67231600  0.66570600  0.35606800  1
  F  F7  1  0.66805800  0.66250900  0.60712500  1
  F  F8  1  0.99730700  0.99877200  0.61578700  1
  F  F9  1  0.99752400  0.99791400  0.86272600  1
  F  F10  1  0.66689500  0.66535200  0.85604000  1
  F  F11  1  0.66814400  0.67427200  0.10369300  1
  F  F12  1  0.70341600  0.33993900  0.71141400  1
  F  F13  1  0.95522600  0.67999400  0.21207500  1
  F  F14  1  0.63759000  0.31253100  0.53776200  1
  F  F15  1  0.05647700  0.64362500  0.03930000  1
  F  F16  1  0.95504200  0.70570400  0.71204500  1
  F  F17  1  0.04599700  0.64249700  0.53744900  1
  F  F18  1  0.95400300  0.35750300  0.46255100  1
  F  F19  1  0.04495800  0.29429600  0.28795500  1
  F  F20  1  0.94352300  0.35637500  0.96070000  1
  F  F21  1  0.36241000  0.68746900  0.46223800  1
  F  F22  1  0.04477400  0.32000600  0.78792500  1
  F  F23  1  0.29658400  0.66006100  0.28858600  1
  F  F24  1  0.33185600  0.32572800  0.89630700  1
  F  F25  1  0.33310500  0.33464800  0.14396000  1
  F  F26  1  0.00247600  0.00208600  0.13727400  1
  F  F27  1  0.00269300  0.00122800  0.38421300  1
  F  F28  1  0.33194200  0.33749100  0.39287500  1
  F  F29  1  0.32768400  0.33429400  0.64393200  1
  F  F30  1  0.33572600  0.94578100  0.71225800  1
  F  F31  1  0.31488900  0.04175700  0.53739000  1
  F  F32  1  0.67563800  0.37749200  0.21171600  1
  F  F33  1  0.64525700  0.30537900  0.03960500  1
  F  F34  1  0.70350000  0.94978400  0.96112400  1
  F  F35  1  0.62007400  0.04609400  0.78849300  1
loop_
_geom_bond_atom_site_label_1
_geom_bond_atom_site_label_2
_geom_bond_distance
_geom_bond_site_symmetry_2
F0 Li9 1.990300 1_565
F0 Fe3 2.117529 1_555
F0 Fe2 2.157349 1_565
F0 Fe8 2.206669 1_565
F1 Li9 2.061604 1_555
F1 Fe10 2.088124 1_555
F1 Fe9 2.165706 1_554
F1 Fe0 2.282276 1_545
F2 Li6 2.060840 1_555
F2 Fe0 2.143767 1_556
F2 Fe10 2.152624 1_566
F2 Fe9 2.230274 1_555
F3 Li6 1.979637 1_555
F3 Fe6 2.142891 1_555
F3 Fe7 2.162860 1_455
F3 Fe1 2.183949 1_555
F4 Li1 2.024309 1_565
F4 Fe11 2.143146 1_665
F4 Fe4 2.145879 1_555
F4 Fe5 2.188232 1_565
F5 Li1 2.076337 1_555
F5 Fe8 2.148109 1_555
F5 Fe2 2.154814 1_655
F5 Fe3 2.252506 1_545
F6 Li8 2.023073 1_655
F6 Li0 2.038684 1_555
F6 Li1 2.039917 1_565
F6 Fe3 2.054859 1_555
F7 Li3 1.980135 1_555
F7 Li11 1.999951 1_555
F7 Li10 2.020375 1_555
F7 Fe4 2.122659 1_555
F8 Li10 1.888660 1_655
F8 Li11 1.891183 1_565
F8 Li3 1.891975 1_555
F9 Li2 1.960736 1_555
F9 Li7 1.964317 1_565
F9 Li6 1.980264 1_655
F9 Fe7 2.379969 1_555
F10 Li2 1.953321 1_555
F10 Li7 1.968442 1_555
F10 Li6 1.976576 1_555
F10 Fe1 2.185636 1_555
F11 Li4 2.003462 1_655
F11 Li9 2.006202 1_565
F11 Li5 2.038551 1_555
F11 Fe0 2.072402 1_555
F12 Li11 2.059876 1_555
F12 Fe1 2.128921 1_555
F12 Fe7 2.200390 1_545
F12 Fe6 2.247572 1_555
F13 Li4 1.989903 1_655
F13 Fe3 2.124638 1_555
F13 Fe2 2.134924 1_665
F13 Fe8 2.201080 1_655
F14 Li11 2.010296 1_555
F14 Fe5 2.117176 1_555
F14 Fe11 2.174163 1_655
F14 Fe4 2.205166 1_555
F15 Li4 2.063502 1_555
F15 Fe9 2.128548 1_554
F15 Fe10 2.136885 1_565
F15 Fe0 2.276413 1_455
F16 Li3 2.071011 1_555
F16 Fe7 2.140079 1_555
F16 Fe1 2.162491 1_555
F16 Fe6 2.259217 1_655
F17 Li3 2.019166 1_455
F17 Fe5 2.142985 1_555
F17 Fe11 2.145450 1_565
F17 Fe4 2.193254 1_455
F18 Li8 2.019166 1_655
F18 Fe4 2.142985 1_555
F18 Fe11 2.145450 1_655
F18 Fe5 2.193254 1_655
F19 Li8 2.071011 1_555
F19 Fe2 2.140079 1_555
F19 Fe8 2.162491 1_555
F19 Fe3 2.259217 1_455
F20 Li7 2.063502 1_555
F20 Fe0 2.128548 1_556
F20 Fe10 2.136885 1_656
F20 Fe9 2.276413 1_655
F21 Li0 2.010296 1_555
F21 Fe4 2.117176 1_555
F21 Fe11 2.174163 1_565
F21 Fe5 2.205166 1_555
F22 Li7 1.989903 1_455
F22 Fe6 2.124638 1_555
F22 Fe7 2.134924 1_445
F22 Fe1 2.201080 1_455
F23 Li0 2.059876 1_555
F23 Fe8 2.128921 1_555
F23 Fe2 2.200390 1_565
F23 Fe3 2.247572 1_555
F24 Li7 2.003462 1_455
F24 Li2 2.006202 1_545
F24 Li6 2.038551 1_555
F24 Fe9 2.072402 1_555
F25 Li9 1.953321 1_555
F25 Li4 1.968442 1_555
F25 Li5 1.976576 1_555
F25 Fe8 2.185636 1_555
F26 Li9 1.960736 1_555
F26 Li4 1.964317 1_545
F26 Li5 1.980264 1_455
F26 Fe2 2.379969 1_555
F27 Li1 1.888660 1_455
F27 Li0 1.891183 1_545
F27 Li8 1.891975 1_555
F28 Li8 1.980135 1_555
F28 Li0 1.999951 1_555
F28 Li1 2.020375 1_555
F28 Fe5 2.122659 1_555
F29 Li3 2.023073 1_455
F29 Li11 2.038684 1_555
F29 Li10 2.039917 1_545
F29 Fe6 2.054859 1_555
F30 Li10 2.076337 1_555
F30 Fe1 2.148109 1_555
F30 Fe7 2.154814 1_455
F30 Fe6 2.252506 1_565
F31 Li10 2.024309 1_545
F31 Fe11 2.143146 1_555
F31 Fe5 2.145879 1_555
F31 Fe4 2.188232 1_545
F32 Li5 1.979637 1_555
F32 Fe3 2.142891 1_555
F32 Fe2 2.162860 1_655
F32 Fe8 2.183949 1_555
F33 Li5 2.060840 1_555
F33 Fe9 2.143767 1_554
F33 Fe10 2.152624 1_655
F33 Fe0 2.230274 1_555
F34 Li2 2.061604 1_555
F34 Fe10 2.088124 1_666
F34 Fe0 2.165706 1_556
F34 Fe9 2.282276 1_565
F35 Li2 1.990300 1_545
F35 Fe6 2.117529 1_555
F35 Fe7 2.157349 1_545
F35 Fe1 2.206669 1_545
