# generated using pymatgen
data_Li4Ti2V3Fe3O16
_symmetry_space_group_name_H-M   'P 1'
_cell_length_a   5.93147354
_cell_length_b   5.95100129
_cell_length_c   9.60162427
_cell_angle_alpha   90.05550604
_cell_angle_beta   89.24374764
_cell_angle_gamma   120.08984965
_symmetry_Int_Tables_number   1
_chemical_formula_structural   Li4Ti2V3Fe3O16
_chemical_formula_sum   'Li4 Ti2 V3 Fe3 O16'
_cell_volume   293.21553531
_cell_formula_units_Z   1
loop_
 _symmetry_equiv_pos_site_id
 _symmetry_equiv_pos_as_xyz
  1  'x, y, z'
loop_
 _atom_site_type_symbol
 _atom_site_label
 _atom_site_symmetry_multiplicity
 _atom_site_fract_x
 _atom_site_fract_y
 _atom_site_fract_z
 _atom_site_occupancy
  Li  Li0  1  0.33347200  0.66777700  0.89810600  1
  Li  Li1  1  0.99603000  0.99769000  0.99555000  1
  Li  Li2  1  0.99671300  0.99843300  0.49133400  1
  Li  Li3  1  0.66922400  0.33444600  0.39743600  1
  Ti  Ti0  1  0.32274000  0.66081400  0.48232300  1
  Ti  Ti1  1  0.67982400  0.33896700  0.00053400  1
  V  V0  1  0.81982900  0.65743200  0.71588300  1
  V  V1  1  0.65697300  0.82843000  0.21885300  1
  V  V2  1  0.82322100  0.16655800  0.71685800  1
  Fe  Fe0  1  0.17569900  0.83315300  0.21355500  1
  Fe  Fe1  1  0.17596700  0.34215300  0.21352300  1
  Fe  Fe2  1  0.33485400  0.16548000  0.70855100  1
  O  O0  1  0.14990500  0.82158300  0.60003300  1
  O  O1  1  0.04143000  0.52059500  0.34763900  1
  O  O2  1  0.34077400  0.67030600  0.10458000  1
  O  O3  1  0.00060300  0.00019400  0.30397900  1
  O  O4  1  0.99546900  0.99834100  0.80824300  1
  O  O5  1  0.15270200  0.32794600  0.59935600  1
  O  O6  1  0.48045300  0.95961800  0.35131100  1
  O  O7  1  0.48133300  0.52096500  0.35123400  1
  O  O8  1  0.34122900  0.17068700  0.08857800  1
  O  O9  1  0.66760600  0.83519700  0.60205500  1
  O  O10  1  0.53295100  0.49298500  0.83398700  1
  O  O11  1  0.53239100  0.04327400  0.83591900  1
  O  O12  1  0.67572600  0.33675200  0.60268100  1
  O  O13  1  0.83119900  0.65944300  0.09332000  1
  O  O14  1  0.96066800  0.47950100  0.83832200  1
  O  O15  1  0.83101400  0.17158000  0.09409400  1
loop_
_geom_bond_atom_site_label_1
_geom_bond_atom_site_label_2
_geom_bond_distance
_geom_bond_site_symmetry_2
Li0 O2 1.983408 1_556
Li0 O14 2.005634 1_455
Li0 O10 2.018566 1_555
Li0 O11 2.020468 1_565
Li1 O4 1.798510 1_555
Li1 O13 1.973581 1_556
Li1 O15 1.978235 1_566
Li1 O8 1.995735 1_666
Li2 O3 1.798729 1_665
Li2 O9 1.982490 1_555
Li2 O5 1.994796 1_665
Li2 O0 2.002152 1_655
Li3 O1 1.962320 1_655
Li3 O12 1.971471 1_555
Li3 O7 1.981232 1_555
Li3 O6 1.982988 1_545
Fe0 O3 1.957125 1_565
Fe0 O2 1.978672 1_555
Fe0 O1 2.060013 1_555
Fe0 O6 2.068942 1_555
Fe0 O8 2.105880 1_565
Fe0 O13 2.125728 1_455
Fe1 O3 1.958212 1_555
Fe1 O2 1.981451 1_555
Fe1 O1 2.059767 1_555
Fe1 O7 2.071049 1_555
Fe1 O8 2.100202 1_555
Fe1 O15 2.123414 1_455
Fe2 O4 1.975149 1_445
Fe2 O12 2.010355 1_555
Fe2 O0 2.062101 1_545
Fe2 O5 2.068972 1_555
Fe2 O11 2.071542 1_555
Fe2 O10 2.089558 1_555
O0 V0 2.012857 1_455
O0 Ti0 2.048042 1_555
O1 Ti0 1.952317 1_555
O2 V1 1.972207 1_555
O3 V1 1.954626 1_445
O4 V2 1.966413 1_565
O4 V0 1.972108 1_555
O5 V2 2.019017 1_455
O5 Ti0 2.043278 1_555
O6 Ti0 1.981096 1_555
O6 V1 2.026280 1_555
O7 Ti0 1.978254 1_555
O7 V1 2.026582 1_555
O8 Ti1 1.921241 1_555
O9 V0 2.028523 1_555
O9 V2 2.037916 1_565
O9 Ti0 2.124642 1_555
O10 V0 1.849478 1_555
O10 Ti1 2.235282 1_556
O11 V2 1.871215 1_555
O11 Ti1 2.201700 1_556
O12 V2 1.977118 1_555
O12 V0 1.984632 1_555
O13 Ti1 1.880930 1_555
O13 V1 2.130470 1_555
O14 V2 1.997882 1_555
O14 V0 2.028899 1_555
O14 Ti1 2.106485 1_556
O15 Ti1 1.876749 1_555
O15 V1 2.128151 1_545
