# generated using pymatgen
data_LaUO4
_symmetry_space_group_name_H-M   'P 1'
_cell_length_a   3.84745800
_cell_length_b   3.84745800
_cell_length_c   5.63290400
_cell_angle_alpha   90.00000000
_cell_angle_beta   90.00000000
_cell_angle_gamma   90.00000000
_symmetry_Int_Tables_number   1
_chemical_formula_structural   LaUO4
_chemical_formula_sum   'La1 U1 O4'
_cell_volume   83.38350086
_cell_formula_units_Z   1
loop_
 _symmetry_equiv_pos_site_id
 _symmetry_equiv_pos_as_xyz
  1  'x, y, z'
loop_
 _atom_site_type_symbol
 _atom_site_label
 _atom_site_symmetry_multiplicity
 _atom_site_fract_x
 _atom_site_fract_y
 _atom_site_fract_z
 _atom_site_occupancy
  La  La0  1  0.50000000  0.50000000  0.50000000  1
  U  U0  1  0.00000000  0.00000000  0.00000000  1
  O  O0  1  0.00000000  0.50000000  0.22552600  1
  O  O1  1  0.50000000  0.00000000  0.22552600  1
  O  O2  1  0.00000000  0.50000000  0.77447400  1
  O  O3  1  0.50000000  0.00000000  0.77447400  1
loop_
_geom_bond_atom_site_label_1
_geom_bond_atom_site_label_2
_geom_bond_distance
_geom_bond_site_symmetry_2
La0 O3 2.468018 1_565
La0 O0 2.468018 1_555
La0 O2 2.468018 1_555
La0 O1 2.468018 1_565
La0 O2 2.468018 1_655
La0 O3 2.468018 1_555
La0 O1 2.468018 1_555
La0 O0 2.468018 1_655
O0 U0 2.305334 1_565
O0 U0 2.305334 1_555
O1 U0 2.305334 1_655
O1 U0 2.305334 1_555
O2 U0 2.305334 1_566
O2 U0 2.305334 1_556
O3 U0 2.305334 1_656
O3 U0 2.305334 1_556
