# generated using pymatgen
data_Fe2OF3
_symmetry_space_group_name_H-M   'P 1'
_cell_length_a   5.77720242
_cell_length_b   5.77720242
_cell_length_c   7.63269796
_cell_angle_alpha   70.27819572
_cell_angle_beta   70.27819572
_cell_angle_gamma   72.13089523
_symmetry_Int_Tables_number   1
_chemical_formula_structural   Fe2OF3
_chemical_formula_sum   'Fe6 O3 F9'
_cell_volume   220.32231694
_cell_formula_units_Z   3
loop_
 _symmetry_equiv_pos_site_id
 _symmetry_equiv_pos_as_xyz
  1  'x, y, z'
loop_
 _atom_site_type_symbol
 _atom_site_label
 _atom_site_symmetry_multiplicity
 _atom_site_fract_x
 _atom_site_fract_y
 _atom_site_fract_z
 _atom_site_occupancy
  Fe  Fe0  1  0.66818200  0.66521700  0.83269200  1
  Fe  Fe1  1  0.64582100  0.68998000  0.33300000  1
  Fe  Fe2  1  0.31002000  0.35417900  0.66700000  1
  Fe  Fe3  1  0.33478300  0.33181800  0.16730800  1
  Fe  Fe4  1  0.02141500  0.97858500  0.50000000  1
  Fe  Fe5  1  0.03170700  0.96829300  0.00000000  1
  O  O0  1  0.00716000  0.65271500  0.67010100  1
  O  O1  1  0.34728500  0.99284000  0.32989900  1
  O  O2  1  0.33298000  0.66702000  0.00000000  1
  F  F0  1  0.62938400  0.03534900  0.66623300  1
  F  F1  1  0.96465100  0.37061600  0.33376700  1
  F  F2  1  0.23763200  0.23131500  0.96923700  1
  F  F3  1  0.89648800  0.91085800  0.30320100  1
  F  F4  1  0.57022100  0.56603000  0.63591500  1
  F  F5  1  0.76868500  0.76236800  0.03076300  1
  F  F6  1  0.08914200  0.10351200  0.69679900  1
  F  F7  1  0.43397000  0.42977900  0.36408500  1
  F  F8  1  0.71047200  0.28952800  0.00000000  1
loop_
_geom_bond_atom_site_label_1
_geom_bond_atom_site_label_2
_geom_bond_distance
_geom_bond_site_symmetry_2
Fe0 O2 1.925769 1_556
Fe0 O0 1.927143 1_655
Fe1 O1 2.045542 1_555
Fe2 O0 2.045542 1_555
Fe3 O2 1.925769 1_555
Fe3 O1 1.927143 1_545
Fe4 O0 1.900007 1_555
Fe4 O1 1.900007 1_555
Fe5 O2 2.049314 1_555
F0 Fe0 2.073983 1_545
F0 Fe2 2.170562 1_555
F0 Fe4 2.175431 1_645
F1 Fe3 2.073983 1_655
F1 Fe1 2.170562 1_555
F1 Fe4 2.175431 1_645
F2 Fe3 2.074326 1_556
F2 Fe2 2.103893 1_555
F2 Fe5 2.111748 1_546
F3 Fe4 2.057172 1_655
F3 Fe1 2.119686 1_555
F3 Fe5 2.120554 1_655
F4 Fe0 2.063496 1_555
F4 Fe1 2.107643 1_555
F4 Fe2 2.122811 1_555
F5 Fe0 2.074326 1_554
F5 Fe1 2.103893 1_555
F5 Fe5 2.111748 1_655
F6 Fe4 2.057172 1_545
F6 Fe2 2.119686 1_555
F6 Fe5 2.120554 1_546
F7 Fe3 2.063496 1_555
F7 Fe2 2.107643 1_555
F7 Fe1 2.122811 1_555
F8 Fe0 2.101369 1_554
F8 Fe3 2.101369 1_555
F8 Fe5 2.185099 1_645
