# generated using pymatgen
data_LiFeO3
_symmetry_space_group_name_H-M   'P 1'
_cell_length_a   6.61594526
_cell_length_b   6.61594526
_cell_length_c   5.99167024
_cell_angle_alpha   76.76104320
_cell_angle_beta   76.76104320
_cell_angle_gamma   25.13909724
_symmetry_Int_Tables_number   1
_chemical_formula_structural   LiFeO3
_chemical_formula_sum   'Li2 Fe2 O6'
_cell_volume   108.30220626
_cell_formula_units_Z   2
loop_
 _symmetry_equiv_pos_site_id
 _symmetry_equiv_pos_as_xyz
  1  'x, y, z'
loop_
 _atom_site_type_symbol
 _atom_site_label
 _atom_site_symmetry_multiplicity
 _atom_site_fract_x
 _atom_site_fract_y
 _atom_site_fract_z
 _atom_site_occupancy
  Li  Li0  1  0.50000000  0.50000000  0.50000000  1
  Li  Li1  1  0.50000000  0.50000000  0.00000000  1
  Fe  Fe0  1  0.16489200  0.16489200  0.67819400  1
  Fe  Fe1  1  0.83510800  0.83510800  0.32180600  1
  O  O0  1  0.97470300  0.97470300  0.26378700  1
  O  O1  1  0.32466900  0.32466900  0.54672700  1
  O  O2  1  0.02529700  0.02529700  0.73621300  1
  O  O3  1  0.32882800  0.32882800  0.12698300  1
  O  O4  1  0.67533100  0.67533100  0.45327300  1
  O  O5  1  0.67117200  0.67117200  0.87301700  1
loop_
_geom_bond_atom_site_label_1
_geom_bond_atom_site_label_2
_geom_bond_distance
_geom_bond_site_symmetry_2
Li0 O2 2.097576 1_655
Li0 O0 2.097576 1_455
Li0 O2 2.097576 1_565
Li0 O0 2.097576 1_545
Li0 O4 2.215445 1_555
Li0 O1 2.215445 1_555
Li1 O0 2.106058 1_455
Li1 O2 2.106058 1_564
Li1 O2 2.106058 1_654
Li1 O0 2.106058 1_545
Li1 O5 2.162530 1_554
Li1 O3 2.162530 1_555
Fe0 O2 1.754126 1_555
Fe0 O5 1.867253 1_545
Fe0 O5 1.867253 1_455
Fe0 O4 1.955015 1_545
Fe0 O4 1.955015 1_455
Fe0 O1 2.028712 1_555
Fe1 O0 1.754126 1_555
Fe1 O3 1.867253 1_655
Fe1 O3 1.867253 1_565
Fe1 O1 1.955015 1_655
Fe1 O1 1.955015 1_565
Fe1 O4 2.028712 1_555
