# generated using pymatgen
data_Li2Ti2Mn3O10
_symmetry_space_group_name_H-M   'P 1'
_cell_length_a   5.04717500
_cell_length_b   5.16560019
_cell_length_c   7.71622930
_cell_angle_alpha   75.46590387
_cell_angle_beta   75.80920670
_cell_angle_gamma   81.24603390
_symmetry_Int_Tables_number   1
_chemical_formula_structural   Li2Ti2Mn3O10
_chemical_formula_sum   'Li2 Ti2 Mn3 O10'
_cell_volume   187.91154000
_cell_formula_units_Z   1
loop_
 _symmetry_equiv_pos_site_id
 _symmetry_equiv_pos_as_xyz
  1  'x, y, z'
loop_
 _atom_site_type_symbol
 _atom_site_label
 _atom_site_symmetry_multiplicity
 _atom_site_fract_x
 _atom_site_fract_y
 _atom_site_fract_z
 _atom_site_occupancy
  Li  Li0  1  0.51187200  0.76018000  0.40713600  1
  Li  Li1  1  0.48812800  0.23982000  0.59286400  1
  Ti  Ti0  1  0.01391100  0.87026400  0.68144200  1
  Ti  Ti1  1  0.98608900  0.12973600  0.31855800  1
  Mn  Mn0  1  0.50000000  0.00000000  0.00000000  1
  Mn  Mn1  1  0.98707200  0.30983800  0.89268300  1
  Mn  Mn2  1  0.01292800  0.69016200  0.10731700  1
  O  O0  1  0.22012300  0.97714600  0.86059700  1
  O  O1  1  0.79413100  0.65345000  0.93747900  1
  O  O2  1  0.77005600  0.91408900  0.52189700  1
  O  O3  1  0.26114200  0.81331500  0.21534900  1
  O  O4  1  0.20300200  0.54306300  0.66917500  1
  O  O5  1  0.79699800  0.45693700  0.33082500  1
  O  O6  1  0.73885800  0.18668500  0.78465100  1
  O  O7  1  0.22994400  0.08591100  0.47810300  1
  O  O8  1  0.20586900  0.34655000  0.06252100  1
  O  O9  1  0.77987700  0.02285400  0.13940300  1
loop_
_geom_bond_atom_site_label_1
_geom_bond_atom_site_label_2
_geom_bond_distance
_geom_bond_site_symmetry_2
Li0 O5 2.057356 1_555
Li0 O2 2.085370 1_555
Li0 O3 2.115517 1_555
Li0 O7 2.123063 1_565
Li0 O4 2.371689 1_555
Li0 O9 2.391715 1_565
Li1 O4 2.057356 1_555
Li1 O7 2.085370 1_555
Li1 O6 2.115517 1_555
Li1 O2 2.123063 1_545
Li1 O5 2.371689 1_555
Li1 O0 2.391715 1_545
Mn0 O3 1.926628 1_545
Mn0 O6 1.926628 1_554
Mn0 O9 2.006464 1_555
Mn0 O0 2.006464 1_544
Mn0 O1 2.216883 1_544
Mn0 O8 2.216883 1_555
Mn1 O6 1.920891 1_555
Mn1 O1 1.958328 1_555
Mn1 O0 1.963100 1_645
Mn1 O8 1.967471 1_656
Mn1 O4 2.012157 1_655
Mn1 O9 2.234894 1_556
Mn2 O3 1.920891 1_555
Mn2 O8 1.958328 1_555
Mn2 O9 1.963100 1_465
Mn2 O1 1.967471 1_454
Mn2 O5 2.012157 1_455
Mn2 O0 2.234894 1_554
O0 Ti0 2.136007 1_555
O1 Ti0 2.140340 1_655
O2 Ti1 1.882873 1_565
O2 Ti0 1.897328 1_655
O3 Ti1 2.157230 1_465
O4 Ti0 1.822511 1_555
O5 Ti1 1.822511 1_555
O6 Ti0 2.157230 1_645
O7 Ti0 1.882873 1_545
O7 Ti1 1.897328 1_455
O8 Ti1 2.140340 1_455
O9 Ti1 2.136007 1_555
