# generated using pymatgen
data_Li3Co(OF)2
_symmetry_space_group_name_H-M   'P 1'
_cell_length_a   5.88411000
_cell_length_b   5.03280100
_cell_length_c   5.03639183
_cell_angle_alpha   71.91341910
_cell_angle_beta   90.00000000
_cell_angle_gamma   90.00000000
_symmetry_Int_Tables_number   1
_chemical_formula_structural   Li3Co(OF)2
_chemical_formula_sum   'Li6 Co2 O4 F4'
_cell_volume   141.77595918
_cell_formula_units_Z   2
loop_
 _symmetry_equiv_pos_site_id
 _symmetry_equiv_pos_as_xyz
  1  'x, y, z'
loop_
 _atom_site_type_symbol
 _atom_site_label
 _atom_site_symmetry_multiplicity
 _atom_site_fract_x
 _atom_site_fract_y
 _atom_site_fract_z
 _atom_site_occupancy
  Li  Li0  1  0.11913800  0.25000000  0.50000000  1
  Li  Li1  1  0.63785800  0.25000000  0.50000000  1
  Li  Li2  1  0.37166100  0.25000000  0.00000000  1
  Li  Li3  1  0.36214200  0.75000000  0.50000000  1
  Li  Li4  1  0.88086200  0.75000000  0.50000000  1
  Li  Li5  1  0.62833900  0.75000000  0.00000000  1
  Co  Co0  1  0.89956800  0.25000000  0.00000000  1
  Co  Co1  1  0.10043200  0.75000000  0.00000000  1
  O  O0  1  0.88942400  0.01217200  0.77005400  1
  O  O1  1  0.88942400  0.48782800  0.22994600  1
  O  O2  1  0.11057600  0.51217200  0.77005400  1
  O  O3  1  0.11057600  0.98782800  0.22994600  1
  F  F0  1  0.62053700  0.00268500  0.24926200  1
  F  F1  1  0.37946300  0.50268500  0.24926200  1
  F  F2  1  0.62053700  0.49731500  0.75073800  1
  F  F3  1  0.37946300  0.99731500  0.75073800  1
loop_
_geom_bond_atom_site_label_1
_geom_bond_atom_site_label_2
_geom_bond_distance
_geom_bond_site_symmetry_2
Li0 O0 2.024528 1_455
Li0 O1 2.024528 1_455
Li0 O2 2.169713 1_555
Li0 O3 2.169713 1_545
Li1 O0 2.112543 1_555
Li1 O1 2.112543 1_555
Li2 O2 2.119776 1_554
Li2 O3 2.119776 1_545
Li3 O2 2.112543 1_555
Li3 O3 2.112543 1_555
Li4 O2 2.024528 1_655
Li4 O3 2.024528 1_655
Li4 O0 2.169713 1_565
Li4 O1 2.169713 1_555
Li5 O0 2.119776 1_564
Li5 O1 2.119776 1_555
Co0 O1 1.907383 1_555
Co0 O0 1.907383 1_554
Co0 O2 1.917012 1_654
Co0 O3 1.917012 1_645
Co0 F0 2.202429 1_555
Co0 F2 2.202429 1_554
Co1 O3 1.907383 1_555
Co1 O2 1.907383 1_554
Co1 O0 1.917012 1_464
Co1 O1 1.917012 1_455
Co1 F1 2.202429 1_555
Co1 F3 2.202429 1_554
F0 Li1 2.032310 1_555
F0 Li5 2.046122 1_545
F0 Li2 2.073531 1_555
F0 Li3 2.127559 1_545
F0 Li4 2.135689 1_545
F1 Li3 2.032310 1_555
F1 Li2 2.046122 1_555
F1 Li5 2.073531 1_555
F1 Li1 2.127559 1_555
F1 Li0 2.135689 1_555
F2 Li1 2.032310 1_555
F2 Li5 2.046122 1_556
F2 Li2 2.073531 1_556
F2 Li3 2.127559 1_555
F2 Li4 2.135689 1_555
F3 Li3 2.032310 1_555
F3 Li2 2.046122 1_566
F3 Li5 2.073531 1_556
F3 Li1 2.127559 1_565
F3 Li0 2.135689 1_565
