# generated using pymatgen
data_Li3V7O12
_symmetry_space_group_name_H-M   'P 1'
_cell_length_a   5.22644479
_cell_length_b   5.22644479
_cell_length_c   9.91032517
_cell_angle_alpha   84.48436373
_cell_angle_beta   84.48436373
_cell_angle_gamma   120.28009929
_symmetry_Int_Tables_number   1
_chemical_formula_structural   Li3V7O12
_chemical_formula_sum   'Li3 V7 O12'
_cell_volume   229.37757473
_cell_formula_units_Z   1
loop_
 _symmetry_equiv_pos_site_id
 _symmetry_equiv_pos_as_xyz
  1  'x, y, z'
loop_
 _atom_site_type_symbol
 _atom_site_label
 _atom_site_symmetry_multiplicity
 _atom_site_fract_x
 _atom_site_fract_y
 _atom_site_fract_z
 _atom_site_occupancy
  Li  Li0  1  0.84356100  0.67606300  0.76262000  1
  Li  Li1  1  0.32393700  0.15643900  0.23738000  1
  Li  Li2  1  0.07980600  0.92019400  0.00000000  1
  V  V0  1  0.91533200  0.08466800  0.50000000  1
  V  V1  1  0.00073500  0.51855900  0.23754500  1
  V  V2  1  0.76270100  0.23729900  0.00000000  1
  V  V3  1  0.48144100  0.99926500  0.76245500  1
  V  V4  1  0.57546500  0.42453500  0.50000000  1
  V  V5  1  0.42592900  0.57407100  0.00000000  1
  V  V6  1  0.24863800  0.75136200  0.50000000  1
  O  O0  1  0.85222100  0.37007700  0.61252200  1
  O  O1  1  0.96620000  0.78807400  0.38610500  1
  O  O2  1  0.62992300  0.14777900  0.38747800  1
  O  O3  1  0.71172100  0.50523900  0.11787400  1
  O  O4  1  0.49476100  0.28827900  0.88212600  1
  O  O5  1  0.76182100  0.94486800  0.88336300  1
  O  O6  1  0.55022900  0.73297300  0.61369900  1
  O  O7  1  0.21192600  0.03380000  0.61389500  1
  O  O8  1  0.35764600  0.84667900  0.12170900  1
  O  O9  1  0.26702700  0.44977100  0.38630100  1
  O  O10  1  0.05513200  0.23817900  0.11663700  1
  O  O11  1  0.15332100  0.64235400  0.87829100  1
loop_
_geom_bond_atom_site_label_1
_geom_bond_atom_site_label_2
_geom_bond_distance
_geom_bond_site_symmetry_2
Li0 O4 2.056981 1_555
Li0 O5 2.101963 1_555
Li0 O11 2.138148 1_655
Li0 O7 2.160886 1_665
Li0 O0 2.299917 1_555
Li0 O6 2.329674 1_555
Li1 O3 2.056981 1_555
Li1 O10 2.101963 1_555
Li1 O8 2.138148 1_545
Li1 O1 2.160886 1_445
Li1 O2 2.299917 1_555
Li1 O9 2.329674 1_555
Li2 O11 2.126356 1_554
Li2 O8 2.126356 1_555
Li2 O3 2.154644 1_455
Li2 O4 2.154644 1_564
Li2 O10 2.161375 1_565
Li2 O5 2.161375 1_454
O0 V4 2.020141 1_555
O0 V0 2.079097 1_555
O0 V6 2.114770 1_655
O0 V3 2.196503 1_545
O1 V6 2.013495 1_655
O1 V4 2.070311 1_555
O1 V0 2.107582 1_565
O1 V1 2.188225 1_655
O2 V4 2.020141 1_555
O2 V0 2.079097 1_555
O2 V6 2.114770 1_545
O2 V1 2.196503 1_655
O3 V1 1.986769 1_655
O3 V2 2.006882 1_555
O3 V5 2.126413 1_555
O4 V3 1.986769 1_545
O4 V2 2.006882 1_556
O4 V5 2.126413 1_556
O5 V5 1.980415 1_556
O5 V2 2.001406 1_566
O5 V3 2.087142 1_555
O6 V0 1.985172 1_565
O6 V6 2.058360 1_555
O6 V4 2.102556 1_555
O6 V3 2.244260 1_555
O7 V6 2.013495 1_545
O7 V4 2.070311 1_555
O7 V0 2.107582 1_455
O7 V3 2.188225 1_545
O8 V1 1.929319 1_555
O8 V5 2.091070 1_555
O8 V2 2.186717 1_565
O9 V0 1.985172 1_455
O9 V6 2.058360 1_555
O9 V4 2.102556 1_555
O9 V1 2.244260 1_555
O10 V5 1.980415 1_555
O10 V2 2.001406 1_455
O10 V1 2.087142 1_555
O11 V3 1.929319 1_555
O11 V5 2.091070 1_556
O11 V2 2.186717 1_456
