# generated using pymatgen
data_Fe4OF7
_symmetry_space_group_name_H-M   'P 1'
_cell_length_a   7.51274059
_cell_length_b   7.51274059
_cell_length_c   6.89738200
_cell_angle_alpha   90.00000000
_cell_angle_beta   90.00000000
_cell_angle_gamma   129.88343229
_symmetry_Int_Tables_number   1
_chemical_formula_structural   Fe4OF7
_chemical_formula_sum   'Fe8 O2 F14'
_cell_volume   298.72729325
_cell_formula_units_Z   2
loop_
 _symmetry_equiv_pos_site_id
 _symmetry_equiv_pos_as_xyz
  1  'x, y, z'
loop_
 _atom_site_type_symbol
 _atom_site_label
 _atom_site_symmetry_multiplicity
 _atom_site_fract_x
 _atom_site_fract_y
 _atom_site_fract_z
 _atom_site_occupancy
  Fe  Fe0  1  0.35882400  0.10053800  0.75000000  1
  Fe  Fe1  1  0.89946200  0.64117600  0.75000000  1
  Fe  Fe2  1  0.62887400  0.37112600  0.25000000  1
  Fe  Fe3  1  0.12962700  0.87037300  0.25000000  1
  Fe  Fe4  1  0.37112600  0.62887400  0.75000000  1
  Fe  Fe5  1  0.87037300  0.12962700  0.75000000  1
  Fe  Fe6  1  0.64117600  0.89946200  0.25000000  1
  Fe  Fe7  1  0.10053800  0.35882400  0.25000000  1
  O  O0  1  0.22393700  0.77606300  0.75000000  1
  O  O1  1  0.77606300  0.22393700  0.25000000  1
  F  F0  1  0.72135700  0.27864300  0.75000000  1
  F  F1  1  0.36736200  0.12719600  0.04322800  1
  F  F2  1  0.87280400  0.63263800  0.04322800  1
  F  F3  1  0.36736200  0.12719600  0.45677200  1
  F  F4  1  0.63263800  0.87280400  0.95677200  1
  F  F5  1  0.12719600  0.36736200  0.95677200  1
  F  F6  1  0.87280400  0.63263800  0.45677200  1
  F  F7  1  0.53099300  0.46900700  0.75000000  1
  F  F8  1  0.01978300  0.98021700  0.75000000  1
  F  F9  1  0.27864300  0.72135700  0.25000000  1
  F  F10  1  0.98021700  0.01978300  0.25000000  1
  F  F11  1  0.46900700  0.53099300  0.25000000  1
  F  F12  1  0.63263800  0.87280400  0.54322800  1
  F  F13  1  0.12719600  0.36736200  0.54322800  1
loop_
_geom_bond_atom_site_label_1
_geom_bond_atom_site_label_2
_geom_bond_distance
_geom_bond_site_symmetry_2
Fe0 O0 1.949679 1_545
Fe1 O0 1.949679 1_655
Fe2 O1 2.003425 1_555
Fe4 O0 2.003425 1_555
Fe6 O1 1.949679 1_565
Fe7 O1 1.949679 1_455
F0 Fe5 2.028293 1_555
F0 Fe0 2.129498 1_555
F0 Fe1 2.129498 1_555
F1 Fe0 2.029354 1_554
F1 Fe3 2.127740 1_545
F1 Fe2 2.152886 1_555
F2 Fe1 2.029354 1_554
F2 Fe3 2.127740 1_655
F2 Fe2 2.152886 1_555
F3 Fe0 2.029354 1_555
F3 Fe3 2.127740 1_545
F3 Fe2 2.152886 1_555
F4 Fe6 2.029354 1_556
F4 Fe5 2.127740 1_565
F4 Fe4 2.152886 1_555
F5 Fe7 2.029354 1_556
F5 Fe5 2.127740 1_455
F5 Fe4 2.152886 1_555
F6 Fe1 2.029354 1_555
F6 Fe3 2.127740 1_655
F6 Fe2 2.152886 1_555
F7 Fe4 2.175989 1_555
F7 Fe0 2.178098 1_555
F7 Fe1 2.178098 1_555
F8 Fe5 2.033656 1_465
F8 Fe0 2.086186 1_565
F8 Fe1 2.086186 1_455
F9 Fe3 2.028293 1_555
F9 Fe7 2.129498 1_555
F9 Fe6 2.129498 1_555
F10 Fe3 2.033656 1_645
F10 Fe7 2.086186 1_655
F10 Fe6 2.086186 1_545
F11 Fe2 2.175989 1_555
F11 Fe7 2.178098 1_555
F11 Fe6 2.178098 1_555
F12 Fe6 2.029354 1_555
F12 Fe5 2.127740 1_565
F12 Fe4 2.152886 1_555
F13 Fe7 2.029354 1_555
F13 Fe5 2.127740 1_455
F13 Fe4 2.152886 1_555
