# generated using pymatgen
data_Li3V3P8O29
_symmetry_space_group_name_H-M   'P 1'
_cell_length_a   9.76127775
_cell_length_b   9.76127775
_cell_length_c   13.94801193
_cell_angle_alpha   89.69279272
_cell_angle_beta   89.69279272
_cell_angle_gamma   60.22416005
_symmetry_Int_Tables_number   1
_chemical_formula_structural   Li3V3P8O29
_chemical_formula_sum   'Li6 V6 P16 O58'
_cell_volume   1153.51831217
_cell_formula_units_Z   2
loop_
 _symmetry_equiv_pos_site_id
 _symmetry_equiv_pos_as_xyz
  1  'x, y, z'
loop_
 _atom_site_type_symbol
 _atom_site_label
 _atom_site_symmetry_multiplicity
 _atom_site_fract_x
 _atom_site_fract_y
 _atom_site_fract_z
 _atom_site_occupancy
  Li  Li0  1  0.09533800  0.67815100  0.44270100  1
  Li  Li1  1  0.67815100  0.09533800  0.94270100  1
  Li  Li2  1  0.09242800  0.22579900  0.94102700  1
  Li  Li3  1  0.77225100  0.91213300  0.55949600  1
  Li  Li4  1  0.22579900  0.09242800  0.44102700  1
  Li  Li5  1  0.91213300  0.77225100  0.05949600  1
  V  V0  1  0.56228400  0.00265200  0.75029500  1
  V  V1  1  0.43542900  0.99343200  0.24580000  1
  V  V2  1  0.00265200  0.56228400  0.25029500  1
  V  V3  1  0.99343200  0.43542900  0.74580000  1
  V  V4  1  0.43399000  0.56426800  0.75100400  1
  V  V5  1  0.56426800  0.43399000  0.25100400  1
  P  P0  1  0.23058500  0.68778900  0.15374100  1
  P  P1  1  0.08946900  0.68294600  0.65996800  1
  P  P2  1  0.68778900  0.23058500  0.65374100  1
  P  P3  1  0.33050300  0.33326000  0.87219200  1
  P  P4  1  0.33326000  0.33050300  0.37219200  1
  P  P5  1  0.68294600  0.08946900  0.15996800  1
  P  P6  1  0.77020100  0.91099600  0.34292400  1
  P  P7  1  0.08688300  0.22763500  0.15739900  1
  P  P8  1  0.91099600  0.77020100  0.84292400  1
  P  P9  1  0.22763500  0.08688300  0.65739900  1
  P  P10  1  0.31375600  0.91129800  0.84202100  1
  P  P11  1  0.66383700  0.66952400  0.62720000  1
  P  P12  1  0.66952400  0.66383700  0.12720000  1
  P  P13  1  0.31347200  0.76976000  0.34215500  1
  P  P14  1  0.91129800  0.31375600  0.34202100  1
  P  P15  1  0.76976000  0.31347200  0.84215500  1
  O  O0  1  0.23143300  0.76138100  0.42958300  1
  O  O1  1  0.25702500  0.65830700  0.66381000  1
  O  O2  1  0.99125100  0.76135700  0.93450600  1
  O  O3  1  0.08543600  0.65940600  0.16285500  1
  O  O4  1  0.38305100  0.52645300  0.17653600  1
  O  O5  1  0.33325500  0.47963300  0.82596800  1
  O  O6  1  0.52645300  0.38305100  0.67653600  1
  O  O7  1  0.76138100  0.23143300  0.92958300  1
  O  O8  1  0.65830700  0.25702500  0.16381000  1
  O  O9  1  0.18254800  0.48573900  0.32979600  1
  O  O10  1  0.09599500  0.52159100  0.67783900  1
  O  O11  1  0.47963300  0.33325500  0.32596800  1
  O  O12  1  0.33877400  0.32593200  0.97848500  1
  O  O13  1  0.32593200  0.33877400  0.47848500  1
  O  O14  1  0.48573900  0.18254800  0.82979600  1
  O  O15  1  0.09610500  0.38110100  0.17822100  1
  O  O16  1  0.18234200  0.33014200  0.83169500  1
  O  O17  1  0.65940600  0.08543600  0.66285500  1
  O  O18  1  0.79384700  0.99876700  0.25055500  1
  O  O19  1  0.76135700  0.99125100  0.43450600  1
  O  O20  1  0.75631000  0.99981000  0.06965900  1
  O  O21  1  0.52159100  0.09599500  0.17783900  1
  O  O22  1  0.33014200  0.18234200  0.33169500  1
  O  O23  1  0.74226200  0.91678100  0.83828900  1
  O  O24  1  0.38110100  0.09610500  0.67822100  1
  O  O25  1  0.08597000  0.25647200  0.66719500  1
  O  O26  1  0.99876700  0.79384700  0.75055500  1
  O  O27  1  0.99981000  0.75631000  0.56965900  1
  O  O28  1  0.00537600  0.23498200  0.42793000  1
  O  O29  1  0.91678100  0.74226200  0.33828900  1
  O  O30  1  0.61772900  0.90397800  0.32148100  1
  O  O31  1  0.25647200  0.08597000  0.16719500  1
  O  O32  1  0.66946100  0.81842800  0.66932400  1
  O  O33  1  0.47554800  0.90561500  0.82179500  1
  O  O34  1  0.23498200  0.00537600  0.92793000  1
  O  O35  1  0.24093900  0.00802400  0.56505500  1
  O  O36  1  0.20786300  0.99441000  0.74664200  1
  O  O37  1  0.33967100  0.91511600  0.33963200  1
  O  O38  1  0.81842800  0.66946100  0.16932400  1
  O  O39  1  0.90397800  0.61772900  0.82148100  1
  O  O40  1  0.51979900  0.81478500  0.17338500  1
  O  O41  1  0.66901000  0.67247600  0.02131600  1
  O  O42  1  0.67247600  0.66901000  0.52131600  1
  O  O43  1  0.51997500  0.66601100  0.67331500  1
  O  O44  1  0.90561500  0.47554800  0.32179500  1
  O  O45  1  0.81478500  0.51979900  0.67338500  1
  O  O46  1  0.34304500  0.74150700  0.83601000  1
  O  O47  1  0.20829500  0.79342900  0.24825100  1
  O  O48  1  0.23526400  0.76535600  0.06403800  1
  O  O49  1  0.47531200  0.61772300  0.32413300  1
  O  O50  1  0.66601100  0.51997500  0.17331500  1
  O  O51  1  0.61772300  0.47531200  0.82413300  1
  O  O52  1  0.91511600  0.33967100  0.83963200  1
  O  O53  1  0.00802400  0.24093900  0.06505500  1
  O  O54  1  0.99441000  0.20786300  0.24664200  1
  O  O55  1  0.74150700  0.34304500  0.33601000  1
  O  O56  1  0.76535600  0.23526400  0.56403800  1
  O  O57  1  0.79342900  0.20829500  0.74825100  1
loop_
_geom_bond_atom_site_label_1
_geom_bond_atom_site_label_2
_geom_bond_distance
_geom_bond_site_symmetry_2
Li0 O0 1.877789 1_555
Li0 O27 1.969147 1_455
Li0 O29 2.117667 1_455
Li0 O9 2.271912 1_555
Li1 O7 1.877789 1_555
Li1 O20 1.969147 1_546
Li1 O23 2.117667 1_545
Li1 O14 2.271912 1_555
Li2 O53 1.886761 1_556
Li2 O34 1.904445 1_555
Li2 O52 2.080838 1_455
Li2 O16 2.233847 1_555
Li3 O19 1.884950 1_555
Li3 O27 1.978137 1_555
Li3 O17 2.076483 1_565
Li3 O32 2.251679 1_555
Li4 O35 1.886761 1_555
Li4 O28 1.904445 1_555
Li4 O37 2.080838 1_545
Li4 O22 2.233847 1_555
Li5 O2 1.884950 1_554
Li5 O20 1.978137 1_555
Li5 O3 2.076483 1_655
Li5 O38 2.251679 1_555
O0 P13 1.479372 1_555
O1 P1 1.531626 1_555
O1 V4 1.934244 1_555
O2 P8 1.481638 1_555
O3 P0 1.577315 1_555
O3 V2 1.943486 1_555
O4 P0 1.570979 1_555
O4 V5 1.856461 1_555
O5 P3 1.576671 1_555
O5 V4 1.878624 1_555
O6 P2 1.570979 1_555
O6 V4 1.856461 1_555
O7 P15 1.479372 1_555
O8 P5 1.531626 1_555
O8 V5 1.934244 1_555
O9 P4 1.611117 1_555
O9 V2 1.892174 1_555
O10 P1 1.563081 1_555
O10 V3 1.850889 1_455
O11 P4 1.576671 1_555
O11 V5 1.878624 1_555
O12 P3 1.484613 1_555
O13 P4 1.484613 1_555
O14 P3 1.611117 1_555
O14 V0 1.892174 1_555
O15 P7 1.573343 1_555
O15 V2 1.837787 1_555
O16 P3 1.569796 1_555
O16 V3 2.005029 1_455
O17 P2 1.577315 1_555
O17 V0 1.943486 1_555
O18 P5 1.613364 1_565
O18 P6 1.621288 1_555
O19 P6 1.481638 1_555
O20 P5 1.498371 1_565
O21 P5 1.563081 1_555
O21 V1 1.850889 1_545
O22 P4 1.569796 1_555
O22 V1 2.005029 1_545
O23 P8 1.556826 1_555
O23 V0 1.960832 1_565
O24 P9 1.573343 1_555
O24 V0 1.837787 1_555
O25 P9 1.548561 1_555
O25 V3 1.874082 1_455
O26 P1 1.613364 1_655
O26 P8 1.621288 1_555
O27 P1 1.498371 1_655
O28 P14 1.473425 1_455
O29 P6 1.556826 1_555
O29 V2 1.960832 1_655
O30 P6 1.554190 1_555
O30 V1 1.873574 1_555
O31 P7 1.548561 1_555
O31 V1 1.874082 1_545
O32 P11 1.596754 1_555
O32 V0 1.935023 1_565
O33 P10 1.576457 1_555
O33 V0 1.840088 1_565
O34 P10 1.473425 1_545
O35 P9 1.475784 1_555
O36 P9 1.599960 1_565
O36 P10 1.633008 1_555
O37 P13 1.561910 1_555
O37 V1 1.963887 1_555
O38 P12 1.596754 1_555
O38 V2 1.935023 1_655
O39 P8 1.554190 1_555
O39 V3 1.873574 1_555
O40 P12 1.607254 1_555
O40 V1 1.822890 1_555
O41 P12 1.478719 1_555
O42 P11 1.478719 1_555
O43 P11 1.557176 1_555
O43 V4 1.916147 1_555
O44 P14 1.576457 1_555
O44 V2 1.840088 1_655
O45 P11 1.607254 1_555
O45 V3 1.822890 1_555
O46 P10 1.538269 1_555
O46 V4 1.916331 1_555
O47 P13 1.611988 1_555
O47 P0 1.623902 1_555
O48 P0 1.471187 1_555
O49 P13 1.559642 1_555
O49 V5 1.863947 1_555
O50 P12 1.557176 1_555
O50 V5 1.916147 1_555
O51 P15 1.559642 1_555
O51 V4 1.863947 1_555
O52 P15 1.561910 1_555
O52 V3 1.963887 1_555
O53 P7 1.475784 1_555
O54 P7 1.599960 1_655
O54 P14 1.633008 1_555
O55 P14 1.538269 1_555
O55 V5 1.916331 1_555
O56 P2 1.471187 1_555
O57 P15 1.611988 1_555
O57 P2 1.623902 1_555
