# generated using pymatgen
data_Li3FeSiO5
_symmetry_space_group_name_H-M   'P 1'
_cell_length_a   4.94562900
_cell_length_b   5.47328300
_cell_length_c   15.80406300
_cell_angle_alpha   90.00000000
_cell_angle_beta   90.00000000
_cell_angle_gamma   90.00000000
_symmetry_Int_Tables_number   1
_chemical_formula_structural   Li3FeSiO5
_chemical_formula_sum   'Li12 Fe4 Si4 O20'
_cell_volume   427.79744930
_cell_formula_units_Z   4
loop_
 _symmetry_equiv_pos_site_id
 _symmetry_equiv_pos_as_xyz
  1  'x, y, z'
loop_
 _atom_site_type_symbol
 _atom_site_label
 _atom_site_symmetry_multiplicity
 _atom_site_fract_x
 _atom_site_fract_y
 _atom_site_fract_z
 _atom_site_occupancy
  Li  Li0  1  0.00256000  0.66419000  0.59163000  1
  Li  Li1  1  0.00256000  0.16419000  0.90837000  1
  Li  Li2  1  0.00733500  0.66532300  0.00588500  1
  Li  Li3  1  0.00733500  0.16532300  0.49411500  1
  Li  Li4  1  0.50256000  0.83581000  0.09163000  1
  Li  Li5  1  0.50388300  0.32015500  0.80483400  1
  Li  Li6  1  0.50388300  0.82015500  0.69516600  1
  Li  Li7  1  0.50256000  0.33581000  0.40837000  1
  Li  Li8  1  0.50733500  0.83467700  0.50588500  1
  Li  Li9  1  0.50733500  0.33467700  0.99411500  1
  Li  Li10  1  0.00388300  0.17984500  0.30483400  1
  Li  Li11  1  0.00388300  0.67984500  0.19516600  1
  Fe  Fe0  1  0.00442800  0.66853200  0.80250900  1
  Fe  Fe1  1  0.50442800  0.83146800  0.30250900  1
  Fe  Fe2  1  0.50442800  0.33146800  0.19749100  1
  Fe  Fe3  1  0.00442800  0.16853200  0.69749100  1
  Si  Si0  1  0.00996900  0.66377200  0.40295900  1
  Si  Si1  1  0.50996900  0.33622800  0.59704100  1
  Si  Si2  1  0.50996900  0.83622800  0.90295900  1
  Si  Si3  1  0.00996900  0.16377200  0.09704100  1
  O  O0  1  0.11031000  0.31691600  0.01438600  1
  O  O1  1  0.10141300  0.83404800  0.70148100  1
  O  O2  1  0.10141300  0.33404800  0.79851900  1
  O  O3  1  0.10684600  0.88255000  0.10117200  1
  O  O4  1  0.10684600  0.38255000  0.39882800  1
  O  O5  1  0.11031000  0.81691600  0.48561400  1
  O  O6  1  0.11491500  0.31191100  0.18585400  1
  O  O7  1  0.11491500  0.81191100  0.31414600  1
  O  O8  1  0.16876900  0.32026500  0.60244700  1
  O  O9  1  0.16876900  0.82026500  0.89755300  1
  O  O10  1  0.61031000  0.18308400  0.51438600  1
  O  O11  1  0.60141300  0.66595200  0.20148100  1
  O  O12  1  0.60141300  0.16595200  0.29851900  1
  O  O13  1  0.60684600  0.61745000  0.60117200  1
  O  O14  1  0.60684600  0.11745000  0.89882800  1
  O  O15  1  0.61031000  0.68308400  0.98561400  1
  O  O16  1  0.61491500  0.18808900  0.68585400  1
  O  O17  1  0.61491500  0.68808900  0.81414600  1
  O  O18  1  0.66876900  0.17973500  0.10244700  1
  O  O19  1  0.66876900  0.67973500  0.39755300  1
loop_
_geom_bond_atom_site_label_1
_geom_bond_atom_site_label_2
_geom_bond_distance
_geom_bond_site_symmetry_2
Li0 O5 1.946784 1_555
Li0 O13 1.979457 1_455
Li0 O1 2.029122 1_555
Li0 O8 2.061152 1_555
Li1 O0 1.946784 1_556
Li1 O14 1.979457 1_455
Li1 O2 2.029122 1_555
Li1 O9 2.061152 1_545
Li2 O0 1.978331 1_555
Li2 O3 1.980807 1_555
Li2 O15 1.991875 1_454
Li2 O9 2.070711 1_554
Li3 O5 1.978331 1_545
Li3 O4 1.980807 1_555
Li3 O10 1.991875 1_455
Li3 O8 2.070711 1_555
Li4 O15 1.946784 1_554
Li4 O3 1.979457 1_555
Li4 O11 2.029122 1_555
Li4 O18 2.061152 1_565
Li5 O14 1.922727 1_555
Li5 O2 1.994418 1_555
Li5 O16 2.088015 1_555
Li5 O17 2.092513 1_555
Li6 O13 1.922727 1_555
Li6 O1 1.994418 1_555
Li6 O17 2.088015 1_555
Li6 O16 2.092513 1_565
Li7 O10 1.946784 1_555
Li7 O4 1.979457 1_555
Li7 O12 2.029122 1_555
Li7 O19 2.061152 1_555
Li8 O10 1.978331 1_565
Li8 O13 1.980807 1_555
Li8 O5 1.991875 1_555
Li8 O19 2.070711 1_555
Li9 O15 1.978331 1_555
Li9 O14 1.980807 1_555
Li9 O0 1.991875 1_556
Li9 O18 2.070711 1_556
Li10 O4 1.922727 1_555
Li10 O12 1.994418 1_455
Li10 O6 2.088015 1_555
Li10 O7 2.092513 1_545
Li11 O3 1.922727 1_555
Li11 O11 1.994418 1_455
Li11 O7 2.088015 1_555
Li11 O6 2.092513 1_555
Fe0 O2 1.893568 1_555
Fe0 O1 1.897380 1_555
Fe0 O9 1.899088 1_555
Fe0 O17 1.938104 1_455
Fe1 O12 1.893568 1_565
Fe1 O11 1.897380 1_555
Fe1 O19 1.899088 1_555
Fe1 O7 1.938104 1_555
Fe2 O11 1.893568 1_555
Fe2 O12 1.897380 1_555
Fe2 O18 1.899088 1_555
Fe2 O6 1.938104 1_555
Fe3 O1 1.893568 1_545
Fe3 O2 1.897380 1_555
Fe3 O8 1.899088 1_555
Fe3 O16 1.938104 1_455
O0 Si3 1.629486 1_555
O3 Si3 1.613374 1_565
O4 Si0 1.613374 1_555
O5 Si0 1.629486 1_555
O6 Si3 1.702029 1_555
O7 Si0 1.702029 1_555
O8 Si1 1.691868 1_555
O9 Si2 1.691868 1_555
O10 Si1 1.629486 1_555
O13 Si1 1.613374 1_555
O14 Si2 1.613374 1_545
O15 Si2 1.629486 1_555
O16 Si1 1.702029 1_555
O17 Si2 1.702029 1_555
O18 Si3 1.691868 1_655
O19 Si0 1.691868 1_655
