# generated using pymatgen
data_Rb2FeH2C5(N3O)2
_symmetry_space_group_name_H-M   'P 1'
_cell_length_a   8.71139382
_cell_length_b   8.71139382
_cell_length_c   18.25351644
_cell_angle_alpha   73.20946497
_cell_angle_beta   73.20946497
_cell_angle_gamma   72.46977443
_symmetry_Int_Tables_number   1
_chemical_formula_structural   Rb2FeH2C5(N3O)2
_chemical_formula_sum   'Rb8 Fe4 H8 C20 N24 O8'
_cell_volume   1233.28077873
_cell_formula_units_Z   4
loop_
 _symmetry_equiv_pos_site_id
 _symmetry_equiv_pos_as_xyz
  1  'x, y, z'
loop_
 _atom_site_type_symbol
 _atom_site_label
 _atom_site_symmetry_multiplicity
 _atom_site_fract_x
 _atom_site_fract_y
 _atom_site_fract_z
 _atom_site_occupancy
  Rb  Rb0  1  0.06958900  0.85565900  0.12537300  1
  Rb  Rb1  1  0.14434100  0.93041100  0.37462700  1
  Rb  Rb2  1  0.93041100  0.14434100  0.87462700  1
  Rb  Rb3  1  0.85565900  0.06958900  0.62537300  1
  Rb  Rb4  1  0.41773000  0.25198000  0.84061900  1
  Rb  Rb5  1  0.74802000  0.58227000  0.65938100  1
  Rb  Rb6  1  0.58227000  0.74802000  0.15938100  1
  Rb  Rb7  1  0.25198000  0.41773000  0.34061900  1
  Fe  Fe0  1  0.24693700  0.35356400  0.07106600  1
  Fe  Fe1  1  0.64643600  0.75306300  0.42893400  1
  Fe  Fe2  1  0.75306300  0.64643600  0.92893400  1
  Fe  Fe3  1  0.35356400  0.24693700  0.57106600  1
  H  H0  1  0.32484800  0.92411500  0.88294200  1
  H  H1  1  0.07588500  0.67515200  0.61705800  1
  H  H2  1  0.67515200  0.07588500  0.11705800  1
  H  H3  1  0.92411500  0.32484800  0.38294200  1
  H  H4  1  0.32877100  0.92255200  0.79690900  1
  H  H5  1  0.07744800  0.67122900  0.70309100  1
  H  H6  1  0.67122900  0.07744800  0.20309100  1
  H  H7  1  0.92255200  0.32877100  0.29690900  1
  C  C0  1  0.14988400  0.24418500  0.02417000  1
  C  C1  1  0.75581500  0.85011600  0.47583000  1
  C  C2  1  0.85011600  0.75581500  0.97583000  1
  C  C3  1  0.24418500  0.14988400  0.52417000  1
  C  C4  1  0.33837000  0.43745200  0.13202900  1
  C  C5  1  0.56254800  0.66163000  0.36797100  1
  C  C6  1  0.66163000  0.56254800  0.86797100  1
  C  C7  1  0.43745200  0.33837000  0.63202900  1
  C  C8  1  0.25541900  0.15193800  0.15176300  1
  C  C9  1  0.84806200  0.74458100  0.34823700  1
  C  C10  1  0.74458100  0.84806200  0.84823700  1
  C  C11  1  0.15193800  0.25541900  0.65176300  1
  C  C12  1  0.03236600  0.43668300  0.13351200  1
  C  C13  1  0.56331700  0.96763400  0.36648800  1
  C  C14  1  0.96763400  0.56331700  0.86648800  1
  C  C15  1  0.43668300  0.03236600  0.63351200  1
  C  C16  1  0.46561100  0.23990100  0.02497100  1
  C  C17  1  0.76009900  0.53438900  0.47502900  1
  C  C18  1  0.53438900  0.76009900  0.97502900  1
  C  C19  1  0.23990100  0.46561100  0.52497100  1
  N  N0  1  0.24587100  0.51608500  0.99585100  1
  N  N1  1  0.48391500  0.75412900  0.50414900  1
  N  N2  1  0.75412900  0.48391500  0.00414900  1
  N  N3  1  0.51608500  0.24587100  0.49585100  1
  N  N4  1  0.09194500  0.18115400  0.99368400  1
  N  N5  1  0.81884600  0.90805500  0.50631600  1
  N  N6  1  0.90805500  0.81884600  0.00631600  1
  N  N7  1  0.18115400  0.09194500  0.49368400  1
  N  N8  1  0.38690700  0.49926100  0.16708900  1
  N  N9  1  0.50073900  0.61309300  0.33291100  1
  N  N10  1  0.61309300  0.50073900  0.83291100  1
  N  N11  1  0.49926100  0.38690700  0.66708900  1
  N  N12  1  0.26244600  0.02532600  0.19767300  1
  N  N13  1  0.97467400  0.73755400  0.30232700  1
  N  N14  1  0.73755400  0.97467400  0.80232700  1
  N  N15  1  0.02532600  0.26244600  0.69767300  1
  N  N16  1  0.90401000  0.49247500  0.17127400  1
  N  N17  1  0.50752500  0.09599000  0.32872600  1
  N  N18  1  0.09599000  0.50752500  0.82872600  1
  N  N19  1  0.49247500  0.90401000  0.67127400  1
  N  N20  1  0.59900400  0.17539600  0.99492400  1
  N  N21  1  0.82460400  0.40099600  0.50507600  1
  N  N22  1  0.40099600  0.82460400  0.00507600  1
  N  N23  1  0.17539600  0.59900400  0.49492400  1
  O  O0  1  0.25028800  0.62088400  0.94061900  1
  O  O1  1  0.37911600  0.74971200  0.55938100  1
  O  O2  1  0.74971200  0.37911600  0.05938100  1
  O  O3  1  0.62088400  0.25028800  0.44061900  1
  O  O4  1  0.27867300  0.98738400  0.83724800  1
  O  O5  1  0.01261600  0.72132700  0.66275200  1
  O  O6  1  0.72132700  0.01261600  0.16275200  1
  O  O7  1  0.98738400  0.27867300  0.33724800  1
loop_
_geom_bond_atom_site_label_1
_geom_bond_atom_site_label_2
_geom_bond_distance
_geom_bond_site_symmetry_2
Fe0 N0 1.663106 1_554
Fe1 N1 1.663106 1_555
Fe2 N2 1.663106 1_556
Fe3 N3 1.663106 1_555
H0 O4 0.977726 1_555
H1 O5 0.977726 1_555
H2 O6 0.977726 1_555
H3 O7 0.977726 1_555
H4 O4 0.978640 1_555
H5 O5 0.978640 1_555
H6 O6 0.978640 1_555
H7 O7 0.978640 1_555
C0 N4 1.171186 1_554
C0 Fe0 1.931365 1_555
C1 N5 1.171186 1_555
C1 Fe1 1.931365 1_555
C2 N6 1.171186 1_556
C2 Fe2 1.931365 1_555
C3 N7 1.171186 1_555
C3 Fe3 1.931365 1_555
C4 N8 1.170825 1_555
C4 Fe0 1.933735 1_555
C5 N9 1.170825 1_555
C5 Fe1 1.933735 1_555
C6 N10 1.170825 1_555
C6 Fe2 1.933735 1_555
C7 N11 1.170825 1_555
C7 Fe3 1.933735 1_555
C8 N12 1.173673 1_555
C8 Fe0 1.936548 1_555
C9 N13 1.173673 1_555
C9 Fe1 1.936548 1_555
C10 N14 1.173673 1_555
C10 Fe2 1.936548 1_555
C11 N15 1.173673 1_555
C11 Fe3 1.936548 1_555
C12 N16 1.175797 1_455
C12 Fe0 1.935989 1_555
C13 N17 1.175797 1_565
C13 Fe1 1.935989 1_555
C14 N18 1.175797 1_655
C14 Fe2 1.935989 1_555
C15 N19 1.175797 1_545
C15 Fe3 1.935989 1_555
C16 N20 1.176173 1_554
C16 Fe0 1.932936 1_555
C17 N21 1.176173 1_555
C17 Fe1 1.932936 1_555
C18 N22 1.176173 1_556
C18 Fe2 1.932936 1_555
C19 N23 1.176173 1_555
C19 Fe3 1.932936 1_555
N0 O0 1.148197 1_555
N1 O1 1.148197 1_555
N2 O2 1.148197 1_555
N3 O3 1.148197 1_555
N4 Rb2 3.040917 1_455
N4 Rb0 3.159202 1_546
N5 Rb3 3.040917 1_565
N5 Rb1 3.159202 1_655
N6 Rb0 3.040917 1_655
N6 Rb2 3.159202 1_564
N7 Rb1 3.040917 1_545
N7 Rb3 3.159202 1_455
N8 Rb7 2.995229 1_555
N8 Rb6 3.085370 1_555
N9 Rb6 2.995229 1_555
N9 Rb7 3.085370 1_555
N10 Rb5 2.995229 1_555
N10 Rb4 3.085370 1_555
N11 Rb4 2.995229 1_555
N11 Rb5 3.085370 1_555
N12 Rb1 3.037237 1_545
N12 Rb6 3.143653 1_545
N12 Rb0 3.263850 1_545
N13 Rb0 3.037237 1_655
N13 Rb7 3.143653 1_655
N13 Rb1 3.263850 1_655
N14 Rb3 3.037237 1_565
N14 Rb4 3.143653 1_565
N14 Rb2 3.263850 1_565
N15 Rb2 3.037237 1_455
N15 Rb5 3.143653 1_455
N15 Rb3 3.263850 1_455
N16 Rb6 3.028556 1_555
N17 Rb7 3.028556 1_555
N18 Rb4 3.028556 1_555
N19 Rb5 3.028556 1_555
N20 Rb2 3.072441 1_555
N21 Rb3 3.072441 1_555
N22 Rb0 3.072441 1_555
N23 Rb1 3.072441 1_555
O4 Rb2 2.895411 1_465
O4 Rb4 2.931101 1_565
O5 Rb3 2.895411 1_465
O5 Rb5 2.931101 1_455
O6 Rb0 2.895411 1_645
O6 Rb6 2.931101 1_545
O7 Rb1 2.895411 1_645
O7 Rb7 2.931101 1_655
