# generated using pymatgen
data_Li4Fe3Ni5O16
_symmetry_space_group_name_H-M   'P 1'
_cell_length_a   5.74077462
_cell_length_b   5.75296608
_cell_length_c   9.49680269
_cell_angle_alpha   89.99706297
_cell_angle_beta   90.10244527
_cell_angle_gamma   120.06491508
_symmetry_Int_Tables_number   1
_chemical_formula_structural   Li4Fe3Ni5O16
_chemical_formula_sum   'Li4 Fe3 Ni5 O16'
_cell_volume   271.44697144
_cell_formula_units_Z   1
loop_
 _symmetry_equiv_pos_site_id
 _symmetry_equiv_pos_as_xyz
  1  'x, y, z'
loop_
 _atom_site_type_symbol
 _atom_site_label
 _atom_site_symmetry_multiplicity
 _atom_site_fract_x
 _atom_site_fract_y
 _atom_site_fract_z
 _atom_site_occupancy
  Li  Li0  1  0.34061600  0.67031300  0.88798200  1
  Li  Li1  1  0.99663100  0.99834700  0.99612900  1
  Li  Li2  1  0.99226900  0.99610900  0.49942900  1
  Li  Li3  1  0.66704100  0.33351000  0.39195900  1
  Fe  Fe0  1  0.17022300  0.83177300  0.21440800  1
  Fe  Fe1  1  0.17023200  0.33848500  0.21440200  1
  Fe  Fe2  1  0.33738400  0.16868200  0.71607700  1
  Ni  Ni0  1  0.33032700  0.66518000  0.49428800  1
  Ni  Ni1  1  0.66039500  0.83022200  0.21372300  1
  Ni  Ni2  1  0.67147000  0.33577300  0.98811600  1
  Ni  Ni3  1  0.83049700  0.66145500  0.71530300  1
  Ni  Ni4  1  0.83048200  0.16904100  0.71530400  1
  O  O0  1  0.15604500  0.84068700  0.60780900  1
  O  O1  1  0.03236100  0.51617600  0.33351200  1
  O  O2  1  0.35052900  0.67529400  0.09908100  1
  O  O3  1  0.97799600  0.98901700  0.31517400  1
  O  O4  1  0.99313700  0.99653400  0.80854300  1
  O  O5  1  0.15608100  0.31532100  0.60781800  1
  O  O6  1  0.48630500  0.96428200  0.33338400  1
  O  O7  1  0.48634400  0.52207400  0.33339100  1
  O  O8  1  0.32359300  0.16183100  0.10434300  1
  O  O9  1  0.68167400  0.84087000  0.60801100  1
  O  O10  1  0.52185800  0.48496600  0.82981000  1
  O  O11  1  0.52178700  0.03691300  0.82979500  1
  O  O12  1  0.67159700  0.33584900  0.61291300  1
  O  O13  1  0.83803700  0.68340800  0.10408100  1
  O  O14  1  0.96708900  0.48351800  0.82897600  1
  O  O15  1  0.83800100  0.15466900  0.10407700  1
loop_
_geom_bond_atom_site_label_1
_geom_bond_atom_site_label_2
_geom_bond_distance
_geom_bond_site_symmetry_2
Li0 O10 1.907485 1_555
Li0 O11 1.907676 1_565
Li0 O14 1.937496 1_455
Li0 O2 2.005270 1_556
Li1 O4 1.781517 1_555
Li1 O13 1.874305 1_556
Li1 O15 1.874308 1_566
Li1 O8 1.920487 1_666
Li2 O3 1.751125 1_555
Li2 O9 1.857730 1_555
Li2 O0 1.892513 1_655
Li2 O5 1.892806 1_665
Li3 O1 1.899111 1_655
Li3 O7 1.920321 1_555
Li3 O6 1.920366 1_545
Li3 O12 2.098433 1_555
Fe0 O6 1.938342 1_555
Fe0 O1 1.940482 1_555
Fe0 O8 1.949681 1_565
Fe0 O13 1.955770 1_455
Fe0 O3 1.988965 1_455
Fe0 O2 2.004784 1_555
Fe1 O7 1.938566 1_555
Fe1 O1 1.940356 1_555
Fe1 O8 1.949441 1_555
Fe1 O15 1.955961 1_455
Fe1 O3 1.989041 1_445
Fe1 O2 2.004888 1_555
Fe2 O11 1.913514 1_555
Fe2 O10 1.914249 1_555
Fe2 O4 1.924202 1_445
Fe2 O12 1.929707 1_555
Fe2 O5 1.930765 1_555
Fe2 O0 1.931230 1_545
Ni0 O0 2.049126 1_555
Ni0 O5 2.049507 1_555
Ni0 O9 2.050845 1_555
Ni0 O1 2.124551 1_555
Ni0 O6 2.135066 1_555
Ni0 O7 2.135101 1_555
Ni1 O3 1.847174 1_555
Ni1 O2 1.883797 1_555
Ni1 O6 1.913502 1_555
Ni1 O7 1.913550 1_555
Ni1 O13 1.924705 1_555
Ni1 O15 1.924721 1_565
Ni2 O15 2.050950 1_556
Ni2 O13 2.051164 1_556
Ni2 O8 2.052669 1_556
Ni2 O14 2.109590 1_555
Ni2 O10 2.113875 1_555
Ni2 O11 2.114347 1_555
Ni3 O10 1.886021 1_555
Ni3 O4 1.888304 1_555
Ni3 O12 1.889824 1_555
Ni3 O14 1.905070 1_555
Ni3 O0 1.916767 1_655
Ni3 O9 1.927141 1_555
Ni4 O11 1.886167 1_555
Ni4 O4 1.888480 1_545
Ni4 O12 1.890020 1_555
Ni4 O14 1.905014 1_555
Ni4 O5 1.916948 1_655
Ni4 O9 1.927042 1_545
