# generated using pymatgen
data_Li2MnCo3O8
_symmetry_space_group_name_H-M   'P 1'
_cell_length_a   8.11997685
_cell_length_b   8.11997685
_cell_length_c   8.11786782
_cell_angle_alpha   89.89987536
_cell_angle_beta   89.89987536
_cell_angle_gamma   90.07395366
_symmetry_Int_Tables_number   1
_chemical_formula_structural   Li2MnCo3O8
_chemical_formula_sum   'Li8 Mn4 Co12 O32'
_cell_volume   535.24161007
_cell_formula_units_Z   4
loop_
 _symmetry_equiv_pos_site_id
 _symmetry_equiv_pos_as_xyz
  1  'x, y, z'
loop_
 _atom_site_type_symbol
 _atom_site_label
 _atom_site_symmetry_multiplicity
 _atom_site_fract_x
 _atom_site_fract_y
 _atom_site_fract_z
 _atom_site_occupancy
  Li  Li0  1  0.99742100  0.74885500  0.87177300  1
  Li  Li1  1  0.25114500  0.00257900  0.12822700  1
  Li  Li2  1  0.75261900  0.49495200  0.12200700  1
  Li  Li3  1  0.49667900  0.75489500  0.37724700  1
  Li  Li4  1  0.00300800  0.25395400  0.37099800  1
  Li  Li5  1  0.74604600  0.99699200  0.62900200  1
  Li  Li6  1  0.24510500  0.50332100  0.62275300  1
  Li  Li7  1  0.50504800  0.24738100  0.87799300  1
  Mn  Mn0  1  0.37478600  0.62521400  0.00000000  1
  Mn  Mn1  1  0.87346700  0.87900600  0.24600100  1
  Mn  Mn2  1  0.62555200  0.37444800  0.50000000  1
  Mn  Mn3  1  0.12099400  0.12653300  0.75399900  1
  Co  Co0  1  0.62432200  0.87636300  0.00043900  1
  Co  Co1  1  0.87436300  0.12563700  0.00000000  1
  Co  Co2  1  0.12363700  0.37567800  0.99956100  1
  Co  Co3  1  0.62483100  0.12540100  0.24897500  1
  Co  Co4  1  0.37556900  0.37485600  0.24970000  1
  Co  Co5  1  0.12477700  0.62470500  0.24954100  1
  Co  Co6  1  0.37412900  0.12418900  0.50012600  1
  Co  Co7  1  0.12445300  0.87554700  0.50000000  1
  Co  Co8  1  0.87581100  0.62587100  0.49987400  1
  Co  Co9  1  0.37529500  0.87522300  0.75045900  1
  Co  Co10  1  0.62514400  0.62443100  0.75030000  1
  Co  Co11  1  0.87459900  0.37516900  0.75102500  1
  O  O0  1  0.38774700  0.86213300  0.98848900  1
  O  O1  1  0.61423500  0.63522200  0.98341700  1
  O  O2  1  0.88973000  0.36034500  0.98513200  1
  O  O3  1  0.86232300  0.88612700  0.01295500  1
  O  O4  1  0.11387300  0.13767700  0.98704500  1
  O  O5  1  0.63965500  0.11027000  0.01486800  1
  O  O6  1  0.36477800  0.38576500  0.01658300  1
  O  O7  1  0.13786700  0.61225300  0.01151100  1
  O  O8  1  0.63773200  0.88821900  0.23824300  1
  O  O9  1  0.86259700  0.11295700  0.23854000  1
  O  O10  1  0.14019600  0.39447100  0.23522900  1
  O  O11  1  0.61250400  0.36243300  0.26346700  1
  O  O12  1  0.35844600  0.61381700  0.23868300  1
  O  O13  1  0.38875600  0.14044700  0.26686500  1
  O  O14  1  0.11193900  0.85805500  0.26362900  1
  O  O15  1  0.89055400  0.63485200  0.26630900  1
  O  O16  1  0.60965700  0.13706600  0.49067100  1
  O  O17  1  0.38758200  0.36110100  0.48680300  1
  O  O18  1  0.10936800  0.63980800  0.48399100  1
  O  O19  1  0.14225000  0.11390600  0.51102200  1
  O  O20  1  0.88609400  0.85775000  0.48897800  1
  O  O21  1  0.36019200  0.89063200  0.51600900  1
  O  O22  1  0.63889900  0.61241800  0.51319700  1
  O  O23  1  0.86293400  0.39034300  0.50932900  1
  O  O24  1  0.36514800  0.10944600  0.73369100  1
  O  O25  1  0.14194500  0.88806100  0.73637100  1
  O  O26  1  0.85955300  0.61124400  0.73313500  1
  O  O27  1  0.38618300  0.64155400  0.76131700  1
  O  O28  1  0.63756700  0.38749600  0.73653300  1
  O  O29  1  0.60552900  0.85980400  0.76477100  1
  O  O30  1  0.88704300  0.13740300  0.76146000  1
  O  O31  1  0.11178100  0.36226800  0.76175700  1
loop_
_geom_bond_atom_site_label_1
_geom_bond_atom_site_label_2
_geom_bond_distance
_geom_bond_site_symmetry_2
Li0 O3 1.939740 1_556
Li0 O26 1.942684 1_555
Li0 O7 1.954759 1_656
Li0 O25 1.962340 1_655
Li1 O4 1.939740 1_554
Li1 O13 1.942684 1_555
Li1 O0 1.954759 1_544
Li1 O14 1.962340 1_545
Li2 O2 1.916210 1_554
Li2 O11 1.938811 1_555
Li2 O1 1.956766 1_554
Li2 O15 1.980685 1_555
Li3 O21 1.927457 1_555
Li3 O8 1.935239 1_555
Li3 O12 1.960369 1_555
Li3 O22 1.973191 1_555
Li4 O10 1.935345 1_555
Li4 O9 1.942195 1_455
Li4 O23 1.945336 1_455
Li4 O19 1.966447 1_555
Li5 O29 1.935345 1_555
Li5 O30 1.942195 1_565
Li5 O16 1.945336 1_565
Li5 O20 1.966447 1_555
Li6 O18 1.927457 1_555
Li6 O31 1.935239 1_555
Li6 O27 1.960369 1_555
Li6 O17 1.973191 1_555
Li7 O5 1.916210 1_556
Li7 O28 1.938811 1_555
Li7 O6 1.956766 1_556
Li7 O24 1.980685 1_555
Mn0 O7 1.928611 1_555
Mn0 O0 1.928611 1_554
Mn0 O12 1.943938 1_555
Mn0 O27 1.943938 1_554
Mn0 O1 1.950320 1_554
Mn0 O6 1.950320 1_555
Mn1 O3 1.894942 1_555
Mn1 O9 1.902703 1_565
Mn1 O8 1.916861 1_555
Mn1 O14 1.949551 1_655
Mn1 O20 1.982535 1_555
Mn1 O15 1.994112 1_555
Mn2 O28 1.925885 1_555
Mn2 O11 1.925885 1_555
Mn2 O23 1.933311 1_555
Mn2 O16 1.933311 1_555
Mn2 O22 1.938368 1_555
Mn2 O17 1.938368 1_555
Mn3 O4 1.894942 1_555
Mn3 O30 1.902703 1_455
Mn3 O31 1.916861 1_555
Mn3 O25 1.949551 1_545
Mn3 O19 1.982535 1_555
Mn3 O24 1.994112 1_555
Co0 O5 1.907054 1_565
Co0 O29 1.924387 1_554
Co0 O0 1.926929 1_554
Co0 O8 1.936276 1_555
Co0 O3 1.936937 1_555
Co0 O1 1.964783 1_554
Co1 O2 1.913330 1_554
Co1 O5 1.913330 1_555
Co1 O30 1.941171 1_554
Co1 O9 1.941171 1_555
Co1 O4 1.949791 1_654
Co1 O3 1.949791 1_545
Co2 O2 1.907054 1_455
Co2 O10 1.924387 1_556
Co2 O7 1.926929 1_556
Co2 O31 1.936276 1_555
Co2 O4 1.936937 1_555
Co2 O6 1.964783 1_556
Co3 O5 1.908232 1_555
Co3 O13 1.926216 1_555
Co3 O8 1.931004 1_545
Co3 O11 1.931206 1_555
Co3 O9 1.935142 1_555
Co3 O16 1.968160 1_555
Co4 O6 1.896514 1_555
Co4 O13 1.911400 1_555
Co4 O10 1.921834 1_555
Co4 O11 1.930103 1_555
Co4 O17 1.930457 1_555
Co4 O12 1.947422 1_555
Co5 O10 1.877631 1_555
Co5 O14 1.901427 1_555
Co5 O12 1.901457 1_555
Co5 O15 1.908409 1_455
Co5 O18 1.911287 1_555
Co5 O7 1.937855 1_555
Co6 O19 1.886508 1_555
Co6 O24 1.900883 1_555
Co6 O13 1.901443 1_555
Co6 O21 1.903838 1_545
Co6 O16 1.916600 1_555
Co6 O17 1.929512 1_555
Co7 O21 1.922591 1_555
Co7 O18 1.922591 1_555
Co7 O25 1.927174 1_555
Co7 O14 1.927174 1_555
Co7 O19 1.942900 1_565
Co7 O20 1.942900 1_455
Co8 O20 1.886508 1_555
Co8 O15 1.900883 1_555
Co8 O26 1.901443 1_555
Co8 O18 1.903838 1_655
Co8 O23 1.916600 1_555
Co8 O22 1.929512 1_555
Co9 O29 1.877631 1_555
Co9 O25 1.901427 1_555
Co9 O27 1.901457 1_555
Co9 O24 1.908409 1_565
Co9 O21 1.911287 1_555
Co9 O0 1.937855 1_555
Co10 O1 1.896514 1_555
Co10 O26 1.911400 1_555
Co10 O29 1.921834 1_555
Co10 O28 1.930103 1_555
Co10 O22 1.930457 1_555
Co10 O27 1.947422 1_555
Co11 O2 1.908232 1_555
Co11 O26 1.926216 1_555
Co11 O31 1.931004 1_655
Co11 O28 1.931206 1_555
Co11 O30 1.935142 1_555
Co11 O23 1.968160 1_555
