# generated using pymatgen
data_LiNiPO4
_symmetry_space_group_name_H-M   'P 1'
_cell_length_a   5.49464502
_cell_length_b   6.23961108
_cell_length_c   9.28187495
_cell_angle_alpha   105.10267002
_cell_angle_beta   80.98396444
_cell_angle_gamma   103.96264312
_symmetry_Int_Tables_number   1
_chemical_formula_structural   LiNiPO4
_chemical_formula_sum   'Li4 Ni4 P4 O16'
_cell_volume   296.65562232
_cell_formula_units_Z   4
loop_
 _symmetry_equiv_pos_site_id
 _symmetry_equiv_pos_as_xyz
  1  'x, y, z'
loop_
 _atom_site_type_symbol
 _atom_site_label
 _atom_site_symmetry_multiplicity
 _atom_site_fract_x
 _atom_site_fract_y
 _atom_site_fract_z
 _atom_site_occupancy
  Li  Li0  1  0.29387200  0.35332300  0.08189100  1
  Li  Li1  1  0.70638100  0.64664800  0.91795200  1
  Li  Li2  1  0.80753700  0.47756200  0.25427500  1
  Li  Li3  1  0.19270100  0.52253400  0.74573000  1
  Ni  Ni0  1  0.31481300  0.06482600  0.78573800  1
  Ni  Ni1  1  0.22559500  0.16615900  0.41376300  1
  Ni  Ni2  1  0.68511600  0.93517800  0.21417900  1
  Ni  Ni3  1  0.77428500  0.83372600  0.58620500  1
  P  P0  1  0.18734800  0.83201100  0.07666900  1
  P  P1  1  0.81266200  0.16803700  0.92332500  1
  P  P2  1  0.31855800  0.69943400  0.45227800  1
  P  P3  1  0.68135400  0.30052600  0.54777600  1
  O  O0  1  0.39099300  0.70815800  0.09909800  1
  O  O1  1  0.60896100  0.29177200  0.90085400  1
  O  O2  1  0.91264600  0.70229500  0.11654000  1
  O  O3  1  0.08737200  0.29777500  0.88347000  1
  O  O4  1  0.79162100  0.16721500  0.09143500  1
  O  O5  1  0.20832000  0.83298000  0.90860200  1
  O  O6  1  0.22709400  0.07525700  0.17842100  1
  O  O7  1  0.77306800  0.92478500  0.82157000  1
  O  O8  1  0.14113700  0.84950900  0.43750200  1
  O  O9  1  0.85867600  0.15033200  0.56255000  1
  O  O10  1  0.59444500  0.75580300  0.37458200  1
  O  O11  1  0.40538900  0.24418500  0.62537100  1
  O  O12  1  0.19363100  0.45569400  0.38212800  1
  O  O13  1  0.80631500  0.54423300  0.61805100  1
  O  O14  1  0.63364700  0.25094400  0.37823800  1
  O  O15  1  0.36646600  0.74910000  0.62180900  1
loop_
_geom_bond_atom_site_label_1
_geom_bond_atom_site_label_2
_geom_bond_distance
_geom_bond_site_symmetry_2
Li0 O6 2.085074 1_555
Li0 O0 2.117664 1_555
Li0 O3 2.220814 1_554
Li0 O1 2.245283 1_554
Li1 O7 2.084670 1_555
Li1 O1 2.118090 1_555
Li1 O2 2.221269 1_556
Li1 O0 2.246973 1_556
Li2 O14 2.021757 1_555
Li2 O2 2.060628 1_555
Li2 O4 2.115774 1_555
Li2 O10 2.278797 1_555
Li3 O15 2.021107 1_555
Li3 O3 2.060812 1_555
Li3 O5 2.116473 1_555
Li3 O11 2.278032 1_555
Ni0 O5 1.994417 1_545
Ni0 O11 2.020616 1_555
Ni0 O3 2.081237 1_555
Ni0 O1 2.099395 1_555
Ni0 O15 2.202073 1_545
Ni1 O12 1.956151 1_555
Ni1 O8 1.979880 1_545
Ni1 O6 2.108181 1_555
Ni1 O14 2.168501 1_555
Ni1 O11 2.224522 1_555
Ni1 O9 2.254758 1_455
Ni2 O4 1.994580 1_565
Ni2 O10 2.020965 1_555
Ni2 O2 2.081142 1_555
Ni2 O0 2.099318 1_555
Ni2 O14 2.202549 1_565
Ni3 O13 1.956809 1_555
Ni3 O9 1.979362 1_565
Ni3 O7 2.108532 1_555
Ni3 O15 2.167289 1_555
Ni3 O10 2.224857 1_555
Ni3 O8 2.254094 1_655
O0 P0 1.570592 1_555
O1 P1 1.570486 1_555
O2 P0 1.569003 1_655
O3 P1 1.569053 1_455
O4 P1 1.547743 1_554
O5 P0 1.547605 1_556
O6 P0 1.549515 1_545
O7 P1 1.549555 1_565
O8 P2 1.547707 1_555
O9 P3 1.547850 1_555
O10 P2 1.572890 1_555
O11 P3 1.572887 1_555
O12 P2 1.525904 1_555
O13 P3 1.526072 1_555
O14 P3 1.573912 1_555
O15 P2 1.574099 1_555
