# generated using pymatgen
data_Mn3CoCu2(PO4)6
_symmetry_space_group_name_H-M   'P 1'
_cell_length_a   8.49044783
_cell_length_b   8.47257933
_cell_length_c   8.47257920
_cell_angle_alpha   59.99999971
_cell_angle_beta   60.06959648
_cell_angle_gamma   60.06959660
_symmetry_Int_Tables_number   1
_chemical_formula_structural   Mn3CoCu2(PO4)6
_chemical_formula_sum   'Mn3 Co1 Cu2 P6 O24'
_cell_volume   431.42264444
_cell_formula_units_Z   1
loop_
 _symmetry_equiv_pos_site_id
 _symmetry_equiv_pos_as_xyz
  1  'x, y, z'
loop_
 _atom_site_type_symbol
 _atom_site_label
 _atom_site_symmetry_multiplicity
 _atom_site_fract_x
 _atom_site_fract_y
 _atom_site_fract_z
 _atom_site_occupancy
  Mn  Mn0  1  0.07307800  0.64230800  0.64230800  1
  Mn  Mn1  1  0.42519400  0.85826900  0.85826900  1
  Mn  Mn2  1  0.92656400  0.35781200  0.35781200  1
  Co  Co0  1  0.57808800  0.14063800  0.14063800  1
  Cu  Cu0  1  0.99419300  0.00193600  0.00193600  1
  Cu  Cu1  1  0.49930300  0.50023200  0.50023200  1
  P  P0  1  0.25302400  0.24903600  0.53516300  1
  P  P1  1  0.25302400  0.96277600  0.24903600  1
  P  P2  1  0.25302400  0.53516300  0.96277600  1
  P  P3  1  0.74919700  0.45896400  0.03903600  1
  P  P4  1  0.74919700  0.03903600  0.75280300  1
  P  P5  1  0.74919700  0.75280300  0.45896400  1
  O  O0  1  0.06416500  0.12308300  0.30268600  1
  O  O1  1  0.06416500  0.51006700  0.12308300  1
  O  O2  1  0.06416500  0.30268600  0.51006700  1
  O  O3  1  0.23595200  0.08212700  0.73640300  1
  O  O4  1  0.43812700  0.19787000  0.37419500  1
  O  O5  1  0.26294800  0.41956500  0.55403700  1
  O  O6  1  0.23595200  0.94551800  0.08212700  1
  O  O7  1  0.26294800  0.76345000  0.41956500  1
  O  O8  1  0.56386500  0.62307800  0.01038000  1
  O  O9  1  0.26294800  0.55403700  0.76345000  1
  O  O10  1  0.76217200  0.26147000  0.05566600  1
  O  O11  1  0.56386500  0.01038000  0.80267700  1
  O  O12  1  0.43812700  0.98980800  0.19787000  1
  O  O13  1  0.23595200  0.73640300  0.94551800  1
  O  O14  1  0.73645900  0.44539900  0.23660300  1
  O  O15  1  0.43812700  0.37419500  0.98980800  1
  O  O16  1  0.73645900  0.23660300  0.58153900  1
  O  O17  1  0.76217200  0.05566600  0.92069400  1
  O  O18  1  0.73645900  0.58153900  0.44539900  1
  O  O19  1  0.56386500  0.80267700  0.62307800  1
  O  O20  1  0.76217200  0.92069400  0.26147000  1
  O  O21  1  0.93528600  0.69825900  0.48978500  1
  O  O22  1  0.93528600  0.48978500  0.87667000  1
  O  O23  1  0.93528600  0.87667000  0.69825900  1
loop_
_geom_bond_atom_site_label_1
_geom_bond_atom_site_label_2
_geom_bond_distance
_geom_bond_site_symmetry_2
Mn0 O23 1.898933 1_455
Mn0 O22 1.898940 1_455
Mn0 O21 1.898947 1_455
Mn0 O9 1.972818 1_555
Mn0 O7 1.972822 1_555
Mn0 O5 1.972830 1_555
Mn1 O11 1.903359 1_565
Mn1 O8 1.903362 1_556
Mn1 O19 1.903366 1_555
Mn1 O6 1.975137 1_556
Mn1 O3 1.975140 1_565
Mn1 O13 1.975143 1_555
Mn2 O0 1.898423 1_655
Mn2 O1 1.898427 1_655
Mn2 O2 1.898430 1_655
Mn2 O14 1.976691 1_555
Mn2 O16 1.976691 1_555
Mn2 O18 1.976691 1_555
Co0 O4 1.897631 1_555
Co0 O15 1.897638 1_554
Co0 O12 1.897645 1_545
Co0 O10 1.935470 1_555
Co0 O20 1.935470 1_545
Co0 O17 1.935471 1_554
Cu0 O17 2.169484 1_554
Cu0 O20 2.169488 1_545
Cu0 O10 2.169490 1_555
Cu0 O6 2.234110 1_645
Cu0 O3 2.234114 1_654
Cu0 O13 2.234116 1_644
Cu1 O5 2.201410 1_555
Cu1 O7 2.201414 1_555
Cu1 O9 2.201416 1_555
Cu1 O14 2.208042 1_555
Cu1 O16 2.208044 1_555
Cu1 O18 2.208047 1_555
O0 P1 1.529477 1_545
O1 P2 1.529473 1_554
O2 P0 1.529468 1_555
O3 P0 1.573118 1_555
O4 P0 1.513391 1_555
O5 P0 1.576753 1_555
O6 P1 1.573113 1_555
O7 P1 1.576748 1_555
O8 P3 1.526005 1_555
O9 P2 1.576744 1_555
O10 P3 1.558090 1_555
O11 P4 1.526005 1_555
O12 P1 1.513395 1_555
O13 P2 1.573121 1_555
O14 P3 1.570421 1_555
O15 P2 1.513393 1_555
O16 P4 1.570421 1_555
O17 P4 1.558107 1_555
O18 P5 1.570421 1_555
O19 P5 1.526005 1_555
O20 P5 1.558097 1_555
O21 P5 1.529873 1_555
O22 P3 1.529873 1_556
O23 P4 1.529873 1_565
