# generated using pymatgen
data_Nb3Al
_symmetry_space_group_name_H-M   'P 1'
_cell_length_a   5.20732441
_cell_length_b   5.20732441
_cell_length_c   5.20732441
_cell_angle_alpha   90.00000000
_cell_angle_beta   90.00000000
_cell_angle_gamma   90.00000000
_symmetry_Int_Tables_number   1
_chemical_formula_structural   Nb3Al
_chemical_formula_sum   'Nb6 Al2'
_cell_volume   141.20299343
_cell_formula_units_Z   2
loop_
 _symmetry_equiv_pos_site_id
 _symmetry_equiv_pos_as_xyz
  1  'x, y, z'
loop_
 _atom_site_type_symbol
 _atom_site_label
 _atom_site_symmetry_multiplicity
 _atom_site_fract_x
 _atom_site_fract_y
 _atom_site_fract_z
 _atom_site_occupancy
  Nb  Nb0  1  0.25000000  0.00000000  0.50000000  1
  Nb  Nb1  1  0.75000000  -0.00000000  0.50000000  1
  Nb  Nb2  1  -0.00000000  0.50000000  0.25000000  1
  Nb  Nb3  1  -0.00000000  0.50000000  0.75000000  1
  Nb  Nb4  1  0.50000000  0.75000000  -0.00000000  1
  Nb  Nb5  1  0.50000000  0.25000000  -0.00000000  1
  Al  Al0  1  -0.00000000  0.00000000  -0.00000000  1
  Al  Al1  1  0.50000000  0.50000000  0.50000000  1
loop_
_geom_bond_atom_site_label_1
_geom_bond_atom_site_label_2
_geom_bond_distance
_geom_bond_site_symmetry_2
Nb0 Nb1 2.603662 1_455
Nb0 Nb1 2.603662 1_555
Nb0 Nb2 3.188822 1_545
Nb0 Nb4 3.188822 1_546
Nb0 Nb3 3.188822 1_555
Nb0 Nb3 3.188822 1_545
Nb0 Nb4 3.188822 1_545
Nb0 Nb5 3.188822 1_556
Nb0 Nb2 3.188822 1_555
Nb0 Nb5 3.188822 1_555
Nb1 Nb3 3.188822 1_645
Nb1 Nb2 3.188822 1_655
Nb1 Nb4 3.188822 1_545
Nb1 Nb5 3.188822 1_556
Nb1 Nb3 3.188822 1_655
Nb1 Nb5 3.188822 1_555
Nb1 Nb2 3.188822 1_645
Nb1 Nb4 3.188822 1_546
Nb2 Nb3 2.603662 1_555
Nb2 Nb3 2.603662 1_554
Nb2 Nb4 3.188822 1_455
Nb2 Nb4 3.188822 1_555
Nb2 Nb5 3.188822 1_455
Nb2 Nb5 3.188822 1_555
Nb3 Nb4 3.188822 1_456
Nb3 Nb4 3.188822 1_556
Nb3 Nb5 3.188822 1_556
Nb3 Nb5 3.188822 1_456
Nb4 Nb5 2.603662 1_555
Nb4 Nb5 2.603662 1_565
Al0 Nb0 2.910983 1_555
Al0 Nb0 2.910983 1_554
Al0 Nb1 2.910983 1_455
Al0 Nb1 2.910983 1_454
Al0 Nb5 2.910983 1_555
Al0 Nb4 2.910983 1_545
Al0 Nb3 2.910983 1_544
Al0 Nb5 2.910983 1_455
Al0 Nb3 2.910983 1_554
Al0 Nb2 2.910983 1_555
Al0 Nb4 2.910983 1_445
Al0 Nb2 2.910983 1_545
Al1 Nb3 2.910983 1_555
Al1 Nb0 2.910983 1_555
Al1 Nb0 2.910983 1_565
Al1 Nb4 2.910983 1_556
Al1 Nb4 2.910983 1_555
Al1 Nb1 2.910983 1_555
Al1 Nb3 2.910983 1_655
Al1 Nb2 2.910983 1_555
Al1 Nb5 2.910983 1_556
Al1 Nb5 2.910983 1_555
Al1 Nb1 2.910983 1_565
Al1 Nb2 2.910983 1_655
