# generated using pymatgen
data_Li2Mn2Si2O7
_symmetry_space_group_name_H-M   'P 1'
_cell_length_a   13.42035600
_cell_length_b   5.54640000
_cell_length_c   10.18007087
_cell_angle_alpha   57.10911196
_cell_angle_beta   90.00000000
_cell_angle_gamma   90.00000000
_symmetry_Int_Tables_number   1
_chemical_formula_structural   Li2Mn2Si2O7
_chemical_formula_sum   'Li8 Mn8 Si8 O28'
_cell_volume   636.28751813
_cell_formula_units_Z   4
loop_
 _symmetry_equiv_pos_site_id
 _symmetry_equiv_pos_as_xyz
  1  'x, y, z'
loop_
 _atom_site_type_symbol
 _atom_site_label
 _atom_site_symmetry_multiplicity
 _atom_site_fract_x
 _atom_site_fract_y
 _atom_site_fract_z
 _atom_site_occupancy
  Li  Li0  1  0.35672200  0.72770800  0.11736100  1
  Li  Li1  1  0.74311500  0.03402500  0.16777200  1
  Li  Li2  1  0.24311500  0.96597500  0.33222800  1
  Li  Li3  1  0.85672200  0.27229200  0.38263900  1
  Li  Li4  1  0.14327800  0.72770800  0.61736100  1
  Li  Li5  1  0.75688500  0.03402500  0.66777200  1
  Li  Li6  1  0.25688500  0.96597500  0.83222800  1
  Li  Li7  1  0.64327800  0.27229200  0.88263900  1
  Mn  Mn0  1  0.08612300  0.54303100  0.11322400  1
  Mn  Mn1  1  0.49089200  0.15962200  0.19794700  1
  Mn  Mn2  1  0.99089200  0.84037800  0.30205300  1
  Mn  Mn3  1  0.58612300  0.45696900  0.38677600  1
  Mn  Mn4  1  0.41387700  0.54303100  0.61322400  1
  Mn  Mn5  1  0.00910800  0.15962200  0.69794700  1
  Mn  Mn6  1  0.50910800  0.84037800  0.80205300  1
  Mn  Mn7  1  0.91387700  0.45696900  0.88677600  1
  Si  Si0  1  0.88218600  0.77989700  0.04157800  1
  Si  Si1  1  0.67311200  0.64271600  0.04080800  1
  Si  Si2  1  0.17311200  0.35728400  0.45919200  1
  Si  Si3  1  0.38218600  0.22010300  0.45842200  1
  Si  Si4  1  0.61781400  0.77989700  0.54157800  1
  Si  Si5  1  0.82688800  0.64271600  0.54080800  1
  Si  Si6  1  0.32688800  0.35728400  0.95919200  1
  Si  Si7  1  0.11781400  0.22010300  0.95842200  1
  O  O0  1  0.79468900  0.56772200  0.03858300  1
  O  O1  1  0.16845800  0.92114500  0.00160400  1
  O  O2  1  0.03520300  0.19745200  0.08554700  1
  O  O3  1  0.61952100  0.35033600  0.06766700  1
  O  O4  1  0.35717100  0.07226400  0.13110300  1
  O  O5  1  0.65827600  0.70952300  0.17684800  1
  O  O6  1  0.93845300  0.59558800  0.21296600  1
  O  O7  1  0.43845300  0.40441200  0.28703400  1
  O  O8  1  0.15827600  0.29047700  0.32315200  1
  O  O9  1  0.85717100  0.92773600  0.36889700  1
  O  O10  1  0.11952100  0.64966400  0.43233300  1
  O  O11  1  0.53520300  0.80254800  0.41445300  1
  O  O12  1  0.66845800  0.07885500  0.49839600  1
  O  O13  1  0.29468900  0.43227800  0.46141700  1
  O  O14  1  0.70531100  0.56772200  0.53858300  1
  O  O15  1  0.33154200  0.92114500  0.50160400  1
  O  O16  1  0.46479700  0.19745200  0.58554700  1
  O  O17  1  0.88047900  0.35033600  0.56766700  1
  O  O18  1  0.14282900  0.07226400  0.63110300  1
  O  O19  1  0.84172400  0.70952300  0.67684800  1
  O  O20  1  0.56154700  0.59558800  0.71296600  1
  O  O21  1  0.06154700  0.40441200  0.78703400  1
  O  O22  1  0.34172400  0.29047700  0.82315200  1
  O  O23  1  0.64282900  0.92773600  0.86889700  1
  O  O24  1  0.38047900  0.64966400  0.93233300  1
  O  O25  1  0.96479700  0.80254800  0.91445300  1
  O  O26  1  0.83154200  0.07885500  0.99839600  1
  O  O27  1  0.20531100  0.43227800  0.96141700  1
loop_
_geom_bond_atom_site_label_1
_geom_bond_atom_site_label_2
_geom_bond_distance
_geom_bond_site_symmetry_2
Li0 O4 1.990492 1_565
Li0 O7 2.009493 1_555
Li0 O24 2.173129 1_554
Li1 O26 1.994385 1_554
Li1 O5 2.088927 1_545
Li1 O3 2.219423 1_555
Li1 O9 2.360442 1_545
Li2 O15 1.994385 1_555
Li2 O8 2.088927 1_565
Li2 O10 2.219423 1_555
Li2 O4 2.360442 1_565
Li3 O9 1.990492 1_545
Li3 O6 2.009493 1_555
Li3 O17 2.173129 1_555
Li4 O18 1.990492 1_565
Li4 O21 2.009493 1_555
Li4 O10 2.173129 1_555
Li5 O12 1.994385 1_555
Li5 O19 2.088927 1_545
Li5 O17 2.219423 1_555
Li5 O23 2.360442 1_545
Li6 O1 1.994385 1_556
Li6 O22 2.088927 1_565
Li6 O24 2.219423 1_555
Li6 O18 2.360442 1_565
Li7 O23 1.990492 1_545
Li7 O20 2.009493 1_555
Li7 O3 2.173129 1_556
Mn0 O8 2.053208 1_555
Mn0 O1 2.078967 1_555
Mn0 O2 2.192422 1_555
Mn0 O6 2.316226 1_455
Mn0 O25 2.377863 1_454
Mn0 O27 2.520952 1_554
Mn1 O4 2.067953 1_555
Mn1 O3 2.081858 1_555
Mn1 O11 2.095930 1_545
Mn1 O7 2.120949 1_555
Mn2 O9 2.067953 1_555
Mn2 O10 2.081858 1_655
Mn2 O2 2.095930 1_665
Mn2 O6 2.120949 1_555
Mn3 O5 2.053208 1_555
Mn3 O12 2.078967 1_555
Mn3 O11 2.192422 1_555
Mn3 O7 2.316226 1_555
Mn3 O16 2.377863 1_555
Mn3 O14 2.520952 1_555
Mn4 O22 2.053208 1_555
Mn4 O15 2.078967 1_555
Mn4 O16 2.192422 1_555
Mn4 O20 2.316226 1_555
Mn4 O11 2.377863 1_555
Mn4 O13 2.520952 1_555
Mn5 O18 2.067953 1_555
Mn5 O17 2.081858 1_455
Mn5 O25 2.095930 1_445
Mn5 O21 2.120949 1_555
Mn6 O23 2.067953 1_555
Mn6 O24 2.081858 1_555
Mn6 O16 2.095930 1_565
Mn6 O20 2.120949 1_555
Mn7 O19 2.053208 1_555
Mn7 O26 2.078967 1_555
Mn7 O25 2.192422 1_555
Mn7 O21 2.316226 1_655
Mn7 O2 2.377863 1_656
Mn7 O0 2.520952 1_556
O0 Si0 1.674400 1_555
O0 Si1 1.686979 1_555
O1 Si7 1.616464 1_564
O2 Si7 1.656246 1_554
O3 Si1 1.655362 1_555
O4 Si6 1.649916 1_554
O5 Si1 1.628561 1_555
O6 Si0 1.649920 1_555
O7 Si3 1.649920 1_555
O8 Si2 1.628561 1_555
O9 Si5 1.649916 1_555
O10 Si2 1.655362 1_555
O11 Si4 1.656246 1_555
O12 Si4 1.616464 1_545
O13 Si3 1.674400 1_555
O13 Si2 1.686979 1_555
O14 Si4 1.674400 1_555
O14 Si5 1.686979 1_555
O15 Si3 1.616464 1_565
O16 Si3 1.656246 1_555
O17 Si5 1.655362 1_555
O18 Si2 1.649916 1_555
O19 Si5 1.628561 1_555
O20 Si4 1.649920 1_555
O21 Si7 1.649920 1_555
O22 Si6 1.628561 1_555
O23 Si1 1.649916 1_556
O24 Si6 1.655362 1_555
O25 Si0 1.656246 1_556
O26 Si0 1.616464 1_546
O27 Si7 1.674400 1_555
O27 Si6 1.686979 1_555
