# generated using pymatgen
data_Li4VFe3O8
_symmetry_space_group_name_H-M   'P 1'
_cell_length_a   5.96706045
_cell_length_b   5.96616689
_cell_length_c   8.47251032
_cell_angle_alpha   134.97850354
_cell_angle_beta   89.97931073
_cell_angle_gamma   119.86706378
_symmetry_Int_Tables_number   1
_chemical_formula_structural   Li4VFe3O8
_chemical_formula_sum   'Li4 V1 Fe3 O8'
_cell_volume   151.60567928
_cell_formula_units_Z   1
loop_
 _symmetry_equiv_pos_site_id
 _symmetry_equiv_pos_as_xyz
  1  'x, y, z'
loop_
 _atom_site_type_symbol
 _atom_site_label
 _atom_site_symmetry_multiplicity
 _atom_site_fract_x
 _atom_site_fract_y
 _atom_site_fract_z
 _atom_site_occupancy
  Li  Li0  1  0.49644300  0.50589500  0.50218000  1
  Li  Li1  1  0.00009900  0.00061500  0.50059700  1
  Li  Li2  1  0.99175100  0.49566700  0.49876600  1
  Li  Li3  1  0.49916600  0.00083500  0.50057200  1
  V  V0  1  0.99957500  0.00087400  0.00050100  1
  Fe  Fe0  1  0.49976400  0.00111700  0.00074300  1
  Fe  Fe1  1  0.49960200  0.49978400  0.99984500  1
  Fe  Fe2  1  0.00097300  0.50245600  0.00150400  1
  O  O0  1  0.01281000  0.52929500  0.77102700  1
  O  O1  1  0.51702000  0.03338700  0.77487700  1
  O  O2  1  0.01250700  0.02596800  0.76987500  1
  O  O3  1  0.51433400  0.52768400  0.76996700  1
  O  O4  1  0.48366800  0.96896900  0.22658100  1
  O  O5  1  0.98699300  0.47303800  0.23059100  1
  O  O6  1  0.48510000  0.47419400  0.23101600  1
  O  O7  1  0.98697700  0.97626900  0.23141300  1
loop_
_geom_bond_atom_site_label_1
_geom_bond_atom_site_label_2
_geom_bond_distance
_geom_bond_site_symmetry_2
Li0 O1 2.143281 1_565
Li0 O7 2.163123 1_445
Li0 O6 2.166026 1_555
Li0 O3 2.178366 1_555
Li0 O2 2.189580 1_665
Li0 O4 2.214145 1_545
Li1 O5 2.173124 1_445
Li1 O2 2.175899 1_555
Li1 O7 2.179254 1_445
Li1 O0 2.179360 1_555
Li1 O3 2.182147 1_555
Li1 O6 2.185345 1_445
Li2 O2 2.153536 1_665
Li2 O4 2.157820 1_545
Li2 O0 2.167467 1_655
Li2 O7 2.173352 1_545
Li2 O5 2.178099 1_555
Li2 O1 2.229219 1_665
Li3 O3 2.161585 1_555
Li3 O6 2.165261 1_545
Li3 O5 2.173856 1_445
Li3 O0 2.180005 1_655
Li3 O1 2.189014 1_555
Li3 O4 2.189129 1_545
Fe0 O4 2.051219 1_545
Fe0 O1 2.051997 1_554
Fe0 O6 2.059506 1_555
Fe0 O3 2.060544 1_544
Fe0 O0 2.065781 1_544
Fe0 O5 2.066952 1_555
Fe1 O1 2.043709 1_555
Fe1 O4 2.048928 1_556
Fe1 O2 2.066330 1_555
Fe1 O3 2.066970 1_555
Fe1 O7 2.067266 1_556
Fe1 O6 2.067935 1_556
Fe2 O4 2.048277 1_555
Fe2 O1 2.053392 1_454
Fe2 O7 2.059866 1_455
Fe2 O2 2.060465 1_554
Fe2 O5 2.066859 1_455
Fe2 O0 2.067464 1_554
O0 V0 2.047027 1_466
O2 V0 2.061154 1_456
O3 V0 2.058204 1_566
O5 V0 2.046623 1_555
O6 V0 2.059435 1_455
O7 V0 2.061462 1_565
