# generated using pymatgen
data_Ta3O7F
_symmetry_space_group_name_H-M   'P 1'
_cell_length_a   6.25869656
_cell_length_b   6.25869656
_cell_length_c   3.84792555
_cell_angle_alpha   90.00000000
_cell_angle_beta   90.00000000
_cell_angle_gamma   62.00690847
_symmetry_Int_Tables_number   1
_chemical_formula_structural   Ta3O7F
_chemical_formula_sum   'Ta3 O7 F1'
_cell_volume   133.09361427
_cell_formula_units_Z   1
loop_
 _symmetry_equiv_pos_site_id
 _symmetry_equiv_pos_as_xyz
  1  'x, y, z'
loop_
 _atom_site_type_symbol
 _atom_site_label
 _atom_site_symmetry_multiplicity
 _atom_site_fract_x
 _atom_site_fract_y
 _atom_site_fract_z
 _atom_site_occupancy
  Ta  Ta0  1  -0.00000000  -0.00000000  0.00000000  1
  Ta  Ta1  1  0.30217207  0.30217207  0.00000000  1
  Ta  Ta2  1  0.69782793  0.69782793  -0.00000000  1
  O  O0  1  0.04484711  0.66238413  0.00000000  1
  O  O1  1  0.33761587  0.95515289  0.00000000  1
  O  O2  1  -0.00000000  -0.00000000  0.50000000  1
  O  O3  1  0.31509727  0.31509727  0.50000000  1
  O  O4  1  0.68490273  0.68490273  0.50000000  1
  O  O5  1  0.95515289  0.33761587  0.00000000  1
  O  O6  1  0.66238413  0.04484711  0.00000000  1
  F  F0  1  0.50000000  0.50000000  0.00000000  1
loop_
_geom_bond_atom_site_label_1
_geom_bond_atom_site_label_2
_geom_bond_distance
_geom_bond_site_symmetry_2
O0 Ta0 1.996733 1_565
O0 Ta1 2.065906 1_555
O0 Ta2 2.077025 1_455
O1 Ta0 1.996733 1_565
O1 Ta2 2.065906 1_555
O1 Ta1 2.077025 1_565
O2 Ta0 1.923963 1_556
O2 Ta0 1.923963 1_555
O3 Ta1 1.928954 1_555
O3 Ta1 1.928954 1_556
O4 Ta2 1.928954 1_556
O4 Ta2 1.928954 1_555
O5 Ta0 1.996733 1_655
O5 Ta2 2.065906 1_555
O5 Ta1 2.077025 1_655
O6 Ta0 1.996733 1_655
O6 Ta1 2.065906 1_555
O6 Ta2 2.077025 1_545
F0 Ta2 2.122518 1_555
F0 Ta1 2.122518 1_555
