# generated using pymatgen
data_CuH16C4(N5O)2
_symmetry_space_group_name_H-M   'P 1'
_cell_length_a   7.14899400
_cell_length_b   7.24181400
_cell_length_c   22.53060300
_cell_angle_alpha   90.00000000
_cell_angle_beta   90.00000000
_cell_angle_gamma   90.00000000
_symmetry_Int_Tables_number   1
_chemical_formula_structural   CuH16C4(N5O)2
_chemical_formula_sum   'Cu4 H64 C16 N40 O8'
_cell_volume   1166.44727766
_cell_formula_units_Z   4
loop_
 _symmetry_equiv_pos_site_id
 _symmetry_equiv_pos_as_xyz
  1  'x, y, z'
loop_
 _atom_site_type_symbol
 _atom_site_label
 _atom_site_symmetry_multiplicity
 _atom_site_fract_x
 _atom_site_fract_y
 _atom_site_fract_z
 _atom_site_occupancy
  Cu  Cu0  1  0.50000000  0.00000000  0.00000000  1
  Cu  Cu1  1  0.00000000  0.00000000  0.50000000  1
  Cu  Cu2  1  0.00000000  0.50000000  0.00000000  1
  Cu  Cu3  1  0.50000000  0.50000000  0.50000000  1
  H  H0  1  0.63973300  0.04603600  0.78402700  1
  H  H1  1  0.13973300  0.04603600  0.71597300  1
  H  H2  1  0.58405900  0.03864500  0.63800100  1
  H  H3  1  0.08405900  0.03864500  0.86199900  1
  H  H4  1  0.64979900  0.07216600  0.56441900  1
  H  H5  1  0.14979900  0.07216600  0.93558100  1
  H  H6  1  0.28908400  0.14778900  0.17908700  1
  H  H7  1  0.78908400  0.14778900  0.32091300  1
  H  H8  1  0.33638900  0.17882600  0.08455600  1
  H  H9  1  0.83638900  0.17882600  0.41544400  1
  H  H10  1  0.86997600  0.16208900  0.00084300  1
  H  H11  1  0.36997600  0.16208900  0.49915700  1
  H  H12  1  0.80209900  0.21847500  0.69196500  1
  H  H13  1  0.30209900  0.21847500  0.80803500  1
  H  H14  1  0.59909900  0.20086000  0.20485500  1
  H  H15  1  0.09909900  0.20086000  0.29514500  1
  H  H16  1  0.59909900  0.29914000  0.70485500  1
  H  H17  1  0.09909900  0.29914000  0.79514500  1
  H  H18  1  0.80209900  0.28152500  0.19196500  1
  H  H19  1  0.30209900  0.28152500  0.30803500  1
  H  H20  1  0.86997600  0.33791100  0.50084300  1
  H  H21  1  0.36997600  0.33791100  0.99915700  1
  H  H22  1  0.33638900  0.32117400  0.58455600  1
  H  H23  1  0.83638900  0.32117400  0.91544400  1
  H  H24  1  0.28908400  0.35221100  0.67908700  1
  H  H25  1  0.78908400  0.35221100  0.82091300  1
  H  H26  1  0.64979900  0.42783400  0.06441900  1
  H  H27  1  0.14979900  0.42783400  0.43558100  1
  H  H28  1  0.58405900  0.46135500  0.13800100  1
  H  H29  1  0.08405900  0.46135500  0.36199900  1
  H  H30  1  0.63973300  0.45396400  0.28402700  1
  H  H31  1  0.13973300  0.45396400  0.21597300  1
  H  H32  1  0.86026700  0.54603600  0.78402700  1
  H  H33  1  0.36026700  0.54603600  0.71597300  1
  H  H34  1  0.91594100  0.53864500  0.63800100  1
  H  H35  1  0.41594100  0.53864500  0.86199900  1
  H  H36  1  0.35020100  0.57216600  0.93558100  1
  H  H37  1  0.85020100  0.57216600  0.56441900  1
  H  H38  1  0.71091600  0.64778900  0.32091300  1
  H  H39  1  0.21091600  0.64778900  0.17908700  1
  H  H40  1  0.16361100  0.67882600  0.08455600  1
  H  H41  1  0.66361100  0.67882600  0.41544400  1
  H  H42  1  0.63002400  0.66208900  0.00084300  1
  H  H43  1  0.13002400  0.66208900  0.49915700  1
  H  H44  1  0.69790100  0.71847500  0.69196500  1
  H  H45  1  0.19790100  0.71847500  0.80803500  1
  H  H46  1  0.40090100  0.70086000  0.29514500  1
  H  H47  1  0.90090100  0.70086000  0.20485500  1
  H  H48  1  0.90090100  0.79914000  0.70485500  1
  H  H49  1  0.40090100  0.79914000  0.79514500  1
  H  H50  1  0.19790100  0.78152500  0.30803500  1
  H  H51  1  0.69790100  0.78152500  0.19196500  1
  H  H52  1  0.63002400  0.83791100  0.50084300  1
  H  H53  1  0.13002400  0.83791100  0.99915700  1
  H  H54  1  0.16361100  0.82117400  0.58455600  1
  H  H55  1  0.66361100  0.82117400  0.91544400  1
  H  H56  1  0.21091600  0.85221100  0.67908700  1
  H  H57  1  0.71091600  0.85221100  0.82091300  1
  H  H58  1  0.85020100  0.92783400  0.06441900  1
  H  H59  1  0.35020100  0.92783400  0.43558100  1
  H  H60  1  0.91594100  0.96135500  0.13800100  1
  H  H61  1  0.41594100  0.96135500  0.36199900  1
  H  H62  1  0.86026700  0.95396400  0.28402700  1
  H  H63  1  0.36026700  0.95396400  0.21597300  1
  C  C0  1  0.07631600  0.04043500  0.62733100  1
  C  C1  1  0.57631600  0.04043500  0.87266900  1
  C  C2  1  0.95090800  0.18820700  0.08403000  1
  C  C3  1  0.45090800  0.18820700  0.41597000  1
  C  C4  1  0.95090800  0.31179300  0.58403000  1
  C  C5  1  0.45090800  0.31179300  0.91597000  1
  C  C6  1  0.07631600  0.45956500  0.12733100  1
  C  C7  1  0.57631600  0.45956500  0.37266900  1
  C  C8  1  0.92368400  0.54043500  0.87266900  1
  C  C9  1  0.42368400  0.54043500  0.62733100  1
  C  C10  1  0.54909200  0.68820700  0.08403000  1
  C  C11  1  0.04909200  0.68820700  0.41597000  1
  C  C12  1  0.54909200  0.81179300  0.58403000  1
  C  C13  1  0.04909200  0.81179300  0.91597000  1
  C  C14  1  0.42368400  0.95956500  0.12733100  1
  C  C15  1  0.92368400  0.95956500  0.37266900  1
  N  N0  1  0.92062600  0.00547300  0.09498800  1
  N  N1  1  0.42062600  0.00547300  0.40501200  1
  N  N2  1  0.38602400  0.04359000  0.18138200  1
  N  N3  1  0.88602400  0.04359000  0.31861800  1
  N  N4  1  0.39593100  0.05222600  0.07732700  1
  N  N5  1  0.89593100  0.05222600  0.42267300  1
  N  N6  1  0.01058400  0.21525800  0.63228900  1
  N  N7  1  0.51058400  0.21525800  0.86771100  1
  N  N8  1  0.92100700  0.24169500  0.53012700  1
  N  N9  1  0.42100700  0.24169500  0.96987300  1
  N  N10  1  0.92100700  0.25830500  0.03012700  1
  N  N11  1  0.42100700  0.25830500  0.46987300  1
  N  N12  1  0.01058400  0.28474200  0.13228900  1
  N  N13  1  0.51058400  0.28474200  0.36771100  1
  N  N14  1  0.39593100  0.44777400  0.57732700  1
  N  N15  1  0.89593100  0.44777400  0.92267300  1
  N  N16  1  0.38602400  0.45641000  0.68138200  1
  N  N17  1  0.88602400  0.45641000  0.81861800  1
  N  N18  1  0.92062600  0.49452700  0.59498800  1
  N  N19  1  0.42062600  0.49452700  0.90501200  1
  N  N20  1  0.57937400  0.50547300  0.09498800  1
  N  N21  1  0.07937400  0.50547300  0.40501200  1
  N  N22  1  0.61397600  0.54359000  0.31861800  1
  N  N23  1  0.11397600  0.54359000  0.18138200  1
  N  N24  1  0.60406900  0.55222600  0.42267300  1
  N  N25  1  0.10406900  0.55222600  0.07732700  1
  N  N26  1  0.48941600  0.71525800  0.63228900  1
  N  N27  1  0.98941600  0.71525800  0.86771100  1
  N  N28  1  0.57899300  0.74169500  0.53012700  1
  N  N29  1  0.07899300  0.74169500  0.96987300  1
  N  N30  1  0.57899300  0.75830500  0.03012700  1
  N  N31  1  0.07899300  0.75830500  0.46987300  1
  N  N32  1  0.48941600  0.78474200  0.13228900  1
  N  N33  1  0.98941600  0.78474200  0.36771100  1
  N  N34  1  0.10406900  0.94777400  0.57732700  1
  N  N35  1  0.60406900  0.94777400  0.92267300  1
  N  N36  1  0.11397600  0.95641000  0.68138200  1
  N  N37  1  0.61397600  0.95641000  0.81861800  1
  N  N38  1  0.07937400  0.99452700  0.90501200  1
  N  N39  1  0.57937400  0.99452700  0.59498800  1
  O  O0  1  0.68247500  0.19202200  0.71263800  1
  O  O1  1  0.18247500  0.19202200  0.78736200  1
  O  O2  1  0.68247500  0.30797800  0.21263800  1
  O  O3  1  0.18247500  0.30797800  0.28736200  1
  O  O4  1  0.81752500  0.69202200  0.71263800  1
  O  O5  1  0.31752500  0.69202200  0.78736200  1
  O  O6  1  0.31752500  0.80797800  0.28736200  1
  O  O7  1  0.81752500  0.80797800  0.21263800  1
loop_
_geom_bond_atom_site_label_1
_geom_bond_atom_site_label_2
_geom_bond_distance
_geom_bond_site_symmetry_2
Cu0 N4 1.931814 1_555
Cu0 N35 1.931814 1_544
Cu0 N30 1.960417 1_545
Cu0 N9 1.960417 1_554
Cu1 N34 1.931814 1_545
Cu1 N5 1.931814 1_455
Cu1 N31 1.960417 1_545
Cu1 N8 1.960417 1_455
Cu2 N25 1.931814 1_555
Cu2 N15 1.931814 1_454
Cu2 N10 1.960417 1_455
Cu2 N29 1.960417 1_554
Cu3 N14 1.931814 1_555
Cu3 N24 1.931814 1_555
Cu3 N28 1.960417 1_555
Cu3 N11 1.960417 1_555
H0 N37 1.030812 1_545
H1 N36 1.030812 1_545
H2 N39 1.020965 1_545
H3 N38 1.020965 1_545
H4 N39 1.021745 1_545
H5 N38 1.021745 1_545
H6 N2 1.025846 1_555
H7 N3 1.025846 1_555
H8 N4 1.023849 1_555
H9 N5 1.023849 1_555
H10 N10 1.026602 1_555
H11 N11 1.026602 1_555
H12 O0 0.992470 1_555
H13 O1 0.992470 1_555
H14 O2 0.993874 1_555
H15 O3 0.993874 1_555
H16 O0 0.993874 1_555
H17 O1 0.993874 1_555
H18 O2 0.992470 1_555
H19 O3 0.992470 1_555
H20 N8 1.026602 1_555
H21 N9 1.026602 1_555
H22 N14 1.023849 1_555
H23 N15 1.023849 1_555
H24 N16 1.025846 1_555
H25 N17 1.025846 1_555
H26 N20 1.021745 1_555
H27 N21 1.021745 1_555
H28 N20 1.020965 1_555
H29 N21 1.020965 1_555
H30 N22 1.030812 1_555
H31 N23 1.030812 1_555
H32 N17 1.030812 1_555
H33 N16 1.030812 1_555
H34 N18 1.020965 1_555
H35 N19 1.020965 1_555
H36 N19 1.021745 1_555
H37 N18 1.021745 1_555
H38 N22 1.025846 1_555
H39 N23 1.025846 1_555
H40 N25 1.023849 1_555
H41 N24 1.023849 1_555
H42 N30 1.026602 1_555
H43 N31 1.026602 1_555
H44 O4 0.992470 1_555
H45 O5 0.992470 1_555
H46 O6 0.993874 1_555
H47 O7 0.993874 1_555
H48 O4 0.993874 1_555
H49 O5 0.993874 1_555
H50 O6 0.992470 1_555
H51 O7 0.992470 1_555
H52 N28 1.026602 1_555
H53 N29 1.026602 1_555
H54 N34 1.023849 1_555
H55 N35 1.023849 1_555
H56 N36 1.025846 1_555
H57 N37 1.025846 1_555
H58 N0 1.021745 1_565
H59 N1 1.021745 1_565
H60 N0 1.020965 1_565
H61 N1 1.020965 1_565
H62 N3 1.030812 1_565
H63 N2 1.030812 1_565
C0 N34 1.326244 1_545
C0 N6 1.355045 1_555
C0 N36 1.387729 1_545
C1 N35 1.326244 1_545
C1 N7 1.355045 1_555
C1 N37 1.387729 1_545
C2 N10 1.333536 1_555
C2 N12 1.361236 1_655
C2 N0 1.363456 1_555
C3 N11 1.333536 1_555
C3 N13 1.361236 1_555
C3 N1 1.363456 1_555
C4 N8 1.333536 1_555
C4 N6 1.361236 1_655
C4 N18 1.363456 1_555
C5 N9 1.333536 1_555
C5 N7 1.361236 1_555
C5 N19 1.363456 1_555
C6 N25 1.326244 1_555
C6 N12 1.355045 1_555
C6 N23 1.387729 1_555
C7 N24 1.326244 1_555
C7 N13 1.355045 1_555
C7 N22 1.387729 1_555
C8 N15 1.326244 1_555
C8 N27 1.355045 1_555
C8 N17 1.387729 1_555
C9 N14 1.326244 1_555
C9 N26 1.355045 1_555
C9 N16 1.387729 1_555
C10 N30 1.333536 1_555
C10 N32 1.361236 1_555
C10 N20 1.363456 1_555
C11 N31 1.333536 1_555
C11 N33 1.361236 1_455
C11 N21 1.363456 1_555
C12 N28 1.333536 1_555
C12 N26 1.361236 1_555
C12 N39 1.363456 1_555
C13 N29 1.333536 1_555
C13 N27 1.361236 1_455
C13 N38 1.363456 1_555
C14 N4 1.326244 1_565
C14 N32 1.355045 1_555
C14 N2 1.387729 1_565
C15 N5 1.326244 1_565
C15 N33 1.355045 1_555
C15 N3 1.387729 1_565
