# generated using pymatgen
data_V3P2O11
_symmetry_space_group_name_H-M   'P 1'
_cell_length_a   7.42157300
_cell_length_b   9.91557800
_cell_length_c   11.99354072
_cell_angle_alpha   79.21811269
_cell_angle_beta   90.00000000
_cell_angle_gamma   90.00000000
_symmetry_Int_Tables_number   1
_chemical_formula_structural   V3P2O11
_chemical_formula_sum   'V12 P8 O44'
_cell_volume   867.01395426
_cell_formula_units_Z   4
loop_
 _symmetry_equiv_pos_site_id
 _symmetry_equiv_pos_as_xyz
  1  'x, y, z'
loop_
 _atom_site_type_symbol
 _atom_site_label
 _atom_site_symmetry_multiplicity
 _atom_site_fract_x
 _atom_site_fract_y
 _atom_site_fract_z
 _atom_site_occupancy
  V  V0  1  0.20174500  0.48762200  0.16389800  1
  V  V1  1  0.86235400  0.06573700  0.26548900  1
  V  V2  1  0.29825500  0.98762200  0.16389800  1
  V  V3  1  0.63764600  0.56573700  0.26548900  1
  V  V4  1  0.31391100  0.17988000  0.31997800  1
  V  V5  1  0.18608900  0.67988000  0.31997800  1
  V  V6  1  0.81391100  0.32012000  0.68002200  1
  V  V7  1  0.68608900  0.82012000  0.68002200  1
  V  V8  1  0.36235400  0.43426300  0.73451100  1
  V  V9  1  0.70174500  0.01237800  0.83610200  1
  V  V10  1  0.13764600  0.93426300  0.73451100  1
  V  V11  1  0.79825500  0.51237800  0.83610200  1
  P  P0  1  0.80791500  0.35931300  0.09525700  1
  P  P1  1  0.69208500  0.85931300  0.09525700  1
  P  P2  1  0.70103200  0.25561800  0.42821500  1
  P  P3  1  0.79896800  0.75561800  0.42821500  1
  P  P4  1  0.20103200  0.24438200  0.57178500  1
  P  P5  1  0.29896800  0.74438200  0.57178500  1
  P  P6  1  0.30791500  0.14068700  0.90474300  1
  P  P7  1  0.19208500  0.64068700  0.90474300  1
  O  O0  1  0.24596300  0.11504500  0.03184000  1
  O  O1  1  0.78238300  0.20279500  0.14314800  1
  O  O2  1  0.25403700  0.61504500  0.03184000  1
  O  O3  1  0.00918200  0.39381500  0.09897600  1
  O  O4  1  0.71761700  0.70279500  0.14314800  1
  O  O5  1  0.68085600  0.44005100  0.15844800  1
  O  O6  1  0.49081800  0.89381500  0.09897600  1
  O  O7  1  0.81914400  0.94005100  0.15844800  1
  O  O8  1  0.11264600  0.07792800  0.25768800  1
  O  O9  1  0.44334900  0.03702600  0.26122700  1
  O  O10  1  0.32235000  0.31865200  0.21177800  1
  O  O11  1  0.38735400  0.57792800  0.25768800  1
  O  O12  1  0.05665100  0.53702600  0.26122700  1
  O  O13  1  0.17765000  0.81865200  0.21177800  1
  O  O14  1  0.86359500  0.19715400  0.37063300  1
  O  O15  1  0.63640500  0.69715400  0.37063300  1
  O  O16  1  0.68140600  0.41392100  0.38141600  1
  O  O17  1  0.53457600  0.17384100  0.40496400  1
  O  O18  1  0.81859400  0.91392100  0.38141600  1
  O  O19  1  0.96542400  0.67384100  0.40496400  1
  O  O20  1  0.21864800  0.25960300  0.44310700  1
  O  O21  1  0.71864800  0.24039700  0.55689300  1
  O  O22  1  0.28135200  0.75960300  0.44310700  1
  O  O23  1  0.78135200  0.74039700  0.55689300  1
  O  O24  1  0.03457600  0.32615900  0.59503600  1
  O  O25  1  0.18140600  0.08607900  0.61858400  1
  O  O26  1  0.46542400  0.82615900  0.59503600  1
  O  O27  1  0.31859400  0.58607900  0.61858400  1
  O  O28  1  0.36359500  0.30284600  0.62936700  1
  O  O29  1  0.13640500  0.80284600  0.62936700  1
  O  O30  1  0.82235000  0.18134800  0.78822200  1
  O  O31  1  0.94334900  0.46297400  0.73877300  1
  O  O32  1  0.61264600  0.42207200  0.74231200  1
  O  O33  1  0.67765000  0.68134800  0.78822200  1
  O  O34  1  0.55665100  0.96297400  0.73877300  1
  O  O35  1  0.88735400  0.92207200  0.74231200  1
  O  O36  1  0.18085600  0.05994900  0.84155200  1
  O  O37  1  0.50918200  0.10618500  0.90102400  1
  O  O38  1  0.31914400  0.55994900  0.84155200  1
  O  O39  1  0.28238300  0.29720500  0.85685200  1
  O  O40  1  0.99081800  0.60618500  0.90102400  1
  O  O41  1  0.74596300  0.38495500  0.96816000  1
  O  O42  1  0.21761700  0.79720500  0.85685200  1
  O  O43  1  0.75403700  0.88495500  0.96816000  1
loop_
_geom_bond_atom_site_label_1
_geom_bond_atom_site_label_2
_geom_bond_distance
_geom_bond_site_symmetry_2
O0 P6 1.566735 1_554
O0 V2 1.872652 1_545
O1 P0 1.562339 1_555
O1 V1 1.898965 1_555
O2 P7 1.566735 1_554
O2 V0 1.872652 1_555
O3 P0 1.534903 1_455
O3 V0 1.945463 1_555
O4 P1 1.562339 1_555
O4 V3 1.898965 1_555
O5 P0 1.526926 1_555
O5 V3 1.975531 1_555
O6 P1 1.534903 1_555
O6 V2 1.945463 1_555
O7 P1 1.526926 1_555
O7 V1 1.975531 1_565
O8 V1 1.862704 1_455
O8 V4 2.023310 1_555
O8 V2 2.083636 1_545
O9 V2 1.725140 1_545
O9 V4 1.949146 1_555
O10 V4 1.706826 1_555
O10 V0 1.891572 1_555
O11 V3 1.862704 1_555
O11 V5 2.023310 1_555
O11 V0 2.083636 1_555
O12 V0 1.725140 1_555
O12 V5 1.949146 1_555
O13 V5 1.706826 1_555
O13 V2 1.891572 1_555
O14 P2 1.555110 1_555
O14 V1 1.975637 1_555
O15 P3 1.555110 1_555
O15 V3 1.975637 1_555
O16 P2 1.571775 1_555
O16 V3 1.876593 1_555
O17 P2 1.531665 1_555
O17 V4 1.923977 1_555
O18 P3 1.571775 1_555
O18 V1 1.876593 1_565
O19 P3 1.531665 1_555
O19 V5 1.923977 1_655
O20 P4 1.527912 1_555
O20 V4 1.934503 1_555
O21 P2 1.527912 1_555
O21 V6 1.934503 1_555
O22 P5 1.527912 1_555
O22 V5 1.934503 1_555
O23 P3 1.527912 1_555
O23 V7 1.934503 1_555
O24 P4 1.531665 1_555
O24 V6 1.923977 1_455
O25 P4 1.571775 1_555
O25 V10 1.876593 1_545
O26 P5 1.531665 1_555
O26 V7 1.923977 1_555
O27 P5 1.571775 1_555
O27 V8 1.876593 1_555
O28 P4 1.555110 1_555
O28 V8 1.975637 1_555
O29 P5 1.555110 1_555
O29 V10 1.975637 1_555
O30 V6 1.706826 1_555
O30 V9 1.891572 1_555
O31 V11 1.725140 1_555
O31 V6 1.949146 1_555
O32 V8 1.862704 1_555
O32 V6 2.023310 1_555
O32 V11 2.083636 1_555
O33 V7 1.706826 1_555
O33 V11 1.891572 1_555
O34 V9 1.725140 1_565
O34 V7 1.949146 1_555
O35 V10 1.862704 1_655
O35 V7 2.023310 1_555
O35 V9 2.083636 1_565
O36 P6 1.526926 1_555
O36 V10 1.975531 1_545
O37 P6 1.534903 1_555
O37 V9 1.945463 1_555
O38 P7 1.526926 1_555
O38 V8 1.975531 1_555
O39 P6 1.562339 1_555
O39 V8 1.898965 1_555
O40 P7 1.534903 1_655
O40 V11 1.945463 1_555
O41 P0 1.566735 1_556
O41 V11 1.872652 1_555
O42 P7 1.562339 1_555
O42 V10 1.898965 1_555
O43 P1 1.566735 1_556
O43 V9 1.872652 1_565
