# generated using pymatgen
data_KSe
_symmetry_space_group_name_H-M   'P 1'
_cell_length_a   6.07460100
_cell_length_b   9.44876600
_cell_length_c   18.06437800
_cell_angle_alpha   90.00000000
_cell_angle_beta   90.00000000
_cell_angle_gamma   90.00000000
_symmetry_Int_Tables_number   1
_chemical_formula_structural   KSe
_chemical_formula_sum   'K16 Se16'
_cell_volume   1036.84983625
_cell_formula_units_Z   16
loop_
 _symmetry_equiv_pos_site_id
 _symmetry_equiv_pos_as_xyz
  1  'x, y, z'
loop_
 _atom_site_type_symbol
 _atom_site_label
 _atom_site_symmetry_multiplicity
 _atom_site_fract_x
 _atom_site_fract_y
 _atom_site_fract_z
 _atom_site_occupancy
  K  K0  1  0.18606700  0.68590300  0.12586800  1
  K  K1  1  0.81393300  0.18590300  0.37413200  1
  K  K2  1  0.31393300  0.31409700  0.62586800  1
  K  K3  1  0.68606700  0.81409700  0.87413200  1
  K  K4  1  0.81393300  0.31409700  0.87413200  1
  K  K5  1  0.18606700  0.81409700  0.62586800  1
  K  K6  1  0.68606700  0.68590300  0.37413200  1
  K  K7  1  0.31393300  0.18590300  0.12586800  1
  K  K8  1  0.68635100  0.81481700  0.12768400  1
  K  K9  1  0.31364900  0.31481700  0.37231600  1
  K  K10  1  0.81364900  0.18518300  0.62768400  1
  K  K11  1  0.18635100  0.68518300  0.87231600  1
  K  K12  1  0.31364900  0.18518300  0.87231600  1
  K  K13  1  0.68635100  0.68518300  0.62768400  1
  K  K14  1  0.18635100  0.81481700  0.37231600  1
  K  K15  1  0.81364900  0.31481700  0.12768400  1
  Se  Se0  1  0.32399800  0.93826300  0.99989700  1
  Se  Se1  1  0.67600200  0.43826300  0.50010300  1
  Se  Se2  1  0.17600200  0.06173700  0.49989700  1
  Se  Se3  1  0.82399800  0.56173700  0.00010300  1
  Se  Se4  1  0.67600200  0.06173700  0.00010300  1
  Se  Se5  1  0.32399800  0.56173700  0.49989700  1
  Se  Se6  1  0.82399800  0.93826300  0.50010300  1
  Se  Se7  1  0.17600200  0.43826300  0.99989700  1
  Se  Se8  1  0.49878500  0.50278000  0.23460200  1
  Se  Se9  1  0.50121500  0.00278000  0.26539800  1
  Se  Se10  1  0.00121500  0.49722000  0.73460200  1
  Se  Se11  1  0.99878500  0.99722000  0.76539800  1
  Se  Se12  1  0.50121500  0.49722000  0.76539800  1
  Se  Se13  1  0.49878500  0.99722000  0.73460200  1
  Se  Se14  1  0.99878500  0.50278000  0.26539800  1
  Se  Se15  1  0.00121500  0.00278000  0.23460200  1
loop_
_geom_bond_atom_site_label_1
_geom_bond_atom_site_label_2
_geom_bond_distance
_geom_bond_site_symmetry_2
K0 Se8 3.234291 1_555
K0 Se14 3.262086 1_455
K0 Se7 3.264527 1_554
K0 K8 3.271010 1_455
K0 K8 3.274213 1_555
K0 Se3 3.372726 1_455
K0 Se0 3.400901 1_554
K0 Se15 3.752819 1_565
K1 Se9 3.234291 1_555
K1 Se15 3.262086 1_655
K1 Se6 3.264527 1_545
K1 K9 3.271010 1_655
K1 K9 3.274213 1_555
K1 Se2 3.372726 1_655
K1 Se1 3.400901 1_555
K1 Se14 3.752819 1_555
K2 Se10 3.234291 1_555
K2 Se12 3.262086 1_555
K2 Se5 3.264527 1_555
K2 Se1 3.372726 1_555
K2 Se2 3.400901 1_555
K2 Se13 3.752819 1_545
K3 Se11 3.234291 1_555
K3 Se13 3.262086 1_555
K3 Se4 3.264527 1_566
K3 Se0 3.372726 1_555
K3 Se3 3.400901 1_556
K3 Se12 3.752819 1_555
K4 Se12 3.234291 1_555
K4 Se10 3.262086 1_655
K4 Se3 3.264527 1_556
K4 Se7 3.372726 1_655
K4 Se4 3.400901 1_556
K4 Se11 3.752819 1_545
K5 Se13 3.234291 1_555
K5 Se11 3.262086 1_455
K5 Se2 3.264527 1_565
K5 Se6 3.372726 1_455
K5 Se5 3.400901 1_555
K5 Se10 3.752819 1_555
K6 Se14 3.234291 1_555
K6 Se8 3.262086 1_555
K6 Se1 3.264527 1_555
K6 Se5 3.372726 1_555
K6 Se6 3.400901 1_555
K6 Se9 3.752819 1_565
K7 Se15 3.234291 1_555
K7 Se9 3.262086 1_555
K7 Se0 3.264527 1_544
K7 Se4 3.372726 1_555
K7 Se7 3.400901 1_554
K7 Se8 3.752819 1_555
K8 Se15 3.246982 1_665
K8 Se9 3.256957 1_565
K8 Se4 3.280056 1_565
K8 Se0 3.396212 1_554
K8 Se3 3.424755 1_555
K8 Se8 3.704240 1_555
K9 Se14 3.246982 1_455
K9 Se8 3.256957 1_555
K9 Se5 3.280056 1_555
K9 Se1 3.396212 1_555
K9 Se2 3.424755 1_555
K9 Se9 3.704240 1_555
K10 Se13 3.246982 1_545
K10 Se11 3.256957 1_545
K10 K2 3.271010 1_555
K10 K2 3.274213 1_655
K10 Se6 3.280056 1_545
K10 Se2 3.396212 1_655
K10 Se1 3.424755 1_555
K10 Se10 3.704240 1_655
K11 Se12 3.246982 1_555
K11 Se10 3.256957 1_555
K11 K3 3.271010 1_555
K11 K3 3.274213 1_455
K11 Se7 3.280056 1_555
K11 Se3 3.396212 1_456
K11 Se0 3.424755 1_555
K11 Se11 3.704240 1_455
K12 Se11 3.246982 1_445
K12 Se13 3.256957 1_545
K12 K4 3.271010 1_455
K12 K4 3.274213 1_555
K12 Se0 3.280056 1_545
K12 Se4 3.396212 1_556
K12 Se7 3.424755 1_555
K12 Se12 3.704240 1_555
K13 Se10 3.246982 1_655
K13 Se12 3.256957 1_555
K13 K5 3.271010 1_655
K13 K5 3.274213 1_555
K13 Se1 3.280056 1_555
K13 Se5 3.396212 1_555
K13 Se6 3.424755 1_555
K13 Se13 3.704240 1_555
K14 Se9 3.246982 1_565
K14 Se15 3.256957 1_565
K14 K6 3.271010 1_555
K14 K6 3.274213 1_455
K14 Se2 3.280056 1_565
K14 Se6 3.396212 1_455
K14 Se5 3.424755 1_555
K14 Se14 3.704240 1_455
K15 Se8 3.246982 1_555
K15 Se14 3.256957 1_555
K15 K7 3.271010 1_555
K15 K7 3.274213 1_655
K15 Se3 3.280056 1_555
K15 Se7 3.396212 1_654
K15 Se4 3.424755 1_555
K15 Se15 3.704240 1_655
Se0 Se4 2.435859 1_566
Se1 Se5 2.435859 1_555
Se2 Se6 2.435859 1_445
Se3 Se7 2.435859 1_654
