# generated using pymatgen
data_Li4Fe3Sb5O16
_symmetry_space_group_name_H-M   'P 1'
_cell_length_a   6.23445600
_cell_length_b   6.24308697
_cell_length_c   10.35825702
_cell_angle_alpha   90.29154118
_cell_angle_beta   90.25734424
_cell_angle_gamma   118.86009950
_symmetry_Int_Tables_number   1
_chemical_formula_structural   Li4Fe3Sb5O16
_chemical_formula_sum   'Li4 Fe3 Sb5 O16'
_cell_volume   353.07804775
_cell_formula_units_Z   1
loop_
 _symmetry_equiv_pos_site_id
 _symmetry_equiv_pos_as_xyz
  1  'x, y, z'
loop_
 _atom_site_type_symbol
 _atom_site_label
 _atom_site_symmetry_multiplicity
 _atom_site_fract_x
 _atom_site_fract_y
 _atom_site_fract_z
 _atom_site_occupancy
  Li  Li0  1  0.34200200  0.67672900  0.11103100  1
  Li  Li1  1  0.00366800  0.00840200  0.00912000  1
  Li  Li2  1  0.99852400  0.99858100  0.49820600  1
  Li  Li3  1  0.67983100  0.35915300  0.60423700  1
  Fe  Fe0  1  0.17063100  0.33877900  0.78662500  1
  Fe  Fe1  1  0.33348500  0.16303100  0.28566100  1
  Fe  Fe2  1  0.82819600  0.16371200  0.28465100  1
  Sb  Sb0  1  0.17029300  0.83638000  0.78422600  1
  Sb  Sb1  1  0.30975000  0.63810800  0.49028300  1
  Sb  Sb2  1  0.66695100  0.83480400  0.78376200  1
  Sb  Sb3  1  0.82648500  0.65795500  0.28112900  1
  Sb  Sb4  1  0.65065400  0.30328300  0.01988200  1
  O  O0  1  0.13490000  0.81913800  0.39340500  1
  O  O1  1  0.49133700  0.98973800  0.68199400  1
  O  O2  1  0.34795000  0.69229800  0.89355700  1
  O  O3  1  0.99257600  0.98730000  0.67949700  1
  O  O4  1  0.98281700  0.98152000  0.18768000  1
  O  O5  1  0.68819800  0.83793800  0.38935900  1
  O  O6  1  0.03366100  0.53528300  0.67415600  1
  O  O7  1  0.50568000  0.53218100  0.67920600  1
  O  O8  1  0.85967000  0.70861500  0.89065000  1
  O  O9  1  0.14040100  0.30300900  0.40006600  1
  O  O10  1  0.52617500  0.49635300  0.16736800  1
  O  O11  1  0.97075200  0.48277700  0.17126800  1
  O  O12  1  0.68534600  0.35046400  0.39053800  1
  O  O13  1  0.29824600  0.13338700  0.89790200  1
  O  O14  1  0.52807700  0.03771300  0.16196500  1
  O  O15  1  0.83344500  0.13337200  0.89473200  1
loop_
_geom_bond_atom_site_label_1
_geom_bond_atom_site_label_2
_geom_bond_distance
_geom_bond_site_symmetry_2
Li0 O14 2.040019 1_565
Li0 O10 2.043507 1_555
Li0 O11 2.127862 1_455
Li0 O2 2.254941 1_554
Li1 O4 1.857480 1_445
Li1 O15 1.983999 1_454
Li1 O13 1.988380 1_554
Li1 O8 2.039471 1_444
Li2 O3 1.879399 1_555
Li2 O9 1.957764 1_665
Li2 O0 2.017857 1_655
Li2 O5 2.028773 1_555
Li3 O7 2.019897 1_555
Li3 O6 2.058096 1_655
Li3 O1 2.181687 1_545
Li3 O12 2.214766 1_555
Fe0 O13 2.144167 1_555
Fe0 O6 2.146697 1_555
Fe0 O7 2.158479 1_555
Fe0 O15 2.179672 1_455
Fe0 O3 2.211637 1_445
Fe0 O2 2.220095 1_555
Fe1 O9 2.152874 1_555
Fe1 O14 2.155362 1_555
Fe1 O4 2.161146 1_445
Fe1 O12 2.202100 1_555
Fe1 O0 2.204225 1_545
Fe1 O10 2.213786 1_555
Fe2 O14 2.069376 1_555
Fe2 O4 2.070624 1_545
Fe2 O9 2.075706 1_655
Fe2 O12 2.086529 1_555
Fe2 O5 2.095696 1_545
Fe2 O11 2.112171 1_555
O0 Sb3 2.040213 1_455
O0 Sb1 2.159547 1_555
O1 Sb0 2.055144 1_555
O1 Sb2 2.065879 1_555
O1 Sb1 2.753269 1_555
O2 Sb0 2.068641 1_555
O2 Sb2 2.088732 1_555
O3 Sb0 2.073529 1_655
O3 Sb2 2.087697 1_555
O4 Sb3 2.023673 1_555
O5 Sb3 2.047859 1_555
O5 Sb1 2.325947 1_555
O6 Sb0 1.995690 1_555
O6 Sb1 2.444911 1_555
O7 Sb2 1.972040 1_555
O7 Sb1 2.555475 1_555
O8 Sb0 2.034380 1_655
O8 Sb2 2.049573 1_555
O8 Sb4 2.600078 1_556
O9 Sb1 2.050285 1_555
O10 Sb3 2.014058 1_555
O10 Sb4 2.298678 1_555
O11 Sb3 2.060610 1_555
O11 Sb4 2.343593 1_555
O12 Sb3 2.035750 1_555
O13 Sb0 2.000619 1_545
O13 Sb4 2.293555 1_556
O14 Sb4 2.076223 1_555
O15 Sb2 1.993200 1_545
O15 Sb4 2.295790 1_556
