# generated using pymatgen
data_U6O11
_symmetry_space_group_name_H-M   'P 1'
_cell_length_a   6.66172553
_cell_length_b   6.66172553
_cell_length_c   6.66442667
_cell_angle_alpha   80.41095915
_cell_angle_beta   80.41095915
_cell_angle_gamma   119.98821651
_symmetry_Int_Tables_number   1
_chemical_formula_structural   U6O11
_chemical_formula_sum   'U6 O11'
_cell_volume   241.53496902
_cell_formula_units_Z   1
loop_
 _symmetry_equiv_pos_site_id
 _symmetry_equiv_pos_as_xyz
  1  'x, y, z'
loop_
 _atom_site_type_symbol
 _atom_site_label
 _atom_site_symmetry_multiplicity
 _atom_site_fract_x
 _atom_site_fract_y
 _atom_site_fract_z
 _atom_site_occupancy
  U  U0  1  0.16664700  0.83434100  0.49762400  1
  U  U1  1  0.83434100  0.16664700  0.49762400  1
  U  U2  1  0.31827200  0.66961600  0.99660500  1
  U  U3  1  0.01484500  0.01484500  0.99608900  1
  U  U4  1  0.49616600  0.49616600  0.51458300  1
  U  U5  1  0.66961600  0.31827200  0.99660500  1
  O  O0  1  0.45381800  0.79726700  0.62496900  1
  O  O1  1  0.02310100  0.70422000  0.88688600  1
  O  O2  1  0.70422000  0.02310100  0.88688600  1
  O  O3  1  0.79726700  0.45381800  0.62496900  1
  O  O4  1  0.86271000  0.86271000  0.36530800  1
  O  O5  1  0.29100900  0.95898200  0.12555500  1
  O  O6  1  0.22750300  0.54588500  0.36347500  1
  O  O7  1  0.38626100  0.38626100  0.88381200  1
  O  O8  1  0.54588500  0.22750300  0.36347500  1
  O  O9  1  0.95898200  0.29100900  0.12555500  1
  O  O10  1  0.12435900  0.12435900  0.62498300  1
loop_
_geom_bond_atom_site_label_1
_geom_bond_atom_site_label_2
_geom_bond_distance
_geom_bond_site_symmetry_2
O0 U0 2.320436 1_555
O0 U2 2.336316 1_555
O0 U1 2.356530 1_565
O0 U4 2.373262 1_555
O1 U2 2.308751 1_555
O1 U3 2.327412 1_565
O1 U5 2.331957 1_455
O1 U0 2.447744 1_555
O2 U5 2.308751 1_555
O2 U3 2.327412 1_655
O2 U2 2.331957 1_545
O2 U1 2.447744 1_555
O3 U1 2.320436 1_555
O3 U5 2.336316 1_555
O3 U0 2.356530 1_655
O3 U4 2.373262 1_555
O4 U4 2.309904 1_555
O4 U3 2.328208 1_664
O4 U1 2.415518 1_565
O4 U0 2.415518 1_655
O5 U2 2.310270 1_554
O5 U3 2.318148 1_564
O5 U5 2.320913 1_564
O5 U0 2.338021 1_555
O6 U2 2.315330 1_554
O6 U4 2.325731 1_555
O6 U0 2.426233 1_555
O6 U1 2.427873 1_455
O7 U4 2.321817 1_555
O7 U3 2.334624 1_555
O7 U5 2.355272 1_555
O7 U2 2.355272 1_555
O8 U5 2.315330 1_554
O8 U4 2.325731 1_555
O8 U1 2.426233 1_555
O8 U0 2.427873 1_545
O9 U5 2.310270 1_554
O9 U3 2.318148 1_654
O9 U2 2.320913 1_654
O9 U1 2.338021 1_555
O10 U3 2.333866 1_555
O10 U4 2.337552 1_555
O10 U0 2.354407 1_545
O10 U1 2.354407 1_455
