# generated using pymatgen
data_Sb4S7N2
_symmetry_space_group_name_H-M   'P 1'
_cell_length_a   10.40562400
_cell_length_b   13.06860300
_cell_length_c   25.99456500
_cell_angle_alpha   90.00000000
_cell_angle_beta   90.00000000
_cell_angle_gamma   90.00000000
_symmetry_Int_Tables_number   1
_chemical_formula_structural   Sb4S7N2
_chemical_formula_sum   'Sb32 S56 N16'
_cell_volume   3534.92210543
_cell_formula_units_Z   8
loop_
 _symmetry_equiv_pos_site_id
 _symmetry_equiv_pos_as_xyz
  1  'x, y, z'
loop_
 _atom_site_type_symbol
 _atom_site_label
 _atom_site_symmetry_multiplicity
 _atom_site_fract_x
 _atom_site_fract_y
 _atom_site_fract_z
 _atom_site_occupancy
  Sb  Sb0  1  0.02329900  0.69075300  0.26272300  1
  Sb  Sb1  1  0.97670100  0.19075300  0.23727700  1
  Sb  Sb2  1  0.47670100  0.30924700  0.76272300  1
  Sb  Sb3  1  0.52329900  0.80924700  0.73727700  1
  Sb  Sb4  1  0.97670100  0.30924700  0.73727700  1
  Sb  Sb5  1  0.02329900  0.80924700  0.76272300  1
  Sb  Sb6  1  0.52329900  0.69075300  0.23727700  1
  Sb  Sb7  1  0.47670100  0.19075300  0.26272300  1
  Sb  Sb8  1  0.15213100  0.41041500  0.17236800  1
  Sb  Sb9  1  0.84786900  0.91041500  0.32763200  1
  Sb  Sb10  1  0.34786900  0.58958500  0.67236800  1
  Sb  Sb11  1  0.65213100  0.08958500  0.82763200  1
  Sb  Sb12  1  0.84786900  0.58958500  0.82763200  1
  Sb  Sb13  1  0.15213100  0.08958500  0.67236800  1
  Sb  Sb14  1  0.65213100  0.41041500  0.32763200  1
  Sb  Sb15  1  0.34786900  0.91041500  0.17236800  1
  Sb  Sb16  1  0.28010100  0.40353600  0.32931900  1
  Sb  Sb17  1  0.71989900  0.90353600  0.17068100  1
  Sb  Sb18  1  0.21989900  0.59646400  0.82931900  1
  Sb  Sb19  1  0.78010100  0.09646400  0.67068100  1
  Sb  Sb20  1  0.71989900  0.59646400  0.67068100  1
  Sb  Sb21  1  0.28010100  0.09646400  0.82931900  1
  Sb  Sb22  1  0.78010100  0.40353600  0.17068100  1
  Sb  Sb23  1  0.21989900  0.90353600  0.32931900  1
  Sb  Sb24  1  0.03420500  0.79920600  0.12993800  1
  Sb  Sb25  1  0.96579500  0.29920600  0.37006200  1
  Sb  Sb26  1  0.46579500  0.20079400  0.62993800  1
  Sb  Sb27  1  0.53420500  0.70079400  0.87006200  1
  Sb  Sb28  1  0.96579500  0.20079400  0.87006200  1
  Sb  Sb29  1  0.03420500  0.70079400  0.62993800  1
  Sb  Sb30  1  0.53420500  0.79920600  0.37006200  1
  Sb  Sb31  1  0.46579500  0.29920600  0.12993800  1
  S  S0  1  0.46625000  0.44459200  0.38585200  1
  S  S1  1  0.53375000  0.94459200  0.11414800  1
  S  S2  1  0.03375000  0.55540800  0.88585200  1
  S  S3  1  0.96625000  0.05540800  0.61414800  1
  S  S4  1  0.53375000  0.55540800  0.61414800  1
  S  S5  1  0.46625000  0.05540800  0.88585200  1
  S  S6  1  0.96625000  0.44459200  0.11414800  1
  S  S7  1  0.03375000  0.94459200  0.38585200  1
  S  S8  1  0.97061200  0.36380000  0.27821500  1
  S  S9  1  0.02938800  0.86380000  0.22178500  1
  S  S10  1  0.52938800  0.63620000  0.77821500  1
  S  S11  1  0.47061200  0.13620000  0.72178500  1
  S  S12  1  0.02938800  0.63620000  0.72178500  1
  S  S13  1  0.97061200  0.13620000  0.77821500  1
  S  S14  1  0.47061200  0.36380000  0.22178500  1
  S  S15  1  0.52938800  0.86380000  0.27821500  1
  S  S16  1  0.14982700  0.22050000  0.17558400  1
  S  S17  1  0.85017300  0.72050000  0.32441600  1
  S  S18  1  0.35017300  0.77950000  0.67558400  1
  S  S19  1  0.64982700  0.27950000  0.82441600  1
  S  S20  1  0.85017300  0.77950000  0.82441600  1
  S  S21  1  0.14982700  0.27950000  0.67558400  1
  S  S22  1  0.64982700  0.22050000  0.32441600  1
  S  S23  1  0.35017300  0.72050000  0.17558400  1
  S  S24  1  0.13905700  0.40572600  0.40522000  1
  S  S25  1  0.86094300  0.90572600  0.09478000  1
  S  S26  1  0.36094300  0.59427400  0.90522000  1
  S  S27  1  0.63905700  0.09427400  0.59478000  1
  S  S28  1  0.86094300  0.59427400  0.59478000  1
  S  S29  1  0.13905700  0.09427400  0.90522000  1
  S  S30  1  0.63905700  0.40572600  0.09478000  1
  S  S31  1  0.36094300  0.90572600  0.40522000  1
  S  S32  1  0.29604700  0.21367700  0.32445100  1
  S  S33  1  0.70395300  0.71367700  0.17554900  1
  S  S34  1  0.20395300  0.78632300  0.82445100  1
  S  S35  1  0.79604700  0.28632300  0.67554900  1
  S  S36  1  0.70395300  0.78632300  0.67554900  1
  S  S37  1  0.29604700  0.28632300  0.82445100  1
  S  S38  1  0.79604700  0.21367700  0.17554900  1
  S  S39  1  0.20395300  0.71367700  0.32445100  1
  S  S40  1  0.01751800  0.21459000  0.51825400  1
  S  S41  1  0.98248200  0.71459000  0.98174600  1
  S  S42  1  0.48248200  0.78541000  0.01825400  1
  S  S43  1  0.51751800  0.28541000  0.48174600  1
  S  S44  1  0.98248200  0.78541000  0.48174600  1
  S  S45  1  0.01751800  0.28541000  0.01825400  1
  S  S46  1  0.51751800  0.21459000  0.98174600  1
  S  S47  1  0.48248200  0.71459000  0.51825400  1
  S  S48  1  0.79905200  0.41962500  0.40288100  1
  S  S49  1  0.20094800  0.91962500  0.09711900  1
  S  S50  1  0.70094800  0.58037500  0.90288100  1
  S  S51  1  0.29905200  0.08037500  0.59711900  1
  S  S52  1  0.20094800  0.58037500  0.59711900  1
  S  S53  1  0.79905200  0.08037500  0.90288100  1
  S  S54  1  0.29905200  0.41962500  0.09711900  1
  S  S55  1  0.70094800  0.91962500  0.40288100  1
  N  N0  1  0.97604000  0.19394000  0.04648100  1
  N  N1  1  0.02396000  0.69394000  0.45351900  1
  N  N2  1  0.52396000  0.80606000  0.54648100  1
  N  N3  1  0.47604000  0.30606000  0.95351900  1
  N  N4  1  0.02396000  0.80606000  0.95351900  1
  N  N5  1  0.97604000  0.30606000  0.54648100  1
  N  N6  1  0.47604000  0.19394000  0.45351900  1
  N  N7  1  0.52396000  0.69394000  0.04648100  1
  N  N8  1  0.05897800  0.37008300  0.98471500  1
  N  N9  1  0.94102200  0.87008300  0.51528500  1
  N  N10  1  0.44102200  0.62991700  0.48471500  1
  N  N11  1  0.55897800  0.12991700  0.01528500  1
  N  N12  1  0.94102200  0.62991700  0.01528500  1
  N  N13  1  0.05897800  0.12991700  0.48471500  1
  N  N14  1  0.55897800  0.37008300  0.51528500  1
  N  N15  1  0.44102200  0.87008300  0.98471500  1
loop_
_geom_bond_atom_site_label_1
_geom_bond_atom_site_label_2
_geom_bond_distance
_geom_bond_site_symmetry_2
S0 Sb16 2.489862 1_555
S0 Sb14 2.496206 1_555
S1 Sb17 2.489862 1_555
S1 Sb15 2.496206 1_555
S2 Sb18 2.489862 1_555
S2 Sb12 2.496206 1_455
S3 Sb19 2.489862 1_555
S3 Sb13 2.496206 1_655
S4 Sb20 2.489862 1_555
S4 Sb10 2.496206 1_555
S5 Sb21 2.489862 1_555
S5 Sb11 2.496206 1_555
S6 Sb22 2.489862 1_555
S6 Sb8 2.496206 1_655
S7 Sb23 2.489862 1_555
S7 Sb9 2.496206 1_455
S8 Sb1 2.500153 1_555
S8 Sb25 2.532859 1_555
S9 Sb0 2.500153 1_555
S9 Sb24 2.532859 1_555
S10 Sb3 2.500153 1_555
S10 Sb27 2.532859 1_555
S11 Sb2 2.500153 1_555
S11 Sb26 2.532859 1_555
S12 Sb5 2.500153 1_555
S12 Sb29 2.532859 1_555
S13 Sb4 2.500153 1_555
S13 Sb28 2.532859 1_555
S14 Sb7 2.500153 1_555
S14 Sb31 2.532859 1_555
S15 Sb6 2.500153 1_555
S15 Sb30 2.532859 1_555
S16 Sb1 2.443004 1_455
S16 Sb8 2.483447 1_555
S17 Sb0 2.443004 1_655
S17 Sb9 2.483447 1_555
S18 Sb3 2.443004 1_555
S18 Sb10 2.483447 1_555
S19 Sb2 2.443004 1_555
S19 Sb11 2.483447 1_555
S20 Sb5 2.443004 1_655
S20 Sb12 2.483447 1_555
S21 Sb4 2.443004 1_455
S21 Sb13 2.483447 1_555
S22 Sb7 2.443004 1_555
S22 Sb14 2.483447 1_555
S23 Sb6 2.443004 1_555
S23 Sb15 2.483447 1_555
S24 Sb25 2.454291 1_455
S24 Sb16 2.459187 1_555
S25 Sb24 2.454291 1_655
S25 Sb17 2.459187 1_555
S26 Sb27 2.454291 1_555
S26 Sb18 2.459187 1_555
S27 Sb26 2.454291 1_555
S27 Sb19 2.459187 1_555
S28 Sb29 2.454291 1_655
S28 Sb20 2.459187 1_555
S29 Sb28 2.454291 1_455
S29 Sb21 2.459187 1_555
S30 Sb31 2.454291 1_555
S30 Sb22 2.459187 1_555
S31 Sb30 2.454291 1_555
S31 Sb23 2.459187 1_555
S32 Sb7 2.489615 1_555
S32 Sb16 2.489951 1_555
S33 Sb6 2.489615 1_555
S33 Sb17 2.489951 1_555
S34 Sb5 2.489615 1_555
S34 Sb18 2.489951 1_555
S35 Sb4 2.489615 1_555
S35 Sb19 2.489951 1_555
S36 Sb3 2.489615 1_555
S36 Sb20 2.489951 1_555
S37 Sb2 2.489615 1_555
S37 Sb21 2.489951 1_555
S38 Sb1 2.489615 1_555
S38 Sb22 2.489951 1_555
S39 Sb0 2.489615 1_555
S39 Sb23 2.489951 1_555
S48 Sb14 2.485542 1_555
S48 Sb25 2.492953 1_555
S49 Sb15 2.485542 1_555
S49 Sb24 2.492953 1_555
S50 Sb12 2.485542 1_555
S50 Sb27 2.492953 1_555
S51 Sb13 2.485542 1_555
S51 Sb26 2.492953 1_555
S52 Sb10 2.485542 1_555
S52 Sb29 2.492953 1_555
S53 Sb11 2.485542 1_555
S53 Sb28 2.492953 1_555
S54 Sb8 2.485542 1_555
S54 Sb31 2.492953 1_555
S55 Sb9 2.485542 1_555
S55 Sb30 2.492953 1_555
N0 S45 1.467520 1_655
N1 S44 1.467520 1_455
N2 S47 1.467520 1_555
N3 S46 1.467520 1_555
N4 S41 1.467520 1_455
N5 S40 1.467520 1_655
N6 S43 1.467520 1_555
N7 S42 1.467520 1_555
N8 S45 1.473323 1_556
N9 S44 1.473323 1_555
N10 S47 1.473323 1_555
N11 S46 1.473323 1_554
N12 S41 1.473323 1_554
N13 S40 1.473323 1_555
N14 S43 1.473323 1_555
N15 S42 1.473323 1_556
