# generated using pymatgen
data_Fe3OF7
_symmetry_space_group_name_H-M   'P 1'
_cell_length_a   5.84956978
_cell_length_b   5.84956978
_cell_length_c   5.84957020
_cell_angle_alpha   63.62607837
_cell_angle_beta   63.62607837
_cell_angle_gamma   63.62607797
_symmetry_Int_Tables_number   1
_chemical_formula_structural   Fe3OF7
_chemical_formula_sum   'Fe3 O1 F7'
_cell_volume   152.86998121
_cell_formula_units_Z   1
loop_
 _symmetry_equiv_pos_site_id
 _symmetry_equiv_pos_as_xyz
  1  'x, y, z'
loop_
 _atom_site_type_symbol
 _atom_site_label
 _atom_site_symmetry_multiplicity
 _atom_site_fract_x
 _atom_site_fract_y
 _atom_site_fract_z
 _atom_site_occupancy
  Fe  Fe0  1  0.38588800  0.86664000  0.38588800  1
  Fe  Fe1  1  0.86664000  0.38588800  0.38588800  1
  Fe  Fe2  1  0.38588800  0.38588800  0.86664000  1
  O  O0  1  0.61496600  0.61496600  0.61496600  1
  F  F0  1  0.13471000  0.13471000  0.13471000  1
  F  F1  1  0.12772200  0.58181600  0.12772200  1
  F  F2  1  0.58181600  0.12772200  0.12772200  1
  F  F3  1  0.62201400  0.62201400  0.16321100  1
  F  F4  1  0.12772200  0.12772200  0.58181600  1
  F  F5  1  0.16321100  0.62201400  0.62201400  1
  F  F6  1  0.62201400  0.16321100  0.62201400  1
loop_
_geom_bond_atom_site_label_1
_geom_bond_atom_site_label_2
_geom_bond_distance
_geom_bond_site_symmetry_2
Fe0 O0 1.961764 1_555
Fe1 O0 1.961764 1_555
Fe2 O0 1.961764 1_555
F0 Fe2 2.144887 1_554
F0 Fe0 2.144887 1_545
F0 Fe1 2.144887 1_455
F1 Fe1 1.973524 1_455
F1 Fe2 1.973524 1_554
F2 Fe0 1.973524 1_545
F2 Fe2 1.973524 1_554
F3 Fe1 1.988377 1_555
F3 Fe0 1.988377 1_555
F4 Fe1 1.973524 1_455
F4 Fe0 1.973524 1_545
F5 Fe0 1.988377 1_555
F5 Fe2 1.988377 1_555
F6 Fe1 1.988377 1_555
F6 Fe2 1.988377 1_555
