# generated using pymatgen
data_Mn7Co(PO4)12
_symmetry_space_group_name_H-M   'P 1'
_cell_length_a   8.44959473
_cell_length_b   8.43612201
_cell_length_c   11.75698146
_cell_angle_alpha   90.03045143
_cell_angle_beta   89.98921303
_cell_angle_gamma   90.07278485
_symmetry_Int_Tables_number   1
_chemical_formula_structural   Mn7Co(PO4)12
_chemical_formula_sum   'Mn7 Co1 P12 O48'
_cell_volume   838.05813437
_cell_formula_units_Z   1
loop_
 _symmetry_equiv_pos_site_id
 _symmetry_equiv_pos_as_xyz
  1  'x, y, z'
loop_
 _atom_site_type_symbol
 _atom_site_label
 _atom_site_symmetry_multiplicity
 _atom_site_fract_x
 _atom_site_fract_y
 _atom_site_fract_z
 _atom_site_occupancy
  Mn  Mn0  1  0.24984400  0.96584800  0.61816500  1
  Mn  Mn1  1  0.25070500  0.53449500  0.38083800  1
  Mn  Mn2  1  0.24964100  0.03463800  0.11836300  1
  Mn  Mn3  1  0.25015300  0.46528500  0.88242600  1
  Mn  Mn4  1  0.75056500  0.53449700  0.11843700  1
  Mn  Mn5  1  0.75011000  0.96564900  0.88231400  1
  Mn  Mn6  1  0.74923500  0.03478200  0.38165300  1
  Co  Co0  1  0.74876400  0.46481400  0.61761000  1
  P  P0  1  0.03578200  0.25029400  0.49915800  1
  P  P1  1  0.10611800  0.39145300  0.14542700  1
  P  P2  1  0.10595300  0.10867900  0.85480800  1
  P  P3  1  0.39351300  0.60770900  0.64495800  1
  P  P4  1  0.39365800  0.89165900  0.35457300  1
  P  P5  1  0.46360800  0.75003000  0.00032600  1
  P  P6  1  0.53637600  0.25008300  0.99987400  1
  P  P7  1  0.60665000  0.39102800  0.35552300  1
  P  P8  1  0.60745800  0.10819000  0.64534400  1
  P  P9  1  0.89328300  0.60915300  0.85417900  1
  P  P10  1  0.89358200  0.89165500  0.14571800  1
  P  P11  1  0.96355400  0.74878400  0.49970600  1
  O  O0  1  0.06126000  0.64193300  0.42197600  1
  O  O1  1  0.05929600  0.85777900  0.57810500  1
  O  O2  1  0.07552500  0.90074600  0.16003800  1
  O  O3  1  0.07537800  0.59966400  0.84050600  1
  O  O4  1  0.14763800  0.15999700  0.57990300  1
  O  O5  1  0.14456900  0.34231500  0.41722800  1
  O  O6  1  0.15825700  0.43875800  0.02624000  1
  O  O7  1  0.15856100  0.06058400  0.97360000  1
  O  O8  1  0.15098300  0.22087800  0.17614200  1
  O  O9  1  0.15089800  0.27941100  0.82416400  1
  O  O10  1  0.18030700  0.51413500  0.22715900  1
  O  O11  1  0.17860300  0.98669500  0.77187200  1
  O  O12  1  0.32058300  0.01404900  0.27244800  1
  O  O13  1  0.31941800  0.48626400  0.72730500  1
  O  O14  1  0.34873000  0.77835600  0.67631100  1
  O  O15  1  0.34955000  0.72078600  0.32358100  1
  O  O16  1  0.34049000  0.56141000  0.52607500  1
  O  O17  1  0.34059400  0.93858700  0.47371400  1
  O  O18  1  0.35395700  0.84153400  0.08183400  1
  O  O19  1  0.35423300  0.65845700  0.91840300  1
  O  O20  1  0.42592900  0.09791000  0.66053600  1
  O  O21  1  0.42449200  0.39937400  0.34131000  1
  O  O22  1  0.43974200  0.14145700  0.07760300  1
  O  O23  1  0.43971700  0.35880800  0.92230400  1
  O  O24  1  0.56048400  0.64145600  0.07775300  1
  O  O25  1  0.56024700  0.85875300  0.92252500  1
  O  O26  1  0.57744100  0.59817800  0.66031700  1
  O  O27  1  0.57563200  0.90020500  0.34125400  1
  O  O28  1  0.64643500  0.34137500  0.08141800  1
  O  O29  1  0.64529500  0.15838300  0.91794400  1
  O  O30  1  0.65956600  0.06116300  0.52629700  1
  O  O31  1  0.65932900  0.44054600  0.47396400  1
  O  O32  1  0.65107900  0.22059600  0.32387200  1
  O  O33  1  0.65140600  0.28079000  0.67708900  1
  O  O34  1  0.67762400  0.51389600  0.27222200  1
  O  O35  1  0.68165700  0.98582700  0.72726300  1
  O  O36  1  0.81983200  0.01386000  0.22778000  1
  O  O37  1  0.82100300  0.48552600  0.77070000  1
  O  O38  1  0.84935000  0.72066200  0.17649500  1
  O  O39  1  0.85000300  0.78016200  0.82445100  1
  O  O40  1  0.84124100  0.56115200  0.97318700  1
  O  O41  1  0.84109100  0.93916600  0.02676100  1
  O  O42  1  0.85098400  0.65833300  0.58169300  1
  O  O43  1  0.85492500  0.84106000  0.41806200  1
  O  O44  1  0.92393600  0.09998300  0.84081400  1
  O  O45  1  0.92410200  0.39990700  0.15963400  1
  O  O46  1  0.93994700  0.14058600  0.42173200  1
  O  O47  1  0.94013100  0.35981800  0.57902100  1
loop_
_geom_bond_atom_site_label_1
_geom_bond_atom_site_label_2
_geom_bond_distance
_geom_bond_site_symmetry_2
Mn0 O17 1.877409 1_555
Mn0 O4 1.906643 1_565
Mn0 O1 1.908236 1_555
Mn0 O11 1.912727 1_555
Mn0 O14 1.916244 1_555
Mn0 O20 1.923155 1_565
Mn1 O16 1.882143 1_555
Mn1 O5 1.900702 1_555
Mn1 O15 1.902140 1_555
Mn1 O0 1.902811 1_555
Mn1 O10 1.909889 1_555
Mn1 O21 1.917044 1_555
Mn2 O7 1.881015 1_554
Mn2 O18 1.902084 1_545
Mn2 O22 1.902186 1_555
Mn2 O8 1.904429 1_555
Mn2 O12 1.916324 1_555
Mn2 O2 1.917410 1_545
Mn3 O6 1.873857 1_556
Mn3 O23 1.896478 1_555
Mn3 O19 1.898355 1_555
Mn3 O9 1.904493 1_555
Mn3 O13 1.923438 1_555
Mn3 O3 1.927183 1_555
Mn4 O40 1.885023 1_554
Mn4 O28 1.900952 1_555
Mn4 O38 1.903913 1_555
Mn4 O24 1.904464 1_555
Mn4 O34 1.918003 1_555
Mn4 O45 1.918056 1_555
Mn5 O41 1.877848 1_556
Mn5 O29 1.899021 1_565
Mn5 O25 1.899179 1_555
Mn5 O39 1.904156 1_555
Mn5 O44 1.917206 1_565
Mn5 O35 1.920307 1_555
Mn6 O30 1.874858 1_555
Mn6 O32 1.900320 1_555
Mn6 O46 1.900434 1_555
Mn6 O43 1.912109 1_545
Mn6 O36 1.912925 1_555
Mn6 O27 1.913557 1_545
Co0 O31 1.861422 1_555
Co0 O33 1.890379 1_555
Co0 O42 1.893821 1_555
Co0 O47 1.899459 1_555
Co0 O26 1.901773 1_555
Co0 O37 1.908525 1_555
O0 P11 1.526434 1_455
O1 P11 1.531995 1_455
O2 P10 1.548367 1_455
O3 P9 1.549140 1_455
O4 P0 1.541979 1_555
O5 P0 1.540805 1_555
O6 P1 1.522118 1_555
O7 P2 1.521217 1_555
O8 P1 1.531927 1_555
O9 P2 1.532203 1_555
O10 P1 1.544343 1_555
O11 P2 1.544961 1_565
O12 P4 1.543527 1_545
O13 P3 1.542120 1_555
O14 P3 1.533713 1_555
O15 P4 1.532232 1_555
O16 P3 1.518575 1_555
O17 P4 1.522977 1_555
O18 P5 1.540557 1_555
O19 P5 1.541528 1_556
O20 P8 1.546507 1_555
O21 P7 1.549930 1_555
O22 P6 1.529805 1_554
O23 P6 1.530729 1_555
O24 P5 1.529944 1_555
O25 P5 1.530823 1_556
O26 P3 1.566777 1_555
O27 P4 1.547124 1_555
O28 P6 1.541040 1_554
O29 P6 1.540769 1_555
O30 P8 1.519817 1_555
O31 P7 1.520151 1_555
O32 P7 1.532116 1_555
O33 P8 1.547723 1_555
O34 P7 1.546763 1_555
O35 P8 1.545696 1_565
O36 P10 1.543485 1_545
O37 P9 1.556115 1_555
O38 P10 1.533169 1_555
O39 P9 1.529400 1_555
O40 P9 1.521497 1_555
O41 P10 1.521400 1_555
O42 P11 1.553935 1_555
O43 P11 1.540389 1_555
O44 P2 1.548418 1_655
O45 P1 1.548703 1_655
O46 P0 1.529185 1_655
O47 P0 1.545709 1_655
