# generated using pymatgen
data_Li4Cu2C4SO16
_symmetry_space_group_name_H-M   'P 1'
_cell_length_a   9.50113289
_cell_length_b   9.39611483
_cell_length_c   9.21782425
_cell_angle_alpha   61.37623817
_cell_angle_beta   60.23651901
_cell_angle_gamma   58.38724282
_symmetry_Int_Tables_number   1
_chemical_formula_structural   Li4Cu2C4SO16
_chemical_formula_sum   'Li8 Cu4 C8 S2 O32'
_cell_volume   581.08355391
_cell_formula_units_Z   2
loop_
 _symmetry_equiv_pos_site_id
 _symmetry_equiv_pos_as_xyz
  1  'x, y, z'
loop_
 _atom_site_type_symbol
 _atom_site_label
 _atom_site_symmetry_multiplicity
 _atom_site_fract_x
 _atom_site_fract_y
 _atom_site_fract_z
 _atom_site_occupancy
  Li  Li0  1  0.71204600  0.28795400  0.28795400  1
  Li  Li1  1  0.28591500  0.71408500  0.28591500  1
  Li  Li2  1  0.71408500  0.28591500  0.71408500  1
  Li  Li3  1  0.28795400  0.71204600  0.71204600  1
  Li  Li4  1  0.96204600  0.53795400  0.53795400  1
  Li  Li5  1  0.53591500  0.96408500  0.53591500  1
  Li  Li6  1  0.96408500  0.53591500  0.96408500  1
  Li  Li7  1  0.53795400  0.96204600  0.96204600  1
  Cu  Cu0  1  0.12500000  0.62500000  0.12500000  1
  Cu  Cu1  1  0.62500000  0.12500000  0.12500000  1
  Cu  Cu2  1  0.12500000  0.12500000  0.12500000  1
  Cu  Cu3  1  0.12500000  0.12500000  0.62500000  1
  C  C0  1  0.90587300  0.90912500  0.28495300  1
  C  C1  1  0.90912500  0.90587300  0.90004800  1
  C  C2  1  0.90004800  0.28495300  0.90912500  1
  C  C3  1  0.28495300  0.90004800  0.90587300  1
  C  C4  1  0.96504700  0.34995200  0.34412700  1
  C  C5  1  0.34995200  0.96504700  0.34087500  1
  C  C6  1  0.34087500  0.34412700  0.34995200  1
  C  C7  1  0.34412700  0.34087500  0.96504700  1
  S  S0  1  0.50000000  0.50000000  0.50000000  1
  S  S1  1  0.75000000  0.75000000  0.75000000  1
  O  O0  1  0.03762800  0.75994100  0.29080800  1
  O  O1  1  0.91931000  0.04339100  0.27366800  1
  O  O2  1  0.75994100  0.03762800  0.91162400  1
  O  O3  1  0.04339100  0.91931000  0.76363000  1
  O  O4  1  0.76363000  0.27366800  0.04339100  1
  O  O5  1  0.32947100  0.48939200  0.22503400  1
  O  O6  1  0.48939200  0.32947100  0.95610300  1
  O  O7  1  0.02496600  0.29389700  0.92052900  1
  O  O8  1  0.91162400  0.29080800  0.75994100  1
  O  O9  1  0.95610300  0.22503400  0.48939200  1
  O  O10  1  0.57622400  0.30505300  0.55763300  1
  O  O11  1  0.68891000  0.69236700  0.94494700  1
  O  O12  1  0.27366800  0.76363000  0.91931000  1
  O  O13  1  0.29080800  0.91162400  0.03762800  1
  O  O14  1  0.30505300  0.57622400  0.56109000  1
  O  O15  1  0.55763300  0.56109000  0.57622400  1
  O  O16  1  0.69236700  0.68891000  0.67377600  1
  O  O17  1  0.94494700  0.67377600  0.68891000  1
  O  O18  1  0.95919200  0.33837600  0.21237200  1
  O  O19  1  0.97633200  0.48637000  0.33069000  1
  O  O20  1  0.56109000  0.55763300  0.30505300  1
  O  O21  1  0.67377600  0.94494700  0.69236700  1
  O  O22  1  0.29389700  0.02496600  0.76060800  1
  O  O23  1  0.33837600  0.95919200  0.49005900  1
  O  O24  1  0.22503400  0.95610300  0.32947100  1
  O  O25  1  0.76060800  0.92052900  0.29389700  1
  O  O26  1  0.92052900  0.76060800  0.02496600  1
  O  O27  1  0.48637000  0.97633200  0.20660900  1
  O  O28  1  0.20660900  0.33069000  0.48637000  1
  O  O29  1  0.49005900  0.21237200  0.33837600  1
  O  O30  1  0.33069000  0.20660900  0.97633200  1
  O  O31  1  0.21237200  0.49005900  0.95919200  1
loop_
_geom_bond_atom_site_label_1
_geom_bond_atom_site_label_2
_geom_bond_distance
_geom_bond_site_symmetry_2
Li0 O1 2.112879 1_555
Li0 O4 2.112882 1_555
Li0 O10 2.202485 1_555
Li0 O20 2.202485 1_555
Li0 O18 2.334419 1_555
Li0 O29 2.334428 1_555
Li1 O0 2.144765 1_555
Li1 O13 2.144768 1_555
Li1 O5 2.220854 1_555
Li1 O24 2.220854 1_555
Li1 O14 2.282072 1_555
Li1 O20 2.282072 1_555
Li2 O2 2.144769 1_555
Li2 O8 2.144774 1_555
Li2 O9 2.220854 1_555
Li2 O6 2.220854 1_555
Li2 O10 2.282072 1_555
Li2 O15 2.282072 1_555
Li3 O12 2.112873 1_555
Li3 O3 2.112878 1_555
Li3 O14 2.202485 1_555
Li3 O15 2.202485 1_555
Li3 O23 2.334422 1_555
Li3 O31 2.334425 1_555
Li4 O19 2.112873 1_555
Li4 O28 2.112878 1_655
Li4 O17 2.202485 1_555
Li4 O16 2.202485 1_555
Li4 O8 2.334422 1_555
Li4 O0 2.334425 1_655
Li5 O29 2.144769 1_565
Li5 O23 2.144774 1_555
Li5 O22 2.220854 1_565
Li5 O25 2.220854 1_555
Li5 O16 2.282072 1_555
Li5 O21 2.282072 1_555
Li6 O31 2.144765 1_655
Li6 O18 2.144768 1_556
Li6 O7 2.220854 1_655
Li6 O26 2.220854 1_556
Li6 O11 2.282072 1_555
Li6 O17 2.282072 1_555
Li7 O30 2.112879 1_565
Li7 O27 2.112882 1_556
Li7 O11 2.202485 1_555
Li7 O21 2.202485 1_555
Li7 O13 2.334419 1_556
Li7 O2 2.334428 1_565
Cu0 O31 2.031330 1_554
Cu0 O0 2.031330 1_555
Cu0 O19 2.047054 1_455
Cu0 O12 2.047054 1_554
Cu0 O26 2.075016 1_455
Cu0 O5 2.075016 1_555
Cu1 O29 2.031322 1_555
Cu1 O2 2.031322 1_554
Cu1 O4 2.047051 1_555
Cu1 O27 2.047051 1_545
Cu1 O6 2.075016 1_554
Cu1 O25 2.075016 1_545
Cu2 O18 2.031323 1_455
Cu2 O13 2.031323 1_545
Cu2 O30 2.047059 1_554
Cu2 O1 2.047059 1_455
Cu2 O7 2.075016 1_554
Cu2 O24 2.075016 1_545
Cu3 O8 2.031327 1_455
Cu3 O23 2.031327 1_545
Cu3 O28 2.047059 1_555
Cu3 O3 2.047059 1_545
Cu3 O9 2.075016 1_455
Cu3 O22 2.075016 1_555
C0 O1 1.283989 1_565
C0 O25 1.289818 1_555
C0 O0 1.299955 1_655
C1 O3 1.283989 1_655
C1 O26 1.289822 1_556
C1 O2 1.299955 1_565
C2 O4 1.283989 1_556
C2 O7 1.289827 1_655
C2 O8 1.299947 1_555
C3 O12 1.283989 1_555
C3 O22 1.289822 1_565
C3 O13 1.299965 1_556
C4 O19 1.283989 1_555
C4 O9 1.289822 1_555
C4 O18 1.299965 1_555
C5 O27 1.283989 1_555
C5 O24 1.289827 1_555
C5 O23 1.299947 1_555
C6 O28 1.283989 1_555
C6 O5 1.289822 1_555
C6 O29 1.299955 1_555
C7 O30 1.283989 1_555
C7 O6 1.289818 1_555
C7 O31 1.299955 1_555
O10 S0 1.490274 1_555
O11 S1 1.490274 1_555
O14 S0 1.490274 1_555
O15 S0 1.490274 1_555
O16 S1 1.490274 1_555
O17 S1 1.490274 1_555
O20 S0 1.490274 1_555
O21 S1 1.490274 1_555
