# generated using pymatgen
data_YHO2
_symmetry_space_group_name_H-M   'P 1'
_cell_length_a   3.49259899
_cell_length_b   4.83342039
_cell_length_c   5.45703628
_cell_angle_alpha   90.00000000
_cell_angle_beta   90.00000000
_cell_angle_gamma   90.00000000
_symmetry_Int_Tables_number   1
_chemical_formula_structural   YHO2
_chemical_formula_sum   'Y2 H2 O4'
_cell_volume   92.12131633
_cell_formula_units_Z   2
loop_
 _symmetry_equiv_pos_site_id
 _symmetry_equiv_pos_as_xyz
  1  'x, y, z'
loop_
 _atom_site_type_symbol
 _atom_site_label
 _atom_site_symmetry_multiplicity
 _atom_site_fract_x
 _atom_site_fract_y
 _atom_site_fract_z
 _atom_site_occupancy
  Y  Y0  1  -0.00000000  0.72009858  0.98495365  1
  Y  Y1  1  0.50000000  0.27990142  0.48495365  1
  H  H0  1  0.50000000  0.18485113  0.96130083  1
  H  H1  1  0.00000000  0.81514887  0.46130083  1
  O  O0  1  0.50000000  0.01660631  0.85392665  1
  O  O1  1  -0.00000000  0.51858148  0.62259587  1
  O  O2  1  -0.00000000  0.98339369  0.35392665  1
  O  O3  1  0.50000000  0.48141852  0.12259587  1
loop_
_geom_bond_atom_site_label_1
_geom_bond_atom_site_label_2
_geom_bond_distance
_geom_bond_site_symmetry_2
H0 O0 1.002308 1_555
H0 O3 1.682104 1_556
H1 O2 1.002308 1_555
H1 O1 1.682104 1_555
O0 Y0 2.369541 1_645
O0 Y0 2.369541 1_545
O0 Y1 2.381959 1_555
O1 Y0 2.204273 1_555
O1 Y1 2.223652 1_555
O1 Y1 2.223652 1_455
O2 Y1 2.369541 1_465
O2 Y1 2.369541 1_565
O2 Y0 2.381959 1_554
O3 Y1 2.204273 1_555
O3 Y0 2.223652 1_554
O3 Y0 2.223652 1_654
