# generated using pymatgen
data_Li2CuF4
_symmetry_space_group_name_H-M   'P 1'
_cell_length_a   5.65893433
_cell_length_b   5.65893433
_cell_length_c   5.65893433
_cell_angle_alpha   112.19187429
_cell_angle_beta   112.19187429
_cell_angle_gamma   104.15707636
_symmetry_Int_Tables_number   1
_chemical_formula_structural   Li2CuF4
_chemical_formula_sum   'Li4 Cu2 F8'
_cell_volume   138.61367752
_cell_formula_units_Z   2
loop_
 _symmetry_equiv_pos_site_id
 _symmetry_equiv_pos_as_xyz
  1  'x, y, z'
loop_
 _atom_site_type_symbol
 _atom_site_label
 _atom_site_symmetry_multiplicity
 _atom_site_fract_x
 _atom_site_fract_y
 _atom_site_fract_z
 _atom_site_occupancy
  Li  Li0  1  0.37500000  0.12500000  0.75000000  1
  Li  Li1  1  0.87500000  0.62500000  0.25000000  1
  Li  Li2  1  0.37500000  0.62500000  0.25000000  1
  Li  Li3  1  0.37500000  0.62500000  0.75000000  1
  Cu  Cu0  1  0.75000000  0.25000000  0.50000000  1
  Cu  Cu1  1  0.00000000  0.00000000  0.00000000  1
  F  F0  1  0.13143400  0.33955700  0.79187800  1
  F  F1  1  0.66044300  0.45232100  0.79187800  1
  F  F2  1  0.54767900  0.33955700  0.20812200  1
  F  F3  1  0.66044300  0.86856600  0.20812200  1
  F  F4  1  0.08955700  0.38143400  0.29187800  1
  F  F5  1  0.20232100  0.91044300  0.29187800  1
  F  F6  1  0.08955700  0.79767900  0.70812200  1
  F  F7  1  0.61856600  0.91044300  0.70812200  1
loop_
_geom_bond_atom_site_label_1
_geom_bond_atom_site_label_2
_geom_bond_distance
_geom_bond_site_symmetry_2
Cu0 F3 1.945113 1_545
Cu0 F0 1.945113 1_655
Cu0 F1 1.945118 1_555
Cu0 F2 1.945118 1_555
Cu1 F4 1.945113 1_555
Cu1 F7 1.945113 1_444
Cu1 F5 1.945118 1_545
Cu1 F6 1.945118 1_544
F0 Li3 2.002997 1_555
F0 Li2 2.068362 1_556
F0 Li0 2.068366 1_555
F1 Li0 2.002993 1_555
F1 Li3 2.068362 1_555
F1 Li1 2.068362 1_556
F2 Li1 2.002993 1_555
F2 Li0 2.068362 1_554
F2 Li2 2.068362 1_555
F3 Li2 2.002997 1_555
F3 Li3 2.068362 1_554
F3 Li1 2.068366 1_555
F4 Li2 2.002997 1_555
F4 Li3 2.068362 1_555
F4 Li1 2.068366 1_455
F5 Li1 2.002993 1_455
F5 Li2 2.068362 1_555
F5 Li0 2.068362 1_565
F6 Li0 2.002993 1_565
F6 Li3 2.068362 1_555
F6 Li1 2.068362 1_455
F7 Li3 2.002997 1_555
F7 Li2 2.068362 1_555
F7 Li0 2.068366 1_565
