# generated using pymatgen
data_Li4Mn2Co3Cu3O16
_symmetry_space_group_name_H-M   'P 1'
_cell_length_a   5.78825857
_cell_length_b   5.73890189
_cell_length_c   9.29604369
_cell_angle_alpha   90.00068165
_cell_angle_beta   88.54051194
_cell_angle_gamma   119.71839234
_symmetry_Int_Tables_number   1
_chemical_formula_structural   Li4Mn2Co3Cu3O16
_chemical_formula_sum   'Li4 Mn2 Co3 Cu3 O16'
_cell_volume   268.06749132
_cell_formula_units_Z   1
loop_
 _symmetry_equiv_pos_site_id
 _symmetry_equiv_pos_as_xyz
  1  'x, y, z'
loop_
 _atom_site_type_symbol
 _atom_site_label
 _atom_site_symmetry_multiplicity
 _atom_site_fract_x
 _atom_site_fract_y
 _atom_site_fract_z
 _atom_site_occupancy
  Li  Li0  1  0.32626000  0.66281100  0.89641900  1
  Li  Li1  1  0.99927500  0.99949800  0.99427300  1
  Li  Li2  1  0.99743100  0.99893600  0.49437300  1
  Li  Li3  1  0.67593000  0.33820100  0.40188500  1
  Mn  Mn0  1  0.34250600  0.67151100  0.49241600  1
  Mn  Mn1  1  0.65773100  0.32859700  0.97976600  1
  Co  Co0  1  0.65996900  0.82991900  0.21098400  1
  Co  Co1  1  0.83024000  0.65971800  0.71333400  1
  Co  Co2  1  0.83027400  0.17056200  0.71335200  1
  Cu  Cu0  1  0.17066100  0.83138200  0.21386200  1
  Cu  Cu1  1  0.17045800  0.33933500  0.21399100  1
  Cu  Cu2  1  0.33635500  0.16807000  0.71186600  1
  O  O0  1  0.15970300  0.82922200  0.59300400  1
  O  O1  1  0.05188400  0.52648000  0.35107100  1
  O  O2  1  0.34272800  0.67147500  0.11005400  1
  O  O3  1  0.98705200  0.99334200  0.30284500  1
  O  O4  1  0.99060300  0.99555200  0.80400300  1
  O  O5  1  0.15933200  0.33118500  0.59285700  1
  O  O6  1  0.50059800  0.96470000  0.34469400  1
  O  O7  1  0.49911600  0.53496300  0.34434500  1
  O  O8  1  0.32811100  0.16381300  0.09352100  1
  O  O9  1  0.66896100  0.83442900  0.60137100  1
  O  O10  1  0.52517600  0.48773700  0.84290800  1
  O  O11  1  0.52587400  0.03685400  0.84302400  1
  O  O12  1  0.67482300  0.33727700  0.61315900  1
  O  O13  1  0.81449200  0.66323800  0.09841000  1
  O  O14  1  0.95893000  0.47964300  0.83722600  1
  O  O15  1  0.81552600  0.15184900  0.09882200  1
loop_
_geom_bond_atom_site_label_1
_geom_bond_atom_site_label_2
_geom_bond_distance
_geom_bond_site_symmetry_2
Li0 O10 1.923637 1_555
Li0 O11 1.923793 1_565
Li0 O14 1.942193 1_455
Li0 O2 1.990110 1_556
Li1 O4 1.770574 1_555
Li1 O8 1.916557 1_666
Li1 O13 1.925095 1_556
Li1 O15 1.926021 1_566
Li2 O3 1.782747 1_555
Li2 O9 1.902498 1_555
Li2 O0 1.903270 1_655
Li2 O5 1.903701 1_665
Li3 O1 1.934555 1_655
Li3 O6 1.943653 1_545
Li3 O7 1.944829 1_555
Li3 O12 1.963858 1_555
Mn0 O5 1.925362 1_555
Mn0 O0 1.926717 1_555
Mn0 O9 1.953575 1_555
Mn0 O6 1.990901 1_555
Mn0 O7 1.992794 1_555
Mn0 O1 1.993334 1_555
Mn1 O8 1.939350 1_556
Mn1 O11 1.945250 1_555
Mn1 O10 1.945736 1_555
Mn1 O14 1.982590 1_555
Mn1 O13 2.012752 1_556
Mn1 O15 2.014468 1_556
Co0 O2 1.873844 1_555
Co0 O3 1.874845 1_555
Co0 O13 1.900191 1_555
Co0 O15 1.901080 1_565
Co0 O6 1.908735 1_555
Co0 O7 1.909915 1_555
Co1 O12 1.868908 1_555
Co1 O4 1.884849 1_555
Co1 O10 1.925296 1_555
Co1 O14 1.938100 1_555
Co1 O0 1.971378 1_655
Co1 O9 1.984339 1_555
Co2 O12 1.867826 1_555
Co2 O4 1.882579 1_545
Co2 O11 1.922937 1_555
Co2 O14 1.939302 1_555
Co2 O5 1.970473 1_655
Co2 O9 1.985016 1_545
Cu0 O3 1.900593 1_455
Cu0 O2 1.903302 1_555
Cu0 O1 1.980912 1_555
Cu0 O8 1.986446 1_565
Cu0 O6 2.093167 1_555
Cu0 O13 2.115060 1_455
Cu1 O3 1.901933 1_445
Cu1 O2 1.904633 1_555
Cu1 O1 1.983597 1_555
Cu1 O8 1.990182 1_555
Cu1 O7 2.085101 1_555
Cu1 O15 2.108315 1_455
Cu2 O12 1.909286 1_555
Cu2 O4 1.914999 1_445
Cu2 O10 2.030717 1_555
Cu2 O0 2.033231 1_545
Cu2 O11 2.035729 1_555
Cu2 O5 2.039339 1_555
