# generated using pymatgen
data_LiTiCoO4
_symmetry_space_group_name_H-M   'P 1'
_cell_length_a   5.97436200
_cell_length_b   8.17867201
_cell_length_c   5.97419600
_cell_angle_alpha   89.99924065
_cell_angle_beta   90.00105496
_cell_angle_gamma   90.00399394
_symmetry_Int_Tables_number   1
_chemical_formula_structural   LiTiCoO4
_chemical_formula_sum   'Li4 Ti4 Co4 O16'
_cell_volume   291.91323884
_cell_formula_units_Z   4
loop_
 _symmetry_equiv_pos_site_id
 _symmetry_equiv_pos_as_xyz
  1  'x, y, z'
loop_
 _atom_site_type_symbol
 _atom_site_label
 _atom_site_symmetry_multiplicity
 _atom_site_fract_x
 _atom_site_fract_y
 _atom_site_fract_z
 _atom_site_occupancy
  Li  Li0  1  0.22750600  0.00000300  0.00001800  1
  Li  Li1  1  0.77249100  0.50002100  0.99999100  1
  Li  Li2  1  0.00000200  0.24997400  0.22751500  1
  Li  Li3  1  0.99997400  0.75000100  0.77249400  1
  Ti  Ti0  1  0.49997500  0.25000900  0.22132400  1
  Ti  Ti1  1  0.22145900  0.99997900  0.49998900  1
  Ti  Ti2  1  0.77854000  0.50003300  0.50001700  1
  Ti  Ti3  1  0.50000500  0.74998100  0.77860500  1
  Co  Co0  1  0.25763000  0.37501300  0.74238500  1
  Co  Co1  1  0.74236000  0.12499300  0.74237400  1
  Co  Co2  1  0.25754200  0.62499000  0.25752300  1
  Co  Co3  1  0.74244600  0.87500600  0.25753400  1
  O  O0  1  0.26738400  0.25953000  0.01171100  1
  O  O1  1  0.73263900  0.24048500  0.01170300  1
  O  O2  1  0.01160500  0.99049600  0.26742700  1
  O  O3  1  0.98840600  0.50950900  0.26746900  1
  O  O4  1  0.01164500  0.00947000  0.73258300  1
  O  O5  1  0.98835600  0.49053000  0.73256800  1
  O  O6  1  0.26743700  0.74048000  0.98837700  1
  O  O7  1  0.73261300  0.75950100  0.98837300  1
  O  O8  1  0.48345300  0.01043400  0.26436300  1
  O  O9  1  0.51653500  0.48956300  0.26434000  1
  O  O10  1  0.26435300  0.23953000  0.48347900  1
  O  O11  1  0.73565400  0.26047500  0.48349400  1
  O  O12  1  0.26432600  0.76049300  0.51652700  1
  O  O13  1  0.73565000  0.73950200  0.51654100  1
  O  O14  1  0.51649800  0.51044500  0.73563500  1
  O  O15  1  0.48351800  0.98955600  0.73564100  1
loop_
_geom_bond_atom_site_label_1
_geom_bond_atom_site_label_2
_geom_bond_distance
_geom_bond_site_symmetry_2
Li0 O4 2.054691 1_554
Li0 O2 2.054763 1_545
Li0 O0 2.137041 1_555
Li0 O6 2.137067 1_544
Li0 O8 2.199866 1_555
Li0 O15 2.200327 1_544
Li1 O5 2.054696 1_555
Li1 O3 2.055094 1_556
Li1 O7 2.136676 1_555
Li1 O1 2.137099 1_556
Li1 O9 2.199968 1_556
Li1 O14 2.200108 1_555
Li2 O1 2.054185 1_455
Li2 O0 2.054300 1_555
Li2 O2 2.136665 1_545
Li2 O3 2.137161 1_455
Li2 O10 2.199975 1_555
Li2 O11 2.200085 1_455
Li3 O7 2.054476 1_555
Li3 O6 2.054933 1_655
Li3 O4 2.136595 1_665
Li3 O5 2.136617 1_555
Li3 O13 2.199824 1_555
Li3 O12 2.200039 1_655
Co0 O5 1.866626 1_455
Co0 O0 1.866638 1_556
Co0 O14 1.902674 1_555
Co0 O10 1.903140 1_555
Co1 O4 1.866705 1_655
Co1 O1 1.866708 1_556
Co1 O15 1.902569 1_545
Co1 O11 1.902981 1_555
Co2 O3 1.865679 1_455
Co2 O6 1.865764 1_554
Co2 O9 1.903390 1_555
Co2 O12 1.903714 1_555
Co3 O2 1.865824 1_655
Co3 O7 1.865912 1_554
Co3 O8 1.903398 1_565
Co3 O13 1.903712 1_555
O0 Ti0 1.872199 1_555
O1 Ti0 1.872592 1_555
O2 Ti1 1.873010 1_555
O3 Ti2 1.873026 1_555
O4 Ti1 1.873036 1_545
O5 Ti2 1.872822 1_555
O6 Ti3 1.872752 1_555
O7 Ti3 1.872887 1_555
O8 Ti0 1.978658 1_555
O8 Ti1 2.106875 1_545
O9 Ti0 1.978487 1_555
O9 Ti2 2.107095 1_555
O10 Ti1 1.978339 1_545
O10 Ti0 2.107575 1_555
O11 Ti2 1.978396 1_555
O11 Ti0 2.107828 1_555
O12 Ti1 1.977835 1_555
O12 Ti3 2.107442 1_555
O13 Ti2 1.977714 1_555
O13 Ti3 2.107273 1_555
O14 Ti3 1.978300 1_555
O14 Ti2 2.107052 1_555
O15 Ti3 1.978602 1_555
O15 Ti1 2.107227 1_555
