# generated using pymatgen
data_LiFe4(PO4)3
_symmetry_space_group_name_H-M   'P 1'
_cell_length_a   8.70705207
_cell_length_b   8.70705207
_cell_length_c   6.61124532
_cell_angle_alpha   72.03655054
_cell_angle_beta   72.03655054
_cell_angle_gamma   94.39465139
_symmetry_Int_Tables_number   1
_chemical_formula_structural   LiFe4(PO4)3
_chemical_formula_sum   'Li2 Fe8 P6 O24'
_cell_volume   445.29880346
_cell_formula_units_Z   2
loop_
 _symmetry_equiv_pos_site_id
 _symmetry_equiv_pos_as_xyz
  1  'x, y, z'
loop_
 _atom_site_type_symbol
 _atom_site_label
 _atom_site_symmetry_multiplicity
 _atom_site_fract_x
 _atom_site_fract_y
 _atom_site_fract_z
 _atom_site_occupancy
  Li  Li0  1  0.00308000  0.98649100  0.25034000  1
  Li  Li1  1  0.98649100  0.00308000  0.75034000  1
  Fe  Fe0  1  0.05593000  0.37501000  0.37277500  1
  Fe  Fe1  1  0.37501000  0.05593000  0.87277500  1
  Fe  Fe2  1  0.73691300  0.27278400  0.24178800  1
  Fe  Fe3  1  0.48619100  0.47270800  0.46342000  1
  Fe  Fe4  1  0.27278400  0.73691300  0.74178800  1
  Fe  Fe5  1  0.47270800  0.48619100  0.96342000  1
  Fe  Fe6  1  0.62891300  0.94078100  0.13343900  1
  Fe  Fe7  1  0.94078100  0.62891300  0.63343900  1
  P  P0  1  0.32992500  0.11913200  0.37792400  1
  P  P1  1  0.11913200  0.32992500  0.87792400  1
  P  P2  1  0.30078400  0.69975200  0.24842200  1
  P  P3  1  0.69975200  0.30078400  0.74842200  1
  P  P4  1  0.88542500  0.66389900  0.12697300  1
  P  P5  1  0.66389900  0.88542500  0.62697300  1
  O  O0  1  0.39064400  0.04511600  0.19042500  1
  O  O1  1  0.15109800  0.14967900  0.41425500  1
  O  O2  1  0.04511600  0.39064400  0.69042500  1
  O  O3  1  0.14967900  0.15109800  0.91425500  1
  O  O4  1  0.67773000  0.01356000  0.39217900  1
  O  O5  1  0.45818000  0.28497900  0.30597100  1
  O  O6  1  0.28567000  0.51999200  0.23731100  1
  O  O7  1  0.01356000  0.67773000  0.89217900  1
  O  O8  1  0.27560400  0.80997800  0.03498700  1
  O  O9  1  0.18812400  0.72126900  0.46487300  1
  O  O10  1  0.28497900  0.45818000  0.80597100  1
  O  O11  1  0.51999200  0.28567000  0.73731100  1
  O  O12  1  0.47706000  0.71655800  0.26687800  1
  O  O13  1  0.72639900  0.53241000  0.18808300  1
  O  O14  1  0.80997800  0.27560400  0.53498700  1
  O  O15  1  0.72126900  0.18812400  0.96487300  1
  O  O16  1  0.99705900  0.32859100  0.10757600  1
  O  O17  1  0.71655800  0.47706000  0.76687800  1
  O  O18  1  0.53241000  0.72639900  0.68808300  1
  O  O19  1  0.32859100  0.99705900  0.60757600  1
  O  O20  1  0.84889800  0.84015600  0.09904000  1
  O  O21  1  0.96034700  0.60324200  0.31412100  1
  O  O22  1  0.84015600  0.84889800  0.59904000  1
  O  O23  1  0.60324200  0.96034700  0.81412100  1
loop_
_geom_bond_atom_site_label_1
_geom_bond_atom_site_label_2
_geom_bond_distance
_geom_bond_site_symmetry_2
Li0 O3 2.150911 1_564
Li0 O22 2.186556 1_455
Li0 O20 2.403859 1_455
Li0 O1 2.526837 1_565
Li1 O1 2.150911 1_655
Li1 O20 2.186556 1_546
Li1 O22 2.403859 1_545
Li1 O3 2.526837 1_655
Fe0 O6 2.051269 1_555
Fe0 O14 2.052348 1_455
Fe0 O16 2.111837 1_455
Fe0 O2 2.119902 1_555
Fe0 O1 2.160694 1_555
Fe0 O21 2.183868 1_455
Fe1 O11 2.051269 1_555
Fe1 O8 2.052348 1_546
Fe1 O19 2.111837 1_545
Fe1 O0 2.119902 1_556
Fe1 O3 2.160694 1_555
Fe1 O23 2.183868 1_545
Fe2 O4 2.114238 1_555
Fe2 O16 2.116552 1_555
Fe2 O13 2.191196 1_555
Fe2 O15 2.210074 1_554
Fe2 O14 2.224945 1_555
Fe2 O5 2.348074 1_555
Fe3 O12 2.142575 1_555
Fe3 O11 2.144962 1_555
Fe3 O13 2.204433 1_555
Fe3 O5 2.227070 1_555
Fe3 O10 2.357159 1_555
Fe3 O6 2.606311 1_555
Fe4 O7 2.114238 1_555
Fe4 O19 2.116552 1_555
Fe4 O18 2.191196 1_555
Fe4 O9 2.210074 1_555
Fe4 O8 2.224945 1_556
Fe4 O10 2.348074 1_555
Fe5 O17 2.142575 1_555
Fe5 O6 2.144962 1_556
Fe5 O18 2.204433 1_555
Fe5 O10 2.227070 1_555
Fe5 O5 2.357159 1_556
Fe5 O11 2.606311 1_555
Fe6 O12 2.039749 1_555
Fe6 O15 2.056242 1_564
Fe6 O4 2.141073 1_565
Fe6 O20 2.144665 1_555
Fe6 O23 2.147263 1_554
Fe6 O0 2.299805 1_565
Fe7 O17 2.039749 1_555
Fe7 O9 2.056242 1_655
Fe7 O7 2.141073 1_655
Fe7 O22 2.144665 1_555
Fe7 O21 2.147263 1_555
Fe7 O2 2.299805 1_655
O0 P0 1.540191 1_555
O1 P0 1.557255 1_555
O2 P1 1.540191 1_555
O3 P1 1.557255 1_555
O4 P5 1.569930 1_545
O5 P0 1.600029 1_555
O6 P2 1.586763 1_555
O7 P4 1.569930 1_456
O8 P2 1.532328 1_555
O9 P2 1.540393 1_555
O10 P1 1.600029 1_555
O11 P3 1.586763 1_555
O12 P2 1.576121 1_555
O13 P4 1.586795 1_555
O14 P3 1.532328 1_555
O15 P3 1.540393 1_555
O16 P1 1.557849 1_654
O17 P3 1.576121 1_555
O18 P5 1.586795 1_555
O19 P0 1.557849 1_565
O20 P4 1.557790 1_555
O21 P4 1.543682 1_555
O22 P5 1.557790 1_555
O23 P5 1.543682 1_555
