# generated using pymatgen
data_NaCoAsCO7
_symmetry_space_group_name_H-M   'P 1'
_cell_length_a   6.23489800
_cell_length_b   5.33175000
_cell_length_c   9.24573350
_cell_angle_alpha   86.86502378
_cell_angle_beta   90.00000000
_cell_angle_gamma   90.00000000
_symmetry_Int_Tables_number   1
_chemical_formula_structural   NaCoAsCO7
_chemical_formula_sum   'Na2 Co2 As2 C2 O14'
_cell_volume   306.89518952
_cell_formula_units_Z   2
loop_
 _symmetry_equiv_pos_site_id
 _symmetry_equiv_pos_as_xyz
  1  'x, y, z'
loop_
 _atom_site_type_symbol
 _atom_site_label
 _atom_site_symmetry_multiplicity
 _atom_site_fract_x
 _atom_site_fract_y
 _atom_site_fract_z
 _atom_site_occupancy
  Na  Na0  1  0.52150200  0.76427000  0.76987200  1
  Na  Na1  1  0.02150200  0.23573000  0.23012800  1
  Co  Co0  1  0.24159500  0.21400300  0.66756500  1
  Co  Co1  1  0.74159500  0.78599700  0.33243500  1
  As  As0  1  0.74759300  0.28297500  0.56122100  1
  As  As1  1  0.24759300  0.71702500  0.43877900  1
  C  C0  1  0.25368700  0.27379600  0.91865200  1
  C  C1  1  0.75368700  0.72620400  0.08134800  1
  O  O0  1  0.75407000  0.69206500  0.95111300  1
  O  O1  1  0.25001900  0.05530000  0.85904100  1
  O  O2  1  0.25497900  0.45492500  0.81355900  1
  O  O3  1  0.95026900  0.21216500  0.68658800  1
  O  O4  1  0.54285300  0.20155000  0.68154400  1
  O  O5  1  0.25389000  0.87866500  0.59289800  1
  O  O6  1  0.73169200  0.60355400  0.52102700  1
  O  O7  1  0.23169200  0.39644600  0.47897300  1
  O  O8  1  0.75389000  0.12133500  0.40710200  1
  O  O9  1  0.04285300  0.79845000  0.31845600  1
  O  O10  1  0.45026900  0.78783500  0.31341200  1
  O  O11  1  0.75497900  0.54507500  0.18644100  1
  O  O12  1  0.75001900  0.94470000  0.14095900  1
  O  O13  1  0.25407000  0.30793500  0.04888700  1
loop_
_geom_bond_atom_site_label_1
_geom_bond_atom_site_label_2
_geom_bond_distance
_geom_bond_site_symmetry_2
Na0 O0 2.233439 1_555
Na0 O2 2.360515 1_555
Na0 O5 2.392527 1_555
Na0 O4 2.431489 1_565
Na0 O1 2.468301 1_565
Na0 O6 2.821494 1_555
Na1 O13 2.233439 1_555
Na1 O11 2.360515 1_455
Na1 O8 2.392527 1_455
Na1 O9 2.431489 1_545
Na1 O12 2.468301 1_445
Na1 O7 2.821494 1_555
Co0 O3 1.824858 1_455
Co0 O4 1.883676 1_555
Co0 O2 1.915375 1_555
Co0 O1 1.920676 1_555
Co0 O7 1.950617 1_555
Co0 O5 1.952995 1_545
Co1 O10 1.824858 1_555
Co1 O9 1.883676 1_655
Co1 O11 1.915375 1_555
Co1 O12 1.920676 1_555
Co1 O6 1.950617 1_555
Co1 O8 1.952995 1_565
As0 O8 1.705598 1_555
As0 O6 1.732046 1_555
As0 O4 1.732855 1_555
As0 O3 1.742141 1_555
As1 O5 1.705598 1_555
As1 O7 1.732046 1_555
As1 O9 1.732855 1_555
As1 O10 1.742141 1_555
C0 O13 1.227603 1_556
C0 O1 1.315925 1_555
C0 O2 1.331991 1_555
C1 O0 1.227603 1_554
C1 O12 1.315925 1_555
C1 O11 1.331991 1_555
