# generated using pymatgen
data_LiVS2
_symmetry_space_group_name_H-M   'P 1'
_cell_length_a   3.48119139
_cell_length_b   3.48119139
_cell_length_c   6.04861900
_cell_angle_alpha   90.00000000
_cell_angle_beta   90.00000000
_cell_angle_gamma   119.99998836
_symmetry_Int_Tables_number   1
_chemical_formula_structural   LiVS2
_chemical_formula_sum   'Li1 V1 S2'
_cell_volume   63.48084700
_cell_formula_units_Z   1
loop_
 _symmetry_equiv_pos_site_id
 _symmetry_equiv_pos_as_xyz
  1  'x, y, z'
loop_
 _atom_site_type_symbol
 _atom_site_label
 _atom_site_symmetry_multiplicity
 _atom_site_fract_x
 _atom_site_fract_y
 _atom_site_fract_z
 _atom_site_occupancy
  Li  Li0  1  0.00000000  0.00000000  0.50000000  1
  V  V0  1  0.00000000  0.00000000  0.00000000  1
  S  S0  1  0.66666700  0.33333300  0.22975600  1
  S  S1  1  0.33333300  0.66666700  0.77024400  1
loop_
_geom_bond_atom_site_label_1
_geom_bond_atom_site_label_2
_geom_bond_distance
_geom_bond_site_symmetry_2
Li0 S1 2.590653 1_545
Li0 S0 2.590653 1_455
Li0 S1 2.590656 1_445
Li0 S1 2.590656 1_555
Li0 S0 2.590656 1_445
Li0 S0 2.590656 1_555
S0 V0 2.443530 1_655
S0 V0 2.443533 1_555
S0 V0 2.443533 1_665
S1 V0 2.443530 1_566
S1 V0 2.443533 1_666
S1 V0 2.443533 1_556
