# generated using pymatgen
data_Li6Mn5Fe(BO3)6
_symmetry_space_group_name_H-M   'P 1'
_cell_length_a   6.36526000
_cell_length_b   8.26575900
_cell_length_c   8.27779092
_cell_angle_alpha   60.08305000
_cell_angle_beta   90.00000000
_cell_angle_gamma   90.00000000
_symmetry_Int_Tables_number   1
_chemical_formula_structural   Li6Mn5Fe(BO3)6
_chemical_formula_sum   'Li6 Mn5 Fe1 B6 O18'
_cell_volume   377.49118056
_cell_formula_units_Z   1
loop_
 _symmetry_equiv_pos_site_id
 _symmetry_equiv_pos_as_xyz
  1  'x, y, z'
loop_
 _atom_site_type_symbol
 _atom_site_label
 _atom_site_symmetry_multiplicity
 _atom_site_fract_x
 _atom_site_fract_y
 _atom_site_fract_z
 _atom_site_occupancy
  Li  Li0  1  0.24982700  0.98223400  0.30168100  1
  Li  Li1  1  0.75017300  0.98223400  0.30168100  1
  Li  Li2  1  0.25040100  0.30121000  0.71613100  1
  Li  Li3  1  0.74959900  0.30121000  0.71613100  1
  Li  Li4  1  0.74964400  0.71535900  0.98350200  1
  Li  Li5  1  0.25035600  0.71535900  0.98350200  1
  Mn  Mn0  1  0.00000000  0.35949500  0.01205000  1
  Mn  Mn1  1  0.50000000  0.36062800  0.01194300  1
  Mn  Mn2  1  0.00000000  0.01191400  0.62876600  1
  Mn  Mn3  1  0.50000000  0.01210300  0.62756800  1
  Mn  Mn4  1  0.00000000  0.62857500  0.35916400  1
  Fe  Fe0  1  0.50000000  0.63350800  0.35962600  1
  B  B0  1  0.00000000  0.00030200  0.99980900  1
  B  B1  1  0.50000000  0.99753300  0.00006300  1
  B  B2  1  0.25183000  0.66658000  0.66586600  1
  B  B3  1  0.74817000  0.66658000  0.66586600  1
  B  B4  1  0.25134200  0.33451800  0.33356000  1
  B  B5  1  0.74865800  0.33451800  0.33356000  1
  O  O0  1  0.50000000  0.91596600  0.19463400  1
  O  O1  1  0.00000000  0.92256900  0.19312000  1
  O  O2  1  0.25413200  0.58054300  0.55815600  1
  O  O3  1  0.74586800  0.58054300  0.55815600  1
  O  O4  1  0.00000000  0.19385700  0.88424100  1
  O  O5  1  0.50000000  0.19110400  0.88824800  1
  O  O6  1  0.24987900  0.86000400  0.58005300  1
  O  O7  1  0.75012100  0.86000400  0.58005300  1
  O  O8  1  0.25008500  0.55930300  0.85915500  1
  O  O9  1  0.74991500  0.55930300  0.85915500  1
  O  O10  1  0.25027500  0.25184200  0.22212800  1
  O  O11  1  0.74972500  0.25184200  0.22212800  1
  O  O12  1  0.00000000  0.88452500  0.92195300  1
  O  O13  1  0.50000000  0.88414300  0.92001100  1
  O  O14  1  0.25249100  0.52792700  0.25220400  1
  O  O15  1  0.74750900  0.52792700  0.25220400  1
  O  O16  1  0.74950200  0.22237300  0.52696300  1
  O  O17  1  0.25049800  0.22237300  0.52696300  1
loop_
_geom_bond_atom_site_label_1
_geom_bond_atom_site_label_2
_geom_bond_distance
_geom_bond_site_symmetry_2
Li0 O10 1.983960 1_565
Li0 O6 2.002081 1_555
Li0 O1 2.005404 1_555
Li0 O0 2.026123 1_555
Li1 O11 1.983960 1_565
Li1 O7 2.002081 1_555
Li1 O1 2.005404 1_655
Li1 O0 2.026123 1_555
Li2 O17 1.973452 1_555
Li2 O2 2.007459 1_555
Li2 O4 2.008129 1_555
Li2 O5 2.022116 1_555
Li3 O16 1.973452 1_555
Li3 O3 2.007459 1_555
Li3 O4 2.008129 1_655
Li3 O5 2.022116 1_555
Li4 O15 1.977480 1_556
Li4 O13 2.004068 1_555
Li4 O12 2.010885 1_655
Li4 O9 2.011915 1_555
Li5 O14 1.977480 1_556
Li5 O13 2.004068 1_555
Li5 O12 2.010885 1_555
Li5 O8 2.011915 1_555
Mn0 O4 2.106817 1_554
Mn0 O8 2.185972 1_554
Mn0 O9 2.185972 1_454
Mn0 O10 2.193217 1_555
Mn0 O11 2.193217 1_455
Mn1 O5 2.107857 1_554
Mn1 O9 2.180646 1_554
Mn1 O8 2.180646 1_554
Mn1 O10 2.191314 1_555
Mn1 O11 2.191314 1_555
Mn2 O12 2.109434 1_545
Mn2 O6 2.184982 1_545
Mn2 O7 2.184982 1_445
Mn2 O17 2.194644 1_555
Mn2 O16 2.194644 1_455
Mn3 O13 2.103542 1_545
Mn3 O6 2.182491 1_545
Mn3 O7 2.182491 1_545
Mn3 O16 2.189234 1_555
Mn3 O17 2.189234 1_555
Mn4 O1 2.112531 1_555
Mn4 O14 2.189467 1_555
Mn4 O15 2.189467 1_455
Mn4 O3 2.198928 1_455
Mn4 O2 2.198928 1_555
Fe0 O0 2.033616 1_555
Fe0 O2 2.150349 1_555
Fe0 O3 2.150349 1_555
Fe0 O14 2.192823 1_555
Fe0 O15 2.192823 1_555
B0 O12 1.395125 1_545
B0 O1 1.395658 1_546
B0 O4 1.395748 1_555
B1 O13 1.391787 1_554
B1 O5 1.392665 1_564
B1 O0 1.401956 1_555
B2 O6 1.388542 1_555
B2 O8 1.389684 1_555
B2 O2 1.390466 1_555
B3 O7 1.388542 1_555
B3 O9 1.389684 1_555
B3 O3 1.390466 1_555
B4 O14 1.391194 1_555
B4 O17 1.393569 1_555
B4 O10 1.395231 1_555
B5 O15 1.391194 1_555
B5 O16 1.393569 1_555
B5 O11 1.395231 1_555
