# generated using pymatgen
data_TbNbO4
_symmetry_space_group_name_H-M   'P 1'
_cell_length_a   5.38651300
_cell_length_b   7.61189300
_cell_length_c   7.67322819
_cell_angle_alpha   81.56906286
_cell_angle_beta   90.00000000
_cell_angle_gamma   90.00000000
_symmetry_Int_Tables_number   1
_chemical_formula_structural   TbNbO4
_chemical_formula_sum   'Tb4 Nb4 O16'
_cell_volume   311.21439142
_cell_formula_units_Z   4
loop_
 _symmetry_equiv_pos_site_id
 _symmetry_equiv_pos_as_xyz
  1  'x, y, z'
loop_
 _atom_site_type_symbol
 _atom_site_label
 _atom_site_symmetry_multiplicity
 _atom_site_fract_x
 _atom_site_fract_y
 _atom_site_fract_z
 _atom_site_occupancy
  Tb  Tb0  1  0.27993800  0.64541800  0.60881500  1
  Tb  Tb1  1  0.22006200  0.64541800  0.10881500  1
  Tb  Tb2  1  0.77993800  0.35458200  0.89118500  1
  Tb  Tb3  1  0.72006200  0.35458200  0.39118500  1
  Nb  Nb0  1  0.76775200  0.83512700  0.81125800  1
  Nb  Nb1  1  0.73224800  0.83512700  0.31125800  1
  Nb  Nb2  1  0.26775200  0.16487300  0.68874200  1
  Nb  Nb3  1  0.23224800  0.16487300  0.18874200  1
  O  O0  1  0.10252500  0.93392900  0.68933800  1
  O  O1  1  0.39747500  0.93392900  0.18933800  1
  O  O2  1  0.62769200  0.82775900  0.56212800  1
  O  O3  1  0.87230800  0.82775900  0.06212800  1
  O  O4  1  0.49966500  0.67202000  0.88000500  1
  O  O5  1  0.99089900  0.60971800  0.82820800  1
  O  O6  1  0.00033500  0.67202000  0.38000500  1
  O  O7  1  0.50910100  0.60971800  0.32820800  1
  O  O8  1  0.49089900  0.39028200  0.67179200  1
  O  O9  1  0.99966500  0.32798000  0.61999500  1
  O  O10  1  0.00910100  0.39028200  0.17179200  1
  O  O11  1  0.50033500  0.32798000  0.11999500  1
  O  O12  1  0.12769200  0.17224100  0.93787200  1
  O  O13  1  0.37230800  0.17224100  0.43787200  1
  O  O14  1  0.60252500  0.06607100  0.81066200  1
  O  O15  1  0.89747500  0.06607100  0.31066200  1
loop_
_geom_bond_atom_site_label_1
_geom_bond_atom_site_label_2
_geom_bond_distance
_geom_bond_site_symmetry_2
Nb0 O4 1.926906 1_555
Nb0 O14 1.969783 1_565
Nb0 O3 1.998557 1_556
Nb0 O2 2.063514 1_555
Nb0 O5 2.083309 1_555
Nb0 O0 2.118074 1_655
Nb1 O6 1.926906 1_655
Nb1 O15 1.969783 1_565
Nb1 O2 1.998557 1_555
Nb1 O3 2.063514 1_555
Nb1 O7 2.083309 1_555
Nb1 O1 2.118074 1_555
Nb2 O9 1.926906 1_455
Nb2 O0 1.969783 1_545
Nb2 O13 1.998557 1_555
Nb2 O12 2.063514 1_555
Nb2 O8 2.083309 1_555
Nb2 O14 2.118074 1_555
Nb3 O11 1.926906 1_555
Nb3 O1 1.969783 1_545
Nb3 O12 1.998557 1_554
Nb3 O13 2.063514 1_555
Nb3 O10 2.083309 1_555
Nb3 O15 2.118074 1_455
O0 Tb0 2.552611 1_555
O1 Tb1 2.552611 1_555
O2 Tb0 2.327611 1_555
O3 Tb1 2.327611 1_655
O4 Tb1 2.299471 1_556
O4 Tb0 2.428073 1_555
O4 Tb2 2.839767 1_555
O5 Tb2 2.240810 1_555
O5 Tb0 2.279844 1_655
O5 Tb1 2.530858 1_656
O6 Tb0 2.299471 1_555
O6 Tb1 2.428073 1_555
O6 Tb3 2.839767 1_455
O7 Tb3 2.240810 1_555
O7 Tb1 2.279844 1_555
O7 Tb0 2.530858 1_555
O8 Tb0 2.240810 1_555
O8 Tb2 2.279844 1_555
O8 Tb3 2.530858 1_555
O9 Tb3 2.299471 1_555
O9 Tb2 2.428073 1_555
O9 Tb0 2.839767 1_655
O10 Tb1 2.240810 1_555
O10 Tb3 2.279844 1_455
O10 Tb2 2.530858 1_454
O11 Tb2 2.299471 1_554
O11 Tb3 2.428073 1_555
O11 Tb1 2.839767 1_555
O12 Tb2 2.327611 1_455
O13 Tb3 2.327611 1_555
O14 Tb2 2.552611 1_555
O15 Tb3 2.552611 1_555
