# generated using pymatgen
data_Na2H4PtC4Br2(N2O)2
_symmetry_space_group_name_H-M   'P 1'
_cell_length_a   6.55316200
_cell_length_b   12.05079900
_cell_length_c   15.23669100
_cell_angle_alpha   90.00000000
_cell_angle_beta   90.00000000
_cell_angle_gamma   90.00000000
_symmetry_Int_Tables_number   1
_chemical_formula_structural   Na2H4PtC4Br2(N2O)2
_chemical_formula_sum   'Na8 H16 Pt4 C16 Br8 N16 O8'
_cell_volume   1203.25425778
_cell_formula_units_Z   4
loop_
 _symmetry_equiv_pos_site_id
 _symmetry_equiv_pos_as_xyz
  1  'x, y, z'
loop_
 _atom_site_type_symbol
 _atom_site_label
 _atom_site_symmetry_multiplicity
 _atom_site_fract_x
 _atom_site_fract_y
 _atom_site_fract_z
 _atom_site_occupancy
  Na  Na0  1  0.54790500  0.73911700  0.02445400  1
  Na  Na1  1  0.95209500  0.23911700  0.47554600  1
  Na  Na2  1  0.45209500  0.26088300  0.52445400  1
  Na  Na3  1  0.04790500  0.76088300  0.97554600  1
  Na  Na4  1  0.45209500  0.26088300  0.97554600  1
  Na  Na5  1  0.04790500  0.76088300  0.52445400  1
  Na  Na6  1  0.54790500  0.73911700  0.47554600  1
  Na  Na7  1  0.95209500  0.23911700  0.02445400  1
  H  H0  1  0.75955400  0.96330900  0.98713400  1
  H  H1  1  0.74044600  0.46330900  0.51286600  1
  H  H2  1  0.24044600  0.03669100  0.48713400  1
  H  H3  1  0.25955400  0.53669100  0.01286600  1
  H  H4  1  0.24044600  0.03669100  0.01286600  1
  H  H5  1  0.25955400  0.53669100  0.48713400  1
  H  H6  1  0.75955400  0.96330900  0.51286600  1
  H  H7  1  0.74044600  0.46330900  0.98713400  1
  H  H8  1  0.82347100  0.91476200  0.07769800  1
  H  H9  1  0.67652900  0.41476200  0.42230200  1
  H  H10  1  0.17652900  0.08523800  0.57769800  1
  H  H11  1  0.32347100  0.58523800  0.92230200  1
  H  H12  1  0.17652900  0.08523800  0.92230200  1
  H  H13  1  0.32347100  0.58523800  0.57769800  1
  H  H14  1  0.82347100  0.91476200  0.42230200  1
  H  H15  1  0.67652900  0.41476200  0.07769800  1
  Pt  Pt0  1  0.93559700  0.49277700  0.75000000  1
  Pt  Pt1  1  0.56440300  0.99277700  0.75000000  1
  Pt  Pt2  1  0.06440300  0.50722300  0.25000000  1
  Pt  Pt3  1  0.43559700  0.00722300  0.25000000  1
  C  C0  1  0.07078000  0.39937100  0.65679700  1
  C  C1  1  0.42922000  0.89937100  0.84320300  1
  C  C2  1  0.92922000  0.60062900  0.15679700  1
  C  C3  1  0.57078000  0.10062900  0.34320300  1
  C  C4  1  0.92922000  0.60062900  0.34320300  1
  C  C5  1  0.57078000  0.10062900  0.15679700  1
  C  C6  1  0.07078000  0.39937100  0.84320300  1
  C  C7  1  0.42922000  0.89937100  0.65679700  1
  C  C8  1  0.80709500  0.58554900  0.65463200  1
  C  C9  1  0.69290500  0.08554900  0.84536800  1
  C  C10  1  0.19290500  0.41445100  0.15463200  1
  C  C11  1  0.30709500  0.91445100  0.34536800  1
  C  C12  1  0.19290500  0.41445100  0.34536800  1
  C  C13  1  0.30709500  0.91445100  0.15463200  1
  C  C14  1  0.80709500  0.58554900  0.84536800  1
  C  C15  1  0.69290500  0.08554900  0.65463200  1
  Br  Br0  1  0.37268900  0.63258400  0.25000000  1
  Br  Br1  1  0.12731100  0.13258400  0.25000000  1
  Br  Br2  1  0.62731100  0.36741600  0.75000000  1
  Br  Br3  1  0.87268900  0.86741600  0.75000000  1
  Br  Br4  1  0.73912700  0.87715900  0.25000000  1
  Br  Br5  1  0.76087300  0.37715900  0.25000000  1
  Br  Br6  1  0.26087300  0.12284100  0.75000000  1
  Br  Br7  1  0.23912700  0.62284100  0.75000000  1
  N  N0  1  0.15205400  0.34659800  0.60266400  1
  N  N1  1  0.34794600  0.84659800  0.89733600  1
  N  N2  1  0.84794600  0.65340200  0.10266400  1
  N  N3  1  0.65205400  0.15340200  0.39733600  1
  N  N4  1  0.84794600  0.65340200  0.39733600  1
  N  N5  1  0.65205400  0.15340200  0.10266400  1
  N  N6  1  0.15205400  0.34659800  0.89733600  1
  N  N7  1  0.34794600  0.84659800  0.60266400  1
  N  N8  1  0.74147500  0.63788000  0.59632800  1
  N  N9  1  0.75852500  0.13788000  0.90367200  1
  N  N10  1  0.25852500  0.36212000  0.09632800  1
  N  N11  1  0.24147500  0.86212000  0.40367200  1
  N  N12  1  0.25852500  0.36212000  0.40367200  1
  N  N13  1  0.24147500  0.86212000  0.09632800  1
  N  N14  1  0.74147500  0.63788000  0.90367200  1
  N  N15  1  0.75852500  0.13788000  0.59632800  1
  O  O0  1  0.78898100  0.89361200  0.01743100  1
  O  O1  1  0.71101900  0.39361200  0.48256900  1
  O  O2  1  0.21101900  0.10638800  0.51743100  1
  O  O3  1  0.28898100  0.60638800  0.98256900  1
  O  O4  1  0.21101900  0.10638800  0.98256900  1
  O  O5  1  0.28898100  0.60638800  0.51743100  1
  O  O6  1  0.78898100  0.89361200  0.48256900  1
  O  O7  1  0.71101900  0.39361200  0.01743100  1
loop_
_geom_bond_atom_site_label_1
_geom_bond_atom_site_label_2
_geom_bond_distance
_geom_bond_site_symmetry_2
Na0 O3 2.417579 1_554
Na0 O0 2.444076 1_555
Na1 O2 2.417579 1_655
Na1 O1 2.444076 1_555
Na2 O1 2.417579 1_555
Na2 O2 2.444076 1_555
Na3 O0 2.417579 1_456
Na3 O3 2.444076 1_555
Na4 O7 2.417579 1_556
Na4 O4 2.444076 1_555
Na5 O6 2.417579 1_455
Na5 O5 2.444076 1_555
Na6 O5 2.417579 1_555
Na6 O6 2.444076 1_555
Na7 O4 2.417579 1_654
Na7 O7 2.444076 1_555
H0 O0 0.977612 1_556
H1 O1 0.977612 1_555
H2 O2 0.977612 1_555
H3 O3 0.977612 1_554
H4 O4 0.977612 1_554
H5 O5 0.977612 1_555
H6 O6 0.977612 1_555
H7 O7 0.977612 1_556
H8 O0 0.979420 1_555
H9 O1 0.979420 1_555
H10 O2 0.979420 1_555
H11 O3 0.979420 1_555
H12 O4 0.979420 1_555
H13 O5 0.979420 1_555
H14 O6 0.979420 1_555
H15 O7 0.979420 1_555
C0 N0 1.169792 1_555
C0 Pt0 2.017050 1_455
C1 N1 1.169792 1_555
C1 Pt1 2.017050 1_555
C2 N2 1.169792 1_555
C2 Pt2 2.017050 1_655
C3 N3 1.169792 1_555
C3 Pt3 2.017050 1_555
C4 N4 1.169792 1_555
C4 Pt2 2.017050 1_655
C5 N5 1.169792 1_555
C5 Pt3 2.017050 1_555
C6 N6 1.169792 1_555
C6 Pt0 2.017050 1_455
C7 N7 1.169792 1_555
C7 Pt1 2.017050 1_555
C8 N8 1.171236 1_555
C8 Pt0 2.017541 1_555
C9 N9 1.171236 1_555
C9 Pt1 2.017541 1_545
C10 N10 1.171236 1_555
C10 Pt2 2.017541 1_555
C11 N11 1.171236 1_555
C11 Pt3 2.017541 1_565
C12 N12 1.171236 1_555
C12 Pt2 2.017541 1_555
C13 N13 1.171236 1_555
C13 Pt3 2.017541 1_565
C14 N14 1.171236 1_555
C14 Pt0 2.017541 1_555
C15 N15 1.171236 1_555
C15 Pt1 2.017541 1_545
Br0 Pt2 2.522621 1_555
Br1 Pt3 2.522621 1_555
Br2 Pt0 2.522621 1_555
Br3 Pt1 2.522621 1_555
Br4 Pt3 2.532412 1_565
Br5 Pt2 2.532412 1_655
Br6 Pt1 2.532412 1_545
Br7 Pt0 2.532412 1_455
N0 Na2 2.520520 1_555
N0 Na1 2.673218 1_455
N1 Na3 2.520520 1_555
N1 Na0 2.673218 1_556
N2 Na0 2.520520 1_555
N2 Na3 2.673218 1_654
N3 Na1 2.520520 1_555
N3 Na2 2.673218 1_555
N4 Na6 2.520520 1_555
N4 Na5 2.673218 1_655
N5 Na7 2.520520 1_555
N5 Na4 2.673218 1_554
N6 Na4 2.520520 1_555
N6 Na7 2.673218 1_456
N7 Na5 2.520520 1_555
N7 Na6 2.673218 1_555
N8 Na6 2.546413 1_555
N8 Na5 2.725595 1_655
N9 Na7 2.546413 1_556
N9 Na4 2.725595 1_555
N10 Na4 2.546413 1_554
N10 Na7 2.725595 1_455
N11 Na5 2.546413 1_555
N11 Na6 2.725595 1_555
N12 Na2 2.546413 1_555
N12 Na1 2.725595 1_455
N13 Na3 2.546413 1_554
N13 Na0 2.725595 1_555
N14 Na0 2.546413 1_556
N14 Na3 2.725595 1_655
N15 Na1 2.546413 1_555
N15 Na2 2.725595 1_555
