# generated using pymatgen
data_Ba5In5O12
_symmetry_space_group_name_H-M   'P 1'
_cell_length_a   5.99361200
_cell_length_b   7.36507687
_cell_length_c   9.75723082
_cell_angle_alpha   108.02571999
_cell_angle_beta   107.07332999
_cell_angle_gamma   88.60788185
_symmetry_Int_Tables_number   1
_chemical_formula_structural   Ba5In5O12
_chemical_formula_sum   'Ba5 In5 O12'
_cell_volume   390.47582977
_cell_formula_units_Z   1
loop_
 _symmetry_equiv_pos_site_id
 _symmetry_equiv_pos_as_xyz
  1  'x, y, z'
loop_
 _atom_site_type_symbol
 _atom_site_label
 _atom_site_symmetry_multiplicity
 _atom_site_fract_x
 _atom_site_fract_y
 _atom_site_fract_z
 _atom_site_occupancy
  Ba  Ba0  1  0.89193000  0.09895900  0.80030600  1
  Ba  Ba1  1  0.10807000  0.90104100  0.19969400  1
  Ba  Ba2  1  0.50000000  0.50000000  0.00000000  1
  Ba  Ba3  1  0.70073500  0.27633200  0.39576800  1
  Ba  Ba4  1  0.29926500  0.72366800  0.60423200  1
  In  In0  1  0.50000000  0.00000000  0.00000000  1
  In  In1  1  0.67964300  0.77050900  0.39274800  1
  In  In2  1  0.90837600  0.58406200  0.79055400  1
  In  In3  1  0.09162400  0.41593800  0.20944600  1
  In  In4  1  0.32035700  0.22949100  0.60725200  1
  O  O0  1  0.38918300  0.10112700  0.80089200  1
  O  O1  1  0.61081700  0.89887300  0.19910800  1
  O  O2  1  0.98953300  0.67669900  0.33891500  1
  O  O3  1  0.50000000  0.00000000  0.50000000  1
  O  O4  1  0.81753500  0.18340200  0.08558200  1
  O  O5  1  0.18246500  0.81659800  0.91441800  1
  O  O6  1  0.45323000  0.51704600  0.26933000  1
  O  O7  1  0.18180200  0.27407300  0.38593400  1
  O  O8  1  0.01046700  0.32330100  0.66108500  1
  O  O9  1  0.00000000  0.50000000  0.00000000  1
  O  O10  1  0.81819800  0.72592700  0.61406600  1
  O  O11  1  0.54677000  0.48295400  0.73067000  1
loop_
_geom_bond_atom_site_label_1
_geom_bond_atom_site_label_2
_geom_bond_distance
_geom_bond_site_symmetry_2
Ba0 O8 2.663260 1_655
Ba0 O10 2.746514 1_545
Ba0 O4 2.824437 1_556
Ba0 O5 2.952181 1_645
Ba0 O9 2.954736 1_656
Ba0 O0 2.979089 1_655
Ba0 O0 3.014599 1_555
Ba0 O3 3.058583 1_555
Ba1 O2 2.663260 1_455
Ba1 O7 2.746514 1_565
Ba1 O5 2.824437 1_554
Ba1 O4 2.952181 1_465
Ba1 O9 2.954736 1_555
Ba1 O1 2.979089 1_455
Ba1 O1 3.014599 1_555
Ba1 O3 3.058583 1_565
Ba2 O11 2.688298 1_554
Ba2 O6 2.688298 1_555
Ba2 O0 2.941196 1_554
Ba2 O1 2.941196 1_555
Ba2 O9 2.996806 1_655
Ba2 O9 2.996806 1_555
Ba2 O4 3.132536 1_555
Ba2 O5 3.132536 1_554
Ba3 O8 2.631094 1_655
Ba3 O6 2.648942 1_555
Ba3 O1 2.804475 1_545
Ba3 O7 2.912422 1_655
Ba3 O3 2.956749 1_555
Ba3 O7 3.083769 1_555
Ba3 O4 3.171338 1_555
Ba3 O10 3.296198 1_555
Ba4 O2 2.631094 1_455
Ba4 O11 2.648942 1_555
Ba4 O0 2.804475 1_565
Ba4 O10 2.912422 1_455
Ba4 O3 2.956749 1_565
Ba4 O10 3.083769 1_555
Ba4 O5 3.171338 1_555
Ba4 O7 3.296198 1_555
In0 O4 2.153515 1_555
In0 O5 2.153515 1_544
In0 O0 2.209962 1_554
In0 O1 2.209962 1_545
In1 O2 2.118717 1_555
In1 O6 2.132788 1_555
In1 O3 2.142379 1_565
In1 O10 2.198464 1_555
In1 O1 2.294046 1_555
In2 O8 2.133997 1_655
In2 O11 2.158419 1_555
In2 O5 2.186873 1_655
In2 O10 2.211066 1_555
In2 O9 2.229077 1_656
In3 O2 2.133997 1_455
In3 O6 2.158419 1_555
In3 O4 2.186873 1_455
In3 O7 2.211066 1_555
In3 O9 2.229077 1_555
In4 O8 2.118717 1_555
In4 O11 2.132788 1_555
In4 O3 2.142379 1_555
In4 O7 2.198464 1_555
In4 O0 2.294046 1_555
