# generated using pymatgen
data_TaCuO3
_symmetry_space_group_name_H-M   'P 1'
_cell_length_a   6.43912222
_cell_length_b   6.43912222
_cell_length_c   6.82324828
_cell_angle_alpha   89.82698392
_cell_angle_beta   89.82698392
_cell_angle_gamma   83.93754332
_symmetry_Int_Tables_number   1
_chemical_formula_structural   TaCuO3
_chemical_formula_sum   'Ta4 Cu4 O12'
_cell_volume   281.32301221
_cell_formula_units_Z   4
loop_
 _symmetry_equiv_pos_site_id
 _symmetry_equiv_pos_as_xyz
  1  'x, y, z'
loop_
 _atom_site_type_symbol
 _atom_site_label
 _atom_site_symmetry_multiplicity
 _atom_site_fract_x
 _atom_site_fract_y
 _atom_site_fract_z
 _atom_site_occupancy
  Ta  Ta0  1  0.74714600  0.74714600  0.23379700  1
  Ta  Ta1  1  0.79967500  0.20032500  0.00000000  1
  Ta  Ta2  1  0.20032500  0.79967500  0.00000000  1
  Ta  Ta3  1  0.25285400  0.25285400  0.76620400  1
  Cu  Cu0  1  0.77746500  0.77746500  0.70794700  1
  Cu  Cu1  1  0.84288600  0.15711400  0.50000000  1
  Cu  Cu2  1  0.15711400  0.84288600  0.50000000  1
  Cu  Cu3  1  0.22253500  0.22253500  0.29205300  1
  O  O0  1  0.87076700  0.87076700  0.94495300  1
  O  O1  1  0.67764200  0.67764200  0.48335800  1
  O  O2  1  0.78957400  0.46919400  0.11138700  1
  O  O3  1  0.46919400  0.78957400  0.11138700  1
  O  O4  1  0.93298900  0.26196800  0.74049000  1
  O  O5  1  0.26196800  0.93298900  0.74049000  1
  O  O6  1  0.06701100  0.73803200  0.25951000  1
  O  O7  1  0.73803200  0.06701100  0.25951000  1
  O  O8  1  0.21042600  0.53080600  0.88861300  1
  O  O9  1  0.53080600  0.21042600  0.88861300  1
  O  O10  1  0.32235800  0.32235800  0.51664200  1
  O  O11  1  0.12923300  0.12923300  0.05504700  1
loop_
_geom_bond_atom_site_label_1
_geom_bond_atom_site_label_2
_geom_bond_distance
_geom_bond_site_symmetry_2
Cu0 O1 1.809367 1_555
Cu0 O0 1.850684 1_555
Cu1 O4 1.892162 1_555
Cu1 O7 1.892162 1_555
Cu2 O5 1.892162 1_555
Cu2 O6 1.892162 1_555
Cu3 O10 1.809367 1_555
Cu3 O11 1.850684 1_555
O0 Ta1 2.156936 1_566
O0 Ta2 2.156936 1_656
O0 Ta0 2.294869 1_556
O1 Ta0 1.825727 1_555
O2 Ta1 1.887606 1_555
O2 Ta0 1.969743 1_555
O3 Ta2 1.887606 1_555
O3 Ta0 1.969743 1_555
O4 Ta1 2.021973 1_556
O4 Ta3 2.062274 1_655
O5 Ta2 2.021973 1_556
O5 Ta3 2.062274 1_565
O6 Ta2 2.021973 1_555
O6 Ta0 2.062273 1_455
O7 Ta1 2.021973 1_555
O7 Ta0 2.062273 1_545
O8 Ta2 1.887606 1_556
O8 Ta3 1.969740 1_555
O9 Ta1 1.887606 1_556
O9 Ta3 1.969740 1_555
O10 Ta3 1.825734 1_555
O11 Ta2 2.156936 1_545
O11 Ta1 2.156936 1_455
O11 Ta3 2.294863 1_554
