# generated using pymatgen
data_Li6Mn5Fe(BO3)6
_symmetry_space_group_name_H-M   'P 1'
_cell_length_a   3.18330700
_cell_length_b   8.27969200
_cell_length_c   14.31593498
_cell_angle_alpha   89.96303132
_cell_angle_beta   90.00000000
_cell_angle_gamma   90.00000000
_symmetry_Int_Tables_number   1
_chemical_formula_structural   Li6Mn5Fe(BO3)6
_chemical_formula_sum   'Li6 Mn5 Fe1 B6 O18'
_cell_volume   377.32217803
_cell_formula_units_Z   1
loop_
 _symmetry_equiv_pos_site_id
 _symmetry_equiv_pos_as_xyz
  1  'x, y, z'
loop_
 _atom_site_type_symbol
 _atom_site_label
 _atom_site_symmetry_multiplicity
 _atom_site_fract_x
 _atom_site_fract_y
 _atom_site_fract_z
 _atom_site_occupancy
  Li  Li0  1  0.50000000  0.70748300  0.00880400  1
  Li  Li1  1  0.50000000  0.66072100  0.64150500  1
  Li  Li2  1  0.50000000  0.63469700  0.34976400  1
  Li  Li3  1  0.50000000  0.20716500  0.50873100  1
  Li  Li4  1  0.50000000  0.15895600  0.14227700  1
  Li  Li5  1  0.50000000  0.13294700  0.84906900  1
  Mn  Mn0  1  0.00000000  0.82632900  0.18602800  1
  Mn  Mn1  1  0.00000000  0.80862500  0.82013600  1
  Mn  Mn2  1  0.00000000  0.36528200  0.99417900  1
  Mn  Mn3  1  0.00000000  0.32573800  0.68590700  1
  Mn  Mn4  1  0.00000000  0.30791300  0.32011800  1
  Fe  Fe0  1  0.00000000  0.86214700  0.49596300  1
  B  B0  1  0.50000000  0.99931700  0.33482600  1
  B  B1  1  0.00000000  0.99999300  0.00002900  1
  B  B2  1  0.50000000  0.99890000  0.66547700  1
  B  B3  1  0.50000000  0.50019200  0.83313900  1
  B  B4  1  0.00000000  0.50102100  0.49930800  1
  B  B5  1  0.50000000  0.50010900  0.16668800  1
  O  O0  1  0.50000000  0.98694600  0.56859800  1
  O  O1  1  0.50000000  0.98475800  0.23765500  1
  O  O2  1  0.50000000  0.86274500  0.39130300  1
  O  O3  1  0.50000000  0.86013100  0.72001600  1
  O  O4  1  0.00000000  0.84567500  0.03912800  1
  O  O5  1  0.50000000  0.65223900  0.87457300  1
  O  O6  1  0.50000000  0.65025800  0.20985500  1
  O  O7  1  0.00000000  0.63896000  0.55598800  1
  O  O8  1  0.00000000  0.51847600  0.40272900  1
  O  O9  1  0.50000000  0.48969800  0.06979800  1
  O  O10  1  0.50000000  0.48609000  0.73611600  1
  O  O11  1  0.50000000  0.36182900  0.88850100  1
  O  O12  1  0.50000000  0.36016300  0.22016700  1
  O  O13  1  0.00000000  0.34775500  0.53948000  1
  O  O14  1  0.50000000  0.15276600  0.37499900  1
  O  O15  1  0.50000000  0.14963300  0.70829800  1
  O  O16  1  0.00000000  0.13572300  0.05773200  1
  O  O17  1  0.00000000  0.01862500  0.90311500  1
loop_
_geom_bond_atom_site_label_1
_geom_bond_atom_site_label_2
_geom_bond_distance
_geom_bond_site_symmetry_2
Li0 O5 1.975617 1_554
Li0 O9 2.002979 1_555
Li0 O4 2.007890 1_555
Li0 O4 2.007890 1_655
Li1 O10 1.980554 1_555
Li1 O3 1.997913 1_555
Li1 O7 2.016162 1_555
Li1 O7 2.016162 1_655
Li2 O2 1.979964 1_555
Li2 O6 2.006985 1_555
Li2 O8 2.008314 1_655
Li2 O8 2.008314 1_555
Li3 O14 1.967050 1_555
Li3 O0 2.014227 1_545
Li3 O13 2.020592 1_555
Li3 O13 2.020592 1_655
Li4 O1 1.985470 1_545
Li4 O12 2.005269 1_555
Li4 O16 2.008878 1_555
Li4 O16 2.008878 1_655
Li5 O11 1.977713 1_555
Li5 O17 2.006743 1_555
Li5 O17 2.006743 1_655
Li5 O15 2.019910 1_555
Mn0 O4 2.108999 1_555
Mn0 O6 2.185016 1_555
Mn0 O6 2.185016 1_455
Mn0 O1 2.191240 1_555
Mn0 O1 2.191240 1_455
Mn1 O17 2.106425 1_565
Mn1 O3 2.183762 1_555
Mn1 O3 2.183762 1_455
Mn1 O5 2.194532 1_455
Mn1 O5 2.194532 1_555
Mn2 O16 2.106684 1_556
Mn2 O9 2.183550 1_556
Mn2 O9 2.183550 1_456
Mn2 O11 2.196142 1_455
Mn2 O11 2.196142 1_555
Mn3 O13 2.104034 1_555
Mn3 O15 2.182098 1_455
Mn3 O15 2.182098 1_555
Mn3 O10 2.194070 1_455
Mn3 O10 2.194070 1_555
Mn4 O8 2.107312 1_555
Mn4 O12 2.183385 1_455
Mn4 O12 2.183385 1_555
Mn4 O14 2.190767 1_455
Mn4 O14 2.190767 1_555
Fe0 O7 2.037444 1_555
Fe0 O0 2.164189 1_555
Fe0 O0 2.164189 1_455
Fe0 O2 2.185931 1_555
Fe0 O2 2.185931 1_455
B0 O2 1.389668 1_555
B0 O14 1.394954 1_565
B0 O1 1.396384 1_555
B1 O4 1.394602 1_555
B1 O16 1.395180 1_565
B1 O17 1.395866 1_564
B2 O3 1.388731 1_555
B2 O0 1.390504 1_555
B2 O15 1.390807 1_565
B3 O5 1.391993 1_555
B3 O11 1.392618 1_555
B3 O10 1.393949 1_555
B4 O8 1.390059 1_555
B4 O13 1.392892 1_555
B4 O7 1.401423 1_555
B5 O12 1.388384 1_555
B5 O6 1.388669 1_555
B5 O9 1.389802 1_555
