# generated using pymatgen
data_Fe5O3F7
_symmetry_space_group_name_H-M   'P 1'
_cell_length_a   4.79750687
_cell_length_b   4.79750687
_cell_length_c   15.68223063
_cell_angle_alpha   89.69444578
_cell_angle_beta   89.69444578
_cell_angle_gamma   91.39170608
_symmetry_Int_Tables_number   1
_chemical_formula_structural   Fe5O3F7
_chemical_formula_sum   'Fe10 O6 F14'
_cell_volume   360.82636215
_cell_formula_units_Z   2
loop_
 _symmetry_equiv_pos_site_id
 _symmetry_equiv_pos_as_xyz
  1  'x, y, z'
loop_
 _atom_site_type_symbol
 _atom_site_label
 _atom_site_symmetry_multiplicity
 _atom_site_fract_x
 _atom_site_fract_y
 _atom_site_fract_z
 _atom_site_occupancy
  Fe  Fe0  1  0.97905200  0.95400200  0.99397900  1
  Fe  Fe1  1  0.03425900  0.03457100  0.19920700  1
  Fe  Fe2  1  0.96542900  0.96574100  0.40079400  1
  Fe  Fe3  1  0.04599800  0.02094800  0.60602100  1
  Fe  Fe4  1  0.02893900  0.97106100  0.80000000  1
  Fe  Fe5  1  0.50059400  0.49309800  0.10079300  1
  Fe  Fe6  1  0.50690200  0.49940600  0.49920700  1
  Fe  Fe7  1  0.50098100  0.49901900  0.30000000  1
  Fe  Fe8  1  0.47392700  0.51414400  0.69523400  1
  Fe  Fe9  1  0.48585600  0.52607300  0.90476600  1
  O  O0  1  0.18999800  0.81983700  0.70054600  1
  O  O1  1  0.18016300  0.81000200  0.89945400  1
  O  O2  1  0.33292500  0.33037400  0.20024200  1
  O  O3  1  0.31033800  0.31039500  0.58964000  1
  O  O4  1  0.68960500  0.68966200  0.01036000  1
  O  O5  1  0.66962600  0.66707500  0.39975800  1
  F  F0  1  0.19855600  0.79844100  0.09635500  1
  F  F1  1  0.20555700  0.79444300  0.30000000  1
  F  F2  1  0.20155900  0.80144400  0.50364500  1
  F  F3  1  0.28289400  0.28366500  0.00920900  1
  F  F4  1  0.28871200  0.28653200  0.39819600  1
  F  F5  1  0.29294300  0.30204300  0.80260300  1
  F  F6  1  0.71346800  0.71128800  0.20180400  1
  F  F7  1  0.71633500  0.71710600  0.59079100  1
  F  F8  1  0.69795700  0.70705700  0.79739700  1
  F  F9  1  0.80289900  0.19571100  0.09498000  1
  F  F10  1  0.80428900  0.19710100  0.50502000  1
  F  F11  1  0.79527700  0.20472300  0.30000000  1
  F  F12  1  0.79519600  0.19023300  0.89893300  1
  F  F13  1  0.80976700  0.20480400  0.70106700  1
loop_
_geom_bond_atom_site_label_1
_geom_bond_atom_site_label_2
_geom_bond_distance
_geom_bond_site_symmetry_2
Fe0 O4 1.873422 1_556
Fe0 O1 1.906202 1_655
Fe1 O2 1.992221 1_555
Fe2 O5 1.992221 1_555
Fe3 O3 1.873422 1_555
Fe3 O0 1.906202 1_545
Fe4 O1 1.892715 1_555
Fe4 O0 1.892715 1_555
Fe5 O2 1.905760 1_555
Fe5 O4 1.911356 1_555
Fe6 O5 1.905760 1_555
Fe6 O3 1.911356 1_555
Fe7 O5 1.935806 1_555
Fe7 O2 1.935806 1_555
Fe8 O0 2.027397 1_555
Fe8 O3 2.075440 1_555
Fe9 O1 2.027397 1_555
Fe9 O4 2.075440 1_556
F0 Fe0 2.070493 1_454
F0 Fe5 2.086508 1_555
F0 Fe1 2.134363 1_565
F1 Fe7 2.028557 1_555
F1 Fe1 2.131057 1_565
F1 Fe2 2.131069 1_455
F2 Fe3 2.070493 1_565
F2 Fe6 2.086508 1_555
F2 Fe2 2.134351 1_455
F3 Fe5 2.035571 1_555
F3 Fe0 2.139855 1_444
F3 Fe9 2.211551 1_554
F4 Fe7 2.088959 1_555
F4 Fe6 2.151980 1_555
F4 Fe2 2.158318 1_445
F5 Fe4 2.007681 1_545
F5 Fe8 2.132526 1_555
F5 Fe9 2.136456 1_555
F6 Fe7 2.088959 1_555
F6 Fe5 2.151980 1_555
F6 Fe1 2.158318 1_665
F7 Fe6 2.035571 1_555
F7 Fe3 2.139855 1_665
F7 Fe8 2.211551 1_555
F8 Fe4 2.007681 1_655
F8 Fe9 2.132526 1_555
F8 Fe8 2.136456 1_555
F9 Fe5 2.060999 1_555
F9 Fe1 2.132794 1_655
F9 Fe0 2.149554 1_544
F10 Fe6 2.060999 1_555
F10 Fe2 2.132782 1_545
F10 Fe3 2.149554 1_655
F11 Fe7 2.020812 1_555
F11 Fe1 2.125849 1_655
F11 Fe2 2.125861 1_545
F12 Fe0 2.080548 1_545
F12 Fe4 2.196895 1_645
F12 Fe9 2.218789 1_555
F13 Fe3 2.080548 1_655
F13 Fe4 2.196895 1_645
F13 Fe8 2.218789 1_555
