# generated using pymatgen
data_Li3CrBPO7
_symmetry_space_group_name_H-M   'P 1'
_cell_length_a   8.39173946
_cell_length_b   6.38948400
_cell_length_c   5.04986620
_cell_angle_alpha   90.00102651
_cell_angle_beta   84.40900151
_cell_angle_gamma   90.00104565
_symmetry_Int_Tables_number   1
_chemical_formula_structural   Li3CrBPO7
_chemical_formula_sum   'Li6 Cr2 B2 P2 O14'
_cell_volume   269.48007472
_cell_formula_units_Z   2
loop_
 _symmetry_equiv_pos_site_id
 _symmetry_equiv_pos_as_xyz
  1  'x, y, z'
loop_
 _atom_site_type_symbol
 _atom_site_label
 _atom_site_symmetry_multiplicity
 _atom_site_fract_x
 _atom_site_fract_y
 _atom_site_fract_z
 _atom_site_occupancy
  Li  Li0  1  0.09409000  0.24997900  0.75952600  1
  Li  Li1  1  0.23516700  0.99479200  0.25386700  1
  Li  Li2  1  0.23516200  0.50514000  0.25392400  1
  Li  Li3  1  0.76489300  0.49476700  0.74617100  1
  Li  Li4  1  0.76488000  0.00522200  0.74617900  1
  Li  Li5  1  0.90589400  0.74999300  0.24056000  1
  Cr  Cr0  1  0.32406500  0.74996100  0.78771200  1
  Cr  Cr1  1  0.67591200  0.25031100  0.21222000  1
  B  B0  1  0.04358900  0.74997200  0.70609300  1
  B  B1  1  0.95636800  0.24996900  0.29381600  1
  P  P0  1  0.41933400  0.24998700  0.73131200  1
  P  P1  1  0.58071100  0.75006300  0.26871300  1
  O  O0  1  0.10941700  0.24996800  0.35650700  1
  O  O1  1  0.09376000  0.74997900  0.96389000  1
  O  O2  1  0.17508500  0.74998400  0.50942600  1
  O  O3  1  0.30875500  0.06239700  0.82140300  1
  O  O4  1  0.30872500  0.43752200  0.82131000  1
  O  O5  1  0.45872900  0.24998100  0.42505900  1
  O  O6  1  0.42249700  0.74996200  0.13789800  1
  O  O7  1  0.57749900  0.25000100  0.86207100  1
  O  O8  1  0.54125900  0.75000800  0.57494400  1
  O  O9  1  0.69127900  0.56245600  0.17868600  1
  O  O10  1  0.69129700  0.93761900  0.17864600  1
  O  O11  1  0.82489400  0.25001200  0.49052400  1
  O  O12  1  0.90622900  0.25000200  0.03601600  1
  O  O13  1  0.89051200  0.74995400  0.64352600  1
loop_
_geom_bond_atom_site_label_1
_geom_bond_atom_site_label_2
_geom_bond_distance
_geom_bond_site_symmetry_2
Li0 O12 2.001467 1_456
Li0 O0 2.026708 1_555
Li0 O4 2.210625 1_555
Li0 O3 2.211114 1_555
Li1 O0 1.983439 1_565
Li1 O2 2.059046 1_555
Li1 O3 2.252672 1_564
Li1 O6 2.254339 1_555
Li1 O1 2.517478 1_554
Li2 O0 1.983320 1_555
Li2 O2 2.059018 1_555
Li2 O4 2.253354 1_554
Li2 O6 2.254362 1_555
Li2 O1 2.517800 1_554
Li3 O13 1.982929 1_555
Li3 O11 2.058910 1_555
Li3 O9 2.253047 1_556
Li3 O7 2.254324 1_555
Li3 O12 2.516614 1_556
Li4 O13 1.983435 1_545
Li4 O11 2.059146 1_555
Li4 O10 2.252677 1_546
Li4 O7 2.254326 1_555
Li4 O12 2.516647 1_556
Li5 O1 2.002062 1_654
Li5 O13 2.026425 1_555
Li5 O9 2.210566 1_555
Li5 O10 2.210835 1_555
Cr0 O2 1.969830 1_555
Cr0 O4 2.006593 1_555
Cr0 O3 2.006595 1_565
Cr0 O6 2.023398 1_556
Cr0 O8 2.023575 1_555
Cr0 O1 2.047354 1_555
Cr1 O11 1.969914 1_555
Cr1 O9 2.004711 1_555
Cr1 O10 2.008211 1_545
Cr1 O7 2.023150 1_554
Cr1 O5 2.023657 1_555
Cr1 O12 2.047490 1_555
B0 O13 1.352429 1_455
B0 O1 1.406715 1_555
B0 O2 1.410836 1_555
B1 O0 1.352405 1_655
B1 O12 1.406625 1_555
B1 O11 1.410834 1_555
O3 P0 1.556418 1_555
O4 P0 1.556194 1_555
O5 P0 1.549659 1_555
O6 P1 1.539498 1_555
O7 P0 1.538981 1_555
O8 P1 1.549606 1_555
O9 P1 1.556387 1_555
O10 P1 1.556256 1_555
