# generated using pymatgen
data_LiMnOF2
_symmetry_space_group_name_H-M   'P 1'
_cell_length_a   5.25280200
_cell_length_b   8.90124200
_cell_length_c   12.54967217
_cell_angle_alpha   49.37946287
_cell_angle_beta   90.00000000
_cell_angle_gamma   90.00000000
_symmetry_Int_Tables_number   1
_chemical_formula_structural   LiMnOF2
_chemical_formula_sum   'Li8 Mn8 O8 F16'
_cell_volume   445.38699934
_cell_formula_units_Z   8
loop_
 _symmetry_equiv_pos_site_id
 _symmetry_equiv_pos_as_xyz
  1  'x, y, z'
loop_
 _atom_site_type_symbol
 _atom_site_label
 _atom_site_symmetry_multiplicity
 _atom_site_fract_x
 _atom_site_fract_y
 _atom_site_fract_z
 _atom_site_occupancy
  Li  Li0  1  0.08044800  0.82426500  0.00259300  1
  Li  Li1  1  0.09255600  0.94880000  0.21263500  1
  Li  Li2  1  0.90744400  0.94880000  0.71263500  1
  Li  Li3  1  0.91955200  0.82426500  0.50259300  1
  Li  Li4  1  0.58393800  0.64124000  0.00503200  1
  Li  Li5  1  0.59205600  0.14225900  0.19972500  1
  Li  Li6  1  0.40794400  0.14225900  0.69972500  1
  Li  Li7  1  0.41606200  0.64124000  0.50503200  1
  Mn  Mn0  1  0.08132500  0.32605200  0.19014500  1
  Mn  Mn1  1  0.03912700  0.43118700  0.42233100  1
  Mn  Mn2  1  0.96087300  0.43118700  0.92233100  1
  Mn  Mn3  1  0.91867500  0.32605200  0.69014500  1
  Mn  Mn4  1  0.60032000  0.78607300  0.19735600  1
  Mn  Mn5  1  0.60226500  0.23573700  0.43205100  1
  Mn  Mn6  1  0.39773500  0.23573700  0.93205100  1
  Mn  Mn7  1  0.39968000  0.78607300  0.69735600  1
  O  O0  1  0.18638800  0.42365400  0.56564700  1
  O  O1  1  0.23154400  0.25589000  0.06000300  1
  O  O2  1  0.09667300  0.34908200  0.82439100  1
  O  O3  1  0.10854700  0.70639600  0.79712100  1
  O  O4  1  0.89145300  0.70639600  0.29712100  1
  O  O5  1  0.90332700  0.34908200  0.32439100  1
  O  O6  1  0.76845600  0.25589000  0.56000300  1
  O  O7  1  0.81361200  0.42365400  0.06564700  1
  F  F0  1  0.24966200  0.58450400  0.07609000  1
  F  F1  1  0.07068400  0.04878200  0.80114800  1
  F  F2  1  0.92931600  0.04878200  0.30114800  1
  F  F3  1  0.75033800  0.58450400  0.57609000  1
  F  F4  1  0.73779600  0.77352500  0.06001300  1
  F  F5  1  0.71096000  0.92034500  0.57257100  1
  F  F6  1  0.69951500  0.11126200  0.06018800  1
  F  F7  1  0.61373600  0.51105400  0.82733500  1
  F  F8  1  0.56784000  0.85596300  0.80383900  1
  F  F9  1  0.58967000  0.21271400  0.80100500  1
  F  F10  1  0.41033000  0.21271400  0.30100500  1
  F  F11  1  0.43216000  0.85596300  0.30383900  1
  F  F12  1  0.38626400  0.51105400  0.32733500  1
  F  F13  1  0.30048500  0.11126200  0.56018800  1
  F  F14  1  0.28904000  0.92034500  0.07257100  1
  F  F15  1  0.26220400  0.77352500  0.56001300  1
loop_
_geom_bond_atom_site_label_1
_geom_bond_atom_site_label_2
_geom_bond_distance
_geom_bond_site_symmetry_2
Li1 O4 1.979106 1_455
Li1 O1 2.203709 1_565
Li2 O3 1.979106 1_655
Li2 O6 2.203709 1_565
Li4 O7 1.966442 1_555
Li5 O7 2.229733 1_555
Li5 O1 2.318285 1_555
Li6 O0 2.229733 1_555
Li6 O6 2.318285 1_555
Li7 O0 1.966442 1_555
Mn0 O7 1.845528 1_455
Mn0 O5 2.050435 1_455
Mn0 O1 2.237919 1_555
Mn1 O0 1.918507 1_555
Mn1 O5 1.929594 1_455
Mn1 O6 1.982665 1_455
Mn1 O4 2.014869 1_455
Mn2 O7 1.918507 1_556
Mn2 O2 1.929594 1_655
Mn2 O1 1.982665 1_656
Mn2 O3 2.014869 1_655
Mn3 O0 1.845528 1_655
Mn3 O2 2.050435 1_655
Mn3 O6 2.237919 1_555
Mn4 O4 1.803604 1_555
Mn5 O5 1.889265 1_555
Mn5 O6 1.935917 1_555
Mn6 O2 1.889265 1_555
Mn6 O1 1.935917 1_556
Mn7 O3 1.803604 1_555
F0 Li4 1.883349 1_555
F0 Li0 1.905871 1_555
F0 Mn0 1.958445 1_555
F1 Li0 1.951699 1_546
F1 Li2 2.012065 1_445
F1 Li6 2.017878 1_555
F1 Mn3 2.047599 1_455
F2 Li3 1.951699 1_545
F2 Li1 2.012065 1_645
F2 Li5 2.017878 1_555
F2 Mn0 2.047599 1_655
F3 Li7 1.883349 1_555
F3 Li3 1.905871 1_555
F3 Mn3 1.958445 1_555
F4 Li0 1.881238 1_655
F4 Li4 1.890416 1_555
F4 Mn4 1.937900 1_555
F5 Li3 1.918634 1_555
F5 Mn7 2.029111 1_555
F5 Li2 2.190613 1_555
F5 Mn5 2.207009 1_565
F6 Mn6 2.001599 1_554
F6 Li5 2.022466 1_555
F6 Mn4 2.263923 1_545
F6 Li1 2.532080 1_645
F6 Mn2 2.563659 1_554
F7 Mn2 2.036675 1_555
F7 Mn7 2.172170 1_555
F7 Mn6 2.196962 1_555
F8 Li4 1.936921 1_556
F8 Li2 1.985843 1_555
F8 Mn7 2.008857 1_555
F8 Li6 2.138065 1_565
F9 Li6 1.989456 1_555
F9 Mn3 2.027921 1_555
F9 Mn6 2.049868 1_555
F10 Li5 1.989456 1_555
F10 Mn0 2.027921 1_555
F10 Mn5 2.049868 1_555
F11 Li7 1.936921 1_555
F11 Li1 1.985843 1_555
F11 Mn4 2.008857 1_555
F11 Li5 2.138065 1_565
F12 Mn1 2.036675 1_555
F12 Mn4 2.172170 1_555
F12 Mn5 2.196962 1_555
F13 Mn5 2.001599 1_555
F13 Li6 2.022466 1_555
F13 Mn7 2.263923 1_545
F13 Li2 2.532080 1_445
F13 Mn1 2.563659 1_555
F14 Li0 1.918634 1_555
F14 Mn4 2.029111 1_555
F14 Li1 2.190613 1_555
F14 Mn6 2.207009 1_564
F15 Li3 1.881238 1_455
F15 Li7 1.890416 1_555
F15 Mn7 1.937900 1_555
