# generated using pymatgen
data_Fe6O7F5
_symmetry_space_group_name_H-M   'P 1'
_cell_length_a   4.78280900
_cell_length_b   5.65606608
_cell_length_c   7.71399522
_cell_angle_alpha   84.59460653
_cell_angle_beta   87.82891684
_cell_angle_gamma   86.37938844
_symmetry_Int_Tables_number   1
_chemical_formula_structural   Fe6O7F5
_chemical_formula_sum   'Fe6 O7 F5'
_cell_volume   207.22835405
_cell_formula_units_Z   1
loop_
 _symmetry_equiv_pos_site_id
 _symmetry_equiv_pos_as_xyz
  1  'x, y, z'
loop_
 _atom_site_type_symbol
 _atom_site_label
 _atom_site_symmetry_multiplicity
 _atom_site_fract_x
 _atom_site_fract_y
 _atom_site_fract_z
 _atom_site_occupancy
  Fe  Fe0  1  0.51140400  0.81878300  0.66715600  1
  Fe  Fe1  1  0.46007400  0.48209600  0.99387300  1
  Fe  Fe2  1  0.55443500  0.18731300  0.33234900  1
  Fe  Fe3  1  0.98037300  0.34198200  0.67381000  1
  Fe  Fe4  1  0.98426200  0.65383600  0.33196800  1
  Fe  Fe5  1  0.02138200  0.01433300  0.00072200  1
  O  O0  1  0.81457500  0.37541100  0.44518600  1
  O  O1  1  0.69717500  0.21322200  0.09203700  1
  O  O2  1  0.68159000  0.52693700  0.77848900  1
  O  O3  1  0.69687800  0.87203100  0.43729800  1
  O  O4  1  0.30396300  0.46434700  0.22682400  1
  O  O5  1  0.30302900  0.79053600  0.90043900  1
  O  O6  1  0.18709200  0.28715100  0.88677300  1
  F  F0  1  0.80455600  0.02787600  0.76461800  1
  F  F1  1  0.81212600  0.72081200  0.10008400  1
  F  F2  1  0.30152900  0.13095900  0.56529300  1
  F  F3  1  0.18873800  0.96003100  0.23688500  1
  F  F4  1  0.19682100  0.63234500  0.56619600  1
loop_
_geom_bond_atom_site_label_1
_geom_bond_atom_site_label_2
_geom_bond_distance
_geom_bond_site_symmetry_2
Fe0 O2 1.934194 1_555
Fe0 O3 1.958457 1_555
Fe0 O5 2.021680 1_555
Fe1 O4 1.915863 1_556
Fe1 O5 1.940556 1_555
Fe1 O2 1.941252 1_555
Fe1 O1 1.949977 1_556
Fe1 O6 2.009515 1_555
Fe2 O1 1.946681 1_555
Fe2 O0 1.965006 1_555
Fe2 O3 1.978865 1_545
Fe2 O4 2.037027 1_555
Fe3 O2 1.916096 1_555
Fe3 O6 1.939286 1_655
Fe3 O0 1.949120 1_555
Fe4 O0 1.936487 1_555
Fe4 O3 1.990620 1_555
Fe4 O4 2.001851 1_655
Fe5 O6 1.904734 1_554
Fe5 O5 1.976225 1_544
Fe5 O1 2.003073 1_455
F0 Fe3 2.064875 1_555
F0 Fe0 2.094409 1_545
F0 Fe5 2.122559 1_656
F1 Fe4 1.991350 1_555
F1 Fe5 2.063327 1_665
F1 Fe1 2.435066 1_554
F2 Fe0 2.077788 1_545
F2 Fe3 2.084220 1_455
F2 Fe2 2.137706 1_555
F3 Fe5 2.006950 1_565
F3 Fe4 2.100947 1_455
F3 Fe2 2.411223 1_565
F4 Fe3 2.085850 1_455
F4 Fe4 2.096460 1_455
F4 Fe0 2.103855 1_555
