# generated using pymatgen
data_LiV2O3F
_symmetry_space_group_name_H-M   'P 1'
_cell_length_a   8.01715547
_cell_length_b   8.01715547
_cell_length_c   6.01793188
_cell_angle_alpha   68.00249234
_cell_angle_beta   68.00249234
_cell_angle_gamma   64.52226725
_symmetry_Int_Tables_number   1
_chemical_formula_structural   LiV2O3F
_chemical_formula_sum   'Li4 V8 O12 F4'
_cell_volume   313.06185595
_cell_formula_units_Z   4
loop_
 _symmetry_equiv_pos_site_id
 _symmetry_equiv_pos_as_xyz
  1  'x, y, z'
loop_
 _atom_site_type_symbol
 _atom_site_label
 _atom_site_symmetry_multiplicity
 _atom_site_fract_x
 _atom_site_fract_y
 _atom_site_fract_z
 _atom_site_occupancy
  Li  Li0  1  0.00917200  0.24940600  0.10360400  1
  Li  Li1  1  0.73938200  0.99641800  0.39120700  1
  Li  Li2  1  0.24940600  0.00917200  0.60360400  1
  Li  Li3  1  0.99641800  0.73938200  0.89120700  1
  V  V0  1  0.76274700  0.22447000  0.77346600  1
  V  V1  1  0.00849300  0.50131900  0.50175000  1
  V  V2  1  0.50131900  0.00849300  0.00175000  1
  V  V3  1  0.37017000  0.37504100  0.12619500  1
  V  V4  1  0.37504100  0.37017000  0.62619500  1
  V  V5  1  0.61863000  0.63361500  0.36823800  1
  V  V6  1  0.63361500  0.61863000  0.86823800  1
  V  V7  1  0.22447000  0.76274700  0.27346600  1
  O  O0  1  0.61650500  0.13934200  0.65363100  1
  O  O1  1  0.87024100  0.37981400  0.83693100  1
  O  O2  1  0.61229600  0.14477400  0.10981100  1
  O  O3  1  0.52366000  0.48535900  0.73856400  1
  O  O4  1  0.74792300  0.71693900  0.51177800  1
  O  O5  1  0.27477100  0.25344900  0.99376900  1
  O  O6  1  0.71693900  0.74792300  0.01177800  1
  O  O7  1  0.25344900  0.27477100  0.49376900  1
  O  O8  1  0.48535900  0.52366000  0.23856400  1
  O  O9  1  0.13934200  0.61650500  0.15363100  1
  O  O10  1  0.37981400  0.87024100  0.33693100  1
  O  O11  1  0.14477400  0.61229600  0.60981100  1
  F  F0  1  0.99453600  0.00018500  0.25935800  1
  F  F1  1  0.87215000  0.37919300  0.38170000  1
  F  F2  1  0.37919300  0.87215000  0.88170000  1
  F  F3  1  0.00018500  0.99453600  0.75935800  1
loop_
_geom_bond_atom_site_label_1
_geom_bond_atom_site_label_2
_geom_bond_distance
_geom_bond_site_symmetry_2
Li0 O5 1.990233 1_554
Li0 O1 1.997357 1_454
Li1 O0 1.999118 1_565
Li1 O2 2.015324 1_565
Li1 O4 2.058854 1_555
Li2 O7 1.990233 1_555
Li2 O10 1.997357 1_545
Li3 O9 1.999118 1_656
Li3 O11 2.015324 1_655
Li3 O6 2.058854 1_556
O0 V0 2.012710 1_555
O0 V2 2.019876 1_556
O0 V4 2.031732 1_555
O1 V0 1.991459 1_555
O1 V1 2.007035 1_655
O1 V6 2.043965 1_555
O2 V0 1.955849 1_554
O2 V3 2.023818 1_555
O2 V2 2.051892 1_555
O3 V6 2.116112 1_555
O3 V5 2.117111 1_555
O3 V0 2.148560 1_555
O3 V4 2.178958 1_555
O3 V3 2.231249 1_556
O4 V6 1.986161 1_555
O4 V5 1.991399 1_555
O4 V1 2.057390 1_655
O5 V3 1.962232 1_556
O5 V2 2.020861 1_556
O5 V4 2.044352 1_555
O6 V5 1.986161 1_555
O6 V6 1.991399 1_554
O6 V2 2.057390 1_565
O7 V4 1.962232 1_555
O7 V1 2.020861 1_555
O7 V3 2.044352 1_555
O8 V5 2.116112 1_555
O8 V6 2.117111 1_554
O8 V7 2.148560 1_555
O8 V3 2.178958 1_555
O8 V4 2.231249 1_555
O9 V7 2.012710 1_555
O9 V1 2.019876 1_555
O9 V3 2.031732 1_555
O10 V7 1.991459 1_555
O10 V2 2.007035 1_565
O10 V5 2.043965 1_555
O11 V7 1.955849 1_555
O11 V4 2.023818 1_555
O11 V1 2.051892 1_555
F0 Li0 1.897589 1_655
F0 Li1 1.906379 1_545
F0 V7 2.001558 1_645
F1 Li0 2.008521 1_655
F1 V1 2.172016 1_655
F1 V5 2.175098 1_555
F1 V0 2.249990 1_555
F2 Li2 2.008521 1_565
F2 V2 2.172016 1_566
F2 V6 2.175098 1_555
F2 V7 2.249990 1_556
F3 Li2 1.897589 1_565
F3 Li3 1.906379 1_455
F3 V0 2.001558 1_465
