# generated using pymatgen
data_LiCo2(PO4)2
_symmetry_space_group_name_H-M   'P 1'
_cell_length_a   5.09285700
_cell_length_b   10.20913300
_cell_length_c   13.73578200
_cell_angle_alpha   90.00000000
_cell_angle_beta   90.00000000
_cell_angle_gamma   90.00000000
_symmetry_Int_Tables_number   1
_chemical_formula_structural   LiCo2(PO4)2
_chemical_formula_sum   'Li4 Co8 P8 O32'
_cell_volume   714.17350309
_cell_formula_units_Z   4
loop_
 _symmetry_equiv_pos_site_id
 _symmetry_equiv_pos_as_xyz
  1  'x, y, z'
loop_
 _atom_site_type_symbol
 _atom_site_label
 _atom_site_symmetry_multiplicity
 _atom_site_fract_x
 _atom_site_fract_y
 _atom_site_fract_z
 _atom_site_occupancy
  Li  Li0  1  0.54950900  0.22080100  0.25025400  1
  Li  Li1  1  0.54950900  0.27919900  0.75025400  1
  Li  Li2  1  0.45049100  0.72080100  0.25025400  1
  Li  Li3  1  0.45049100  0.77919900  0.75025400  1
  Co  Co0  1  0.05903600  0.03506400  0.24720700  1
  Co  Co1  1  0.55394200  0.22159400  0.99927400  1
  Co  Co2  1  0.55394200  0.27840600  0.49927400  1
  Co  Co3  1  0.05903600  0.46493600  0.74720700  1
  Co  Co4  1  0.94096400  0.53506400  0.24720700  1
  Co  Co5  1  0.44605800  0.72159400  0.99927400  1
  Co  Co6  1  0.44605800  0.77840600  0.49927400  1
  Co  Co7  1  0.94096400  0.96493600  0.74720700  1
  P  P0  1  0.43848700  0.02900200  0.62353600  1
  P  P1  1  0.05075200  0.21690500  0.87191900  1
  P  P2  1  0.05075200  0.28309500  0.37191900  1
  P  P3  1  0.43848700  0.47099800  0.12353600  1
  P  P4  1  0.56151300  0.52900200  0.62353600  1
  P  P5  1  0.94924800  0.71690500  0.87191900  1
  P  P6  1  0.94924800  0.78309500  0.37191900  1
  P  P7  1  0.56151300  0.97099800  0.12353600  1
  O  O0  1  0.13829100  0.00165100  0.63889900  1
  O  O1  1  0.47505700  0.03711300  0.02938200  1
  O  O2  1  0.42256700  0.03554000  0.21524700  1
  O  O3  1  0.99110000  0.06857800  0.85452700  1
  O  O4  1  0.49196900  0.17773600  0.62393300  1
  O  O5  1  0.93883400  0.20821200  0.27999700  1
  O  O6  1  0.91864400  0.24035600  0.46637400  1
  O  O7  1  0.35087500  0.24329100  0.87452900  1
  O  O8  1  0.35087500  0.25670900  0.37452900  1
  O  O9  1  0.91864400  0.25964400  0.96637400  1
  O  O10  1  0.93883400  0.29178800  0.77999700  1
  O  O11  1  0.49196900  0.32226400  0.12393300  1
  O  O12  1  0.99110000  0.43142200  0.35452700  1
  O  O13  1  0.42256700  0.46446000  0.71524700  1
  O  O14  1  0.47505700  0.46288700  0.52938200  1
  O  O15  1  0.13829100  0.49834900  0.13889900  1
  O  O16  1  0.86170900  0.50165100  0.63889900  1
  O  O17  1  0.52494300  0.53711300  0.02938200  1
  O  O18  1  0.57743300  0.53554000  0.21524700  1
  O  O19  1  0.00890000  0.56857800  0.85452700  1
  O  O20  1  0.50803100  0.67773600  0.62393300  1
  O  O21  1  0.06116600  0.70821200  0.27999700  1
  O  O22  1  0.08135600  0.74035600  0.46637400  1
  O  O23  1  0.64912500  0.74329100  0.87452900  1
  O  O24  1  0.64912500  0.75670900  0.37452900  1
  O  O25  1  0.08135600  0.75964400  0.96637400  1
  O  O26  1  0.06116600  0.79178800  0.77999700  1
  O  O27  1  0.50803100  0.82226400  0.12393300  1
  O  O28  1  0.00890000  0.93142200  0.35452700  1
  O  O29  1  0.57743300  0.96446000  0.71524700  1
  O  O30  1  0.52494300  0.96288700  0.52938200  1
  O  O31  1  0.86170900  0.99834900  0.13889900  1
loop_
_geom_bond_atom_site_label_1
_geom_bond_atom_site_label_2
_geom_bond_distance
_geom_bond_site_symmetry_2
Li0 O8 2.017833 1_555
Li0 O5 2.028504 1_555
Li0 O11 2.041933 1_555
Li0 O2 2.055820 1_555
Li1 O7 2.017833 1_555
Li1 O10 2.028504 1_555
Li1 O4 2.041933 1_555
Li1 O13 2.055820 1_555
Li2 O24 2.017833 1_555
Li2 O21 2.028504 1_555
Li2 O27 2.041933 1_555
Li2 O18 2.055820 1_555
Li3 O23 2.017833 1_555
Li3 O26 2.028504 1_555
Li3 O20 2.041933 1_555
Li3 O29 2.055820 1_555
Co0 O28 1.832431 1_545
Co0 O31 1.834032 1_445
Co0 O2 1.902752 1_555
Co0 O5 1.924147 1_455
Co1 O9 1.950631 1_555
Co1 O1 1.969669 1_556
Co1 O7 2.013603 1_555
Co1 O11 2.021837 1_556
Co2 O6 1.950631 1_555
Co2 O14 1.969669 1_555
Co2 O8 2.013603 1_555
Co2 O4 2.021837 1_555
Co3 O19 1.832431 1_555
Co3 O16 1.834032 1_455
Co3 O13 1.902752 1_555
Co3 O10 1.924147 1_455
Co4 O12 1.832431 1_555
Co4 O15 1.834032 1_655
Co4 O18 1.902752 1_555
Co4 O21 1.924147 1_655
Co5 O25 1.950631 1_555
Co5 O17 1.969669 1_556
Co5 O23 2.013603 1_555
Co5 O27 2.021837 1_556
Co6 O22 1.950631 1_555
Co6 O30 1.969669 1_555
Co6 O24 2.013603 1_555
Co6 O20 2.021837 1_555
Co7 O3 1.832431 1_565
Co7 O0 1.834032 1_665
Co7 O29 1.902752 1_555
Co7 O26 1.924147 1_655
O0 P0 1.568406 1_555
O1 P7 1.523822 1_545
O2 P7 1.588023 1_545
O3 P1 1.562830 1_655
O4 P0 1.542691 1_555
O5 P2 1.582257 1_655
O6 P2 1.525232 1_655
O7 P1 1.552453 1_555
O8 P2 1.552453 1_555
O9 P1 1.525232 1_655
O10 P1 1.582257 1_655
O11 P3 1.542691 1_555
O12 P2 1.562830 1_655
O13 P4 1.588023 1_555
O14 P4 1.523822 1_555
O15 P3 1.568406 1_555
O16 P4 1.568406 1_555
O17 P3 1.523822 1_555
O18 P3 1.588023 1_555
O19 P5 1.562830 1_455
O20 P4 1.542691 1_555
O21 P6 1.582257 1_455
O22 P6 1.525232 1_455
O23 P5 1.552453 1_555
O24 P6 1.552453 1_555
O25 P5 1.525232 1_455
O26 P5 1.582257 1_455
O27 P7 1.542691 1_555
O28 P6 1.562830 1_455
O29 P0 1.588023 1_565
O30 P0 1.523822 1_565
O31 P7 1.568406 1_555
