# generated using pymatgen
data_LiAgO
_symmetry_space_group_name_H-M   'P 1'
_cell_length_a   6.73621425
_cell_length_b   6.73621425
_cell_length_c   6.73621425
_cell_angle_alpha   94.46325434
_cell_angle_beta   94.46325434
_cell_angle_gamma   147.60348893
_symmetry_Int_Tables_number   1
_chemical_formula_structural   LiAgO
_chemical_formula_sum   'Li4 Ag4 O4'
_cell_volume   157.26726780
_cell_formula_units_Z   4
loop_
 _symmetry_equiv_pos_site_id
 _symmetry_equiv_pos_as_xyz
  1  'x, y, z'
loop_
 _atom_site_type_symbol
 _atom_site_label
 _atom_site_symmetry_multiplicity
 _atom_site_fract_x
 _atom_site_fract_y
 _atom_site_fract_z
 _atom_site_occupancy
  Li  Li0  1  0.13410008  0.50000000  0.63410008  1
  Li  Li1  1  0.50000000  0.13410008  0.63410008  1
  Li  Li2  1  0.50000000  0.86589992  0.36589992  1
  Li  Li3  1  0.86589992  0.50000000  0.36589992  1
  Ag  Ag0  1  0.83829953  0.16170047  0.00000000  1
  Ag  Ag1  1  0.83829953  0.83829953  0.67659906  1
  Ag  Ag2  1  0.16170047  0.83829953  0.00000000  1
  Ag  Ag3  1  0.16170047  0.16170047  0.32340094  1
  O  O0  1  0.67706102  -0.00000000  0.67706102  1
  O  O1  1  -0.00000000  0.67706102  0.67706102  1
  O  O2  1  0.00000000  0.32293898  0.32293898  1
  O  O3  1  0.32293898  0.00000000  0.32293898  1
loop_
_geom_bond_atom_site_label_1
_geom_bond_atom_site_label_2
_geom_bond_distance
_geom_bond_site_symmetry_2
Li0 O0 1.919806 1_455
Li0 O0 1.919806 1_565
Li0 O1 2.031933 1_555
Li0 O2 2.031933 1_555
Li1 O1 1.919806 1_545
Li1 O1 1.919806 1_655
Li1 O0 2.031933 1_555
Li1 O3 2.031933 1_555
Li2 O2 1.919806 1_665
Li2 O2 1.919806 1_555
Li2 O3 2.031933 1_565
Li2 O0 2.031933 1_565
Li3 O3 1.919806 1_665
Li3 O3 1.919806 1_555
Li3 O2 2.031933 1_655
Li3 O1 2.031933 1_655
Ag0 O2 2.089030 1_655
Ag0 O0 2.089030 1_554
Ag1 O1 2.089030 1_655
Ag1 O0 2.089030 1_565
Ag2 O1 2.089030 1_554
Ag2 O3 2.089030 1_565
Ag3 O3 2.089030 1_555
Ag3 O2 2.089030 1_555
