# generated using pymatgen
data_Li2Cu3(CO3)3
_symmetry_space_group_name_H-M   'P 1'
_cell_length_a   6.18749600
_cell_length_b   8.10594600
_cell_length_c   8.14945503
_cell_angle_alpha   60.38195905
_cell_angle_beta   90.00000000
_cell_angle_gamma   90.00000000
_symmetry_Int_Tables_number   1
_chemical_formula_structural   Li2Cu3(CO3)3
_chemical_formula_sum   'Li4 Cu6 C6 O18'
_cell_volume   355.33382170
_cell_formula_units_Z   2
loop_
 _symmetry_equiv_pos_site_id
 _symmetry_equiv_pos_as_xyz
  1  'x, y, z'
loop_
 _atom_site_type_symbol
 _atom_site_label
 _atom_site_symmetry_multiplicity
 _atom_site_fract_x
 _atom_site_fract_y
 _atom_site_fract_z
 _atom_site_occupancy
  Li  Li0  1  0.00000000  0.96510200  0.37756700  1
  Li  Li1  1  0.50000000  0.65613100  0.96700400  1
  Li  Li2  1  0.00000000  0.37890400  0.65624200  1
  Li  Li3  1  0.50000000  0.37979900  0.65621100  1
  Cu  Cu0  1  0.24925700  0.67951800  0.29312000  1
  Cu  Cu1  1  0.75074300  0.67951800  0.29312000  1
  Cu  Cu2  1  0.75125800  0.02019500  0.67532200  1
  Cu  Cu3  1  0.24874200  0.02019500  0.67532200  1
  Cu  Cu4  1  0.25251300  0.29910700  0.03431400  1
  Cu  Cu5  1  0.74748700  0.29910700  0.03431400  1
  C  C0  1  0.25008900  0.66380200  0.66861400  1
  C  C1  1  0.74991100  0.66380200  0.66861400  1
  C  C2  1  0.00000000  0.00450000  0.99630700  1
  C  C3  1  0.50000000  0.99851300  0.99860800  1
  C  C4  1  0.00000000  0.33473500  0.33653300  1
  C  C5  1  0.50000000  0.33445000  0.33174600  1
  O  O0  1  0.00000000  0.93288000  0.88653600  1
  O  O1  1  0.50000000  0.92646400  0.88490200  1
  O  O2  1  0.76599700  0.84466500  0.55889800  1
  O  O3  1  0.23400300  0.84466500  0.55889800  1
  O  O4  1  0.26939000  0.59033100  0.84831500  1
  O  O5  1  0.73061000  0.59033100  0.84831500  1
  O  O6  1  0.00000000  0.89426400  0.18043300  1
  O  O7  1  0.50000000  0.88854300  0.17957700  1
  O  O8  1  0.24725300  0.55119300  0.59380300  1
  O  O9  1  0.75274700  0.55119300  0.59380300  1
  O  O10  1  0.00000000  0.18994800  0.92731900  1
  O  O11  1  0.50000000  0.18283300  0.92469600  1
  O  O12  1  0.00000000  0.51715600  0.25478500  1
  O  O13  1  0.50000000  0.52063200  0.24780600  1
  O  O14  1  0.00000000  0.23334100  0.52150000  1
  O  O15  1  0.50000000  0.23728900  0.51550400  1
  O  O16  1  0.00000000  0.24618900  0.23905500  1
  O  O17  1  0.50000000  0.25165000  0.23111800  1
loop_
_geom_bond_atom_site_label_1
_geom_bond_atom_site_label_2
_geom_bond_distance
_geom_bond_site_symmetry_2
Li0 O3 1.951215 1_555
Li0 O2 1.951215 1_455
Li0 O6 1.955117 1_555
Li0 O16 1.980771 1_565
Li1 O4 1.940627 1_555
Li1 O5 1.940627 1_555
Li1 O1 1.949431 1_555
Li1 O13 1.989649 1_556
Li2 O8 1.961486 1_555
Li2 O9 1.961486 1_455
Li2 O14 1.969428 1_555
Li2 O10 1.970216 1_555
Li3 O11 1.970671 1_555
Li3 O9 1.983967 1_555
Li3 O8 1.983967 1_555
Li3 O15 1.989630 1_555
Cu0 O8 2.137106 1_555
Cu0 O7 2.141124 1_555
Cu0 O12 2.148193 1_555
Cu0 O6 2.161479 1_555
Cu0 O13 2.161546 1_555
Cu1 O9 2.137106 1_555
Cu1 O7 2.141124 1_555
Cu1 O12 2.148193 1_655
Cu1 O6 2.161479 1_655
Cu1 O13 2.161546 1_555
Cu2 O2 2.065756 1_545
Cu2 O0 2.151363 1_645
Cu2 O1 2.151441 1_545
Cu2 O14 2.187362 1_655
Cu2 O15 2.223640 1_555
Cu3 O3 2.065756 1_545
Cu3 O0 2.151363 1_545
Cu3 O1 2.151441 1_545
Cu3 O14 2.187362 1_555
Cu3 O15 2.223640 1_555
Cu4 O4 2.084305 1_554
Cu4 O17 2.110787 1_555
Cu4 O16 2.168343 1_555
Cu4 O10 2.178763 1_554
Cu4 O11 2.205345 1_554
Cu5 O5 2.084305 1_554
Cu5 O17 2.110787 1_555
Cu5 O16 2.168343 1_655
Cu5 O10 2.178763 1_654
Cu5 O11 2.205345 1_554
C0 O4 1.285118 1_555
C0 O3 1.289587 1_555
C0 O8 1.324870 1_555
C1 O5 1.285118 1_555
C1 O2 1.289587 1_555
C1 O9 1.324870 1_555
C2 O0 1.284770 1_545
C2 O6 1.313291 1_546
C2 O10 1.319253 1_555
C3 O7 1.292363 1_556
C3 O11 1.305976 1_565
C3 O1 1.317070 1_555
C4 O12 1.287109 1_555
C4 O16 1.307594 1_555
C4 O14 1.312681 1_555
C5 O17 1.291128 1_555
C5 O15 1.302725 1_555
C5 O13 1.313445 1_555
