# generated using pymatgen
data_Nb4VO12
_symmetry_space_group_name_H-M   'P 1'
_cell_length_a   7.65242834
_cell_length_b   9.20406841
_cell_length_c   7.69661956
_cell_angle_alpha   113.30749865
_cell_angle_beta   95.03286645
_cell_angle_gamma   66.35707744
_symmetry_Int_Tables_number   1
_chemical_formula_structural   Nb4VO12
_chemical_formula_sum   'Nb8 V2 O24'
_cell_volume   454.44753785
_cell_formula_units_Z   2
loop_
 _symmetry_equiv_pos_site_id
 _symmetry_equiv_pos_as_xyz
  1  'x, y, z'
loop_
 _atom_site_type_symbol
 _atom_site_label
 _atom_site_symmetry_multiplicity
 _atom_site_fract_x
 _atom_site_fract_y
 _atom_site_fract_z
 _atom_site_occupancy
  Nb  Nb0  1  0.01750600  0.98088900  0.00485300  1
  Nb  Nb1  1  0.51755800  0.98087700  0.50486100  1
  Nb  Nb2  1  0.25400000  0.50980300  0.23810100  1
  Nb  Nb3  1  0.75398800  0.50984900  0.73813500  1
  Nb  Nb4  1  0.74215500  0.50025100  0.24882800  1
  Nb  Nb5  1  0.24218000  0.50025500  0.74886000  1
  Nb  Nb6  1  0.02023300  0.98203000  0.49640700  1
  Nb  Nb7  1  0.52023500  0.98202200  0.99640500  1
  V  V0  1  0.55114400  0.28103600  0.43388900  1
  V  V1  1  0.05123400  0.28102800  0.93395400  1
  O  O0  1  0.55030500  0.42267600  0.71122500  1
  O  O1  1  0.05028900  0.42264700  0.21124200  1
  O  O2  1  0.20704100  0.72773500  0.90185900  1
  O  O3  1  0.70704800  0.72771600  0.40184500  1
  O  O4  1  0.05556200  0.03757500  0.25668100  1
  O  O5  1  0.55557700  0.03759700  0.75668800  1
  O  O6  1  0.23257300  0.40622100  0.93502400  1
  O  O7  1  0.73252500  0.40627500  0.43502900  1
  O  O8  1  0.29706000  0.94162900  0.50688000  1
  O  O9  1  0.79705700  0.94159100  0.00683900  1
  O  O10  1  0.08912200  0.74033900  0.30599700  1
  O  O11  1  0.58901800  0.74045400  0.80603400  1
  O  O12  1  0.98189000  0.24017600  0.69285200  1
  O  O13  1  0.48188800  0.24015600  0.19271800  1
  O  O14  1  0.73995600  0.07459700  0.45229900  1
  O  O15  1  0.23996400  0.07459700  0.95228300  1
  O  O16  1  0.80678900  0.51501300  0.98811400  1
  O  O17  1  0.30680700  0.51500300  0.48810000  1
  O  O18  1  0.00253500  0.93417400  0.70068600  1
  O  O19  1  0.50252500  0.93418500  0.20068300  1
  O  O20  1  0.87218300  0.23214000  0.03466500  1
  O  O21  1  0.37217600  0.23212900  0.53471100  1
  O  O22  1  0.49098400  0.53296900  0.18058400  1
  O  O23  1  0.99099600  0.53295900  0.68056100  1
loop_
_geom_bond_atom_site_label_1
_geom_bond_atom_site_label_2
_geom_bond_distance
_geom_bond_site_symmetry_2
Nb0 O4 1.826564 1_565
Nb0 O9 1.864199 1_455
Nb0 O2 2.047113 1_554
Nb0 O20 2.049231 1_465
Nb0 O18 2.207818 1_554
Nb0 O15 2.319534 1_564
Nb1 O5 1.826483 1_565
Nb1 O8 1.864351 1_555
Nb1 O3 2.047059 1_555
Nb1 O21 2.049200 1_565
Nb1 O19 2.207962 1_555
Nb1 O14 2.319179 1_565
Nb2 O10 1.859643 1_555
Nb2 O17 1.916806 1_555
Nb2 O1 1.982826 1_555
Nb2 O22 2.013932 1_555
Nb2 O6 2.162308 1_554
Nb2 O13 2.296126 1_555
Nb3 O11 1.860294 1_555
Nb3 O16 1.916745 1_555
Nb3 O0 1.982682 1_555
Nb3 O23 2.013973 1_555
Nb3 O7 2.162549 1_555
Nb3 O12 2.296495 1_555
Nb4 O3 1.869649 1_555
Nb4 O22 1.882739 1_555
Nb4 O7 1.964179 1_555
Nb4 O16 2.175636 1_554
Nb4 O1 2.181560 1_655
Nb4 O20 2.212732 1_555
Nb5 O2 1.869672 1_555
Nb5 O23 1.882956 1_455
Nb5 O6 1.964269 1_555
Nb5 O17 2.175894 1_555
Nb5 O0 2.181567 1_555
Nb5 O21 2.212767 1_555
Nb6 O18 1.821422 1_555
Nb6 O10 1.997338 1_555
Nb6 O8 1.998581 1_555
Nb6 O14 2.019101 1_465
Nb6 O4 2.164163 1_565
Nb6 O12 2.166414 1_465
Nb7 O19 1.821330 1_556
Nb7 O11 1.996527 1_555
Nb7 O9 1.998476 1_556
Nb7 O15 2.019091 1_565
Nb7 O5 2.164298 1_565
Nb7 O13 2.166042 1_566
O0 V0 2.012339 1_555
O1 V1 2.011865 1_554
O6 V1 2.127557 1_555
O7 V0 2.128031 1_555
O12 V1 1.817031 1_655
O13 V0 1.817303 1_555
O14 V0 1.921764 1_555
O15 V1 1.921244 1_555
O16 V1 2.122777 1_655
O17 V0 2.122224 1_555
O20 V1 1.907233 1_654
O21 V0 1.907295 1_555
