# generated using pymatgen
data_K2SrTa2O7
_symmetry_space_group_name_H-M   'P 1'
_cell_length_a   11.40392245
_cell_length_b   11.40392245
_cell_length_c   11.40392245
_cell_angle_alpha   159.70744540
_cell_angle_beta   159.70744540
_cell_angle_gamma   28.85212749
_symmetry_Int_Tables_number   1
_chemical_formula_structural   K2SrTa2O7
_chemical_formula_sum   'K2 Sr1 Ta2 O7'
_cell_volume   178.29230150
_cell_formula_units_Z   1
loop_
 _symmetry_equiv_pos_site_id
 _symmetry_equiv_pos_as_xyz
  1  'x, y, z'
loop_
 _atom_site_type_symbol
 _atom_site_label
 _atom_site_symmetry_multiplicity
 _atom_site_fract_x
 _atom_site_fract_y
 _atom_site_fract_z
 _atom_site_occupancy
  K  K0  1  0.80683000  0.80683000  0.00000000  1
  K  K1  1  0.19317000  0.19317000  0.00000000  1
  Sr  Sr0  1  0.00000000  0.00000000  0.00000000  1
  Ta  Ta0  1  0.59606600  0.59606600  0.00000000  1
  Ta  Ta1  1  0.40393400  0.40393400  0.00000000  1
  O  O0  1  0.50000000  0.50000000  0.00000000  1
  O  O1  1  0.31908900  0.31908900  0.00000000  1
  O  O2  1  0.68091100  0.68091100  0.00000000  1
  O  O3  1  0.91261700  0.41261700  0.50000000  1
  O  O4  1  0.41261700  0.91261700  0.50000000  1
  O  O5  1  0.58738300  0.08738300  0.50000000  1
  O  O6  1  0.08738300  0.58738300  0.50000000  1
loop_
_geom_bond_atom_site_label_1
_geom_bond_atom_site_label_2
_geom_bond_distance
_geom_bond_site_symmetry_2
K0 O2 2.781389 1_555
K0 O1 2.853940 1_565
K0 O1 2.853940 1_666
K0 O1 2.853940 1_655
K0 O1 2.853940 1_554
K0 O4 3.081555 1_655
K0 O3 3.081555 1_565
K0 O3 3.081555 1_554
K0 O4 3.081555 1_554
K1 O1 2.781389 1_555
K1 O2 2.853940 1_556
K1 O2 2.853940 1_444
K1 O2 2.853940 1_545
K1 O2 2.853940 1_455
K1 O5 3.081555 1_555
K1 O6 3.081555 1_555
K1 O5 3.081555 1_454
K1 O6 3.081555 1_544
O0 Ta0 2.121974 1_555
O0 Ta1 2.121974 1_555
O0 Sr0 2.841065 1_554
O0 Sr0 2.841065 1_655
O0 Sr0 2.841065 1_565
O0 Sr0 2.841065 1_666
O1 Ta1 1.874117 1_555
O2 Ta0 1.874117 1_555
O3 Ta1 2.018071 1_656
O3 Ta1 2.018071 1_555
O3 Sr0 2.785931 1_655
O3 Sr0 2.785931 1_666
O4 Ta1 2.018071 1_566
O4 Ta1 2.018071 1_555
O4 Sr0 2.785931 1_565
O4 Sr0 2.785931 1_666
O5 Ta0 2.018071 1_545
O5 Ta0 2.018071 1_556
O5 Sr0 2.785931 1_555
O5 Sr0 2.785931 1_656
O6 Ta0 2.018071 1_455
O6 Ta0 2.018071 1_556
O6 Sr0 2.785931 1_555
O6 Sr0 2.785931 1_566
