# generated using pymatgen
data_Li2SnBPO7
_symmetry_space_group_name_H-M   'P 1'
_cell_length_a   6.50707400
_cell_length_b   5.17801600
_cell_length_c   9.11691872
_cell_angle_alpha   87.36525211
_cell_angle_beta   90.00000000
_cell_angle_gamma   90.00000000
_symmetry_Int_Tables_number   1
_chemical_formula_structural   Li2SnBPO7
_chemical_formula_sum   'Li4 Sn2 B2 P2 O14'
_cell_volume   306.85829697
_cell_formula_units_Z   2
loop_
 _symmetry_equiv_pos_site_id
 _symmetry_equiv_pos_as_xyz
  1  'x, y, z'
loop_
 _atom_site_type_symbol
 _atom_site_label
 _atom_site_symmetry_multiplicity
 _atom_site_fract_x
 _atom_site_fract_y
 _atom_site_fract_z
 _atom_site_occupancy
  Li  Li0  1  0.47207800  0.75833600  0.84140100  1
  Li  Li1  1  0.02792200  0.75833600  0.84140100  1
  Li  Li2  1  0.52792200  0.24166400  0.15859900  1
  Li  Li3  1  0.97207800  0.24166400  0.15859900  1
  Sn  Sn0  1  0.25000000  0.22271800  0.66255400  1
  Sn  Sn1  1  0.75000000  0.77728200  0.33744600  1
  B  B0  1  0.25000000  0.26649800  0.94240600  1
  B  B1  1  0.75000000  0.73350200  0.05759400  1
  P  P0  1  0.75000000  0.27526500  0.57030500  1
  P  P1  1  0.25000000  0.72473500  0.42969500  1
  O  O0  1  0.75000000  0.70900300  0.91379400  1
  O  O1  1  0.25000000  0.02776000  0.86923400  1
  O  O2  1  0.25000000  0.47843100  0.83335500  1
  O  O3  1  0.93570700  0.19293500  0.66624500  1
  O  O4  1  0.56429300  0.19293500  0.66624500  1
  O  O5  1  0.25000000  0.85090000  0.58056400  1
  O  O6  1  0.75000000  0.57411000  0.53730100  1
  O  O7  1  0.25000000  0.42589000  0.46269900  1
  O  O8  1  0.75000000  0.14910000  0.41943600  1
  O  O9  1  0.43570700  0.80706500  0.33375500  1
  O  O10  1  0.06429300  0.80706500  0.33375500  1
  O  O11  1  0.75000000  0.52156900  0.16664500  1
  O  O12  1  0.75000000  0.97224000  0.13076600  1
  O  O13  1  0.25000000  0.29099700  0.08620600  1
loop_
_geom_bond_atom_site_label_1
_geom_bond_atom_site_label_2
_geom_bond_distance
_geom_bond_site_symmetry_2
Li0 O0 1.938009 1_555
Li0 O1 2.032594 1_565
Li0 O2 2.050373 1_555
Li1 O0 1.938009 1_455
Li1 O1 2.032594 1_565
Li1 O2 2.050373 1_555
Li2 O13 1.938009 1_555
Li2 O12 2.032594 1_545
Li2 O11 2.050373 1_555
Li3 O13 1.938009 1_655
Li3 O12 2.032594 1_545
Li3 O11 2.050373 1_555
B0 O13 1.322928 1_556
B0 O1 1.431436 1_555
B0 O2 1.446518 1_555
B1 O0 1.322928 1_554
B1 O12 1.431436 1_555
B1 O11 1.446518 1_555
O1 Sn0 2.096361 1_555
O2 Sn0 2.089873 1_555
O3 P0 1.540379 1_555
O3 Sn0 2.051094 1_655
O4 P0 1.540379 1_555
O4 Sn0 2.051094 1_555
O5 P1 1.549608 1_555
O5 Sn0 2.097084 1_565
O6 P0 1.562771 1_555
O6 Sn1 2.061660 1_555
O7 P1 1.562771 1_555
O7 Sn0 2.061660 1_555
O8 P0 1.549608 1_555
O8 Sn1 2.097084 1_545
O9 P1 1.540379 1_555
O9 Sn1 2.051094 1_555
O10 P1 1.540379 1_555
O10 Sn1 2.051094 1_455
O11 Sn1 2.089873 1_555
O12 Sn1 2.096361 1_555
