# generated using pymatgen
data_Li32Ti5Cr11O48
_symmetry_space_group_name_H-M   'P 1'
_cell_length_a   5.04104735
_cell_length_b   5.04104745
_cell_length_c   38.57732373
_cell_angle_alpha   89.01919832
_cell_angle_beta   90.98080209
_cell_angle_gamma   60.37408353
_symmetry_Int_Tables_number   1
_chemical_formula_structural   Li32Ti5Cr11O48
_chemical_formula_sum   'Li32 Ti5 Cr11 O48'
_cell_volume   851.68159390
_cell_formula_units_Z   1
loop_
 _symmetry_equiv_pos_site_id
 _symmetry_equiv_pos_as_xyz
  1  'x, y, z'
loop_
 _atom_site_type_symbol
 _atom_site_label
 _atom_site_symmetry_multiplicity
 _atom_site_fract_x
 _atom_site_fract_y
 _atom_site_fract_z
 _atom_site_occupancy
  Li  Li0  1  0.08814489  0.08682943  0.24992140  1
  Li  Li1  1  0.00084800  0.50205320  0.99995927  1
  Li  Li2  1  0.06223363  0.43723363  0.18750000  1
  Li  Li3  1  0.12705320  0.37584800  0.37504073  1
  Li  Li4  1  0.18570956  0.31601385  0.56257485  1
  Li  Li5  1  0.24441106  0.25217967  0.74982383  1
  Li  Li6  1  0.31254136  0.18749652  0.93752794  1
  Li  Li7  1  0.03458489  0.78628063  0.12489837  1
  Li  Li8  1  0.37991111  0.12735868  0.12500076  1
  Li  Li9  1  0.16584544  0.65450031  0.50006531  1
  Li  Li10  1  0.27950031  0.54084544  0.87493469  1
  Li  Li11  1  0.43926813  0.05861087  0.31247139  1
  Li  Li12  1  0.49760067  0.99947491  0.49998316  1
  Li  Li13  1  0.41128063  0.40958489  0.25010163  1
  Li  Li14  1  0.52915649  0.29365027  0.62505046  1
  Li  Li15  1  0.21733510  0.96092390  0.62541906  1
  Li  Li16  1  0.34362110  0.83656053  0.99986702  1
  Li  Li17  1  0.65688553  0.16137477  0.99995209  1
  Li  Li18  1  0.78637477  0.03188553  0.37504791  1
  Li  Li19  1  0.46156053  0.71862110  0.37513298  1
  Li  Li20  1  0.58592390  0.59233510  0.74958094  1
  Li  Li21  1  0.56242839  0.93742839  0.68750000  1
  Li  Li22  1  0.71182943  0.46314489  0.12507860  1
  Li  Li23  1  0.83663183  0.34519905  0.49978533  1
  Li  Li24  1  0.62447491  0.87260067  0.87501684  1
  Li  Li25  1  0.97019905  0.21163183  0.87521467  1
  Li  Li26  1  0.68361087  0.81426813  0.06252861  1
  Li  Li27  1  0.75235868  0.75491111  0.24999924  1
  Li  Li28  1  0.81249652  0.68754136  0.43747206  1
  Li  Li29  1  0.87717967  0.61941106  0.62517617  1
  Li  Li30  1  0.94101385  0.56070956  0.81242515  1
  Li  Li31  1  0.91865027  0.90415649  0.74994954  1
  Ti  Ti0  1  0.02555481  0.14250682  0.06269012  1
  Ti  Ti1  1  0.59996880  0.23257739  0.81218970  1
  Ti  Ti2  1  0.39613629  0.77113629  0.18750000  1
  Ti  Ti3  1  0.76750682  0.40055481  0.31230988  1
  Ti  Ti4  1  0.85757739  0.97496880  0.56281030  1
  Cr  Cr0  1  0.14127681  0.01654563  0.43756313  1
  Cr  Cr1  1  0.10666388  0.72757094  0.31279327  1
  Cr  Cr2  1  0.23292843  0.60792843  0.68750000  1
  Cr  Cr3  1  0.35257094  0.48166388  0.06220673  1
  Cr  Cr4  1  0.48372950  0.35815938  0.43740231  1
  Cr  Cr5  1  0.27259045  0.89371308  0.81263142  1
  Cr  Cr6  1  0.73118713  0.10618713  0.18750000  1
  Cr  Cr7  1  0.51871308  0.64759045  0.56236858  1
  Cr  Cr8  1  0.64154563  0.51627681  0.93743687  1
  Cr  Cr9  1  0.89096233  0.26596233  0.68750000  1
  Cr  Cr10  1  0.98315938  0.85872950  0.93759769  1
  O  O0  1  0.09087158  0.04947998  0.34050157  1
  O  O1  1  0.05075773  0.09001154  0.15919751  1
  O  O2  1  0.07500930  0.43527387  0.28379610  1
  O  O3  1  0.19490251  0.30470921  0.65934296  1
  O  O4  1  0.06027387  0.45000930  0.09120390  1
  O  O5  1  0.18124569  0.31863123  0.46577470  1
  O  O6  1  0.30442488  0.20093722  0.84189243  1
  O  O7  1  0.32106867  0.17389889  0.03294350  1
  O  O8  1  0.44375295  0.05635524  0.40920495  1
  O  O9  1  0.06618695  0.78701935  0.21555597  1
  O  O10  1  0.42994322  0.07329288  0.21644917  1
  O  O11  1  0.19023371  0.66084454  0.59129846  1
  O  O12  1  0.33240670  0.53293540  0.96574192  1
  O  O13  1  0.04227730  0.80881425  0.03432398  1
  O  O14  1  0.15793540  0.70740670  0.40925808  1
  O  O15  1  0.28584454  0.56523371  0.78370154  1
  O  O16  1  0.21756658  0.91752538  0.71563309  1
  O  O17  1  0.19142989  0.95755078  0.53453399  1
  O  O18  1  0.29242867  0.84185841  0.90928784  1
  O  O19  1  0.43381425  0.41727730  0.34067602  1
  O  O20  1  0.58228862  0.28201539  0.71575686  1
  O  O21  1  0.41201935  0.44118695  0.15944403  1
  O  O22  1  0.53448939  0.32579791  0.53462614  1
  O  O23  1  0.65833965  0.20709597  0.90923516  1
  O  O24  1  0.33886223  0.80976734  0.09116923  1
  O  O25  1  0.46685841  0.66742867  0.46571216  1
  O  O26  1  0.58255078  0.56642989  0.84046601  1
  O  O27  1  0.43476734  0.71386223  0.28383077  1
  O  O28  1  0.54252538  0.59256658  0.65936691  1
  O  O29  1  0.68992167  0.16456506  0.09026491  1
  O  O30  1  0.83209597  0.03333965  0.46576484  1
  O  O31  1  0.78956506  0.06492167  0.28473509  1
  O  O32  1  0.71501154  0.42575773  0.21580249  1
  O  O33  1  0.83529945  0.31040878  0.59049684  1
  O  O34  1  0.96691015  0.16780713  0.96583374  1
  O  O35  1  0.67447998  0.46587158  0.03449843  1
  O  O36  1  0.79280713  0.34191015  0.40916626  1
  O  O37  1  0.56457860  0.92547273  0.78358326  1
  O  O38  1  0.93540878  0.21029945  0.78450316  1
  O  O39  1  0.55047273  0.93957860  0.59141674  1
  O  O40  1  0.68135524  0.81875295  0.96579505  1
  O  O41  1  0.69829288  0.80494322  0.15855083  1
  O  O42  1  0.82593722  0.67942488  0.53310757  1
  O  O43  1  0.94363123  0.55624569  0.90922530  1
  O  O44  1  0.79889889  0.69606867  0.34205650  1
  O  O45  1  0.92970921  0.56990251  0.71565704  1
  O  O46  1  0.95079791  0.90948939  0.84037386  1
  O  O47  1  0.90701539  0.95728862  0.65924314  1
loop_
_geom_bond_atom_site_label_1
_geom_bond_atom_site_label_2
_geom_bond_distance
_geom_bond_site_symmetry_2
Li0 O9 2.069534 1_545
Li0 O31 2.076020 1_455
Li0 O10 2.145641 1_555
Li0 O2 2.182666 1_555
Li0 O32 2.202404 1_455
Li0 O27 2.211079 1_545
Li1 O7 2.044246 1_556
Li1 O40 2.047667 1_455
Li1 O13 2.138327 1_556
Li1 O35 2.208811 1_456
Li1 O12 2.210432 1_555
Li1 O34 2.225905 1_455
Li2 O21 2.092926 1_555
Li2 O9 2.092926 1_555
Li2 O32 2.102997 1_455
Li2 O1 2.102997 1_555
Li2 O10 2.132099 1_555
Li2 O41 2.132099 1_455
Li3 O44 2.044246 1_455
Li3 O8 2.047667 1_555
Li3 O19 2.138327 1_555
Li3 O0 2.208811 1_555
Li3 O14 2.210432 1_555
Li3 O36 2.225905 1_455
Li4 O11 2.086708 1_555
Li4 O33 2.096377 1_455
Li4 O22 2.098822 1_555
Li4 O17 2.110171 1_545
Li4 O42 2.123880 1_455
Li4 O39 2.151274 1_545
Li5 O45 2.040432 1_455
Li5 O37 2.059141 1_545
Li5 O15 2.151570 1_555
Li5 O38 2.155829 1_455
Li5 O16 2.213551 1_545
Li5 O20 2.230246 1_555
Li6 O12 2.112021 1_555
Li6 O18 2.113971 1_545
Li6 O34 2.114331 1_455
Li6 O23 2.114584 1_555
Li6 O40 2.132012 1_545
Li6 O43 2.132894 1_455
Li7 O1 2.071434 1_565
Li7 O24 2.074239 1_555
Li7 O4 2.108101 1_555
Li7 O41 2.118961 1_455
Li7 O21 2.232460 1_555
Li7 O29 2.235598 1_465
Li8 O41 2.042196 1_545
Li8 O4 2.050869 1_555
Li8 O21 2.147622 1_555
Li8 O29 2.150808 1_555
Li8 O24 2.167761 1_545
Li8 O1 2.214559 1_555
Li9 O25 2.055911 1_555
Li9 O17 2.092146 1_555
Li9 O42 2.108095 1_455
Li9 O5 2.138426 1_555
Li9 O22 2.184460 1_555
Li9 O30 2.211177 1_465
Li10 O18 2.055911 1_555
Li10 O26 2.092146 1_555
Li10 O6 2.108095 1_555
Li10 O43 2.138426 1_455
Li10 O46 2.184460 1_455
Li10 O23 2.211177 1_555
Li11 O27 2.084565 1_545
Li11 O31 2.093616 1_555
Li11 O0 2.097417 1_555
Li11 O19 2.114927 1_555
Li11 O44 2.124001 1_545
Li11 O2 2.147626 1_555
Li12 O5 2.047400 1_565
Li12 O42 2.047518 1_555
Li12 O17 2.141648 1_555
Li12 O22 2.212664 1_565
Li12 O25 2.213356 1_555
Li12 O30 2.228914 1_565
Li13 O32 2.071434 1_555
Li13 O27 2.074239 1_555
Li13 O2 2.108101 1_555
Li13 O10 2.118961 1_555
Li13 O9 2.232460 1_555
Li13 O31 2.235598 1_555
Li14 O28 2.047761 1_555
Li14 O33 2.088343 1_555
Li14 O3 2.139711 1_555
Li14 O11 2.180686 1_555
Li14 O39 2.185251 1_545
Li14 O47 2.210771 1_545
Li15 O47 2.060947 1_455
Li15 O11 2.075067 1_555
Li15 O39 2.110458 1_555
Li15 O3 2.148916 1_565
Li15 O28 2.164305 1_555
Li15 O33 2.259020 1_465
Li16 O12 2.056923 1_555
Li16 O13 2.089725 1_556
Li16 O7 2.102629 1_566
Li16 O40 2.136326 1_555
Li16 O35 2.194409 1_556
Li16 O34 2.196092 1_465
Li17 O34 2.072433 1_555
Li17 O35 2.083442 1_556
Li17 O7 2.111978 1_556
Li17 O40 2.146505 1_545
Li17 O12 2.176695 1_555
Li17 O13 2.260244 1_646
Li18 O36 2.072433 1_555
Li18 O0 2.083442 1_655
Li18 O44 2.111978 1_545
Li18 O8 2.146505 1_555
Li18 O14 2.176695 1_645
Li18 O19 2.260244 1_555
Li19 O14 2.056923 1_555
Li19 O19 2.089725 1_555
Li19 O44 2.102629 1_555
Li19 O8 2.136326 1_565
Li19 O0 2.194409 1_565
Li19 O36 2.196092 1_555
Li20 O20 2.060947 1_555
Li20 O15 2.075067 1_555
Li20 O37 2.110458 1_555
Li20 O45 2.148916 1_555
Li20 O16 2.164305 1_555
Li20 O38 2.259020 1_555
Li21 O16 2.107964 1_555
Li21 O28 2.107964 1_555
Li21 O47 2.109208 1_555
Li21 O20 2.109208 1_565
Li21 O3 2.123974 1_565
Li21 O45 2.123974 1_555
Li22 O21 2.069534 1_555
Li22 O29 2.076020 1_555
Li22 O41 2.145641 1_555
Li22 O4 2.182666 1_655
Li22 O1 2.202404 1_655
Li22 O24 2.211079 1_555
Li23 O30 2.073549 1_555
Li23 O22 2.085381 1_555
Li23 O42 2.116790 1_555
Li23 O5 2.147398 1_655
Li23 O25 2.165747 1_555
Li23 O17 2.277573 1_645
Li24 O43 2.047400 1_555
Li24 O6 2.047518 1_565
Li24 O26 2.141648 1_555
Li24 O46 2.212664 1_555
Li24 O18 2.213356 1_555
Li24 O23 2.228914 1_565
Li25 O23 2.073549 1_555
Li25 O46 2.085381 1_545
Li25 O6 2.116790 1_655
Li25 O43 2.147398 1_555
Li25 O18 2.165747 1_645
Li25 O26 2.277573 1_555
Li26 O24 2.084565 1_555
Li26 O29 2.093616 1_565
Li26 O35 2.097418 1_555
Li26 O13 2.114927 1_655
Li26 O7 2.124001 1_565
Li26 O4 2.147626 1_655
Li27 O10 2.042196 1_565
Li27 O2 2.050869 1_655
Li27 O9 2.147622 1_655
Li27 O31 2.150809 1_565
Li27 O27 2.167761 1_555
Li27 O32 2.214559 1_555
Li28 O14 2.112021 1_655
Li28 O25 2.113971 1_555
Li28 O36 2.114331 1_555
Li28 O30 2.114584 1_565
Li28 O8 2.132012 1_565
Li28 O5 2.132894 1_655
Li29 O3 2.040432 1_655
Li29 O39 2.059141 1_555
Li29 O11 2.151570 1_655
Li29 O33 2.155829 1_555
Li29 O28 2.213551 1_555
Li29 O47 2.230246 1_555
Li30 O15 2.086708 1_655
Li30 O38 2.096377 1_555
Li30 O46 2.098822 1_555
Li30 O26 2.110171 1_555
Li30 O6 2.123880 1_655
Li30 O37 2.151274 1_555
Li31 O16 2.047761 1_655
Li31 O38 2.088343 1_565
Li31 O45 2.139711 1_555
Li31 O15 2.180686 1_655
Li31 O37 2.185251 1_555
Li31 O20 2.210771 1_565
Cr0 O30 1.884347 1_455
Cr0 O14 1.886780 1_545
Cr0 O5 1.973990 1_555
Cr0 O8 1.978434 1_555
Cr0 O25 1.997015 1_545
Cr0 O36 2.000026 1_455
Cr1 O19 1.911748 1_555
Cr1 O0 1.927908 1_565
Cr1 O2 1.931512 1_555
Cr1 O31 1.951668 1_465
Cr1 O27 1.985370 1_555
Cr1 O44 2.001014 1_455
Cr2 O28 1.887063 1_555
Cr2 O16 1.887063 1_555
Cr2 O45 1.972934 1_455
Cr2 O3 1.972934 1_555
Cr2 O20 2.000359 1_555
Cr2 O47 2.000359 1_455
Cr3 O13 1.911748 1_555
Cr3 O35 1.927908 1_555
Cr3 O4 1.931512 1_555
Cr3 O29 1.951668 1_555
Cr3 O24 1.985370 1_555
Cr3 O7 2.001014 1_555
Cr4 O36 1.885682 1_555
Cr4 O25 1.887046 1_555
Cr4 O8 1.972521 1_555
Cr4 O5 1.978105 1_555
Cr4 O14 1.997630 1_555
Cr4 O30 1.998065 1_555
Cr5 O26 1.910415 1_555
Cr5 O46 1.928200 1_455
Cr5 O37 1.931647 1_555
Cr5 O38 1.951724 1_465
Cr5 O15 1.987053 1_555
Cr5 O6 1.999477 1_565
Cr6 O1 1.930639 1_655
Cr6 O32 1.930639 1_555
Cr6 O9 1.950253 1_645
Cr6 O21 1.950253 1_555
Cr6 O10 1.970147 1_555
Cr6 O41 1.970147 1_545
Cr7 O17 1.910415 1_555
Cr7 O22 1.928200 1_555
Cr7 O39 1.931647 1_555
Cr7 O33 1.951724 1_555
Cr7 O11 1.987053 1_555
Cr7 O42 1.999477 1_555
Cr8 O23 1.884347 1_555
Cr8 O12 1.886780 1_555
Cr8 O43 1.973990 1_555
Cr8 O40 1.978434 1_555
Cr8 O18 1.997015 1_555
Cr8 O34 2.000026 1_555
Cr9 O20 1.884850 1_555
Cr9 O47 1.884850 1_545
Cr9 O3 1.977674 1_655
Cr9 O45 1.977674 1_555
Cr9 O28 1.997059 1_555
Cr9 O16 1.997059 1_645
Cr10 O34 1.885682 1_565
Cr10 O18 1.887046 1_655
Cr10 O40 1.972521 1_555
Cr10 O43 1.978105 1_555
Cr10 O12 1.997630 1_655
Cr10 O23 1.998065 1_565
O0 Ti3 1.998329 1_455
O1 Ti2 1.978688 1_545
O2 Ti3 1.990862 1_455
O4 Ti0 1.990862 1_555
O6 Ti1 1.960918 1_555
O7 Ti0 1.961246 1_555
O9 Ti2 1.969086 1_555
O10 Ti2 1.976032 1_545
O11 Ti4 1.944066 1_455
O13 Ti0 1.990030 1_565
O15 Ti1 1.944066 1_555
O17 Ti4 1.987464 1_455
O19 Ti3 1.990030 1_555
O21 Ti2 1.969087 1_555
O22 Ti4 1.997080 1_545
O24 Ti0 1.942513 1_565
O26 Ti1 1.987464 1_555
O27 Ti3 1.942513 1_555
O29 Ti0 1.971366 1_655
O31 Ti3 1.971366 1_555
O32 Ti2 1.978688 1_555
O33 Ti4 1.972550 1_545
O35 Ti0 1.998329 1_655
O37 Ti1 1.992784 1_565
O38 Ti1 1.972550 1_555
O39 Ti4 1.992784 1_555
O41 Ti2 1.976032 1_555
O42 Ti4 1.960918 1_555
O44 Ti3 1.961246 1_555
O46 Ti1 1.997080 1_565
