# generated using pymatgen
data_Ho2(SeO4)3
_symmetry_space_group_name_H-M   'P 1'
_cell_length_a   6.79596147
_cell_length_b   6.79596147
_cell_length_c   11.30544647
_cell_angle_alpha   80.62931330
_cell_angle_beta   80.62931330
_cell_angle_gamma   117.07430523
_symmetry_Int_Tables_number   1
_chemical_formula_structural   Ho2(SeO4)3
_chemical_formula_sum   'Ho4 Se6 O24'
_cell_volume   441.72455584
_cell_formula_units_Z   2
loop_
 _symmetry_equiv_pos_site_id
 _symmetry_equiv_pos_as_xyz
  1  'x, y, z'
loop_
 _atom_site_type_symbol
 _atom_site_label
 _atom_site_symmetry_multiplicity
 _atom_site_fract_x
 _atom_site_fract_y
 _atom_site_fract_z
 _atom_site_occupancy
  Ho  Ho0  1  0.70812200  0.95761500  0.59453200  1
  Ho  Ho1  1  0.95761500  0.70812200  0.09453200  1
  Ho  Ho2  1  0.04238500  0.29187800  0.90546800  1
  Ho  Ho3  1  0.29187800  0.04238500  0.40546800  1
  Se  Se0  1  0.52841600  0.78597800  0.92454700  1
  Se  Se1  1  0.78597800  0.52841600  0.42454700  1
  Se  Se2  1  0.11977500  0.88022500  0.75000000  1
  Se  Se3  1  0.88022500  0.11977500  0.25000000  1
  Se  Se4  1  0.21402200  0.47158400  0.57545300  1
  Se  Se5  1  0.47158400  0.21402200  0.07545300  1
  O  O0  1  0.58702400  0.97207800  0.78943200  1
  O  O1  1  0.87383900  0.78637100  0.71165200  1
  O  O2  1  0.07981700  0.67889600  0.87750600  1
  O  O3  1  0.76737100  0.33709500  0.54364500  1
  O  O4  1  0.78941500  0.88860000  0.95778700  1
  O  O5  1  0.46989300  0.57598300  0.60553000  1
  O  O6  1  0.97207800  0.58702400  0.28943200  1
  O  O7  1  0.42401700  0.53010700  0.89447000  1
  O  O8  1  0.11140000  0.21058500  0.54221300  1
  O  O9  1  0.66290500  0.23262900  0.95635500  1
  O  O10  1  0.32110400  0.92018300  0.62249400  1
  O  O11  1  0.78637100  0.87383900  0.21165200  1
  O  O12  1  0.21362900  0.12616100  0.78834800  1
  O  O13  1  0.67889600  0.07981700  0.37750600  1
  O  O14  1  0.33709500  0.76737100  0.04364500  1
  O  O15  1  0.88860000  0.78941500  0.45778700  1
  O  O16  1  0.57598300  0.46989300  0.10553000  1
  O  O17  1  0.02792200  0.41297600  0.71056800  1
  O  O18  1  0.53010700  0.42401700  0.39447000  1
  O  O19  1  0.21058500  0.11140000  0.04221300  1
  O  O20  1  0.23262900  0.66290500  0.45635500  1
  O  O21  1  0.92018300  0.32110400  0.12249400  1
  O  O22  1  0.12616100  0.21362900  0.28834800  1
  O  O23  1  0.41297600  0.02792200  0.21056800  1
loop_
_geom_bond_atom_site_label_1
_geom_bond_atom_site_label_2
_geom_bond_distance
_geom_bond_site_symmetry_2
Ho0 O0 2.257368 1_555
Ho0 O5 2.317391 1_555
Ho0 O1 2.356436 1_555
Ho0 O3 2.374900 1_565
Ho0 O8 2.380887 1_665
Ho0 O10 2.485234 1_555
Ho0 O13 2.528731 1_565
Ho0 O15 2.536774 1_555
Ho1 O6 2.257368 1_555
Ho1 O16 2.317391 1_555
Ho1 O11 2.356436 1_555
Ho1 O14 2.374900 1_655
Ho1 O19 2.380887 1_665
Ho1 O21 2.485234 1_555
Ho1 O2 2.528731 1_654
Ho1 O4 2.536774 1_554
Ho2 O17 2.257368 1_555
Ho2 O7 2.317391 1_555
Ho2 O12 2.356436 1_555
Ho2 O9 2.374900 1_455
Ho2 O4 2.380887 1_445
Ho2 O2 2.485234 1_555
Ho2 O21 2.528731 1_456
Ho2 O19 2.536774 1_556
Ho3 O23 2.257368 1_555
Ho3 O18 2.317391 1_555
Ho3 O22 2.356436 1_555
Ho3 O20 2.374900 1_545
Ho3 O15 2.380887 1_445
Ho3 O13 2.485234 1_555
Ho3 O10 2.528731 1_545
Ho3 O8 2.536774 1_555
O0 Se0 1.675039 1_555
O1 Se2 1.656461 1_655
O2 Se2 1.707566 1_555
O3 Se1 1.656586 1_555
O4 Se0 1.717587 1_555
O5 Se4 1.670567 1_555
O6 Se1 1.675039 1_555
O7 Se0 1.670567 1_555
O8 Se4 1.717587 1_555
O9 Se5 1.656586 1_556
O10 Se2 1.707566 1_555
O11 Se3 1.656461 1_565
O12 Se2 1.656461 1_545
O13 Se3 1.707566 1_555
O14 Se0 1.656586 1_554
O15 Se1 1.717587 1_555
O16 Se5 1.670567 1_555
O17 Se4 1.675039 1_555
O18 Se1 1.670567 1_555
O19 Se5 1.717587 1_555
O20 Se4 1.656586 1_555
O21 Se3 1.707566 1_555
O22 Se3 1.656461 1_455
O23 Se5 1.675039 1_555
