# generated using pymatgen
data_V(CO3)2
_symmetry_space_group_name_H-M   'P 1'
_cell_length_a   4.85214769
_cell_length_b   6.28337108
_cell_length_c   16.58225416
_cell_angle_alpha   92.25132344
_cell_angle_beta   81.64605144
_cell_angle_gamma   67.14177057
_symmetry_Int_Tables_number   1
_chemical_formula_structural   V(CO3)2
_chemical_formula_sum   'V4 C8 O24'
_cell_volume   458.36477565
_cell_formula_units_Z   4
loop_
 _symmetry_equiv_pos_site_id
 _symmetry_equiv_pos_as_xyz
  1  'x, y, z'
loop_
 _atom_site_type_symbol
 _atom_site_label
 _atom_site_symmetry_multiplicity
 _atom_site_fract_x
 _atom_site_fract_y
 _atom_site_fract_z
 _atom_site_occupancy
  V  V0  1  0.12547300  0.12518800  0.62501300  1
  V  V1  1  0.37444000  0.37488700  0.87500700  1
  V  V2  1  0.62498500  0.62510400  0.12502000  1
  V  V3  1  0.87497800  0.87483700  0.37498600  1
  C  C0  1  0.96178100  0.88416600  0.19229500  1
  C  C1  1  0.21221600  0.13367400  0.44230600  1
  C  C2  1  0.46191300  0.38423200  0.69233700  1
  C  C3  1  0.71151400  0.63377900  0.94239300  1
  C  C4  1  0.28779200  0.36631900  0.05772200  1
  C  C5  1  0.53818200  0.61575000  0.30768100  1
  C  C6  1  0.78851900  0.86624600  0.55759500  1
  C  C7  1  0.03806900  0.11584900  0.80768700  1
  O  O0  1  0.53005800  0.38002000  0.07629000  1
  O  O1  1  0.78053100  0.62910000  0.32637800  1
  O  O2  1  0.03079200  0.87980300  0.57617100  1
  O  O3  1  0.28041100  0.12904400  0.82650200  1
  O  O4  1  0.71070500  0.71238600  0.01550100  1
  O  O5  1  0.96045900  0.96262600  0.26546100  1
  O  O6  1  0.21122400  0.21233500  0.51541200  1
  O  O7  1  0.46019500  0.46265300  0.76555700  1
  O  O8  1  0.19839400  0.83441400  0.13627200  1
  O  O9  1  0.44871900  0.08387900  0.38620300  1
  O  O10  1  0.69879100  0.33426900  0.63640700  1
  O  O11  1  0.94804100  0.58385900  0.88628100  1
  O  O12  1  0.05141700  0.41600200  0.11382800  1
  O  O13  1  0.30148300  0.66562100  0.36370600  1
  O  O14  1  0.55190100  0.91626300  0.61367800  1
  O  O15  1  0.80124000  0.16576000  0.86360500  1
  O  O16  1  0.53938200  0.53732200  0.23452100  1
  O  O17  1  0.78947300  0.78747600  0.48448700  1
  O  O18  1  0.03990000  0.03735100  0.73445500  1
  O  O19  1  0.28877600  0.28773500  0.98460500  1
  O  O20  1  0.71943700  0.87075500  0.17358900  1
  O  O21  1  0.97002200  0.11996600  0.42370800  1
  O  O22  1  0.21958500  0.37109400  0.67350900  1
  O  O23  1  0.46919700  0.62023700  0.92383000  1
loop_
_geom_bond_atom_site_label_1
_geom_bond_atom_site_label_2
_geom_bond_distance
_geom_bond_site_symmetry_2
C0 O5 1.289715 1_555
C0 O20 1.291103 1_555
C0 O8 1.291228 1_655
C1 O6 1.289680 1_555
C1 O21 1.290500 1_455
C1 O9 1.291595 1_555
C2 O7 1.289923 1_555
C2 O10 1.291048 1_555
C2 O22 1.291076 1_555
C3 O4 1.289844 1_556
C3 O23 1.290438 1_555
C3 O11 1.291660 1_555
C4 O19 1.289693 1_554
C4 O0 1.290638 1_555
C4 O12 1.291288 1_555
C5 O16 1.289720 1_555
C5 O1 1.290914 1_555
C5 O13 1.291437 1_555
C6 O17 1.289999 1_555
C6 O2 1.290348 1_655
C6 O14 1.291605 1_555
C7 O18 1.290120 1_555
C7 O15 1.290811 1_455
C7 O3 1.291208 1_555
O0 V2 1.948847 1_555
O1 V3 1.950153 1_555
O2 V0 1.950541 1_565
O3 V1 1.948798 1_555
O4 V2 1.951374 1_555
O5 V3 1.952525 1_555
O6 V0 1.952301 1_555
O7 V1 1.951584 1_555
O8 V2 1.949993 1_555
O9 V3 1.948342 1_545
O10 V0 1.949770 1_655
O11 V1 1.948682 1_655
O12 V2 1.949135 1_455
O13 V3 1.949474 1_455
O14 V0 1.948631 1_565
O15 V1 1.950284 1_555
O16 V2 1.952256 1_555
O17 V3 1.951106 1_555
O18 V0 1.951477 1_555
O19 V1 1.952190 1_555
O20 V2 1.949430 1_555
O21 V3 1.949379 1_545
O22 V0 1.949322 1_555
O23 V1 1.950441 1_555
