# generated using pymatgen
data_RbSb
_symmetry_space_group_name_H-M   'P 1'
_cell_length_a   7.26320687
_cell_length_b   7.38776068
_cell_length_c   12.96582661
_cell_angle_alpha   90.00000000
_cell_angle_beta   90.00000000
_cell_angle_gamma   90.00000000
_symmetry_Int_Tables_number   1
_chemical_formula_structural   RbSb
_chemical_formula_sum   'Rb8 Sb8'
_cell_volume   695.73113936
_cell_formula_units_Z   8
loop_
 _symmetry_equiv_pos_site_id
 _symmetry_equiv_pos_as_xyz
  1  'x, y, z'
loop_
 _atom_site_type_symbol
 _atom_site_label
 _atom_site_symmetry_multiplicity
 _atom_site_fract_x
 _atom_site_fract_y
 _atom_site_fract_z
 _atom_site_occupancy
  Rb  Rb0  1  0.07907410  0.59924863  0.96109697  1
  Rb  Rb1  1  0.57907410  0.40075137  0.53890303  1
  Rb  Rb2  1  0.42092590  0.09924863  0.03890303  1
  Rb  Rb3  1  0.92092590  0.90075137  0.46109697  1
  Rb  Rb4  1  0.34403219  0.85080132  0.66762876  1
  Rb  Rb5  1  0.84403219  0.14919868  0.83237124  1
  Rb  Rb6  1  0.15596781  0.35080132  0.33237124  1
  Rb  Rb7  1  0.65596781  0.64919868  0.16762876  1
  Sb  Sb0  1  0.84119527  0.69419690  0.71557174  1
  Sb  Sb1  1  0.34119527  0.30580310  0.78442826  1
  Sb  Sb2  1  0.65880473  0.19419690  0.28442826  1
  Sb  Sb3  1  0.15880473  0.80580310  0.21557174  1
  Sb  Sb4  1  0.57770221  0.57935017  0.86902055  1
  Sb  Sb5  1  0.07770221  0.42064983  0.63097945  1
  Sb  Sb6  1  0.92229779  0.07935017  0.13097845  1
  Sb  Sb7  1  0.42229779  0.92064983  0.36902055  1
loop_
_geom_bond_atom_site_label_1
_geom_bond_atom_site_label_2
_geom_bond_distance
_geom_bond_site_symmetry_2
Rb0 Sb3 3.681100 1_556
Rb0 Sb1 3.683955 1_555
Rb0 Sb0 3.689374 1_455
Rb0 Sb4 3.816170 1_555
Rb0 Sb4 3.835088 1_455
Rb1 Sb2 3.681100 1_555
Rb1 Sb0 3.683955 1_555
Rb1 Sb1 3.689374 1_555
Rb1 Sb5 3.816170 1_655
Rb1 Sb5 3.835088 1_555
Rb2 Sb1 3.681100 1_554
Rb2 Sb3 3.683955 1_545
Rb2 Sb2 3.689374 1_555
Rb2 Sb6 3.816166 1_455
Rb2 Sb6 3.835084 1_555
Rb3 Sb0 3.681100 1_555
Rb3 Sb2 3.683955 1_565
Rb3 Sb3 3.689374 1_655
Rb3 Sb7 3.816170 1_555
Rb3 Sb7 3.835088 1_655
Rb4 Sb1 3.686888 1_565
Rb4 Sb4 3.704131 1_555
Rb4 Sb5 3.750535 1_555
Rb4 Sb0 3.842430 1_555
Rb4 Sb0 3.881184 1_455
Rb4 Sb7 3.947088 1_555
Rb5 Sb0 3.686888 1_545
Rb5 Sb5 3.704131 1_655
Rb5 Sb4 3.750535 1_555
Rb5 Sb1 3.842430 1_655
Rb5 Sb1 3.881184 1_555
Rb5 Sb6 3.947075 1_556
Rb6 Sb3 3.686888 1_555
Rb6 Sb6 3.704140 1_455
Rb6 Sb7 3.750535 1_545
Rb6 Sb2 3.842430 1_455
Rb6 Sb2 3.881184 1_555
Rb6 Sb5 3.947088 1_555
Rb7 Sb2 3.686888 1_555
Rb7 Sb7 3.704131 1_555
Rb7 Sb6 3.750537 1_565
Rb7 Sb3 3.842430 1_555
Rb7 Sb3 3.881184 1_655
Rb7 Sb4 3.947088 1_554
Sb0 Sb5 2.870167 1_655
Sb0 Sb4 2.888080 1_555
Sb1 Sb4 2.870167 1_555
Sb1 Sb5 2.888080 1_555
Sb2 Sb7 2.870167 1_545
Sb2 Sb6 2.888089 1_555
Sb3 Sb6 2.870172 1_465
Sb3 Sb7 2.888080 1_555
