# generated using pymatgen
data_LiFe(PO3)3
_symmetry_space_group_name_H-M   'P 1'
_cell_length_a   8.49623200
_cell_length_b   8.62083100
_cell_length_c   8.97881000
_cell_angle_alpha   90.00000000
_cell_angle_beta   90.00000000
_cell_angle_gamma   90.00000000
_symmetry_Int_Tables_number   1
_chemical_formula_structural   LiFe(PO3)3
_chemical_formula_sum   'Li4 Fe4 P12 O36'
_cell_volume   657.64916922
_cell_formula_units_Z   4
loop_
 _symmetry_equiv_pos_site_id
 _symmetry_equiv_pos_as_xyz
  1  'x, y, z'
loop_
 _atom_site_type_symbol
 _atom_site_label
 _atom_site_symmetry_multiplicity
 _atom_site_fract_x
 _atom_site_fract_y
 _atom_site_fract_z
 _atom_site_occupancy
  Li  Li0  1  0.87000800  0.64199200  0.33541100  1
  Li  Li1  1  0.62999200  0.35800800  0.83541100  1
  Li  Li2  1  0.12999200  0.14199200  0.16458900  1
  Li  Li3  1  0.37000800  0.85800800  0.66458900  1
  Fe  Fe0  1  0.65250100  0.62861200  0.60987700  1
  Fe  Fe1  1  0.84749900  0.37138800  0.10987700  1
  Fe  Fe2  1  0.34749900  0.12861200  0.89012300  1
  Fe  Fe3  1  0.15250100  0.87138800  0.39012300  1
  P  P0  1  0.80038600  0.69182800  0.93268400  1
  P  P1  1  0.02869100  0.68315000  0.68107900  1
  P  P2  1  0.18855100  0.52218800  0.19139100  1
  P  P3  1  0.31144900  0.47781200  0.69139100  1
  P  P4  1  0.47130900  0.31685000  0.18107900  1
  P  P5  1  0.69961400  0.30817200  0.43268400  1
  P  P6  1  0.19961400  0.19182800  0.56731600  1
  P  P7  1  0.97130900  0.18315000  0.81892100  1
  P  P8  1  0.81144900  0.02218800  0.30860900  1
  P  P9  1  0.68855100  0.97781200  0.80860900  1
  P  P10  1  0.52869100  0.81685000  0.31892100  1
  P  P11  1  0.30038600  0.80817200  0.06731600  1
  O  O0  1  0.96075200  0.73179800  0.84127700  1
  O  O1  1  0.63049500  0.68773000  0.37829400  1
  O  O2  1  0.84215200  0.63285900  0.08478000  1
  O  O3  1  0.22843000  0.63513200  0.05115900  1
  O  O4  1  0.89693400  0.62818600  0.58184200  1
  O  O5  1  0.40952600  0.61169500  0.63523300  1
  O  O6  1  0.12717500  0.61691500  0.31939500  1
  O  O7  1  0.69405100  0.59207200  0.83817000  1
  O  O8  1  0.13895600  0.54101000  0.73326000  1
  O  O9  1  0.36104400  0.45899000  0.23326000  1
  O  O10  1  0.80594900  0.40792800  0.33817000  1
  O  O11  1  0.37282500  0.38308500  0.81939500  1
  O  O12  1  0.09047400  0.38830500  0.13523300  1
  O  O13  1  0.60306600  0.37181400  0.08184200  1
  O  O14  1  0.27157000  0.36486800  0.55115900  1
  O  O15  1  0.65784800  0.36714100  0.58478000  1
  O  O16  1  0.86950500  0.31227000  0.87829400  1
  O  O17  1  0.53924800  0.26820200  0.34127700  1
  O  O18  1  0.03924800  0.23179800  0.65872300  1
  O  O19  1  0.36950500  0.18773000  0.12170600  1
  O  O20  1  0.15784800  0.13285900  0.41522000  1
  O  O21  1  0.77157000  0.13513200  0.44884100  1
  O  O22  1  0.10306600  0.12818600  0.91815800  1
  O  O23  1  0.59047400  0.11169500  0.86476700  1
  O  O24  1  0.87282500  0.11691500  0.18060500  1
  O  O25  1  0.30594900  0.09207200  0.66183000  1
  O  O26  1  0.86104400  0.04101000  0.76674000  1
  O  O27  1  0.63895600  0.95899000  0.26674000  1
  O  O28  1  0.19405100  0.90792800  0.16183000  1
  O  O29  1  0.62717500  0.88308500  0.68060500  1
  O  O30  1  0.90952600  0.88830500  0.36476700  1
  O  O31  1  0.39693400  0.87181400  0.41815800  1
  O  O32  1  0.72843000  0.86486800  0.94884100  1
  O  O33  1  0.34215200  0.86714100  0.91522000  1
  O  O34  1  0.13049500  0.81227000  0.62170600  1
  O  O35  1  0.46075200  0.76820200  0.15872300  1
loop_
_geom_bond_atom_site_label_1
_geom_bond_atom_site_label_2
_geom_bond_distance
_geom_bond_site_symmetry_2
Li0 O10 2.090085 1_555
Li0 O1 2.108265 1_555
Li0 O30 2.165902 1_555
Li0 O6 2.200324 1_655
Li0 O4 2.227634 1_555
Li0 O2 2.264149 1_555
Li1 O7 2.090085 1_555
Li1 O16 2.108265 1_555
Li1 O23 2.165902 1_555
Li1 O11 2.200324 1_555
Li1 O13 2.227634 1_556
Li1 O15 2.264149 1_555
Li2 O28 2.090085 1_545
Li2 O19 2.108265 1_555
Li2 O12 2.165902 1_555
Li2 O24 2.200324 1_455
Li2 O22 2.227634 1_554
Li2 O20 2.264149 1_555
Li3 O25 2.090085 1_565
Li3 O34 2.108265 1_555
Li3 O5 2.165902 1_555
Li3 O29 2.200324 1_555
Li3 O31 2.227634 1_555
Li3 O33 2.264149 1_555
Fe0 O5 2.082002 1_555
Fe0 O4 2.091962 1_555
Fe0 O7 2.103694 1_555
Fe0 O1 2.149035 1_555
Fe0 O15 2.265788 1_555
Fe0 O29 2.293952 1_555
Fe1 O12 2.082002 1_655
Fe1 O13 2.091962 1_555
Fe1 O10 2.103694 1_555
Fe1 O16 2.149035 1_554
Fe1 O2 2.265788 1_555
Fe1 O24 2.293952 1_555
Fe2 O23 2.082002 1_555
Fe2 O22 2.091962 1_555
Fe2 O25 2.103694 1_555
Fe2 O19 2.149035 1_556
Fe2 O33 2.265788 1_545
Fe2 O11 2.293952 1_555
Fe3 O30 2.082002 1_455
Fe3 O31 2.091962 1_555
Fe3 O28 2.103694 1_555
Fe3 O34 2.149035 1_555
Fe3 O20 2.265788 1_565
Fe3 O6 2.293952 1_555
O0 P1 1.605625 1_655
O0 P0 1.627497 1_555
O1 P10 1.507108 1_555
O2 P0 1.499776 1_554
O3 P11 1.618677 1_555
O3 P2 1.627332 1_555
O4 P1 1.507182 1_655
O5 P3 1.510216 1_555
O6 P2 1.503246 1_555
O7 P0 1.508623 1_555
O8 P3 1.608093 1_555
O8 P1 1.612047 1_555
O9 P2 1.608093 1_555
O9 P4 1.612047 1_555
O10 P5 1.508623 1_555
O11 P3 1.503246 1_555
O12 P2 1.510216 1_555
O13 P4 1.507182 1_555
O14 P6 1.618677 1_555
O14 P3 1.627332 1_555
O15 P5 1.499776 1_555
O16 P7 1.507108 1_555
O17 P4 1.605625 1_555
O17 P5 1.627497 1_555
O18 P7 1.605625 1_455
O18 P6 1.627497 1_555
O19 P4 1.507108 1_555
O20 P6 1.499776 1_555
O21 P5 1.618677 1_555
O21 P8 1.627332 1_555
O22 P7 1.507182 1_455
O23 P9 1.510216 1_545
O24 P8 1.503246 1_555
O25 P6 1.508623 1_555
O26 P9 1.608093 1_545
O26 P7 1.612047 1_555
O27 P8 1.608093 1_565
O27 P10 1.612047 1_555
O28 P11 1.508623 1_555
O29 P9 1.503246 1_555
O30 P8 1.510216 1_565
O31 P10 1.507182 1_555
O32 P0 1.618677 1_555
O32 P9 1.627332 1_555
O33 P11 1.499776 1_556
O34 P1 1.507108 1_555
O35 P10 1.605625 1_555
O35 P11 1.627497 1_555
