# generated using pymatgen
data_NaCuSe
_symmetry_space_group_name_H-M   'P 1'
_cell_length_a   4.04521410
_cell_length_b   4.04521410
_cell_length_c   6.80534228
_cell_angle_alpha   90.00000000
_cell_angle_beta   90.00000000
_cell_angle_gamma   90.00000000
_symmetry_Int_Tables_number   1
_chemical_formula_structural   NaCuSe
_chemical_formula_sum   'Na2 Cu2 Se2'
_cell_volume   111.36096815
_cell_formula_units_Z   2
loop_
 _symmetry_equiv_pos_site_id
 _symmetry_equiv_pos_as_xyz
  1  'x, y, z'
loop_
 _atom_site_type_symbol
 _atom_site_label
 _atom_site_symmetry_multiplicity
 _atom_site_fract_x
 _atom_site_fract_y
 _atom_site_fract_z
 _atom_site_occupancy
  Na  Na0  1  0.25000000  0.25000000  0.16253155  1
  Na  Na1  1  0.75000000  0.75000000  0.83746845  1
  Cu  Cu0  1  0.75000000  0.25000000  0.50000000  1
  Cu  Cu1  1  0.25000000  0.75000000  0.50000000  1
  Se  Se0  1  0.25000000  0.25000000  0.72371544  1
  Se  Se1  1  0.75000000  0.75000000  0.27628456  1
loop_
_geom_bond_atom_site_label_1
_geom_bond_atom_site_label_2
_geom_bond_distance
_geom_bond_site_symmetry_2
Na0 Se1 2.963301 1_445
Na0 Se1 2.963301 1_555
Na0 Se1 2.963301 1_545
Na0 Se1 2.963301 1_455
Na0 Se0 2.986294 1_554
Na1 Se0 2.963301 1_655
Na1 Se0 2.963301 1_665
Na1 Se0 2.963301 1_555
Na1 Se0 2.963301 1_565
Na1 Se1 2.986294 1_556
Cu0 Se0 2.531566 1_555
Cu0 Se0 2.531566 1_655
Cu0 Se1 2.531566 1_555
Cu0 Se1 2.531566 1_545
Cu0 Na0 3.060271 1_555
Cu0 Na0 3.060271 1_655
Cu0 Na1 3.060271 1_545
Cu0 Na1 3.060271 1_555
Cu1 Se1 2.531566 1_455
Cu1 Se0 2.531566 1_555
Cu1 Se0 2.531566 1_565
Cu1 Se1 2.531566 1_555
Cu1 Na1 3.060271 1_455
Cu1 Na0 3.060271 1_565
Cu1 Na0 3.060271 1_555
Cu1 Na1 3.060271 1_555
