# generated using pymatgen
data_Li8Mn3Fe5(BO3)8
_symmetry_space_group_name_H-M   'P 1'
_cell_length_a   6.04358700
_cell_length_b   9.71222806
_cell_length_c   9.77455849
_cell_angle_alpha   65.01809172
_cell_angle_beta   79.57425298
_cell_angle_gamma   78.27261999
_symmetry_Int_Tables_number   1
_chemical_formula_structural   Li8Mn3Fe5(BO3)8
_chemical_formula_sum   'Li8 Mn3 Fe5 B8 O24'
_cell_volume   506.26771197
_cell_formula_units_Z   1
loop_
 _symmetry_equiv_pos_site_id
 _symmetry_equiv_pos_as_xyz
  1  'x, y, z'
loop_
 _atom_site_type_symbol
 _atom_site_label
 _atom_site_symmetry_multiplicity
 _atom_site_fract_x
 _atom_site_fract_y
 _atom_site_fract_z
 _atom_site_occupancy
  Li  Li0  1  0.04513300  0.46700800  0.81517100  1
  Li  Li1  1  0.04506700  0.96616800  0.31413500  1
  Li  Li2  1  0.45278200  0.03177700  0.18533800  1
  Li  Li3  1  0.54502900  0.46775900  0.31533800  1
  Li  Li4  1  0.45388600  0.53374600  0.68626600  1
  Li  Li5  1  0.54678600  0.96697300  0.81694300  1
  Li  Li6  1  0.95381700  0.03382000  0.68628000  1
  Li  Li7  1  0.95498500  0.53370900  0.18676800  1
  Mn  Mn0  1  0.31315100  0.29288200  0.62529400  1
  Mn  Mn1  1  0.81260700  0.29250500  0.12550400  1
  Mn  Mn2  1  0.81263800  0.79370900  0.62489000  1
  Fe  Fe0  1  0.18401800  0.20874800  0.37133300  1
  Fe  Fe1  1  0.31514800  0.78961400  0.12435800  1
  Fe  Fe2  1  0.18584100  0.70904100  0.87186200  1
  Fe  Fe3  1  0.68542300  0.20834700  0.87096900  1
  Fe  Fe4  1  0.68131700  0.71033700  0.37003600  1
  B  B0  1  0.33414300  0.36644900  0.03808000  1
  B  B1  1  0.16738000  0.13035300  0.96281300  1
  B  B2  1  0.16446100  0.63417600  0.46028800  1
  B  B3  1  0.33449600  0.86708000  0.53760700  1
  B  B4  1  0.66616700  0.13262900  0.46228900  1
  B  B5  1  0.83452700  0.36775300  0.53739300  1
  B  B6  1  0.83715700  0.86710000  0.03826700  1
  B  B7  1  0.66606700  0.63283300  0.96401300  1
  O  O0  1  0.17621400  0.01234500  0.10512000  1
  O  O1  1  0.01457900  0.24517600  0.56142400  1
  O  O2  1  0.01693100  0.74501900  0.06289200  1
  O  O3  1  0.16434200  0.36157000  0.15701800  1
  O  O4  1  0.17756900  0.51728800  0.60370900  1
  O  O5  1  0.51366900  0.24453300  0.06153800  1
  O  O6  1  0.16656600  0.86283000  0.65751500  1
  O  O7  1  0.34160400  0.13487100  0.84706100  1
  O  O8  1  0.33677000  0.63869400  0.34340600  1
  O  O9  1  0.48482900  0.25395800  0.43314600  1
  O  O10  1  0.32115000  0.48708300  0.89766100  1
  O  O11  1  0.32115600  0.98588500  0.39706300  1
  O  O12  1  0.67474600  0.01657900  0.60622000  1
  O  O13  1  0.67605500  0.51577000  0.10640900  1
  O  O14  1  0.51376400  0.74463700  0.56116600  1
  O  O15  1  0.66620700  0.36315900  0.65700800  1
  O  O16  1  0.66597300  0.86283700  0.15566100  1
  O  O17  1  0.84042200  0.13409800  0.34775500  1
  O  O18  1  0.48397700  0.75423800  0.93758900  1
  O  O19  1  0.82096500  0.48663100  0.39686900  1
  O  O20  1  0.83768700  0.63592100  0.84746200  1
  O  O21  1  0.98619300  0.25208400  0.93476100  1
  O  O22  1  0.98217200  0.75408900  0.43360900  1
  O  O23  1  0.82444000  0.98618200  0.89670700  1
loop_
_geom_bond_atom_site_label_1
_geom_bond_atom_site_label_2
_geom_bond_distance
_geom_bond_site_symmetry_2
Li0 O20 1.954687 1_455
Li0 O4 1.964417 1_555
Li0 O21 1.985209 1_455
Li0 O10 2.054897 1_555
Li1 O17 1.945080 1_465
Li1 O0 1.946233 1_565
Li1 O22 1.968941 1_455
Li1 O11 2.056294 1_555
Li2 O16 1.960552 1_545
Li2 O11 1.970673 1_545
Li2 O5 1.976198 1_555
Li2 O0 2.042491 1_555
Li3 O13 1.943065 1_555
Li3 O8 1.955986 1_555
Li3 O9 1.976347 1_555
Li3 O19 2.044102 1_555
Li4 O14 1.961388 1_555
Li4 O10 1.968597 1_555
Li4 O15 1.968867 1_555
Li4 O4 2.042212 1_555
Li5 O7 1.932558 1_565
Li5 O12 1.951769 1_565
Li5 O18 1.975455 1_555
Li5 O23 2.045009 1_555
Li6 O23 1.953760 1_545
Li6 O1 1.966260 1_655
Li6 O6 1.971219 1_645
Li6 O12 2.046504 1_555
Li7 O19 1.959070 1_555
Li7 O2 1.966588 1_655
Li7 O3 1.974368 1_655
Li7 O13 2.050182 1_555
Mn0 O7 2.073951 1_555
Mn0 O4 2.101015 1_555
Mn0 O9 2.117055 1_555
Mn0 O1 2.202806 1_555
Mn0 O15 2.474849 1_555
Mn1 O17 2.078107 1_555
Mn1 O13 2.098642 1_555
Mn1 O21 2.115114 1_554
Mn1 O5 2.206598 1_555
Mn1 O3 2.460641 1_655
Mn2 O20 2.076822 1_555
Mn2 O12 2.097911 1_565
Mn2 O22 2.108956 1_555
Mn2 O14 2.210345 1_555
Mn2 O6 2.477718 1_655
Fe0 O3 1.999398 1_555
Fe0 O11 2.078843 1_545
Fe0 O1 2.084591 1_555
Fe0 O9 2.192947 1_555
Fe0 O17 2.411886 1_455
Fe1 O8 2.030369 1_555
Fe1 O18 2.050616 1_554
Fe1 O0 2.096442 1_565
Fe1 O2 2.173905 1_555
Fe1 O16 2.475141 1_555
Fe2 O6 2.002119 1_555
Fe2 O10 2.068389 1_555
Fe2 O2 2.089732 1_556
Fe2 O18 2.197871 1_555
Fe2 O20 2.433218 1_455
Fe3 O15 2.002225 1_555
Fe3 O23 2.075080 1_545
Fe3 O5 2.091796 1_556
Fe3 O21 2.195724 1_555
Fe3 O7 2.408509 1_555
Fe4 O16 1.996526 1_555
Fe4 O14 2.080976 1_555
Fe4 O19 2.086865 1_555
Fe4 O22 2.195163 1_555
Fe4 O8 2.413716 1_555
B0 O10 1.380590 1_554
B0 O3 1.395836 1_555
B0 O5 1.403661 1_555
B1 O0 1.380832 1_556
B1 O7 1.391549 1_555
B1 O21 1.407340 1_455
B2 O4 1.385528 1_555
B2 O8 1.391850 1_555
B2 O22 1.401401 1_455
B3 O11 1.374217 1_555
B3 O6 1.396809 1_555
B3 O14 1.405793 1_555
B4 O12 1.384048 1_555
B4 O17 1.388709 1_555
B4 O9 1.405440 1_555
B5 O19 1.374469 1_555
B5 O15 1.395609 1_555
B5 O1 1.409340 1_655
B6 O23 1.381572 1_554
B6 O16 1.391535 1_555
B6 O2 1.405035 1_655
B7 O13 1.378191 1_556
B7 O20 1.389486 1_555
B7 O18 1.409332 1_555
