# generated using pymatgen
data_BaLi2NiO3
_symmetry_space_group_name_H-M   'P 1'
_cell_length_a   6.90857400
_cell_length_b   7.14629604
_cell_length_c   8.01122303
_cell_angle_alpha   90.01098696
_cell_angle_beta   89.99829779
_cell_angle_gamma   90.00070865
_symmetry_Int_Tables_number   1
_chemical_formula_structural   BaLi2NiO3
_chemical_formula_sum   'Ba4 Li8 Ni4 O12'
_cell_volume   395.51980182
_cell_formula_units_Z   4
loop_
 _symmetry_equiv_pos_site_id
 _symmetry_equiv_pos_as_xyz
  1  'x, y, z'
loop_
 _atom_site_type_symbol
 _atom_site_label
 _atom_site_symmetry_multiplicity
 _atom_site_fract_x
 _atom_site_fract_y
 _atom_site_fract_z
 _atom_site_occupancy
  Ba  Ba0  1  0.24999500  0.65379200  0.03790400  1
  Ba  Ba1  1  0.75000900  0.15353500  0.46214900  1
  Ba  Ba2  1  0.25003200  0.84647900  0.53783600  1
  Ba  Ba3  1  0.74996900  0.34617000  0.96211200  1
  Li  Li0  1  0.03533700  0.04896600  0.14164200  1
  Li  Li1  1  0.46465600  0.04893300  0.14174200  1
  Li  Li2  1  0.96442200  0.54899100  0.35842600  1
  Li  Li3  1  0.53550100  0.54890300  0.35836400  1
  Li  Li4  1  0.03552700  0.45109600  0.64165100  1
  Li  Li5  1  0.46447500  0.45107000  0.64158600  1
  Li  Li6  1  0.53534200  0.95104000  0.85832900  1
  Li  Li7  1  0.96472000  0.95106600  0.85825800  1
  Ni  Ni0  1  0.24993400  0.31657500  0.31213500  1
  Ni  Ni1  1  0.74996100  0.68338300  0.68791200  1
  Ni  Ni2  1  0.75005600  0.81616200  0.18760000  1
  Ni  Ni3  1  0.25005900  0.18383200  0.81235000  1
  O  O0  1  0.75006100  0.99551000  0.01357600  1
  O  O1  1  0.24994700  0.49582100  0.48626700  1
  O  O2  1  0.74995400  0.50422900  0.51377600  1
  O  O3  1  0.25005000  0.00448600  0.98638400  1
  O  O4  1  0.50214100  0.81261800  0.27955600  1
  O  O5  1  0.99802500  0.81265500  0.27957200  1
  O  O6  1  0.00177800  0.31268300  0.22045300  1
  O  O7  1  0.49799000  0.31262600  0.22049500  1
  O  O8  1  0.50182900  0.68732800  0.77956200  1
  O  O9  1  0.99808800  0.68733700  0.77955400  1
  O  O10  1  0.00213100  0.18736600  0.72040300  1
  O  O11  1  0.49801100  0.18734900  0.72040500  1
loop_
_geom_bond_atom_site_label_1
_geom_bond_atom_site_label_2
_geom_bond_distance
_geom_bond_site_symmetry_2
Ba0 O3 2.540001 1_564
Ba0 O8 2.714359 1_554
Ba0 O9 2.714819 1_454
Ba0 O5 2.840142 1_455
Ba0 O4 2.840748 1_555
Ba1 O2 2.539984 1_555
Ba1 O11 2.714670 1_555
Ba1 O10 2.715293 1_655
Ba1 O6 2.840539 1_655
Ba1 O7 2.841292 1_555
Ba2 O1 2.539654 1_555
Ba2 O5 2.714840 1_455
Ba2 O4 2.715338 1_555
Ba2 O8 2.840918 1_555
Ba2 O9 2.841382 1_455
Ba3 O0 2.539688 1_546
Ba3 O6 2.714294 1_656
Ba3 O7 2.715257 1_556
Ba3 O11 2.840238 1_555
Ba3 O10 2.841011 1_655
Li0 O3 1.961684 1_554
Li0 O6 2.000911 1_555
Li0 O5 2.034700 1_445
Li0 O0 2.254493 1_445
Li1 O3 1.961645 1_554
Li1 O7 2.000422 1_555
Li1 O4 2.034385 1_545
Li1 O0 2.255552 1_545
Li2 O2 1.961271 1_555
Li2 O5 2.000921 1_555
Li2 O6 2.034561 1_655
Li2 O1 2.254908 1_655
Li3 O2 1.961468 1_555
Li3 O4 2.000964 1_555
Li3 O7 2.034064 1_555
Li3 O1 2.255141 1_555
Li4 O1 1.961150 1_555
Li4 O10 2.000942 1_555
Li4 O9 2.033932 1_455
Li4 O2 2.255277 1_455
Li5 O1 1.961476 1_555
Li5 O11 2.001172 1_555
Li5 O8 2.034279 1_555
Li5 O2 2.254442 1_555
Li6 O0 1.961698 1_556
Li6 O8 2.000728 1_555
Li6 O11 2.034692 1_565
Li6 O3 2.254493 1_565
Li7 O0 1.961665 1_556
Li7 O9 2.000569 1_555
Li7 O10 2.034395 1_665
Li7 O3 2.254995 1_665
Ni0 O7 1.864538 1_555
Ni0 O6 1.865339 1_555
Ni0 O1 1.893723 1_555
Ni1 O9 1.865035 1_555
Ni1 O8 1.865052 1_555
Ni1 O2 1.893302 1_555
Ni2 O4 1.864603 1_555
Ni2 O5 1.865034 1_555
Ni2 O0 1.893941 1_555
Ni3 O10 1.864697 1_555
Ni3 O11 1.864801 1_555
Ni3 O3 1.893991 1_555
