# generated using pymatgen
data_Zr5N5O2
_symmetry_space_group_name_H-M   'P 1'
_cell_length_a   5.52583513
_cell_length_b   5.52583513
_cell_length_c   9.25826218
_cell_angle_alpha   75.04193980
_cell_angle_beta   75.04193980
_cell_angle_gamma   32.74625665
_symmetry_Int_Tables_number   1
_chemical_formula_structural   Zr5N5O2
_chemical_formula_sum   'Zr5 N5 O2'
_cell_volume   147.28032574
_cell_formula_units_Z   1
loop_
 _symmetry_equiv_pos_site_id
 _symmetry_equiv_pos_as_xyz
  1  'x, y, z'
loop_
 _atom_site_type_symbol
 _atom_site_label
 _atom_site_symmetry_multiplicity
 _atom_site_fract_x
 _atom_site_fract_y
 _atom_site_fract_z
 _atom_site_occupancy
  Zr  Zr0  1  0.12100400  0.12100400  0.07110300  1
  Zr  Zr1  1  0.70652400  0.70652400  0.69028000  1
  Zr  Zr2  1  0.30117000  0.30117000  0.30734800  1
  Zr  Zr3  1  0.89594600  0.89594600  0.91805400  1
  Zr  Zr4  1  0.00420600  0.00420600  0.49537700  1
  N  N0  1  0.51303200  0.51303200  0.98824700  1
  N  N1  1  0.66043700  0.66043700  0.44212000  1
  N  N2  1  0.74490000  0.74490000  0.14301500  1
  N  N3  1  0.27189500  0.27189500  0.84799500  1
  N  N4  1  0.34733600  0.34733600  0.55101400  1
  O  O0  1  0.05134700  0.05134700  0.70717900  1
  O  O1  1  0.96012300  0.96012300  0.28181500  1
loop_
_geom_bond_atom_site_label_1
_geom_bond_atom_site_label_2
_geom_bond_distance
_geom_bond_site_symmetry_2
N0 Zr0 2.190459 1_566
N0 Zr0 2.190459 1_656
N0 Zr3 2.196403 1_455
N0 Zr3 2.196403 1_545
N1 Zr4 2.230319 1_565
N1 Zr4 2.230319 1_655
N1 Zr2 2.282169 1_565
N1 Zr2 2.282169 1_655
N1 Zr1 2.474177 1_555
N2 Zr0 2.250808 1_655
N2 Zr0 2.250808 1_565
N2 Zr3 2.260138 1_554
N2 Zr2 2.363384 1_655
N2 Zr2 2.363384 1_565
N3 Zr3 2.244182 1_455
N3 Zr3 2.244182 1_545
N3 Zr0 2.246865 1_556
N3 Zr1 2.362946 1_455
N3 Zr1 2.362946 1_545
N4 Zr4 2.235512 1_655
N4 Zr4 2.235512 1_565
N4 Zr1 2.298340 1_455
N4 Zr1 2.298340 1_545
N4 Zr2 2.433720 1_555
O0 Zr4 2.149986 1_555
O0 Zr3 2.189960 1_445
O0 Zr1 2.240480 1_545
O0 Zr1 2.240480 1_455
O1 Zr4 2.150612 1_665
O1 Zr0 2.219292 1_665
O1 Zr2 2.260234 1_565
O1 Zr2 2.260234 1_655
