# generated using pymatgen
data_Ti3Co2Sb(PO4)6
_symmetry_space_group_name_H-M   'P 1'
_cell_length_a   8.65275191
_cell_length_b   8.65275191
_cell_length_c   8.65275134
_cell_angle_alpha   61.00494134
_cell_angle_beta   61.00494134
_cell_angle_gamma   61.00494096
_symmetry_Int_Tables_number   1
_chemical_formula_structural   Ti3Co2Sb(PO4)6
_chemical_formula_sum   'Ti3 Co2 Sb1 P6 O24'
_cell_volume   468.45573365
_cell_formula_units_Z   1
loop_
 _symmetry_equiv_pos_site_id
 _symmetry_equiv_pos_as_xyz
  1  'x, y, z'
loop_
 _atom_site_type_symbol
 _atom_site_label
 _atom_site_symmetry_multiplicity
 _atom_site_fract_x
 _atom_site_fract_y
 _atom_site_fract_z
 _atom_site_occupancy
  Ti  Ti0  1  0.64410000  0.64410000  0.64410000  1
  Ti  Ti1  1  0.85642000  0.85642000  0.85642000  1
  Ti  Ti2  1  0.35570700  0.35570700  0.35570700  1
  Co  Co0  1  0.99940000  0.99940000  0.99940000  1
  Co  Co1  1  0.50083900  0.50083900  0.50083900  1
  Sb  Sb0  1  0.14539500  0.14539500  0.14539500  1
  P  P0  1  0.94922100  0.24824400  0.55720600  1
  P  P1  1  0.55720600  0.94922100  0.24824400  1
  P  P2  1  0.24824400  0.55720600  0.94922100  1
  P  P3  1  0.73791800  0.46595800  0.04250900  1
  P  P4  1  0.46595800  0.04250900  0.73791800  1
  P  P5  1  0.04250900  0.73791800  0.46595800  1
  O  O0  1  0.49457500  0.12232700  0.30467300  1
  O  O1  1  0.30467300  0.49457500  0.12232700  1
  O  O2  1  0.12232700  0.30467300  0.49457500  1
  O  O3  1  0.94101500  0.08662400  0.74788400  1
  O  O4  1  0.96189300  0.18752200  0.41275600  1
  O  O5  1  0.76005800  0.41047300  0.58382300  1
  O  O6  1  0.74788400  0.94101500  0.08662400  1
  O  O7  1  0.58382300  0.76005800  0.41047300  1
  O  O8  1  0.80870400  0.62301100  0.99878600  1
  O  O9  1  0.41047300  0.58382300  0.76005800  1
  O  O10  1  0.89266600  0.27510300  0.04292000  1
  O  O11  1  0.62301100  0.99878600  0.80870400  1
  O  O12  1  0.41275600  0.96189300  0.18752200  1
  O  O13  1  0.08662400  0.74788400  0.94101500  1
  O  O14  1  0.58086800  0.44824000  0.23674800  1
  O  O15  1  0.18752200  0.41275600  0.96189300  1
  O  O16  1  0.44824000  0.23674800  0.58086800  1
  O  O17  1  0.27510300  0.04292000  0.89266600  1
  O  O18  1  0.23674800  0.58086800  0.44824000  1
  O  O19  1  0.99878600  0.80870400  0.62301100  1
  O  O20  1  0.04292000  0.89266600  0.27510300  1
  O  O21  1  0.88891200  0.65883600  0.52867600  1
  O  O22  1  0.65883600  0.52867600  0.88891200  1
  O  O23  1  0.52867600  0.88891200  0.65883600  1
loop_
_geom_bond_atom_site_label_1
_geom_bond_atom_site_label_2
_geom_bond_distance
_geom_bond_site_symmetry_2
Co0 O3 2.159863 1_565
Co0 O13 2.159863 1_655
Co0 O6 2.159863 1_556
Co0 O20 2.254683 1_656
Co0 O10 2.254683 1_566
Co0 O17 2.254683 1_665
Co1 O14 2.253233 1_555
Co1 O18 2.253233 1_555
Co1 O16 2.253233 1_555
Co1 O9 2.339793 1_555
Co1 O5 2.339793 1_555
Co1 O7 2.339793 1_555
O0 P1 1.562425 1_545
O0 Ti2 1.927284 1_555
O1 P2 1.562425 1_554
O1 Ti2 1.927284 1_555
O2 P0 1.562425 1_455
O2 Ti2 1.927284 1_555
O3 P0 1.558428 1_555
O3 Ti1 2.078209 1_545
O4 P0 1.515997 1_555
O4 Sb0 2.168219 1_655
O5 P0 1.556619 1_555
O5 Ti0 1.978314 1_555
O6 P1 1.558428 1_555
O6 Ti1 2.078209 1_554
O7 P1 1.556619 1_555
O7 Ti0 1.978314 1_555
O8 P3 1.564883 1_556
O8 Ti1 1.915784 1_555
O9 P2 1.556619 1_555
O9 Ti0 1.978314 1_555
O10 P3 1.541202 1_555
O10 Sb0 2.315946 1_655
O11 P4 1.564883 1_565
O11 Ti1 1.915784 1_555
O12 P1 1.515998 1_555
O12 Sb0 2.168219 1_565
O13 P2 1.558428 1_555
O13 Ti1 2.078209 1_455
O14 P3 1.559771 1_555
O14 Ti2 2.065292 1_555
O15 P2 1.515998 1_555
O15 Sb0 2.168219 1_556
O16 P4 1.559771 1_555
O16 Ti2 2.065292 1_555
O17 P4 1.541202 1_555
O17 Sb0 2.315946 1_556
O18 P5 1.559771 1_555
O18 Ti2 2.065292 1_555
O19 P5 1.564883 1_655
O19 Ti1 1.915784 1_555
O20 P5 1.541202 1_555
O20 Sb0 2.315946 1_565
O21 P5 1.533463 1_655
O21 Ti0 1.894276 1_555
O22 P3 1.533463 1_556
O22 Ti0 1.894276 1_555
O23 P4 1.533463 1_565
O23 Ti0 1.894276 1_555
