# generated using pymatgen
data_Na9Mn15O32
_symmetry_space_group_name_H-M   'P 1'
_cell_length_a   6.04028400
_cell_length_b   6.17798287
_cell_length_c   20.13536813
_cell_angle_alpha   89.91935019
_cell_angle_beta   97.15926901
_cell_angle_gamma   117.98174332
_symmetry_Int_Tables_number   1
_chemical_formula_structural   Na9Mn15O32
_chemical_formula_sum   'Na9 Mn15 O32'
_cell_volume   656.97651106
_cell_formula_units_Z   1
loop_
 _symmetry_equiv_pos_site_id
 _symmetry_equiv_pos_as_xyz
  1  'x, y, z'
loop_
 _atom_site_type_symbol
 _atom_site_label
 _atom_site_symmetry_multiplicity
 _atom_site_fract_x
 _atom_site_fract_y
 _atom_site_fract_z
 _atom_site_occupancy
  Na  Na0  1  0.81884500  0.16550700  0.96482600  1
  Na  Na1  1  0.25040100  0.12326300  0.87559400  1
  Na  Na2  1  0.67992400  0.07843900  0.78449700  1
  Na  Na3  1  0.31463100  0.39468100  0.72183400  1
  Na  Na4  1  0.80185400  0.65201000  0.46690200  1
  Na  Na5  1  0.69918600  0.60234700  0.28417400  1
  Na  Na6  1  0.19671300  0.34857500  0.53459000  1
  Na  Na7  1  0.28957800  0.88680300  0.21581100  1
  Na  Na8  1  0.19989000  0.86526400  0.02783800  1
  Mn  Mn0  1  0.25035400  0.62258000  0.87526700  1
  Mn  Mn1  1  0.99504900  0.72792200  0.75161900  1
  Mn  Mn2  1  0.75679300  0.36794700  0.62693000  1
  Mn  Mn3  1  0.51251700  0.52436000  0.99866400  1
  Mn  Mn4  1  0.75596700  0.87151900  0.62750100  1
  Mn  Mn5  1  0.25247000  0.86769800  0.62662000  1
  Mn  Mn6  1  0.75027000  0.62264800  0.87479000  1
  Mn  Mn7  1  0.49702300  0.99702300  0.50079500  1
  Mn  Mn8  1  0.24603600  0.37976000  0.12249200  1
  Mn  Mn9  1  0.24904800  0.12623800  0.37499800  1
  Mn  Mn10  1  0.74873100  0.12586000  0.37521100  1
  Mn  Mn11  1  0.74395700  0.87877100  0.12389200  1
  Mn  Mn12  1  0.99366600  0.24585900  0.24875900  1
  Mn  Mn13  1  0.24826700  0.62503000  0.37456700  1
  Mn  Mn14  1  0.74391300  0.37612500  0.12248600  1
  O  O0  1  0.20053800  0.39341100  0.94534000  1
  O  O1  1  0.59857800  0.77412500  0.93042600  1
  O  O2  1  0.90378200  0.47201700  0.81858600  1
  O  O3  1  0.08760800  0.76483400  0.92167900  1
  O  O4  1  0.30277700  0.85495100  0.80701800  1
  O  O5  1  0.86726800  0.86165600  0.80843000  1
  O  O6  1  0.09987900  0.57995800  0.67932000  1
  O  O7  1  0.63484000  0.38526600  0.94156300  1
  O  O8  1  0.91461100  0.73051400  0.57559500  1
  O  O9  1  0.08920600  0.99082900  0.68574600  1
  O  O10  1  0.58211800  0.25266700  0.43332000  1
  O  O11  1  0.41157300  0.47916100  0.82866700  1
  O  O12  1  0.58978300  0.01138700  0.67649200  1
  O  O13  1  0.34926800  0.42163900  0.32700000  1
  O  O14  1  0.40824300  0.15487800  0.57091100  1
  O  O15  1  0.85188300  0.16202400  0.57856900  1
  O  O16  1  0.67412700  0.57852200  0.68035400  1
  O  O17  1  0.14695900  0.82863000  0.42195600  1
  O  O18  1  0.58880300  0.84170100  0.43052100  1
  O  O19  1  0.41545400  0.99172600  0.32326900  1
  O  O20  1  0.64222800  0.57640400  0.17418800  1
  O  O21  1  0.91422800  0.99811400  0.31792800  1
  O  O22  1  0.08302000  0.26167900  0.42663700  1
  O  O23  1  0.42081100  0.74316900  0.56901200  1
  O  O24  1  0.41702900  0.68349500  0.06992900  1
  O  O25  1  0.90758500  0.40771900  0.31908900  1
  O  O26  1  0.64330200  0.08459200  0.17441700  1
  O  O27  1  0.07680200  0.07835600  0.17986800  1
  O  O28  1  0.07635900  0.49777200  0.17853500  1
  O  O29  1  0.85280300  0.17642800  0.07349500  1
  O  O30  1  0.41561700  0.26378300  0.06584200  1
  O  O31  1  0.83410600  0.67262200  0.06783900  1
loop_
_geom_bond_atom_site_label_1
_geom_bond_atom_site_label_2
_geom_bond_distance
_geom_bond_site_symmetry_2
Na0 O7 2.140655 1_555
Na0 O0 2.151661 1_655
Na0 O29 2.170236 1_556
Na0 O1 2.202872 1_545
Na1 O11 2.211291 1_555
Na1 O3 2.215808 1_545
Na1 O4 2.315569 1_545
Na1 O0 2.330693 1_555
Na1 O7 2.342395 1_555
Na1 O5 2.347968 1_445
Na2 O5 2.142630 1_545
Na2 O4 2.146113 1_545
Na2 O12 2.166382 1_555
Na2 O2 2.213574 1_555
Na3 O11 2.155230 1_555
Na3 O16 2.199516 1_555
Na3 O6 2.199859 1_555
Na3 O9 2.275433 1_545
Na4 O17 2.165174 1_655
Na4 O18 2.178042 1_555
Na4 O8 2.193269 1_555
Na4 O10 2.239161 1_555
Na5 O13 2.166707 1_555
Na5 O25 2.173001 1_555
Na5 O20 2.192690 1_555
Na5 O21 2.220757 1_555
Na6 O15 2.157558 1_455
Na6 O22 2.184015 1_555
Na6 O14 2.190603 1_555
Na6 O23 2.220340 1_555
Na7 O26 2.178063 1_565
Na7 O27 2.183810 1_565
Na7 O19 2.193470 1_555
Na7 O28 2.204086 1_555
Na8 O3 2.159068 1_554
Na8 O24 2.191333 1_555
Na8 O31 2.218138 1_455
Na8 O30 2.256424 1_565
Mn0 O11 1.911427 1_555
Mn0 O3 1.911554 1_555
Mn0 O4 1.930282 1_555
Mn0 O0 1.945826 1_555
Mn0 O1 2.026568 1_555
Mn0 O2 2.032316 1_455
Mn1 O5 1.846078 1_555
Mn1 O4 1.852565 1_655
Mn1 O2 1.995751 1_555
Mn1 O9 2.008980 1_655
Mn1 O6 2.032851 1_655
Mn1 O16 2.073664 1_555
Mn2 O15 1.930069 1_555
Mn2 O16 1.961194 1_555
Mn2 O6 2.008695 1_655
Mn2 O14 2.061358 1_555
Mn2 O12 2.241756 1_555
Mn2 O8 2.286887 1_555
Mn3 O7 1.848406 1_555
Mn3 O0 1.850939 1_555
Mn3 O1 1.989584 1_555
Mn3 O30 2.017638 1_556
Mn3 O24 2.025010 1_556
Mn3 O31 2.052294 1_556
Mn4 O15 1.920691 1_565
Mn4 O12 1.946926 1_565
Mn4 O8 1.950632 1_555
Mn4 O16 1.984823 1_555
Mn4 O9 1.998028 1_655
Mn4 O23 2.004018 1_555
Mn5 O12 1.934683 1_565
Mn5 O8 1.948179 1_455
Mn5 O6 1.958713 1_555
Mn5 O9 1.991899 1_555
Mn5 O14 1.995573 1_565
Mn5 O23 2.000476 1_555
Mn6 O3 1.912620 1_655
Mn6 O11 1.913283 1_555
Mn6 O7 1.926954 1_555
Mn6 O5 1.927623 1_555
Mn6 O1 2.008404 1_555
Mn6 O2 2.020095 1_555
Mn7 O14 1.978681 1_565
Mn7 O18 1.982136 1_555
Mn7 O10 2.002680 1_565
Mn7 O23 2.008053 1_555
Mn7 O17 2.275327 1_555
Mn7 O15 2.281093 1_565
Mn8 O30 1.961113 1_555
Mn8 O28 1.961411 1_555
Mn8 O24 2.038693 1_555
Mn8 O27 2.085443 1_555
Mn8 O29 2.193764 1_455
Mn8 O20 2.222811 1_555
Mn9 O17 1.931654 1_545
Mn9 O13 1.932674 1_555
Mn9 O19 1.957802 1_545
Mn9 O22 1.958773 1_555
Mn9 O21 1.989540 1_445
Mn9 O10 1.993931 1_555
Mn10 O22 1.935166 1_655
Mn10 O19 1.935282 1_545
Mn10 O18 1.981578 1_545
Mn10 O25 1.981593 1_555
Mn10 O21 1.995695 1_545
Mn10 O10 2.007855 1_555
Mn11 O24 1.941381 1_555
Mn11 O29 1.967269 1_565
Mn11 O26 1.976044 1_565
Mn11 O27 1.986355 1_665
Mn11 O20 1.991320 1_555
Mn11 O31 2.000093 1_555
Mn12 O27 1.978009 1_655
Mn12 O25 1.987738 1_555
Mn12 O21 1.995999 1_545
Mn12 O28 2.027645 1_655
Mn12 O26 2.224430 1_555
Mn12 O13 2.290717 1_655
Mn13 O13 1.933086 1_555
Mn13 O17 1.933468 1_555
Mn13 O25 2.030679 1_455
Mn13 O18 2.033477 1_555
Mn13 O22 2.299181 1_555
Mn13 O19 2.307712 1_555
Mn14 O26 1.957702 1_555
Mn14 O29 1.963254 1_555
Mn14 O30 1.965156 1_555
Mn14 O20 1.966753 1_555
Mn14 O28 1.972861 1_655
Mn14 O31 2.017467 1_555
