# generated using pymatgen
data_MnF3
_symmetry_space_group_name_H-M   'P 1'
_cell_length_a   12.48549500
_cell_length_b   12.48549500
_cell_length_c   3.90742200
_cell_angle_alpha   90.00000000
_cell_angle_beta   90.00000000
_cell_angle_gamma   90.00000000
_symmetry_Int_Tables_number   1
_chemical_formula_structural   MnF3
_chemical_formula_sum   'Mn10 F30'
_cell_volume   609.11858070
_cell_formula_units_Z   10
loop_
 _symmetry_equiv_pos_site_id
 _symmetry_equiv_pos_as_xyz
  1  'x, y, z'
loop_
 _atom_site_type_symbol
 _atom_site_label
 _atom_site_symmetry_multiplicity
 _atom_site_fract_x
 _atom_site_fract_y
 _atom_site_fract_z
 _atom_site_occupancy
  Mn  Mn0  1  0.50000000  0.00000000  0.50000000  1
  Mn  Mn1  1  0.20764300  0.07784100  0.50000000  1
  Mn  Mn2  1  0.92215900  0.20764300  0.50000000  1
  Mn  Mn3  1  0.42215900  0.29235700  0.50000000  1
  Mn  Mn4  1  0.70764300  0.42215900  0.50000000  1
  Mn  Mn5  1  0.00000000  0.50000000  0.50000000  1
  Mn  Mn6  1  0.29235700  0.57784100  0.50000000  1
  Mn  Mn7  1  0.57784100  0.70764300  0.50000000  1
  Mn  Mn8  1  0.07784100  0.79235700  0.50000000  1
  Mn  Mn9  1  0.79235700  0.92215900  0.50000000  1
  F  F0  1  0.50000000  0.00000000  0.00000000  1
  F  F1  1  0.65358300  0.99809300  0.50000000  1
  F  F2  1  0.85589500  0.06121800  0.50000000  1
  F  F3  1  0.20827200  0.07900200  0.00000000  1
  F  F4  1  0.06121800  0.14410500  0.50000000  1
  F  F5  1  0.49809300  0.15358300  0.50000000  1
  F  F6  1  0.92099800  0.20827200  0.00000000  1
  F  F7  1  0.28367000  0.21633000  0.50000000  1
  F  F8  1  0.78367000  0.28367000  0.50000000  1
  F  F9  1  0.42099800  0.29172800  0.00000000  1
  F  F10  1  0.99809300  0.34641700  0.50000000  1
  F  F11  1  0.56121800  0.35589500  0.50000000  1
  F  F12  1  0.70827200  0.42099800  0.00000000  1
  F  F13  1  0.35589500  0.43878200  0.50000000  1
  F  F14  1  0.15358300  0.50190700  0.50000000  1
  F  F15  1  0.00000000  0.50000000  0.00000000  1
  F  F16  1  0.84641700  0.49809300  0.50000000  1
  F  F17  1  0.64410500  0.56121800  0.50000000  1
  F  F18  1  0.29172800  0.57900200  0.00000000  1
  F  F19  1  0.43878200  0.64410500  0.50000000  1
  F  F20  1  0.00190700  0.65358300  0.50000000  1
  F  F21  1  0.57900200  0.70827200  0.00000000  1
  F  F22  1  0.21633000  0.71633000  0.50000000  1
  F  F23  1  0.71633000  0.78367000  0.50000000  1
  F  F24  1  0.07900200  0.79172800  0.00000000  1
  F  F25  1  0.50190700  0.84641700  0.50000000  1
  F  F26  1  0.93878200  0.85589500  0.50000000  1
  F  F27  1  0.79172800  0.92099800  0.00000000  1
  F  F28  1  0.14410500  0.93878200  0.50000000  1
  F  F29  1  0.34641700  0.00190700  0.50000000  1
loop_
_geom_bond_atom_site_label_1
_geom_bond_atom_site_label_2
_geom_bond_distance
_geom_bond_site_symmetry_2
F0 Mn0 1.953711 1_554
F0 Mn0 1.953711 1_555
F1 Mn0 1.917708 1_565
F1 Mn9 1.975085 1_555
F2 Mn9 1.908872 1_545
F2 Mn2 2.006680 1_555
F3 Mn1 1.953781 1_554
F3 Mn1 1.953781 1_555
F4 Mn2 1.908872 1_455
F4 Mn1 2.006680 1_555
F5 Mn0 1.917708 1_555
F5 Mn3 1.975085 1_555
F6 Mn2 1.953781 1_555
F6 Mn2 1.953781 1_554
F7 Mn3 1.972523 1_555
F7 Mn1 1.972523 1_555
F8 Mn2 1.972523 1_555
F8 Mn4 1.972523 1_555
F9 Mn3 1.953781 1_554
F9 Mn3 1.953781 1_555
F10 Mn5 1.917708 1_655
F10 Mn2 1.975085 1_555
F11 Mn3 1.908872 1_555
F11 Mn4 2.006680 1_555
F12 Mn4 1.953781 1_554
F12 Mn4 1.953781 1_555
F13 Mn6 1.908872 1_555
F13 Mn3 2.006680 1_555
F14 Mn5 1.917708 1_555
F14 Mn6 1.975085 1_555
F15 Mn5 1.953711 1_554
F15 Mn5 1.953711 1_555
F16 Mn5 1.917708 1_655
F16 Mn4 1.975085 1_555
F17 Mn4 1.908872 1_555
F17 Mn7 2.006680 1_555
F18 Mn6 1.953781 1_555
F18 Mn6 1.953781 1_554
F19 Mn7 1.908872 1_555
F19 Mn6 2.006680 1_555
F20 Mn5 1.917708 1_555
F20 Mn8 1.975085 1_555
F21 Mn7 1.953781 1_554
F21 Mn7 1.953781 1_555
F22 Mn8 1.972523 1_555
F22 Mn6 1.972523 1_555
F23 Mn9 1.972523 1_555
F23 Mn7 1.972523 1_555
F24 Mn8 1.953781 1_555
F24 Mn8 1.953781 1_554
F25 Mn0 1.917708 1_565
F25 Mn7 1.975085 1_555
F26 Mn8 1.908872 1_655
F26 Mn9 2.006680 1_555
F27 Mn9 1.953781 1_555
F27 Mn9 1.953781 1_554
F28 Mn1 1.908872 1_565
F28 Mn8 2.006680 1_555
F29 Mn0 1.917708 1_555
F29 Mn1 1.975085 1_555
