# generated using pymatgen
data_Li24MnCr11O36
_symmetry_space_group_name_H-M   'P 1'
_cell_length_a   5.07960000
_cell_length_b   10.58652554
_cell_length_c   13.02582052
_cell_angle_alpha   112.85563378
_cell_angle_beta   96.68796653
_cell_angle_gamma   95.61801201
_symmetry_Int_Tables_number   1
_chemical_formula_structural   Li24MnCr11O36
_chemical_formula_sum   'Li24 Mn1 Cr11 O36'
_cell_volume   633.19078762
_cell_formula_units_Z   1
loop_
 _symmetry_equiv_pos_site_id
 _symmetry_equiv_pos_as_xyz
  1  'x, y, z'
loop_
 _atom_site_type_symbol
 _atom_site_label
 _atom_site_symmetry_multiplicity
 _atom_site_fract_x
 _atom_site_fract_y
 _atom_site_fract_z
 _atom_site_occupancy
  Li  Li0  1  0.77969200  0.06036500  0.06072400  1
  Li  Li1  1  0.66741100  0.33378100  0.08374000  1
  Li  Li2  1  0.88690300  0.27368700  0.27316800  1
  Li  Li3  1  0.33389600  0.16799700  0.16723600  1
  Li  Li4  1  0.55307500  0.60602100  0.10746000  1
  Li  Li5  1  0.00006400  0.00016400  0.25019600  1
  Li  Li6  1  0.99924900  0.49983800  0.00095600  1
  Li  Li7  1  0.77941000  0.06063500  0.56024600  1
  Li  Li8  1  0.44679900  0.39335000  0.39269400  1
  Li  Li9  1  0.66633200  0.33325200  0.58307100  1
  Li  Li10  1  0.66501300  0.83319900  0.33312300  1
  Li  Li11  1  0.11509500  0.72521500  0.22619700  1
  Li  Li12  1  0.88722000  0.27269000  0.77282400  1
  Li  Li13  1  0.33385400  0.16645200  0.66639000  1
  Li  Li14  1  0.33391400  0.66572900  0.41590700  1
  Li  Li15  1  0.55281800  0.60659600  0.60648900  1
  Li  Li16  1  0.00050300  0.49991500  0.50038200  1
  Li  Li17  1  0.21985100  0.94019800  0.44008400  1
  Li  Li18  1  0.44770500  0.39438300  0.89358500  1
  Li  Li19  1  0.66718500  0.83325200  0.83294300  1
  Li  Li20  1  0.11304700  0.72696800  0.72702400  1
  Li  Li21  1  0.33342100  0.66650500  0.91671100  1
  Li  Li22  1  0.99937600  0.99962900  0.74961600  1
  Li  Li23  1  0.21934900  0.93966500  0.93958300  1
  Mn  Mn0  1  0.22397900  0.44495300  0.19405900  1
  Cr  Cr0  1  0.89070000  0.78084200  0.03078600  1
  Cr  Cr1  1  0.55588300  0.11373000  0.36419700  1
  Cr  Cr2  1  0.78224400  0.55466300  0.30351500  1
  Cr  Cr3  1  0.44360800  0.88628700  0.13554400  1
  Cr  Cr4  1  0.10891900  0.21921200  0.46928600  1
  Cr  Cr5  1  0.88573100  0.77944400  0.53147500  1
  Cr  Cr6  1  0.55790800  0.11494300  0.86424900  1
  Cr  Cr7  1  0.77644000  0.55247500  0.80262400  1
  Cr  Cr8  1  0.22355800  0.44741800  0.69742200  1
  Cr  Cr9  1  0.43969800  0.88586600  0.63680900  1
  Cr  Cr10  1  0.10987300  0.21852400  0.96860400  1
  O  O0  1  0.43243500  0.13681200  0.99971300  1
  O  O1  1  0.64211600  0.07624100  0.21176500  1
  O  O2  1  0.90960500  0.52550200  0.16368400  1
  O  O3  1  0.31107100  0.40927700  0.04550600  1
  O  O4  1  0.88599200  0.04535000  0.40843700  1
  O  O5  1  0.02352300  0.25767200  0.12125200  1
  O  O6  1  0.54448000  0.37932500  0.24045800  1
  O  O7  1  0.78021300  0.28747700  0.42436900  1
  O  O8  1  0.76534700  0.80374800  0.16644800  1
  O  O9  1  0.23435600  0.19591600  0.33338400  1
  O  O10  1  0.21971100  0.71273600  0.07524800  1
  O  O11  1  0.45144400  0.62256800  0.26032100  1
  O  O12  1  0.43239300  0.13758100  0.50052300  1
  O  O13  1  0.97071600  0.74138000  0.37686500  1
  O  O14  1  0.11374500  0.95474800  0.09139000  1
  O  O15  1  0.69346000  0.59093800  0.45626000  1
  O  O16  1  0.09408400  0.47297000  0.33419200  1
  O  O17  1  0.64311200  0.07675800  0.71258200  1
  O  O18  1  0.35824800  0.92416100  0.28820900  1
  O  O19  1  0.90130200  0.52937100  0.66663400  1
  O  O20  1  0.30876900  0.40934000  0.54521000  1
  O  O21  1  0.88651400  0.04573100  0.90907000  1
  O  O22  1  0.02447100  0.25710100  0.62135200  1
  O  O23  1  0.57040000  0.86292400  0.50090700  1
  O  O24  1  0.55274500  0.37885400  0.74184800  1
  O  O25  1  0.78068100  0.28794200  0.92469500  1
  O  O26  1  0.76388100  0.80546700  0.66855400  1
  O  O27  1  0.23503000  0.19699600  0.83355200  1
  O  O28  1  0.21659400  0.71214700  0.57494000  1
  O  O29  1  0.44711500  0.62100100  0.75807600  1
  O  O30  1  0.97536900  0.74280400  0.87857800  1
  O  O31  1  0.11505100  0.95345900  0.59102800  1
  O  O32  1  0.69137900  0.59045600  0.95469500  1
  O  O33  1  0.09895300  0.47051800  0.83347200  1
  O  O34  1  0.35817700  0.92416600  0.78832300  1
  O  O35  1  0.56779600  0.86271600  0.99954200  1
loop_
_geom_bond_atom_site_label_1
_geom_bond_atom_site_label_2
_geom_bond_distance
_geom_bond_site_symmetry_2
Li0 O35 2.058085 1_544
Li0 O21 2.061334 1_554
Li0 O1 2.115131 1_555
Li0 O5 2.122597 1_655
Li0 O14 2.202183 1_645
Li0 O0 2.202410 1_554
Li1 O2 2.070813 1_555
Li1 O6 2.093060 1_555
Li1 O0 2.099096 1_554
Li1 O25 2.099948 1_554
Li1 O5 2.131999 1_655
Li1 O3 2.132050 1_555
Li2 O7 2.057854 1_555
Li2 O16 2.063493 1_655
Li2 O5 2.123299 1_655
Li2 O1 2.125036 1_555
Li2 O9 2.207206 1_655
Li2 O6 2.244109 1_555
Li3 O1 2.062799 1_555
Li3 O5 2.064080 1_555
Li3 O6 2.166869 1_555
Li3 O9 2.194100 1_555
Li3 O14 2.199767 1_545
Li3 O0 2.201893 1_554
Li4 O11 2.061071 1_555
Li4 O8 2.061644 1_555
Li4 O3 2.112463 1_555
Li4 O32 2.138674 1_554
Li4 O10 2.212944 1_555
Li4 O2 2.240775 1_555
Li5 O9 2.087448 1_555
Li5 O4 2.092777 1_455
Li5 O8 2.094001 1_445
Li5 O14 2.098482 1_545
Li5 O18 2.142235 1_545
Li5 O1 2.143157 1_455
Li6 O32 2.062129 1_554
Li6 O3 2.068853 1_655
Li6 O2 2.139117 1_555
Li6 O25 2.185404 1_554
Li6 O10 2.197609 1_655
Li6 O33 2.207803 1_654
Li7 O23 2.054893 1_545
Li7 O4 2.060945 1_555
Li7 O22 2.117858 1_655
Li7 O17 2.127427 1_555
Li7 O12 2.197702 1_555
Li7 O31 2.219869 1_645
Li8 O6 2.053147 1_555
Li8 O9 2.059094 1_555
Li8 O15 2.128548 1_555
Li8 O20 2.133881 1_555
Li8 O7 2.205207 1_555
Li8 O16 2.231105 1_555
Li9 O12 2.085533 1_555
Li9 O19 2.092055 1_555
Li9 O7 2.097165 1_555
Li9 O24 2.097685 1_555
Li9 O20 2.139469 1_555
Li9 O22 2.143873 1_655
Li10 O13 2.049523 1_555
Li10 O18 2.053486 1_555
Li10 O11 2.166219 1_555
Li10 O4 2.192021 1_565
Li10 O8 2.198533 1_555
Li10 O23 2.201481 1_555
Li11 O10 2.054571 1_555
Li11 O2 2.062829 1_455
Li11 O13 2.125504 1_455
Li11 O18 2.133207 1_555
Li11 O11 2.204384 1_555
Li11 O8 2.218771 1_455
Li12 O33 2.059808 1_655
Li12 O25 2.061731 1_555
Li12 O17 2.112141 1_555
Li12 O22 2.120423 1_655
Li12 O27 2.198479 1_655
Li12 O24 2.208854 1_555
Li13 O17 2.060858 1_555
Li13 O22 2.062215 1_555
Li13 O12 2.186508 1_555
Li13 O24 2.190344 1_555
Li13 O31 2.195224 1_545
Li13 O27 2.199352 1_555
Li14 O11 2.070826 1_555
Li14 O16 2.074904 1_555
Li14 O23 2.104918 1_555
Li14 O28 2.107603 1_555
Li14 O15 2.149785 1_555
Li14 O13 2.165835 1_455
Li15 O29 2.058990 1_555
Li15 O26 2.066278 1_555
Li15 O15 2.112810 1_555
Li15 O20 2.121919 1_555
Li15 O19 2.207599 1_555
Li15 O28 2.213880 1_555
Li16 O15 2.051116 1_455
Li16 O20 2.056282 1_555
Li16 O28 2.184015 1_555
Li16 O16 2.186336 1_555
Li16 O19 2.191163 1_455
Li16 O7 2.193125 1_455
Li17 O31 2.052541 1_555
Li17 O12 2.057719 1_565
Li17 O18 2.126756 1_555
Li17 O13 2.144550 1_455
Li17 O4 2.201902 1_465
Li17 O23 2.219845 1_555
Li18 O24 2.056371 1_555
Li18 O27 2.058404 1_555
Li18 O32 2.111464 1_555
Li18 O3 2.126391 1_556
Li18 O33 2.201768 1_555
Li18 O25 2.205222 1_555
Li19 O30 2.059064 1_555
Li19 O34 2.060520 1_555
Li19 O26 2.167240 1_555
Li19 O29 2.191280 1_555
Li19 O21 2.191724 1_565
Li19 O35 2.195826 1_555
Li20 O19 2.058078 1_455
Li20 O28 2.059880 1_555
Li20 O30 2.121736 1_455
Li20 O34 2.123865 1_555
Li20 O29 2.206127 1_555
Li20 O26 2.209533 1_455
Li21 O33 2.089691 1_555
Li21 O35 2.090895 1_555
Li21 O10 2.094216 1_556
Li21 O29 2.096322 1_555
Li21 O32 2.141411 1_555
Li21 O30 2.143816 1_455
Li22 O26 2.075889 1_555
Li22 O31 2.099057 1_655
Li22 O27 2.103529 1_665
Li22 O21 2.103697 1_565
Li22 O17 2.136895 1_565
Li22 O34 2.144322 1_655
Li23 O0 2.057034 1_565
Li23 O14 2.059603 1_556
Li23 O30 2.118765 1_455
Li23 O34 2.121649 1_555
Li23 O21 2.199780 1_465
Li23 O35 2.204756 1_555
Mn0 O11 1.922815 1_555
Mn0 O3 1.935732 1_555
Mn0 O16 1.937394 1_555
Mn0 O5 1.945839 1_555
Mn0 O2 1.953283 1_455
Mn0 O6 1.953688 1_555
Cr0 O8 1.883177 1_555
Cr0 O14 1.884303 1_655
Cr0 O32 1.970961 1_554
Cr0 O30 1.972382 1_554
Cr0 O10 1.995791 1_655
Cr0 O35 2.001033 1_554
Cr1 O12 1.884863 1_555
Cr1 O7 1.886205 1_555
Cr1 O18 1.961146 1_545
Cr1 O1 1.978955 1_555
Cr1 O9 1.995583 1_555
Cr1 O4 2.001125 1_555
Cr2 O13 1.919898 1_555
Cr2 O2 1.925657 1_555
Cr2 O6 1.929892 1_555
Cr2 O16 1.950899 1_655
Cr2 O15 1.989687 1_555
Cr2 O11 1.996837 1_555
Cr3 O35 1.883155 1_554
Cr3 O10 1.883575 1_555
Cr3 O1 1.966024 1_565
Cr3 O18 1.979580 1_555
Cr3 O8 1.999034 1_555
Cr3 O14 2.000182 1_555
Cr4 O4 1.883582 1_455
Cr4 O9 1.885441 1_555
Cr4 O20 1.969697 1_555
Cr4 O22 1.970484 1_555
Cr4 O7 1.997412 1_455
Cr4 O12 2.001915 1_555
Cr5 O26 1.885715 1_555
Cr5 O31 1.900433 1_655
Cr5 O15 1.942408 1_555
Cr5 O23 1.976654 1_555
Cr5 O28 1.994705 1_655
Cr5 O13 2.002688 1_555
Cr6 O25 1.876485 1_555
Cr6 O0 1.883317 1_555
Cr6 O17 1.966394 1_555
Cr6 O34 1.974823 1_545
Cr6 O27 2.000088 1_555
Cr6 O21 2.002172 1_555
Cr7 O24 1.883471 1_555
Cr7 O19 1.885572 1_555
Cr7 O30 1.969705 1_555
Cr7 O32 1.971492 1_555
Cr7 O33 1.998468 1_655
Cr7 O29 1.999977 1_555
Cr8 O29 1.882893 1_555
Cr8 O33 1.885708 1_555
Cr8 O22 1.969959 1_555
Cr8 O20 1.973341 1_555
Cr8 O19 1.997134 1_455
Cr8 O24 1.999084 1_555
Cr9 O28 1.882519 1_555
Cr9 O23 1.898640 1_555
Cr9 O34 1.957690 1_555
Cr9 O31 1.980047 1_555
Cr9 O17 1.982407 1_565
Cr9 O26 1.999086 1_555
Cr10 O21 1.876598 1_455
Cr10 O27 1.878348 1_555
Cr10 O3 1.977877 1_556
Cr10 O5 1.978974 1_556
Cr10 O0 1.998075 1_555
Cr10 O25 2.001919 1_455
