# generated using pymatgen
data_Sn2P2O7
_symmetry_space_group_name_H-M   'P 1'
_cell_length_a   6.98613200
_cell_length_b   7.04389705
_cell_length_c   13.01765237
_cell_angle_alpha   83.33325966
_cell_angle_beta   89.96986367
_cell_angle_gamma   89.99300467
_symmetry_Int_Tables_number   1
_chemical_formula_structural   Sn2P2O7
_chemical_formula_sum   'Sn8 P8 O28'
_cell_volume   636.26174751
_cell_formula_units_Z   4
loop_
 _symmetry_equiv_pos_site_id
 _symmetry_equiv_pos_as_xyz
  1  'x, y, z'
loop_
 _atom_site_type_symbol
 _atom_site_label
 _atom_site_symmetry_multiplicity
 _atom_site_fract_x
 _atom_site_fract_y
 _atom_site_fract_z
 _atom_site_occupancy
  Sn  Sn0  1  0.90997500  0.20949900  0.86428700  1
  Sn  Sn1  1  0.74537700  0.82101600  0.64956700  1
  Sn  Sn2  1  0.66695400  0.19746100  0.13822900  1
  Sn  Sn3  1  0.66051600  0.61871900  0.37733100  1
  Sn  Sn4  1  0.33948400  0.38128100  0.62266900  1
  Sn  Sn5  1  0.33304600  0.80253900  0.86177100  1
  Sn  Sn6  1  0.25462300  0.17898400  0.35043300  1
  Sn  Sn7  1  0.09002500  0.79050100  0.13571300  1
  P  P0  1  0.83260600  0.69692000  0.91545700  1
  P  P1  1  0.81608700  0.29944400  0.58788100  1
  P  P2  1  0.76811400  0.09940300  0.40044400  1
  P  P3  1  0.57638100  0.70758200  0.09964400  1
  P  P4  1  0.42361900  0.29241800  0.90035600  1
  P  P5  1  0.23188600  0.90059700  0.59955600  1
  P  P6  1  0.18391300  0.70055600  0.41211900  1
  P  P7  1  0.16739400  0.30308000  0.08454300  1
  O  O0  1  0.99755300  0.81278700  0.95879900  1
  O  O1  1  0.99216500  0.36750000  0.64097400  1
  O  O2  1  0.91169100  0.52705000  0.86628500  1
  O  O3  1  0.91278800  0.07828800  0.31488300  1
  O  O4  1  0.88882500  0.20983900  0.48455400  1
  O  O5  1  0.69871200  0.82921700  0.84514300  1
  O  O6  1  0.70068600  0.14164300  0.65381100  1
  O  O7  1  0.70145000  0.90845800  0.46059700  1
  O  O8  1  0.70368700  0.86362100  0.13888300  1
  O  O9  1  0.70515900  0.60868700  0.01423100  1
  O  O10  1  0.67819800  0.46564200  0.54846700  1
  O  O11  1  0.60279800  0.20440500  0.95935200  1
  O  O12  1  0.59944700  0.23020100  0.36207100  1
  O  O13  1  0.52998700  0.54346600  0.18077800  1
  O  O14  1  0.47001300  0.45653400  0.81922200  1
  O  O15  1  0.40055300  0.76979900  0.63792900  1
  O  O16  1  0.39720200  0.79559500  0.04064800  1
  O  O17  1  0.32180200  0.53435800  0.45153300  1
  O  O18  1  0.29484100  0.39131300  0.98576900  1
  O  O19  1  0.29631300  0.13637900  0.86111700  1
  O  O20  1  0.29855000  0.09154200  0.53940300  1
  O  O21  1  0.29931400  0.85835700  0.34618900  1
  O  O22  1  0.30128800  0.17078300  0.15485700  1
  O  O23  1  0.11117500  0.79016100  0.51544600  1
  O  O24  1  0.08721200  0.92171200  0.68511700  1
  O  O25  1  0.08830900  0.47295000  0.13371500  1
  O  O26  1  0.00783500  0.63250000  0.35902600  1
  O  O27  1  0.00244700  0.18721300  0.04120100  1
loop_
_geom_bond_atom_site_label_1
_geom_bond_atom_site_label_2
_geom_bond_distance
_geom_bond_site_symmetry_2
O0 P0 1.555689 1_555
O0 Sn7 2.379793 1_656
O0 Sn5 2.666829 1_655
O1 P1 1.516117 1_555
O1 Sn4 2.438807 1_655
O2 P0 1.524472 1_555
O2 Sn0 2.239999 1_555
O3 P2 1.523634 1_555
O3 Sn6 2.549136 1_655
O4 P1 1.631609 1_555
O4 P2 1.647428 1_555
O5 P0 1.543969 1_555
O5 Sn5 2.568695 1_555
O5 Sn1 2.573849 1_555
O6 P1 1.549214 1_555
O6 Sn1 2.286913 1_545
O7 P2 1.547356 1_565
O7 Sn3 2.436397 1_555
O7 Sn1 2.484719 1_555
O8 P3 1.546303 1_555
O8 Sn2 2.364498 1_565
O8 Sn7 2.748837 1_655
O9 P0 1.626557 1_554
O9 P3 1.646072 1_555
O10 P1 1.556436 1_555
O10 Sn3 2.362933 1_555
O10 Sn4 2.598112 1_555
O11 P4 1.559278 1_555
O11 Sn2 2.366455 1_556
O11 Sn0 2.474852 1_555
O12 P2 1.542831 1_555
O12 Sn6 2.443278 1_555
O13 P3 1.507703 1_555
O13 Sn2 2.734002 1_555
O14 P4 1.507703 1_555
O14 Sn5 2.734002 1_555
O15 P5 1.542831 1_555
O15 Sn1 2.443278 1_555
O16 P3 1.559278 1_555
O16 Sn5 2.366455 1_554
O16 Sn7 2.474852 1_555
O17 P6 1.556436 1_555
O17 Sn4 2.362933 1_555
O17 Sn3 2.598112 1_555
O18 P7 1.626557 1_556
O18 P4 1.646072 1_555
O19 P4 1.546303 1_555
O19 Sn5 2.364498 1_545
O19 Sn0 2.748837 1_455
O20 P5 1.547356 1_545
O20 Sn4 2.436397 1_555
O20 Sn6 2.484719 1_555
O21 P6 1.549214 1_555
O21 Sn6 2.286913 1_565
O22 P7 1.543969 1_555
O22 Sn2 2.568695 1_555
O22 Sn6 2.573849 1_555
O23 P6 1.631609 1_555
O23 P5 1.647428 1_555
O24 P5 1.523634 1_555
O24 Sn1 2.549136 1_455
O25 P7 1.524472 1_555
O25 Sn7 2.239999 1_555
O26 P6 1.516117 1_555
O26 Sn3 2.438807 1_455
O27 P7 1.555689 1_555
O27 Sn0 2.379793 1_454
O27 Sn2 2.666829 1_455
