# generated using pymatgen
data_CoO2
_symmetry_space_group_name_H-M   'P 1'
_cell_length_a   2.85526651
_cell_length_b   2.85526651
_cell_length_c   16.74571900
_cell_angle_alpha   90.00000000
_cell_angle_beta   90.00000000
_cell_angle_gamma   114.43099907
_symmetry_Int_Tables_number   1
_chemical_formula_structural   CoO2
_chemical_formula_sum   'Co2 O4'
_cell_volume   124.29623776
_cell_formula_units_Z   2
loop_
 _symmetry_equiv_pos_site_id
 _symmetry_equiv_pos_as_xyz
  1  'x, y, z'
loop_
 _atom_site_type_symbol
 _atom_site_label
 _atom_site_symmetry_multiplicity
 _atom_site_fract_x
 _atom_site_fract_y
 _atom_site_fract_z
 _atom_site_occupancy
  Co  Co0  1  0.50000000  0.50000000  0.50000000  1
  Co  Co1  1  0.00000000  0.00000000  0.00000000  1
  O  O0  1  0.81035000  0.18965000  0.55846300  1
  O  O1  1  0.18965000  0.81035000  0.44153700  1
  O  O2  1  0.68965000  0.31035000  0.05846300  1
  O  O3  1  0.31035000  0.68965000  0.94153700  1
loop_
_geom_bond_atom_site_label_1
_geom_bond_atom_site_label_2
_geom_bond_distance
_geom_bond_site_symmetry_2
Co0 O0 1.782820 1_555
Co0 O1 1.782820 1_555
Co0 O0 2.043964 1_565
Co0 O0 2.043964 1_455
Co0 O1 2.043964 1_545
Co0 O1 2.043964 1_655
Co1 O2 1.782820 1_455
Co1 O3 1.782820 1_544
Co1 O2 2.043964 1_445
Co1 O2 2.043964 1_555
Co1 O3 2.043964 1_444
Co1 O3 2.043964 1_554
