# generated using pymatgen
data_Li4Co3Ni(PO4)4
_symmetry_space_group_name_H-M   'P 1'
_cell_length_a   5.96513900
_cell_length_b   4.74575700
_cell_length_c   10.23215505
_cell_angle_alpha   89.96373711
_cell_angle_beta   90.00000000
_cell_angle_gamma   90.00000000
_symmetry_Int_Tables_number   1
_chemical_formula_structural   Li4Co3Ni(PO4)4
_chemical_formula_sum   'Li4 Co3 Ni1 P4 O16'
_cell_volume   289.66304418
_cell_formula_units_Z   1
loop_
 _symmetry_equiv_pos_site_id
 _symmetry_equiv_pos_as_xyz
  1  'x, y, z'
loop_
 _atom_site_type_symbol
 _atom_site_label
 _atom_site_symmetry_multiplicity
 _atom_site_fract_x
 _atom_site_fract_y
 _atom_site_fract_z
 _atom_site_occupancy
  Li  Li0  1  0.24939800  0.00021200  0.99955600  1
  Li  Li1  1  0.75060200  0.00021200  0.99955600  1
  Li  Li2  1  0.75072700  0.50013700  0.50122200  1
  Li  Li3  1  0.24927300  0.50013700  0.50122200  1
  Co  Co0  1  0.00000000  0.02573100  0.27746800  1
  Co  Co1  1  0.00000000  0.47836400  0.77823100  1
  Co  Co2  1  0.50000000  0.52206700  0.22147300  1
  Ni  Ni0  1  0.50000000  0.98026600  0.72345700  1
  P  P0  1  0.50000000  0.08379600  0.40784200  1
  P  P1  1  0.50000000  0.41368700  0.90467000  1
  P  P2  1  0.00000000  0.58688600  0.09332600  1
  P  P3  1  0.00000000  0.91508500  0.59413700  1
  O  O0  1  0.50000000  0.20301100  0.54924900  1
  O  O1  1  0.29411200  0.22319800  0.33610500  1
  O  O2  1  0.70588800  0.22319800  0.33610500  1
  O  O3  1  0.00000000  0.23816800  0.59846700  1
  O  O4  1  0.00000000  0.26343200  0.09806200  1
  O  O5  1  0.29402800  0.27249600  0.83384800  1
  O  O6  1  0.70597200  0.27249600  0.83384800  1
  O  O7  1  0.50000000  0.29592600  0.04671600  1
  O  O8  1  0.00000000  0.70628000  0.95217700  1
  O  O9  1  0.79364200  0.72576000  0.16478800  1
  O  O10  1  0.20635800  0.72576000  0.16478800  1
  O  O11  1  0.50000000  0.73708500  0.89932500  1
  O  O12  1  0.50000000  0.76100400  0.40174600  1
  O  O13  1  0.79322100  0.77566200  0.66496400  1
  O  O14  1  0.20677900  0.77566200  0.66496400  1
  O  O15  1  0.00000000  0.79428300  0.45268900  1
loop_
_geom_bond_atom_site_label_1
_geom_bond_atom_site_label_2
_geom_bond_distance
_geom_bond_site_symmetry_2
Li0 O8 2.096411 1_545
Li0 O7 2.106622 1_556
Li0 O5 2.147733 1_555
Li0 O10 2.148950 1_546
Li0 O4 2.188879 1_556
Li0 O11 2.201688 1_545
Li1 O8 2.096411 1_645
Li1 O7 2.106622 1_556
Li1 O6 2.147733 1_555
Li1 O9 2.148950 1_546
Li1 O4 2.188879 1_656
Li1 O11 2.201688 1_545
Li2 O15 2.098907 1_655
Li2 O0 2.113255 1_555
Li2 O13 2.140994 1_555
Li2 O2 2.157804 1_555
Li2 O3 2.178342 1_655
Li2 O12 2.191800 1_555
Li3 O15 2.098907 1_555
Li3 O0 2.113255 1_555
Li3 O14 2.140994 1_555
Li3 O1 2.157804 1_555
Li3 O3 2.178342 1_555
Li3 O12 2.191800 1_555
Co0 O1 2.077713 1_555
Co0 O2 2.077713 1_455
Co0 O15 2.102006 1_545
Co0 O4 2.154009 1_555
Co0 O9 2.207543 1_445
Co0 O10 2.207543 1_545
Co1 O8 2.083317 1_555
Co1 O6 2.086602 1_455
Co1 O5 2.086602 1_555
Co1 O3 2.164566 1_555
Co1 O13 2.203002 1_455
Co1 O14 2.203002 1_555
Co2 O9 2.082864 1_555
Co2 O10 2.082864 1_555
Co2 O7 2.086062 1_555
Co2 O12 2.165858 1_555
Co2 O2 2.212185 1_555
Co2 O1 2.212185 1_555
Ni0 O0 2.071823 1_565
Ni0 O13 2.088338 1_555
Ni0 O14 2.088338 1_555
Ni0 O11 2.137171 1_555
Ni0 O5 2.170434 1_565
Ni0 O6 2.170434 1_565
O0 P0 1.553912 1_555
O1 P0 1.576135 1_555
O2 P0 1.576135 1_555
O3 P3 1.533941 1_545
O4 P2 1.535768 1_555
O5 P1 1.576170 1_555
O6 P1 1.576170 1_555
O7 P1 1.556849 1_554
O8 P2 1.551096 1_556
O9 P2 1.576353 1_655
O10 P2 1.576353 1_555
O11 P1 1.535708 1_555
O12 P0 1.533201 1_565
O13 P3 1.576021 1_655
O14 P3 1.576021 1_555
O15 P3 1.557064 1_555
