# generated using pymatgen
data_LiFe3P4O15
_symmetry_space_group_name_H-M   'P 1'
_cell_length_a   10.81182200
_cell_length_b   6.44177100
_cell_length_c   17.45581898
_cell_angle_alpha   88.79990181
_cell_angle_beta   90.00000000
_cell_angle_gamma   90.00000000
_symmetry_Int_Tables_number   1
_chemical_formula_structural   LiFe3P4O15
_chemical_formula_sum   'Li4 Fe12 P16 O60'
_cell_volume   1215.48365881
_cell_formula_units_Z   4
loop_
 _symmetry_equiv_pos_site_id
 _symmetry_equiv_pos_as_xyz
  1  'x, y, z'
loop_
 _atom_site_type_symbol
 _atom_site_label
 _atom_site_symmetry_multiplicity
 _atom_site_fract_x
 _atom_site_fract_y
 _atom_site_fract_z
 _atom_site_occupancy
  Li  Li0  1  0.80531400  0.82979100  0.00640700  1
  Li  Li1  1  0.59319800  0.40587800  0.41954100  1
  Li  Li2  1  0.40680200  0.40587800  0.91954100  1
  Li  Li3  1  0.19468600  0.82979100  0.50640700  1
  Fe  Fe0  1  0.25777100  0.60538300  0.15869000  1
  Fe  Fe1  1  0.50872000  0.80990000  0.75162100  1
  Fe  Fe2  1  0.23944500  0.08139200  0.36497900  1
  Fe  Fe3  1  0.76055500  0.08139200  0.86497900  1
  Fe  Fe4  1  0.49128000  0.80990000  0.25162100  1
  Fe  Fe5  1  0.77476800  0.08716300  0.35510600  1
  Fe  Fe6  1  0.74222900  0.60538300  0.65869000  1
  Fe  Fe7  1  0.99164100  0.31414800  0.24587600  1
  Fe  Fe8  1  0.25686500  0.58154100  0.63495500  1
  Fe  Fe9  1  0.74313500  0.58154100  0.13495500  1
  Fe  Fe10  1  0.22523200  0.08716300  0.85510600  1
  Fe  Fe11  1  0.00835900  0.31414800  0.74587600  1
  P  P0  1  0.48634500  0.65371200  0.05427900  1
  P  P1  1  0.01100600  0.46749000  0.07349800  1
  P  P2  1  0.22637800  0.58036600  0.32151100  1
  P  P3  1  0.98899400  0.46749000  0.57349800  1
  P  P4  1  0.51365500  0.65371200  0.55427900  1
  P  P5  1  0.75409300  0.59184600  0.29567300  1
  P  P6  1  0.74673600  0.09607600  0.70420700  1
  P  P7  1  0.25326400  0.09607600  0.20420700  1
  P  P8  1  0.01865100  0.16945500  0.94024800  1
  P  P9  1  0.50868100  0.94686800  0.42407600  1
  P  P10  1  0.72652900  0.08318100  0.18044500  1
  P  P11  1  0.98134900  0.16945500  0.44024800  1
  P  P12  1  0.49131900  0.94686800  0.92407600  1
  P  P13  1  0.77362200  0.58036600  0.82151100  1
  P  P14  1  0.27347100  0.08318100  0.68044500  1
  P  P15  1  0.24590700  0.59184600  0.79567300  1
  O  O0  1  0.64227100  0.04354600  0.76585500  1
  O  O1  1  0.87519300  0.60160900  0.58425800  1
  O  O2  1  0.64051900  0.61776400  0.23839700  1
  O  O3  1  0.23878700  0.90258500  0.62856800  1
  O  O4  1  0.76879200  0.91248000  0.65290500  1
  O  O5  1  0.50952100  0.76751800  0.36692600  1
  O  O6  1  0.13335600  0.03508700  0.95457000  1
  O  O7  1  0.41213700  0.48211300  0.02031700  1
  O  O8  1  0.49047900  0.76751800  0.86692600  1
  O  O9  1  0.14023600  0.54615100  0.73651700  1
  O  O10  1  0.97091900  0.36986500  0.49096700  1
  O  O11  1  0.75321600  0.38513300  0.87145100  1
  O  O12  1  0.12015300  0.55121100  0.26078000  1
  O  O13  1  0.20629300  0.76897200  0.37231700  1
  O  O14  1  0.24678400  0.38513300  0.37145100  1
  O  O15  1  0.44231000  0.69783400  0.13763300  1
  O  O16  1  0.76121300  0.90258500  0.12856800  1
  O  O17  1  0.79370700  0.76897200  0.87231700  1
  O  O18  1  0.65964900  0.61658700  0.76571400  1
  O  O19  1  0.86066100  0.11972100  0.76155600  1
  O  O20  1  0.61886700  0.04680100  0.93305200  1
  O  O21  1  0.83191600  0.11621400  0.24320200  1
  O  O22  1  0.13933900  0.11972100  0.26155600  1
  O  O23  1  0.00024900  0.29380300  0.63453600  1
  O  O24  1  0.86664400  0.03508700  0.45457000  1
  O  O25  1  0.54773300  0.86731000  0.50748100  1
  O  O26  1  0.35948100  0.61776400  0.73839700  1
  O  O27  1  0.87984700  0.55121100  0.76078000  1
  O  O28  1  0.89218400  0.06834900  0.95260600  1
  O  O29  1  0.45226700  0.86731000  0.00748100  1
  O  O30  1  0.23120800  0.91248000  0.15290500  1
  O  O31  1  0.39307700  0.10914200  0.90220200  1
  O  O32  1  0.58786300  0.48211300  0.52031700  1
  O  O33  1  0.26906500  0.40662300  0.84999800  1
  O  O34  1  0.22171500  0.78777500  0.84051500  1
  O  O35  1  0.35772900  0.04354600  0.26585500  1
  O  O36  1  0.72070300  0.29923600  0.66107100  1
  O  O37  1  0.60692300  0.10914200  0.40220200  1
  O  O38  1  0.10950000  0.59379200  0.56606100  1
  O  O39  1  0.12480700  0.60160900  0.08425800  1
  O  O40  1  0.62741500  0.63368900  0.04986000  1
  O  O41  1  0.85976400  0.54615100  0.23651700  1
  O  O42  1  0.71117400  0.28534200  0.13357700  1
  O  O43  1  0.03561500  0.25238500  0.85694800  1
  O  O44  1  0.10781600  0.06834900  0.45260600  1
  O  O45  1  0.77828500  0.78777500  0.34051500  1
  O  O46  1  0.37258500  0.63368900  0.54986000  1
  O  O47  1  0.73093500  0.40662300  0.34999800  1
  O  O48  1  0.39289200  0.03602400  0.72757300  1
  O  O49  1  0.34035100  0.61658700  0.26571400  1
  O  O50  1  0.96438500  0.25238500  0.35694800  1
  O  O51  1  0.60710800  0.03602400  0.22757300  1
  O  O52  1  0.38113300  0.04680100  0.43305200  1
  O  O53  1  0.27929700  0.29923600  0.16107100  1
  O  O54  1  0.99975100  0.29380300  0.13453600  1
  O  O55  1  0.28882600  0.28534200  0.63357700  1
  O  O56  1  0.02908100  0.36986500  0.99096700  1
  O  O57  1  0.55769000  0.69783400  0.63763300  1
  O  O58  1  0.16808400  0.11621400  0.74320200  1
  O  O59  1  0.89050000  0.59379200  0.06606100  1
loop_
_geom_bond_atom_site_label_1
_geom_bond_atom_site_label_2
_geom_bond_distance
_geom_bond_site_symmetry_2
Li0 O28 2.016241 1_564
Li0 O59 2.043881 1_555
Li0 O16 2.244179 1_555
Li0 O17 2.384596 1_554
Li0 O40 2.414642 1_555
Li1 O32 1.837175 1_555
Li1 O47 1.921220 1_555
Li1 O37 1.947232 1_555
Li2 O7 1.837175 1_556
Li2 O33 1.921220 1_555
Li2 O31 1.947232 1_555
Li3 O44 2.016241 1_565
Li3 O38 2.043881 1_555
Li3 O3 2.244179 1_555
Li3 O13 2.384596 1_555
Li3 O46 2.414642 1_555
Fe0 O39 1.938212 1_555
Fe0 O53 1.985385 1_555
Fe0 O30 1.999444 1_555
Fe0 O49 2.073201 1_555
Fe0 O15 2.112214 1_555
Fe0 O12 2.342078 1_555
Fe1 O48 1.959766 1_565
Fe1 O8 2.035080 1_555
Fe1 O26 2.049554 1_555
Fe1 O18 2.064275 1_555
Fe1 O0 2.104196 1_565
Fe1 O57 2.195622 1_555
Fe2 O52 1.948661 1_555
Fe2 O14 1.963853 1_555
Fe2 O13 2.045579 1_545
Fe2 O44 2.089667 1_555
Fe2 O22 2.114936 1_555
Fe2 O35 2.169449 1_555
Fe3 O20 1.948661 1_555
Fe3 O11 1.963853 1_555
Fe3 O17 2.045579 1_545
Fe3 O28 2.089667 1_555
Fe3 O19 2.114936 1_555
Fe3 O0 2.169449 1_555
Fe4 O51 1.959766 1_565
Fe4 O5 2.035080 1_555
Fe4 O2 2.049554 1_555
Fe4 O49 2.064275 1_555
Fe4 O35 2.104196 1_565
Fe4 O15 2.195622 1_555
Fe5 O45 1.950986 1_545
Fe5 O37 1.998485 1_555
Fe5 O24 2.022215 1_555
Fe5 O21 2.053571 1_555
Fe5 O47 2.111815 1_555
Fe5 O50 2.310450 1_555
Fe6 O1 1.938212 1_555
Fe6 O36 1.985385 1_555
Fe6 O4 1.999444 1_555
Fe6 O18 2.073201 1_555
Fe6 O57 2.112214 1_555
Fe6 O27 2.342078 1_555
Fe7 O54 1.952651 1_555
Fe7 O50 1.992981 1_555
Fe7 O22 2.044318 1_655
Fe7 O41 2.069545 1_555
Fe7 O12 2.084933 1_655
Fe7 O21 2.147710 1_555
Fe8 O55 1.939730 1_555
Fe8 O46 1.965637 1_555
Fe8 O38 1.996762 1_555
Fe8 O3 2.077975 1_555
Fe8 O26 2.136220 1_555
Fe8 O9 2.183594 1_555
Fe9 O42 1.939730 1_555
Fe9 O40 1.965637 1_555
Fe9 O59 1.996762 1_555
Fe9 O16 2.077975 1_555
Fe9 O2 2.136220 1_555
Fe9 O41 2.183594 1_555
Fe10 O34 1.950986 1_545
Fe10 O31 1.998485 1_555
Fe10 O6 2.022215 1_555
Fe10 O58 2.053571 1_555
Fe10 O33 2.111815 1_555
Fe10 O43 2.310450 1_555
Fe11 O23 1.952651 1_555
Fe11 O43 1.992981 1_555
Fe11 O19 2.044318 1_455
Fe11 O9 2.069545 1_555
Fe11 O27 2.084933 1_455
Fe11 O58 2.147710 1_555
O0 P6 1.591525 1_555
O1 P3 1.517361 1_555
O2 P5 1.590070 1_555
O3 P14 1.535638 1_565
O4 P6 1.517209 1_565
O5 P9 1.542193 1_555
O6 P8 1.529924 1_555
O7 P0 1.498178 1_555
O8 P12 1.542193 1_555
O9 P15 1.571933 1_555
O10 P11 1.584643 1_555
O10 P3 1.595960 1_555
O11 P13 1.531131 1_555
O12 P2 1.576853 1_555
O13 P2 1.534579 1_555
O14 P2 1.531131 1_555
O15 P0 1.562638 1_555
O16 P10 1.535638 1_565
O17 P13 1.534579 1_555
O18 P13 1.584935 1_555
O19 P6 1.596531 1_555
O20 P12 1.531305 1_545
O21 P10 1.597936 1_555
O22 P7 1.596531 1_555
O23 P3 1.533599 1_455
O24 P11 1.529924 1_555
O25 P9 1.590384 1_555
O25 P4 1.627645 1_555
O26 P15 1.590070 1_555
O27 P13 1.576853 1_555
O28 P8 1.527893 1_655
O29 P12 1.590384 1_554
O29 P0 1.627645 1_555
O30 P7 1.517209 1_565
O31 P12 1.532974 1_545
O32 P4 1.498178 1_555
O33 P15 1.529112 1_555
O34 P15 1.521667 1_555
O35 P7 1.591525 1_555
O36 P6 1.522379 1_555
O37 P9 1.532974 1_545
O38 P3 1.540100 1_455
O39 P1 1.517361 1_555
O40 P0 1.532746 1_555
O41 P5 1.571933 1_555
O42 P10 1.532375 1_555
O43 P8 1.549454 1_555
O44 P11 1.527893 1_455
O45 P5 1.521667 1_555
O46 P4 1.532746 1_555
O47 P5 1.529112 1_555
O48 P14 1.557455 1_555
O49 P2 1.584935 1_555
O50 P11 1.549454 1_555
O51 P10 1.557455 1_555
O52 P9 1.531305 1_545
O53 P7 1.522379 1_555
O54 P1 1.533599 1_655
O55 P14 1.532375 1_555
O56 P8 1.584643 1_555
O56 P1 1.595960 1_556
O57 P4 1.562638 1_555
O58 P14 1.597936 1_555
O59 P1 1.540100 1_655
