# generated using pymatgen
data_LiFePCO7
_symmetry_space_group_name_H-M   'P 1'
_cell_length_a   5.15334700
_cell_length_b   8.39358980
_cell_length_c   19.40322826
_cell_angle_alpha   90.23710019
_cell_angle_beta   90.07466703
_cell_angle_gamma   95.02684372
_symmetry_Int_Tables_number   1
_chemical_formula_structural   LiFePCO7
_chemical_formula_sum   'Li6 Fe6 P6 C6 O42'
_cell_volume   836.05177135
_cell_formula_units_Z   6
loop_
 _symmetry_equiv_pos_site_id
 _symmetry_equiv_pos_as_xyz
  1  'x, y, z'
loop_
 _atom_site_type_symbol
 _atom_site_label
 _atom_site_symmetry_multiplicity
 _atom_site_fract_x
 _atom_site_fract_y
 _atom_site_fract_z
 _atom_site_occupancy
  Li  Li0  1  0.76922100  0.89209500  0.08354900  1
  Li  Li1  1  0.76883500  0.89161100  0.41756400  1
  Li  Li2  1  0.24491300  0.71893900  0.81863000  1
  Li  Li3  1  0.22614600  0.10862000  0.91738400  1
  Li  Li4  1  0.23089900  0.10864900  0.25017300  1
  Li  Li5  1  0.23228700  0.10861100  0.58524200  1
  Fe  Fe0  1  0.80242300  0.66387600  0.91896200  1
  Fe  Fe1  1  0.80324400  0.66800300  0.25059900  1
  Fe  Fe2  1  0.80565200  0.66849700  0.58410500  1
  Fe  Fe3  1  0.19534700  0.33332300  0.08407700  1
  Fe  Fe4  1  0.19970800  0.33350300  0.74945300  1
  Fe  Fe5  1  0.19648900  0.33246400  0.41655400  1
  P  P0  1  0.73260800  0.57599700  0.75054800  1
  P  P1  1  0.72661600  0.57713300  0.08408500  1
  P  P2  1  0.72792500  0.57731500  0.41689100  1
  P  P3  1  0.27218300  0.42353000  0.25015900  1
  P  P4  1  0.27591500  0.42504900  0.58202400  1
  P  P5  1  0.27548500  0.42059200  0.91677900  1
  C  C0  1  0.70776300  0.95759600  0.25026400  1
  C  C1  1  0.70862700  0.95639200  0.58445900  1
  C  C2  1  0.70533300  0.95407100  0.91294000  1
  C  C3  1  0.29193900  0.04290100  0.08286500  1
  C  C4  1  0.29187500  0.04266900  0.41651700  1
  C  C5  1  0.28556700  0.04379100  0.75243500  1
  O  O0  1  0.95003800  0.92698300  0.25046600  1
  O  O1  1  0.95035000  0.92482800  0.58342600  1
  O  O2  1  0.94779400  0.92488100  0.91666500  1
  O  O3  1  0.37889200  0.90734800  0.08259600  1
  O  O4  1  0.37726900  0.90699500  0.41677600  1
  O  O5  1  0.33451200  0.90097700  0.75869000  1
  O  O6  1  0.53928600  0.83122200  0.58470000  1
  O  O7  1  0.53922300  0.83164600  0.25058900  1
  O  O8  1  0.53852500  0.82609800  0.90896600  1
  O  O9  1  0.79478800  0.68783200  0.02123800  1
  O  O10  1  0.79573100  0.69134000  0.14563300  1
  O  O11  1  0.79494500  0.68967700  0.35492900  1
  O  O12  1  0.79491300  0.69054000  0.47891400  1
  O  O13  1  0.83321700  0.68135500  0.81269100  1
  O  O14  1  0.79346500  0.67827300  0.68652900  1
  O  O15  1  0.13942700  0.57866900  0.91217500  1
  O  O16  1  0.12527800  0.57523600  0.25035600  1
  O  O17  1  0.12919500  0.57664200  0.58144500  1
  O  O18  1  0.43243500  0.52189300  0.08388400  1
  O  O19  1  0.43397200  0.52045400  0.41668200  1
  O  O20  1  0.43156900  0.53265600  0.75885500  1
  O  O21  1  0.56617200  0.47971000  0.25002100  1
  O  O22  1  0.56980800  0.47994900  0.57978000  1
  O  O23  1  0.57099300  0.47400300  0.91775300  1
  O  O24  1  0.87250900  0.42506500  0.08436100  1
  O  O25  1  0.86833100  0.41904500  0.74865400  1
  O  O26  1  0.87468000  0.42518300  0.41654800  1
  O  O27  1  0.20447300  0.31035300  0.18798000  1
  O  O28  1  0.20534200  0.31055500  0.31202400  1
  O  O29  1  0.20432600  0.30911500  0.52111500  1
  O  O30  1  0.21780100  0.31721100  0.64572100  1
  O  O31  1  0.20869000  0.30797400  0.85478800  1
  O  O32  1  0.19627300  0.31444200  0.97936900  1
  O  O33  1  0.45900600  0.16955400  0.08264100  1
  O  O34  1  0.46635600  0.16129700  0.74914000  1
  O  O35  1  0.46005300  0.16861800  0.41654100  1
  O  O36  1  0.61829900  0.08968100  0.91497500  1
  O  O37  1  0.62240000  0.09356900  0.24975300  1
  O  O38  1  0.62501800  0.09259200  0.58385900  1
  O  O39  1  0.04940600  0.07254800  0.08331300  1
  O  O40  1  0.05297200  0.09129200  0.74901700  1
  O  O41  1  0.04974900  0.07328700  0.41619200  1
loop_
_geom_bond_atom_site_label_1
_geom_bond_atom_site_label_2
_geom_bond_distance
_geom_bond_site_symmetry_2
Li0 O39 1.998954 1_665
Li0 O3 2.026801 1_555
Li0 O10 2.089479 1_555
Li0 O9 2.107482 1_555
Li1 O41 2.008813 1_665
Li1 O4 2.033304 1_555
Li1 O12 2.083122 1_555
Li1 O11 2.095546 1_555
Li2 O5 1.947548 1_555
Li2 O13 2.120332 1_455
Li2 O15 2.210045 1_555
Li2 O20 2.228614 1_555
Li2 O8 2.431526 1_555
Li3 O2 2.012060 1_445
Li3 O36 2.041562 1_555
Li3 O31 2.079926 1_555
Li3 O32 2.117700 1_555
Li4 O0 2.008322 1_445
Li4 O37 2.032571 1_555
Li4 O28 2.086232 1_555
Li4 O27 2.097137 1_555
Li5 O1 2.024469 1_445
Li5 O38 2.040266 1_555
Li5 O30 2.110554 1_555
Li5 O29 2.112025 1_555
Fe0 O23 1.905097 1_555
Fe0 O15 1.939703 1_655
Fe0 O9 1.994604 1_556
Fe0 O8 2.016714 1_555
Fe0 O13 2.073121 1_555
Fe0 O2 2.252989 1_555
Fe1 O16 1.893904 1_655
Fe1 O21 1.911018 1_555
Fe1 O7 2.016274 1_555
Fe1 O11 2.032588 1_555
Fe1 O10 2.047524 1_555
Fe1 O0 2.238175 1_555
Fe2 O17 1.897960 1_655
Fe2 O22 1.910594 1_555
Fe2 O14 1.990010 1_555
Fe2 O6 2.019501 1_555
Fe2 O12 2.051289 1_555
Fe2 O1 2.214594 1_555
Fe3 O24 1.893511 1_455
Fe3 O18 1.912892 1_555
Fe3 O33 2.015826 1_555
Fe3 O27 2.026923 1_555
Fe3 O32 2.037235 1_554
Fe3 O39 2.251240 1_555
Fe4 O25 1.909688 1_455
Fe4 O20 1.975381 1_555
Fe4 O30 2.019640 1_555
Fe4 O31 2.056806 1_555
Fe4 O34 2.079795 1_555
Fe4 O40 2.106059 1_555
Fe5 O26 1.892647 1_455
Fe5 O19 1.910267 1_555
Fe5 O35 2.015807 1_555
Fe5 O28 2.036712 1_555
Fe5 O29 2.039759 1_555
Fe5 O41 2.239629 1_555
C0 O37 1.258670 1_565
C0 O0 1.296563 1_555
C0 O7 1.308122 1_555
C1 O38 1.256631 1_565
C1 O1 1.296215 1_555
C1 O6 1.305669 1_555
C2 O36 1.259957 1_565
C2 O2 1.296159 1_555
C2 O8 1.317582 1_555
C3 O3 1.258832 1_545
C3 O39 1.295630 1_555
C3 O33 1.308067 1_555
C4 O4 1.256341 1_545
C4 O41 1.295831 1_555
C4 O35 1.306967 1_555
C5 O5 1.252755 1_545
C5 O40 1.297640 1_555
C5 O34 1.297891 1_555
O9 P1 1.557907 1_555
O10 P1 1.549695 1_555
O11 P2 1.551638 1_555
O12 P2 1.550034 1_555
O13 P0 1.553688 1_555
O14 P0 1.530024 1_555
O15 P5 1.556899 1_555
O16 P3 1.537364 1_555
O17 P4 1.536077 1_555
O18 P1 1.545992 1_555
O19 P2 1.547842 1_555
O20 P0 1.570754 1_555
O21 P3 1.546771 1_555
O22 P4 1.544695 1_555
O23 P5 1.549400 1_555
O24 P1 1.537106 1_555
O25 P0 1.545059 1_555
O26 P2 1.540046 1_555
O27 P3 1.552768 1_555
O28 P3 1.553071 1_555
O29 P4 1.551190 1_555
O30 P4 1.548941 1_555
O31 P5 1.546383 1_555
O32 P5 1.543331 1_555
