# generated using pymatgen
data_Li3Mn4(PO4)6
_symmetry_space_group_name_H-M   'P 1'
_cell_length_a   8.35477170
_cell_length_b   8.51681854
_cell_length_c   8.46393387
_cell_angle_alpha   119.23872917
_cell_angle_beta   61.11882126
_cell_angle_gamma   89.17662038
_symmetry_Int_Tables_number   1
_chemical_formula_structural   Li3Mn4(PO4)6
_chemical_formula_sum   'Li3 Mn4 P6 O24'
_cell_volume   434.77444267
_cell_formula_units_Z   1
loop_
 _symmetry_equiv_pos_site_id
 _symmetry_equiv_pos_as_xyz
  1  'x, y, z'
loop_
 _atom_site_type_symbol
 _atom_site_label
 _atom_site_symmetry_multiplicity
 _atom_site_fract_x
 _atom_site_fract_y
 _atom_site_fract_z
 _atom_site_occupancy
  Li  Li0  1  0.01261100  0.49275600  0.97972300  1
  Li  Li1  1  0.75303400  0.64024900  0.48944400  1
  Li  Li2  1  0.48657300  0.01581300  0.01517600  1
  Mn  Mn0  1  0.35928900  0.85645200  0.71717600  1
  Mn  Mn1  1  0.14095600  0.64918200  0.28501000  1
  Mn  Mn2  1  0.86302300  0.35344800  0.71812000  1
  Mn  Mn3  1  0.63529000  0.14553900  0.28357000  1
  P  P0  1  0.74743800  0.97129200  0.51269300  1
  P  P1  1  0.45540700  0.52850900  0.78503700  1
  P  P2  1  0.03805300  0.25113200  0.21846800  1
  P  P3  1  0.95512300  0.75149000  0.79108900  1
  P  P4  1  0.55397000  0.46249500  0.20984600  1
  P  P5  1  0.25369300  0.03444400  0.48777500  1
  O  O0  1  0.12738800  0.79571400  0.79998000  1
  O  O1  1  0.32050400  0.97824600  0.59575600  1
  O  O2  1  0.18833000  0.88481800  0.35691400  1
  O  O3  1  0.25818700  0.55203600  0.97342900  1
  O  O4  1  0.58904300  0.93714400  0.67847400  1
  O  O5  1  0.45842300  0.71951300  0.80400200  1
  O  O6  1  0.03183400  0.43456400  0.21389800  1
  O  O7  1  0.76197000  0.91901300  0.97960900  1
  O  O8  1  0.00437600  0.29744200  0.43334100  1
  O  O9  1  0.09082600  0.23095600  0.67568400  1
  O  O10  1  0.37719800  0.52687400  0.21635600  1
  O  O11  1  0.55357900  0.60369600  0.40940500  1
  O  O12  1  0.47245500  0.37648600  0.57391700  1
  O  O13  1  0.62205400  0.47711300  0.79803600  1
  O  O14  1  0.90936800  0.76961800  0.32870400  1
  O  O15  1  0.97219500  0.70777900  0.58109600  1
  O  O16  1  0.23324900  0.09685800  0.03620800  1
  O  O17  1  0.94229600  0.57981700  0.81186600  1
  O  O18  1  0.55353000  0.26548300  0.17802400  1
  O  O19  1  0.41802700  0.05460200  0.31154700  1
  O  O20  1  0.74778300  0.43827800  0.01840200  1
  O  O21  1  0.80852300  0.12079000  0.64586200  1
  O  O22  1  0.68704700  0.01813100  0.39395300  1
  O  O23  1  0.87052200  0.20113400  0.19479500  1
loop_
_geom_bond_atom_site_label_1
_geom_bond_atom_site_label_2
_geom_bond_distance
_geom_bond_site_symmetry_2
Li0 O3 2.101857 1_555
Li0 O20 2.167056 1_456
Li0 O17 2.176287 1_455
Li0 O9 2.179270 1_555
Li0 O6 2.337681 1_556
Li0 O14 2.388543 1_456
Li1 O11 2.057213 1_555
Li1 O14 2.135441 1_555
Li1 O6 2.139515 1_655
Li1 O4 2.159066 1_555
Li1 O15 2.291675 1_555
Li1 O5 2.338523 1_555
Li2 O16 2.112246 1_555
Li2 O19 2.127630 1_555
Li2 O18 2.156418 1_555
Li2 O4 2.250501 1_544
Li2 O7 2.257939 1_544
Li2 O5 2.373826 1_544
Mn0 O0 1.893116 1_555
Mn0 O1 1.894877 1_555
Mn0 O4 1.978554 1_555
Mn0 O5 1.995936 1_555
Mn0 O16 2.093504 1_566
Mn0 O11 2.095603 1_555
Mn1 O10 1.886826 1_555
Mn1 O2 1.901823 1_555
Mn1 O14 1.952885 1_455
Mn1 O15 1.965219 1_455
Mn1 O3 1.987136 1_554
Mn1 O6 2.009413 1_555
Mn2 O8 1.882263 1_655
Mn2 O13 1.883512 1_555
Mn2 O21 1.902315 1_555
Mn2 O20 1.931559 1_556
Mn2 O9 1.938099 1_655
Mn2 O17 1.958349 1_555
Mn3 O23 1.897113 1_555
Mn3 O22 1.898542 1_555
Mn3 O12 1.931409 1_555
Mn3 O19 1.937823 1_555
Mn3 O18 1.941420 1_555
Mn3 O7 1.980736 1_544
O0 P3 1.520341 1_455
O1 P5 1.512751 1_565
O2 P5 1.540896 1_565
O3 P1 1.561438 1_555
O4 P0 1.555860 1_555
O5 P1 1.556502 1_555
O6 P2 1.582240 1_555
O7 P3 1.551880 1_555
O8 P2 1.531032 1_555
O9 P5 1.557508 1_555
O10 P4 1.534106 1_555
O11 P4 1.519662 1_555
O12 P1 1.542203 1_555
O13 P1 1.523060 1_555
O14 P0 1.578184 1_555
O15 P3 1.557294 1_555
O16 P2 1.514538 1_555
O17 P3 1.554878 1_555
O18 P4 1.564482 1_555
O19 P5 1.555002 1_555
O20 P4 1.555474 1_555
O21 P0 1.524607 1_545
O22 P0 1.516395 1_545
O23 P2 1.544434 1_655
