# generated using pymatgen
data_LiSn2P4H3O16
_symmetry_space_group_name_H-M   'P 1'
_cell_length_a   4.97706800
_cell_length_b   7.63296480
_cell_length_c   8.15995580
_cell_angle_alpha   90.80012649
_cell_angle_beta   91.59346502
_cell_angle_gamma   102.62840139
_symmetry_Int_Tables_number   1
_chemical_formula_structural   LiSn2P4H3O16
_chemical_formula_sum   'Li1 Sn2 P4 H3 O16'
_cell_volume   302.31490107
_cell_formula_units_Z   1
loop_
 _symmetry_equiv_pos_site_id
 _symmetry_equiv_pos_as_xyz
  1  'x, y, z'
loop_
 _atom_site_type_symbol
 _atom_site_label
 _atom_site_symmetry_multiplicity
 _atom_site_fract_x
 _atom_site_fract_y
 _atom_site_fract_z
 _atom_site_occupancy
  Li  Li0  1  0.87373400  0.33388500  0.34376100  1
  Sn  Sn0  1  0.00162900  0.49995600  0.99686400  1
  Sn  Sn1  1  0.49489100  0.99499500  0.49970500  1
  P  P0  1  0.11990100  0.24692500  0.66472500  1
  P  P1  1  0.37616700  0.23354700  0.15310500  1
  P  P2  1  0.61748200  0.75722900  0.84088300  1
  P  P3  1  0.88297000  0.75384200  0.32737100  1
  H  H0  1  0.44179800  0.48230200  0.64199100  1
  H  H1  1  0.56105300  0.55441300  0.43605300  1
  H  H2  1  0.95359700  0.97375900  0.98324800  1
  O  O0  1  0.11408500  0.84657300  0.44451600  1
  O  O1  1  0.02320100  0.29814500  0.82979400  1
  O  O2  1  0.18544400  0.37571500  0.18306300  1
  O  O3  1  0.27600600  0.42636000  0.57676200  1
  O  O4  1  0.35872500  0.66524900  0.92959800  1
  O  O5  1  0.54435900  0.80086700  0.66158900  1
  O  O6  1  0.22735400  0.06913800  0.06229400  1
  O  O7  1  0.32087700  0.12117700  0.68263600  1
  O  O8  1  0.65425000  0.86058300  0.31597700  1
  O  O9  1  0.75632000  0.93178500  0.93254900  1
  O  O10  1  0.47778300  0.19538300  0.33251200  1
  O  O11  1  0.64194300  0.34091800  0.07564800  1
  O  O12  1  0.75416700  0.56418900  0.40910100  1
  O  O13  1  0.80204700  0.61711300  0.81990300  1
  O  O14  1  0.98040000  0.70572000  0.16120700  1
  O  O15  1  0.88006500  0.17498100  0.54058600  1
loop_
_geom_bond_atom_site_label_1
_geom_bond_atom_site_label_2
_geom_bond_distance
_geom_bond_site_symmetry_2
Li0 O10 2.021358 1_555
Li0 O15 2.029765 1_555
Li0 O2 2.033842 1_655
Li0 O12 2.043897 1_555
Li0 O11 2.451567 1_555
H0 O3 0.980656 1_555
H1 O12 0.979073 1_555
H2 O9 1.036343 1_555
H2 O6 1.518804 1_666
O0 P3 1.517175 1_455
O0 Sn1 2.019366 1_555
O1 P0 1.517364 1_555
O1 Sn0 2.065129 1_555
O2 P1 1.610683 1_555
O2 Sn0 2.094537 1_554
O3 P0 1.608691 1_555
O4 P2 1.531736 1_555
O4 Sn0 2.035922 1_555
O5 P2 1.555912 1_555
O5 Sn1 2.048735 1_555
O6 P1 1.486474 1_555
O7 P0 1.535828 1_555
O7 Sn1 2.074224 1_545
O8 P3 1.539508 1_555
O8 Sn1 2.075642 1_555
O9 P2 1.533970 1_555
O10 P1 1.587121 1_555
O10 Sn1 2.077699 1_545
O11 P1 1.551727 1_555
O11 Sn0 2.056027 1_654
O12 P3 1.611299 1_555
O13 P2 1.565298 1_555
O13 Sn0 2.053344 1_655
O14 P3 1.519553 1_555
O14 Sn0 2.073137 1_654
O15 P0 1.543740 1_655
O15 Sn1 2.115127 1_545
