# generated using pymatgen
data_Gd2As4O11
_symmetry_space_group_name_H-M   'P 1'
_cell_length_a   6.70862929
_cell_length_b   6.70862929
_cell_length_c   16.42841889
_cell_angle_alpha   83.82995341
_cell_angle_beta   83.82995341
_cell_angle_gamma   47.17848544
_symmetry_Int_Tables_number   1
_chemical_formula_structural   Gd2As4O11
_chemical_formula_sum   'Gd4 As8 O22'
_cell_volume   538.56855413
_cell_formula_units_Z   2
loop_
 _symmetry_equiv_pos_site_id
 _symmetry_equiv_pos_as_xyz
  1  'x, y, z'
loop_
 _atom_site_type_symbol
 _atom_site_label
 _atom_site_symmetry_multiplicity
 _atom_site_fract_x
 _atom_site_fract_y
 _atom_site_fract_z
 _atom_site_occupancy
  Gd  Gd0  1  0.67332400  0.11981000  0.96916000  1
  Gd  Gd1  1  0.11981000  0.67332400  0.46916000  1
  Gd  Gd2  1  0.88019000  0.32667600  0.53084000  1
  Gd  Gd3  1  0.32667600  0.88019000  0.03084000  1
  As  As0  1  0.22373400  0.65100600  0.84300600  1
  As  As1  1  0.50917300  0.13624400  0.61881700  1
  As  As2  1  0.65100600  0.22373400  0.34300600  1
  As  As3  1  0.86375600  0.49082700  0.88118300  1
  As  As4  1  0.13624400  0.50917300  0.11881700  1
  As  As5  1  0.34899400  0.77626600  0.65699400  1
  As  As6  1  0.49082700  0.86375600  0.38118300  1
  As  As7  1  0.77626600  0.34899400  0.15699400  1
  O  O0  1  0.04543500  0.09333900  0.66116300  1
  O  O1  1  0.24091200  0.38049900  0.86421600  1
  O  O2  1  0.09333900  0.04543500  0.16116300  1
  O  O3  1  0.24272700  0.30261200  0.54863300  1
  O  O4  1  0.38049900  0.24091200  0.36421600  1
  O  O5  1  0.43234300  0.58877800  0.91484900  1
  O  O6  1  0.98132800  0.20781500  0.94920100  1
  O  O7  1  0.42247200  0.57752800  0.75000000  1
  O  O8  1  0.79218500  0.01867200  0.55079900  1
  O  O9  1  0.30261200  0.24272600  0.04863300  1
  O  O10  1  0.41122200  0.56765700  0.58515100  1
  O  O11  1  0.58877800  0.43234300  0.41484900  1
  O  O12  1  0.69738800  0.75727300  0.95136700  1
  O  O13  1  0.20781500  0.98132800  0.44920100  1
  O  O14  1  0.57752800  0.42247200  0.25000000  1
  O  O15  1  0.01867200  0.79218500  0.05079900  1
  O  O16  1  0.56765700  0.41122200  0.08515100  1
  O  O17  1  0.61950100  0.75908800  0.63578400  1
  O  O18  1  0.75727300  0.69738800  0.45136700  1
  O  O19  1  0.90666100  0.95456500  0.83883700  1
  O  O20  1  0.75908800  0.61950100  0.13578400  1
  O  O21  1  0.95456500  0.90666100  0.33883700  1
loop_
_geom_bond_atom_site_label_1
_geom_bond_atom_site_label_2
_geom_bond_distance
_geom_bond_site_symmetry_2
Gd0 O15 2.260331 1_646
Gd0 O9 2.305472 1_556
Gd0 O12 2.373956 1_545
Gd0 O19 2.386191 1_545
Gd0 O5 2.469840 1_555
Gd0 O6 2.489329 1_555
Gd0 O16 2.565543 1_556
Gd0 O1 2.824229 1_555
Gd1 O8 2.260331 1_465
Gd1 O3 2.305470 1_555
Gd1 O18 2.373956 1_455
Gd1 O21 2.386191 1_455
Gd1 O11 2.469840 1_555
Gd1 O13 2.489329 1_555
Gd1 O10 2.565543 1_555
Gd1 O4 2.824229 1_555
Gd2 O13 2.260331 1_645
Gd2 O18 2.305470 1_555
Gd2 O3 2.373956 1_655
Gd2 O0 2.386191 1_655
Gd2 O10 2.469840 1_555
Gd2 O8 2.489329 1_555
Gd2 O11 2.565543 1_555
Gd2 O17 2.824229 1_555
Gd3 O6 2.260331 1_464
Gd3 O12 2.305470 1_554
Gd3 O9 2.373949 1_565
Gd3 O2 2.386191 1_565
Gd3 O16 2.469840 1_555
Gd3 O15 2.489329 1_555
Gd3 O5 2.565543 1_554
Gd3 O20 2.824229 1_555
As0 O19 1.670048 1_455
As0 O5 1.726491 1_555
As0 O1 1.736764 1_555
As0 O7 1.784863 1_555
As1 O8 1.781332 1_555
As1 O3 1.795701 1_555
As1 O17 2.091489 1_545
As1 O10 2.502533 1_555
As2 O21 1.670048 1_545
As2 O11 1.726491 1_555
As2 O4 1.736764 1_555
As2 O14 1.784863 1_555
As3 O6 1.781332 1_555
As3 O12 1.795701 1_555
As3 O1 2.091489 1_655
As3 O5 2.502533 1_555
As4 O15 1.781332 1_555
As4 O9 1.795705 1_555
As4 O20 2.091489 1_455
As4 O16 2.502533 1_555
As5 O0 1.670048 1_565
As5 O10 1.726491 1_555
As5 O17 1.736764 1_555
As5 O7 1.784863 1_555
As6 O13 1.781332 1_555
As6 O18 1.795701 1_555
As6 O4 2.091489 1_565
As6 O11 2.502533 1_555
As7 O2 1.670048 1_655
As7 O16 1.726491 1_555
As7 O20 1.736764 1_555
As7 O14 1.784863 1_555
