# generated using pymatgen
data_Co3OF5
_symmetry_space_group_name_H-M   'P 1'
_cell_length_a   4.69251800
_cell_length_b   5.69916637
_cell_length_c   7.84135238
_cell_angle_alpha   91.46677155
_cell_angle_beta   90.33302730
_cell_angle_gamma   90.36614592
_symmetry_Int_Tables_number   1
_chemical_formula_structural   Co3OF5
_chemical_formula_sum   'Co6 O2 F10'
_cell_volume   209.62800440
_cell_formula_units_Z   2
loop_
 _symmetry_equiv_pos_site_id
 _symmetry_equiv_pos_as_xyz
  1  'x, y, z'
loop_
 _atom_site_type_symbol
 _atom_site_label
 _atom_site_symmetry_multiplicity
 _atom_site_fract_x
 _atom_site_fract_y
 _atom_site_fract_z
 _atom_site_occupancy
  Co  Co0  1  0.49095500  0.51383400  0.00135600  1
  Co  Co1  1  0.46583700  0.82446300  0.32957500  1
  Co  Co2  1  0.50933600  0.16879900  0.67008400  1
  Co  Co3  1  0.01805300  0.67764500  0.65008200  1
  Co  Co4  1  0.01461800  0.34884500  0.33213500  1
  Co  Co5  1  0.01813500  0.97933500  0.01352800  1
  O  O0  1  0.20613200  0.63867300  0.42527200  1
  O  O1  1  0.29417200  0.79471000  0.11074800  1
  F  F0  1  0.19564500  0.97122900  0.77223000  1
  F  F1  1  0.19512900  0.28852800  0.09747000  1
  F  F2  1  0.30655500  0.46744200  0.76973500  1
  F  F3  1  0.29939100  0.13444600  0.43894900  1
  F  F4  1  0.68111000  0.86343200  0.55574300  1
  F  F5  1  0.69804800  0.52916500  0.22778400  1
  F  F6  1  0.70642300  0.19707400  0.90835000  1
  F  F7  1  0.78297300  0.02434200  0.23706800  1
  F  F8  1  0.80528300  0.70712700  0.89303900  1
  F  F9  1  0.81220400  0.37091500  0.56685300  1
loop_
_geom_bond_atom_site_label_1
_geom_bond_atom_site_label_2
_geom_bond_distance
_geom_bond_site_symmetry_2
Co0 F2 2.017804 1_554
Co0 F5 2.018744 1_555
Co0 O1 2.026994 1_555
Co0 F8 2.037703 1_554
Co0 F1 2.045176 1_555
Co0 F6 2.185785 1_554
Co1 O0 1.790034 1_555
Co1 O1 1.894532 1_555
Co1 F7 2.017833 1_565
Co1 F4 2.042324 1_555
Co1 F3 2.101065 1_565
Co1 F5 2.149778 1_555
Co2 F9 2.010506 1_555
Co2 F0 2.028512 1_545
Co2 F3 2.062120 1_555
Co2 F6 2.081953 1_555
Co2 F2 2.091448 1_555
Co2 F4 2.104475 1_545
Co3 O0 1.984014 1_555
Co3 F2 2.052252 1_555
Co3 F4 2.053328 1_455
Co3 F0 2.074192 1_555
Co3 F9 2.080274 1_455
Co3 F8 2.159261 1_455
Co4 F5 1.995200 1_455
Co4 O0 1.995247 1_555
Co4 F3 2.010100 1_555
Co4 F1 2.052086 1_555
Co4 F9 2.077369 1_455
Co4 F7 2.247631 1_455
Co5 O1 1.847466 1_555
Co5 F1 2.035625 1_565
Co5 F8 2.047234 1_454
Co5 F0 2.071319 1_554
Co5 F7 2.087846 1_465
Co5 F6 2.102666 1_464
