# generated using pymatgen
data_Li2FeNi3O8
_symmetry_space_group_name_H-M   'P 1'
_cell_length_a   5.72448935
_cell_length_b   5.64094575
_cell_length_c   9.29208632
_cell_angle_alpha   90.42190806
_cell_angle_beta   89.79212665
_cell_angle_gamma   119.51840664
_symmetry_Int_Tables_number   1
_chemical_formula_structural   Li2FeNi3O8
_chemical_formula_sum   'Li4 Fe2 Ni6 O16'
_cell_volume   261.10064545
_cell_formula_units_Z   2
loop_
 _symmetry_equiv_pos_site_id
 _symmetry_equiv_pos_as_xyz
  1  'x, y, z'
loop_
 _atom_site_type_symbol
 _atom_site_label
 _atom_site_symmetry_multiplicity
 _atom_site_fract_x
 _atom_site_fract_y
 _atom_site_fract_z
 _atom_site_occupancy
  Li  Li0  1  0.33240400  0.66502700  0.89272800  1
  Li  Li1  1  0.99645700  0.99901500  0.99835900  1
  Li  Li2  1  0.00354300  0.00255800  0.49835900  1
  Li  Li3  1  0.66759600  0.33262300  0.39272800  1
  Fe  Fe0  1  0.32890600  0.66179300  0.49327200  1
  Fe  Fe1  1  0.67109400  0.33288600  0.99327200  1
  Ni  Ni0  1  0.17033400  0.83203400  0.21336000  1
  Ni  Ni1  1  0.16963600  0.33947600  0.21405600  1
  Ni  Ni2  1  0.66119400  0.82905700  0.21645200  1
  Ni  Ni3  1  0.33880600  0.16786400  0.71645200  1
  Ni  Ni4  1  0.82966600  0.66169900  0.71336000  1
  Ni  Ni5  1  0.83036400  0.16984000  0.71405600  1
  O  O0  1  0.15687000  0.83829400  0.60535600  1
  O  O1  1  0.03512400  0.52119100  0.33054500  1
  O  O2  1  0.31418900  0.65562800  0.10505500  1
  O  O3  1  0.02127700  0.01249300  0.31164400  1
  O  O4  1  0.97872300  0.99121600  0.81164400  1
  O  O5  1  0.15183900  0.32202800  0.60395600  1
  O  O6  1  0.47852600  0.96259000  0.33175900  1
  O  O7  1  0.47244600  0.50726600  0.33566500  1
  O  O8  1  0.32025200  0.15898700  0.10171300  1
  O  O9  1  0.67974700  0.83873400  0.60171300  1
  O  O10  1  0.52147400  0.48406300  0.83175900  1
  O  O11  1  0.52755400  0.03482000  0.83566500  1
  O  O12  1  0.68581100  0.34143800  0.60505500  1
  O  O13  1  0.84312900  0.68142300  0.10535600  1
  O  O14  1  0.96487600  0.48606700  0.83054500  1
  O  O15  1  0.84816100  0.17018900  0.10395600  1
loop_
_geom_bond_atom_site_label_1
_geom_bond_atom_site_label_2
_geom_bond_distance
_geom_bond_site_symmetry_2
Li0 O11 1.896348 1_565
Li0 O10 1.900053 1_555
Li0 O14 1.920084 1_455
Li0 O2 1.975059 1_556
Li1 O4 1.737274 1_555
Li1 O15 1.844869 1_566
Li1 O13 1.854404 1_556
Li1 O8 1.877297 1_666
Li2 O3 1.737274 1_555
Li2 O5 1.844869 1_555
Li2 O0 1.854400 1_545
Li2 O9 1.877301 1_445
Li3 O7 1.896348 1_555
Li3 O6 1.900048 1_545
Li3 O1 1.920084 1_655
Li3 O12 1.975059 1_555
Fe0 O5 1.966129 1_555
Fe0 O0 1.997337 1_555
Fe0 O9 2.017354 1_555
Fe0 O7 2.063498 1_555
Fe0 O1 2.104785 1_555
Fe0 O6 2.112138 1_555
Fe1 O15 1.966125 1_556
Fe1 O13 1.997337 1_556
Fe1 O8 2.017359 1_556
Fe1 O11 2.063494 1_555
Fe1 O14 2.104785 1_555
Fe1 O10 2.112138 1_555
Ni0 O3 1.853361 1_565
Ni0 O2 1.862230 1_555
Ni0 O1 1.882547 1_555
Ni0 O6 1.893971 1_555
Ni0 O13 1.915821 1_455
Ni0 O8 1.917374 1_565
Ni1 O3 1.849628 1_555
Ni1 O2 1.859412 1_555
Ni1 O7 1.886601 1_555
Ni1 O1 1.889622 1_555
Ni1 O15 1.900724 1_455
Ni1 O8 1.926795 1_555
Ni2 O6 1.888115 1_555
Ni2 O13 1.917846 1_555
Ni2 O7 1.943644 1_555
Ni2 O15 1.983223 1_565
Ni2 O3 1.999996 1_665
Ni2 O2 2.014810 1_555
Ni3 O10 1.888107 1_555
Ni3 O0 1.917850 1_545
Ni3 O11 1.943648 1_555
Ni3 O5 1.983219 1_555
Ni3 O4 1.999996 1_445
Ni3 O12 2.014810 1_555
Ni4 O4 1.853365 1_555
Ni4 O12 1.862230 1_555
Ni4 O14 1.882543 1_555
Ni4 O10 1.893971 1_555
Ni4 O0 1.915817 1_655
Ni4 O9 1.917379 1_555
Ni5 O4 1.849629 1_545
Ni5 O12 1.859408 1_555
Ni5 O11 1.886601 1_555
Ni5 O14 1.889622 1_555
Ni5 O5 1.900724 1_655
Ni5 O9 1.926799 1_545
