# generated using pymatgen
data_LiCu3O4
_symmetry_space_group_name_H-M   'P 1'
_cell_length_a   5.71884006
_cell_length_b   5.71884006
_cell_length_c   6.39877898
_cell_angle_alpha   61.06010107
_cell_angle_beta   61.06010107
_cell_angle_gamma   85.24523883
_symmetry_Int_Tables_number   1
_chemical_formula_structural   LiCu3O4
_chemical_formula_sum   'Li2 Cu6 O8'
_cell_volume   157.11426323
_cell_formula_units_Z   2
loop_
 _symmetry_equiv_pos_site_id
 _symmetry_equiv_pos_as_xyz
  1  'x, y, z'
loop_
 _atom_site_type_symbol
 _atom_site_label
 _atom_site_symmetry_multiplicity
 _atom_site_fract_x
 _atom_site_fract_y
 _atom_site_fract_z
 _atom_site_occupancy
  Li  Li0  1  0.00000000  0.00000000  0.00000000  1
  Li  Li1  1  0.00000000  0.00000000  0.50000000  1
  Cu  Cu0  1  0.00000000  0.50000000  0.00000000  1
  Cu  Cu1  1  0.50000000  0.50000000  0.00000000  1
  Cu  Cu2  1  0.00000000  0.50000000  0.50000000  1
  Cu  Cu3  1  0.50000000  0.00000000  0.00000000  1
  Cu  Cu4  1  0.50000000  0.50000000  0.50000000  1
  Cu  Cu5  1  0.50000000  0.00000000  0.50000000  1
  O  O0  1  0.25046400  0.25336900  0.04328500  1
  O  O1  1  0.66111700  0.18311800  0.09751800  1
  O  O2  1  0.25336900  0.25046400  0.54328500  1
  O  O3  1  0.81688200  0.33888300  0.40248200  1
  O  O4  1  0.18311800  0.66111700  0.59751800  1
  O  O5  1  0.74663100  0.74953600  0.45671500  1
  O  O6  1  0.33888300  0.81688200  0.90248200  1
  O  O7  1  0.74953600  0.74663100  0.95671500  1
loop_
_geom_bond_atom_site_label_1
_geom_bond_atom_site_label_2
_geom_bond_distance
_geom_bond_site_symmetry_2
Li0 O1 2.089869 1_455
Li0 O6 2.089869 1_544
Li0 O2 2.210565 1_554
Li0 O5 2.210565 1_445
Li0 O0 2.311779 1_555
Li0 O7 2.311779 1_444
Li1 O4 2.089869 1_545
Li1 O3 2.089869 1_455
Li1 O0 2.210565 1_555
Li1 O7 2.210565 1_445
Li1 O2 2.311779 1_555
Li1 O5 2.311779 1_445
Cu0 O0 1.946453 1_555
Cu0 O7 1.946453 1_454
Cu0 O3 1.957454 1_455
Cu0 O4 1.957454 1_554
Cu0 O6 2.397259 1_554
Cu0 O1 2.397259 1_455
Cu1 O7 1.917198 1_554
Cu1 O0 1.917198 1_555
Cu1 O1 1.925526 1_555
Cu1 O6 1.925526 1_554
Cu2 O4 1.919331 1_555
Cu2 O3 1.919331 1_455
Cu2 O2 1.968709 1_555
Cu2 O5 1.968709 1_455
Cu3 O1 1.919331 1_555
Cu3 O6 1.919331 1_544
Cu3 O0 1.968709 1_555
Cu3 O7 1.968709 1_544
Cu4 O5 1.917198 1_555
Cu4 O2 1.917198 1_555
Cu4 O4 1.925526 1_555
Cu4 O3 1.925526 1_555
Cu5 O2 1.946453 1_555
Cu5 O5 1.946453 1_545
Cu5 O6 1.957454 1_545
Cu5 O1 1.957454 1_555
Cu5 O4 2.397259 1_545
Cu5 O3 2.397259 1_555
