# generated using pymatgen
data_LiVFeP2(HO5)2
_symmetry_space_group_name_H-M   'P 1'
_cell_length_a   5.22098200
_cell_length_b   7.44217493
_cell_length_c   10.51817600
_cell_angle_alpha   105.31167818
_cell_angle_beta   96.59897358
_cell_angle_gamma   109.94809238
_symmetry_Int_Tables_number   1
_chemical_formula_structural   LiVFeP2(HO5)2
_chemical_formula_sum   'Li2 V2 Fe2 P4 H4 O20'
_cell_volume   360.93426433
_cell_formula_units_Z   2
loop_
 _symmetry_equiv_pos_site_id
 _symmetry_equiv_pos_as_xyz
  1  'x, y, z'
loop_
 _atom_site_type_symbol
 _atom_site_label
 _atom_site_symmetry_multiplicity
 _atom_site_fract_x
 _atom_site_fract_y
 _atom_site_fract_z
 _atom_site_occupancy
  Li  Li0  1  0.57198600  0.64429200  0.79362700  1
  Li  Li1  1  0.42801400  0.35570800  0.20637300  1
  V  V0  1  0.00000000  0.50000000  0.00000000  1
  V  V1  1  0.50000000  0.00000000  0.50000000  1
  Fe  Fe0  1  0.00000000  0.00000000  0.00000000  1
  Fe  Fe1  1  0.50000000  0.50000000  0.50000000  1
  P  P0  1  0.49899800  0.04544800  0.82163700  1
  P  P1  1  0.99719000  0.44678300  0.67734000  1
  P  P2  1  0.00281000  0.55321700  0.32266000  1
  P  P3  1  0.50100200  0.95455200  0.17836300  1
  H  H0  1  0.32141200  0.31721000  0.96751900  1
  H  H1  1  0.16656000  0.17431100  0.51487900  1
  H  H2  1  0.83344000  0.82568900  0.48512100  1
  H  H3  1  0.67858800  0.68279000  0.03248100  1
  O  O0  1  0.81925000  0.69065400  0.97662500  1
  O  O1  1  0.64517300  0.27962800  0.90293800  1
  O  O2  1  0.12384900  0.48308400  0.82880800  1
  O  O3  1  0.24791700  0.95618900  0.87968100  1
  O  O4  1  0.70732500  0.94312300  0.83585200  1
  O  O5  1  0.77748000  0.54010800  0.66884100  1
  O  O6  1  0.25394400  0.55168100  0.62529200  1
  O  O7  1  0.39524800  0.01970100  0.67199900  1
  O  O8  1  0.87278800  0.21679000  0.59566000  1
  O  O9  1  0.34368800  0.20123800  0.48410400  1
  O  O10  1  0.65631200  0.79876200  0.51589600  1
  O  O11  1  0.12721200  0.78321000  0.40434000  1
  O  O12  1  0.60475200  0.98029900  0.32800100  1
  O  O13  1  0.74605600  0.44831900  0.37470800  1
  O  O14  1  0.22252000  0.45989200  0.33115900  1
  O  O15  1  0.29267500  0.05687700  0.16414800  1
  O  O16  1  0.75208300  0.04381100  0.12031900  1
  O  O17  1  0.87615100  0.51691600  0.17119200  1
  O  O18  1  0.35482700  0.72037200  0.09706200  1
  O  O19  1  0.18075000  0.30934600  0.02337500  1
loop_
_geom_bond_atom_site_label_1
_geom_bond_atom_site_label_2
_geom_bond_distance
_geom_bond_site_symmetry_2
Li0 O5 1.956720 1_555
Li0 O4 1.994106 1_555
Li0 O0 2.065117 1_555
Li0 O6 2.065446 1_555
Li0 O2 2.359804 1_555
Li1 O14 1.956720 1_555
Li1 O15 1.994106 1_555
Li1 O19 2.065117 1_555
Li1 O13 2.065446 1_555
Li1 O17 2.359804 1_555
Fe0 O3 1.956992 1_544
Fe0 O16 1.956992 1_455
Fe0 O4 2.015281 1_444
Fe0 O15 2.015281 1_555
Fe0 O0 2.101539 1_444
Fe0 O19 2.101539 1_555
Fe1 O6 1.998384 1_555
Fe1 O13 1.998384 1_555
Fe1 O10 2.042504 1_555
Fe1 O9 2.042504 1_555
Fe1 O5 2.043368 1_555
Fe1 O14 2.043368 1_555
H0 O19 0.987885 1_556
H1 O9 0.988316 1_555
H2 O10 0.988316 1_555
H3 O0 0.987885 1_554
O0 V0 2.002194 1_656
O1 P0 1.583167 1_555
O1 V0 1.942124 1_656
O2 P1 1.567515 1_455
O2 V0 1.969681 1_556
O3 P0 1.528524 1_565
O4 P0 1.540527 1_565
O5 P1 1.535926 1_555
O6 P1 1.544808 1_455
O7 P0 1.543146 1_555
O7 V1 1.932754 1_555
O8 P1 1.557636 1_555
O8 V1 1.988329 1_555
O9 V1 1.967686 1_555
O10 V1 1.967686 1_565
O11 P2 1.557636 1_555
O11 V1 1.988329 1_565
O12 P3 1.543146 1_555
O12 V1 1.932754 1_565
O13 P2 1.544808 1_655
O14 P2 1.535926 1_555
O15 P3 1.540527 1_545
O16 P3 1.528524 1_545
O17 P2 1.567515 1_655
O17 V0 1.969681 1_655
O18 P3 1.583167 1_555
O18 V0 1.942124 1_555
O19 V0 2.002194 1_555
