# generated using pymatgen
data_FeOF
_symmetry_space_group_name_H-M   'P 1'
_cell_length_a   9.25718614
_cell_length_b   9.27665652
_cell_length_c   3.04020923
_cell_angle_alpha   90.00000000
_cell_angle_beta   90.00000000
_cell_angle_gamma   90.20053271
_symmetry_Int_Tables_number   1
_chemical_formula_structural   FeOF
_chemical_formula_sum   'Fe8 O8 F8'
_cell_volume   261.07860675
_cell_formula_units_Z   8
loop_
 _symmetry_equiv_pos_site_id
 _symmetry_equiv_pos_as_xyz
  1  'x, y, z'
loop_
 _atom_site_type_symbol
 _atom_site_label
 _atom_site_symmetry_multiplicity
 _atom_site_fract_x
 _atom_site_fract_y
 _atom_site_fract_z
 _atom_site_occupancy
  Fe  Fe0  1  0.01855787  -0.00470947  0.00000000  1
  Fe  Fe1  1  0.00047930  0.50148511  0.00000000  1
  Fe  Fe2  1  0.21954231  0.25929833  0.50000000  1
  Fe  Fe3  1  0.22365262  0.73473021  0.50000000  1
  Fe  Fe4  1  0.51862452  0.49435434  0.00000000  1
  Fe  Fe5  1  0.50102041  0.00173996  0.00000000  1
  Fe  Fe6  1  0.76491855  0.27654092  0.50000000  1
  Fe  Fe7  1  0.75586473  0.72255036  0.50000000  1
  O  O0  1  0.08854551  0.41306801  0.50000000  1
  O  O1  1  0.09925723  0.89988016  0.50000000  1
  O  O2  1  0.14757400  0.15681218  0.00000000  1
  O  O3  1  0.14673194  0.64080942  0.00000000  1
  O  O4  1  0.59335642  0.39375617  0.50000000  1
  O  O5  1  0.65074058  0.65373110  0.00000000  1
  O  O6  1  0.85837393  0.35592682  0.00000000  1
  O  O7  1  0.91121954  0.59223417  0.50000000  1
  F  F0  1  0.34226885  0.35625158  0.00000000  1
  F  F1  1  0.35284623  0.84522998  0.00000000  1
  F  F2  1  0.40177459  0.10800923  0.50000000  1
  F  F3  1  0.39964198  0.59927159  0.50000000  1
  F  F4  1  0.60570192  0.90333391  0.50000000  1
  F  F5  1  0.65810836  0.14930680  0.00000000  1
  F  F6  1  0.84670745  0.85164606  0.00000000  1
  F  F7  1  0.89449316  0.09474203  0.50000000  1
loop_
_geom_bond_atom_site_label_1
_geom_bond_atom_site_label_2
_geom_bond_distance
_geom_bond_site_symmetry_2
Fe0 O1 1.912279 1_544
Fe0 O1 1.912279 1_545
Fe0 O2 1.912860 1_555
Fe1 O3 1.868482 1_555
Fe1 O6 1.881858 1_455
Fe1 O0 1.911224 1_554
Fe1 O0 1.911224 1_555
Fe1 O7 1.925372 1_454
Fe1 O7 1.925372 1_455
Fe2 O0 1.875492 1_555
Fe2 O2 1.911550 1_556
Fe2 O2 1.911550 1_555
Fe3 O3 1.890114 1_556
Fe3 O3 1.890114 1_555
Fe3 O1 1.919782 1_555
Fe4 O4 1.914347 1_555
Fe4 O4 1.914347 1_554
Fe4 O5 1.915474 1_555
Fe6 O6 1.896590 1_556
Fe6 O6 1.896590 1_555
Fe6 O4 1.927894 1_555
Fe7 O7 1.881987 1_555
Fe7 O5 1.913366 1_556
Fe7 O5 1.913366 1_555
F0 Fe4 2.071691 1_555
F0 Fe2 2.098385 1_554
F0 Fe2 2.098385 1_555
F1 Fe5 1.993875 1_565
F1 Fe3 2.187063 1_555
F1 Fe3 2.187063 1_554
F2 Fe5 2.032974 1_555
F2 Fe5 2.032974 1_556
F2 Fe2 2.198202 1_555
F3 Fe3 2.060962 1_555
F3 Fe4 2.116288 1_555
F3 Fe4 2.116288 1_556
F4 Fe5 2.022209 1_566
F4 Fe5 2.022209 1_565
F4 Fe7 2.182019 1_555
F5 Fe5 1.993665 1_555
F5 Fe6 2.161787 1_554
F5 Fe6 2.161787 1_555
F6 Fe0 2.071626 1_665
F6 Fe7 2.108329 1_555
F6 Fe7 2.108329 1_554
F7 Fe6 2.072966 1_555
F7 Fe0 2.118564 1_655
F7 Fe0 2.118564 1_656
