# generated using pymatgen
data_Fe10O11F9
_symmetry_space_group_name_H-M   'P 1'
_cell_length_a   4.70809700
_cell_length_b   4.71109409
_cell_length_c   15.43847503
_cell_angle_alpha   90.35922228
_cell_angle_beta   90.02343273
_cell_angle_gamma   90.43228610
_symmetry_Int_Tables_number   1
_chemical_formula_structural   Fe10O11F9
_chemical_formula_sum   'Fe10 O11 F9'
_cell_volume   342.41330980
_cell_formula_units_Z   1
loop_
 _symmetry_equiv_pos_site_id
 _symmetry_equiv_pos_as_xyz
  1  'x, y, z'
loop_
 _atom_site_type_symbol
 _atom_site_label
 _atom_site_symmetry_multiplicity
 _atom_site_fract_x
 _atom_site_fract_y
 _atom_site_fract_z
 _atom_site_occupancy
  Fe  Fe0  1  0.95659600  0.97795100  0.99485200  1
  Fe  Fe1  1  0.02692100  0.03196600  0.81120800  1
  Fe  Fe2  1  0.98174000  0.00053700  0.59680400  1
  Fe  Fe3  1  0.99800100  0.04292300  0.39906500  1
  Fe  Fe4  1  0.00237700  0.04509900  0.19694900  1
  Fe  Fe5  1  0.49365600  0.50585500  0.89806800  1
  Fe  Fe6  1  0.50799900  0.47143200  0.50662800  1
  Fe  Fe7  1  0.48661600  0.49571100  0.69447400  1
  Fe  Fe8  1  0.49342300  0.45839400  0.30166500  1
  Fe  Fe9  1  0.52034100  0.47584000  0.09889300  1
  O  O0  1  0.79104100  0.20026400  0.89906800  1
  O  O1  1  0.80805900  0.18715200  0.50153100  1
  O  O2  1  0.81713400  0.20232000  0.29877100  1
  O  O3  1  0.80485100  0.18048700  0.09603000  1
  O  O4  1  0.31585800  0.32706000  0.79855900  1
  O  O5  1  0.29473200  0.29418200  0.60337700  1
  O  O6  1  0.31556600  0.30606600  0.40327200  1
  O  O7  1  0.31873500  0.30807600  0.19718300  1
  O  O8  1  0.67393100  0.67575100  0.99756400  1
  O  O9  1  0.69347300  0.69369800  0.60324900  1
  O  O10  1  0.19042300  0.80234800  0.90101400  1
  F  F0  1  0.81085400  0.19862500  0.70406400  1
  F  F1  1  0.28920600  0.29194900  0.00004300  1
  F  F2  1  0.70236800  0.71267300  0.79441300  1
  F  F3  1  0.70584100  0.69920400  0.40179300  1
  F  F4  1  0.70944800  0.69904200  0.20008200  1
  F  F5  1  0.19735900  0.79810000  0.49931600  1
  F  F6  1  0.19039300  0.81817500  0.70231900  1
  F  F7  1  0.19542200  0.79352600  0.09956800  1
  F  F8  1  0.20763500  0.80559400  0.30018000  1
loop_
_geom_bond_atom_site_label_1
_geom_bond_atom_site_label_2
_geom_bond_distance
_geom_bond_site_symmetry_2
Fe0 O8 1.942144 1_555
Fe0 O3 1.962983 1_566
Fe0 O0 1.980399 1_565
Fe0 O10 1.998782 1_655
Fe1 O0 1.924285 1_455
Fe1 O10 1.927575 1_545
Fe1 O4 1.948449 1_555
Fe2 O1 1.905546 1_555
Fe2 O9 1.978328 1_545
Fe2 O5 2.015665 1_655
Fe3 O2 1.926051 1_555
Fe3 O6 1.935820 1_655
Fe3 O1 1.939256 1_555
Fe4 O3 1.928567 1_455
Fe4 O7 1.930142 1_555
Fe4 O2 1.943353 1_455
Fe5 O8 1.921921 1_555
Fe5 O4 1.934534 1_555
Fe5 O10 2.005161 1_555
Fe5 O0 2.015909 1_555
Fe6 O1 1.955226 1_555
Fe6 O5 1.985120 1_555
Fe6 O6 1.986569 1_555
Fe6 O9 2.012373 1_555
Fe7 O5 1.914362 1_555
Fe7 O9 1.950869 1_555
Fe7 O4 1.966521 1_555
Fe8 O6 1.919111 1_555
Fe8 O7 1.937943 1_555
Fe8 O2 1.951220 1_555
Fe9 O3 1.938997 1_555
Fe9 O7 1.957842 1_555
Fe9 O8 1.966277 1_554
F0 Fe2 2.062360 1_555
F0 Fe7 2.084656 1_555
F0 Fe1 2.101052 1_655
F1 Fe9 2.057065 1_555
F1 Fe5 2.104068 1_554
F1 Fe0 2.147175 1_444
F2 Fe7 2.102473 1_555
F2 Fe5 2.117116 1_555
F2 Fe1 2.150552 1_665
F3 Fe3 2.117362 1_565
F3 Fe8 2.153232 1_555
F3 Fe6 2.155577 1_555
F4 Fe9 2.074372 1_555
F4 Fe4 2.128234 1_665
F4 Fe8 2.187569 1_555
F5 Fe2 2.050163 1_465
F5 Fe6 2.134510 1_555
F5 Fe3 2.155049 1_465
F6 Fe7 2.073005 1_555
F6 Fe2 2.094208 1_465
F6 Fe1 2.103410 1_565
F7 Fe4 2.118017 1_565
F7 Fe9 2.148154 1_555
F7 Fe0 2.159547 1_454
F8 Fe8 2.126049 1_555
F8 Fe3 2.133381 1_465
F8 Fe4 2.187401 1_565
