# generated using pymatgen
data_LiFe2(PO4)2
_symmetry_space_group_name_H-M   'P 1'
_cell_length_a   5.24550400
_cell_length_b   8.53725000
_cell_length_c   8.77398828
_cell_angle_alpha   71.19135931
_cell_angle_beta   90.00000000
_cell_angle_gamma   90.00000000
_symmetry_Int_Tables_number   1
_chemical_formula_structural   LiFe2(PO4)2
_chemical_formula_sum   'Li2 Fe4 P4 O16'
_cell_volume   371.93673094
_cell_formula_units_Z   2
loop_
 _symmetry_equiv_pos_site_id
 _symmetry_equiv_pos_as_xyz
  1  'x, y, z'
loop_
 _atom_site_type_symbol
 _atom_site_label
 _atom_site_symmetry_multiplicity
 _atom_site_fract_x
 _atom_site_fract_y
 _atom_site_fract_z
 _atom_site_occupancy
  Li  Li0  1  0.82433200  0.09437100  0.03229800  1
  Li  Li1  1  0.17566800  0.59437100  0.03229800  1
  Fe  Fe0  1  0.80610100  0.33846200  0.26693300  1
  Fe  Fe1  1  0.31694100  0.50245300  0.74298800  1
  Fe  Fe2  1  0.19389900  0.83846200  0.26693300  1
  Fe  Fe3  1  0.68305900  0.00245300  0.74298800  1
  P  P0  1  0.31107700  0.23151600  0.12532500  1
  P  P1  1  0.81366600  0.35926400  0.63863400  1
  P  P2  1  0.68892300  0.73151600  0.12532500  1
  P  P3  1  0.18633400  0.85926400  0.63863400  1
  O  O0  1  0.18374000  0.07626000  0.10338300  1
  O  O1  1  0.34867100  0.99824100  0.66877200  1
  O  O2  1  0.60152300  0.20253400  0.15529700  1
  O  O3  1  0.18523800  0.28639400  0.25744300  1
  O  O4  1  0.78407700  0.19954900  0.79119100  1
  O  O5  1  0.72558000  0.30785000  0.49625900  1
  O  O6  1  0.09445100  0.41811800  0.62094100  1
  O  O7  1  0.81626000  0.57626000  0.10338300  1
  O  O8  1  0.27250800  0.38095600  0.96413900  1
  O  O9  1  0.65132900  0.49824100  0.66877200  1
  O  O10  1  0.39847700  0.70253400  0.15529700  1
  O  O11  1  0.81476200  0.78639400  0.25744300  1
  O  O12  1  0.21592300  0.69954900  0.79119100  1
  O  O13  1  0.27442000  0.80785000  0.49625900  1
  O  O14  1  0.90554900  0.91811800  0.62094100  1
  O  O15  1  0.72749200  0.88095600  0.96413900  1
loop_
_geom_bond_atom_site_label_1
_geom_bond_atom_site_label_2
_geom_bond_distance
_geom_bond_site_symmetry_2
Li0 O0 1.976105 1_655
Li0 O2 2.006465 1_555
Li0 O4 2.025147 1_554
Li0 O15 2.153569 1_544
Li1 O7 1.976105 1_455
Li1 O10 2.006465 1_555
Li1 O12 2.025147 1_554
Li1 O8 2.153569 1_554
Fe0 O5 1.989016 1_555
Fe0 O3 2.045380 1_655
Fe0 O2 2.047086 1_555
Fe0 O7 2.074850 1_555
Fe1 O9 1.875380 1_555
Fe1 O6 1.877308 1_555
Fe1 O8 1.896702 1_555
Fe1 O12 1.936460 1_555
Fe2 O13 1.989016 1_555
Fe2 O11 2.045380 1_455
Fe2 O10 2.047086 1_555
Fe2 O0 2.074850 1_565
Fe3 O1 1.875380 1_545
Fe3 O14 1.877308 1_545
Fe3 O15 1.896702 1_545
Fe3 O4 1.936460 1_555
O0 P0 1.550677 1_555
O1 P3 1.550834 1_555
O2 P0 1.552282 1_555
O3 P0 1.532698 1_555
O4 P1 1.580536 1_555
O5 P1 1.523225 1_555
O6 P1 1.547764 1_455
O7 P2 1.550677 1_555
O8 P0 1.582800 1_556
O9 P1 1.550834 1_555
O10 P2 1.552282 1_555
O11 P2 1.532698 1_555
O12 P3 1.580536 1_555
O13 P3 1.523225 1_555
O14 P3 1.547764 1_655
O15 P2 1.582800 1_556
