# generated using pymatgen
data_Rb17Fe5O16
_symmetry_space_group_name_H-M   'P 1'
_cell_length_a   18.79569058
_cell_length_b   18.79569058
_cell_length_c   7.00865662
_cell_angle_alpha   84.75852423
_cell_angle_beta   84.75852423
_cell_angle_gamma   158.60885963
_symmetry_Int_Tables_number   1
_chemical_formula_structural   Rb17Fe5O16
_chemical_formula_sum   'Rb17 Fe5 O16'
_cell_volume   786.09912887
_cell_formula_units_Z   1
loop_
 _symmetry_equiv_pos_site_id
 _symmetry_equiv_pos_as_xyz
  1  'x, y, z'
loop_
 _atom_site_type_symbol
 _atom_site_label
 _atom_site_symmetry_multiplicity
 _atom_site_fract_x
 _atom_site_fract_y
 _atom_site_fract_z
 _atom_site_occupancy
  Rb  Rb0  1  0.40371823  0.68254483  0.05515719  1
  Rb  Rb1  1  0.49182749  0.58484833  0.07150915  1
  Rb  Rb2  1  0.31493641  0.78404150  0.06953189  1
  Rb  Rb3  1  0.07862824  0.91319664  0.19547236  1
  Rb  Rb4  1  0.16729344  0.83468803  0.46470316  1
  Rb  Rb5  1  0.31818723  0.59212954  0.60019231  1
  Rb  Rb6  1  0.21859755  0.67143234  0.60953005  1
  Rb  Rb7  1  0.41175020  0.50294494  0.61205932  1
  Rb  Rb8  1  0.68254483  0.40371823  0.05515719  1
  Rb  Rb9  1  0.58484833  0.49182749  0.07150915  1
  Rb  Rb10  1  0.78404150  0.31493641  0.06953189  1
  Rb  Rb11  1  0.91319664  0.07862824  0.19547236  1
  Rb  Rb12  1  0.83468803  0.16729344  0.46470316  1
  Rb  Rb13  1  0.59212954  0.31818723  0.60019231  1
  Rb  Rb14  1  0.67143234  0.21859755  0.60953005  1
  Rb  Rb15  1  0.50294494  0.41175020  0.61205932  1
  Rb  Rb16  1  0.00052494  0.00052494  0.48650214  1
  Fe  Fe0  1  0.99790469  0.99790469  0.98946943  1
  Fe  Fe1  1  0.08646757  0.90876459  0.69142652  1
  Fe  Fe2  1  0.17600991  0.81996531  0.98344945  1
  Fe  Fe3  1  0.90876459  0.08646757  0.69142652  1
  Fe  Fe4  1  0.81996531  0.17600991  0.98344945  1
  O  O0  1  0.07075303  0.44339912  -0.00136862  1
  O  O1  1  0.15980847  0.34349711  0.41717094  1
  O  O2  1  0.44339912  0.07075303  -0.00136862  1
  O  O3  1  0.25501121  0.25501121  0.00886726  1
  O  O4  1  0.55697592  0.92619929  0.25556431  1
  O  O5  1  0.20575920  0.78307421  0.78149916  1
  O  O6  1  0.04063094  0.95506218  0.82906826  1
  O  O7  1  0.12872086  0.87278084  0.87312931  1
  O  O8  1  0.34349711  0.15980847  0.41717094  1
  O  O9  1  0.64954912  0.83339925  0.67111843  1
  O  O10  1  0.92619929  0.55697592  0.25556431  1
  O  O11  1  0.74297531  0.74297531  0.26323478  1
  O  O12  1  0.78307421  0.20575920  0.78149916  1
  O  O13  1  0.95506218  0.04063094  0.82906826  1
  O  O14  1  0.87278084  0.12872086  0.87312931  1
  O  O15  1  0.83339925  0.64954912  0.67111843  1
loop_
_geom_bond_atom_site_label_1
_geom_bond_atom_site_label_2
_geom_bond_distance
_geom_bond_site_symmetry_2
Fe0 O3 1.864411 1_666
Fe0 O11 1.866873 1_556
Fe0 O13 1.939556 1_565
Fe0 O6 1.939556 1_655
Fe1 O15 1.864650 1_455
Fe1 O8 1.869301 1_565
Fe1 O7 1.933294 1_555
Fe1 O6 1.956458 1_555
Fe2 O10 1.880902 1_456
Fe2 O5 1.885084 1_555
Fe2 O2 1.887313 1_566
Fe2 O7 2.000441 1_555
Fe3 O9 1.864650 1_545
Fe3 O1 1.869301 1_655
Fe3 O14 1.933294 1_555
Fe3 O13 1.956458 1_555
Fe4 O4 1.880902 1_546
Fe4 O12 1.885084 1_555
Fe4 O0 1.887313 1_656
Fe4 O14 2.000441 1_555
O0 Rb6 2.798112 1_554
O0 Rb0 2.814354 1_555
O0 Rb2 2.929252 1_555
O0 Rb12 2.943430 1_455
O0 Rb5 3.038428 1_554
O0 Rb10 3.190328 1_455
O1 Rb1 2.811305 1_555
O1 Rb5 2.869262 1_555
O1 Rb11 2.905275 1_455
O1 Rb0 2.929315 1_555
O1 Rb7 2.961924 1_555
O1 Rb12 3.187502 1_455
O2 Rb14 2.798112 1_554
O2 Rb8 2.814354 1_555
O2 Rb10 2.929252 1_555
O2 Rb4 2.943430 1_545
O2 Rb13 3.038428 1_554
O2 Rb2 3.190328 1_545
O3 Rb9 2.811735 1_555
O3 Rb1 2.811735 1_555
O3 Rb16 2.916744 1_555
O3 Rb15 2.949428 1_554
O3 Rb7 2.949428 1_554
O4 Rb6 2.786925 1_555
O4 Rb5 2.858736 1_555
O4 Rb12 2.914207 1_565
O4 Rb0 2.931168 1_555
O4 Rb2 2.935882 1_555
O5 Rb6 2.695557 1_555
O5 Rb4 2.756724 1_555
O5 Rb14 2.813396 1_565
O5 Rb10 2.876926 1_456
O5 Rb2 2.996769 1_556
O6 Rb15 2.793016 1_565
O6 Rb9 2.796565 1_456
O6 Rb16 2.866749 1_565
O6 Rb3 2.955726 1_556
O7 Rb3 2.797196 1_556
O7 Rb13 2.801780 1_565
O7 Rb8 2.826549 1_456
O7 Rb4 3.192836 1_555
O8 Rb9 2.811305 1_555
O8 Rb13 2.869262 1_555
O8 Rb3 2.905275 1_545
O8 Rb8 2.929315 1_555
O8 Rb15 2.961924 1_555
O8 Rb4 3.187502 1_545
O9 Rb7 2.799427 1_555
O9 Rb5 2.825481 1_555
O9 Rb11 2.924767 1_565
O9 Rb0 2.927425 1_556
O9 Rb1 2.963479 1_556
O9 Rb12 3.215667 1_565
O10 Rb14 2.786925 1_555
O10 Rb13 2.858736 1_555
O10 Rb4 2.914207 1_655
O10 Rb8 2.931168 1_555
O10 Rb10 2.935882 1_555
O11 Rb7 2.826424 1_555
O11 Rb15 2.826424 1_555
O11 Rb16 2.906058 1_665
O11 Rb9 2.946877 1_555
O11 Rb1 2.946877 1_555
O12 Rb14 2.695557 1_555
O12 Rb12 2.756724 1_555
O12 Rb6 2.813396 1_655
O12 Rb2 2.876926 1_546
O12 Rb10 2.996769 1_556
O13 Rb7 2.793016 1_655
O13 Rb1 2.796565 1_546
O13 Rb16 2.866749 1_655
O13 Rb11 2.955726 1_556
O14 Rb11 2.797196 1_556
O14 Rb5 2.801780 1_655
O14 Rb0 2.826549 1_546
O14 Rb12 3.192836 1_555
O15 Rb15 2.799427 1_555
O15 Rb13 2.825481 1_555
O15 Rb3 2.924767 1_655
O15 Rb8 2.927425 1_556
O15 Rb9 2.963479 1_556
O15 Rb4 3.215667 1_655
