# generated using pymatgen
data_LiCoSiO4
_symmetry_space_group_name_H-M   'P 1'
_cell_length_a   5.59434300
_cell_length_b   5.00828500
_cell_length_c   7.82458998
_cell_angle_alpha   50.60622570
_cell_angle_beta   90.00000000
_cell_angle_gamma   90.00000000
_symmetry_Int_Tables_number   1
_chemical_formula_structural   LiCoSiO4
_chemical_formula_sum   'Li2 Co2 Si2 O8'
_cell_volume   169.42139533
_cell_formula_units_Z   2
loop_
 _symmetry_equiv_pos_site_id
 _symmetry_equiv_pos_as_xyz
  1  'x, y, z'
loop_
 _atom_site_type_symbol
 _atom_site_label
 _atom_site_symmetry_multiplicity
 _atom_site_fract_x
 _atom_site_fract_y
 _atom_site_fract_z
 _atom_site_occupancy
  Li  Li0  1  0.66131400  0.28006200  0.74756000  1
  Li  Li1  1  0.33868600  0.28006200  0.24756000  1
  Co  Co0  1  0.83414200  0.52193900  0.00063900  1
  Co  Co1  1  0.16585800  0.52193900  0.50063900  1
  Si  Si0  1  0.15608300  0.02173200  0.99669300  1
  Si  Si1  1  0.84391700  0.02173200  0.49669300  1
  O  O0  1  0.88788400  0.17702100  0.97575900  1
  O  O1  1  0.13176300  0.67720500  0.01482800  1
  O  O2  1  0.31547500  0.31030300  0.77276400  1
  O  O3  1  0.71290500  0.90471000  0.72438200  1
  O  O4  1  0.86823700  0.67720500  0.51482800  1
  O  O5  1  0.11211600  0.17702100  0.47575900  1
  O  O6  1  0.68452500  0.31030300  0.27276400  1
  O  O7  1  0.28709500  0.90471000  0.22438200  1
loop_
_geom_bond_atom_site_label_1
_geom_bond_atom_site_label_2
_geom_bond_distance
_geom_bond_site_symmetry_2
Li0 O2 1.960349 1_555
Li0 O0 1.972698 1_555
Li0 O4 2.003722 1_555
Li0 O3 2.020604 1_545
Li1 O6 1.960349 1_555
Li1 O5 1.972698 1_555
Li1 O1 2.003722 1_555
Li1 O7 2.020604 1_545
Co0 O6 1.869004 1_555
Co0 O1 1.870508 1_655
Co0 O0 1.881281 1_554
Co0 O3 1.883550 1_554
Co1 O2 1.869004 1_555
Co1 O4 1.870508 1_455
Co1 O5 1.881281 1_555
Co1 O7 1.883550 1_555
O0 Si0 1.649603 1_655
O1 Si0 1.644743 1_564
O2 Si0 1.655195 1_555
O3 Si1 1.652074 1_565
O4 Si1 1.644743 1_565
O5 Si1 1.649603 1_455
O6 Si1 1.655195 1_555
O7 Si0 1.652074 1_564
