# generated using pymatgen
data_HfMnO3
_symmetry_space_group_name_H-M   'P 1'
_cell_length_a   5.41102000
_cell_length_b   5.60651500
_cell_length_c   7.90669700
_cell_angle_alpha   89.99998253
_cell_angle_beta   89.99993200
_cell_angle_gamma   90.00065527
_symmetry_Int_Tables_number   1
_chemical_formula_structural   HfMnO3
_chemical_formula_sum   'Hf4 Mn4 O12'
_cell_volume   239.86518853
_cell_formula_units_Z   4
loop_
 _symmetry_equiv_pos_site_id
 _symmetry_equiv_pos_as_xyz
  1  'x, y, z'
loop_
 _atom_site_type_symbol
 _atom_site_label
 _atom_site_symmetry_multiplicity
 _atom_site_fract_x
 _atom_site_fract_y
 _atom_site_fract_z
 _atom_site_occupancy
  Hf  Hf0  1  0.00000100  0.50000100  0.99999900  1
  Hf  Hf1  1  0.00000100  0.50000000  0.50000000  1
  Hf  Hf2  1  0.50000200  0.00000000  0.00000000  1
  Hf  Hf3  1  0.50000200  0.00000100  0.50000000  1
  Mn  Mn0  1  0.49141900  0.45508300  0.75000700  1
  Mn  Mn1  1  0.50855200  0.54491300  0.24999600  1
  Mn  Mn2  1  0.00840800  0.95529000  0.75000200  1
  Mn  Mn3  1  0.99159800  0.04470500  0.24999800  1
  O  O0  1  0.12374600  0.43885000  0.24999900  1
  O  O1  1  0.37624700  0.93885600  0.25000000  1
  O  O2  1  0.62375500  0.06114500  0.75000000  1
  O  O3  1  0.87625800  0.56115300  0.75000000  1
  O  O4  1  0.18178400  0.18655200  0.56627300  1
  O  O5  1  0.18178500  0.18655400  0.93372700  1
  O  O6  1  0.31821000  0.68656600  0.56627300  1
  O  O7  1  0.31821100  0.68656600  0.93372500  1
  O  O8  1  0.68179300  0.31343500  0.06627400  1
  O  O9  1  0.68179300  0.31343500  0.43372500  1
  O  O10  1  0.81821800  0.81344700  0.06627400  1
  O  O11  1  0.81821900  0.81344700  0.43372700  1
loop_
_geom_bond_atom_site_label_1
_geom_bond_atom_site_label_2
_geom_bond_distance
_geom_bond_site_symmetry_2
Hf0 O10 2.080963 1_456
Hf0 O5 2.080964 1_555
Hf0 O8 2.081666 1_456
Hf0 O7 2.081670 1_555
Hf0 O3 2.114969 1_455
Hf0 O0 2.114979 1_556
Hf1 O11 2.080961 1_455
Hf1 O4 2.080968 1_555
Hf1 O9 2.081664 1_455
Hf1 O6 2.081667 1_555
Hf1 O3 2.114976 1_455
Hf1 O0 2.114984 1_555
Hf2 O7 2.080908 1_544
Hf2 O8 2.080911 1_555
Hf2 O10 2.081684 1_545
Hf2 O5 2.081689 1_554
Hf2 O2 2.114984 1_554
Hf2 O1 2.114986 1_545
Hf3 O9 2.080907 1_555
Hf3 O6 2.080910 1_545
Hf3 O4 2.081684 1_555
Hf3 O11 2.081688 1_545
Hf3 O2 2.114984 1_555
Hf3 O1 2.114989 1_545
Mn0 O7 2.161666 1_555
Mn0 O6 2.161755 1_555
Mn0 O3 2.165616 1_555
Mn0 O2 2.321809 1_555
Mn0 O5 2.680240 1_555
Mn0 O4 2.680312 1_555
Mn0 O8 2.818684 1_556
Mn0 O9 2.818788 1_555
Mn1 O8 2.161748 1_555
Mn1 O9 2.161786 1_555
Mn1 O0 2.165433 1_555
Mn1 O1 2.321784 1_555
Mn1 O10 2.680373 1_555
Mn1 O11 2.680417 1_555
Mn1 O7 2.818655 1_554
Mn1 O6 2.818697 1_555
Mn2 O5 2.161352 1_565
Mn2 O4 2.161362 1_565
Mn2 O2 2.164330 1_465
Mn2 O3 2.322544 1_455
Mn2 O7 2.681462 1_555
Mn2 O6 2.681483 1_555
Mn2 O10 2.818655 1_456
Mn2 O11 2.818677 1_455
Mn3 O10 2.161334 1_545
Mn3 O11 2.161356 1_545
Mn3 O1 2.164300 1_645
Mn3 O0 2.322584 1_655
Mn3 O8 2.681492 1_555
Mn3 O9 2.681504 1_555
Mn3 O5 2.818651 1_654
Mn3 O4 2.818677 1_655
