# generated using pymatgen
data_Li3BiH8O7
_symmetry_space_group_name_H-M   'P 1'
_cell_length_a   6.46780700
_cell_length_b   7.06820634
_cell_length_c   8.05449052
_cell_angle_alpha   92.58688277
_cell_angle_beta   91.35367229
_cell_angle_gamma   115.79623462
_symmetry_Int_Tables_number   1
_chemical_formula_structural   Li3BiH8O7
_chemical_formula_sum   'Li6 Bi2 H16 O14'
_cell_volume   330.80236934
_cell_formula_units_Z   2
loop_
 _symmetry_equiv_pos_site_id
 _symmetry_equiv_pos_as_xyz
  1  'x, y, z'
loop_
 _atom_site_type_symbol
 _atom_site_label
 _atom_site_symmetry_multiplicity
 _atom_site_fract_x
 _atom_site_fract_y
 _atom_site_fract_z
 _atom_site_occupancy
  Li  Li0  1  0.02544300  0.34202100  0.38550300  1
  Li  Li1  1  0.32307900  0.83751700  0.37010600  1
  Li  Li2  1  0.21197300  0.11010000  0.60013100  1
  Li  Li3  1  0.78802700  0.88990000  0.39986900  1
  Li  Li4  1  0.67692100  0.16248300  0.62989400  1
  Li  Li5  1  0.97455700  0.65797900  0.61449700  1
  Bi  Bi0  1  0.46432500  0.62078300  0.67940300  1
  Bi  Bi1  1  0.53567500  0.37921700  0.32059700  1
  H  H0  1  0.98492100  0.31818600  0.03230400  1
  H  H1  1  0.01580900  0.33505800  0.74072500  1
  H  H2  1  0.32077000  0.93410900  0.75648700  1
  H  H3  1  0.37919300  0.83417500  0.06575600  1
  H  H4  1  0.17803800  0.54731200  0.10067200  1
  H  H5  1  0.12581700  0.03267300  0.25625000  1
  H  H6  1  0.21376300  0.02736000  0.96980700  1
  H  H7  1  0.23656300  0.25824200  0.96327000  1
  H  H8  1  0.76343700  0.74175800  0.03673000  1
  H  H9  1  0.78623700  0.97264000  0.03019300  1
  H  H10  1  0.87418300  0.96732700  0.74375000  1
  H  H11  1  0.82196200  0.45268800  0.89932800  1
  H  H12  1  0.62080700  0.16582500  0.93424400  1
  H  H13  1  0.67923000  0.06589100  0.24351300  1
  H  H14  1  0.98419100  0.66494200  0.25927500  1
  H  H15  1  0.01507900  0.68181400  0.96769600  1
  O  O0  1  0.22696900  0.81599000  0.09882600  1
  O  O1  1  0.07021300  0.39050300  0.63220200  1
  O  O2  1  0.32157600  0.88146400  0.64270600  1
  O  O3  1  0.13728600  0.39332100  0.09967100  1
  O  O4  1  0.16310000  0.11405700  0.36306400  1
  O  O5  1  0.44805100  0.63843600  0.41629800  1
  O  O6  1  0.24984000  0.14384400  0.89361700  1
  O  O7  1  0.75016000  0.85615600  0.10638300  1
  O  O8  1  0.55194900  0.36156400  0.58370200  1
  O  O9  1  0.83690000  0.88594300  0.63693600  1
  O  O10  1  0.86271400  0.60667900  0.90032900  1
  O  O11  1  0.67842400  0.11853600  0.35729400  1
  O  O12  1  0.92978700  0.60949700  0.36779800  1
  O  O13  1  0.77303100  0.18401000  0.90117400  1
loop_
_geom_bond_atom_site_label_1
_geom_bond_atom_site_label_2
_geom_bond_distance
_geom_bond_site_symmetry_2
Li0 O1 1.993633 1_555
Li0 O11 2.107657 1_455
Li0 O4 2.156747 1_555
Li0 O12 2.239546 1_455
Li0 O3 2.425031 1_555
Li0 O5 2.618990 1_555
Li1 O5 1.948022 1_555
Li1 O2 2.204439 1_555
Li1 O0 2.237718 1_555
Li1 O11 2.301026 1_565
Li1 O12 2.344225 1_455
Li1 O4 2.581080 1_565
Li2 O4 1.931506 1_555
Li2 O2 2.065752 1_545
Li2 O8 2.155275 1_555
Li2 O9 2.283486 1_445
Li2 O6 2.361294 1_555
Li2 O1 2.526275 1_555
Li3 O9 1.931506 1_555
Li3 O11 2.065752 1_565
Li3 O5 2.155275 1_555
Li3 O4 2.283486 1_665
Li3 O7 2.361294 1_555
Li3 O12 2.526275 1_555
Li4 O8 1.948022 1_555
Li4 O11 2.204439 1_555
Li4 O13 2.237718 1_555
Li4 O2 2.301026 1_545
Li4 O1 2.344225 1_655
Li4 O9 2.581080 1_545
Li5 O12 1.993633 1_555
Li5 O2 2.107657 1_655
Li5 O9 2.156747 1_555
Li5 O1 2.239546 1_655
Li5 O10 2.425031 1_555
Li5 O8 2.618990 1_555
Bi0 O5 2.131272 1_555
Bi0 O8 2.251502 1_555
Bi0 O1 2.361938 1_555
Bi0 O9 2.366968 1_555
Bi0 O2 2.419019 1_555
Bi1 O8 2.131272 1_555
Bi1 O5 2.251502 1_555
Bi1 O12 2.361938 1_555
Bi1 O4 2.366968 1_555
Bi1 O11 2.419019 1_555
H0 O3 1.020211 1_655
H0 O13 1.613417 1_554
H1 O1 0.983301 1_555
H1 Li4 2.138069 1_455
H2 O2 0.974422 1_555
H2 Li2 2.118948 1_565
H3 O0 0.980897 1_555
H4 O3 1.001827 1_555
H5 O4 0.976738 1_555
H6 O6 0.997038 1_555
H7 O6 0.998846 1_555
H8 O7 0.998846 1_555
H9 O7 0.997038 1_555
H10 O9 0.976738 1_555
H11 O10 1.001827 1_555
H12 O13 0.980897 1_555
H13 O11 0.974422 1_555
H13 Li3 2.118948 1_545
H14 O12 0.983301 1_555
H14 Li1 2.138069 1_655
H15 O10 1.020211 1_455
H15 O0 1.613417 1_556
