# generated using pymatgen
data_V3Fe2CuO12
_symmetry_space_group_name_H-M   'P 1'
_cell_length_a   6.70119400
_cell_length_b   8.23748110
_cell_length_c   9.98729956
_cell_angle_alpha   107.14189060
_cell_angle_beta   102.66572407
_cell_angle_gamma   102.24645147
_symmetry_Int_Tables_number   1
_chemical_formula_structural   V3Fe2CuO12
_chemical_formula_sum   'V6 Fe4 Cu2 O24'
_cell_volume   490.83269153
_cell_formula_units_Z   2
loop_
 _symmetry_equiv_pos_site_id
 _symmetry_equiv_pos_as_xyz
  1  'x, y, z'
loop_
 _atom_site_type_symbol
 _atom_site_label
 _atom_site_symmetry_multiplicity
 _atom_site_fract_x
 _atom_site_fract_y
 _atom_site_fract_z
 _atom_site_occupancy
  V  V0  1  0.22920800  0.16767200  0.76469800  1
  V  V1  1  0.40989200  0.22504700  0.37862500  1
  V  V2  1  0.88006400  0.39832400  0.16681000  1
  V  V3  1  0.11993600  0.60167600  0.83319000  1
  V  V4  1  0.59010800  0.77495300  0.62137500  1
  V  V5  1  0.77079200  0.83232800  0.23530200  1
  Fe  Fe0  1  0.95223500  0.29455800  0.48459600  1
  Fe  Fe1  1  0.62253200  0.56201700  0.89409200  1
  Fe  Fe2  1  0.37746800  0.43798300  0.10590800  1
  Fe  Fe3  1  0.04776500  0.70544200  0.51540400  1
  Cu  Cu0  1  0.74866200  0.23558900  0.73446100  1
  Cu  Cu1  1  0.25133800  0.76441100  0.26553900  1
  O  O0  1  0.82087700  0.05239800  0.32551300  1
  O  O1  1  0.22753400  0.20529800  0.94132900  1
  O  O2  1  0.99972100  0.23082000  0.67583900  1
  O  O3  1  0.32208400  0.99679700  0.28147100  1
  O  O4  1  0.49435900  0.28255500  0.76747100  1
  O  O5  1  0.66144500  0.27858100  0.50679500  1
  O  O6  1  0.84073800  0.18983400  0.07711100  1
  O  O7  1  0.86810800  0.48190800  0.84759300  1
  O  O8  1  0.23500000  0.28173100  0.47626100  1
  O  O9  1  0.91998400  0.43865100  0.35751700  1
  O  O10  1  0.33567600  0.53127200  0.92070400  1
  O  O11  1  0.42549600  0.33754100  0.25636000  1
  O  O12  1  0.57450400  0.66245900  0.74364000  1
  O  O13  1  0.66432400  0.46872800  0.07929600  1
  O  O14  1  0.08001600  0.56134900  0.64248300  1
  O  O15  1  0.76500000  0.71826900  0.52373900  1
  O  O16  1  0.13189200  0.51809200  0.15240700  1
  O  O17  1  0.15926200  0.81016600  0.92288900  1
  O  O18  1  0.33855500  0.72141900  0.49320500  1
  O  O19  1  0.50564100  0.71744500  0.23252900  1
  O  O20  1  0.67791600  0.00320300  0.71852900  1
  O  O21  1  0.00027900  0.76918000  0.32416100  1
  O  O22  1  0.77246600  0.79470200  0.05867100  1
  O  O23  1  0.17912300  0.94760200  0.67448700  1
loop_
_geom_bond_atom_site_label_1
_geom_bond_atom_site_label_2
_geom_bond_distance
_geom_bond_site_symmetry_2
Fe0 O8 1.938434 1_655
Fe0 O9 1.985691 1_555
Fe0 O5 1.990359 1_555
Fe0 O0 2.012924 1_555
Fe0 O2 2.102505 1_555
Fe0 O14 2.148553 1_655
Fe1 O12 1.918268 1_555
Fe1 O10 1.971579 1_555
Fe1 O7 1.993613 1_555
Fe1 O22 1.996682 1_556
Fe1 O4 2.145976 1_555
Fe1 O13 2.189144 1_556
Fe2 O11 1.918268 1_555
Fe2 O13 1.971579 1_555
Fe2 O16 1.993613 1_555
Fe2 O1 1.996682 1_554
Fe2 O19 2.145976 1_555
Fe2 O10 2.189144 1_554
Fe3 O15 1.938434 1_455
Fe3 O14 1.985691 1_555
Fe3 O18 1.990359 1_555
Fe3 O23 2.012924 1_555
Fe3 O21 2.102505 1_555
Fe3 O9 2.148553 1_455
Cu0 O20 1.821232 1_555
Cu0 O7 1.896662 1_555
Cu0 O4 1.900874 1_555
Cu0 O2 1.902947 1_555
Cu0 O5 2.369969 1_555
Cu1 O3 1.821232 1_555
Cu1 O16 1.896662 1_555
Cu1 O19 1.900874 1_555
Cu1 O21 1.902947 1_555
Cu1 O18 2.369969 1_555
O0 V5 1.690324 1_545
O1 V0 1.701755 1_555
O2 V0 1.853679 1_655
O3 V1 1.740042 1_565
O4 V0 1.817438 1_555
O5 V1 1.755071 1_555
O6 V2 1.618359 1_555
O7 V3 1.823639 1_655
O8 V1 1.734172 1_555
O9 V2 1.781992 1_555
O10 V3 1.814041 1_555
O11 V1 1.744315 1_555
O12 V4 1.744315 1_555
O13 V2 1.814041 1_555
O14 V3 1.781992 1_555
O15 V4 1.734172 1_555
O16 V2 1.823639 1_455
O17 V3 1.618359 1_555
O18 V4 1.755071 1_555
O19 V5 1.817438 1_555
O20 V4 1.740042 1_545
O21 V5 1.853679 1_455
O22 V5 1.701755 1_555
O23 V0 1.690324 1_565
