# generated using pymatgen
data_Li3Mn(NiO3)2
_symmetry_space_group_name_H-M   'P 1'
_cell_length_a   2.88999747
_cell_length_b   12.91675155
_cell_length_c   5.89424881
_cell_angle_alpha   76.78926612
_cell_angle_beta   90.01500568
_cell_angle_gamma   90.00241921
_symmetry_Int_Tables_number   1
_chemical_formula_structural   Li3Mn(NiO3)2
_chemical_formula_sum   'Li6 Mn2 Ni4 O12'
_cell_volume   214.20582727
_cell_formula_units_Z   2
loop_
 _symmetry_equiv_pos_site_id
 _symmetry_equiv_pos_as_xyz
  1  'x, y, z'
loop_
 _atom_site_type_symbol
 _atom_site_label
 _atom_site_symmetry_multiplicity
 _atom_site_fract_x
 _atom_site_fract_y
 _atom_site_fract_z
 _atom_site_occupancy
  Li  Li0  1  0.00000000  0.66669700  0.16666300  1
  Li  Li1  1  0.50000000  0.16663200  0.16667800  1
  Li  Li2  1  0.99999900  0.99790200  0.49451900  1
  Li  Li3  1  0.50000000  0.49793800  0.49457200  1
  Li  Li4  1  0.00000100  0.33541100  0.83879500  1
  Li  Li5  1  0.50000100  0.83540600  0.83879000  1
  Mn  Mn0  1  0.49997200  0.16670100  0.66663400  1
  Mn  Mn1  1  0.00002800  0.66665100  0.66669500  1
  Ni  Ni0  1  0.99997300  0.99810800  0.00462000  1
  Ni  Ni1  1  0.00002400  0.33519700  0.32868400  1
  Ni  Ni2  1  0.49997300  0.49811600  0.00465300  1
  Ni  Ni3  1  0.50003000  0.83522300  0.32869700  1
  O  O0  1  0.00017600  0.51244600  0.75557300  1
  O  O1  1  0.50017100  0.01247900  0.75547700  1
  O  O2  1  0.99983100  0.82084700  0.57787100  1
  O  O3  1  0.49982200  0.32090600  0.57775000  1
  O  O4  1  0.00018900  0.83325100  0.09577400  1
  O  O5  1  0.50018900  0.33328500  0.09579800  1
  O  O6  1  0.99981000  0.50005700  0.23749000  1
  O  O7  1  0.49981300  0.00007300  0.23760300  1
  O  O8  1  0.99994100  0.16457100  0.44668700  1
  O  O9  1  0.49995300  0.66452700  0.44662400  1
  O  O10  1  0.00004500  0.16882500  0.88658800  1
  O  O11  1  0.50006100  0.66875400  0.88677100  1
loop_
_geom_bond_atom_site_label_1
_geom_bond_atom_site_label_2
_geom_bond_distance
_geom_bond_site_symmetry_2
Li0 O4 2.095704 1_555
Li0 O6 2.096807 1_455
Li0 O11 2.188292 1_454
Li0 O9 2.188391 1_555
Li0 O11 2.189094 1_554
Li0 O9 2.189140 1_455
Li1 O7 2.095760 1_555
Li1 O5 2.096961 1_555
Li1 O8 2.188806 1_555
Li1 O10 2.188919 1_554
Li1 O8 2.189600 1_455
Li1 O10 2.189659 1_654
Li2 O7 2.088582 1_665
Li2 O7 2.088778 1_565
Li2 O8 2.106350 1_565
Li2 O1 2.149769 1_565
Li2 O1 2.149885 1_665
Li2 O2 2.226674 1_555
Li3 O6 2.089383 1_555
Li3 O6 2.089595 1_455
Li3 O9 2.105258 1_555
Li3 O0 2.149724 1_555
Li3 O0 2.149856 1_655
Li3 O3 2.226398 1_555
Li4 O5 2.089037 1_456
Li4 O5 2.089241 1_556
Li4 O10 2.105310 1_555
Li4 O3 2.149899 1_555
Li4 O3 2.150042 1_455
Li4 O0 2.226433 1_555
Li5 O4 2.088899 1_556
Li5 O4 2.089103 1_656
Li5 O11 2.106045 1_555
Li5 O2 2.149545 1_555
Li5 O2 2.149654 1_455
Li5 O1 2.226904 1_565
Mn0 O3 1.940333 1_555
Mn0 O1 1.940536 1_555
Mn0 O8 1.945525 1_455
Mn0 O10 1.945630 1_655
Mn0 O10 1.945822 1_555
Mn0 O8 1.945898 1_555
Mn1 O2 1.940208 1_455
Mn1 O0 1.940332 1_555
Mn1 O11 1.945980 1_555
Mn1 O9 1.946095 1_455
Mn1 O9 1.946280 1_555
Mn1 O11 1.946345 1_455
Ni0 O7 1.997013 1_665
Ni0 O7 1.998204 1_565
Ni0 O1 2.037564 1_564
Ni0 O1 2.038910 1_664
Ni0 O4 2.073683 1_655
Ni0 O10 2.155302 1_664
Ni1 O5 1.996492 1_455
Ni1 O5 1.997704 1_555
Ni1 O3 2.037314 1_555
Ni1 O3 2.038676 1_455
Ni1 O6 2.073726 1_455
Ni1 O8 2.154171 1_455
Ni2 O6 1.996360 1_555
Ni2 O6 1.997564 1_455
Ni2 O0 2.037333 1_554
Ni2 O0 2.038699 1_654
Ni2 O5 2.073357 1_555
Ni2 O11 2.154254 1_554
Ni3 O4 1.996786 1_555
Ni3 O4 1.997973 1_655
Ni3 O2 2.037685 1_555
Ni3 O2 2.039035 1_455
Ni3 O7 2.073587 1_565
Ni3 O9 2.154989 1_555
