# generated using pymatgen
data_Li4MnV3(P2O7)4
_symmetry_space_group_name_H-M   'P 1'
_cell_length_a   9.60425147
_cell_length_b   9.64822939
_cell_length_c   7.05813807
_cell_angle_alpha   99.93165927
_cell_angle_beta   98.82486853
_cell_angle_gamma   119.12948515
_symmetry_Int_Tables_number   1
_chemical_formula_structural   Li4MnV3(P2O7)4
_chemical_formula_sum   'Li4 Mn1 V3 P8 O28'
_cell_volume   540.91405449
_cell_formula_units_Z   1
loop_
 _symmetry_equiv_pos_site_id
 _symmetry_equiv_pos_as_xyz
  1  'x, y, z'
loop_
 _atom_site_type_symbol
 _atom_site_label
 _atom_site_symmetry_multiplicity
 _atom_site_fract_x
 _atom_site_fract_y
 _atom_site_fract_z
 _atom_site_occupancy
  Li  Li0  1  0.15893000  0.01960500  0.67504500  1
  Li  Li1  1  0.73063400  0.09023800  0.32680000  1
  Li  Li2  1  0.23285000  0.59275200  0.32802600  1
  Li  Li3  1  0.65568000  0.51661000  0.67141700  1
  Mn  Mn0  1  0.39319300  0.39175700  0.26711400  1
  V  V0  1  0.85664100  0.35611900  0.72698900  1
  V  V1  1  0.35794400  0.85716500  0.72770100  1
  V  V2  1  0.89345500  0.89305200  0.27247100  1
  P  P0  1  0.11138800  0.29058100  0.52230900  1
  P  P1  1  0.75125500  0.03539600  0.91443900  1
  P  P2  1  0.24928400  0.53768700  0.91221600  1
  P  P3  1  0.46017800  0.14139200  0.48214700  1
  P  P4  1  0.61081100  0.78899800  0.52227200  1
  P  P5  1  0.71479800  0.49904800  0.08738100  1
  P  P6  1  0.21677600  0.00017600  0.08868900  1
  P  P7  1  0.95964400  0.64062800  0.47753900  1
  O  O0  1  0.07511400  0.11308500  0.48355100  1
  O  O1  1  0.35831200  0.03365700  0.60446200  1
  O  O2  1  0.58310000  0.01591800  0.91628000  1
  O  O3  1  0.08022500  0.51763700  0.90966400  1
  O  O4  1  0.22095800  0.37563400  0.75310400  1
  O  O5  1  0.37686200  0.03237000  0.24922600  1
  O  O6  1  0.23445700  0.16720500  0.08564300  1
  O  O7  1  0.21246600  0.38832500  0.39152900  1
  O  O8  1  0.45536700  0.29820400  0.50477700  1
  O  O9  1  0.13685200  0.67600500  0.51510500  1
  O  O10  1  0.63680800  0.17411100  0.51782400  1
  O  O11  1  0.86174500  0.18734900  0.85247000  1
  O  O12  1  0.35954400  0.68583000  0.84373300  1
  O  O13  1  0.21960600  0.91459100  0.88803100  1
  O  O14  1  0.72141200  0.41768400  0.88726500  1
  O  O15  1  0.33196300  0.53866300  0.11383500  1
  O  O16  1  0.83375300  0.03074800  0.11353800  1
  O  O17  1  0.06399400  0.88896700  0.15027300  1
  O  O18  1  0.55914500  0.38321900  0.14287100  1
  O  O19  1  0.57544300  0.61146600  0.47968600  1
  O  O20  1  0.45367000  0.79512300  0.50724200  1
  O  O21  1  0.95273800  0.29465900  0.50631700  1
  O  O22  1  0.85903400  0.53688700  0.60373400  1
  O  O23  1  0.72252400  0.87444800  0.75212900  1
  O  O24  1  0.87451600  0.52827700  0.24709600  1
  O  O25  1  0.73250200  0.66612000  0.08851900  1
  O  O26  1  0.71429400  0.89015200  0.39604400  1
  O  O27  1  0.95456000  0.79805100  0.49349600  1
loop_
_geom_bond_atom_site_label_1
_geom_bond_atom_site_label_2
_geom_bond_distance
_geom_bond_site_symmetry_2
Li0 O1 1.999180 1_555
Li0 O0 2.020338 1_555
Li0 O27 2.064602 1_445
Li0 O13 2.111272 1_545
Li1 O10 1.997773 1_555
Li1 O26 2.011035 1_545
Li1 O21 2.063581 1_555
Li1 O16 2.070951 1_555
Li2 O9 1.991855 1_555
Li2 O7 2.021227 1_555
Li2 O15 2.029043 1_555
Li2 O20 2.050285 1_555
Li3 O22 2.006854 1_555
Li3 O8 2.007220 1_555
Li3 O19 2.014103 1_555
Li3 O14 2.103251 1_555
Mn0 O18 1.961601 1_555
Mn0 O6 1.971448 1_555
Mn0 O7 2.051047 1_555
Mn0 O19 2.072002 1_555
Mn0 O15 2.161124 1_555
Mn0 O8 2.173671 1_555
O0 P0 1.535334 1_555
O0 V2 2.067819 1_445
O1 P3 1.536741 1_555
O1 V1 2.040170 1_545
O2 P1 1.534770 1_555
O2 V1 1.995705 1_545
O3 P2 1.535620 1_555
O3 V0 1.975228 1_455
O4 P0 1.614489 1_555
O4 P2 1.632875 1_555
O5 P6 1.619694 1_555
O5 P3 1.621679 1_555
O6 P6 1.540450 1_555
O7 P0 1.538744 1_555
O8 P3 1.517780 1_555
O9 P7 1.532382 1_455
O9 V1 2.078427 1_555
O10 P3 1.536547 1_555
O10 V0 2.064141 1_555
O11 P1 1.521756 1_555
O11 V0 2.000030 1_555
O12 P2 1.523080 1_555
O12 V1 1.972685 1_555
O13 P6 1.522718 1_566
O13 V1 2.077154 1_555
O14 P5 1.519505 1_556
O14 V0 2.071100 1_555
O15 P2 1.515618 1_554
O16 P1 1.522916 1_554
O16 V2 2.100112 1_545
O17 P6 1.522202 1_565
O17 V2 1.978062 1_455
O18 P5 1.530115 1_555
O19 P4 1.537620 1_555
O20 P4 1.527208 1_555
O20 V1 2.068390 1_555
O21 P0 1.530726 1_655
O21 V0 2.069941 1_555
O22 P7 1.535867 1_555
O22 V0 2.071155 1_555
O23 P4 1.614395 1_555
O23 P1 1.634664 1_565
O24 P7 1.615532 1_555
O24 P5 1.625418 1_555
O25 P5 1.534806 1_555
O25 V2 1.994407 1_555
O26 P4 1.536662 1_555
O26 V2 2.035774 1_555
O27 P7 1.528681 1_555
O27 V2 2.086687 1_555
