# generated using pymatgen
data_LiNiOF
_symmetry_space_group_name_H-M   'P 1'
_cell_length_a   2.95292200
_cell_length_b   2.95292200
_cell_length_c   12.63850200
_cell_angle_alpha   90.00000000
_cell_angle_beta   90.00000000
_cell_angle_gamma   90.00000000
_symmetry_Int_Tables_number   1
_chemical_formula_structural   LiNiOF
_chemical_formula_sum   'Li3 Ni3 O3 F3'
_cell_volume   110.20455681
_cell_formula_units_Z   3
loop_
 _symmetry_equiv_pos_site_id
 _symmetry_equiv_pos_as_xyz
  1  'x, y, z'
loop_
 _atom_site_type_symbol
 _atom_site_label
 _atom_site_symmetry_multiplicity
 _atom_site_fract_x
 _atom_site_fract_y
 _atom_site_fract_z
 _atom_site_occupancy
  Li  Li0  1  0.50000000  0.50000000  0.66574300  1
  Li  Li1  1  0.50000000  0.50000000  0.33425700  1
  Li  Li2  1  0.00000000  0.00000000  0.50000000  1
  Ni  Ni0  1  0.00000000  0.00000000  0.83368200  1
  Ni  Ni1  1  0.50000000  0.50000000  0.00000000  1
  Ni  Ni2  1  0.00000000  0.00000000  0.16631800  1
  O  O0  1  0.50000000  0.50000000  0.83106600  1
  O  O1  1  0.00000000  0.00000000  0.00000000  1
  O  O2  1  0.50000000  0.50000000  0.16893400  1
  F  F0  1  0.00000000  0.00000000  0.66067000  1
  F  F1  1  0.00000000  0.00000000  0.33933000  1
  F  F2  1  0.50000000  0.50000000  0.50000000  1
loop_
_geom_bond_atom_site_label_1
_geom_bond_atom_site_label_2
_geom_bond_distance
_geom_bond_site_symmetry_2
Li0 O0 2.089435 1_555
Li1 O2 2.089435 1_555
Ni0 O0 2.088293 1_455
Ni0 O0 2.088293 1_545
Ni0 O0 2.088293 1_555
Ni0 O0 2.088293 1_445
Ni0 O1 2.102010 1_556
Ni1 O1 2.088031 1_565
Ni1 O1 2.088031 1_665
Ni1 O1 2.088031 1_655
Ni1 O1 2.088031 1_555
Ni1 O2 2.135073 1_555
Ni1 O0 2.135073 1_554
Ni2 O2 2.088293 1_555
Ni2 O2 2.088293 1_445
Ni2 O2 2.088293 1_545
Ni2 O2 2.088293 1_455
Ni2 O1 2.102010 1_555
F0 Li2 2.030628 1_555
F0 Li0 2.089015 1_445
F0 Li0 2.089015 1_545
F0 Li0 2.089015 1_455
F0 Li0 2.089015 1_555
F0 Ni0 2.186613 1_555
F1 Li2 2.030628 1_555
F1 Li1 2.089015 1_545
F1 Li1 2.089015 1_445
F1 Li1 2.089015 1_555
F1 Li1 2.089015 1_455
F1 Ni2 2.186613 1_555
F2 Li2 2.088031 1_655
F2 Li2 2.088031 1_555
F2 Li2 2.088031 1_665
F2 Li2 2.088031 1_565
F2 Li0 2.094743 1_555
F2 Li1 2.094743 1_555
