# generated using pymatgen
data_Li3Mn2(NiO4)2
_symmetry_space_group_name_H-M   'P 1'
_cell_length_a   5.75584000
_cell_length_b   5.85715066
_cell_length_c   5.86030243
_cell_angle_alpha   119.55037655
_cell_angle_beta   90.14285090
_cell_angle_gamma   119.21988715
_symmetry_Int_Tables_number   1
_chemical_formula_structural   Li3Mn2(NiO4)2
_chemical_formula_sum   'Li3 Mn2 Ni2 O8'
_cell_volume   142.09137012
_cell_formula_units_Z   1
loop_
 _symmetry_equiv_pos_site_id
 _symmetry_equiv_pos_as_xyz
  1  'x, y, z'
loop_
 _atom_site_type_symbol
 _atom_site_label
 _atom_site_symmetry_multiplicity
 _atom_site_fract_x
 _atom_site_fract_y
 _atom_site_fract_z
 _atom_site_occupancy
  Li  Li0  1  0.00000000  0.50000000  0.00000000  1
  Li  Li1  1  0.00000000  0.50000000  0.50000000  1
  Li  Li2  1  0.50000000  0.00000000  0.50000000  1
  Mn  Mn0  1  0.50000000  0.00000000  0.00000000  1
  Mn  Mn1  1  0.00000000  0.00000000  0.00000000  1
  Ni  Ni0  1  0.50000000  0.50000000  0.00000000  1
  Ni  Ni1  1  0.50000000  0.50000000  0.50000000  1
  O  O0  1  0.71070200  0.01931800  0.21685400  1
  O  O1  1  0.74648300  0.43913600  0.78086000  1
  O  O2  1  0.74942500  0.56036700  0.22217200  1
  O  O3  1  0.24064700  0.01527500  0.22341600  1
  O  O4  1  0.75935300  0.98472500  0.77658400  1
  O  O5  1  0.25057500  0.43963300  0.77782800  1
  O  O6  1  0.25351700  0.56086400  0.21914000  1
  O  O7  1  0.28929800  0.98068200  0.78314600  1
loop_
_geom_bond_atom_site_label_1
_geom_bond_atom_site_label_2
_geom_bond_distance
_geom_bond_site_symmetry_2
Li0 O6 1.713710 1_555
Li0 O1 1.713710 1_454
Li0 O2 1.988344 1_455
Li0 O5 1.988344 1_554
Li0 O3 2.180205 1_565
Li0 O4 2.180205 1_444
Li1 O0 2.062462 1_455
Li1 O7 2.062462 1_555
Li1 O6 2.246840 1_555
Li1 O1 2.246840 1_455
Li1 O2 2.431062 1_455
Li1 O5 2.431062 1_555
Li2 O1 1.894030 1_555
Li2 O6 1.894030 1_545
Li2 O0 2.073211 1_555
Li2 O7 2.073211 1_545
Li2 O4 2.263850 1_545
Li2 O3 2.263850 1_555
Mn0 O0 1.677833 1_555
Mn0 O7 1.677833 1_544
Mn0 O4 1.993807 1_544
Mn0 O3 1.993807 1_555
Mn0 O2 2.388283 1_555
Mn0 O5 2.388283 1_544
Mn1 O3 1.842615 1_555
Mn1 O4 1.842615 1_444
Mn1 O7 2.110264 1_544
Mn1 O0 2.110264 1_455
Mn1 O1 2.391533 1_444
Mn1 O6 2.391533 1_555
Ni0 O5 1.709473 1_554
Ni0 O2 1.709473 1_555
Ni0 O1 1.959687 1_554
Ni0 O6 1.959687 1_555
Ni0 O7 2.217158 1_544
Ni0 O0 2.217158 1_565
Ni1 O4 2.055996 1_555
Ni1 O3 2.055996 1_555
Ni1 O5 2.218310 1_555
Ni1 O2 2.218310 1_555
Ni1 O1 2.431010 1_555
Ni1 O6 2.431010 1_555
