# generated using pymatgen
data_LiFe4(PO4)3
_symmetry_space_group_name_H-M   'P 1'
_cell_length_a   8.35782500
_cell_length_b   10.11223600
_cell_length_c   13.65894200
_cell_angle_alpha   90.00000000
_cell_angle_beta   90.00000000
_cell_angle_gamma   90.00000000
_symmetry_Int_Tables_number   1
_chemical_formula_structural   LiFe4(PO4)3
_chemical_formula_sum   'Li4 Fe16 P12 O48'
_cell_volume   1154.40322400
_cell_formula_units_Z   4
loop_
 _symmetry_equiv_pos_site_id
 _symmetry_equiv_pos_as_xyz
  1  'x, y, z'
loop_
 _atom_site_type_symbol
 _atom_site_label
 _atom_site_symmetry_multiplicity
 _atom_site_fract_x
 _atom_site_fract_y
 _atom_site_fract_z
 _atom_site_occupancy
  Li  Li0  1  0.75000000  0.30112800  0.25000000  1
  Li  Li1  1  0.75000000  0.80112800  0.25000000  1
  Li  Li2  1  0.25000000  0.69887200  0.75000000  1
  Li  Li3  1  0.25000000  0.19887200  0.75000000  1
  Fe  Fe0  1  0.11348700  0.80257300  0.04674300  1
  Fe  Fe1  1  0.38651300  0.30257300  0.04674300  1
  Fe  Fe2  1  0.42378300  0.00378100  0.14867700  1
  Fe  Fe3  1  0.07621700  0.50378100  0.14867700  1
  Fe  Fe4  1  0.42378300  0.50378100  0.35132300  1
  Fe  Fe5  1  0.07621700  0.00378100  0.35132300  1
  Fe  Fe6  1  0.11348700  0.30257300  0.45325700  1
  Fe  Fe7  1  0.38651300  0.80257300  0.45325700  1
  Fe  Fe8  1  0.88651300  0.69742700  0.54674300  1
  Fe  Fe9  1  0.61348700  0.19742700  0.54674300  1
  Fe  Fe10  1  0.57621700  0.49621900  0.64867700  1
  Fe  Fe11  1  0.92378300  0.99621900  0.64867700  1
  Fe  Fe12  1  0.57621700  0.99621900  0.85132300  1
  Fe  Fe13  1  0.92378300  0.49621900  0.85132300  1
  Fe  Fe14  1  0.61348700  0.69742700  0.95325700  1
  Fe  Fe15  1  0.88651300  0.19742700  0.95325700  1
  P  P0  1  0.73905100  0.43215500  0.06993900  1
  P  P1  1  0.76094900  0.93215500  0.06993900  1
  P  P2  1  0.25000000  0.74912300  0.25000000  1
  P  P3  1  0.25000000  0.24912300  0.25000000  1
  P  P4  1  0.73905100  0.93215500  0.43006100  1
  P  P5  1  0.76094900  0.43215500  0.43006100  1
  P  P6  1  0.23905100  0.56784500  0.56993900  1
  P  P7  1  0.26094900  0.06784500  0.56993900  1
  P  P8  1  0.75000000  0.75087700  0.75000000  1
  P  P9  1  0.75000000  0.25087700  0.75000000  1
  P  P10  1  0.23905100  0.06784500  0.93006100  1
  P  P11  1  0.26094900  0.56784500  0.93006100  1
  O  O0  1  0.16160600  0.60401300  0.02564000  1
  O  O1  1  0.33839400  0.10401300  0.02564000  1
  O  O2  1  0.66370200  0.56922700  0.05965000  1
  O  O3  1  0.83629800  0.06922700  0.05965000  1
  O  O4  1  0.88448800  0.82194800  0.08961500  1
  O  O5  1  0.61551200  0.32194800  0.08961500  1
  O  O6  1  0.64168800  0.92547600  0.15779700  1
  O  O7  1  0.85831200  0.42547600  0.15779700  1
  O  O8  1  0.27550300  0.84168100  0.15845200  1
  O  O9  1  0.22449700  0.34168100  0.15845200  1
  O  O10  1  0.09917200  0.66548500  0.23215200  1
  O  O11  1  0.40082800  0.16548500  0.23215200  1
  O  O12  1  0.09917200  0.16548500  0.26784800  1
  O  O13  1  0.40082800  0.66548500  0.26784800  1
  O  O14  1  0.27550300  0.34168100  0.34154800  1
  O  O15  1  0.22449700  0.84168100  0.34154800  1
  O  O16  1  0.85831200  0.92547600  0.34220300  1
  O  O17  1  0.64168800  0.42547600  0.34220300  1
  O  O18  1  0.88448800  0.32194800  0.41038500  1
  O  O19  1  0.61551200  0.82194800  0.41038500  1
  O  O20  1  0.83629800  0.56922700  0.44035000  1
  O  O21  1  0.66370200  0.06922700  0.44035000  1
  O  O22  1  0.33839400  0.60401300  0.47436000  1
  O  O23  1  0.16160600  0.10401300  0.47436000  1
  O  O24  1  0.66160600  0.39598700  0.52564000  1
  O  O25  1  0.83839400  0.89598700  0.52564000  1
  O  O26  1  0.16370200  0.43077300  0.55965000  1
  O  O27  1  0.33629800  0.93077300  0.55965000  1
  O  O28  1  0.11551200  0.67805200  0.58961500  1
  O  O29  1  0.38448800  0.17805200  0.58961500  1
  O  O30  1  0.14168800  0.07452400  0.65779700  1
  O  O31  1  0.35831200  0.57452400  0.65779700  1
  O  O32  1  0.72449700  0.65831900  0.65845200  1
  O  O33  1  0.77550300  0.15831900  0.65845200  1
  O  O34  1  0.59917200  0.33451500  0.73215200  1
  O  O35  1  0.90082800  0.83451500  0.73215200  1
  O  O36  1  0.59917200  0.83451500  0.76784800  1
  O  O37  1  0.90082800  0.33451500  0.76784800  1
  O  O38  1  0.72449700  0.15831900  0.84154800  1
  O  O39  1  0.77550300  0.65831900  0.84154800  1
  O  O40  1  0.14168800  0.57452400  0.84220300  1
  O  O41  1  0.35831200  0.07452400  0.84220300  1
  O  O42  1  0.11551200  0.17805200  0.91038500  1
  O  O43  1  0.38448800  0.67805200  0.91038500  1
  O  O44  1  0.16370200  0.93077300  0.94035000  1
  O  O45  1  0.33629800  0.43077300  0.94035000  1
  O  O46  1  0.66160600  0.89598700  0.97436000  1
  O  O47  1  0.83839400  0.39598700  0.97436000  1
loop_
_geom_bond_atom_site_label_1
_geom_bond_atom_site_label_2
_geom_bond_distance
_geom_bond_site_symmetry_2
Li0 O17 1.996674 1_555
Li0 O7 1.996674 1_555
Li0 O5 2.471211 1_555
Li0 O18 2.471211 1_555
Li1 O16 1.996674 1_555
Li1 O6 1.996674 1_555
Li1 O19 2.471211 1_555
Li1 O4 2.471211 1_555
Li2 O40 1.996674 1_555
Li2 O31 1.996674 1_555
Li2 O28 2.471211 1_555
Li2 O43 2.471211 1_555
Li3 O30 1.996674 1_555
Li3 O41 1.996674 1_555
Li3 O29 2.471211 1_555
Li3 O42 2.471211 1_555
Fe0 O44 1.992134 1_554
Fe0 O4 2.011079 1_455
Fe0 O0 2.067953 1_555
Fe0 O8 2.078012 1_555
Fe1 O45 1.992134 1_554
Fe1 O5 2.011079 1_555
Fe1 O1 2.067953 1_555
Fe1 O9 2.078012 1_555
Fe2 O6 1.989809 1_545
Fe2 O11 2.002664 1_555
Fe2 O8 2.059282 1_545
Fe2 O1 2.088279 1_555
Fe3 O7 1.989809 1_455
Fe3 O10 2.002664 1_555
Fe3 O9 2.059282 1_555
Fe3 O0 2.088279 1_555
Fe4 O17 1.989809 1_555
Fe4 O13 2.002664 1_555
Fe4 O14 2.059282 1_555
Fe4 O22 2.088279 1_555
Fe5 O16 1.989809 1_445
Fe5 O12 2.002664 1_555
Fe5 O15 2.059282 1_545
Fe5 O23 2.088279 1_555
Fe6 O26 1.992134 1_555
Fe6 O18 2.011079 1_455
Fe6 O23 2.067953 1_555
Fe6 O14 2.078012 1_555
Fe7 O27 1.992134 1_555
Fe7 O19 2.011079 1_555
Fe7 O22 2.067953 1_555
Fe7 O15 2.078012 1_555
Fe8 O20 1.992134 1_555
Fe8 O28 2.011079 1_655
Fe8 O25 2.067953 1_555
Fe8 O32 2.078012 1_555
Fe9 O21 1.992134 1_555
Fe9 O29 2.011079 1_555
Fe9 O24 2.067953 1_555
Fe9 O33 2.078012 1_555
Fe10 O31 1.989809 1_555
Fe10 O34 2.002664 1_555
Fe10 O32 2.059282 1_555
Fe10 O24 2.088279 1_555
Fe11 O30 1.989809 1_665
Fe11 O35 2.002664 1_555
Fe11 O33 2.059282 1_565
Fe11 O25 2.088279 1_555
Fe12 O41 1.989809 1_565
Fe12 O36 2.002664 1_555
Fe12 O38 2.059282 1_565
Fe12 O46 2.088279 1_555
Fe13 O40 1.989809 1_655
Fe13 O37 2.002664 1_555
Fe13 O39 2.059282 1_555
Fe13 O47 2.088279 1_555
Fe14 O2 1.992134 1_556
Fe14 O43 2.011079 1_555
Fe14 O46 2.067953 1_555
Fe14 O39 2.078012 1_555
Fe15 O3 1.992134 1_556
Fe15 O42 2.011079 1_655
Fe15 O47 2.067953 1_555
Fe15 O38 2.078012 1_555
O0 P11 1.589811 1_554
O1 P10 1.589811 1_554
O2 P0 1.528930 1_555
O3 P1 1.528930 1_545
O4 P1 1.542821 1_555
O5 P0 1.542821 1_555
O6 P1 1.561477 1_555
O7 P0 1.561477 1_555
O8 P2 1.576417 1_555
O9 P3 1.576417 1_555
O10 P2 1.537482 1_555
O11 P3 1.537482 1_555
O12 P3 1.537482 1_555
O13 P2 1.537482 1_555
O14 P3 1.576417 1_555
O15 P2 1.576417 1_555
O16 P4 1.561477 1_555
O17 P5 1.561477 1_555
O18 P5 1.542821 1_555
O19 P4 1.542821 1_555
O20 P5 1.528930 1_555
O21 P4 1.528930 1_545
O22 P6 1.589811 1_555
O23 P7 1.589811 1_555
O24 P5 1.589811 1_555
O25 P4 1.589811 1_555
O26 P6 1.528930 1_555
O27 P7 1.528930 1_565
O28 P6 1.542821 1_555
O29 P7 1.542821 1_555
O30 P7 1.561477 1_555
O31 P6 1.561477 1_555
O32 P8 1.576417 1_555
O33 P9 1.576417 1_555
O34 P9 1.537482 1_555
O35 P8 1.537482 1_555
O36 P8 1.537482 1_555
O37 P9 1.537482 1_555
O38 P9 1.576417 1_555
O39 P8 1.576417 1_555
O40 P11 1.561477 1_555
O41 P10 1.561477 1_555
O42 P10 1.542821 1_555
O43 P11 1.542821 1_555
O44 P10 1.528930 1_565
O45 P11 1.528930 1_555
O46 P1 1.589811 1_556
O47 P0 1.589811 1_556
