# generated using pymatgen
data_Li3Cr3GaO8
_symmetry_space_group_name_H-M   'P 1'
_cell_length_a   5.18233770
_cell_length_b   5.91950436
_cell_length_c   10.67121332
_cell_angle_alpha   73.50952544
_cell_angle_beta   75.80844027
_cell_angle_gamma   72.85100641
_symmetry_Int_Tables_number   1
_chemical_formula_structural   Li3Cr3GaO8
_chemical_formula_sum   'Li6 Cr6 Ga2 O16'
_cell_volume   295.24450466
_cell_formula_units_Z   2
loop_
 _symmetry_equiv_pos_site_id
 _symmetry_equiv_pos_as_xyz
  1  'x, y, z'
loop_
 _atom_site_type_symbol
 _atom_site_label
 _atom_site_symmetry_multiplicity
 _atom_site_fract_x
 _atom_site_fract_y
 _atom_site_fract_z
 _atom_site_occupancy
  Li  Li0  1  0.99544100  0.51351500  0.99876300  1
  Li  Li1  1  0.00337900  0.12520400  0.25316400  1
  Li  Li2  1  0.99771300  0.25279600  0.49818400  1
  Li  Li3  1  0.00261100  0.37199000  0.75090200  1
  Li  Li4  1  0.00001000  0.98944100  0.99680400  1
  Li  Li5  1  0.99840200  0.74922700  0.49877900  1
  Cr  Cr0  1  0.49080500  0.31642100  0.12562000  1
  Cr  Cr1  1  0.49456500  0.81086200  0.12722700  1
  Cr  Cr2  1  0.50029200  0.06211100  0.62568000  1
  Cr  Cr3  1  0.51062100  0.18376600  0.87453400  1
  Cr  Cr4  1  0.51380400  0.93228000  0.37414400  1
  Cr  Cr5  1  0.48554700  0.56692300  0.62728200  1
  Ga  Ga0  1  0.49822500  0.43902700  0.37425000  1
  Ga  Ga1  1  0.50700900  0.69382600  0.87094200  1
  O  O0  1  0.27633000  0.15645000  0.06186300  1
  O  O1  1  0.28375400  0.64436400  0.05697300  1
  O  O2  1  0.28663500  0.26683400  0.30964700  1
  O  O3  1  0.28773500  0.02990800  0.81270800  1
  O  O4  1  0.28754000  0.77731300  0.31459300  1
  O  O5  1  0.27012300  0.40313500  0.56138900  1
  O  O6  1  0.28699300  0.52067100  0.80746500  1
  O  O7  1  0.28865000  0.89374700  0.55901600  1
  O  O8  1  0.72931700  0.10037100  0.43914100  1
  O  O9  1  0.70985000  0.46536000  0.18647200  1
  O  O10  1  0.70953400  0.99346100  0.18384800  1
  O  O11  1  0.71118900  0.24319500  0.68385100  1
  O  O12  1  0.71477200  0.58912200  0.45141500  1
  O  O13  1  0.72493900  0.34795500  0.94308700  1
  O  O14  1  0.71339500  0.71608800  0.68652500  1
  O  O15  1  0.72079800  0.84448100  0.94585000  1
loop_
_geom_bond_atom_site_label_1
_geom_bond_atom_site_label_2
_geom_bond_distance
_geom_bond_site_symmetry_2
Li0 O15 2.074734 1_555
Li0 O1 2.151498 1_656
Li0 O9 2.180615 1_556
Li0 O13 2.197205 1_555
Li0 O0 2.213160 1_656
Li0 O6 2.219958 1_655
Li1 O8 2.133743 1_455
Li1 O2 2.160430 1_555
Li1 O0 2.174052 1_555
Li1 O4 2.181232 1_545
Li1 O9 2.187661 1_455
Li1 O10 2.248188 1_445
Li2 O12 2.106169 1_555
Li2 O8 2.153666 1_555
Li2 O11 2.162611 1_555
Li2 O5 2.188234 1_655
Li2 O2 2.190429 1_655
Li2 O7 2.240274 1_645
Li3 O5 2.147116 1_555
Li3 O3 2.161928 1_555
Li3 O14 2.185732 1_455
Li3 O13 2.192022 1_455
Li3 O6 2.193989 1_555
Li3 O11 2.211927 1_455
Li4 O15 2.123340 1_455
Li4 O3 2.155750 1_565
Li4 O1 2.166589 1_556
Li4 O10 2.187045 1_456
Li4 O13 2.188723 1_465
Li4 O0 2.285144 1_566
Li5 O5 2.146953 1_655
Li5 O8 2.155228 1_565
Li5 O4 2.157161 1_655
Li5 O14 2.175024 1_555
Li5 O12 2.184469 1_555
Li5 O7 2.225461 1_655
Cr0 O10 1.928432 1_545
Cr0 O9 1.940161 1_555
Cr0 O1 1.950944 1_555
Cr0 O2 1.974650 1_555
Cr0 O0 1.988024 1_555
Cr0 O13 2.017297 1_554
Cr1 O15 1.991639 1_554
Cr1 O4 2.009128 1_555
Cr1 O9 2.023234 1_555
Cr1 O0 2.040315 1_565
Cr1 O1 2.045241 1_555
Cr1 O10 2.045833 1_555
Cr2 O3 2.015658 1_555
Cr2 O14 2.024669 1_545
Cr2 O11 2.032286 1_555
Cr2 O7 2.032736 1_545
Cr2 O5 2.040496 1_555
Cr2 O8 2.041222 1_555
Cr3 O3 1.983464 1_555
Cr3 O15 2.011937 1_545
Cr3 O6 2.016434 1_555
Cr3 O11 2.028993 1_555
Cr3 O13 2.037642 1_555
Cr3 O0 2.058796 1_556
Cr4 O4 1.987686 1_555
Cr4 O2 2.007540 1_565
Cr4 O10 2.018137 1_555
Cr4 O7 2.019472 1_555
Cr4 O12 2.028171 1_555
Cr4 O8 2.036048 1_565
Cr5 O7 1.927414 1_555
Cr5 O6 1.930793 1_555
Cr5 O11 1.942155 1_555
Cr5 O12 1.951768 1_555
Cr5 O14 1.967577 1_555
Cr5 O5 2.022634 1_555
Ga0 O4 1.983705 1_555
Ga0 O9 2.021955 1_555
Ga0 O8 2.033528 1_555
Ga0 O2 2.036005 1_555
Ga0 O5 2.044566 1_555
Ga0 O12 2.045311 1_555
Ga1 O14 1.984437 1_555
Ga1 O3 1.986595 1_565
Ga1 O15 2.020746 1_555
Ga1 O1 2.027031 1_556
Ga1 O13 2.056187 1_555
Ga1 O6 2.066775 1_555
