# generated using pymatgen
data_LiCr6O11
_symmetry_space_group_name_H-M   'P 1'
_cell_length_a   5.82114126
_cell_length_b   5.82114126
_cell_length_c   12.93740700
_cell_angle_alpha   90.00000000
_cell_angle_beta   90.00000000
_cell_angle_gamma   119.99999162
_symmetry_Int_Tables_number   1
_chemical_formula_structural   LiCr6O11
_chemical_formula_sum   'Li2 Cr12 O22'
_cell_volume   379.65942559
_cell_formula_units_Z   2
loop_
 _symmetry_equiv_pos_site_id
 _symmetry_equiv_pos_as_xyz
  1  'x, y, z'
loop_
 _atom_site_type_symbol
 _atom_site_label
 _atom_site_symmetry_multiplicity
 _atom_site_fract_x
 _atom_site_fract_y
 _atom_site_fract_z
 _atom_site_occupancy
  Li  Li0  1  0.33333300  0.66666700  0.25935400  1
  Li  Li1  1  0.66666700  0.33333300  0.75935400  1
  Cr  Cr0  1  0.99890100  0.49945100  0.99935000  1
  Cr  Cr1  1  0.33333300  0.66666700  0.74937100  1
  Cr  Cr2  1  0.00000000  0.00000000  0.14482300  1
  Cr  Cr3  1  0.00000000  0.00000000  0.35388100  1
  Cr  Cr4  1  0.00000000  0.00000000  0.64482300  1
  Cr  Cr5  1  0.00000000  0.00000000  0.85388100  1
  Cr  Cr6  1  0.50054900  0.00109900  0.99935000  1
  Cr  Cr7  1  0.50054900  0.49945100  0.99935000  1
  Cr  Cr8  1  0.49945100  0.50054900  0.49935000  1
  Cr  Cr9  1  0.66666700  0.33333300  0.24937100  1
  Cr  Cr10  1  0.49945100  0.99890100  0.49935000  1
  Cr  Cr11  1  0.00109900  0.50054900  0.49935000  1
  O  O0  1  0.15236000  0.84764000  0.74922300  1
  O  O1  1  0.17471900  0.82528100  0.42021100  1
  O  O2  1  0.17409000  0.82591000  0.07772600  1
  O  O3  1  0.33333300  0.66666700  0.58685200  1
  O  O4  1  0.33333300  0.66666700  0.91202300  1
  O  O5  1  0.17471900  0.34943700  0.42021100  1
  O  O6  1  0.15236000  0.30472100  0.74922300  1
  O  O7  1  0.17409000  0.34818100  0.07772600  1
  O  O8  1  0.30472100  0.15236000  0.24922300  1
  O  O9  1  0.65181900  0.82591000  0.07772600  1
  O  O10  1  0.65056300  0.82528100  0.42021100  1
  O  O11  1  0.34943700  0.17471900  0.92021100  1
  O  O12  1  0.34818100  0.17409000  0.57772600  1
  O  O13  1  0.69527900  0.84764000  0.74922300  1
  O  O14  1  0.82528100  0.65056300  0.92021100  1
  O  O15  1  0.66666700  0.33333300  0.08685200  1
  O  O16  1  0.66666700  0.33333300  0.41202300  1
  O  O17  1  0.84764000  0.69527900  0.24922300  1
  O  O18  1  0.82591000  0.65181900  0.57772600  1
  O  O19  1  0.82591000  0.17409000  0.57772600  1
  O  O20  1  0.82528100  0.17471900  0.92021100  1
  O  O21  1  0.84764000  0.15236000  0.24922300  1
loop_
_geom_bond_atom_site_label_1
_geom_bond_atom_site_label_2
_geom_bond_distance
_geom_bond_site_symmetry_2
Li0 O1 2.624575 1_555
Li0 O5 2.624581 1_555
Li0 O10 2.624581 1_555
Li1 O20 2.624575 1_555
Li1 O14 2.624581 1_555
Li1 O11 2.624581 1_555
Cr0 O14 1.931974 1_555
Cr0 O20 1.931974 1_555
Cr0 O7 1.934307 1_656
Cr0 O2 1.934307 1_656
Cr0 O15 2.021571 1_556
Cr0 O4 2.029499 1_655
Cr1 O0 1.824663 1_555
Cr1 O6 1.824664 1_555
Cr1 O13 1.824664 1_555
Cr1 O3 2.102574 1_555
Cr1 O4 2.104295 1_555
Cr2 O2 1.958184 1_545
Cr2 O9 1.958189 1_445
Cr2 O7 1.958189 1_555
Cr2 O21 2.045512 1_455
Cr2 O17 2.045516 1_445
Cr2 O8 2.045516 1_555
Cr3 O10 1.959500 1_445
Cr3 O5 1.959500 1_555
Cr3 O1 1.959505 1_545
Cr3 O21 2.047718 1_455
Cr3 O8 2.047722 1_555
Cr3 O17 2.047722 1_445
Cr4 O19 1.958184 1_455
Cr4 O18 1.958189 1_445
Cr4 O12 1.958189 1_555
Cr4 O0 2.045512 1_545
Cr4 O6 2.045516 1_555
Cr4 O13 2.045516 1_445
Cr5 O11 1.959500 1_555
Cr5 O14 1.959500 1_445
Cr5 O20 1.959505 1_455
Cr5 O0 2.047718 1_545
Cr5 O13 2.047722 1_445
Cr5 O6 2.047722 1_555
Cr6 O11 1.931974 1_555
Cr6 O20 1.931974 1_555
Cr6 O9 1.934307 1_546
Cr6 O2 1.934307 1_546
Cr6 O15 2.021571 1_556
Cr6 O4 2.029499 1_545
Cr7 O11 1.931974 1_555
Cr7 O14 1.931974 1_555
Cr7 O7 1.934307 1_556
Cr7 O9 1.934307 1_556
Cr7 O15 2.021579 1_556
Cr7 O4 2.029499 1_555
Cr8 O5 1.931974 1_555
Cr8 O10 1.931974 1_555
Cr8 O18 1.934307 1_555
Cr8 O12 1.934307 1_555
Cr8 O3 2.021579 1_555
Cr8 O16 2.029499 1_555
Cr9 O21 1.824663 1_555
Cr9 O8 1.824664 1_555
Cr9 O17 1.824664 1_555
Cr9 O15 2.102574 1_555
Cr9 O16 2.104295 1_555
Cr10 O10 1.931974 1_555
Cr10 O1 1.931974 1_555
Cr10 O12 1.934307 1_565
Cr10 O19 1.934307 1_565
Cr10 O3 2.021571 1_555
Cr10 O16 2.029499 1_565
Cr11 O5 1.931974 1_555
Cr11 O1 1.931974 1_555
Cr11 O18 1.934307 1_455
Cr11 O19 1.934307 1_455
Cr11 O3 2.021571 1_555
Cr11 O16 2.029499 1_455
