# generated using pymatgen
data_Sn7(SO10)2
_symmetry_space_group_name_H-M   'P 1'
_cell_length_a   13.03608500
_cell_length_b   13.06644300
_cell_length_c   13.23751500
_cell_angle_alpha   90.00000000
_cell_angle_beta   90.00000000
_cell_angle_gamma   90.00000000
_symmetry_Int_Tables_number   1
_chemical_formula_structural   Sn7(SO10)2
_chemical_formula_sum   'Sn28 S8 O80'
_cell_volume   2254.81558040
_cell_formula_units_Z   4
loop_
 _symmetry_equiv_pos_site_id
 _symmetry_equiv_pos_as_xyz
  1  'x, y, z'
loop_
 _atom_site_type_symbol
 _atom_site_label
 _atom_site_symmetry_multiplicity
 _atom_site_fract_x
 _atom_site_fract_y
 _atom_site_fract_z
 _atom_site_occupancy
  Sn  Sn0  1  0.74654700  0.43100000  0.41141700  1
  Sn  Sn1  1  0.24654700  0.06900000  0.58858300  1
  Sn  Sn2  1  0.25345300  0.93100000  0.08858300  1
  Sn  Sn3  1  0.75345300  0.56900000  0.91141700  1
  Sn  Sn4  1  0.25345300  0.56900000  0.58858300  1
  Sn  Sn5  1  0.75345300  0.93100000  0.41141700  1
  Sn  Sn6  1  0.74654700  0.06900000  0.91141700  1
  Sn  Sn7  1  0.24654700  0.43100000  0.08858300  1
  Sn  Sn8  1  0.56807800  0.08880500  0.24782200  1
  Sn  Sn9  1  0.06807800  0.41119500  0.75217800  1
  Sn  Sn10  1  0.43192200  0.58880500  0.25217800  1
  Sn  Sn11  1  0.93192200  0.91119500  0.74782200  1
  Sn  Sn12  1  0.43192200  0.91119500  0.75217800  1
  Sn  Sn13  1  0.93192200  0.58880500  0.24782200  1
  Sn  Sn14  1  0.56807800  0.41119500  0.74782200  1
  Sn  Sn15  1  0.06807800  0.08880500  0.25217800  1
  Sn  Sn16  1  0.41078000  0.25389600  0.43180500  1
  Sn  Sn17  1  0.91078000  0.24610400  0.56819500  1
  Sn  Sn18  1  0.58922000  0.75389600  0.06819500  1
  Sn  Sn19  1  0.08922000  0.74610400  0.93180500  1
  Sn  Sn20  1  0.58922000  0.74610400  0.56819500  1
  Sn  Sn21  1  0.08922000  0.75389600  0.43180500  1
  Sn  Sn22  1  0.41078000  0.24610400  0.93180500  1
  Sn  Sn23  1  0.91078000  0.25389600  0.06819500  1
  Sn  Sn24  1  0.50000000  0.00000000  0.00000000  1
  Sn  Sn25  1  0.00000000  0.50000000  0.00000000  1
  Sn  Sn26  1  0.50000000  0.50000000  0.50000000  1
  Sn  Sn27  1  0.00000000  0.00000000  0.50000000  1
  S  S0  1  0.69268500  0.30839400  0.19277000  1
  S  S1  1  0.19268500  0.19160600  0.80723000  1
  S  S2  1  0.30731500  0.80839400  0.30723000  1
  S  S3  1  0.80731500  0.69160600  0.69277000  1
  S  S4  1  0.30731500  0.69160600  0.80723000  1
  S  S5  1  0.80731500  0.80839400  0.19277000  1
  S  S6  1  0.69268500  0.19160600  0.69277000  1
  S  S7  1  0.19268500  0.30839400  0.30723000  1
  O  O0  1  0.62995100  0.37064100  0.12909500  1
  O  O1  1  0.12995100  0.12935900  0.87090500  1
  O  O2  1  0.37004900  0.87064100  0.37090500  1
  O  O3  1  0.87004900  0.62935900  0.62909500  1
  O  O4  1  0.37004900  0.62935900  0.87090500  1
  O  O5  1  0.87004900  0.87064100  0.12909500  1
  O  O6  1  0.62995100  0.12935900  0.62909500  1
  O  O7  1  0.12995100  0.37064100  0.37090500  1
  O  O8  1  0.80654500  0.31843000  0.17037300  1
  O  O9  1  0.30654500  0.18157000  0.82962700  1
  O  O10  1  0.19345500  0.81843000  0.32962700  1
  O  O11  1  0.69345500  0.68157000  0.67037300  1
  O  O12  1  0.19345500  0.68157000  0.82962700  1
  O  O13  1  0.69345500  0.81843000  0.17037300  1
  O  O14  1  0.80654500  0.18157000  0.67037300  1
  O  O15  1  0.30654500  0.31843000  0.32962700  1
  O  O16  1  0.66909500  0.19469300  0.18350100  1
  O  O17  1  0.16909500  0.30530700  0.81649900  1
  O  O18  1  0.33090500  0.69469300  0.31649900  1
  O  O19  1  0.83090500  0.80530700  0.68350100  1
  O  O20  1  0.33090500  0.80530700  0.81649900  1
  O  O21  1  0.83090500  0.69469300  0.18350100  1
  O  O22  1  0.66909500  0.30530700  0.68350100  1
  O  O23  1  0.16909500  0.19469300  0.31649900  1
  O  O24  1  0.68062300  0.33316800  0.30417500  1
  O  O25  1  0.18062300  0.16683200  0.69582500  1
  O  O26  1  0.31937700  0.83316800  0.19582500  1
  O  O27  1  0.81937700  0.66683200  0.80417500  1
  O  O28  1  0.31937700  0.66683200  0.69582500  1
  O  O29  1  0.81937700  0.83316800  0.30417500  1
  O  O30  1  0.68062300  0.16683200  0.80417500  1
  O  O31  1  0.18062300  0.33316800  0.19582500  1
  O  O32  1  0.65899700  0.50915500  0.49862400  1
  O  O33  1  0.15899700  0.99084500  0.50137600  1
  O  O34  1  0.34100300  0.00915500  0.00137600  1
  O  O35  1  0.84100300  0.49084500  0.99862400  1
  O  O36  1  0.34100300  0.49084500  0.50137600  1
  O  O37  1  0.84100300  0.00915500  0.49862400  1
  O  O38  1  0.65899700  0.99084500  0.99862400  1
  O  O39  1  0.15899700  0.50915500  0.00137600  1
  O  O40  1  0.48692000  0.17276300  0.33571500  1
  O  O41  1  0.98692000  0.32723700  0.66428500  1
  O  O42  1  0.51308000  0.67276300  0.16428500  1
  O  O43  1  0.01308000  0.82723700  0.83571500  1
  O  O44  1  0.51308000  0.82723700  0.66428500  1
  O  O45  1  0.01308000  0.67276300  0.33571500  1
  O  O46  1  0.48692000  0.32723700  0.83571500  1
  O  O47  1  0.98692000  0.17276300  0.16428500  1
  O  O48  1  0.83835000  0.50485100  0.32455100  1
  O  O49  1  0.33835000  0.99514900  0.67545000  1
  O  O50  1  0.16165000  0.00485100  0.17544900  1
  O  O51  1  0.66165000  0.49514900  0.82455000  1
  O  O52  1  0.16165000  0.49514900  0.67545000  1
  O  O53  1  0.66165000  0.00485100  0.32455100  1
  O  O54  1  0.83835000  0.99514900  0.82455000  1
  O  O55  1  0.33835000  0.50485100  0.17544900  1
  O  O56  1  0.00675600  0.34182300  0.00099300  1
  O  O57  1  0.50675600  0.15817700  0.99900700  1
  O  O58  1  0.99324400  0.84182300  0.49900700  1
  O  O59  1  0.49324400  0.65817700  0.50099300  1
  O  O60  1  0.99324400  0.65817700  0.99900700  1
  O  O61  1  0.49324400  0.84182300  0.00099300  1
  O  O62  1  0.00675600  0.15817700  0.50099300  1
  O  O63  1  0.50675600  0.34182300  0.49900700  1
  O  O64  1  0.81813700  0.17283900  0.98825800  1
  O  O65  1  0.31813700  0.32716100  0.01174200  1
  O  O66  1  0.18186300  0.67283900  0.51174200  1
  O  O67  1  0.68186300  0.82716100  0.48825800  1
  O  O68  1  0.18186300  0.82716100  0.01174200  1
  O  O69  1  0.68186300  0.67283900  0.98825800  1
  O  O70  1  0.81813700  0.32716100  0.48825800  1
  O  O71  1  0.31813700  0.17283900  0.51174200  1
  O  O72  1  0.49598400  0.00118600  0.15633800  1
  O  O73  1  0.99598400  0.49881400  0.84366200  1
  O  O74  1  0.50401600  0.50118600  0.34366200  1
  O  O75  1  0.00401600  0.99881400  0.65633800  1
  O  O76  1  0.50401600  0.99881400  0.84366200  1
  O  O77  1  0.00401600  0.50118600  0.15633800  1
  O  O78  1  0.49598400  0.49881400  0.65633800  1
  O  O79  1  0.99598400  0.00118600  0.34366200  1
loop_
_geom_bond_atom_site_label_1
_geom_bond_atom_site_label_2
_geom_bond_distance
_geom_bond_site_symmetry_2
O0 S0 1.428572 1_555
O1 S1 1.428572 1_555
O2 S2 1.428572 1_555
O3 S3 1.428572 1_555
O4 S4 1.428572 1_555
O5 S5 1.428572 1_555
O6 S6 1.428572 1_555
O7 S7 1.428572 1_555
O8 S0 1.519279 1_555
O8 Sn23 2.094492 1_555
O9 S1 1.519279 1_555
O9 Sn22 2.094492 1_555
O10 S2 1.519279 1_555
O10 Sn21 2.094492 1_555
O11 S3 1.519279 1_555
O11 Sn20 2.094492 1_555
O12 S4 1.519279 1_555
O12 Sn19 2.094492 1_555
O13 S5 1.519279 1_555
O13 Sn18 2.094492 1_555
O14 S6 1.519279 1_555
O14 Sn17 2.094492 1_555
O15 S7 1.519279 1_555
O15 Sn16 2.094492 1_555
O16 S0 1.522115 1_555
O16 Sn8 2.091267 1_555
O17 S1 1.522115 1_555
O17 Sn9 2.091267 1_555
O18 S2 1.522115 1_555
O18 Sn10 2.091267 1_555
O19 S3 1.522115 1_555
O19 Sn11 2.091267 1_555
O20 S4 1.522115 1_555
O20 Sn12 2.091267 1_555
O21 S5 1.522115 1_555
O21 Sn13 2.091267 1_555
O22 S6 1.522115 1_555
O22 Sn14 2.091267 1_555
O23 S7 1.522115 1_555
O23 Sn15 2.091267 1_555
O24 S0 1.518001 1_555
O24 Sn0 2.094746 1_555
O25 S1 1.518001 1_555
O25 Sn1 2.094746 1_555
O26 S2 1.518001 1_555
O26 Sn2 2.094746 1_555
O27 S3 1.518001 1_555
O27 Sn3 2.094746 1_555
O28 S4 1.518001 1_555
O28 Sn4 2.094746 1_555
O29 S5 1.518001 1_555
O29 Sn5 2.094746 1_555
O30 S6 1.518001 1_555
O30 Sn6 2.094746 1_555
O31 S7 1.518001 1_555
O31 Sn7 2.094746 1_555
O32 Sn0 1.917838 1_555
O32 Sn26 2.076227 1_555
O33 Sn1 1.917838 1_565
O33 Sn27 2.076227 1_565
O34 Sn2 1.917838 1_545
O34 Sn24 2.076227 1_555
O35 Sn3 1.917838 1_555
O35 Sn25 2.076227 1_656
O36 Sn4 1.917838 1_555
O36 Sn26 2.076227 1_555
O37 Sn5 1.917838 1_545
O37 Sn27 2.076227 1_655
O38 Sn6 1.917838 1_565
O38 Sn24 2.076227 1_566
O39 Sn7 1.917838 1_555
O39 Sn25 2.076227 1_555
O40 Sn8 1.917421 1_555
O40 Sn16 1.930547 1_555
O41 Sn9 1.917421 1_655
O41 Sn17 1.930547 1_555
O42 Sn10 1.917421 1_555
O42 Sn18 1.930547 1_555
O43 Sn11 1.917421 1_455
O43 Sn19 1.930547 1_555
O44 Sn12 1.917421 1_555
O44 Sn20 1.930547 1_555
O45 Sn13 1.917421 1_455
O45 Sn21 1.930547 1_555
O46 Sn14 1.917421 1_555
O46 Sn22 1.930547 1_555
O47 Sn15 1.917421 1_655
O47 Sn23 1.930547 1_555
O48 Sn0 1.919799 1_555
O48 Sn13 1.929497 1_555
O49 Sn1 1.919807 1_565
O49 Sn12 1.929490 1_555
O50 Sn2 1.919799 1_545
O50 Sn15 1.929497 1_555
O51 Sn3 1.919807 1_555
O51 Sn14 1.929490 1_555
O52 Sn4 1.919807 1_555
O52 Sn9 1.929490 1_555
O53 Sn5 1.919799 1_545
O53 Sn8 1.929497 1_555
O54 Sn6 1.919807 1_565
O54 Sn11 1.929490 1_555
O55 Sn7 1.919799 1_555
O55 Sn10 1.929497 1_555
O56 Sn23 1.917473 1_455
O56 Sn25 2.068728 1_555
O57 Sn22 1.917473 1_555
O57 Sn24 2.068728 1_556
O58 Sn21 1.917473 1_655
O58 Sn27 2.068728 1_665
O59 Sn20 1.917473 1_555
O59 Sn26 2.068728 1_555
O60 Sn19 1.917473 1_655
O60 Sn25 2.068728 1_656
O61 Sn18 1.917473 1_555
O61 Sn24 2.068728 1_565
O62 Sn17 1.917473 1_455
O62 Sn27 2.068728 1_555
O63 Sn16 1.917473 1_555
O63 Sn26 2.068728 1_555
O64 Sn23 1.923541 1_556
O64 Sn6 1.935600 1_555
O65 Sn22 1.923541 1_554
O65 Sn7 1.935600 1_555
O66 Sn21 1.923541 1_555
O66 Sn4 1.935600 1_555
O67 Sn20 1.923541 1_555
O67 Sn5 1.935600 1_555
O68 Sn19 1.923541 1_554
O68 Sn2 1.935600 1_555
O69 Sn18 1.923541 1_556
O69 Sn3 1.935600 1_555
O70 Sn17 1.923541 1_555
O70 Sn0 1.935600 1_555
O71 Sn16 1.923541 1_555
O71 Sn1 1.935600 1_555
O72 Sn8 1.913260 1_555
O72 Sn24 2.070247 1_555
O73 Sn9 1.913260 1_655
O73 Sn25 2.070247 1_656
O74 Sn10 1.913260 1_555
O74 Sn26 2.070247 1_555
O75 Sn11 1.913260 1_455
O75 Sn27 2.070247 1_565
O76 Sn12 1.913260 1_555
O76 Sn24 2.070247 1_566
O77 Sn13 1.913260 1_455
O77 Sn25 2.070247 1_555
O78 Sn14 1.913260 1_555
O78 Sn26 2.070247 1_555
O79 Sn15 1.913260 1_655
O79 Sn27 2.070247 1_655
