# generated using pymatgen
data_Li4Nb2Ni3Sn3O16
_symmetry_space_group_name_H-M   'P 1'
_cell_length_a   6.12201849
_cell_length_b   6.12201849
_cell_length_c   9.84518309
_cell_angle_alpha   89.29532649
_cell_angle_beta   89.29532649
_cell_angle_gamma   60.22791157
_symmetry_Int_Tables_number   1
_chemical_formula_structural   Li4Nb2Ni3Sn3O16
_chemical_formula_sum   'Li4 Nb2 Ni3 Sn3 O16'
_cell_volume   320.25257175
_cell_formula_units_Z   1
loop_
 _symmetry_equiv_pos_site_id
 _symmetry_equiv_pos_as_xyz
  1  'x, y, z'
loop_
 _atom_site_type_symbol
 _atom_site_label
 _atom_site_symmetry_multiplicity
 _atom_site_fract_x
 _atom_site_fract_y
 _atom_site_fract_z
 _atom_site_occupancy
  Li  Li0  1  0.67392500  0.67392500  0.89803200  1
  Li  Li1  1  0.98730700  0.98730700  0.98428200  1
  Li  Li2  1  0.99309600  0.99309600  0.49847000  1
  Li  Li3  1  0.33155700  0.33155700  0.40664400  1
  Nb  Nb0  1  0.67564500  0.67564500  0.49936200  1
  Nb  Nb1  1  0.35175900  0.35175900  0.97788500  1
  Ni  Ni0  1  0.82890200  0.82890200  0.21461000  1
  Ni  Ni1  1  0.66057500  0.17161800  0.71230500  1
  Ni  Ni2  1  0.17161800  0.66057500  0.71230500  1
  Sn  Sn0  1  0.83250100  0.33807300  0.21454300  1
  Sn  Sn1  1  0.33807300  0.83250100  0.21454300  1
  Sn  Sn2  1  0.17114800  0.17114800  0.71654700  1
  O  O0  1  0.83316500  0.33951100  0.58820100  1
  O  O1  1  0.51295100  0.51295100  0.34128600  1
  O  O2  1  0.66697200  0.66697200  0.10171300  1
  O  O3  1  0.99551400  0.99551400  0.31215500  1
  O  O4  1  0.99782500  0.99782500  0.80024900  1
  O  O5  1  0.33951100  0.83316500  0.58820100  1
  O  O6  1  0.95745400  0.51646800  0.34662900  1
  O  O7  1  0.51646800  0.95745400  0.34662900  1
  O  O8  1  0.16113900  0.16113900  0.09375800  1
  O  O9  1  0.82855000  0.82855000  0.59138600  1
  O  O10  1  0.47865200  0.04065100  0.85189400  1
  O  O11  1  0.04065100  0.47865200  0.85189400  1
  O  O12  1  0.33483200  0.33483200  0.60951200  1
  O  O13  1  0.66278100  0.17071800  0.09216000  1
  O  O14  1  0.48677500  0.48677500  0.85046000  1
  O  O15  1  0.17071800  0.66278100  0.09216000  1
loop_
_geom_bond_atom_site_label_1
_geom_bond_atom_site_label_2
_geom_bond_distance
_geom_bond_site_symmetry_2
Li0 O11 1.999700 1_655
Li0 O10 1.999700 1_565
Li0 O2 2.005582 1_556
Li0 O14 2.043240 1_555
Li1 O4 1.813679 1_555
Li1 O13 2.024348 1_566
Li1 O15 2.024348 1_656
Li1 O8 2.146596 1_666
Li2 O3 1.834120 1_555
Li2 O9 1.956723 1_555
Li2 O5 2.049238 1_655
Li2 O0 2.049238 1_565
Li3 O12 1.998067 1_555
Li3 O1 2.017424 1_555
Li3 O6 2.077977 1_455
Li3 O7 2.077977 1_545
Nb0 O9 1.866890 1_555
Nb0 O5 1.983755 1_555
Nb0 O0 1.983755 1_555
Nb0 O6 2.118903 1_555
Nb0 O7 2.118903 1_555
Nb0 O1 2.338287 1_555
Nb1 O14 1.888851 1_555
Nb1 O15 2.011445 1_556
Nb1 O13 2.011445 1_556
Nb1 O10 2.081984 1_555
Nb1 O11 2.081984 1_555
Nb1 O8 2.304786 1_556
Ni0 O3 2.021013 1_555
Ni0 O2 2.056963 1_555
Ni0 O6 2.106258 1_555
Ni0 O7 2.106258 1_555
Ni0 O15 2.172837 1_655
Ni0 O13 2.172837 1_565
Ni1 O4 1.996047 1_545
Ni1 O12 2.011301 1_555
Ni1 O10 2.143355 1_555
Ni1 O0 2.163703 1_555
Ni1 O14 2.166782 1_555
Ni1 O9 2.184565 1_545
Ni2 O4 1.996047 1_455
Ni2 O12 2.011301 1_555
Ni2 O11 2.143355 1_555
Ni2 O5 2.163703 1_555
Ni2 O14 2.166782 1_555
Ni2 O9 2.184565 1_455
O0 Sn2 2.203329 1_655
O1 Sn0 2.103127 1_555
O1 Sn1 2.103127 1_555
O2 Sn1 2.064329 1_555
O2 Sn0 2.064329 1_555
O3 Sn0 2.052581 1_565
O3 Sn1 2.052581 1_655
O4 Sn2 2.001502 1_665
O5 Sn2 2.203329 1_565
O6 Sn0 2.087604 1_555
O7 Sn1 2.087604 1_555
O8 Sn1 2.108032 1_545
O8 Sn0 2.108032 1_455
O10 Sn2 2.121259 1_555
O11 Sn2 2.121259 1_555
O12 Sn2 2.015949 1_555
O13 Sn0 2.167805 1_555
O15 Sn1 2.167805 1_555
