# generated using pymatgen
data_Li5Ti2Ni3O10
_symmetry_space_group_name_H-M   'P 1'
_cell_length_a   5.10156440
_cell_length_b   5.13691056
_cell_length_c   7.73217154
_cell_angle_alpha   108.96293739
_cell_angle_beta   101.17082816
_cell_angle_gamma   100.73378530
_symmetry_Int_Tables_number   1
_chemical_formula_structural   Li5Ti2Ni3O10
_chemical_formula_sum   'Li5 Ti2 Ni3 O10'
_cell_volume   181.09540814
_cell_formula_units_Z   1
loop_
 _symmetry_equiv_pos_site_id
 _symmetry_equiv_pos_as_xyz
  1  'x, y, z'
loop_
 _atom_site_type_symbol
 _atom_site_label
 _atom_site_symmetry_multiplicity
 _atom_site_fract_x
 _atom_site_fract_y
 _atom_site_fract_z
 _atom_site_occupancy
  Li  Li0  1  0.21621000  0.90108700  0.39565100  1
  Li  Li1  1  0.40983400  0.30218300  0.79807000  1
  Li  Li2  1  0.50000000  0.50000000  0.50000000  1
  Li  Li3  1  0.59016600  0.69781700  0.20193000  1
  Li  Li4  1  0.78379000  0.09891300  0.60434900  1
  Ti  Ti0  1  0.10627200  0.71729400  0.69278900  1
  Ti  Ti1  1  0.89372800  0.28270600  0.30721100  1
  Ni  Ni0  1  0.00000000  0.50000000  0.00000000  1
  Ni  Ni1  1  0.69801700  0.89330500  0.90001500  1
  Ni  Ni2  1  0.30198300  0.10669500  0.09998500  1
  O  O0  1  0.04964400  0.08249200  0.84406400  1
  O  O1  1  0.32508500  0.69572500  0.94173300  1
  O  O2  1  0.13457200  0.32141700  0.54072300  1
  O  O3  1  0.22076600  0.48843000  0.22960700  1
  O  O4  1  0.43808100  0.88929800  0.65801800  1
  O  O5  1  0.56191900  0.11070200  0.34198300  1
  O  O6  1  0.77923400  0.51157000  0.77039300  1
  O  O7  1  0.86542800  0.67858300  0.45927700  1
  O  O8  1  0.67491500  0.30427500  0.05826700  1
  O  O9  1  0.95035600  0.91750800  0.15593600  1
loop_
_geom_bond_atom_site_label_1
_geom_bond_atom_site_label_2
_geom_bond_distance
_geom_bond_site_symmetry_2
Li0 O5 2.075745 1_565
Li0 O3 2.098455 1_555
Li0 O9 2.110046 1_455
Li0 O4 2.148485 1_555
Li0 O7 2.166925 1_455
Li0 O2 2.244044 1_565
Li1 O6 2.074837 1_555
Li1 O4 2.091289 1_545
Li1 O0 2.125604 1_555
Li1 O1 2.135389 1_555
Li1 O8 2.191559 1_556
Li1 O2 2.244547 1_555
Li2 O2 2.047998 1_555
Li2 O7 2.047998 1_555
Li2 O5 2.094908 1_555
Li2 O4 2.094910 1_555
Li2 O3 2.266639 1_555
Li2 O6 2.266639 1_555
Li3 O3 2.074837 1_555
Li3 O5 2.091291 1_565
Li3 O9 2.125604 1_555
Li3 O8 2.135389 1_555
Li3 O1 2.191559 1_554
Li3 O7 2.244547 1_555
Li4 O4 2.075749 1_545
Li4 O6 2.098455 1_555
Li4 O0 2.110046 1_655
Li4 O5 2.148479 1_555
Li4 O2 2.166925 1_655
Li4 O7 2.244044 1_545
Ni0 O3 1.934592 1_555
Ni0 O6 1.934592 1_454
Ni0 O8 1.981685 1_455
Ni0 O1 1.981685 1_554
Ni0 O0 2.181211 1_554
Ni0 O9 2.181211 1_455
Ni1 O6 2.051269 1_555
Ni1 O4 2.064831 1_555
Ni1 O0 2.067388 1_665
Ni1 O9 2.093289 1_556
Ni1 O8 2.106575 1_566
Ni1 O1 2.117809 1_555
Ni2 O3 2.051269 1_555
Ni2 O5 2.064837 1_555
Ni2 O9 2.067388 1_445
Ni2 O0 2.093289 1_554
Ni2 O1 2.106575 1_544
Ni2 O8 2.117809 1_555
O0 Ti0 1.969174 1_545
O1 Ti0 2.077413 1_555
O2 Ti1 1.904019 1_455
O2 Ti0 2.039597 1_555
O3 Ti1 2.098499 1_455
O4 Ti0 1.868681 1_555
O5 Ti1 1.868685 1_555
O6 Ti0 2.098499 1_655
O7 Ti0 1.904019 1_655
O7 Ti1 2.039597 1_555
O8 Ti1 2.077413 1_555
O9 Ti1 1.969174 1_565
