# generated using pymatgen
data_Na4H20RuS4(NO9)2
_symmetry_space_group_name_H-M   'P 1'
_cell_length_a   6.58852600
_cell_length_b   9.77226500
_cell_length_c   16.41672721
_cell_angle_alpha   77.08922352
_cell_angle_beta   90.00000000
_cell_angle_gamma   90.00000000
_symmetry_Int_Tables_number   1
_chemical_formula_structural   Na4H20RuS4(NO9)2
_chemical_formula_sum   'Na8 H40 Ru2 S8 N4 O36'
_cell_volume   1030.26654231
_cell_formula_units_Z   2
loop_
 _symmetry_equiv_pos_site_id
 _symmetry_equiv_pos_as_xyz
  1  'x, y, z'
loop_
 _atom_site_type_symbol
 _atom_site_label
 _atom_site_symmetry_multiplicity
 _atom_site_fract_x
 _atom_site_fract_y
 _atom_site_fract_z
 _atom_site_occupancy
  Na  Na0  1  0.09875300  0.96636900  0.73082000  1
  Na  Na1  1  0.59875300  0.03363100  0.76918000  1
  Na  Na2  1  0.90124700  0.03363100  0.26918000  1
  Na  Na3  1  0.40124700  0.96636900  0.23082000  1
  Na  Na4  1  0.80990600  0.39550000  0.80182800  1
  Na  Na5  1  0.30990600  0.60450000  0.69817200  1
  Na  Na6  1  0.19009400  0.60450000  0.19817200  1
  Na  Na7  1  0.69009400  0.39550000  0.30182800  1
  H  H0  1  0.85990800  0.08204400  0.54562400  1
  H  H1  1  0.35990800  0.91795600  0.95437600  1
  H  H2  1  0.14009200  0.91795600  0.45437600  1
  H  H3  1  0.64009200  0.08204400  0.04562400  1
  H  H4  1  0.78340800  0.20993500  0.46813000  1
  H  H5  1  0.28340800  0.79006500  0.03187000  1
  H  H6  1  0.21659200  0.79006500  0.53187000  1
  H  H7  1  0.71659200  0.20993500  0.96813000  1
  H  H8  1  0.87154900  0.05875700  0.44846200  1
  H  H9  1  0.37154900  0.94124300  0.05153800  1
  H  H10  1  0.12845100  0.94124300  0.55153800  1
  H  H11  1  0.62845100  0.05875700  0.94846200  1
  H  H12  1  0.67255400  0.69497300  0.54740000  1
  H  H13  1  0.17255400  0.30502700  0.95260000  1
  H  H14  1  0.32744600  0.30502700  0.45260000  1
  H  H15  1  0.82744600  0.69497300  0.04740000  1
  H  H16  1  0.86237800  0.66272000  0.70541800  1
  H  H17  1  0.36237800  0.33728000  0.79458200  1
  H  H18  1  0.13762200  0.33728000  0.29458200  1
  H  H19  1  0.63762200  0.66272000  0.20541800  1
  H  H20  1  0.95524600  0.67630100  0.79208900  1
  H  H21  1  0.45524600  0.32369900  0.70791100  1
  H  H22  1  0.04475400  0.32369900  0.20791100  1
  H  H23  1  0.54475400  0.67630100  0.29208900  1
  H  H24  1  0.00817900  0.28967200  0.59023400  1
  H  H25  1  0.50817900  0.71032800  0.90976600  1
  H  H26  1  0.99182100  0.71032800  0.40976600  1
  H  H27  1  0.49182100  0.28967200  0.09023400  1
  H  H28  1  0.93204700  0.35010400  0.66135900  1
  H  H29  1  0.43204700  0.64989600  0.83864100  1
  H  H30  1  0.06795300  0.64989600  0.33864100  1
  H  H31  1  0.56795300  0.35010400  0.16135900  1
  H  H32  1  0.89179200  0.39869200  0.97697800  1
  H  H33  1  0.39179200  0.60130800  0.52302200  1
  H  H34  1  0.10820800  0.60130800  0.02302200  1
  H  H35  1  0.60820800  0.39869200  0.47697800  1
  H  H36  1  0.68602500  0.47870400  0.94951200  1
  H  H37  1  0.18602500  0.52129600  0.55048800  1
  H  H38  1  0.31397500  0.52129600  0.05048800  1
  H  H39  1  0.81397500  0.47870400  0.44951200  1
  Ru  Ru0  1  0.50000000  0.00000000  0.50000000  1
  Ru  Ru1  1  0.00000000  0.00000000  0.00000000  1
  S  S0  1  0.59725900  0.86477200  0.63362900  1
  S  S1  1  0.09725900  0.13522800  0.86637100  1
  S  S2  1  0.40274100  0.13522800  0.36637100  1
  S  S3  1  0.90274100  0.86477200  0.13362900  1
  S  S4  1  0.63040500  0.84096900  0.42589200  1
  S  S5  1  0.13040500  0.15903100  0.07410800  1
  S  S6  1  0.36959500  0.15903100  0.57410800  1
  S  S7  1  0.86959500  0.84096900  0.92589200  1
  N  N0  1  0.78775700  0.10209000  0.48889800  1
  N  N1  1  0.28775700  0.89791000  0.01110200  1
  N  N2  1  0.21224300  0.89791000  0.51110200  1
  N  N3  1  0.71224300  0.10209000  0.98889800  1
  O  O0  1  0.77275400  0.93083900  0.66905400  1
  O  O1  1  0.27275400  0.06916100  0.83094600  1
  O  O2  1  0.22724600  0.06916100  0.33094600  1
  O  O3  1  0.72724600  0.93083900  0.16905400  1
  O  O4  1  0.42336000  0.84408900  0.69656800  1
  O  O5  1  0.92336000  0.15591100  0.80343200  1
  O  O6  1  0.57664000  0.15591100  0.30343200  1
  O  O7  1  0.07664000  0.84408900  0.19656800  1
  O  O8  1  0.66563700  0.71290900  0.63290500  1
  O  O9  1  0.16563700  0.28709100  0.86709500  1
  O  O10  1  0.33436300  0.28709100  0.36709500  1
  O  O11  1  0.83436300  0.71290900  0.13290500  1
  O  O12  1  0.64921200  0.68542700  0.48524000  1
  O  O13  1  0.14921200  0.31457300  0.01476000  1
  O  O14  1  0.35078800  0.31457300  0.51476000  1
  O  O15  1  0.85078800  0.68542700  0.98524000  1
  O  O16  1  0.51024100  0.81188900  0.35489200  1
  O  O17  1  0.01024100  0.18811100  0.14510800  1
  O  O18  1  0.48975900  0.18811100  0.64510800  1
  O  O19  1  0.98975900  0.81188900  0.85489200  1
  O  O20  1  0.84537400  0.87814300  0.39825000  1
  O  O21  1  0.34537400  0.12185700  0.10175000  1
  O  O22  1  0.15462600  0.12185700  0.60175000  1
  O  O23  1  0.65462600  0.87814300  0.89825000  1
  O  O24  1  0.96413000  0.61996300  0.74889500  1
  O  O25  1  0.46413000  0.38003700  0.75110500  1
  O  O26  1  0.03587000  0.38003700  0.25110500  1
  O  O27  1  0.53587000  0.61996300  0.24889500  1
  O  O28  1  0.94625400  0.37599200  0.60077600  1
  O  O29  1  0.44625400  0.62400800  0.89922400  1
  O  O30  1  0.05374600  0.62400800  0.39922400  1
  O  O31  1  0.55374600  0.37599200  0.10077600  1
  O  O32  1  0.77740900  0.40637900  0.93774700  1
  O  O33  1  0.27740900  0.59362100  0.56225300  1
  O  O34  1  0.22259100  0.59362100  0.06225300  1
  O  O35  1  0.72259100  0.40637900  0.43774700  1
loop_
_geom_bond_atom_site_label_1
_geom_bond_atom_site_label_2
_geom_bond_distance
_geom_bond_site_symmetry_2
Na0 O22 2.344212 1_565
Na0 O19 2.359948 1_455
Na0 O1 2.400631 1_565
Na0 O0 2.432969 1_455
Na0 O4 2.572610 1_555
Na0 O5 2.678409 1_465
Na1 O23 2.344212 1_545
Na1 O18 2.359948 1_555
Na1 O0 2.400631 1_545
Na1 O1 2.432969 1_555
Na1 O5 2.572610 1_555
Na1 O4 2.678409 1_545
Na2 O20 2.344212 1_545
Na2 O17 2.359948 1_655
Na2 O3 2.400631 1_545
Na2 O2 2.432969 1_655
Na2 O6 2.572610 1_555
Na2 O7 2.678409 1_645
Na3 O21 2.344212 1_565
Na3 O16 2.359948 1_555
Na3 O2 2.400631 1_565
Na3 O3 2.432969 1_555
Na3 O7 2.572610 1_555
Na3 O6 2.678409 1_565
Na4 O32 2.267609 1_555
Na4 O24 2.397357 1_555
Na4 O25 2.441812 1_555
Na4 O5 2.452285 1_555
Na4 O9 2.693746 1_655
Na5 O33 2.267609 1_555
Na5 O25 2.397357 1_555
Na5 O24 2.441812 1_455
Na5 O4 2.452285 1_555
Na5 O8 2.693746 1_555
Na6 O34 2.267609 1_555
Na6 O26 2.397357 1_555
Na6 O27 2.441812 1_555
Na6 O7 2.452285 1_555
Na6 O11 2.693746 1_455
Na7 O35 2.267609 1_555
Na7 O27 2.397357 1_555
Na7 O26 2.441812 1_655
Na7 O6 2.452285 1_555
Na7 O10 2.693746 1_555
H0 N0 1.024727 1_555
H1 N1 1.024727 1_556
H2 N2 1.024727 1_555
H3 N3 1.024727 1_554
H4 N0 1.033044 1_555
H5 N1 1.033044 1_555
H6 N2 1.033044 1_555
H7 N3 1.033044 1_555
H8 N0 1.024880 1_555
H9 N1 1.024880 1_555
H10 N2 1.024880 1_555
H11 N3 1.024880 1_555
H12 O12 1.056522 1_555
H12 O8 1.453668 1_555
H13 O13 1.056522 1_556
H13 O9 1.453668 1_555
H14 O14 1.056522 1_555
H14 O10 1.453668 1_555
H15 O15 1.056522 1_554
H15 O11 1.453668 1_555
H16 O24 1.000093 1_555
H17 O25 1.000093 1_555
H18 O26 1.000093 1_555
H19 O27 1.000093 1_555
H20 O24 0.991875 1_555
H21 O25 0.991875 1_555
H22 O26 0.991875 1_555
H23 O27 0.991875 1_555
H24 O28 0.986515 1_455
H25 O29 0.986515 1_555
H26 O30 0.986515 1_655
H27 O31 0.986515 1_555
H28 O28 0.974425 1_555
H28 Na4 2.572813 1_555
H29 O29 0.974425 1_555
H29 Na5 2.572813 1_555
H30 O30 0.974425 1_555
H30 Na6 2.572813 1_555
H31 O31 0.974425 1_555
H31 Na7 2.572813 1_555
H32 O32 0.983236 1_555
H33 O33 0.983236 1_555
H34 O34 0.983236 1_555
H35 O35 0.983236 1_555
H36 O32 0.979974 1_555
H37 O33 0.979974 1_555
H38 O34 0.979974 1_555
H39 O35 0.979974 1_555
Ru0 S6 2.340606 1_555
Ru0 S4 2.340606 1_545
Ru0 S0 2.382018 1_545
Ru0 S2 2.382018 1_555
Ru1 S5 2.340606 1_555
Ru1 S7 2.340606 1_444
Ru1 S1 2.382018 1_554
Ru1 S3 2.382018 1_445
N0 Ru0 2.131123 1_555
N1 Ru1 2.131123 1_565
N2 Ru0 2.131123 1_565
N3 Ru1 2.131123 1_656
O0 S0 1.503247 1_555
O1 S1 1.503247 1_555
O2 S2 1.503247 1_555
O3 S3 1.503247 1_555
O4 S0 1.525731 1_555
O5 S1 1.525731 1_655
O6 S2 1.525731 1_555
O7 S3 1.525731 1_455
O8 S0 1.553504 1_555
O9 S1 1.553504 1_555
O10 S2 1.553504 1_555
O11 S3 1.553504 1_555
O12 S4 1.616548 1_555
O13 S5 1.616548 1_555
O14 S6 1.616548 1_555
O15 S7 1.616548 1_555
O16 S4 1.488007 1_555
O17 S5 1.488007 1_555
O18 S6 1.488007 1_555
O19 S7 1.488007 1_555
O20 S4 1.506723 1_555
O21 S5 1.506723 1_555
O22 S6 1.506723 1_555
O23 S7 1.506723 1_555
