# generated using pymatgen
data_Li2Mn(PO4)2
_symmetry_space_group_name_H-M   'P 1'
_cell_length_a   8.95602700
_cell_length_b   9.08316300
_cell_length_c   13.43648200
_cell_angle_alpha   90.00000000
_cell_angle_beta   90.00000000
_cell_angle_gamma   90.00000000
_symmetry_Int_Tables_number   1
_chemical_formula_structural   Li2Mn(PO4)2
_chemical_formula_sum   'Li16 Mn8 P16 O64'
_cell_volume   1093.04508734
_cell_formula_units_Z   8
loop_
 _symmetry_equiv_pos_site_id
 _symmetry_equiv_pos_as_xyz
  1  'x, y, z'
loop_
 _atom_site_type_symbol
 _atom_site_label
 _atom_site_symmetry_multiplicity
 _atom_site_fract_x
 _atom_site_fract_y
 _atom_site_fract_z
 _atom_site_occupancy
  Li  Li0  1  0.78436300  0.95865700  0.37299700  1
  Li  Li1  1  0.71563700  0.95865700  0.87299700  1
  Li  Li2  1  0.04563300  0.77365900  0.37342300  1
  Li  Li3  1  0.45436700  0.77365900  0.87342300  1
  Li  Li4  1  0.95436700  0.72634100  0.87342300  1
  Li  Li5  1  0.54563300  0.72634100  0.37342300  1
  Li  Li6  1  0.28436300  0.54134300  0.37299700  1
  Li  Li7  1  0.21563700  0.54134300  0.87299700  1
  Li  Li8  1  0.78436300  0.45865700  0.12700300  1
  Li  Li9  1  0.71563700  0.45865700  0.62700300  1
  Li  Li10  1  0.45436700  0.27365900  0.62657700  1
  Li  Li11  1  0.04563300  0.27365900  0.12657700  1
  Li  Li12  1  0.95436700  0.22634100  0.62657700  1
  Li  Li13  1  0.54563300  0.22634100  0.12657700  1
  Li  Li14  1  0.21563700  0.04134300  0.62700300  1
  Li  Li15  1  0.28436300  0.04134300  0.12700300  1
  Mn  Mn0  1  0.89544600  0.86034700  0.12386500  1
  Mn  Mn1  1  0.60455400  0.86034700  0.62386500  1
  Mn  Mn2  1  0.10455400  0.63965300  0.62386500  1
  Mn  Mn3  1  0.39544600  0.63965300  0.12386500  1
  Mn  Mn4  1  0.89544600  0.36034700  0.37613500  1
  Mn  Mn5  1  0.60455400  0.36034700  0.87613500  1
  Mn  Mn6  1  0.39544600  0.13965300  0.37613500  1
  Mn  Mn7  1  0.10455400  0.13965300  0.87613500  1
  P  P0  1  0.93451700  0.92651300  0.71956500  1
  P  P1  1  0.56548300  0.92651300  0.21956500  1
  P  P2  1  0.18640800  0.84008200  0.98965500  1
  P  P3  1  0.31359200  0.84008200  0.48965500  1
  P  P4  1  0.81359200  0.65991800  0.48965500  1
  P  P5  1  0.68640800  0.65991800  0.98965500  1
  P  P6  1  0.43451700  0.57348700  0.71956500  1
  P  P7  1  0.06548300  0.57348700  0.21956500  1
  P  P8  1  0.56548300  0.42651300  0.28043500  1
  P  P9  1  0.93451700  0.42651300  0.78043500  1
  P  P10  1  0.31359200  0.34008200  0.01034500  1
  P  P11  1  0.18640800  0.34008200  0.51034500  1
  P  P12  1  0.81359200  0.15991800  0.01034500  1
  P  P13  1  0.68640800  0.15991800  0.51034500  1
  P  P14  1  0.43451700  0.07348700  0.78043500  1
  P  P15  1  0.06548300  0.07348700  0.28043500  1
  O  O0  1  0.29802000  0.00967000  0.47424600  1
  O  O1  1  0.20198000  0.00967000  0.97424600  1
  O  O2  1  0.99936700  0.97624500  0.35895400  1
  O  O3  1  0.50063300  0.97624500  0.85895400  1
  O  O4  1  0.53178300  0.97889000  0.33053000  1
  O  O5  1  0.96821700  0.97889000  0.83053000  1
  O  O6  1  0.74105200  0.92162800  0.22056500  1
  O  O7  1  0.75894800  0.92162800  0.72056500  1
  O  O8  1  0.27642600  0.81045500  0.08719700  1
  O  O9  1  0.22357400  0.81045500  0.58719700  1
  O  O10  1  0.02091400  0.79830200  0.01337500  1
  O  O11  1  0.47908600  0.79830200  0.51337500  1
  O  O12  1  0.99679700  0.76528600  0.71864800  1
  O  O13  1  0.50320300  0.76528600  0.21864800  1
  O  O14  1  0.26492200  0.75282300  0.40000900  1
  O  O15  1  0.23507800  0.75282300  0.90000900  1
  O  O16  1  0.76492200  0.74717700  0.40000900  1
  O  O17  1  0.73507800  0.74717700  0.90000900  1
  O  O18  1  0.00320300  0.73471400  0.21864800  1
  O  O19  1  0.49679700  0.73471400  0.71864800  1
  O  O20  1  0.97908600  0.70169800  0.51337500  1
  O  O21  1  0.52091400  0.70169800  0.01337500  1
  O  O22  1  0.77642600  0.68954500  0.08719700  1
  O  O23  1  0.72357400  0.68954500  0.58719700  1
  O  O24  1  0.25894800  0.57837200  0.72056500  1
  O  O25  1  0.24105200  0.57837200  0.22056500  1
  O  O26  1  0.46821700  0.52111000  0.83053000  1
  O  O27  1  0.03178300  0.52111000  0.33053000  1
  O  O28  1  0.49936700  0.52375500  0.35895400  1
  O  O29  1  0.00063300  0.52375500  0.85895400  1
  O  O30  1  0.79802000  0.49033000  0.47424600  1
  O  O31  1  0.70198000  0.49033000  0.97424600  1
  O  O32  1  0.29802000  0.50967000  0.02575400  1
  O  O33  1  0.20198000  0.50967000  0.52575400  1
  O  O34  1  0.50063300  0.47624500  0.64104600  1
  O  O35  1  0.99936700  0.47624500  0.14104600  1
  O  O36  1  0.53178300  0.47889000  0.16947000  1
  O  O37  1  0.96821700  0.47889000  0.66947000  1
  O  O38  1  0.75894800  0.42162800  0.77943500  1
  O  O39  1  0.74105200  0.42162800  0.27943500  1
  O  O40  1  0.27642600  0.31045500  0.41280300  1
  O  O41  1  0.22357400  0.31045500  0.91280300  1
  O  O42  1  0.47908600  0.29830200  0.98662500  1
  O  O43  1  0.02091400  0.29830200  0.48662500  1
  O  O44  1  0.99679700  0.26528600  0.78135200  1
  O  O45  1  0.50320300  0.26528600  0.28135200  1
  O  O46  1  0.26492200  0.25282300  0.09999100  1
  O  O47  1  0.23507800  0.25282300  0.59999100  1
  O  O48  1  0.76492200  0.24717700  0.09999100  1
  O  O49  1  0.73507800  0.24717700  0.59999100  1
  O  O50  1  0.49679700  0.23471400  0.78135200  1
  O  O51  1  0.00320300  0.23471400  0.28135200  1
  O  O52  1  0.97908600  0.20169800  0.98662500  1
  O  O53  1  0.52091400  0.20169800  0.48662500  1
  O  O54  1  0.77642600  0.18954500  0.41280300  1
  O  O55  1  0.72357400  0.18954500  0.91280300  1
  O  O56  1  0.25894800  0.07837200  0.77943500  1
  O  O57  1  0.24105200  0.07837200  0.27943500  1
  O  O58  1  0.46821700  0.02111000  0.66947000  1
  O  O59  1  0.03178300  0.02111000  0.16947000  1
  O  O60  1  0.00063300  0.02375500  0.64104600  1
  O  O61  1  0.49936700  0.02375500  0.14104600  1
  O  O62  1  0.79802000  0.99033000  0.02575400  1
  O  O63  1  0.70198000  0.99033000  0.52575400  1
loop_
_geom_bond_atom_site_label_1
_geom_bond_atom_site_label_2
_geom_bond_distance
_geom_bond_site_symmetry_2
Li0 O2 1.941389 1_555
Li0 O16 1.962634 1_555
Li0 O6 2.111517 1_555
Li0 O54 2.165488 1_565
Li0 O63 2.199994 1_555
Li0 O4 2.340197 1_555
Li1 O3 1.941389 1_555
Li1 O17 1.962634 1_555
Li1 O7 2.111517 1_555
Li1 O55 2.165488 1_565
Li1 O62 2.199994 1_556
Li1 O5 2.340197 1_555
Li2 O2 1.896190 1_455
Li2 O14 2.005133 1_555
Li2 O20 2.078121 1_455
Li2 O18 2.143456 1_555
Li2 O27 2.368485 1_555
Li2 O16 2.550675 1_455
Li3 O3 1.896190 1_555
Li3 O15 2.005133 1_555
Li3 O21 2.078121 1_556
Li3 O19 2.143456 1_555
Li3 O26 2.368485 1_555
Li3 O17 2.550675 1_555
Li4 O29 1.896190 1_655
Li4 O17 2.005133 1_555
Li4 O10 2.078121 1_656
Li4 O12 2.143456 1_555
Li4 O5 2.368485 1_555
Li4 O15 2.550675 1_655
Li5 O28 1.896190 1_555
Li5 O16 2.005133 1_555
Li5 O11 2.078121 1_555
Li5 O13 2.143456 1_555
Li5 O4 2.368485 1_555
Li5 O14 2.550675 1_555
Li6 O28 1.941389 1_555
Li6 O14 1.962634 1_555
Li6 O25 2.111517 1_555
Li6 O40 2.165488 1_555
Li6 O33 2.199994 1_555
Li6 O27 2.340197 1_555
Li7 O29 1.941389 1_555
Li7 O15 1.962634 1_555
Li7 O24 2.111517 1_555
Li7 O41 2.165488 1_555
Li7 O32 2.199994 1_556
Li7 O26 2.340197 1_555
Li8 O35 1.941389 1_555
Li8 O48 1.962634 1_555
Li8 O39 2.111517 1_555
Li8 O22 2.165488 1_555
Li8 O31 2.199994 1_554
Li8 O36 2.340197 1_555
Li9 O34 1.941389 1_555
Li9 O49 1.962634 1_555
Li9 O38 2.111517 1_555
Li9 O23 2.165488 1_555
Li9 O30 2.199994 1_555
Li9 O37 2.340197 1_555
Li10 O34 1.896190 1_555
Li10 O47 2.005133 1_555
Li10 O53 2.078121 1_555
Li10 O50 2.143456 1_555
Li10 O58 2.368485 1_555
Li10 O49 2.550675 1_555
Li11 O35 1.896190 1_455
Li11 O46 2.005133 1_555
Li11 O52 2.078121 1_454
Li11 O51 2.143456 1_555
Li11 O59 2.368485 1_555
Li11 O48 2.550675 1_455
Li12 O60 1.896190 1_655
Li12 O49 2.005133 1_555
Li12 O43 2.078121 1_655
Li12 O44 2.143456 1_555
Li12 O37 2.368485 1_555
Li12 O47 2.550675 1_655
Li13 O61 1.896190 1_555
Li13 O48 2.005133 1_555
Li13 O42 2.078121 1_554
Li13 O45 2.143456 1_555
Li13 O36 2.368485 1_555
Li13 O46 2.550675 1_555
Li14 O60 1.941389 1_555
Li14 O47 1.962634 1_555
Li14 O56 2.111517 1_555
Li14 O9 2.165488 1_545
Li14 O0 2.199994 1_555
Li14 O58 2.340197 1_555
Li15 O61 1.941389 1_555
Li15 O46 1.962634 1_555
Li15 O57 2.111517 1_555
Li15 O8 2.165488 1_545
Li15 O1 2.199994 1_554
Li15 O59 2.340197 1_555
Mn0 O10 1.945334 1_655
Mn0 O22 1.945738 1_555
Mn0 O18 1.963545 1_655
Mn0 O62 1.973099 1_555
Mn0 O6 1.977384 1_555
Mn0 O59 1.999678 1_665
Mn1 O11 1.945334 1_555
Mn1 O23 1.945738 1_555
Mn1 O19 1.963545 1_555
Mn1 O63 1.973099 1_555
Mn1 O7 1.977384 1_555
Mn1 O58 1.999678 1_565
Mn2 O20 1.945334 1_455
Mn2 O9 1.945738 1_555
Mn2 O12 1.963545 1_455
Mn2 O33 1.973099 1_555
Mn2 O24 1.977384 1_555
Mn2 O37 1.999678 1_455
Mn3 O21 1.945334 1_555
Mn3 O8 1.945738 1_555
Mn3 O13 1.963545 1_555
Mn3 O32 1.973099 1_555
Mn3 O25 1.977384 1_555
Mn3 O36 1.999678 1_555
Mn4 O43 1.945334 1_655
Mn4 O54 1.945738 1_555
Mn4 O51 1.963545 1_655
Mn4 O30 1.973099 1_555
Mn4 O39 1.977384 1_555
Mn4 O27 1.999678 1_655
Mn5 O42 1.945334 1_555
Mn5 O55 1.945738 1_555
Mn5 O50 1.963545 1_555
Mn5 O31 1.973099 1_555
Mn5 O38 1.977384 1_555
Mn5 O26 1.999678 1_555
Mn6 O53 1.945334 1_555
Mn6 O40 1.945738 1_555
Mn6 O45 1.963545 1_555
Mn6 O0 1.973099 1_555
Mn6 O57 1.977384 1_555
Mn6 O4 1.999678 1_545
Mn7 O52 1.945334 1_455
Mn7 O41 1.945738 1_555
Mn7 O44 1.963545 1_455
Mn7 O1 1.973099 1_555
Mn7 O56 1.977384 1_555
Mn7 O5 1.999678 1_445
O0 P3 1.560492 1_545
O1 P2 1.560492 1_545
O2 P15 1.497948 1_665
O3 P14 1.497948 1_565
O4 P1 1.593879 1_555
O5 P0 1.593879 1_555
O6 P1 1.573084 1_555
O7 P0 1.573084 1_555
O8 P2 1.562085 1_554
O9 P3 1.562085 1_555
O10 P2 1.562824 1_554
O11 P3 1.562824 1_555
O12 P0 1.567128 1_555
O13 P1 1.567128 1_555
O14 P3 1.506347 1_555
O15 P2 1.506347 1_555
O16 P4 1.506347 1_555
O17 P5 1.506347 1_555
O18 P7 1.567128 1_555
O19 P6 1.567128 1_555
O20 P4 1.562824 1_555
O21 P5 1.562824 1_554
O22 P5 1.562085 1_554
O23 P4 1.562085 1_555
O24 P6 1.573084 1_555
O25 P7 1.573084 1_555
O26 P6 1.593879 1_555
O27 P7 1.593879 1_555
O28 P8 1.497948 1_555
O29 P9 1.497948 1_455
O30 P4 1.560492 1_555
O31 P5 1.560492 1_555
O32 P10 1.560492 1_555
O33 P11 1.560492 1_555
O34 P6 1.497948 1_555
O35 P7 1.497948 1_655
O36 P8 1.593879 1_555
O37 P9 1.593879 1_555
O38 P9 1.573084 1_555
O39 P8 1.573084 1_555
O40 P11 1.562085 1_555
O41 P10 1.562085 1_556
O42 P10 1.562824 1_556
O43 P11 1.562824 1_555
O44 P9 1.567128 1_555
O45 P8 1.567128 1_555
O46 P10 1.506347 1_555
O47 P11 1.506347 1_555
O48 P12 1.506347 1_555
O49 P13 1.506347 1_555
O50 P14 1.567128 1_555
O51 P15 1.567128 1_555
O52 P12 1.562824 1_556
O53 P13 1.562824 1_555
O54 P13 1.562085 1_555
O55 P12 1.562085 1_556
O56 P14 1.573084 1_555
O57 P15 1.573084 1_555
O58 P14 1.593879 1_555
O59 P15 1.593879 1_555
O60 P0 1.497948 1_445
O61 P1 1.497948 1_545
O62 P12 1.560492 1_565
O63 P13 1.560492 1_565
