# generated using pymatgen
data_CrP4O11
_symmetry_space_group_name_H-M   'P 1'
_cell_length_a   12.63133700
_cell_length_b   8.50788600
_cell_length_c   11.49965185
_cell_angle_alpha   47.54767302
_cell_angle_beta   90.00000000
_cell_angle_gamma   90.00000000
_symmetry_Int_Tables_number   1
_chemical_formula_structural   CrP4O11
_chemical_formula_sum   'Cr4 P16 O44'
_cell_volume   911.83740838
_cell_formula_units_Z   4
loop_
 _symmetry_equiv_pos_site_id
 _symmetry_equiv_pos_as_xyz
  1  'x, y, z'
loop_
 _atom_site_type_symbol
 _atom_site_label
 _atom_site_symmetry_multiplicity
 _atom_site_fract_x
 _atom_site_fract_y
 _atom_site_fract_z
 _atom_site_occupancy
  Cr  Cr0  1  0.46757500  0.48949400  0.73805600  1
  Cr  Cr1  1  0.96757500  0.51050600  0.76194400  1
  Cr  Cr2  1  0.03242500  0.48949400  0.23805600  1
  Cr  Cr3  1  0.53242500  0.51050600  0.26194400  1
  P  P0  1  0.21137800  0.49960100  0.60125200  1
  P  P1  1  0.16584300  0.85456600  0.26393500  1
  P  P2  1  0.49574600  0.84178400  0.34105200  1
  P  P3  1  0.84689800  0.84552300  0.40090600  1
  P  P4  1  0.34689800  0.15447700  0.09909400  1
  P  P5  1  0.99574600  0.15821600  0.15894800  1
  P  P6  1  0.71137800  0.50039900  0.89874800  1
  P  P7  1  0.66584300  0.14543400  0.23606500  1
  P  P8  1  0.33415700  0.85456600  0.76393500  1
  P  P9  1  0.28862200  0.49960100  0.10125200  1
  P  P10  1  0.00425400  0.84178400  0.84105200  1
  P  P11  1  0.65310200  0.84552300  0.90090600  1
  P  P12  1  0.15310200  0.15447700  0.59909400  1
  P  P13  1  0.50425400  0.15821600  0.65894800  1
  P  P14  1  0.83415700  0.14543400  0.73606500  1
  P  P15  1  0.78862200  0.50039900  0.39874800  1
  O  O0  1  0.89605800  0.27043500  0.75710600  1
  O  O1  1  0.46816700  0.71649200  0.29890900  1
  O  O2  1  0.78181000  0.66663600  0.42762100  1
  O  O3  1  0.10310900  0.49827500  0.65136000  1
  O  O4  1  0.30827800  0.46499900  0.68814200  1
  O  O5  1  0.41612700  0.22184800  0.96846000  1
  O  O6  1  0.23318300  0.72417400  0.41989800  1
  O  O7  1  0.25613000  0.99648500  0.13133600  1
  O  O8  1  0.90623500  0.96676800  0.23894600  1
  O  O9  1  0.60076100  0.98571700  0.23647900  1
  O  O10  1  0.51240200  0.74996400  0.50534300  1
  O  O11  1  0.01240200  0.25003600  0.99465700  1
  O  O12  1  0.10076100  0.01428300  0.26352100  1
  O  O13  1  0.91612700  0.77815200  0.53154000  1
  O  O14  1  0.80827800  0.53500100  0.81185800  1
  O  O15  1  0.40623500  0.03323200  0.26105400  1
  O  O16  1  0.60310900  0.50172500  0.84864000  1
  O  O17  1  0.75613000  0.00351500  0.36866400  1
  O  O18  1  0.73318300  0.27582600  0.08010200  1
  O  O19  1  0.28181000  0.33336400  0.07237900  1
  O  O20  1  0.39605800  0.72956500  0.74289400  1
  O  O21  1  0.03183300  0.71649200  0.79890900  1
  O  O22  1  0.96816700  0.28350800  0.20109100  1
  O  O23  1  0.60394200  0.27043500  0.25710600  1
  O  O24  1  0.71819000  0.66663600  0.92762100  1
  O  O25  1  0.26681700  0.72417400  0.91989800  1
  O  O26  1  0.24387000  0.99648500  0.63133600  1
  O  O27  1  0.39689100  0.49827500  0.15136000  1
  O  O28  1  0.59376500  0.96676800  0.73894600  1
  O  O29  1  0.19172200  0.46499900  0.18814200  1
  O  O30  1  0.08387300  0.22184800  0.46846000  1
  O  O31  1  0.89923900  0.98571700  0.73647900  1
  O  O32  1  0.98759800  0.74996400  0.00534300  1
  O  O33  1  0.48759800  0.25003600  0.49465700  1
  O  O34  1  0.39923900  0.01428300  0.76352100  1
  O  O35  1  0.09376500  0.03323200  0.76105400  1
  O  O36  1  0.74387000  0.00351500  0.86866400  1
  O  O37  1  0.76681700  0.27582600  0.58010200  1
  O  O38  1  0.58387300  0.77815200  0.03154000  1
  O  O39  1  0.69172200  0.53500100  0.31185800  1
  O  O40  1  0.89689100  0.50172500  0.34864000  1
  O  O41  1  0.21819000  0.33336400  0.57237900  1
  O  O42  1  0.53183300  0.28350800  0.70109100  1
  O  O43  1  0.10394200  0.72956500  0.24289400  1
loop_
_geom_bond_atom_site_label_1
_geom_bond_atom_site_label_2
_geom_bond_distance
_geom_bond_site_symmetry_2
Cr0 O10 2.094593 1_555
Cr0 O5 2.117308 1_555
Cr0 O4 2.140810 1_555
Cr0 O16 2.176578 1_555
Cr0 O42 2.217304 1_555
Cr0 O20 2.268114 1_555
Cr1 O11 2.094593 1_655
Cr1 O13 2.117308 1_555
Cr1 O14 2.140810 1_555
Cr1 O3 2.176578 1_655
Cr1 O21 2.217304 1_655
Cr1 O0 2.268114 1_555
Cr2 O32 2.094593 1_455
Cr2 O30 2.117308 1_555
Cr2 O29 2.140810 1_555
Cr2 O40 2.176578 1_455
Cr2 O22 2.217304 1_455
Cr2 O43 2.268114 1_555
Cr3 O33 2.094593 1_555
Cr3 O38 2.117308 1_555
Cr3 O39 2.140810 1_555
Cr3 O27 2.176578 1_555
Cr3 O1 2.217304 1_555
Cr3 O23 2.268114 1_555
O0 P14 1.465709 1_555
O1 P2 1.479831 1_555
O2 P3 1.566988 1_555
O2 P15 1.658885 1_555
O3 P0 1.481103 1_555
O4 P0 1.478546 1_555
O5 P4 1.479039 1_556
O6 P1 1.576375 1_555
O6 P0 1.642149 1_555
O7 P4 1.608105 1_565
O7 P1 1.611892 1_555
O8 P3 1.581491 1_555
O8 P5 1.659789 1_565
O9 P7 1.585426 1_565
O9 P2 1.648422 1_555
O10 P2 1.493835 1_555
O11 P5 1.493835 1_456
O12 P1 1.585426 1_545
O12 P5 1.648422 1_455
O13 P3 1.479039 1_555
O14 P6 1.478546 1_555
O15 P4 1.581491 1_555
O15 P2 1.659789 1_545
O16 P6 1.481103 1_555
O17 P3 1.608105 1_545
O17 P7 1.611892 1_555
O18 P7 1.576375 1_555
O18 P6 1.642149 1_554
O19 P4 1.566988 1_555
O19 P9 1.658885 1_555
O20 P8 1.465709 1_555
O21 P10 1.479831 1_555
O22 P5 1.479831 1_555
O23 P7 1.465709 1_555
O24 P11 1.566988 1_555
O24 P6 1.658885 1_555
O25 P8 1.576375 1_555
O25 P9 1.642149 1_556
O26 P12 1.608105 1_565
O26 P8 1.611892 1_555
O27 P9 1.481103 1_555
O28 P11 1.581491 1_555
O28 P13 1.659789 1_565
O29 P9 1.478546 1_555
O30 P12 1.479039 1_555
O31 P14 1.585426 1_565
O31 P10 1.648422 1_655
O32 P10 1.493835 1_654
O33 P13 1.493835 1_555
O34 P8 1.585426 1_545
O34 P13 1.648422 1_555
O35 P12 1.581491 1_555
O35 P10 1.659789 1_545
O36 P11 1.608105 1_545
O36 P14 1.611892 1_555
O37 P14 1.576375 1_555
O37 P15 1.642149 1_555
O38 P11 1.479039 1_554
O39 P15 1.478546 1_555
O40 P15 1.481103 1_555
O41 P12 1.566988 1_555
O41 P0 1.658885 1_555
O42 P13 1.479831 1_555
O43 P1 1.465709 1_555
