# generated using pymatgen
data_Li4Mn2Fe(BO3)4
_symmetry_space_group_name_H-M   'P 1'
_cell_length_a   9.18888100
_cell_length_b   5.26629500
_cell_length_c   10.72720117
_cell_angle_alpha   63.68695623
_cell_angle_beta   90.00000000
_cell_angle_gamma   90.00000000
_symmetry_Int_Tables_number   1
_chemical_formula_structural   Li4Mn2Fe(BO3)4
_chemical_formula_sum   'Li8 Mn4 Fe2 B8 O24'
_cell_volume   465.31716889
_cell_formula_units_Z   2
loop_
 _symmetry_equiv_pos_site_id
 _symmetry_equiv_pos_as_xyz
  1  'x, y, z'
loop_
 _atom_site_type_symbol
 _atom_site_label
 _atom_site_symmetry_multiplicity
 _atom_site_fract_x
 _atom_site_fract_y
 _atom_site_fract_z
 _atom_site_occupancy
  Li  Li0  1  0.24105700  0.49812800  0.33513100  1
  Li  Li1  1  0.91203100  0.45209300  0.37204600  1
  Li  Li2  1  0.24298500  0.92947300  0.88577600  1
  Li  Li3  1  0.71958000  0.49845000  0.15894000  1
  Li  Li4  1  0.75701500  0.92947300  0.38577600  1
  Li  Li5  1  0.75894300  0.49812800  0.83513100  1
  Li  Li6  1  0.08796900  0.45209300  0.87204600  1
  Li  Li7  1  0.28042000  0.49845000  0.65894000  1
  Mn  Mn0  1  0.55660600  0.97601600  0.88029200  1
  Mn  Mn1  1  0.07307500  0.02088700  0.62393800  1
  Mn  Mn2  1  0.44339400  0.97601600  0.38029200  1
  Mn  Mn3  1  0.92692500  0.02088700  0.12393800  1
  Fe  Fe0  1  0.73502300  0.07175600  0.61307700  1
  Fe  Fe1  1  0.26497700  0.07175600  0.11307700  1
  B  B0  1  0.57255200  0.44901600  0.38514100  1
  B  B1  1  0.90884000  0.96896300  0.86403000  1
  B  B2  1  0.06327900  0.55681700  0.11817700  1
  B  B3  1  0.40238000  0.02957400  0.63182300  1
  B  B4  1  0.09116000  0.96896300  0.36403000  1
  B  B5  1  0.42744800  0.44901600  0.88514100  1
  B  B6  1  0.59762000  0.02957400  0.13182300  1
  B  B7  1  0.93672100  0.55681700  0.61817700  1
  O  O0  1  0.59400100  0.83534700  0.07660600  1
  O  O1  1  0.92217500  0.32362200  0.58871900  1
  O  O2  1  0.18297000  0.71267400  0.11337800  1
  O  O3  1  0.27493600  0.14331100  0.65042400  1
  O  O4  1  0.92561400  0.61885100  0.15231400  1
  O  O5  1  0.53192800  0.10189800  0.67907000  1
  O  O6  1  0.43639200  0.36083000  0.36514400  1
  O  O7  1  0.04028300  0.88581900  0.82437300  1
  O  O8  1  0.77797800  0.87170300  0.84190600  1
  O  O9  1  0.69813300  0.29154000  0.39090000  1
  O  O10  1  0.08255400  0.16393900  0.42109000  1
  O  O11  1  0.41156600  0.69147900  0.90102100  1
  O  O12  1  0.07782500  0.32362200  0.08871900  1
  O  O13  1  0.40599900  0.83534700  0.57660600  1
  O  O14  1  0.72506400  0.14331100  0.15042400  1
  O  O15  1  0.46807200  0.10189800  0.17907000  1
  O  O16  1  0.81703000  0.71267400  0.61337800  1
  O  O17  1  0.07438600  0.61885100  0.65231400  1
  O  O18  1  0.95971700  0.88581900  0.32437300  1
  O  O19  1  0.22202200  0.87170300  0.34190600  1
  O  O20  1  0.56360800  0.36083000  0.86514400  1
  O  O21  1  0.30186700  0.29154000  0.89090000  1
  O  O22  1  0.58843400  0.69147900  0.40102100  1
  O  O23  1  0.91744600  0.16393900  0.92109000  1
loop_
_geom_bond_atom_site_label_1
_geom_bond_atom_site_label_2
_geom_bond_distance
_geom_bond_site_symmetry_2
Li0 O6 1.908345 1_555
Li0 O19 2.008264 1_555
Li0 O10 2.151793 1_555
Li0 O2 2.199394 1_555
Li1 O10 2.080153 1_655
Li1 O9 2.113605 1_555
Li1 O1 2.115335 1_555
Li1 O4 2.123113 1_555
Li1 O18 2.152951 1_555
Li2 O11 1.953338 1_555
Li2 O21 2.006087 1_565
Li2 O7 2.022439 1_555
Li2 O2 2.257748 1_556
Li2 O3 2.282052 1_565
Li3 O14 1.913179 1_555
Li3 O0 1.967278 1_555
Li3 O4 1.987820 1_555
Li3 O9 2.239189 1_555
Li4 O22 1.953338 1_555
Li4 O9 2.006087 1_565
Li4 O18 2.022439 1_555
Li4 O16 2.257748 1_555
Li4 O14 2.282052 1_565
Li5 O20 1.908345 1_555
Li5 O8 2.008264 1_555
Li5 O23 2.151793 1_555
Li5 O16 2.199394 1_555
Li6 O23 2.080153 1_455
Li6 O21 2.113605 1_555
Li6 O12 2.115335 1_556
Li6 O17 2.123113 1_555
Li6 O7 2.152951 1_555
Li7 O3 1.913179 1_555
Li7 O13 1.967278 1_555
Li7 O17 1.987820 1_555
Li7 O21 2.239189 1_555
Mn0 O0 1.928369 1_556
Mn0 O11 1.943103 1_555
Mn0 O20 1.960990 1_565
Mn0 O5 1.970179 1_565
Mn0 O8 2.193100 1_555
Mn1 O10 1.963862 1_555
Mn1 O7 1.965663 1_545
Mn1 O17 2.001036 1_545
Mn1 O1 2.018211 1_455
Mn1 O3 2.024686 1_555
Mn2 O13 1.928369 1_555
Mn2 O22 1.943103 1_555
Mn2 O6 1.960990 1_565
Mn2 O15 1.970179 1_565
Mn2 O19 2.193100 1_555
Mn3 O23 1.963862 1_554
Mn3 O18 1.965663 1_545
Mn3 O4 2.001036 1_545
Mn3 O12 2.018211 1_655
Mn3 O14 2.024686 1_555
Fe0 O5 2.027001 1_555
Fe0 O16 2.034316 1_545
Fe0 O1 2.116077 1_555
Fe0 O9 2.165470 1_555
Fe0 O8 2.235742 1_545
Fe1 O15 2.027001 1_555
Fe1 O2 2.034316 1_545
Fe1 O12 2.116077 1_555
Fe1 O21 2.165470 1_554
Fe1 O19 2.235742 1_545
B0 O22 1.368788 1_555
B0 O6 1.383984 1_555
B0 O9 1.406327 1_555
B1 O8 1.368353 1_555
B1 O23 1.411534 1_565
B1 O7 1.413028 1_655
B2 O2 1.359596 1_555
B2 O4 1.395377 1_455
B2 O12 1.403544 1_555
B3 O3 1.369650 1_555
B3 O13 1.391157 1_545
B3 O5 1.410723 1_555
B4 O19 1.368353 1_555
B4 O10 1.411534 1_565
B4 O18 1.413028 1_455
B5 O11 1.368788 1_555
B5 O20 1.383984 1_555
B5 O21 1.406327 1_555
B6 O14 1.369650 1_555
B6 O0 1.391157 1_545
B6 O15 1.410723 1_555
B7 O16 1.359596 1_555
B7 O17 1.395377 1_655
B7 O1 1.403544 1_555
