# generated using pymatgen
data_Ho2(SeO4)3
_symmetry_space_group_name_H-M   'P 1'
_cell_length_a   9.65628700
_cell_length_b   9.74681600
_cell_length_c   13.42768200
_cell_angle_alpha   90.00000000
_cell_angle_beta   90.00000000
_cell_angle_gamma   90.00000000
_symmetry_Int_Tables_number   1
_chemical_formula_structural   Ho2(SeO4)3
_chemical_formula_sum   'Ho8 Se12 O48'
_cell_volume   1263.78728120
_cell_formula_units_Z   4
loop_
 _symmetry_equiv_pos_site_id
 _symmetry_equiv_pos_as_xyz
  1  'x, y, z'
loop_
 _atom_site_type_symbol
 _atom_site_label
 _atom_site_symmetry_multiplicity
 _atom_site_fract_x
 _atom_site_fract_y
 _atom_site_fract_z
 _atom_site_occupancy
  Ho  Ho0  1  0.24976900  0.96226400  0.11773800  1
  Ho  Ho1  1  0.75023100  0.46226400  0.11773800  1
  Ho  Ho2  1  0.25023100  0.46226400  0.38226200  1
  Ho  Ho3  1  0.74976900  0.96226400  0.38226200  1
  Ho  Ho4  1  0.25023100  0.03773600  0.61773800  1
  Ho  Ho5  1  0.74976900  0.53773600  0.61773800  1
  Ho  Ho6  1  0.24976900  0.53773600  0.88226200  1
  Ho  Ho7  1  0.75023100  0.03773600  0.88226200  1
  Se  Se0  1  0.03499900  0.25000000  0.00000000  1
  Se  Se1  1  0.96500100  0.75000000  0.00000000  1
  Se  Se2  1  0.39390100  0.61156500  0.14668100  1
  Se  Se3  1  0.60609900  0.11156500  0.14668100  1
  Se  Se4  1  0.10609900  0.11156500  0.35331900  1
  Se  Se5  1  0.89390100  0.61156500  0.35331900  1
  Se  Se6  1  0.46500100  0.75000000  0.50000000  1
  Se  Se7  1  0.53499900  0.25000000  0.50000000  1
  Se  Se8  1  0.10609900  0.38843500  0.64668100  1
  Se  Se9  1  0.89390100  0.88843500  0.64668100  1
  Se  Se10  1  0.39390100  0.88843500  0.85331900  1
  Se  Se11  1  0.60609900  0.38843500  0.85331900  1
  O  O0  1  0.66731500  0.07387800  0.03423900  1
  O  O1  1  0.33268500  0.57387800  0.03423900  1
  O  O2  1  0.86473300  0.64478800  0.06476800  1
  O  O3  1  0.13526700  0.14478800  0.06476800  1
  O  O4  1  0.06235300  0.83665200  0.08057700  1
  O  O5  1  0.93764700  0.33665200  0.08057700  1
  O  O6  1  0.43502600  0.09423600  0.14836900  1
  O  O7  1  0.56497400  0.59423600  0.14836900  1
  O  O8  1  0.35604900  0.77316500  0.17628600  1
  O  O9  1  0.64395100  0.27316500  0.17628600  1
  O  O10  1  0.32234700  0.50354600  0.22746400  1
  O  O11  1  0.67765300  0.00354600  0.22746400  1
  O  O12  1  0.17765300  0.00354600  0.27253600  1
  O  O13  1  0.82234700  0.50354600  0.27253600  1
  O  O14  1  0.85604900  0.77316500  0.32371400  1
  O  O15  1  0.14395100  0.27316500  0.32371400  1
  O  O16  1  0.06497400  0.59423600  0.35163100  1
  O  O17  1  0.93502600  0.09423600  0.35163100  1
  O  O18  1  0.43764700  0.33665200  0.41942300  1
  O  O19  1  0.56235300  0.83665200  0.41942300  1
  O  O20  1  0.36473300  0.64478800  0.43523200  1
  O  O21  1  0.63526700  0.14478800  0.43523200  1
  O  O22  1  0.16731500  0.07387800  0.46576100  1
  O  O23  1  0.83268500  0.57387800  0.46576100  1
  O  O24  1  0.16731500  0.42612200  0.53423900  1
  O  O25  1  0.83268500  0.92612200  0.53423900  1
  O  O26  1  0.63526700  0.35521200  0.56476800  1
  O  O27  1  0.36473300  0.85521200  0.56476800  1
  O  O28  1  0.43764700  0.16334800  0.58057700  1
  O  O29  1  0.56235300  0.66334800  0.58057700  1
  O  O30  1  0.06497400  0.90576400  0.64836900  1
  O  O31  1  0.93502600  0.40576400  0.64836900  1
  O  O32  1  0.14395100  0.22683500  0.67628600  1
  O  O33  1  0.85604900  0.72683500  0.67628600  1
  O  O34  1  0.17765300  0.49645400  0.72746400  1
  O  O35  1  0.82234700  0.99645400  0.72746400  1
  O  O36  1  0.32234700  0.99645400  0.77253600  1
  O  O37  1  0.67765300  0.49645400  0.77253600  1
  O  O38  1  0.35604900  0.72683500  0.82371400  1
  O  O39  1  0.64395100  0.22683500  0.82371400  1
  O  O40  1  0.43502600  0.40576400  0.85163100  1
  O  O41  1  0.56497400  0.90576400  0.85163100  1
  O  O42  1  0.06235300  0.66334800  0.91942300  1
  O  O43  1  0.93764700  0.16334800  0.91942300  1
  O  O44  1  0.13526700  0.35521200  0.93523200  1
  O  O45  1  0.86473300  0.85521200  0.93523200  1
  O  O46  1  0.33268500  0.92612200  0.96576100  1
  O  O47  1  0.66731500  0.42612200  0.96576100  1
loop_
_geom_bond_atom_site_label_1
_geom_bond_atom_site_label_2
_geom_bond_distance
_geom_bond_site_symmetry_2
Ho0 O3 2.212087 1_565
Ho0 O46 2.220271 1_554
Ho0 O12 2.228749 1_565
Ho0 O4 2.241229 1_555
Ho0 O6 2.241406 1_565
Ho0 O8 2.251300 1_555
Ho1 O2 2.212087 1_555
Ho1 O47 2.220271 1_554
Ho1 O13 2.228749 1_555
Ho1 O5 2.241229 1_555
Ho1 O7 2.241406 1_555
Ho1 O9 2.251300 1_555
Ho2 O20 2.212087 1_555
Ho2 O24 2.220271 1_555
Ho2 O10 2.228749 1_555
Ho2 O18 2.241229 1_555
Ho2 O16 2.241406 1_555
Ho2 O15 2.251300 1_555
Ho3 O21 2.212087 1_565
Ho3 O25 2.220271 1_555
Ho3 O11 2.228749 1_565
Ho3 O19 2.241229 1_555
Ho3 O17 2.241406 1_565
Ho3 O14 2.251300 1_555
Ho4 O27 2.212087 1_545
Ho4 O22 2.220271 1_555
Ho4 O36 2.228749 1_545
Ho4 O28 2.241229 1_555
Ho4 O30 2.241406 1_545
Ho4 O32 2.251300 1_555
Ho5 O26 2.212087 1_555
Ho5 O23 2.220271 1_555
Ho5 O37 2.228749 1_555
Ho5 O29 2.241229 1_555
Ho5 O31 2.241406 1_555
Ho5 O33 2.251300 1_555
Ho6 O44 2.212087 1_555
Ho6 O1 2.220271 1_556
Ho6 O34 2.228749 1_555
Ho6 O42 2.241229 1_555
Ho6 O40 2.241406 1_555
Ho6 O38 2.251300 1_555
Ho7 O45 2.212087 1_545
Ho7 O0 2.220271 1_556
Ho7 O35 2.228749 1_545
Ho7 O43 2.241229 1_555
Ho7 O41 2.241406 1_545
Ho7 O39 2.251300 1_555
O0 Se3 1.662515 1_555
O1 Se2 1.662515 1_555
O2 Se1 1.656927 1_555
O3 Se0 1.656927 1_555
O4 Se1 1.663632 1_455
O5 Se0 1.663632 1_655
O6 Se3 1.660697 1_555
O7 Se2 1.660697 1_555
O8 Se2 1.665088 1_555
O9 Se3 1.665088 1_555
O10 Se2 1.662082 1_555
O11 Se3 1.662082 1_555
O12 Se4 1.662082 1_555
O13 Se5 1.662082 1_555
O14 Se5 1.665088 1_555
O15 Se4 1.665088 1_555
O16 Se5 1.660697 1_455
O17 Se4 1.660697 1_655
O18 Se7 1.663632 1_555
O19 Se6 1.663632 1_555
O20 Se6 1.656927 1_555
O21 Se7 1.656927 1_555
O22 Se4 1.662515 1_555
O23 Se5 1.662515 1_555
O24 Se8 1.662515 1_555
O25 Se9 1.662515 1_555
O26 Se7 1.656927 1_555
O27 Se6 1.656927 1_555
O28 Se7 1.663632 1_555
O29 Se6 1.663632 1_555
O30 Se9 1.660697 1_455
O31 Se8 1.660697 1_655
O32 Se8 1.665088 1_555
O33 Se9 1.665088 1_555
O34 Se8 1.662082 1_555
O35 Se9 1.662082 1_555
O36 Se10 1.662082 1_555
O37 Se11 1.662082 1_555
O38 Se10 1.665088 1_555
O39 Se11 1.665088 1_555
O40 Se11 1.660697 1_555
O41 Se10 1.660697 1_555
O42 Se1 1.663632 1_456
O43 Se0 1.663632 1_656
O44 Se0 1.656927 1_556
O45 Se1 1.656927 1_556
O46 Se10 1.662515 1_555
O47 Se11 1.662515 1_555
