# generated using pymatgen
data_Mn6O5F7
_symmetry_space_group_name_H-M   'P 1'
_cell_length_a   5.17856600
_cell_length_b   5.73924488
_cell_length_c   14.42501085
_cell_angle_alpha   88.90916835
_cell_angle_beta   87.39449948
_cell_angle_gamma   89.93336242
_symmetry_Int_Tables_number   1
_chemical_formula_structural   Mn6O5F7
_chemical_formula_sum   'Mn12 O10 F14'
_cell_volume   428.20574054
_cell_formula_units_Z   2
loop_
 _symmetry_equiv_pos_site_id
 _symmetry_equiv_pos_as_xyz
  1  'x, y, z'
loop_
 _atom_site_type_symbol
 _atom_site_label
 _atom_site_symmetry_multiplicity
 _atom_site_fract_x
 _atom_site_fract_y
 _atom_site_fract_z
 _atom_site_occupancy
  Mn  Mn0  1  0.03202300  0.12526400  0.00921300  1
  Mn  Mn1  1  0.50866200  0.84870000  0.16852800  1
  Mn  Mn2  1  0.99302400  0.11454600  0.33032300  1
  Mn  Mn3  1  0.48943800  0.89404200  0.50365600  1
  Mn  Mn4  1  0.98779300  0.14548600  0.66650500  1
  Mn  Mn5  1  0.48914000  0.96167600  0.82696300  1
  Mn  Mn6  1  0.00882800  0.55795500  0.16745500  1
  Mn  Mn7  1  0.52574800  0.41935400  0.00816200  1
  Mn  Mn8  1  0.47385300  0.42492100  0.66111700  1
  Mn  Mn9  1  0.96100600  0.54921000  0.49686400  1
  Mn  Mn10  1  0.49932900  0.39602400  0.32500600  1
  Mn  Mn11  1  0.02044000  0.48942100  0.83163200  1
  O  O0  1  0.26587900  0.20384100  0.74462900  1
  O  O1  1  0.83984300  0.36510700  0.07703300  1
  O  O2  1  0.18166800  0.35587400  0.26022000  1
  O  O3  1  0.15705400  0.37266500  0.58782400  1
  O  O4  1  0.21974300  0.36254700  0.94183400  1
  O  O5  1  0.80285200  0.34865100  0.39681700  1
  O  O6  1  0.78501400  0.36522800  0.73028000  1
  O  O7  1  0.65113800  0.61424800  0.56657600  1
  O  O8  1  0.68192800  0.61142500  0.23769700  1
  O  O9  1  0.33437000  0.61931800  0.09885800  1
  F  F0  1  0.65669900  0.08950100  0.24932000  1
  F  F1  1  0.36805600  0.10430600  0.09156100  1
  F  F2  1  0.70092400  0.16644900  0.92281300  1
  F  F3  1  0.68513800  0.12384200  0.58690800  1
  F  F4  1  0.33566400  0.13546800  0.40996500  1
  F  F5  1  0.69670700  0.63834300  0.90346200  1
  F  F6  1  0.29692400  0.62384800  0.42475700  1
  F  F7  1  0.32058300  0.67716200  0.75826300  1
  F  F8  1  0.84110600  0.86481900  0.41834700  1
  F  F9  1  0.86065100  0.86994500  0.08564000  1
  F  F10  1  0.83243800  0.90605600  0.74566500  1
  F  F11  1  0.15327800  0.89737600  0.58778700  1
  F  F12  1  0.19022900  0.89538800  0.92666900  1
  F  F13  1  0.15282900  0.86199500  0.25165200  1
loop_
_geom_bond_atom_site_label_1
_geom_bond_atom_site_label_2
_geom_bond_distance
_geom_bond_site_symmetry_2
Mn0 O4 1.900273 1_554
Mn0 O1 1.949847 1_455
Mn1 O8 1.918824 1_555
Mn1 O9 1.921819 1_555
Mn2 O5 1.911863 1_555
Mn2 O2 1.937856 1_655
Mn3 O7 2.028316 1_555
Mn4 O6 1.868905 1_555
Mn4 O3 1.900612 1_655
Mn4 O0 1.902381 1_655
Mn5 O0 2.176514 1_565
Mn6 O9 1.944652 1_555
Mn6 O8 1.959932 1_455
Mn6 O1 1.962933 1_455
Mn6 O2 1.996059 1_555
Mn7 O4 1.919329 1_554
Mn7 O1 1.965596 1_555
Mn7 O9 1.986845 1_555
Mn8 O7 1.927552 1_555
Mn8 O6 1.959872 1_555
Mn8 O0 2.011992 1_555
Mn8 O3 2.017447 1_555
Mn9 O7 1.895182 1_555
Mn9 O3 1.961397 1_655
Mn9 O5 2.061888 1_555
Mn10 O5 1.937491 1_555
Mn10 O2 1.944591 1_555
Mn10 O8 1.960557 1_555
Mn11 O4 2.055685 1_555
Mn11 O6 2.082217 1_455
Mn11 O0 2.409436 1_555
F0 Mn1 2.000227 1_545
F0 Mn2 2.147426 1_555
F0 Mn10 2.222573 1_555
F1 Mn1 1.980880 1_545
F1 Mn0 2.153068 1_555
F1 Mn7 2.283595 1_555
F2 Mn7 2.099747 1_556
F2 Mn5 2.167590 1_545
F2 Mn0 2.175139 1_656
F3 Mn4 1.989912 1_555
F3 Mn3 2.093506 1_545
F3 Mn8 2.299669 1_555
F4 Mn10 2.072490 1_555
F4 Mn3 2.098702 1_545
F4 Mn2 2.161889 1_455
F5 Mn7 2.110254 1_556
F5 Mn11 2.118285 1_655
F5 Mn5 2.417008 1_555
F6 Mn9 2.027751 1_455
F6 Mn10 2.193193 1_555
F6 Mn3 2.206325 1_555
F7 Mn11 2.123179 1_555
F7 Mn5 2.133993 1_555
F7 Mn8 2.159380 1_555
F8 Mn2 2.031719 1_565
F8 Mn3 2.159258 1_555
F8 Mn9 2.220936 1_555
F9 Mn0 2.000696 1_665
F9 Mn1 2.136324 1_555
F9 Mn6 2.277395 1_655
F10 Mn4 1.923208 1_565
F10 Mn5 2.112133 1_555
F11 Mn4 2.005421 1_465
F11 Mn3 2.076626 1_555
F11 Mn9 2.632033 1_455
F12 Mn0 1.948892 1_566
F12 Mn5 2.094646 1_555
F13 Mn2 2.011979 1_465
F13 Mn1 2.154393 1_555
F13 Mn6 2.289577 1_555
