# generated using pymatgen
data_Li5V5O9F
_symmetry_space_group_name_H-M   'P 1'
_cell_length_a   5.20393100
_cell_length_b   5.26314353
_cell_length_c   7.95779111
_cell_angle_alpha   70.77056982
_cell_angle_beta   70.96197000
_cell_angle_gamma   80.58575410
_symmetry_Int_Tables_number   1
_chemical_formula_structural   Li5V5O9F
_chemical_formula_sum   'Li5 V5 O9 F1'
_cell_volume   194.15413208
_cell_formula_units_Z   1
loop_
 _symmetry_equiv_pos_site_id
 _symmetry_equiv_pos_as_xyz
  1  'x, y, z'
loop_
 _atom_site_type_symbol
 _atom_site_label
 _atom_site_symmetry_multiplicity
 _atom_site_fract_x
 _atom_site_fract_y
 _atom_site_fract_z
 _atom_site_occupancy
  Li  Li0  1  0.51421400  0.30370100  0.91125200  1
  Li  Li1  1  0.50648200  0.87773800  0.69424700  1
  Li  Li2  1  0.50960400  0.51175200  0.48287100  1
  Li  Li3  1  0.49751700  0.09963800  0.30385100  1
  Li  Li4  1  0.49352200  0.70217000  0.10316800  1
  V  V0  1  0.99067500  0.62007400  0.80239300  1
  V  V1  1  0.99012500  0.20051900  0.59488600  1
  V  V2  1  0.99847000  0.79473000  0.40231800  1
  V  V3  1  0.99903800  0.39491600  0.19822200  1
  V  V4  1  0.99401300  0.99115800  0.00801400  1
  O  O0  1  0.76557900  0.97504200  0.84632700  1
  O  O1  1  0.23391400  0.65568000  0.96130200  1
  O  O2  1  0.76981100  0.54331300  0.64160600  1
  O  O3  1  0.76653900  0.14832300  0.44154100  1
  O  O4  1  0.22905100  0.86606700  0.54668400  1
  O  O5  1  0.76920500  0.74185600  0.25090700  1
  O  O6  1  0.22530900  0.44162300  0.35571900  1
  O  O7  1  0.77473600  0.33668700  0.04944300  1
  O  O8  1  0.22595900  0.04053400  0.15519100  1
  F  F0  1  0.24623900  0.25447800  0.75005900  1
loop_
_geom_bond_atom_site_label_1
_geom_bond_atom_site_label_2
_geom_bond_distance
_geom_bond_site_symmetry_2
Li0 O7 2.062257 1_556
Li0 O0 2.092299 1_545
Li0 O2 2.206408 1_555
Li0 O1 2.222867 1_555
Li0 O8 2.223927 1_556
Li1 O2 2.115063 1_555
Li1 O4 2.156295 1_555
Li1 O1 2.198612 1_555
Li1 O3 2.207311 1_565
Li1 O0 2.289887 1_555
Li2 O5 2.033458 1_555
Li2 O6 2.179476 1_555
Li2 O2 2.187349 1_555
Li2 O3 2.201246 1_555
Li2 O4 2.261935 1_555
Li3 O4 2.105483 1_545
Li3 O3 2.128189 1_555
Li3 O6 2.165756 1_555
Li3 O7 2.180842 1_555
Li3 O8 2.229392 1_555
Li3 O5 2.232797 1_545
Li4 O1 2.108231 1_554
Li4 O8 2.140081 1_565
Li4 O5 2.200948 1_555
Li4 O6 2.201918 1_555
Li4 O0 2.255720 1_554
Li4 O7 2.288494 1_555
O0 V1 2.035088 1_565
O0 V4 2.044159 1_556
O0 V0 2.105198 1_555
O1 V4 2.054944 1_456
O1 V3 2.067148 1_456
O1 V0 2.124726 1_455
O2 V2 2.042062 1_555
O2 V1 2.048120 1_555
O2 V0 2.138509 1_555
O3 V1 2.042067 1_555
O3 V3 2.056088 1_555
O3 V2 2.102275 1_545
O4 V1 2.051641 1_465
O4 V2 2.057050 1_455
O4 V0 2.121088 1_455
O5 V4 2.045165 1_555
O5 V2 2.054258 1_555
O5 V3 2.098382 1_555
O6 V1 2.031760 1_455
O6 V3 2.068381 1_455
O6 V2 2.106066 1_455
O7 V3 2.028734 1_555
O7 V4 2.046611 1_545
O7 V0 2.127898 1_554
O8 V4 2.030160 1_445
O8 V2 2.061291 1_445
O8 V3 2.104027 1_455
F0 V1 2.193250 1_455
F0 V4 2.195606 1_446
F0 V0 2.230247 1_455
F0 Li2 2.245498 1_555
F0 Li0 2.271855 1_555
F0 Li1 2.296125 1_545
