# generated using pymatgen
data_Li3Cu4F9
_symmetry_space_group_name_H-M   'P 1'
_cell_length_a   5.22460100
_cell_length_b   5.25281284
_cell_length_c   8.09035910
_cell_angle_alpha   85.51634821
_cell_angle_beta   106.53366065
_cell_angle_gamma   119.66133538
_symmetry_Int_Tables_number   1
_chemical_formula_structural   Li3Cu4F9
_chemical_formula_sum   'Li3 Cu4 F9'
_cell_volume   184.43565282
_cell_formula_units_Z   1
loop_
 _symmetry_equiv_pos_site_id
 _symmetry_equiv_pos_as_xyz
  1  'x, y, z'
loop_
 _atom_site_type_symbol
 _atom_site_label
 _atom_site_symmetry_multiplicity
 _atom_site_fract_x
 _atom_site_fract_y
 _atom_site_fract_z
 _atom_site_occupancy
  Li  Li0  1  0.03236400  0.99666400  0.99509900  1
  Li  Li1  1  0.59976000  0.80478400  0.44180700  1
  Li  Li2  1  0.83678900  0.41513800  0.28755300  1
  Cu  Cu0  1  0.39292800  0.69825100  0.06207300  1
  Cu  Cu1  1  0.56282100  0.24248500  0.75276500  1
  Cu  Cu2  1  0.06111600  0.48099400  0.68677500  1
  Cu  Cu3  1  0.22419500  0.11833600  0.37275700  1
  F  F0  1  0.18842300  0.45213500  0.23324000  1
  F  F1  1  0.79096300  0.74940300  0.21646300  1
  F  F2  1  0.43311400  0.08225800  0.21352600  1
  F  F3  1  0.99476300  0.64866400  0.90534400  1
  F  F4  1  0.97504600  0.18547100  0.49288900  1
  F  F5  1  0.68195600  0.50284500  0.54449500  1
  F  F6  1  0.63435900  0.97358100  0.91517200  1
  F  F7  1  0.27287100  0.30424900  0.85759400  1
  F  F8  1  0.33605400  0.85350400  0.54872900  1
loop_
_geom_bond_atom_site_label_1
_geom_bond_atom_site_label_2
_geom_bond_distance
_geom_bond_site_symmetry_2
Cu0 F6 1.968288 1_554
Cu0 F0 1.981337 1_555
Cu0 F1 1.994501 1_555
Cu0 F3 2.004286 1_454
Cu0 F2 2.331324 1_565
Cu0 F7 2.464418 1_554
Cu1 F6 1.952975 1_545
Cu1 F7 2.092862 1_555
Cu1 F5 2.119216 1_555
Cu1 F3 2.286809 1_555
Cu1 F8 2.306880 1_545
Cu2 F7 1.985345 1_555
Cu2 F5 2.041800 1_455
Cu2 F4 2.088255 1_455
Cu2 F3 2.217513 1_455
Cu2 F8 2.220132 1_555
Cu3 F2 1.982446 1_555
Cu3 F4 1.997847 1_455
Cu3 F0 2.068376 1_555
Cu3 F8 2.079675 1_545
Cu3 F1 2.211435 1_445
Cu3 F5 2.344412 1_555
F0 Li2 1.923201 1_455
F0 Li1 2.319871 1_555
F1 Li2 1.910724 1_555
F1 Li0 2.405324 1_654
F1 Li1 2.411098 1_555
F2 Li2 1.912865 1_555
F2 Li0 2.189847 1_544
F2 Li1 2.492643 1_545
F3 Li0 1.917893 1_655
F4 Li1 1.949703 1_545
F4 Li2 2.145475 1_555
F5 Li1 1.911846 1_555
F6 Li0 1.937583 1_655
F7 Li0 1.982967 1_545
F8 Li1 1.942658 1_555
