# generated using pymatgen
data_GaH12N3(OF2)3
_symmetry_space_group_name_H-M   'P 1'
_cell_length_a   6.60800800
_cell_length_b   7.37313580
_cell_length_c   10.14890445
_cell_angle_alpha   85.75446682
_cell_angle_beta   78.53367846
_cell_angle_gamma   68.87445467
_symmetry_Int_Tables_number   1
_chemical_formula_structural   GaH12N3(OF2)3
_chemical_formula_sum   'Ga2 H24 N6 O6 F12'
_cell_volume   452.03316033
_cell_formula_units_Z   2
loop_
 _symmetry_equiv_pos_site_id
 _symmetry_equiv_pos_as_xyz
  1  'x, y, z'
loop_
 _atom_site_type_symbol
 _atom_site_label
 _atom_site_symmetry_multiplicity
 _atom_site_fract_x
 _atom_site_fract_y
 _atom_site_fract_z
 _atom_site_occupancy
  Ga  Ga0  1  0.00000000  0.00000000  0.00000000  1
  Ga  Ga1  1  0.50000000  0.50000000  0.50000000  1
  H  H0  1  0.36556900  0.19884200  0.89310200  1
  H  H1  1  0.63443100  0.80115800  0.10689800  1
  H  H2  1  0.43531400  0.38946500  0.81558200  1
  H  H3  1  0.56468600  0.61053500  0.18441800  1
  H  H4  1  0.61249200  0.22267900  0.90044800  1
  H  H5  1  0.38750800  0.77732100  0.09955200  1
  H  H6  1  0.24595800  0.54383200  0.99074300  1
  H  H7  1  0.75404200  0.45616800  0.00925700  1
  H  H8  1  0.77021500  0.66193500  0.67230000  1
  H  H9  1  0.22978500  0.33806500  0.32770000  1
  H  H10  1  0.97444500  0.73103900  0.71044700  1
  H  H11  1  0.02555500  0.26896100  0.28955300  1
  H  H12  1  0.78743700  0.68054400  0.83608900  1
  H  H13  1  0.21256300  0.31945600  0.16391100  1
  H  H14  1  0.15445300  0.42855000  0.68150000  1
  H  H15  1  0.84554700  0.57145000  0.31850000  1
  H  H16  1  0.68154100  0.88816200  0.34573200  1
  H  H17  1  0.31845900  0.11183800  0.65426800  1
  H  H18  1  0.90959300  0.95023800  0.28600700  1
  H  H19  1  0.09040700  0.04976200  0.71399300  1
  H  H20  1  0.66985800  0.11952500  0.36783900  1
  H  H21  1  0.33014200  0.88047500  0.63216100  1
  H  H22  1  0.98619400  0.81368400  0.47444500  1
  H  H23  1  0.01380600  0.18631600  0.52555500  1
  N  N0  1  0.44526200  0.29988300  0.89893100  1
  N  N1  1  0.55473800  0.70011700  0.10106900  1
  N  N2  1  0.87787800  0.64661500  0.73825700  1
  N  N3  1  0.12212200  0.35338500  0.26174300  1
  N  N4  1  0.77148500  0.97115300  0.36369200  1
  N  N5  1  0.22851500  0.02884700  0.63630800  1
  O  O0  1  0.34191400  0.40660400  0.01925000  1
  O  O1  1  0.65808600  0.59339600  0.98075000  1
  O  O2  1  0.01141900  0.44900500  0.74684500  1
  O  O3  1  0.98858100  0.55099500  0.25315500  1
  O  O4  1  0.83291800  0.91604000  0.49082200  1
  O  O5  1  0.16708200  0.08396000  0.50917800  1
  F  F0  1  0.87681500  0.05957400  0.83662400  1
  F  F1  1  0.12318500  0.94042600  0.16337600  1
  F  F2  1  0.73573300  0.96272900  0.09660500  1
  F  F3  1  0.26426700  0.03727100  0.90339500  1
  F  F4  1  0.87512700  0.26890100  0.05585100  1
  F  F5  1  0.12487300  0.73109900  0.94414900  1
  F  F6  1  0.58782000  0.67765800  0.36967900  1
  F  F7  1  0.41218000  0.32234200  0.63032100  1
  F  F8  1  0.80831800  0.35426900  0.49046200  1
  F  F9  1  0.19168200  0.64573100  0.50953800  1
  F  F10  1  0.49810600  0.34593600  0.35558100  1
  F  F11  1  0.50189400  0.65406400  0.64441900  1
loop_
_geom_bond_atom_site_label_1
_geom_bond_atom_site_label_2
_geom_bond_distance
_geom_bond_site_symmetry_2
H0 N0 1.066553 1_555
H1 N1 1.066553 1_555
H2 N0 1.031609 1_555
H3 N1 1.031609 1_555
H4 N0 1.047596 1_555
H5 N1 1.047596 1_555
H6 O0 1.037612 1_556
H7 O1 1.037612 1_554
H8 N2 1.042692 1_555
H9 N3 1.042692 1_555
H10 N2 1.031028 1_555
H11 N3 1.031028 1_555
H12 N2 1.048171 1_555
H13 N3 1.048171 1_555
H14 O2 1.009328 1_555
H15 O3 1.009328 1_555
H16 N4 1.040501 1_555
H17 N5 1.040501 1_555
H18 N4 1.052968 1_555
H19 N5 1.052968 1_555
H20 N4 1.056190 1_545
H21 N5 1.056190 1_565
H22 O4 1.011777 1_555
H23 O5 1.011777 1_555
N0 O0 1.414216 1_556
N1 O1 1.414216 1_554
N2 O2 1.412147 1_655
N3 O3 1.412147 1_455
N4 O4 1.416447 1_555
N5 O5 1.416447 1_555
F0 Ga0 1.943155 1_656
F1 Ga0 1.943155 1_565
F2 H1 1.551377 1_555
F2 Ga0 1.926544 1_665
F3 H0 1.551377 1_555
F3 Ga0 1.926544 1_556
F4 H7 1.423969 1_555
F4 Ga0 1.932414 1_655
F5 H6 1.423969 1_555
F5 Ga0 1.932414 1_566
F6 H15 1.590796 1_555
F6 Ga1 1.946322 1_555
F7 H14 1.590796 1_555
F7 Ga1 1.946322 1_555
F8 H23 1.555327 1_655
F8 Ga1 1.916710 1_555
F9 H22 1.555327 1_455
F9 Ga1 1.916710 1_555
F10 H20 1.658318 1_555
F10 Ga1 1.924271 1_555
F11 H21 1.658318 1_555
F11 Ga1 1.924271 1_555
