# generated using pymatgen
data_CrNi2
_symmetry_space_group_name_H-M   'P 1'
_cell_length_a   8.51650894
_cell_length_b   8.51650894
_cell_length_c   8.51650894
_cell_angle_alpha   146.58242331
_cell_angle_beta   130.98992345
_cell_angle_gamma   60.61962990
_symmetry_Int_Tables_number   1
_chemical_formula_structural   CrNi2
_chemical_formula_sum   'Cr8 Ni16'
_cell_volume   254.37296955
_cell_formula_units_Z   8
loop_
 _symmetry_equiv_pos_site_id
 _symmetry_equiv_pos_as_xyz
  1  'x, y, z'
loop_
 _atom_site_type_symbol
 _atom_site_label
 _atom_site_symmetry_multiplicity
 _atom_site_fract_x
 _atom_site_fract_y
 _atom_site_fract_z
 _atom_site_occupancy
  Cr  Cr0_0  1  0.00000000  0.00000000  0.00000000  1
  Cr  Cr0_1  1  0.00000000  0.00000000  0.50000000  1
  Cr  Cr0_2  1  0.00000000  0.50000000  0.00000000  1
  Cr  Cr0_3  1  0.00000000  0.50000000  0.50000000  1
  Cr  Cr0_4  1  0.50000000  0.00000000  0.00000000  1
  Cr  Cr0_5  1  0.50000000  0.00000000  0.50000000  1
  Cr  Cr0_6  1  0.50000000  0.50000000  0.00000000  1
  Cr  Cr0_7  1  0.50000000  0.50000000  0.50000000  1
  Ni  Ni0_0  1  0.33327791  0.33327791  0.00000000  1
  Ni  Ni0_1  1  0.33327791  0.33327791  0.50000000  1
  Ni  Ni0_2  1  0.33327792  0.83327792  0.00000000  1
  Ni  Ni0_3  1  0.33327791  0.83327792  0.50000000  1
  Ni  Ni0_4  1  0.83327792  0.33327792  0.00000000  1
  Ni  Ni0_5  1  0.83327792  0.33327791  0.50000000  1
  Ni  Ni0_6  1  0.83327792  0.83327792  0.00000000  1
  Ni  Ni0_7  1  0.83327792  0.83327792  0.50000000  1
  Ni  Ni1_0  1  0.16672209  0.16672209  0.00000000  1
  Ni  Ni1_1  1  0.16672208  0.16672208  0.50000000  1
  Ni  Ni1_2  1  0.16672209  0.66672208  0.00000000  1
  Ni  Ni1_3  1  0.16672209  0.66672208  0.50000000  1
  Ni  Ni1_4  1  0.66672208  0.16672209  0.00000000  1
  Ni  Ni1_5  1  0.66672208  0.16672209  0.50000000  1
  Ni  Ni1_6  1  0.66672209  0.66672209  0.00000000  1
  Ni  Ni1_7  1  0.66672208  0.66672208  0.50000000  1
loop_
_geom_bond_atom_site_label_1
_geom_bond_atom_site_label_2
_geom_bond_distance
_geom_bond_site_symmetry_2
Cr0_0 Cr0_3 2.448560 1_544
Cr0_0 Cr0_3 2.448560 1_555
Cr0_0 Ni0_6 2.451608 1_445
Cr0_0 Ni1_0 2.451608 1_555
Cr0_0 Ni1_7 2.473451 1_444
Cr0_0 Ni1_2 2.473451 1_545
Cr0_0 Ni1_1 2.473451 1_555
Cr0_0 Ni1_4 2.473451 1_455
Cr0_0 Ni0_7 2.473451 1_444
Cr0_0 Ni0_1 2.473451 1_555
Cr0_0 Ni0_2 2.473451 1_545
Cr0_0 Ni0_4 2.473451 1_455
Cr0_1 Cr0_2 2.448560 1_556
Cr0_1 Cr0_2 2.448560 1_545
Cr0_1 Ni0_7 2.451608 1_445
Cr0_1 Ni1_1 2.451608 1_555
Cr0_1 Ni0_3 2.473451 1_545
Cr0_1 Ni0_5 2.473451 1_455
Cr0_1 Ni1_6 2.473451 1_445
Cr0_1 Ni1_3 2.473451 1_545
Cr0_1 Ni1_0 2.473451 1_556
Cr0_1 Ni0_0 2.473451 1_556
Cr0_1 Ni0_6 2.473451 1_445
Cr0_1 Ni1_5 2.473451 1_455
Cr0_2 Ni0_4 2.451608 1_455
Cr0_2 Ni1_2 2.451608 1_555
Cr0_2 Ni1_6 2.473451 1_455
Cr0_2 Ni0_6 2.473451 1_455
Cr0_2 Ni0_5 2.473451 1_454
Cr0_2 Ni1_3 2.473451 1_555
Cr0_2 Ni1_0 2.473451 1_555
Cr0_2 Ni1_5 2.473451 1_454
Cr0_2 Ni0_3 2.473451 1_555
Cr0_2 Ni0_0 2.473451 1_555
Cr0_3 Ni0_5 2.451608 1_455
Cr0_3 Ni1_3 2.451608 1_555
Cr0_3 Ni1_7 2.473451 1_455
Cr0_3 Ni0_7 2.473451 1_455
Cr0_3 Ni1_2 2.473451 1_556
Cr0_3 Ni1_1 2.473451 1_555
Cr0_3 Ni1_4 2.473451 1_455
Cr0_3 Ni0_1 2.473451 1_555
Cr0_3 Ni0_4 2.473451 1_455
Cr0_3 Ni0_2 2.473451 1_556
Cr0_4 Cr0_7 2.448560 1_544
Cr0_4 Cr0_7 2.448560 1_555
Cr0_4 Ni0_2 2.451608 1_545
Cr0_4 Ni1_4 2.451608 1_555
Cr0_4 Ni1_3 2.473451 1_544
Cr0_4 Ni1_0 2.473451 1_555
Cr0_4 Ni1_6 2.473451 1_545
Cr0_4 Ni0_5 2.473451 1_555
Cr0_4 Ni1_5 2.473451 1_555
Cr0_4 Ni0_6 2.473451 1_545
Cr0_4 Ni0_3 2.473451 1_544
Cr0_4 Ni0_0 2.473451 1_555
Cr0_5 Cr0_6 2.448560 1_556
Cr0_5 Cr0_6 2.448560 1_545
Cr0_5 Ni0_3 2.451608 1_545
Cr0_5 Ni1_5 2.451608 1_555
Cr0_5 Ni1_2 2.473451 1_545
Cr0_5 Ni1_4 2.473451 1_556
Cr0_5 Ni1_1 2.473451 1_555
Cr0_5 Ni1_7 2.473451 1_545
Cr0_5 Ni0_1 2.473451 1_555
Cr0_5 Ni0_7 2.473451 1_545
Cr0_5 Ni0_2 2.473451 1_545
Cr0_5 Ni0_4 2.473451 1_556
Cr0_6 Ni0_0 2.451608 1_555
Cr0_6 Ni1_6 2.451608 1_555
Cr0_6 Ni1_4 2.473451 1_555
Cr0_6 Ni1_2 2.473451 1_555
Cr0_6 Ni1_1 2.473451 1_554
Cr0_6 Ni0_2 2.473451 1_555
Cr0_6 Ni1_7 2.473451 1_555
Cr0_6 Ni0_1 2.473451 1_554
Cr0_6 Ni0_7 2.473451 1_555
Cr0_6 Ni0_4 2.473451 1_555
Cr0_7 Ni1_7 2.451608 1_555
Cr0_7 Ni0_1 2.451608 1_555
Cr0_7 Ni1_3 2.473451 1_555
Cr0_7 Ni1_6 2.473451 1_556
Cr0_7 Ni1_5 2.473451 1_555
Cr0_7 Ni0_5 2.473451 1_555
Cr0_7 Ni0_6 2.473451 1_556
Cr0_7 Ni1_0 2.473451 1_555
Cr0_7 Ni0_3 2.473451 1_555
Cr0_7 Ni0_0 2.473451 1_555
Ni0_0 Ni0_3 2.448560 1_555
Ni0_0 Ni0_3 2.448560 1_544
Ni0_0 Ni1_0 2.449163 1_555
Ni0_0 Ni1_2 2.474662 1_555
Ni0_0 Ni1_7 2.474662 1_555
Ni0_0 Ni1_4 2.474662 1_555
Ni0_0 Ni1_1 2.474662 1_554
Ni0_1 Ni0_2 2.448560 1_556
Ni0_1 Ni0_2 2.448560 1_545
Ni0_1 Ni1_1 2.449163 1_555
Ni0_1 Ni1_3 2.474662 1_555
Ni0_1 Ni1_5 2.474662 1_555
Ni0_1 Ni1_0 2.474662 1_555
Ni0_1 Ni1_6 2.474662 1_556
Ni0_2 Ni1_2 2.449163 1_555
Ni0_2 Ni1_5 2.474662 1_565
Ni0_2 Ni1_0 2.474662 1_565
Ni0_2 Ni1_3 2.474662 1_554
Ni0_2 Ni1_6 2.474662 1_555
Ni0_3 Ni1_3 2.449163 1_555
Ni0_3 Ni1_1 2.474662 1_565
Ni0_3 Ni1_2 2.474662 1_555
Ni0_3 Ni1_4 2.474662 1_566
Ni0_3 Ni1_7 2.474662 1_555
Ni0_4 Ni0_7 2.448560 1_544
Ni0_4 Ni0_7 2.448560 1_555
Ni0_4 Ni1_4 2.449163 1_555
Ni0_4 Ni1_3 2.474662 1_655
Ni0_4 Ni1_5 2.474662 1_554
Ni0_4 Ni1_6 2.474662 1_555
Ni0_4 Ni1_0 2.474662 1_655
Ni0_5 Ni0_6 2.448560 1_545
Ni0_5 Ni0_6 2.448560 1_556
Ni0_5 Ni1_5 2.449163 1_555
Ni0_5 Ni1_1 2.474662 1_655
Ni0_5 Ni1_2 2.474662 1_656
Ni0_5 Ni1_7 2.474662 1_555
Ni0_5 Ni1_4 2.474662 1_555
Ni0_6 Ni1_6 2.449163 1_555
Ni0_6 Ni1_4 2.474662 1_565
Ni0_6 Ni1_7 2.474662 1_554
Ni0_6 Ni1_1 2.474662 1_665
Ni0_6 Ni1_2 2.474662 1_655
Ni0_7 Ni1_7 2.449163 1_555
Ni0_7 Ni1_5 2.474662 1_565
Ni0_7 Ni1_3 2.474662 1_655
Ni0_7 Ni1_0 2.474662 1_666
Ni0_7 Ni1_6 2.474662 1_555
Ni1_0 Ni1_3 2.448560 1_555
Ni1_0 Ni1_3 2.448560 1_544
Ni1_1 Ni1_2 2.448560 1_556
Ni1_1 Ni1_2 2.448560 1_545
Ni1_4 Ni1_7 2.448560 1_544
Ni1_4 Ni1_7 2.448560 1_555
Ni1_5 Ni1_6 2.448560 1_556
Ni1_5 Ni1_6 2.448560 1_545
