# generated using pymatgen
data_LiVF4
_symmetry_space_group_name_H-M   'P 1'
_cell_length_a   5.97193100
_cell_length_b   8.90017014
_cell_length_c   11.56419879
_cell_angle_alpha   90.38895736
_cell_angle_beta   90.90470972
_cell_angle_gamma   91.15430847
_symmetry_Int_Tables_number   1
_chemical_formula_structural   LiVF4
_chemical_formula_sum   'Li8 V8 F32'
_cell_volume   614.43419801
_cell_formula_units_Z   8
loop_
 _symmetry_equiv_pos_site_id
 _symmetry_equiv_pos_as_xyz
  1  'x, y, z'
loop_
 _atom_site_type_symbol
 _atom_site_label
 _atom_site_symmetry_multiplicity
 _atom_site_fract_x
 _atom_site_fract_y
 _atom_site_fract_z
 _atom_site_occupancy
  Li  Li0  1  0.66184600  0.71386100  0.79326000  1
  Li  Li1  1  0.73255100  0.98862500  0.63026000  1
  Li  Li2  1  0.24923400  0.43626000  0.63785100  1
  Li  Li3  1  0.75608000  0.93569300  0.37446600  1
  Li  Li4  1  0.25971200  0.48671200  0.38556000  1
  Li  Li5  1  0.78995700  0.95502800  0.11221800  1
  Li  Li6  1  0.25520000  0.43488000  0.12792500  1
  Li  Li7  1  0.61524900  0.24748900  0.05019400  1
  V  V0  1  0.21988900  0.10150800  0.93528400  1
  V  V1  1  0.70183600  0.31339300  0.80524500  1
  V  V2  1  0.19870400  0.81186400  0.68777700  1
  V  V3  1  0.73869500  0.60088500  0.55209300  1
  V  V4  1  0.27144300  0.09862000  0.44318100  1
  V  V5  1  0.80342200  0.30326200  0.30906000  1
  V  V6  1  0.30370800  0.81400000  0.18963900  1
  V  V7  1  0.76712300  0.60300300  0.06454200  1
  F  F0  1  0.04414000  0.51930700  0.03744100  1
  F  F1  1  0.65778700  0.42897800  0.95831600  1
  F  F2  1  0.73450800  0.74465300  0.94673400  1
  F  F3  1  0.55462300  0.15051500  0.90337300  1
  F  F4  1  0.01268500  0.25980000  0.85420400  1
  F  F5  1  0.27521000  0.67775100  0.80411000  1
  F  F6  1  0.27429600  0.98919600  0.78872700  1
  F  F7  1  0.89151600  0.85257600  0.73061400  1
  F  F8  1  0.40821500  0.36762700  0.76275000  1
  F  F9  1  0.77434800  0.51343400  0.71216200  1
  F  F10  1  0.73582700  0.18922900  0.67388800  1
  F  F11  1  0.52959000  0.76653800  0.63809300  1
  F  F12  1  0.07401800  0.63613100  0.59171600  1
  F  F13  1  0.22427400  0.25935000  0.54469900  1
  F  F14  1  0.12905400  0.94585300  0.55074400  1
  F  F15  1  0.55098100  0.01214500  0.48750800  1
  F  F16  1  0.45307200  0.51334200  0.51725900  1
  F  F17  1  0.86315000  0.44011000  0.44542700  1
  F  F18  1  0.77863200  0.74584200  0.43781200  1
  F  F19  1  0.93496000  0.13219500  0.39756200  1
  F  F20  1  0.49029000  0.25425300  0.35566600  1
  F  F21  1  0.26921300  0.67089700  0.30991800  1
  F  F22  1  0.21633600  0.97951600  0.29900800  1
  F  F23  1  0.60593200  0.87977400  0.23426600  1
  F  F24  1  0.10554000  0.36950400  0.26741400  1
  F  F25  1  0.69166900  0.45881800  0.19687700  1
  F  F26  1  0.76716900  0.16646200  0.17783200  1
  F  F27  1  0.97232500  0.77453100  0.14670500  1
  F  F28  1  0.44117000  0.64319100  0.10126300  1
  F  F29  1  0.29401500  0.24461600  0.05849200  1
  F  F30  1  0.34996400  0.94202300  0.04938700  1
  F  F31  1  0.94302000  0.02920200  0.98619800  1
loop_
_geom_bond_atom_site_label_1
_geom_bond_atom_site_label_2
_geom_bond_distance
_geom_bond_site_symmetry_2
F0 Li6 1.804275 1_555
F0 V7 1.858160 1_455
F1 Li7 1.953935 1_556
F1 V7 2.059706 1_556
F1 V1 2.064405 1_555
F2 Li0 1.837829 1_555
F2 V7 1.873011 1_556
F3 Li7 1.925319 1_556
F3 V1 2.040725 1_555
F3 V0 2.076731 1_555
F4 V1 2.000081 1_455
F4 V0 2.108707 1_555
F5 V2 1.862173 1_555
F5 Li0 2.330267 1_555
F6 V0 1.996154 1_565
F6 V2 1.996809 1_555
F7 Li1 1.935148 1_555
F7 V2 1.948113 1_655
F7 Li0 1.976245 1_555
F8 Li2 1.831050 1_555
F8 V1 1.886612 1_555
F9 V3 2.022716 1_555
F9 V1 2.127374 1_555
F9 Li0 2.135054 1_555
F10 Li1 1.851665 1_545
F10 V1 1.888351 1_555
F11 Li0 2.011224 1_555
F11 V2 2.112431 1_555
F11 V3 2.194457 1_555
F11 Li1 2.300801 1_555
F12 V2 2.034235 1_555
F12 V3 2.064517 1_455
F12 Li2 2.148076 1_555
F13 V4 1.872923 1_555
F13 Li2 1.903740 1_555
F14 V4 2.031932 1_565
F14 V2 2.032524 1_555
F15 V4 1.916259 1_555
F15 Li3 1.934983 1_545
F15 Li1 1.975366 1_545
F16 V3 1.897187 1_555
F16 Li4 1.907256 1_555
F16 Li2 1.982476 1_555
F17 V5 2.009026 1_555
F17 V3 2.041892 1_555
F17 Li4 2.505193 1_655
F18 Li3 1.852762 1_555
F18 V3 1.867779 1_555
F19 V5 2.006630 1_555
F19 Li3 2.044638 1_545
F19 V4 2.097227 1_655
F20 V5 1.994945 1_555
F20 V4 2.153799 1_555
F20 Li4 2.533018 1_555
F21 Li4 1.863574 1_555
F21 V6 1.903107 1_555
F22 V4 1.989052 1_565
F22 V6 2.017048 1_555
F23 Li3 1.898812 1_555
F23 Li5 1.918473 1_555
F23 V6 1.946912 1_555
F24 Li4 1.924788 1_555
F24 Li6 1.943374 1_555
F24 V5 1.955301 1_455
F25 V5 2.019763 1_555
F25 V7 2.053518 1_555
F26 Li7 1.876265 1_555
F26 V5 1.945803 1_555
F26 Li5 2.032146 1_545
F27 Li5 1.997833 1_555
F27 V6 2.055463 1_655
F27 V7 2.145524 1_555
F28 V6 2.021177 1_555
F28 V7 2.037029 1_555
F28 Li6 2.168280 1_555
F29 Li6 1.889236 1_555
F29 Li7 1.921963 1_555
F29 V0 1.944485 1_554
F30 V6 2.007915 1_555
F30 V0 2.096862 1_564
F31 Li5 1.850934 1_546
F31 V0 1.867535 1_655
