# generated using pymatgen
data_NaTiPO5
_symmetry_space_group_name_H-M   'P 1'
_cell_length_a   6.54778400
_cell_length_b   7.49628300
_cell_length_c   7.81701100
_cell_angle_alpha   90.00000000
_cell_angle_beta   90.00000000
_cell_angle_gamma   90.00000000
_symmetry_Int_Tables_number   1
_chemical_formula_structural   NaTiPO5
_chemical_formula_sum   'Na4 Ti4 P4 O20'
_cell_volume   383.69049535
_cell_formula_units_Z   4
loop_
 _symmetry_equiv_pos_site_id
 _symmetry_equiv_pos_as_xyz
  1  'x, y, z'
loop_
 _atom_site_type_symbol
 _atom_site_label
 _atom_site_symmetry_multiplicity
 _atom_site_fract_x
 _atom_site_fract_y
 _atom_site_fract_z
 _atom_site_occupancy
  Na  Na0  1  0.00000000  0.00000000  0.00000000  1
  Na  Na1  1  0.50000000  0.00000000  0.00000000  1
  Na  Na2  1  0.00000000  0.50000000  0.50000000  1
  Na  Na3  1  0.50000000  0.50000000  0.50000000  1
  Ti  Ti0  1  0.25000000  0.16491300  0.71496000  1
  Ti  Ti1  1  0.75000000  0.33508700  0.21496000  1
  Ti  Ti2  1  0.25000000  0.66491300  0.78504000  1
  Ti  Ti3  1  0.75000000  0.83508700  0.28504000  1
  P  P0  1  0.75000000  0.12527400  0.60773700  1
  P  P1  1  0.25000000  0.37472600  0.10773700  1
  P  P2  1  0.75000000  0.62527400  0.89226300  1
  P  P3  1  0.25000000  0.87472600  0.39226300  1
  O  O0  1  0.25000000  0.05356900  0.49264000  1
  O  O1  1  0.75000000  0.10766800  0.17139800  1
  O  O2  1  0.55893300  0.13532100  0.72406800  1
  O  O3  1  0.94106700  0.13532100  0.72406800  1
  O  O4  1  0.25000000  0.21433800  0.97925900  1
  O  O5  1  0.75000000  0.28566200  0.47925900  1
  O  O6  1  0.05893300  0.36467900  0.22406800  1
  O  O7  1  0.44106700  0.36467900  0.22406800  1
  O  O8  1  0.25000000  0.39233200  0.67139800  1
  O  O9  1  0.75000000  0.44643100  0.99264000  1
  O  O10  1  0.25000000  0.55356900  0.00736000  1
  O  O11  1  0.75000000  0.60766800  0.32860200  1
  O  O12  1  0.55893300  0.63532100  0.77593200  1
  O  O13  1  0.94106700  0.63532100  0.77593200  1
  O  O14  1  0.25000000  0.71433800  0.52074100  1
  O  O15  1  0.75000000  0.78566200  0.02074100  1
  O  O16  1  0.05893300  0.86467900  0.27593200  1
  O  O17  1  0.44106700  0.86467900  0.27593200  1
  O  O18  1  0.25000000  0.89233200  0.82860200  1
  O  O19  1  0.75000000  0.94643100  0.50736000  1
loop_
_geom_bond_atom_site_label_1
_geom_bond_atom_site_label_2
_geom_bond_distance
_geom_bond_site_symmetry_2
Na0 O1 2.264097 1_455
Na0 O18 2.264097 1_544
Na0 O15 2.299454 1_445
Na0 O4 2.299454 1_554
Na0 O16 2.414625 1_545
Na0 O3 2.414625 1_454
Na1 O1 2.264097 1_555
Na1 O18 2.264097 1_544
Na1 O15 2.299454 1_545
Na1 O4 2.299454 1_554
Na1 O17 2.414625 1_545
Na1 O2 2.414625 1_554
Na2 O8 2.264097 1_555
Na2 O11 2.264097 1_455
Na2 O14 2.299454 1_555
Na2 O5 2.299454 1_455
Na2 O13 2.414625 1_455
Na2 O6 2.414625 1_555
Na3 O8 2.264097 1_555
Na3 O11 2.264097 1_555
Na3 O14 2.299454 1_555
Na3 O5 2.299454 1_555
Na3 O12 2.414625 1_555
Na3 O7 2.414625 1_555
O0 P3 1.553395 1_545
O0 Ti0 1.927923 1_555
O1 Ti1 1.738474 1_555
O1 Ti3 2.228095 1_545
O2 P0 1.548475 1_555
O2 Ti0 2.036199 1_555
O3 P0 1.548475 1_555
O3 Ti0 2.036199 1_655
O4 P1 1.566590 1_556
O4 Ti0 2.098987 1_555
O5 P0 1.566590 1_555
O5 Ti1 2.098987 1_555
O6 P1 1.548475 1_555
O6 Ti1 2.036199 1_455
O7 P1 1.548475 1_555
O7 Ti1 2.036199 1_555
O8 Ti0 1.738474 1_555
O8 Ti2 2.228095 1_555
O9 P2 1.553395 1_555
O9 Ti1 1.927923 1_556
O10 P1 1.553395 1_555
O10 Ti2 1.927923 1_554
O11 Ti3 1.738474 1_555
O11 Ti1 2.228095 1_555
O12 P2 1.548475 1_555
O12 Ti2 2.036199 1_555
O13 P2 1.548475 1_555
O13 Ti2 2.036199 1_655
O14 P3 1.566590 1_555
O14 Ti2 2.098987 1_555
O15 P2 1.566590 1_554
O15 Ti3 2.098987 1_555
O16 P3 1.548475 1_555
O16 Ti3 2.036199 1_455
O17 P3 1.548475 1_555
O17 Ti3 2.036199 1_555
O18 Ti2 1.738474 1_555
O18 Ti0 2.228095 1_565
O19 P0 1.553395 1_565
O19 Ti3 1.927923 1_555
