# generated using pymatgen
data_Gd2CdO4
_symmetry_space_group_name_H-M   'P 1'
_cell_length_a   6.88897509
_cell_length_b   6.88897509
_cell_length_c   6.88897509
_cell_angle_alpha   60.00000000
_cell_angle_beta   60.00000000
_cell_angle_gamma   60.00000000
_symmetry_Int_Tables_number   1
_chemical_formula_structural   Gd2CdO4
_chemical_formula_sum   'Gd4 Cd2 O8'
_cell_volume   231.17924704
_cell_formula_units_Z   2
loop_
 _symmetry_equiv_pos_site_id
 _symmetry_equiv_pos_as_xyz
  1  'x, y, z'
loop_
 _atom_site_type_symbol
 _atom_site_label
 _atom_site_symmetry_multiplicity
 _atom_site_fract_x
 _atom_site_fract_y
 _atom_site_fract_z
 _atom_site_occupancy
  Gd  Gd0  1  0.62500000  0.62500000  0.12500000  1
  Gd  Gd1  1  0.62500000  0.62500000  0.62500000  1
  Gd  Gd2  1  0.62500000  0.12500000  0.62500000  1
  Gd  Gd3  1  0.12500000  0.62500000  0.62500000  1
  Cd  Cd0  1  0.00000000  0.00000000  0.00000000  1
  Cd  Cd1  1  0.25000000  0.25000000  0.25000000  1
  O  O0  1  0.83994900  0.38668400  0.38668400  1
  O  O1  1  0.38668400  0.83994900  0.38668400  1
  O  O2  1  0.86331600  0.86331600  0.41005100  1
  O  O3  1  0.86331600  0.41005100  0.86331600  1
  O  O4  1  0.41005100  0.86331600  0.86331600  1
  O  O5  1  0.86331600  0.86331600  0.86331600  1
  O  O6  1  0.38668400  0.38668400  0.38668400  1
  O  O7  1  0.38668400  0.38668400  0.83994900  1
loop_
_geom_bond_atom_site_label_1
_geom_bond_atom_site_label_2
_geom_bond_distance
_geom_bond_site_symmetry_2
Gd0 O6 2.327363 1_555
Gd0 O5 2.327363 1_554
Gd0 O4 2.327368 1_554
Gd0 O3 2.327368 1_554
Gd0 O1 2.327368 1_555
Gd0 O0 2.327368 1_555
Gd1 O3 2.327363 1_555
Gd1 O1 2.327363 1_555
Gd1 O7 2.327363 1_555
Gd1 O0 2.327363 1_555
Gd1 O4 2.327363 1_555
Gd1 O2 2.327363 1_555
Gd2 O6 2.327363 1_555
Gd2 O5 2.327363 1_545
Gd2 O7 2.327368 1_555
Gd2 O0 2.327368 1_555
Gd2 O4 2.327368 1_545
Gd2 O2 2.327368 1_545
Gd3 O6 2.327363 1_555
Gd3 O5 2.327363 1_455
Gd3 O7 2.327368 1_555
Gd3 O1 2.327368 1_555
Gd3 O2 2.327368 1_455
Gd3 O3 2.327368 1_455
Cd0 O3 2.306465 1_454
Cd0 O4 2.306465 1_544
Cd0 O2 2.306465 1_445
Cd0 O5 2.306471 1_444
Cd1 O1 2.306465 1_545
Cd1 O0 2.306465 1_455
Cd1 O7 2.306465 1_554
Cd1 O6 2.306471 1_555
