# generated using pymatgen
data_Li17Ni11O28
_symmetry_space_group_name_H-M   'P 1'
_cell_length_a   6.43919600
_cell_length_b   7.59454187
_cell_length_c   10.20377543
_cell_angle_alpha   111.48048260
_cell_angle_beta   92.85817608
_cell_angle_gamma   90.45538095
_symmetry_Int_Tables_number   1
_chemical_formula_structural   Li17Ni11O28
_chemical_formula_sum   'Li17 Ni11 O28'
_cell_volume   463.57172861
_cell_formula_units_Z   1
loop_
 _symmetry_equiv_pos_site_id
 _symmetry_equiv_pos_as_xyz
  1  'x, y, z'
loop_
 _atom_site_type_symbol
 _atom_site_label
 _atom_site_symmetry_multiplicity
 _atom_site_fract_x
 _atom_site_fract_y
 _atom_site_fract_z
 _atom_site_occupancy
  Li  Li0  1  0.23920100  0.74762800  0.99648400  1
  Li  Li1  1  0.46642200  0.10979900  0.14442800  1
  Li  Li2  1  0.76079900  0.25237200  0.00351600  1
  Li  Li3  1  0.96819200  0.60411600  0.14638500  1
  Li  Li4  1  0.18121100  0.97035900  0.29036900  1
  Li  Li5  1  0.07218600  0.28828500  0.21530500  1
  Li  Li6  1  0.67672100  0.46650500  0.28567800  1
  Li  Li7  1  0.38867800  0.31262000  0.42544800  1
  Li  Li8  1  0.89705300  0.82010300  0.43122100  1
  Li  Li9  1  0.61132200  0.68738000  0.57455200  1
  Li  Li10  1  0.50000000  0.00000000  0.50000000  1
  Li  Li11  1  0.10294700  0.17989700  0.56877900  1
  Li  Li12  1  0.32327900  0.53349500  0.71432200  1
  Li  Li13  1  0.53357800  0.89020100  0.85557200  1
  Li  Li14  1  0.92781400  0.71171500  0.78469500  1
  Li  Li15  1  0.81878900  0.02964100  0.70963100  1
  Li  Li16  1  0.03180800  0.39588400  0.85361500  1
  Ni  Ni0  1  0.85901000  0.93388800  0.07407500  1
  Ni  Ni1  1  0.35354600  0.42899300  0.07237400  1
  Ni  Ni2  1  0.56882100  0.79083200  0.21639400  1
  Ni  Ni3  1  0.78510500  0.14560700  0.35766500  1
  Ni  Ni4  1  0.28544200  0.64600800  0.35805000  1
  Ni  Ni5  1  0.00000000  0.50000000  0.50000000  1
  Ni  Ni6  1  0.71455800  0.35399200  0.64195000  1
  Ni  Ni7  1  0.21489500  0.85439300  0.64233500  1
  Ni  Ni8  1  0.43117900  0.20916800  0.78360600  1
  Ni  Ni9  1  0.14099000  0.06611200  0.92592500  1
  Ni  Ni10  1  0.64645400  0.57100700  0.92762600  1
  O  O0  1  0.57564600  0.84642700  0.04778400  1
  O  O1  1  0.92383600  0.67734900  0.97543000  1
  O  O2  1  0.42435400  0.15357300  0.95221600  1
  O  O3  1  0.07616400  0.32265100  0.02457000  1
  O  O4  1  0.14288400  0.01146800  0.09125500  1
  O  O5  1  0.36777700  0.39740400  0.24843700  1
  O  O6  1  0.26346700  0.69712900  0.19122500  1
  O  O7  1  0.77500400  0.18250600  0.18273100  1
  O  O8  1  0.64076900  0.52968300  0.10299100  1
  O  O9  1  0.50602800  0.04907100  0.31914900  1
  O  O10  1  0.87337600  0.90186900  0.25029900  1
  O  O11  1  0.06515800  0.24091300  0.39565100  1
  O  O12  1  0.56892800  0.72887100  0.37967200  1
  O  O13  1  0.00309400  0.55861300  0.33280900  1
  O  O14  1  0.30544800  0.60951500  0.53325500  1
  O  O15  1  0.69455200  0.39048500  0.46674500  1
  O  O16  1  0.20351700  0.89326800  0.46953600  1
  O  O17  1  0.43107200  0.27112900  0.62032800  1
  O  O18  1  0.49397200  0.95092900  0.68085100  1
  O  O19  1  0.79648300  0.10673200  0.53046400  1
  O  O20  1  0.63222300  0.60259600  0.75156300  1
  O  O21  1  0.99690600  0.44138700  0.66719100  1
  O  O22  1  0.93484200  0.75908700  0.60434900  1
  O  O23  1  0.12662400  0.09813100  0.74970100  1
  O  O24  1  0.22499600  0.81749400  0.81726900  1
  O  O25  1  0.73653300  0.30287100  0.80877500  1
  O  O26  1  0.35923100  0.47031700  0.89700900  1
  O  O27  1  0.85711600  0.98853200  0.90874500  1
loop_
_geom_bond_atom_site_label_1
_geom_bond_atom_site_label_2
_geom_bond_distance
_geom_bond_site_symmetry_2
Li0 O4 1.998814 1_566
Li0 O1 2.076065 1_455
Li0 O24 2.080538 1_555
Li0 O26 2.145139 1_555
Li0 O6 2.155958 1_556
Li0 O0 2.259173 1_556
Li1 O9 2.003716 1_555
Li1 O0 2.028506 1_545
Li1 O7 2.037881 1_555
Li1 O2 2.111045 1_554
Li1 O5 2.166157 1_555
Li1 O4 2.181307 1_555
Li2 O27 1.998814 1_544
Li2 O3 2.076065 1_655
Li2 O7 2.080538 1_555
Li2 O8 2.145139 1_555
Li2 O25 2.155958 1_554
Li2 O2 2.259173 1_554
Li3 O6 1.994641 1_655
Li3 O1 2.024142 1_554
Li3 O13 2.056316 1_655
Li3 O8 2.159942 1_555
Li3 O3 2.182110 1_655
Li3 O10 2.222838 1_555
Li4 O10 2.028279 1_455
Li4 O6 2.035518 1_555
Li4 O11 2.102929 1_565
Li4 O16 2.112980 1_555
Li4 O9 2.146745 1_565
Li4 O4 2.168412 1_565
Li5 O11 2.002690 1_555
Li5 O13 2.028630 1_555
Li5 O5 2.032101 1_555
Li5 O7 2.033305 1_455
Li5 O3 2.057525 1_555
Li5 O4 2.086363 1_555
Li6 O12 2.015112 1_555
Li6 O5 2.034524 1_555
Li6 O8 2.091036 1_555
Li6 O15 2.126287 1_555
Li6 O7 2.141175 1_555
Li6 O13 2.183279 1_655
Li7 O15 2.030452 1_555
Li7 O9 2.066260 1_555
Li7 O5 2.126941 1_555
Li7 O11 2.127512 1_555
Li7 O17 2.129347 1_555
Li7 O14 2.200642 1_555
Li8 O22 1.988244 1_555
Li8 O13 2.011927 1_655
Li8 O16 2.025430 1_655
Li8 O10 2.151720 1_555
Li8 O19 2.157955 1_565
Li8 O12 2.195428 1_555
Li9 O14 2.030452 1_555
Li9 O18 2.066260 1_555
Li9 O20 2.126941 1_555
Li9 O22 2.127512 1_555
Li9 O12 2.129347 1_555
Li9 O15 2.200642 1_555
Li10 O18 2.014033 1_545
Li10 O9 2.014033 1_555
Li10 O19 2.032256 1_555
Li10 O16 2.032256 1_545
Li10 O17 2.040027 1_555
Li10 O12 2.040027 1_545
Li11 O11 1.988244 1_555
Li11 O21 2.011927 1_455
Li11 O19 2.025430 1_455
Li11 O23 2.151720 1_555
Li11 O16 2.157955 1_545
Li11 O17 2.195428 1_555
Li12 O17 2.015112 1_555
Li12 O20 2.034524 1_555
Li12 O26 2.091036 1_555
Li12 O14 2.126287 1_555
Li12 O24 2.141175 1_555
Li12 O21 2.183279 1_455
Li13 O18 2.003716 1_555
Li13 O2 2.028506 1_565
Li13 O24 2.037881 1_555
Li13 O0 2.111045 1_556
Li13 O20 2.166157 1_555
Li13 O27 2.181307 1_555
Li14 O22 2.002690 1_555
Li14 O21 2.028630 1_555
Li14 O20 2.032101 1_555
Li14 O24 2.033305 1_655
Li14 O1 2.057525 1_555
Li14 O27 2.086363 1_555
Li15 O23 2.028279 1_655
Li15 O25 2.035518 1_555
Li15 O22 2.102929 1_545
Li15 O19 2.112980 1_555
Li15 O18 2.146745 1_545
Li15 O27 2.168412 1_545
Li16 O25 1.994641 1_455
Li16 O3 2.024142 1_556
Li16 O21 2.056316 1_455
Li16 O26 2.159942 1_555
Li16 O1 2.182110 1_455
Li16 O23 2.222838 1_555
Ni0 O27 1.878580 1_554
Ni0 O4 1.895902 1_665
Ni0 O1 1.897857 1_554
Ni0 O10 1.898693 1_555
Ni0 O7 1.905207 1_565
Ni0 O0 1.908895 1_555
Ni1 O5 1.895512 1_555
Ni1 O3 1.918871 1_555
Ni1 O26 1.928565 1_554
Ni1 O8 1.961603 1_555
Ni1 O6 2.057730 1_555
Ni1 O2 2.068575 1_554
Ni2 O12 1.889767 1_555
Ni2 O9 1.912606 1_565
Ni2 O0 1.918182 1_555
Ni2 O8 1.968355 1_555
Ni2 O6 2.057183 1_555
Ni2 O10 2.090231 1_555
Ni3 O10 1.882393 1_545
Ni3 O19 1.889476 1_555
Ni3 O15 1.898274 1_555
Ni3 O9 1.902337 1_555
Ni3 O7 1.903677 1_555
Ni3 O11 1.905298 1_655
Ni4 O6 1.878630 1_555
Ni4 O16 1.899930 1_555
Ni4 O12 1.901778 1_555
Ni4 O13 1.902960 1_555
Ni4 O5 1.904002 1_555
Ni4 O14 1.905238 1_555
Ni5 O21 1.915286 1_455
Ni5 O13 1.915286 1_555
Ni5 O22 1.924757 1_455
Ni5 O11 1.924757 1_555
Ni5 O14 2.091913 1_555
Ni5 O15 2.091913 1_455
Ni6 O25 1.878630 1_555
Ni6 O19 1.899930 1_555
Ni6 O17 1.901778 1_555
Ni6 O21 1.902960 1_555
Ni6 O20 1.904002 1_555
Ni6 O15 1.905238 1_555
Ni7 O23 1.882393 1_565
Ni7 O16 1.889476 1_555
Ni7 O14 1.898274 1_555
Ni7 O18 1.902337 1_555
Ni7 O24 1.903677 1_555
Ni7 O22 1.905298 1_455
Ni8 O17 1.889767 1_555
Ni8 O18 1.912606 1_545
Ni8 O2 1.918182 1_555
Ni8 O26 1.968355 1_555
Ni8 O25 2.057183 1_555
Ni8 O23 2.090231 1_555
Ni9 O4 1.878580 1_556
Ni9 O27 1.895902 1_445
Ni9 O3 1.897857 1_556
Ni9 O23 1.898693 1_555
Ni9 O24 1.905207 1_545
Ni9 O2 1.908895 1_555
Ni10 O20 1.895512 1_555
Ni10 O1 1.918871 1_555
Ni10 O8 1.928565 1_556
Ni10 O26 1.961603 1_555
Ni10 O25 2.057730 1_555
Ni10 O0 2.068575 1_556
