# generated using pymatgen
data_Li2Mn5(FeO6)2
_symmetry_space_group_name_H-M   'P 1'
_cell_length_a   5.97932597
_cell_length_b   5.97932597
_cell_length_c   13.69491075
_cell_angle_alpha   77.54698975
_cell_angle_beta   77.54698975
_cell_angle_gamma   89.94781341
_symmetry_Int_Tables_number   1
_chemical_formula_structural   Li2Mn5(FeO6)2
_chemical_formula_sum   'Li4 Mn10 Fe4 O24'
_cell_volume   466.32353510
_cell_formula_units_Z   2
loop_
 _symmetry_equiv_pos_site_id
 _symmetry_equiv_pos_as_xyz
  1  'x, y, z'
loop_
 _atom_site_type_symbol
 _atom_site_label
 _atom_site_symmetry_multiplicity
 _atom_site_fract_x
 _atom_site_fract_y
 _atom_site_fract_z
 _atom_site_occupancy
  Li  Li0  1  0.03683200  0.29336400  0.91476900  1
  Li  Li1  1  0.62861300  0.36236100  0.75407800  1
  Li  Li2  1  0.29336400  0.03683200  0.41476900  1
  Li  Li3  1  0.36236100  0.62861300  0.25407800  1
  Mn  Mn0  1  0.49282200  0.49965200  0.00367000  1
  Mn  Mn1  1  0.33486700  0.83437800  0.83235800  1
  Mn  Mn2  1  0.83326700  0.83444200  0.83365300  1
  Mn  Mn3  1  0.16740600  0.16893100  0.66155600  1
  Mn  Mn4  1  0.17069600  0.66199400  0.66398900  1
  Mn  Mn5  1  0.49965200  0.49282200  0.50367000  1
  Mn  Mn6  1  0.83444200  0.83326700  0.33365300  1
  Mn  Mn7  1  0.83437800  0.33486700  0.33235800  1
  Mn  Mn8  1  0.66199400  0.17069600  0.16398900  1
  Mn  Mn9  1  0.16893100  0.16740600  0.16155600  1
  Fe  Fe0  1  0.49902000  0.00733800  0.00128700  1
  Fe  Fe1  1  0.70647700  0.96647300  0.58357400  1
  Fe  Fe2  1  0.00733800  0.49902000  0.50128700  1
  Fe  Fe3  1  0.96647300  0.70647700  0.08357400  1
  O  O0  1  0.74729300  0.77019000  0.00360200  1
  O  O1  1  0.27147300  0.74339800  0.00126600  1
  O  O2  1  0.57550300  0.04701800  0.84648600  1
  O  O3  1  0.57812000  0.60776000  0.84769400  1
  O  O4  1  0.09520600  0.06386000  0.81418600  1
  O  O5  1  0.09196200  0.62288900  0.81665300  1
  O  O6  1  0.39008500  0.91722400  0.66130500  1
  O  O7  1  0.92431700  0.94086800  0.66620800  1
  O  O8  1  0.40664700  0.38637800  0.65529300  1
  O  O9  1  0.95685600  0.41379800  0.66175400  1
  O  O10  1  0.22467900  0.24640500  0.51382300  1
  O  O11  1  0.25780500  0.71025100  0.51221200  1
  O  O12  1  0.77019000  0.74729300  0.50360200  1
  O  O13  1  0.74339800  0.27147300  0.50126600  1
  O  O14  1  0.04701800  0.57550300  0.34648600  1
  O  O15  1  0.60776000  0.57812000  0.34769400  1
  O  O16  1  0.62288900  0.09196200  0.31665300  1
  O  O17  1  0.06386000  0.09520600  0.31418600  1
  O  O18  1  0.91722400  0.39008500  0.16130500  1
  O  O19  1  0.94086800  0.92431700  0.16620800  1
  O  O20  1  0.38637800  0.40664700  0.15529300  1
  O  O21  1  0.41379800  0.95685600  0.16175400  1
  O  O22  1  0.71025100  0.25780500  0.01221200  1
  O  O23  1  0.24640500  0.22467900  0.01382300  1
loop_
_geom_bond_atom_site_label_1
_geom_bond_atom_site_label_2
_geom_bond_distance
_geom_bond_site_symmetry_2
Li0 O23 2.017682 1_556
Li0 O22 2.096123 1_456
Li0 O5 2.112991 1_555
Li0 O4 2.123541 1_555
Li1 O2 2.014026 1_555
Li1 O8 2.074256 1_555
Li1 O9 2.075683 1_555
Li1 O3 2.128718 1_555
Li2 O10 2.017682 1_555
Li2 O11 2.096123 1_545
Li2 O16 2.112991 1_555
Li2 O17 2.123541 1_555
Li3 O14 2.014026 1_555
Li3 O20 2.074256 1_555
Li3 O21 2.075683 1_555
Li3 O15 2.128718 1_555
Mn0 O22 1.945315 1_555
Mn0 O1 1.967610 1_555
Mn0 O20 1.989648 1_555
Mn0 O3 2.043537 1_554
Mn0 O23 2.170476 1_555
Mn0 O0 2.221514 1_555
Mn1 O2 1.988406 1_565
Mn1 O3 2.000289 1_555
Mn1 O4 2.000299 1_565
Mn1 O5 2.002557 1_555
Mn1 O1 2.206793 1_556
Mn1 O6 2.237908 1_555
Mn2 O3 1.991587 1_555
Mn2 O2 1.999475 1_565
Mn2 O5 2.003766 1_655
Mn2 O4 2.017911 1_665
Mn2 O7 2.189228 1_555
Mn2 O0 2.219807 1_556
Mn3 O8 1.909594 1_555
Mn3 O10 1.929363 1_555
Mn3 O9 1.930166 1_455
Mn3 O7 1.975482 1_445
Mn3 O4 1.998799 1_555
Mn3 O6 2.008624 1_545
Mn4 O9 1.969294 1_455
Mn4 O11 1.987387 1_555
Mn4 O6 2.002453 1_555
Mn4 O5 2.003070 1_555
Mn4 O8 2.174503 1_555
Mn4 O7 2.224801 1_455
Mn5 O11 1.945315 1_555
Mn5 O13 1.967610 1_555
Mn5 O8 1.989648 1_555
Mn5 O15 2.043537 1_555
Mn5 O10 2.170476 1_555
Mn5 O12 2.221514 1_555
Mn6 O15 1.991587 1_555
Mn6 O14 1.999475 1_655
Mn6 O16 2.003766 1_565
Mn6 O17 2.017911 1_665
Mn6 O19 2.189228 1_555
Mn6 O12 2.219807 1_555
Mn7 O14 1.988406 1_655
Mn7 O15 2.000289 1_555
Mn7 O17 2.000299 1_655
Mn7 O16 2.002557 1_555
Mn7 O13 2.206793 1_555
Mn7 O18 2.237908 1_555
Mn8 O21 1.969294 1_545
Mn8 O22 1.987387 1_555
Mn8 O18 2.002453 1_555
Mn8 O16 2.003070 1_555
Mn8 O20 2.174503 1_555
Mn8 O19 2.224801 1_545
Mn9 O20 1.909594 1_555
Mn9 O23 1.929363 1_555
Mn9 O21 1.930166 1_545
Mn9 O19 1.975482 1_445
Mn9 O17 1.998799 1_555
Mn9 O18 2.008624 1_455
Fe0 O23 1.995152 1_555
Fe0 O22 2.010487 1_555
Fe0 O2 2.030989 1_554
Fe0 O0 2.052442 1_545
Fe0 O1 2.084733 1_545
Fe0 O21 2.100329 1_545
Fe1 O12 1.870915 1_555
Fe1 O7 1.887151 1_555
Fe1 O13 1.911028 1_565
Fe1 O6 1.948371 1_555
Fe2 O10 1.995152 1_555
Fe2 O11 2.010487 1_555
Fe2 O14 2.030989 1_555
Fe2 O12 2.052442 1_455
Fe2 O13 2.084733 1_455
Fe2 O9 2.100329 1_455
Fe3 O0 1.870915 1_555
Fe3 O19 1.887151 1_555
Fe3 O1 1.911028 1_655
Fe3 O18 1.948371 1_555
