# generated using pymatgen
data_LiFe(PO3)3
_symmetry_space_group_name_H-M   'P 1'
_cell_length_a   7.31154100
_cell_length_b   9.15363800
_cell_length_c   12.23496200
_cell_angle_alpha   90.00000000
_cell_angle_beta   90.00000000
_cell_angle_gamma   90.00000000
_symmetry_Int_Tables_number   1
_chemical_formula_structural   LiFe(PO3)3
_chemical_formula_sum   'Li4 Fe4 P12 O36'
_cell_volume   818.85174309
_cell_formula_units_Z   4
loop_
 _symmetry_equiv_pos_site_id
 _symmetry_equiv_pos_as_xyz
  1  'x, y, z'
loop_
 _atom_site_type_symbol
 _atom_site_label
 _atom_site_symmetry_multiplicity
 _atom_site_fract_x
 _atom_site_fract_y
 _atom_site_fract_z
 _atom_site_occupancy
  Li  Li0  1  0.75000000  0.95264200  0.99763500  1
  Li  Li1  1  0.75000000  0.45264200  0.50236500  1
  Li  Li2  1  0.25000000  0.54735800  0.49763500  1
  Li  Li3  1  0.25000000  0.04735800  0.00236500  1
  Fe  Fe0  1  0.75000000  0.52847700  0.71724200  1
  Fe  Fe1  1  0.75000000  0.02847700  0.78275800  1
  Fe  Fe2  1  0.25000000  0.97152300  0.21724200  1
  Fe  Fe3  1  0.25000000  0.47152300  0.28275800  1
  P  P0  1  0.95480500  0.74788500  0.35122500  1
  P  P1  1  0.95480500  0.24788500  0.14877500  1
  P  P2  1  0.75000000  0.30880200  0.95741900  1
  P  P3  1  0.75000000  0.80880200  0.54258100  1
  P  P4  1  0.54519500  0.24788500  0.14877500  1
  P  P5  1  0.54519500  0.74788500  0.35122500  1
  P  P6  1  0.45480500  0.25211500  0.64877500  1
  P  P7  1  0.45480500  0.75211500  0.85122500  1
  P  P8  1  0.25000000  0.19119800  0.45741900  1
  P  P9  1  0.25000000  0.69119800  0.04258100  1
  P  P10  1  0.04519500  0.25211500  0.64877500  1
  P  P11  1  0.04519500  0.75211500  0.85122500  1
  O  O0  1  0.97312400  0.65446100  0.76386900  1
  O  O1  1  0.97312400  0.15446100  0.73613100  1
  O  O2  1  0.94017500  0.88845700  0.88283300  1
  O  O3  1  0.94017500  0.38845700  0.61716700  1
  O  O4  1  0.91996000  0.34377600  0.03928600  1
  O  O5  1  0.91996000  0.84377600  0.46071400  1
  O  O6  1  0.75000000  0.69476100  0.31841800  1
  O  O7  1  0.75000000  0.91418400  0.63359400  1
  O  O8  1  0.75000000  0.41418400  0.86640600  1
  O  O9  1  0.75000000  0.14565100  0.93639900  1
  O  O10  1  0.75000000  0.19476100  0.18158200  1
  O  O11  1  0.75000000  0.64565100  0.56360100  1
  O  O12  1  0.58004000  0.34377600  0.03928600  1
  O  O13  1  0.58004000  0.84377600  0.46071400  1
  O  O14  1  0.55982500  0.88845700  0.88283300  1
  O  O15  1  0.55982500  0.38845700  0.61716700  1
  O  O16  1  0.52687600  0.65446100  0.76386900  1
  O  O17  1  0.52687600  0.15446100  0.73613100  1
  O  O18  1  0.47312400  0.84553900  0.26386900  1
  O  O19  1  0.47312400  0.34553900  0.23613100  1
  O  O20  1  0.44017500  0.11154300  0.11716700  1
  O  O21  1  0.44017500  0.61154300  0.38283300  1
  O  O22  1  0.41996000  0.15622400  0.53928600  1
  O  O23  1  0.41996000  0.65622400  0.96071400  1
  O  O24  1  0.25000000  0.85434900  0.06360100  1
  O  O25  1  0.25000000  0.58581600  0.13359400  1
  O  O26  1  0.25000000  0.35434900  0.43639900  1
  O  O27  1  0.25000000  0.08581600  0.36640600  1
  O  O28  1  0.25000000  0.30523900  0.68158200  1
  O  O29  1  0.25000000  0.80523900  0.81841800  1
  O  O30  1  0.08004000  0.15622400  0.53928600  1
  O  O31  1  0.08004000  0.65622400  0.96071400  1
  O  O32  1  0.05982500  0.61154300  0.38283300  1
  O  O33  1  0.05982500  0.11154300  0.11716700  1
  O  O34  1  0.02687600  0.34553900  0.23613100  1
  O  O35  1  0.02687600  0.84553900  0.26386900  1
loop_
_geom_bond_atom_site_label_1
_geom_bond_atom_site_label_2
_geom_bond_distance
_geom_bond_site_symmetry_2
Li0 O9 1.919031 1_565
Li0 O2 2.061916 1_555
Li0 O14 2.061916 1_555
Li1 O11 1.919031 1_555
Li1 O3 2.061916 1_555
Li1 O15 2.061916 1_555
Li2 O26 1.919031 1_555
Li2 O21 2.061916 1_555
Li2 O32 2.061916 1_555
Li3 O24 1.919031 1_545
Li3 O20 2.061916 1_555
Li3 O33 2.061916 1_555
Fe0 O16 2.077678 1_555
Fe0 O0 2.077678 1_555
Fe0 O8 2.103618 1_555
Fe0 O11 2.164260 1_555
Fe0 O3 2.252851 1_555
Fe0 O15 2.252851 1_555
Fe1 O17 2.077678 1_555
Fe1 O1 2.077678 1_555
Fe1 O7 2.103618 1_545
Fe1 O9 2.164260 1_555
Fe1 O2 2.252851 1_545
Fe1 O14 2.252851 1_545
Fe2 O18 2.077678 1_555
Fe2 O35 2.077678 1_555
Fe2 O27 2.103618 1_565
Fe2 O24 2.164260 1_555
Fe2 O20 2.252851 1_565
Fe2 O33 2.252851 1_565
Fe3 O19 2.077678 1_555
Fe3 O34 2.077678 1_555
Fe3 O25 2.103618 1_555
Fe3 O26 2.164260 1_555
Fe3 O21 2.252851 1_555
Fe3 O32 2.252851 1_555
O0 P11 1.489645 1_655
O1 P10 1.489645 1_655
O2 P11 1.515496 1_655
O3 P10 1.515496 1_655
O4 P1 1.621687 1_555
O4 P2 1.627882 1_554
O5 P0 1.621687 1_555
O5 P3 1.627882 1_555
O6 P0 1.624780 1_555
O6 P5 1.624780 1_555
O7 P3 1.473255 1_555
O8 P2 1.473255 1_555
O9 P2 1.515407 1_555
O10 P1 1.624780 1_555
O10 P4 1.624780 1_555
O11 P3 1.515407 1_555
O12 P4 1.621687 1_555
O12 P2 1.627882 1_554
O13 P5 1.621687 1_555
O13 P3 1.627882 1_555
O14 P7 1.515496 1_555
O15 P6 1.515496 1_555
O16 P7 1.489645 1_555
O17 P6 1.489645 1_555
O18 P5 1.489645 1_555
O19 P4 1.489645 1_555
O20 P4 1.515496 1_555
O21 P5 1.515496 1_555
O22 P6 1.621687 1_555
O22 P8 1.627882 1_555
O23 P7 1.621687 1_555
O23 P9 1.627882 1_556
O24 P9 1.515407 1_555
O25 P9 1.473255 1_555
O26 P8 1.515407 1_555
O27 P8 1.473255 1_555
O28 P6 1.624780 1_555
O28 P10 1.624780 1_555
O29 P7 1.624780 1_555
O29 P11 1.624780 1_555
O30 P10 1.621687 1_555
O30 P8 1.627882 1_555
O31 P11 1.621687 1_555
O31 P9 1.627882 1_556
O32 P0 1.515496 1_455
O33 P1 1.515496 1_455
O34 P1 1.489645 1_455
O35 P0 1.489645 1_455
