# generated using pymatgen
data_Li5(CoO2)4
_symmetry_space_group_name_H-M   'P 1'
_cell_length_a   5.77872642
_cell_length_b   5.77872642
_cell_length_c   9.53728100
_cell_angle_alpha   90.00000000
_cell_angle_beta   90.00000000
_cell_angle_gamma   120.00000478
_symmetry_Int_Tables_number   1
_chemical_formula_structural   Li5(CoO2)4
_chemical_formula_sum   'Li10 Co8 O16'
_cell_volume   275.81600114
_cell_formula_units_Z   2
loop_
 _symmetry_equiv_pos_site_id
 _symmetry_equiv_pos_as_xyz
  1  'x, y, z'
loop_
 _atom_site_type_symbol
 _atom_site_label
 _atom_site_symmetry_multiplicity
 _atom_site_fract_x
 _atom_site_fract_y
 _atom_site_fract_z
 _atom_site_occupancy
  Li  Li0  1  0.19128800  0.80871200  0.05748300  1
  Li  Li1  1  0.61742400  0.80871200  0.05748300  1
  Li  Li2  1  0.33333300  0.66666700  0.27761500  1
  Li  Li3  1  0.00000000  0.00000000  0.48011500  1
  Li  Li4  1  0.19128800  0.38257600  0.05748300  1
  Li  Li5  1  0.80871200  0.61742400  0.55748300  1
  Li  Li6  1  0.38257600  0.19128800  0.55748300  1
  Li  Li7  1  0.66666700  0.33333300  0.77761500  1
  Li  Li8  1  0.80871200  0.19128800  0.55748300  1
  Li  Li9  1  0.00000000  0.00000000  0.98011500  1
  Co  Co0  1  0.33333300  0.66666700  0.52765500  1
  Co  Co1  1  0.66666700  0.33333300  0.02765500  1
  Co  Co2  1  0.65963000  0.82981500  0.78613100  1
  Co  Co3  1  0.17018500  0.34037000  0.78613100  1
  Co  Co4  1  0.82981500  0.65963000  0.28613100  1
  Co  Co5  1  0.82981500  0.17018500  0.28613100  1
  Co  Co6  1  0.17018500  0.82981500  0.78613100  1
  Co  Co7  1  0.34037000  0.17018500  0.28613100  1
  O  O0  1  0.15869600  0.84130400  0.39956100  1
  O  O1  1  0.49304800  0.98609700  0.67184700  1
  O  O2  1  0.01390300  0.50695200  0.67184700  1
  O  O3  1  0.68260900  0.84130400  0.39956100  1
  O  O4  1  0.33333300  0.66666700  0.89487200  1
  O  O5  1  0.49304800  0.50695200  0.67184700  1
  O  O6  1  0.84130400  0.68260900  0.89956100  1
  O  O7  1  0.15869600  0.31739100  0.39956100  1
  O  O8  1  0.50695200  0.49304800  0.17184700  1
  O  O9  1  0.66666700  0.33333300  0.39487200  1
  O  O10  1  0.00000000  0.00000000  0.17940700  1
  O  O11  1  0.98609700  0.49304800  0.17184700  1
  O  O12  1  0.00000000  0.00000000  0.67940700  1
  O  O13  1  0.31739100  0.15869600  0.89956100  1
  O  O14  1  0.50695200  0.01390300  0.17184700  1
  O  O15  1  0.84130400  0.15869600  0.89956100  1
loop_
_geom_bond_atom_site_label_1
_geom_bond_atom_site_label_2
_geom_bond_distance
_geom_bond_site_symmetry_2
Li0 O11 1.939117 1_455
Li0 O14 1.939117 1_565
Li0 O4 2.103929 1_554
Li0 O10 2.240065 1_565
Li0 O13 2.327242 1_564
Li0 O6 2.327242 1_454
Li1 O14 1.939114 1_565
Li1 O8 1.939118 1_555
Li1 O4 2.103933 1_554
Li1 O10 2.240065 1_665
Li1 O6 2.327238 1_554
Li1 O15 2.327241 1_564
Li2 O14 2.009311 1_565
Li2 O11 2.009311 1_455
Li2 O8 2.009320 1_555
Li2 O0 2.099518 1_555
Li2 O3 2.099526 1_555
Li2 O7 2.099526 1_555
Li3 O3 1.764431 1_445
Li3 O7 1.764431 1_555
Li3 O0 1.764436 1_545
Li3 O12 1.900704 1_555
Li4 O11 1.939114 1_455
Li4 O8 1.939118 1_555
Li4 O4 2.103933 1_554
Li4 O10 2.240065 1_555
Li4 O13 2.327238 1_554
Li4 O15 2.327241 1_454
Li5 O2 1.939114 1_655
Li5 O5 1.939118 1_555
Li5 O9 2.103933 1_555
Li5 O12 2.240065 1_665
Li5 O3 2.327238 1_555
Li5 O0 2.327241 1_655
Li6 O1 1.939114 1_545
Li6 O5 1.939118 1_555
Li6 O9 2.103933 1_555
Li6 O12 2.240065 1_555
Li6 O7 2.327238 1_555
Li6 O0 2.327241 1_545
Li7 O2 2.009311 1_655
Li7 O1 2.009311 1_545
Li7 O5 2.009320 1_555
Li7 O15 2.099518 1_555
Li7 O13 2.099526 1_555
Li7 O6 2.099526 1_555
Li8 O1 1.939117 1_545
Li8 O2 1.939117 1_655
Li8 O9 2.103929 1_555
Li8 O12 2.240065 1_655
Li8 O7 2.327242 1_655
Li8 O3 2.327242 1_545
Li9 O6 1.764431 1_445
Li9 O13 1.764431 1_555
Li9 O15 1.764436 1_455
Li9 O10 1.900704 1_556
Co0 O1 2.108715 1_555
Co0 O2 2.108715 1_555
Co0 O5 2.108715 1_555
Co0 O0 2.132558 1_555
Co0 O7 2.132566 1_555
Co0 O3 2.132566 1_555
Co1 O11 2.108715 1_555
Co1 O14 2.108715 1_555
Co1 O8 2.108715 1_555
Co1 O15 2.132558 1_554
Co1 O13 2.132566 1_554
Co1 O6 2.132566 1_554
Co2 O4 1.934457 1_555
Co2 O5 1.949263 1_555
Co2 O1 1.949267 1_555
Co2 O6 1.972102 1_555
Co2 O15 1.972106 1_565
Co2 O12 1.984331 1_665
Co3 O4 1.934457 1_555
Co3 O5 1.949263 1_555
Co3 O2 1.949267 1_555
Co3 O13 1.972102 1_555
Co3 O15 1.972106 1_455
Co3 O12 1.984331 1_555
Co4 O9 1.934457 1_555
Co4 O8 1.949263 1_555
Co4 O11 1.949267 1_555
Co4 O3 1.972102 1_555
Co4 O0 1.972106 1_655
Co4 O10 1.984331 1_665
Co5 O9 1.934453 1_555
Co5 O14 1.949263 1_555
Co5 O11 1.949263 1_555
Co5 O7 1.972106 1_655
Co5 O3 1.972106 1_545
Co5 O10 1.984331 1_655
Co6 O4 1.934453 1_555
Co6 O2 1.949263 1_555
Co6 O1 1.949263 1_555
Co6 O13 1.972106 1_565
Co6 O6 1.972106 1_455
Co6 O12 1.984331 1_565
Co7 O9 1.934457 1_555
Co7 O8 1.949263 1_555
Co7 O14 1.949267 1_555
Co7 O7 1.972102 1_555
Co7 O0 1.972106 1_545
Co7 O10 1.984331 1_555
