# generated using pymatgen
data_Ca3Be2P4(HO2)10
_symmetry_space_group_name_H-M   'P 1'
_cell_length_a   15.16598700
_cell_length_b   7.14569400
_cell_length_c   7.40552721
_cell_angle_alpha   84.17386312
_cell_angle_beta   90.00000000
_cell_angle_gamma   90.00000000
_symmetry_Int_Tables_number   1
_chemical_formula_structural   Ca3Be2P4(HO2)10
_chemical_formula_sum   'Ca6 Be4 P8 H20 O40'
_cell_volume   798.40255131
_cell_formula_units_Z   2
loop_
 _symmetry_equiv_pos_site_id
 _symmetry_equiv_pos_as_xyz
  1  'x, y, z'
loop_
 _atom_site_type_symbol
 _atom_site_label
 _atom_site_symmetry_multiplicity
 _atom_site_fract_x
 _atom_site_fract_y
 _atom_site_fract_z
 _atom_site_occupancy
  Ca  Ca0  1  0.00000000  0.00000000  0.00000000  1
  Ca  Ca1  1  0.30303000  0.04522500  0.14151800  1
  Ca  Ca2  1  0.80303000  0.95477500  0.35848200  1
  Ca  Ca3  1  0.50000000  0.00000000  0.50000000  1
  Ca  Ca4  1  0.19697000  0.04522500  0.64151800  1
  Ca  Ca5  1  0.69697000  0.95477500  0.85848200  1
  Be  Be0  1  0.29166500  0.55377900  0.12688500  1
  Be  Be1  1  0.79166500  0.44622100  0.37311500  1
  Be  Be2  1  0.20833500  0.55377900  0.62688500  1
  Be  Be3  1  0.70833500  0.44622100  0.87311500  1
  P  P0  1  0.84837300  0.64348200  0.02505600  1
  P  P1  1  0.65205900  0.23272000  0.20664400  1
  P  P2  1  0.15205900  0.76728000  0.29335600  1
  P  P3  1  0.34837300  0.35651800  0.47494400  1
  P  P4  1  0.65162700  0.64348200  0.52505600  1
  P  P5  1  0.84794100  0.23272000  0.70664400  1
  P  P6  1  0.34794100  0.76728000  0.79335600  1
  P  P7  1  0.15162700  0.35651800  0.97494400  1
  H  H0  1  0.47744400  0.26842100  0.10941700  1
  H  H1  1  0.58353300  0.65168900  0.05406000  1
  H  H2  1  0.06447200  0.53785800  0.12462700  1
  H  H3  1  0.91692700  0.27268600  0.21827000  1
  H  H4  1  0.98126000  0.16047400  0.35564700  1
  H  H5  1  0.48126000  0.83952600  0.14435300  1
  H  H6  1  0.41692700  0.72731400  0.28173000  1
  H  H7  1  0.56447200  0.46214200  0.37537300  1
  H  H8  1  0.08353300  0.34831100  0.44594000  1
  H  H9  1  0.97744400  0.73157900  0.39058300  1
  H  H10  1  0.02255600  0.26842100  0.60941700  1
  H  H11  1  0.91646700  0.65168900  0.55406000  1
  H  H12  1  0.43552800  0.53785800  0.62462700  1
  H  H13  1  0.58307300  0.27268600  0.71827000  1
  H  H14  1  0.51874000  0.16047400  0.85564700  1
  H  H15  1  0.01874000  0.83952600  0.64435300  1
  H  H16  1  0.08307300  0.72731400  0.78173000  1
  H  H17  1  0.93552800  0.46214200  0.87537300  1
  H  H18  1  0.41646700  0.34831100  0.94594000  1
  H  H19  1  0.52255600  0.73157900  0.89058300  1
  O  O0  1  0.43884400  0.23089400  0.01160400  1
  O  O1  1  0.64536800  0.38623400  0.04385600  1
  O  O2  1  0.23950800  0.36085400  0.08263900  1
  O  O3  1  0.07262700  0.40063900  0.10529500  1
  O  O4  1  0.67410900  0.03583500  0.15150700  1
  O  O5  1  0.86129700  0.84537300  0.07284000  1
  O  O6  1  0.22754500  0.72722200  0.15843600  1
  O  O7  1  0.85290800  0.49487100  0.19067200  1
  O  O8  1  0.06181800  0.76056100  0.19329200  1
  O  O9  1  0.93574800  0.14266600  0.26087700  1
  O  O10  1  0.43574800  0.85733400  0.23912300  1
  O  O11  1  0.56181800  0.23943900  0.30670800  1
  O  O12  1  0.35290800  0.50512900  0.30932800  1
  O  O13  1  0.72754500  0.27277800  0.34156400  1
  O  O14  1  0.36129700  0.15462700  0.42716000  1
  O  O15  1  0.17410900  0.96416500  0.34849300  1
  O  O16  1  0.57262700  0.59936100  0.39470500  1
  O  O17  1  0.73950800  0.63914600  0.41736100  1
  O  O18  1  0.14536800  0.61376600  0.45614400  1
  O  O19  1  0.06115600  0.23089400  0.51160400  1
  O  O20  1  0.93884400  0.76910600  0.48839600  1
  O  O21  1  0.85463200  0.38623400  0.54385600  1
  O  O22  1  0.26049200  0.36085400  0.58263900  1
  O  O23  1  0.42737300  0.40063900  0.60529500  1
  O  O24  1  0.82589100  0.03583500  0.65150700  1
  O  O25  1  0.63870300  0.84537300  0.57284000  1
  O  O26  1  0.27245500  0.72722200  0.65843600  1
  O  O27  1  0.64709200  0.49487100  0.69067200  1
  O  O28  1  0.43818200  0.76056100  0.69329200  1
  O  O29  1  0.56425200  0.14266600  0.76087700  1
  O  O30  1  0.06425200  0.85733400  0.73912300  1
  O  O31  1  0.93818200  0.23943900  0.80670800  1
  O  O32  1  0.14709200  0.50512900  0.80932800  1
  O  O33  1  0.77245500  0.27277800  0.84156400  1
  O  O34  1  0.13870300  0.15462700  0.92716000  1
  O  O35  1  0.32589100  0.96416500  0.84849300  1
  O  O36  1  0.92737300  0.59936100  0.89470500  1
  O  O37  1  0.76049200  0.63914600  0.91736100  1
  O  O38  1  0.35463200  0.61376600  0.95614400  1
  O  O39  1  0.56115600  0.76910600  0.98839600  1
loop_
_geom_bond_atom_site_label_1
_geom_bond_atom_site_label_2
_geom_bond_distance
_geom_bond_site_symmetry_2
Ca0 O31 2.314759 1_454
Ca0 O8 2.314759 1_545
Ca0 O34 2.411599 1_554
Ca0 O5 2.411599 1_445
Ca0 O9 2.474071 1_455
Ca0 O30 2.474071 1_544
Ca1 O35 2.328050 1_544
Ca1 O2 2.450578 1_555
Ca1 O10 2.485841 1_545
Ca1 O14 2.490456 1_555
Ca1 O15 2.515447 1_545
Ca1 O6 2.536151 1_545
Ca1 O0 2.582492 1_555
Ca2 O24 2.328050 1_565
Ca2 O17 2.450578 1_555
Ca2 O9 2.485841 1_565
Ca2 O5 2.490456 1_555
Ca2 O4 2.515447 1_565
Ca2 O13 2.536151 1_565
Ca2 O20 2.582492 1_555
Ca3 O11 2.314759 1_555
Ca3 O28 2.314759 1_545
Ca3 O14 2.411599 1_555
Ca3 O25 2.411599 1_545
Ca3 O29 2.474071 1_555
Ca3 O10 2.474071 1_545
Ca4 O15 2.328050 1_545
Ca4 O22 2.450578 1_555
Ca4 O30 2.485841 1_545
Ca4 O34 2.490456 1_555
Ca4 O35 2.515447 1_545
Ca4 O26 2.536151 1_545
Ca4 O19 2.582492 1_555
Ca5 O4 2.328050 1_566
Ca5 O37 2.450578 1_555
Ca5 O29 2.485841 1_565
Ca5 O25 2.490456 1_555
Ca5 O24 2.515447 1_565
Ca5 O33 2.536151 1_565
Ca5 O39 2.582492 1_555
Be0 O38 1.607614 1_554
Be0 O6 1.610922 1_555
Be0 O12 1.647307 1_555
Be0 O2 1.650837 1_555
Be1 O21 1.607614 1_555
Be1 O13 1.610922 1_555
Be1 O7 1.647307 1_555
Be1 O17 1.650837 1_555
Be2 O18 1.607614 1_555
Be2 O26 1.610922 1_555
Be2 O32 1.647307 1_555
Be2 O22 1.650837 1_555
Be3 O1 1.607614 1_556
Be3 O33 1.610922 1_555
Be3 O27 1.647307 1_555
Be3 O37 1.650837 1_555
H0 O0 0.989311 1_555
H1 O39 0.986291 1_554
H2 O3 1.012779 1_555
H2 O8 1.719573 1_555
H3 O9 0.992327 1_555
H4 O9 1.001649 1_555
H5 O10 1.001649 1_555
H6 O10 0.992327 1_555
H7 O16 1.012779 1_555
H7 O11 1.719573 1_555
H8 O19 0.986291 1_555
H9 O20 0.989311 1_555
H10 O19 0.989311 1_555
H11 O20 0.986291 1_555
H12 O23 1.012779 1_555
H12 O28 1.719573 1_555
H13 O29 0.992327 1_555
H14 O29 1.001649 1_555
H15 O30 1.001649 1_555
H16 O30 0.992327 1_555
H17 O36 1.012779 1_555
H17 O31 1.719573 1_555
H18 O0 0.986291 1_556
H19 O39 0.989311 1_555
O1 P1 1.548694 1_555
O2 P7 1.555122 1_554
O3 P7 1.590125 1_554
O4 P1 1.540938 1_555
O5 P0 1.532490 1_555
O6 P2 1.564902 1_555
O7 P0 1.540208 1_555
O8 P2 1.559390 1_555
O11 P1 1.559390 1_555
O12 P3 1.540208 1_555
O13 P1 1.564902 1_555
O14 P3 1.532490 1_555
O15 P2 1.540938 1_555
O16 P4 1.590125 1_555
O17 P4 1.555122 1_555
O18 P2 1.548694 1_555
O21 P5 1.548694 1_555
O22 P3 1.555122 1_555
O23 P3 1.590125 1_555
O24 P5 1.540938 1_555
O25 P4 1.532490 1_555
O26 P6 1.564902 1_555
O27 P4 1.540208 1_555
O28 P6 1.559390 1_555
O31 P5 1.559390 1_555
O32 P7 1.540208 1_555
O33 P5 1.564902 1_555
O34 P7 1.532490 1_555
O35 P6 1.540938 1_555
O36 P0 1.590125 1_556
O37 P0 1.555122 1_556
O38 P6 1.548694 1_555
