# generated using pymatgen
data_CoH16RuN10ClO10
_symmetry_space_group_name_H-M   'P 1'
_cell_length_a   17.96547400
_cell_length_b   6.19367700
_cell_length_c   14.71900845
_cell_angle_alpha   85.31650795
_cell_angle_beta   90.00000000
_cell_angle_gamma   90.00000000
_symmetry_Int_Tables_number   1
_chemical_formula_structural   CoH16RuN10ClO10
_chemical_formula_sum   'Co4 H64 Ru4 N40 Cl4 O40'
_cell_volume   1632.34980654
_cell_formula_units_Z   4
loop_
 _symmetry_equiv_pos_site_id
 _symmetry_equiv_pos_as_xyz
  1  'x, y, z'
loop_
 _atom_site_type_symbol
 _atom_site_label
 _atom_site_symmetry_multiplicity
 _atom_site_fract_x
 _atom_site_fract_y
 _atom_site_fract_z
 _atom_site_occupancy
  Co  Co0  1  0.50238400  0.35478400  0.23129700  1
  Co  Co1  1  0.00238400  0.64521600  0.26870300  1
  Co  Co2  1  0.49761600  0.64521600  0.76870300  1
  Co  Co3  1  0.99761600  0.35478400  0.73129700  1
  H  H0  1  0.70872800  0.57996200  0.61691500  1
  H  H1  1  0.20872800  0.42003800  0.88308500  1
  H  H2  1  0.29127200  0.42003800  0.38308500  1
  H  H3  1  0.79127200  0.57996200  0.11691500  1
  H  H4  1  0.55264500  0.12282800  0.10486900  1
  H  H5  1  0.05264500  0.87717200  0.39513100  1
  H  H6  1  0.44735500  0.87717200  0.89513100  1
  H  H7  1  0.94735500  0.12282800  0.60486900  1
  H  H8  1  0.56421300  0.38257800  0.07503500  1
  H  H9  1  0.06421300  0.61742200  0.42496500  1
  H  H10  1  0.43578700  0.61742200  0.92496500  1
  H  H11  1  0.93578700  0.38257800  0.57503500  1
  H  H12  1  0.48088400  0.27039500  0.06799800  1
  H  H13  1  0.98088400  0.72960500  0.43200200  1
  H  H14  1  0.51911600  0.72960500  0.93200200  1
  H  H15  1  0.01911600  0.27039500  0.56799800  1
  H  H16  1  0.37000700  0.23234400  0.27597400  1
  H  H17  1  0.87000700  0.76765600  0.22402600  1
  H  H18  1  0.62999300  0.76765600  0.72402600  1
  H  H19  1  0.12999300  0.23234400  0.77597400  1
  H  H20  1  0.37504000  0.34569500  0.17023200  1
  H  H21  1  0.87504000  0.65430500  0.32976800  1
  H  H22  1  0.62496000  0.65430500  0.82976800  1
  H  H23  1  0.12496000  0.34569500  0.67023200  1
  H  H24  1  0.40009200  0.08974400  0.19243200  1
  H  H25  1  0.90009200  0.91025600  0.30756800  1
  H  H26  1  0.59990800  0.91025600  0.80756800  1
  H  H27  1  0.09990800  0.08974400  0.69243200  1
  H  H28  1  0.64217100  0.36199400  0.22824600  1
  H  H29  1  0.14217100  0.63800600  0.27175400  1
  H  H30  1  0.35782900  0.63800600  0.77175400  1
  H  H31  1  0.85782900  0.36199400  0.72824600  1
  H  H32  1  0.60757600  0.60158500  0.19574900  1
  H  H33  1  0.10757600  0.39841500  0.30425100  1
  H  H34  1  0.39242400  0.39841500  0.80425100  1
  H  H35  1  0.89242400  0.60158500  0.69574900  1
  H  H36  1  0.61493000  0.52655200  0.30560700  1
  H  H37  1  0.11493000  0.47344800  0.19439300  1
  H  H38  1  0.38507000  0.47344800  0.69439300  1
  H  H39  1  0.88507000  0.52655200  0.80560700  1
  H  H40  1  0.51091400  0.94696800  0.25591200  1
  H  H41  1  0.01091400  0.05303200  0.24408800  1
  H  H42  1  0.48908600  0.05303200  0.74408800  1
  H  H43  1  0.98908600  0.94696800  0.75591200  1
  H  H44  1  0.52447800  0.05195400  0.35317300  1
  H  H45  1  0.02447800  0.94804600  0.14682700  1
  H  H46  1  0.47552200  0.94804600  0.64682700  1
  H  H47  1  0.97552200  0.05195400  0.85317300  1
  H  H48  1  0.59289700  0.04897000  0.27674600  1
  H  H49  1  0.09289700  0.95103000  0.22325400  1
  H  H50  1  0.40710300  0.95103000  0.72325400  1
  H  H51  1  0.90710300  0.04897000  0.77674600  1
  H  H52  1  0.42499800  0.37041700  0.37447300  1
  H  H53  1  0.92499800  0.62958300  0.12552700  1
  H  H54  1  0.57500200  0.62958300  0.62552700  1
  H  H55  1  0.07500200  0.37041700  0.87447300  1
  H  H56  1  0.51404100  0.39730000  0.40222300  1
  H  H57  1  0.01404100  0.60270000  0.09777700  1
  H  H58  1  0.48595900  0.60270000  0.59777700  1
  H  H59  1  0.98595900  0.39730000  0.90222300  1
  H  H60  1  0.46693400  0.60497900  0.35271000  1
  H  H61  1  0.96693400  0.39502100  0.14729000  1
  H  H62  1  0.53306600  0.39502100  0.64729000  1
  H  H63  1  0.03306600  0.60497900  0.85271000  1
  Ru  Ru0  1  0.72692800  0.93842600  0.52852800  1
  Ru  Ru1  1  0.22692800  0.06157400  0.97147200  1
  Ru  Ru2  1  0.27307200  0.06157400  0.47147200  1
  Ru  Ru3  1  0.77307200  0.93842600  0.02852800  1
  N  N0  1  0.76388300  0.14017500  0.44881000  1
  N  N1  1  0.26388300  0.85982500  0.05119000  1
  N  N2  1  0.23611700  0.85982500  0.55119000  1
  N  N3  1  0.73611700  0.14017500  0.94881000  1
  N  N4  1  0.68238500  0.76684800  0.42158600  1
  N  N5  1  0.18238500  0.23315200  0.07841400  1
  N  N6  1  0.31761500  0.23315200  0.57841400  1
  N  N7  1  0.81761500  0.76684800  0.92158600  1
  N  N8  1  0.62451100  0.10627300  0.53380400  1
  N  N9  1  0.12451100  0.89372700  0.96619600  1
  N  N10  1  0.37548900  0.89372700  0.46619600  1
  N  N11  1  0.87548900  0.10627300  0.03380400  1
  N  N12  1  0.76998000  0.07872200  0.64667400  1
  N  N13  1  0.26998000  0.92127800  0.85332600  1
  N  N14  1  0.23002000  0.92127800  0.35332600  1
  N  N15  1  0.73002000  0.07872200  0.14667400  1
  N  N16  1  0.82638800  0.75217300  0.52335900  1
  N  N17  1  0.32638800  0.24782700  0.97664100  1
  N  N18  1  0.17361200  0.24782700  0.47664100  1
  N  N19  1  0.67361200  0.75217300  0.02335900  1
  N  N20  1  0.52825000  0.27197500  0.10717400  1
  N  N21  1  0.02825000  0.72802500  0.39282600  1
  N  N22  1  0.47175000  0.72802500  0.89282600  1
  N  N23  1  0.97175000  0.27197500  0.60717400  1
  N  N24  1  0.40131300  0.24003000  0.21660800  1
  N  N25  1  0.90131300  0.75997000  0.28339200  1
  N  N26  1  0.59868700  0.75997000  0.78339200  1
  N  N27  1  0.09868700  0.24003000  0.71660800  1
  N  N28  1  0.60234400  0.47222100  0.24310300  1
  N  N29  1  0.10234400  0.52777900  0.25689700  1
  N  N30  1  0.39765600  0.52777900  0.75689700  1
  N  N31  1  0.89765600  0.47222100  0.74310300  1
  N  N32  1  0.53676200  0.07252600  0.28523400  1
  N  N33  1  0.03676200  0.92747400  0.21476600  1
  N  N34  1  0.46323800  0.92747400  0.71476600  1
  N  N35  1  0.96323800  0.07252600  0.78523400  1
  N  N36  1  0.47488400  0.44087900  0.35319700  1
  N  N37  1  0.97488400  0.55912100  0.14680300  1
  N  N38  1  0.52511600  0.55912100  0.64680300  1
  N  N39  1  0.02511600  0.44087900  0.85319700  1
  Cl  Cl0  1  0.46469800  0.68586500  0.16374500  1
  Cl  Cl1  1  0.96469800  0.31413500  0.33625500  1
  Cl  Cl2  1  0.53530200  0.31413500  0.83625500  1
  Cl  Cl3  1  0.03530200  0.68586500  0.66374500  1
  O  O0  1  0.72475400  0.71164300  0.36069700  1
  O  O1  1  0.22475400  0.28835700  0.13930300  1
  O  O2  1  0.27524600  0.28835700  0.63930300  1
  O  O3  1  0.77524600  0.71164300  0.86069700  1
  O  O4  1  0.61439500  0.72357400  0.42024300  1
  O  O5  1  0.11439500  0.27642600  0.07975700  1
  O  O6  1  0.38560500  0.27642600  0.57975700  1
  O  O7  1  0.88560500  0.72357400  0.92024300  1
  O  O8  1  0.60519900  0.22816000  0.46582400  1
  O  O9  1  0.10519900  0.77184000  0.03417600  1
  O  O10  1  0.39480100  0.77184000  0.53417600  1
  O  O11  1  0.89480100  0.22816000  0.96582400  1
  O  O12  1  0.58342900  0.08045800  0.60208700  1
  O  O13  1  0.08342900  0.91954200  0.89791300  1
  O  O14  1  0.41657100  0.91954200  0.39791300  1
  O  O15  1  0.91657100  0.08045800  0.10208700  1
  O  O16  1  0.73747700  0.22805700  0.68153400  1
  O  O17  1  0.23747700  0.77194300  0.81846600  1
  O  O18  1  0.26252300  0.77194300  0.31846600  1
  O  O19  1  0.76252300  0.22805700  0.18153400  1
  O  O20  1  0.83020100  0.00476700  0.67998600  1
  O  O21  1  0.33020100  0.99523300  0.82001400  1
  O  O22  1  0.16979900  0.99523300  0.32001400  1
  O  O23  1  0.66979900  0.00476700  0.17998600  1
  O  O24  1  0.82736000  0.55633300  0.55228300  1
  O  O25  1  0.32736000  0.44366700  0.94771700  1
  O  O26  1  0.17264000  0.44366700  0.44771700  1
  O  O27  1  0.67264000  0.55633300  0.05228300  1
  O  O28  1  0.88408300  0.83993700  0.48972500  1
  O  O29  1  0.38408300  0.16006300  0.01027500  1
  O  O30  1  0.11591700  0.16006300  0.51027500  1
  O  O31  1  0.61591700  0.83993700  0.98972500  1
  O  O32  1  0.78717400  0.26617400  0.39272100  1
  O  O33  1  0.28717400  0.73382600  0.10727900  1
  O  O34  1  0.21282600  0.73382600  0.60727900  1
  O  O35  1  0.71282600  0.26617400  0.89272100  1
  O  O36  1  0.68107300  0.71640900  0.61581000  1
  O  O37  1  0.18107300  0.28359100  0.88419000  1
  O  O38  1  0.31892700  0.28359100  0.38419000  1
  O  O39  1  0.81892700  0.71640900  0.11581000  1
loop_
_geom_bond_atom_site_label_1
_geom_bond_atom_site_label_2
_geom_bond_distance
_geom_bond_site_symmetry_2
Co0 N28 1.950616 1_555
Co0 N32 1.959932 1_555
Co0 N24 1.968271 1_555
Co0 N36 1.975855 1_555
Co0 N20 1.992443 1_555
Co1 N29 1.950616 1_555
Co1 N33 1.959932 1_555
Co1 N25 1.968271 1_455
Co1 N37 1.975855 1_455
Co1 N21 1.992443 1_555
Co2 N30 1.950616 1_555
Co2 N34 1.959932 1_555
Co2 N26 1.968271 1_555
Co2 N38 1.975855 1_555
Co2 N22 1.992443 1_555
Co3 N31 1.950616 1_555
Co3 N35 1.959932 1_555
Co3 N27 1.968271 1_655
Co3 N39 1.975855 1_655
Co3 N23 1.992443 1_555
H0 O36 0.979323 1_555
H1 O37 0.979323 1_555
H2 O38 0.979323 1_555
H3 O39 0.979323 1_555
H4 N20 1.025522 1_555
H5 N21 1.025522 1_555
H6 N22 1.025522 1_555
H7 N23 1.025522 1_555
H8 N20 1.028384 1_555
H9 N21 1.028384 1_555
H10 N22 1.028384 1_555
H11 N23 1.028384 1_555
H12 N20 1.028417 1_555
H13 N21 1.028417 1_655
H14 N22 1.028417 1_555
H15 N23 1.028417 1_455
H16 N24 1.036986 1_555
H17 N25 1.036986 1_555
H18 N26 1.036986 1_555
H19 N27 1.036986 1_555
H20 N24 1.021814 1_555
H21 N25 1.021814 1_555
H22 N26 1.021814 1_555
H23 N27 1.021814 1_555
H24 N24 1.023538 1_555
H25 N25 1.023538 1_555
H26 N26 1.023538 1_555
H27 N27 1.023538 1_555
H28 N28 1.024817 1_555
H29 N29 1.024817 1_555
H30 N30 1.024817 1_555
H31 N31 1.024817 1_555
H32 N28 1.022465 1_555
H33 N29 1.022465 1_555
H34 N30 1.022465 1_555
H35 N31 1.022465 1_555
H36 N28 1.030202 1_555
H37 N29 1.030202 1_555
H38 N30 1.030202 1_555
H39 N31 1.030202 1_555
H40 N32 1.030284 1_565
H41 N33 1.030284 1_545
H42 N34 1.030284 1_545
H43 N35 1.030284 1_565
H44 N32 1.021822 1_555
H45 N33 1.021822 1_555
H46 N34 1.021822 1_555
H47 N35 1.021822 1_555
H48 N32 1.028070 1_555
H49 N33 1.028070 1_555
H50 N34 1.028070 1_555
H51 N35 1.028070 1_555
H52 N36 1.034134 1_555
H53 N37 1.034134 1_555
H54 N38 1.034134 1_555
H55 N39 1.034134 1_555
H56 N36 1.027934 1_555
H57 N37 1.027934 1_455
H58 N38 1.027934 1_555
H59 N39 1.027934 1_655
H60 N36 1.025814 1_555
H61 N37 1.025814 1_555
H62 N38 1.025814 1_555
H63 N39 1.025814 1_555
N0 O32 1.166391 1_555
N0 Ru0 1.771882 1_545
N1 O33 1.166391 1_555
N1 Ru1 1.771882 1_564
N2 O34 1.166391 1_555
N2 Ru2 1.771882 1_565
N3 O35 1.166391 1_555
N3 Ru3 1.771882 1_546
N4 O0 1.244816 1_555
N4 O4 1.251035 1_555
N4 Ru0 2.126171 1_555
N5 O1 1.244816 1_555
N5 O5 1.251035 1_555
N5 Ru1 2.126171 1_554
N6 O2 1.244816 1_555
N6 O6 1.251035 1_555
N6 Ru2 2.126171 1_555
N7 O3 1.244816 1_555
N7 O7 1.251035 1_555
N7 Ru3 2.126171 1_556
N8 O12 1.246673 1_555
N8 O8 1.252251 1_555
N8 Ru0 2.117888 1_545
N9 O13 1.246673 1_555
N9 O9 1.252251 1_556
N9 Ru1 2.117888 1_565
N10 O14 1.246673 1_555
N10 O10 1.252251 1_555
N10 Ru2 2.117888 1_565
N11 O15 1.246673 1_555
N11 O11 1.252251 1_554
N11 Ru3 2.117888 1_545
N12 O16 1.239861 1_555
N12 O20 1.258592 1_555
N12 Ru0 2.150385 1_545
N13 O17 1.239861 1_555
N13 O21 1.258592 1_555
N13 Ru1 2.150385 1_565
N14 O18 1.239861 1_555
N14 O22 1.258592 1_555
N14 Ru2 2.150385 1_565
N15 O19 1.239861 1_555
N15 O23 1.258592 1_555
N15 Ru3 2.150385 1_545
N16 O24 1.252405 1_555
N16 O28 1.253391 1_555
N16 Ru0 2.131598 1_555
N17 O25 1.252405 1_555
N17 O29 1.253391 1_556
N17 Ru1 2.131598 1_555
N18 O26 1.252405 1_555
N18 O30 1.253391 1_555
N18 Ru2 2.131598 1_555
N19 O27 1.252405 1_555
N19 O31 1.253391 1_554
N19 Ru3 2.131598 1_555
Cl0 Co0 2.306308 1_555
Cl1 Co1 2.306308 1_655
Cl2 Co2 2.306308 1_555
Cl3 Co3 2.306308 1_455
O36 Ru0 1.982810 1_555
O37 Ru1 1.982810 1_555
O38 Ru2 1.982810 1_555
O39 Ru3 1.982810 1_555
