# generated using pymatgen
data_LiFe3SiPO8
_symmetry_space_group_name_H-M   'P 1'
_cell_length_a   7.16567700
_cell_length_b   5.56441500
_cell_length_c   8.33709987
_cell_angle_alpha   87.73808095
_cell_angle_beta   90.00000000
_cell_angle_gamma   90.00000000
_symmetry_Int_Tables_number   1
_chemical_formula_structural   LiFe3SiPO8
_chemical_formula_sum   'Li2 Fe6 Si2 P2 O16'
_cell_volume   332.16451204
_cell_formula_units_Z   2
loop_
 _symmetry_equiv_pos_site_id
 _symmetry_equiv_pos_as_xyz
  1  'x, y, z'
loop_
 _atom_site_type_symbol
 _atom_site_label
 _atom_site_symmetry_multiplicity
 _atom_site_fract_x
 _atom_site_fract_y
 _atom_site_fract_z
 _atom_site_occupancy
  Li  Li0  1  0.80521900  0.81404200  0.00424200  1
  Li  Li1  1  0.19478100  0.31404200  0.50424200  1
  Fe  Fe0  1  0.65382100  0.03670600  0.43547700  1
  Fe  Fe1  1  0.43703500  0.07554600  0.12647700  1
  Fe  Fe2  1  0.94880600  0.31794600  0.19221000  1
  Fe  Fe3  1  0.34617900  0.53670600  0.93547700  1
  Fe  Fe4  1  0.56296500  0.57554600  0.62647700  1
  Fe  Fe5  1  0.05119400  0.81794600  0.69221000  1
  Si  Si0  1  0.48800500  0.04084600  0.73340400  1
  Si  Si1  1  0.51199500  0.54084600  0.23340400  1
  P  P0  1  0.94637000  0.31238100  0.82137300  1
  P  P1  1  0.05363000  0.81238100  0.32137300  1
  O  O0  1  0.35045600  0.79550900  0.73902300  1
  O  O1  1  0.54809600  0.72010000  0.07016000  1
  O  O2  1  0.54939700  0.69813400  0.39309200  1
  O  O3  1  0.92787100  0.67338700  0.20481400  1
  O  O4  1  0.94230700  0.04248900  0.37431500  1
  O  O5  1  0.22534500  0.90957300  0.23440400  1
  O  O6  1  0.09102800  0.65145200  0.47515200  1
  O  O7  1  0.69275100  0.91188900  0.69586100  1
  O  O8  1  0.64954400  0.29550900  0.23902300  1
  O  O9  1  0.45190400  0.22010000  0.57016000  1
  O  O10  1  0.45060300  0.19813400  0.89309200  1
  O  O11  1  0.07212900  0.17338700  0.70481400  1
  O  O12  1  0.05769300  0.54248900  0.87431500  1
  O  O13  1  0.77465500  0.40957300  0.73440400  1
  O  O14  1  0.90897200  0.15145200  0.97515200  1
  O  O15  1  0.30724900  0.41188900  0.19586100  1
loop_
_geom_bond_atom_site_label_1
_geom_bond_atom_site_label_2
_geom_bond_distance
_geom_bond_site_symmetry_2
Li0 O1 1.986770 1_555
Li0 O3 2.019383 1_555
Li0 O14 2.024988 1_564
Li0 O12 2.618929 1_654
Li1 O9 1.986770 1_555
Li1 O11 2.019383 1_555
Li1 O6 2.024988 1_555
Li1 O4 2.618929 1_455
Fe0 O2 2.070413 1_545
Fe0 O9 2.118040 1_555
Fe0 O4 2.129098 1_555
Fe0 O8 2.138033 1_555
Fe0 O7 2.270190 1_545
Fe1 O5 1.974326 1_545
Fe1 O10 2.038614 1_554
Fe1 O15 2.188079 1_555
Fe1 O8 2.188149 1_555
Fe1 O1 2.199768 1_545
Fe2 O3 1.990409 1_555
Fe2 O14 2.084918 1_554
Fe2 O4 2.114909 1_555
Fe2 O8 2.182333 1_555
Fe2 O15 2.621557 1_655
Fe3 O10 2.070413 1_555
Fe3 O1 2.118040 1_556
Fe3 O12 2.129098 1_555
Fe3 O0 2.138033 1_555
Fe3 O15 2.270190 1_556
Fe4 O13 1.974326 1_555
Fe4 O2 2.038614 1_555
Fe4 O7 2.188079 1_555
Fe4 O0 2.188149 1_555
Fe4 O9 2.199768 1_555
Fe5 O11 1.990409 1_565
Fe5 O6 2.084918 1_555
Fe5 O12 2.114909 1_555
Fe5 O0 2.182333 1_555
Fe5 O7 2.621557 1_455
O0 Si0 1.682935 1_565
O1 Si1 1.675389 1_555
O2 Si1 1.643855 1_555
O3 P1 1.553673 1_655
O4 P1 1.585947 1_645
O5 P1 1.516995 1_555
O6 P1 1.557811 1_555
O7 Si0 1.668267 1_565
O8 Si1 1.682935 1_555
O9 Si0 1.675389 1_555
O10 Si0 1.643855 1_555
O11 P0 1.553673 1_455
O12 P0 1.585947 1_455
O13 P0 1.516995 1_555
O14 P0 1.557811 1_555
O15 Si1 1.668267 1_555
