# generated using pymatgen
data_LiCoSiO4
_symmetry_space_group_name_H-M   'P 1'
_cell_length_a   5.07610900
_cell_length_b   6.34547700
_cell_length_c   10.75497600
_cell_angle_alpha   90.00000000
_cell_angle_beta   90.00000000
_cell_angle_gamma   90.00000000
_symmetry_Int_Tables_number   1
_chemical_formula_structural   LiCoSiO4
_chemical_formula_sum   'Li4 Co4 Si4 O16'
_cell_volume   346.42135739
_cell_formula_units_Z   4
loop_
 _symmetry_equiv_pos_site_id
 _symmetry_equiv_pos_as_xyz
  1  'x, y, z'
loop_
 _atom_site_type_symbol
 _atom_site_label
 _atom_site_symmetry_multiplicity
 _atom_site_fract_x
 _atom_site_fract_y
 _atom_site_fract_z
 _atom_site_occupancy
  Li  Li0  1  0.75956500  0.00739200  0.16780900  1
  Li  Li1  1  0.75956500  0.49260800  0.66780900  1
  Li  Li2  1  0.25956500  0.50739200  0.33219100  1
  Li  Li3  1  0.25956500  0.99260800  0.83219100  1
  Co  Co0  1  0.25941800  0.23550500  0.58669400  1
  Co  Co1  1  0.25941800  0.26449500  0.08669400  1
  Co  Co2  1  0.75941800  0.73550500  0.91330600  1
  Co  Co3  1  0.75941800  0.76449500  0.41330600  1
  Si  Si0  1  0.26314500  0.00931300  0.33219300  1
  Si  Si1  1  0.26314500  0.49068700  0.83219300  1
  Si  Si2  1  0.76314500  0.50931300  0.16780700  1
  Si  Si3  1  0.76314500  0.99068700  0.66780700  1
  O  O0  1  0.15169100  0.04337400  0.18915800  1
  O  O1  1  0.58456000  0.97860200  0.32855800  1
  O  O2  1  0.62578700  0.20649700  0.61225500  1
  O  O3  1  0.20217400  0.22283000  0.41641300  1
  O  O4  1  0.20217400  0.27717000  0.91641300  1
  O  O5  1  0.62578700  0.29350300  0.11225500  1
  O  O6  1  0.58456000  0.52139800  0.82855800  1
  O  O7  1  0.15169100  0.45662600  0.68915800  1
  O  O8  1  0.65169100  0.54337400  0.31084200  1
  O  O9  1  0.08456000  0.47860200  0.17144200  1
  O  O10  1  0.12578700  0.70649700  0.88774500  1
  O  O11  1  0.70217400  0.72283000  0.08358700  1
  O  O12  1  0.70217400  0.77717000  0.58358700  1
  O  O13  1  0.12578700  0.79350300  0.38774500  1
  O  O14  1  0.08456000  0.02139800  0.67144200  1
  O  O15  1  0.65169100  0.95662600  0.81084200  1
loop_
_geom_bond_atom_site_label_1
_geom_bond_atom_site_label_2
_geom_bond_distance
_geom_bond_site_symmetry_2
Li0 O1 1.952296 1_545
Li0 O0 2.016641 1_655
Li0 O5 2.028350 1_555
Li0 O11 2.041039 1_545
Li1 O6 1.952296 1_555
Li1 O7 2.016641 1_655
Li1 O2 2.028350 1_555
Li1 O12 2.041039 1_555
Li2 O9 1.952296 1_555
Li2 O8 2.016641 1_555
Li2 O13 2.028350 1_555
Li2 O3 2.041039 1_555
Li3 O14 1.952296 1_565
Li3 O15 2.016641 1_555
Li3 O10 2.028350 1_555
Li3 O4 2.041039 1_565
Co0 O3 1.856021 1_555
Co0 O14 1.861295 1_555
Co0 O7 1.866057 1_555
Co0 O2 1.888928 1_555
Co1 O4 1.856021 1_554
Co1 O9 1.861295 1_555
Co1 O0 1.866057 1_555
Co1 O5 1.888928 1_555
Co2 O11 1.856021 1_556
Co2 O6 1.861295 1_555
Co2 O15 1.866057 1_555
Co2 O10 1.888928 1_655
Co3 O12 1.856021 1_555
Co3 O1 1.861295 1_555
Co3 O8 1.866057 1_555
Co3 O13 1.888928 1_655
O0 Si0 1.653261 1_555
O1 Si0 1.643600 1_565
O2 Si3 1.648761 1_545
O3 Si0 1.658884 1_555
O4 Si1 1.658884 1_555
O5 Si2 1.648761 1_555
O6 Si1 1.643600 1_555
O7 Si1 1.653261 1_555
O8 Si2 1.653261 1_555
O9 Si2 1.643600 1_455
O10 Si1 1.648761 1_555
O11 Si2 1.658884 1_555
O12 Si3 1.658884 1_555
O13 Si0 1.648761 1_565
O14 Si3 1.643600 1_445
O15 Si3 1.653261 1_555
