# generated using pymatgen
data_Sr2CaI6
_symmetry_space_group_name_H-M   'P 1'
_cell_length_a   16.95954500
_cell_length_b   10.01572300
_cell_length_c   11.27688645
_cell_angle_alpha   57.29231212
_cell_angle_beta   90.00000000
_cell_angle_gamma   90.00000000
_symmetry_Int_Tables_number   1
_chemical_formula_structural   Sr2CaI6
_chemical_formula_sum   'Sr8 Ca4 I24'
_cell_volume   1611.78822067
_cell_formula_units_Z   4
loop_
 _symmetry_equiv_pos_site_id
 _symmetry_equiv_pos_as_xyz
  1  'x, y, z'
loop_
 _atom_site_type_symbol
 _atom_site_label
 _atom_site_symmetry_multiplicity
 _atom_site_fract_x
 _atom_site_fract_y
 _atom_site_fract_z
 _atom_site_occupancy
  Sr  Sr0  1  0.07859200  0.81221300  0.73408000  1
  Sr  Sr1  1  0.57859200  0.18778700  0.76592000  1
  Sr  Sr2  1  0.25397500  0.23575900  0.78070800  1
  Sr  Sr3  1  0.75397500  0.76424100  0.71929200  1
  Sr  Sr4  1  0.24602500  0.23575900  0.28070800  1
  Sr  Sr5  1  0.74602500  0.76424100  0.21929200  1
  Sr  Sr6  1  0.42140800  0.81221300  0.23408000  1
  Sr  Sr7  1  0.92140800  0.18778700  0.26592000  1
  Ca  Ca0  1  0.90634300  0.33187900  0.70554700  1
  Ca  Ca1  1  0.40634300  0.66812100  0.79445300  1
  Ca  Ca2  1  0.59365700  0.33187900  0.20554700  1
  Ca  Ca3  1  0.09365700  0.66812100  0.29445300  1
  I  I0  1  0.08710000  0.40009700  0.62617500  1
  I  I1  1  0.42649000  0.42503900  0.69150900  1
  I  I2  1  0.92030700  0.07481800  0.60940000  1
  I  I3  1  0.72876000  0.45049400  0.66456500  1
  I  I4  1  0.22876000  0.54950600  0.83543500  1
  I  I5  1  0.60183600  0.09084400  0.53409300  1
  I  I6  1  0.92649000  0.57496100  0.80849100  1
  I  I7  1  0.23090700  0.05345500  0.61673200  1
  I  I8  1  0.73090700  0.94654500  0.88326800  1
  I  I9  1  0.41290000  0.40009700  0.12617500  1
  I  I10  1  0.10183600  0.90915600  0.96590700  1
  I  I11  1  0.57969300  0.07481800  0.10940000  1
  I  I12  1  0.42030700  0.92518200  0.89060000  1
  I  I13  1  0.89816400  0.09084400  0.03409300  1
  I  I14  1  0.58710000  0.59990300  0.87382500  1
  I  I15  1  0.26909300  0.05345500  0.11673200  1
  I  I16  1  0.76909300  0.94654500  0.38326800  1
  I  I17  1  0.07351000  0.42503900  0.19150900  1
  I  I18  1  0.39816400  0.90915600  0.46590700  1
  I  I19  1  0.77124000  0.45049400  0.16456500  1
  I  I20  1  0.27124000  0.54950600  0.33543500  1
  I  I21  1  0.07969300  0.92518200  0.39060000  1
  I  I22  1  0.57351000  0.57496100  0.30849100  1
  I  I23  1  0.91290000  0.59990300  0.37382500  1
loop_
_geom_bond_atom_site_label_1
_geom_bond_atom_site_label_2
_geom_bond_distance
_geom_bond_site_symmetry_2
Ca0 I13 3.147692 1_556
Ca0 I0 3.163021 1_655
Ca0 I3 3.178382 1_555
Ca0 I23 3.218656 1_555
Ca0 I6 3.232080 1_555
Ca0 I2 3.298079 1_555
Ca1 I18 3.147692 1_555
Ca1 I14 3.163021 1_555
Ca1 I4 3.178382 1_555
Ca1 I9 3.218656 1_556
Ca1 I1 3.232080 1_555
Ca1 I12 3.298079 1_555
Ca2 I5 3.147692 1_555
Ca2 I9 3.163021 1_555
Ca2 I19 3.178382 1_555
Ca2 I14 3.218656 1_554
Ca2 I22 3.232080 1_555
Ca2 I11 3.298079 1_555
Ca3 I10 3.147692 1_554
Ca3 I23 3.163021 1_455
Ca3 I20 3.178382 1_555
Ca3 I0 3.218656 1_555
Ca3 I17 3.232080 1_555
Ca3 I21 3.298079 1_555
I0 Sr2 3.264322 1_555
I1 Sr1 3.293939 1_555
I1 Sr2 3.332432 1_555
I2 Sr7 3.398142 1_555
I2 Sr0 3.479140 1_645
I2 Sr3 3.873433 1_545
I3 Sr1 3.386088 1_555
I3 Sr3 3.540381 1_555
I4 Sr0 3.386088 1_555
I4 Sr2 3.540381 1_555
I5 Sr1 3.267394 1_555
I5 Sr3 3.786371 1_545
I6 Sr0 3.293939 1_655
I6 Sr3 3.332432 1_555
I7 Sr4 3.206429 1_555
I7 Sr2 3.248869 1_555
I7 Sr0 3.287350 1_545
I8 Sr5 3.206429 1_556
I8 Sr3 3.248869 1_555
I8 Sr1 3.287350 1_565
I9 Sr4 3.264322 1_555
I10 Sr0 3.267394 1_555
I10 Sr2 3.786371 1_565
I11 Sr1 3.398142 1_554
I11 Sr6 3.479140 1_545
I11 Sr5 3.873433 1_545
I12 Sr6 3.398142 1_556
I12 Sr1 3.479140 1_565
I12 Sr2 3.873433 1_565
I13 Sr7 3.267394 1_555
I13 Sr5 3.786371 1_545
I14 Sr3 3.264322 1_555
I15 Sr2 3.206429 1_554
I15 Sr4 3.248869 1_555
I15 Sr6 3.287350 1_545
I16 Sr3 3.206429 1_555
I16 Sr5 3.248869 1_555
I16 Sr7 3.287350 1_565
I17 Sr7 3.293939 1_455
I17 Sr4 3.332432 1_555
I18 Sr6 3.267394 1_555
I18 Sr4 3.786371 1_565
I19 Sr7 3.386088 1_555
I19 Sr5 3.540381 1_555
I20 Sr6 3.386088 1_555
I20 Sr4 3.540381 1_555
I21 Sr0 3.398142 1_555
I21 Sr7 3.479140 1_465
I21 Sr4 3.873433 1_565
I22 Sr6 3.293939 1_555
I22 Sr5 3.332432 1_555
I23 Sr5 3.264322 1_555
