# generated using pymatgen
data_LiSn(PO3)3
_symmetry_space_group_name_H-M   'P 1'
_cell_length_a   5.61287500
_cell_length_b   10.91386400
_cell_length_c   12.66435900
_cell_angle_alpha   90.00000000
_cell_angle_beta   90.00000000
_cell_angle_gamma   90.00000000
_symmetry_Int_Tables_number   1
_chemical_formula_structural   LiSn(PO3)3
_chemical_formula_sum   'Li4 Sn4 P12 O36'
_cell_volume   775.79525899
_cell_formula_units_Z   4
loop_
 _symmetry_equiv_pos_site_id
 _symmetry_equiv_pos_as_xyz
  1  'x, y, z'
loop_
 _atom_site_type_symbol
 _atom_site_label
 _atom_site_symmetry_multiplicity
 _atom_site_fract_x
 _atom_site_fract_y
 _atom_site_fract_z
 _atom_site_occupancy
  Li  Li0  1  0.13229800  0.10464300  0.09730800  1
  Li  Li1  1  0.63229800  0.39535700  0.90269200  1
  Li  Li2  1  0.86770200  0.60464300  0.40269200  1
  Li  Li3  1  0.36770200  0.89535700  0.59730800  1
  Sn  Sn0  1  0.58318300  0.02846900  0.86779800  1
  Sn  Sn1  1  0.08318300  0.47153100  0.13220200  1
  Sn  Sn2  1  0.41681700  0.52846900  0.63220200  1
  Sn  Sn3  1  0.91681700  0.97153100  0.36779800  1
  P  P0  1  0.89476500  0.07165300  0.63118200  1
  P  P1  1  0.39775300  0.15940600  0.35817500  1
  P  P2  1  0.07781000  0.20615400  0.81925300  1
  P  P3  1  0.57781000  0.29384600  0.18074700  1
  P  P4  1  0.89775300  0.34059400  0.64182500  1
  P  P5  1  0.39476500  0.42834700  0.36881800  1
  P  P6  1  0.10523500  0.57165300  0.86881800  1
  P  P7  1  0.60224700  0.65940600  0.14182500  1
  P  P8  1  0.92219000  0.70615400  0.68074700  1
  P  P9  1  0.42219000  0.79384600  0.31925300  1
  P  P10  1  0.10224700  0.84059400  0.85817500  1
  P  P11  1  0.60523500  0.92834700  0.13118200  1
  O  O0  1  0.45515700  0.00793500  0.05979300  1
  O  O1  1  0.64718600  0.03003100  0.65948900  1
  O  O2  1  0.49926200  0.06515700  0.43057200  1
  O  O3  1  0.04970200  0.08996100  0.73911600  1
  O  O4  1  0.16022200  0.13795300  0.30529700  1
  O  O5  1  0.85766000  0.21888700  0.88664500  1
  O  O6  1  0.31580300  0.19404700  0.87244400  1
  O  O7  1  0.59512400  0.18325500  0.26512800  1
  O  O8  1  0.89670100  0.20867100  0.58206300  1
  O  O9  1  0.39670100  0.29132900  0.41793700  1
  O  O10  1  0.09512400  0.31674500  0.73487200  1
  O  O11  1  0.81580300  0.30595300  0.12755600  1
  O  O12  1  0.35766000  0.28111300  0.11335500  1
  O  O13  1  0.66022200  0.36204700  0.69470300  1
  O  O14  1  0.54970200  0.41003900  0.26088400  1
  O  O15  1  0.99926200  0.43484300  0.56942800  1
  O  O16  1  0.14718600  0.46996900  0.34051100  1
  O  O17  1  0.95515700  0.49206500  0.94020700  1
  O  O18  1  0.54484300  0.50793500  0.44020700  1
  O  O19  1  0.35281400  0.53003100  0.84051100  1
  O  O20  1  0.50073800  0.56515700  0.06942800  1
  O  O21  1  0.95029800  0.58996100  0.76088400  1
  O  O22  1  0.83977800  0.63795300  0.19470300  1
  O  O23  1  0.14234000  0.71888700  0.61335500  1
  O  O24  1  0.68419700  0.69404700  0.62755600  1
  O  O25  1  0.40487600  0.68325500  0.23487200  1
  O  O26  1  0.10329900  0.70867100  0.91793700  1
  O  O27  1  0.60329900  0.79132900  0.08206300  1
  O  O28  1  0.90487600  0.81674500  0.76512800  1
  O  O29  1  0.18419700  0.80595300  0.37244400  1
  O  O30  1  0.64234000  0.78111300  0.38664500  1
  O  O31  1  0.33977800  0.86204700  0.80529700  1
  O  O32  1  0.45029800  0.91003900  0.23911600  1
  O  O33  1  0.00073800  0.93484300  0.93057200  1
  O  O34  1  0.85281400  0.96996900  0.15948900  1
  O  O35  1  0.04484300  0.99206500  0.55979300  1
loop_
_geom_bond_atom_site_label_1
_geom_bond_atom_site_label_2
_geom_bond_distance
_geom_bond_site_symmetry_2
Li0 O0 2.150271 1_555
Li0 O34 2.289395 1_445
Li0 O12 2.313159 1_555
Li1 O17 2.150271 1_555
Li1 O19 2.289395 1_555
Li1 O5 2.313159 1_555
Li2 O18 2.150271 1_555
Li2 O16 2.289395 1_655
Li2 O30 2.313159 1_555
Li3 O35 2.150271 1_555
Li3 O1 2.289395 1_565
Li3 O23 2.313159 1_555
O0 P11 1.510451 1_545
O0 Sn0 2.545341 1_554
O1 P0 1.505303 1_555
O1 Sn0 2.662502 1_555
O2 P1 1.491080 1_555
O2 Sn3 2.677496 1_545
O3 P2 1.631868 1_555
O3 P0 1.632378 1_455
O4 P1 1.510225 1_555
O4 Sn3 2.406659 1_445
O5 P2 1.508186 1_655
O5 Sn0 2.597948 1_555
O6 P2 1.501887 1_555
O6 Sn0 2.349759 1_555
O7 P3 1.614994 1_555
O7 P1 1.638167 1_555
O8 P0 1.619656 1_555
O8 P4 1.626606 1_555
O9 P5 1.619656 1_555
O9 P1 1.626606 1_555
O10 P2 1.614994 1_555
O10 P4 1.638167 1_455
O11 P3 1.501887 1_555
O11 Sn1 2.349759 1_655
O12 P3 1.508186 1_555
O12 Sn1 2.597948 1_555
O13 P4 1.510225 1_555
O13 Sn2 2.406659 1_555
O14 P3 1.631868 1_555
O14 P5 1.632378 1_555
O15 P4 1.491080 1_555
O15 Sn2 2.677496 1_655
O16 P5 1.505303 1_555
O16 Sn1 2.662502 1_555
O17 P6 1.510451 1_655
O17 Sn1 2.545341 1_656
O18 P5 1.510451 1_555
O18 Sn2 2.545341 1_555
O19 P6 1.505303 1_555
O19 Sn2 2.662502 1_555
O20 P7 1.491080 1_555
O20 Sn1 2.677496 1_555
O21 P8 1.631868 1_555
O21 P6 1.632378 1_655
O22 P7 1.510225 1_555
O22 Sn1 2.406659 1_655
O23 P8 1.508186 1_455
O23 Sn2 2.597948 1_555
O24 P8 1.501887 1_555
O24 Sn2 2.349759 1_555
O25 P9 1.614994 1_555
O25 P7 1.638167 1_555
O26 P6 1.619656 1_555
O26 P10 1.626606 1_555
O27 P11 1.619656 1_555
O27 P7 1.626606 1_555
O28 P8 1.614994 1_555
O28 P10 1.638167 1_655
O29 P9 1.501887 1_555
O29 Sn3 2.349759 1_455
O30 P9 1.508186 1_555
O30 Sn3 2.597948 1_555
O31 P10 1.510225 1_555
O31 Sn0 2.406659 1_565
O32 P9 1.631868 1_555
O32 P11 1.632378 1_555
O33 P10 1.491080 1_555
O33 Sn0 2.677496 1_465
O34 P11 1.505303 1_555
O34 Sn3 2.662502 1_555
O35 P0 1.510451 1_465
O35 Sn3 2.545341 1_455
