# generated using pymatgen
data_V3O5F
_symmetry_space_group_name_H-M   'P 1'
_cell_length_a   4.57547700
_cell_length_b   4.57186700
_cell_length_c   10.31604789
_cell_angle_alpha   63.74205026
_cell_angle_beta   90.00000000
_cell_angle_gamma   90.00000000
_symmetry_Int_Tables_number   1
_chemical_formula_structural   V3O5F
_chemical_formula_sum   'V6 O10 F2'
_cell_volume   193.52827154
_cell_formula_units_Z   2
loop_
 _symmetry_equiv_pos_site_id
 _symmetry_equiv_pos_as_xyz
  1  'x, y, z'
loop_
 _atom_site_type_symbol
 _atom_site_label
 _atom_site_symmetry_multiplicity
 _atom_site_fract_x
 _atom_site_fract_y
 _atom_site_fract_z
 _atom_site_occupancy
  V  V0  1  0.24973400  0.98436000  0.00722200  1
  V  V1  1  0.21766100  0.69543600  0.33288400  1
  V  V2  1  0.24859800  0.33733500  0.65304600  1
  V  V3  1  0.75140200  0.33733500  0.15304600  1
  V  V4  1  0.78233900  0.69543600  0.83288400  1
  V  V5  1  0.75026600  0.98436000  0.50722200  1
  O  O0  1  0.04330900  0.61627700  0.17394700  1
  O  O1  1  0.05415300  0.30659500  0.49741200  1
  O  O2  1  0.05562700  0.97003100  0.83170800  1
  O  O3  1  0.94584700  0.30659500  0.99741200  1
  O  O4  1  0.94437300  0.97003100  0.33170800  1
  O  O5  1  0.95669100  0.61627700  0.67394700  1
  O  O6  1  0.55932500  0.69242800  0.99691900  1
  O  O7  1  0.54501700  0.02908600  0.67416400  1
  O  O8  1  0.45498300  0.02908600  0.17416400  1
  O  O9  1  0.44067500  0.69242800  0.49691900  1
  F  F0  1  0.54555100  0.36780900  0.33313600  1
  F  F1  1  0.45444900  0.36780900  0.83313600  1
loop_
_geom_bond_atom_site_label_1
_geom_bond_atom_site_label_2
_geom_bond_distance
_geom_bond_site_symmetry_2
O0 V3 1.923541 1_455
O0 V1 1.995169 1_555
O0 V0 2.030065 1_555
O1 V2 1.894373 1_555
O1 V1 1.982671 1_555
O1 V5 1.995489 1_445
O2 V4 1.768131 1_455
O2 V0 2.043608 1_556
O2 V2 2.063469 1_565
O3 V3 1.894373 1_556
O3 V4 1.982671 1_555
O3 V0 1.995489 1_646
O4 V1 1.768131 1_655
O4 V5 2.043608 1_555
O4 V3 2.063469 1_565
O5 V2 1.923541 1_655
O5 V4 1.995169 1_555
O5 V5 2.030065 1_555
O6 V3 1.920524 1_556
O6 V4 1.970868 1_555
O6 V0 1.981090 1_556
O7 V2 1.897707 1_555
O7 V4 1.994225 1_545
O7 V5 2.049695 1_545
O8 V3 1.897707 1_555
O8 V1 1.994225 1_545
O8 V0 2.049695 1_545
O9 V2 1.920524 1_555
O9 V1 1.970868 1_555
O9 V5 1.981090 1_555
F0 V5 2.095257 1_545
F0 V1 2.119181 1_555
F0 V3 2.141736 1_555
F1 V0 2.095257 1_546
F1 V4 2.119181 1_555
F1 V2 2.141736 1_555
