# generated using pymatgen
data_Sm2V2O7
_symmetry_space_group_name_H-M   'P 1'
_cell_length_a   6.93485300
_cell_length_b   7.01158189
_cell_length_c   12.61928770
_cell_angle_alpha   99.70061124
_cell_angle_beta   100.55612106
_cell_angle_gamma   92.11618773
_symmetry_Int_Tables_number   1
_chemical_formula_structural   Sm2V2O7
_chemical_formula_sum   'Sm8 V8 O28'
_cell_volume   593.13722498
_cell_formula_units_Z   4
loop_
 _symmetry_equiv_pos_site_id
 _symmetry_equiv_pos_as_xyz
  1  'x, y, z'
loop_
 _atom_site_type_symbol
 _atom_site_label
 _atom_site_symmetry_multiplicity
 _atom_site_fract_x
 _atom_site_fract_y
 _atom_site_fract_z
 _atom_site_occupancy
  Sm  Sm0  1  0.17353700  0.97438800  0.13942800  1
  Sm  Sm1  1  0.78066400  0.71701200  0.36102900  1
  Sm  Sm2  1  0.26050700  0.71900500  0.87298600  1
  Sm  Sm3  1  0.66434100  0.61724300  0.63137300  1
  Sm  Sm4  1  0.33565900  0.38275700  0.36862700  1
  Sm  Sm5  1  0.73949300  0.28099500  0.12701400  1
  Sm  Sm6  1  0.21933600  0.28298800  0.63897100  1
  Sm  Sm7  1  0.82646300  0.02561200  0.86057200  1
  V  V0  1  0.68659700  0.82141800  0.10442500  1
  V  V1  1  0.31828900  0.83420400  0.39457400  1
  V  V2  1  0.15220700  0.80689400  0.61921700  1
  V  V3  1  0.73555800  0.50996900  0.87804200  1
  V  V4  1  0.26444200  0.49003100  0.12195800  1
  V  V5  1  0.84779300  0.19310600  0.38078300  1
  V  V6  1  0.68171100  0.16579600  0.60542600  1
  V  V7  1  0.31340300  0.17858200  0.89557500  1
  O  O0  1  0.50443700  0.98891200  0.12229200  1
  O  O1  1  0.67700600  0.96347200  0.67470200  1
  O  O2  1  0.15180700  0.01990000  0.95325500  1
  O  O3  1  0.25612100  0.96277200  0.53589600  1
  O  O4  1  0.13631700  0.99523100  0.73832000  1
  O  O5  1  0.77993000  0.62336600  0.16844100  1
  O  O6  1  0.11472800  0.65843600  0.36676600  1
  O  O7  1  0.51272700  0.67872700  0.45833700  1
  O  O8  1  0.17068100  0.66455700  0.03919700  1
  O  O9  1  0.91643500  0.70208300  0.54758500  1
  O  O10  1  0.86908400  0.68690400  0.81881200  1
  O  O11  1  0.57915900  0.66196800  0.95728900  1
  O  O12  1  0.31030900  0.63577500  0.68236600  1
  O  O13  1  0.40244600  0.64213500  0.24712300  1
  O  O14  1  0.59755400  0.35786500  0.75287700  1
  O  O15  1  0.68969100  0.36422500  0.31763400  1
  O  O16  1  0.42084100  0.33803200  0.04271100  1
  O  O17  1  0.13091600  0.31309600  0.18118800  1
  O  O18  1  0.08356500  0.29791700  0.45241500  1
  O  O19  1  0.82931900  0.33544300  0.96080300  1
  O  O20  1  0.48727300  0.32127300  0.54166300  1
  O  O21  1  0.88527200  0.34156400  0.63323400  1
  O  O22  1  0.22007000  0.37663400  0.83155900  1
  O  O23  1  0.86368300  0.00476900  0.26168000  1
  O  O24  1  0.74387900  0.03722800  0.46410400  1
  O  O25  1  0.84819300  0.98010000  0.04674500  1
  O  O26  1  0.32299400  0.03652800  0.32529800  1
  O  O27  1  0.49556300  0.01108800  0.87770800  1
loop_
_geom_bond_atom_site_label_1
_geom_bond_atom_site_label_2
_geom_bond_distance
_geom_bond_site_symmetry_2
O0 V0 1.774977 1_555
O0 Sm0 2.344132 1_555
O0 Sm5 2.555700 1_565
O1 V6 1.789621 1_565
O1 Sm7 2.344609 1_565
O1 Sm3 2.391510 1_555
O2 V7 1.871701 1_555
O2 Sm7 2.348540 1_455
O2 Sm2 2.392147 1_545
O2 Sm0 2.402201 1_546
O3 V2 1.850980 1_555
O3 V1 1.986855 1_555
O3 Sm6 2.444931 1_565
O4 V2 1.848656 1_555
O4 V7 2.286838 1_565
O4 Sm6 2.646738 1_565
O4 Sm2 2.841988 1_555
O4 Sm7 2.860136 1_465
O5 V0 1.803539 1_555
O5 Sm5 2.363955 1_555
O5 Sm1 2.407297 1_555
O6 V1 1.782989 1_555
O6 Sm1 2.357921 1_455
O6 Sm4 2.510989 1_555
O7 V1 1.913287 1_555
O7 Sm3 2.359854 1_555
O7 Sm4 2.367851 1_555
O7 Sm1 2.437773 1_555
O8 V4 1.803224 1_555
O8 Sm0 2.319745 1_555
O8 Sm2 2.379949 1_554
O9 V2 1.782249 1_655
O9 Sm3 2.310975 1_555
O9 Sm1 2.391217 1_555
O10 V3 1.853760 1_555
O10 Sm7 2.385848 1_565
O10 Sm3 2.485629 1_555
O10 Sm2 2.666349 1_655
O11 V3 1.853614 1_555
O11 V0 1.996150 1_556
O11 Sm2 2.349941 1_555
O12 V2 1.837378 1_555
O12 Sm2 2.468283 1_555
O12 Sm6 2.473508 1_555
O12 Sm3 2.651986 1_555
O13 V4 1.830629 1_555
O13 V1 2.286481 1_555
O13 Sm4 2.647776 1_555
O13 Sm1 2.735676 1_555
O14 V3 1.830629 1_555
O14 V6 2.286481 1_555
O14 Sm3 2.647776 1_555
O14 Sm6 2.735676 1_555
O15 V5 1.837378 1_555
O15 Sm5 2.468283 1_555
O15 Sm1 2.473508 1_555
O15 Sm4 2.651986 1_555
O16 V4 1.853614 1_555
O16 V7 1.996150 1_554
O16 Sm5 2.349941 1_555
O17 V4 1.853760 1_555
O17 Sm0 2.385848 1_545
O17 Sm4 2.485629 1_555
O17 Sm5 2.666349 1_455
O18 V5 1.782249 1_455
O18 Sm4 2.310975 1_555
O18 Sm6 2.391217 1_555
O19 V3 1.803224 1_555
O19 Sm7 2.319745 1_555
O19 Sm5 2.379949 1_556
O20 V6 1.913287 1_555
O20 Sm4 2.359854 1_555
O20 Sm3 2.367851 1_555
O20 Sm6 2.437773 1_555
O21 V6 1.782989 1_555
O21 Sm6 2.357921 1_655
O21 Sm3 2.510989 1_555
O22 V7 1.803539 1_555
O22 Sm2 2.363955 1_555
O22 Sm6 2.407297 1_555
O23 V5 1.848656 1_555
O23 V0 2.286838 1_545
O23 Sm1 2.646738 1_545
O23 Sm5 2.841988 1_555
O23 Sm0 2.860136 1_645
O24 V5 1.850980 1_555
O24 V6 1.986855 1_555
O24 Sm1 2.444931 1_545
O25 V0 1.871701 1_555
O25 Sm0 2.348540 1_655
O25 Sm5 2.392147 1_565
O25 Sm7 2.402201 1_564
O26 V1 1.789621 1_545
O26 Sm0 2.344609 1_545
O26 Sm4 2.391510 1_555
O27 V7 1.774977 1_555
O27 Sm7 2.344132 1_555
O27 Sm2 2.555700 1_545
