# generated using pymatgen
data_Ni(Pt3O4)4
_symmetry_space_group_name_H-M   'P 1'
_cell_length_a   8.02621634
_cell_length_b   8.02621634
_cell_length_c   8.02621634
_cell_angle_alpha   60.00000000
_cell_angle_beta   60.00000000
_cell_angle_gamma   60.00000000
_symmetry_Int_Tables_number   1
_chemical_formula_structural   Ni(Pt3O4)4
_chemical_formula_sum   'Ni1 Pt12 O16'
_cell_volume   365.60959661
_cell_formula_units_Z   1
loop_
 _symmetry_equiv_pos_site_id
 _symmetry_equiv_pos_as_xyz
  1  'x, y, z'
loop_
 _atom_site_type_symbol
 _atom_site_label
 _atom_site_symmetry_multiplicity
 _atom_site_fract_x
 _atom_site_fract_y
 _atom_site_fract_z
 _atom_site_occupancy
  Ni  Ni0  1  0.00000000  0.00000000  0.00000000  1
  Pt  Pt0  1  0.37576000  0.87295200  0.12704800  1
  Pt  Pt1  1  0.62424000  0.12704800  0.87295200  1
  Pt  Pt2  1  0.62424000  0.87295200  0.37576000  1
  Pt  Pt3  1  0.12704800  0.87295200  0.62424000  1
  Pt  Pt4  1  0.62424000  0.37576000  0.12704800  1
  Pt  Pt5  1  0.37576000  0.12704800  0.62424000  1
  Pt  Pt6  1  0.87295200  0.37576000  0.62424000  1
  Pt  Pt7  1  0.12704800  0.62424000  0.37576000  1
  Pt  Pt8  1  0.12704800  0.37576000  0.87295200  1
  Pt  Pt9  1  0.37576000  0.62424000  0.87295200  1
  Pt  Pt10  1  0.87295200  0.12704800  0.37576000  1
  Pt  Pt11  1  0.87295200  0.62424000  0.12704800  1
  O  O0  1  0.65902500  0.11365800  0.11365800  1
  O  O1  1  0.37198100  0.88405800  0.37198100  1
  O  O2  1  0.11365800  0.11365800  0.65902500  1
  O  O3  1  0.88634200  0.88634200  0.88634200  1
  O  O4  1  0.62801900  0.62801900  0.11594200  1
  O  O5  1  0.37198100  0.37198100  0.37198100  1
  O  O6  1  0.62801900  0.11594200  0.62801900  1
  O  O7  1  0.34097500  0.88634200  0.88634200  1
  O  O8  1  0.37198100  0.37198100  0.88405800  1
  O  O9  1  0.11594200  0.62801900  0.62801900  1
  O  O10  1  0.62801900  0.62801900  0.62801900  1
  O  O11  1  0.88634200  0.34097500  0.88634200  1
  O  O12  1  0.11365800  0.11365800  0.11365800  1
  O  O13  1  0.88634200  0.88634200  0.34097500  1
  O  O14  1  0.88405800  0.37198100  0.37198100  1
  O  O15  1  0.11365800  0.65902500  0.11365800  1
loop_
_geom_bond_atom_site_label_1
_geom_bond_atom_site_label_2
_geom_bond_distance
_geom_bond_site_symmetry_2
Ni0 O12 2.234532 1_555
Ni0 O3 2.234532 1_444
Ni0 O2 2.234538 1_554
Ni0 O15 2.234538 1_545
Ni0 O13 2.234538 1_445
Ni0 O11 2.234538 1_454
Ni0 O7 2.234538 1_544
Ni0 O0 2.234538 1_455
O0 Pt1 2.030693 1_554
O0 Pt2 2.030697 1_545
O0 Pt4 2.030701 1_555
O1 Pt2 1.996608 1_555
O1 Pt3 1.996612 1_555
O1 Pt0 1.996616 1_555
O2 Pt3 2.030693 1_545
O2 Pt6 2.030697 1_455
O2 Pt5 2.030701 1_555
O3 Pt3 2.030698 1_655
O3 Pt1 2.030698 1_565
O3 Pt11 2.030698 1_556
O4 Pt4 1.996608 1_555
O4 Pt0 1.996612 1_555
O4 Pt11 1.996616 1_555
O5 Pt7 1.996612 1_555
O5 Pt5 1.996612 1_555
O5 Pt4 1.996612 1_555
O6 Pt5 1.996608 1_555
O6 Pt10 1.996612 1_555
O6 Pt1 1.996616 1_555
O7 Pt0 2.030693 1_556
O7 Pt5 2.030697 1_565
O7 Pt9 2.030701 1_555
O8 Pt9 1.996608 1_555
O8 Pt1 1.996612 1_555
O8 Pt8 1.996616 1_555
O9 Pt7 1.996608 1_555
O9 Pt8 1.996612 1_555
O9 Pt3 1.996616 1_555
O10 Pt2 1.996612 1_555
O10 Pt9 1.996612 1_555
O10 Pt6 1.996612 1_555
O11 Pt8 2.030693 1_655
O11 Pt4 2.030697 1_556
O11 Pt6 2.030701 1_555
O12 Pt0 2.030698 1_545
O12 Pt10 2.030698 1_455
O12 Pt8 2.030698 1_554
O13 Pt10 2.030693 1_565
O13 Pt7 2.030697 1_655
O13 Pt2 2.030701 1_555
O14 Pt6 1.996608 1_555
O14 Pt11 1.996612 1_555
O14 Pt10 1.996616 1_555
O15 Pt11 2.030693 1_455
O15 Pt9 2.030697 1_554
O15 Pt7 2.030701 1_555
