# generated using pymatgen
data_Tb2Ti2O7
_symmetry_space_group_name_H-M   'P 1'
_cell_length_a   7.01342000
_cell_length_b   7.01342000
_cell_length_c   12.73197400
_cell_angle_alpha   90.00000000
_cell_angle_beta   90.00000000
_cell_angle_gamma   90.00000000
_symmetry_Int_Tables_number   1
_chemical_formula_structural   Tb2Ti2O7
_chemical_formula_sum   'Tb8 Ti8 O28'
_cell_volume   626.26110226
_cell_formula_units_Z   4
loop_
 _symmetry_equiv_pos_site_id
 _symmetry_equiv_pos_as_xyz
  1  'x, y, z'
loop_
 _atom_site_type_symbol
 _atom_site_label
 _atom_site_symmetry_multiplicity
 _atom_site_fract_x
 _atom_site_fract_y
 _atom_site_fract_z
 _atom_site_occupancy
  Tb  Tb0  1  0.63017200  0.14000200  0.13567500  1
  Tb  Tb1  1  0.64000200  0.86982800  0.88567500  1
  Tb  Tb2  1  0.85999800  0.36982800  0.36432500  1
  Tb  Tb3  1  0.86982800  0.64000200  0.11432500  1
  Tb  Tb4  1  0.13017200  0.35999800  0.61432500  1
  Tb  Tb5  1  0.14000200  0.63017200  0.86432500  1
  Tb  Tb6  1  0.35999800  0.13017200  0.38567500  1
  Tb  Tb7  1  0.36982800  0.85999800  0.63567500  1
  Ti  Ti0  1  0.60025800  0.35183800  0.61294500  1
  Ti  Ti1  1  0.64816200  0.39974200  0.88705500  1
  Ti  Ti2  1  0.85183800  0.89974200  0.36294500  1
  Ti  Ti3  1  0.89974200  0.85183800  0.63705500  1
  Ti  Ti4  1  0.10025800  0.14816200  0.13705500  1
  Ti  Ti5  1  0.14816200  0.10025800  0.86294500  1
  Ti  Ti6  1  0.35183800  0.60025800  0.38705500  1
  Ti  Ti7  1  0.39974200  0.64816200  0.11294500  1
  O  O0  1  0.54248200  0.42525500  0.38729900  1
  O  O1  1  0.57362000  0.83394800  0.07115100  1
  O  O2  1  0.57474500  0.45751800  0.11270100  1
  O  O3  1  0.63714200  0.16995700  0.95694200  1
  O  O4  1  0.66605200  0.07362000  0.32115100  1
  O  O5  1  0.66995700  0.86285800  0.70694200  1
  O  O6  1  0.67818800  0.32181200  0.75000000  1
  O  O7  1  0.82181200  0.82181200  0.50000000  1
  O  O8  1  0.83004300  0.36285800  0.54305800  1
  O  O9  1  0.83394800  0.57362000  0.92884900  1
  O  O10  1  0.86285800  0.66995700  0.29305800  1
  O  O11  1  0.92525500  0.95751800  0.13729900  1
  O  O12  1  0.92638000  0.33394800  0.17884900  1
  O  O13  1  0.95751800  0.92525500  0.86270100  1
  O  O14  1  0.04248200  0.07474500  0.36270100  1
  O  O15  1  0.07362000  0.66605200  0.67884900  1
  O  O16  1  0.07474500  0.04248200  0.63729900  1
  O  O17  1  0.13714200  0.33004300  0.79305800  1
  O  O18  1  0.16605200  0.42638000  0.42884900  1
  O  O19  1  0.16995700  0.63714200  0.04305800  1
  O  O20  1  0.17818800  0.17818800  0.00000000  1
  O  O21  1  0.32181200  0.67818800  0.25000000  1
  O  O22  1  0.33004300  0.13714200  0.20694200  1
  O  O23  1  0.33394800  0.92638000  0.82115100  1
  O  O24  1  0.36285800  0.83004300  0.45694200  1
  O  O25  1  0.42525500  0.54248200  0.61270100  1
  O  O26  1  0.42638000  0.16605200  0.57115100  1
  O  O27  1  0.45751800  0.57474500  0.88729900  1
loop_
_geom_bond_atom_site_label_1
_geom_bond_atom_site_label_2
_geom_bond_distance
_geom_bond_site_symmetry_2
O0 Ti6 1.814991 1_555
O0 Tb2 2.279394 1_555
O0 Tb6 2.433395 1_555
O1 Ti7 1.862278 1_555
O1 Tb0 2.332295 1_565
O1 Tb1 2.420050 1_554
O1 Tb3 2.543244 1_555
O2 Ti7 1.814991 1_555
O2 Tb0 2.279394 1_555
O2 Tb3 2.433395 1_555
O3 Ti1 1.842526 1_555
O3 Tb0 2.285824 1_556
O3 Tb1 2.292260 1_545
O4 Ti2 1.862278 1_545
O4 Tb6 2.332295 1_555
O4 Tb0 2.420050 1_555
O4 Tb2 2.543244 1_555
O5 Ti3 1.842526 1_555
O5 Tb1 2.285824 1_555
O5 Tb7 2.292260 1_555
O6 Ti1 1.840659 1_555
O6 Ti0 1.840659 1_555
O7 Ti3 1.840659 1_555
O7 Ti2 1.840659 1_555
O8 Ti0 1.842526 1_555
O8 Tb2 2.285824 1_555
O8 Tb4 2.292260 1_655
O9 Ti1 1.862278 1_555
O9 Tb5 2.332295 1_655
O9 Tb3 2.420050 1_556
O9 Tb1 2.543244 1_555
O10 Ti2 1.842526 1_555
O10 Tb3 2.285824 1_555
O10 Tb2 2.292260 1_555
O11 Ti4 1.814991 1_665
O11 Tb3 2.279394 1_555
O11 Tb0 2.433395 1_565
O12 Ti4 1.862278 1_655
O12 Tb3 2.332295 1_555
O12 Tb2 2.420050 1_555
O12 Tb0 2.543244 1_555
O13 Ti5 1.814991 1_665
O13 Tb1 2.279394 1_555
O13 Tb5 2.433395 1_655
O14 Ti2 1.814991 1_445
O14 Tb6 2.279394 1_555
O14 Tb2 2.433395 1_455
O15 Ti3 1.862278 1_455
O15 Tb4 2.332295 1_555
O15 Tb5 2.420050 1_555
O15 Tb7 2.543244 1_555
O16 Ti3 1.814991 1_445
O16 Tb4 2.279394 1_555
O16 Tb7 2.433395 1_545
O17 Ti5 1.842526 1_555
O17 Tb4 2.285824 1_555
O17 Tb5 2.292260 1_555
O18 Ti6 1.862278 1_555
O18 Tb2 2.332295 1_455
O18 Tb4 2.420050 1_555
O18 Tb6 2.543244 1_555
O19 Ti7 1.842526 1_555
O19 Tb5 2.285824 1_554
O19 Tb3 2.292260 1_455
O20 Ti4 1.840659 1_555
O20 Ti5 1.840659 1_554
O21 Ti6 1.840659 1_555
O21 Ti7 1.840659 1_555
O22 Ti4 1.842526 1_555
O22 Tb6 2.285824 1_555
O22 Tb0 2.292260 1_555
O23 Ti5 1.862278 1_565
O23 Tb1 2.332295 1_555
O23 Tb7 2.420050 1_555
O23 Tb5 2.543244 1_555
O24 Ti6 1.842526 1_555
O24 Tb7 2.285824 1_555
O24 Tb6 2.292260 1_565
O25 Ti0 1.814991 1_555
O25 Tb7 2.279394 1_555
O25 Tb4 2.433395 1_555
O26 Ti0 1.862278 1_555
O26 Tb7 2.332295 1_545
O26 Tb6 2.420050 1_555
O26 Tb4 2.543244 1_555
O27 Ti1 1.814991 1_555
O27 Tb5 2.279394 1_555
O27 Tb1 2.433395 1_555
