# generated using pymatgen
data_Li2Fe3TeO8
_symmetry_space_group_name_H-M   'P 1'
_cell_length_a   6.02798513
_cell_length_b   6.02798513
_cell_length_c   9.88862400
_cell_angle_alpha   90.00000000
_cell_angle_beta   90.00000000
_cell_angle_gamma   119.99999040
_symmetry_Int_Tables_number   1
_chemical_formula_structural   Li2Fe3TeO8
_chemical_formula_sum   'Li4 Fe6 Te2 O16'
_cell_volume   311.17943040
_cell_formula_units_Z   2
loop_
 _symmetry_equiv_pos_site_id
 _symmetry_equiv_pos_as_xyz
  1  'x, y, z'
loop_
 _atom_site_type_symbol
 _atom_site_label
 _atom_site_symmetry_multiplicity
 _atom_site_fract_x
 _atom_site_fract_y
 _atom_site_fract_z
 _atom_site_occupancy
  Li  Li0  1  0.33333300  0.66666700  0.90839200  1
  Li  Li1  1  0.00000000  0.00000000  0.98793600  1
  Li  Li2  1  0.00000000  0.00000000  0.48793600  1
  Li  Li3  1  0.66666700  0.33333300  0.40839200  1
  Fe  Fe0  1  0.16925400  0.83074600  0.21296100  1
  Fe  Fe1  1  0.16925400  0.33850800  0.21296100  1
  Fe  Fe2  1  0.66149200  0.83074600  0.21296100  1
  Fe  Fe3  1  0.33850800  0.16925400  0.71296100  1
  Fe  Fe4  1  0.83074600  0.66149200  0.71296100  1
  Fe  Fe5  1  0.83074600  0.16925400  0.71296100  1
  Te  Te0  1  0.33333300  0.66666700  0.48484000  1
  Te  Te1  1  0.66666700  0.33333300  0.98484000  1
  O  O0  1  0.16402400  0.83597600  0.59522300  1
  O  O1  1  0.03587500  0.51793700  0.34512100  1
  O  O2  1  0.33333300  0.66666700  0.10920200  1
  O  O3  1  0.00000000  0.00000000  0.30337600  1
  O  O4  1  0.00000000  0.00000000  0.80337600  1
  O  O5  1  0.16402400  0.32804800  0.59522300  1
  O  O6  1  0.48206300  0.96412500  0.34512100  1
  O  O7  1  0.48206300  0.51793700  0.34512100  1
  O  O8  1  0.32804800  0.16402400  0.09522300  1
  O  O9  1  0.67195200  0.83597600  0.59522300  1
  O  O10  1  0.51793700  0.48206300  0.84512100  1
  O  O11  1  0.51793700  0.03587500  0.84512100  1
  O  O12  1  0.66666700  0.33333300  0.60920200  1
  O  O13  1  0.83597600  0.67195200  0.09522300  1
  O  O14  1  0.96412500  0.48206300  0.84512100  1
  O  O15  1  0.83597600  0.16402400  0.09522300  1
loop_
_geom_bond_atom_site_label_1
_geom_bond_atom_site_label_2
_geom_bond_distance
_geom_bond_site_symmetry_2
Li0 O2 1.985735 1_556
Li0 O10 2.026416 1_555
Li0 O14 2.026416 1_455
Li0 O11 2.026416 1_565
Li1 O4 1.825044 1_555
Li1 O15 2.014532 1_456
Li1 O8 2.014532 1_556
Li1 O13 2.014532 1_446
Li2 O3 1.825044 1_555
Li2 O0 2.014532 1_545
Li2 O5 2.014532 1_555
Li2 O9 2.014532 1_445
Li3 O12 1.985735 1_555
Li3 O7 2.026416 1_555
Li3 O6 2.026416 1_545
Li3 O1 2.026416 1_655
Fe0 O3 1.980448 1_565
Fe0 O2 1.996872 1_555
Fe0 O8 2.093991 1_565
Fe0 O13 2.093991 1_455
Fe0 O6 2.096149 1_555
Fe0 O1 2.096149 1_555
Fe1 O3 1.980448 1_555
Fe1 O2 1.996877 1_555
Fe1 O8 2.093991 1_555
Fe1 O15 2.093991 1_455
Fe1 O1 2.096144 1_555
Fe1 O7 2.096149 1_555
Fe2 O3 1.980448 1_665
Fe2 O2 1.996877 1_555
Fe2 O13 2.093991 1_555
Fe2 O15 2.093991 1_565
Fe2 O6 2.096144 1_555
Fe2 O7 2.096149 1_555
Fe3 O4 1.980448 1_555
Fe3 O12 1.996877 1_555
Fe3 O5 2.093991 1_555
Fe3 O0 2.093991 1_545
Fe3 O11 2.096144 1_555
Fe3 O10 2.096149 1_555
Fe4 O4 1.980448 1_665
Fe4 O12 1.996877 1_555
Fe4 O9 2.093991 1_555
Fe4 O0 2.093991 1_655
Fe4 O14 2.096144 1_555
Fe4 O10 2.096149 1_555
Fe5 O4 1.980448 1_655
Fe5 O12 1.996872 1_555
Fe5 O5 2.093991 1_655
Fe5 O9 2.093991 1_545
Fe5 O14 2.096149 1_555
Fe5 O11 2.096149 1_555
O0 Te0 2.077565 1_555
O1 Te0 2.078516 1_555
O5 Te0 2.077569 1_555
O6 Te0 2.078516 1_555
O7 Te0 2.078524 1_555
O8 Te1 2.077569 1_554
O9 Te0 2.077569 1_555
O10 Te1 2.078524 1_555
O11 Te1 2.078516 1_555
O13 Te1 2.077569 1_554
O14 Te1 2.078516 1_555
O15 Te1 2.077565 1_554
