# generated using pymatgen
data_Na4Co2C4SO16
_symmetry_space_group_name_H-M   'P 1'
_cell_length_a   9.95457645
_cell_length_b   9.92532434
_cell_length_c   9.89686639
_cell_angle_alpha   60.29025849
_cell_angle_beta   59.99651458
_cell_angle_gamma   59.71322693
_symmetry_Int_Tables_number   1
_chemical_formula_structural   Na4Co2C4SO16
_chemical_formula_sum   'Na8 Co4 C8 S2 O32'
_cell_volume   691.39808633
_cell_formula_units_Z   2
loop_
 _symmetry_equiv_pos_site_id
 _symmetry_equiv_pos_as_xyz
  1  'x, y, z'
loop_
 _atom_site_type_symbol
 _atom_site_label
 _atom_site_symmetry_multiplicity
 _atom_site_fract_x
 _atom_site_fract_y
 _atom_site_fract_z
 _atom_site_occupancy
  Na  Na0  1  0.96492100  0.53507900  0.96492100  1
  Na  Na1  1  0.53499600  0.53499600  0.96500400  1
  Na  Na2  1  0.53507200  0.96492800  0.96492800  1
  Na  Na3  1  0.96492800  0.53507200  0.53507200  1
  Na  Na4  1  0.78619600  0.21380400  0.21380400  1
  Na  Na5  1  0.96500400  0.96500400  0.53499600  1
  Na  Na6  1  0.53507900  0.96492100  0.53507900  1
  Na  Na7  1  0.21380400  0.78619600  0.78619600  1
  Co  Co0  1  0.37028900  0.37819300  0.37745000  1
  Co  Co1  1  0.87406700  0.37745000  0.37819300  1
  Co  Co2  1  0.37745000  0.87406700  0.37028900  1
  Co  Co3  1  0.37819300  0.37028900  0.87406700  1
  C  C0  1  0.15992500  0.51796900  0.16112200  1
  C  C1  1  0.59132100  0.58744400  0.22901600  1
  C  C2  1  0.58744400  0.59132100  0.59221900  1
  C  C3  1  0.22901600  0.59221900  0.59132100  1
  C  C4  1  0.51796900  0.15992500  0.16098400  1
  C  C5  1  0.16112200  0.16098400  0.15992500  1
  C  C6  1  0.16098400  0.16112200  0.51796900  1
  C  C7  1  0.59221900  0.22901600  0.58744400  1
  S  S0  1  0.00000000  0.00000000  0.00000000  1
  S  S1  1  0.75000000  0.75000000  0.75000000  1
  O  O0  1  0.27155100  0.52980400  0.01447900  1
  O  O1  1  0.73790900  0.47524200  0.22581100  1
  O  O2  1  0.01993900  0.51688300  0.18763200  1
  O  O3  1  0.48374500  0.55381200  0.22557800  1
  O  O4  1  0.18903500  0.51329300  0.27754600  1
  O  O5  1  0.18411900  0.93732200  0.93756400  1
  O  O6  1  0.94099400  0.93756400  0.93732200  1
  O  O7  1  0.56098900  0.73149900  0.22518200  1
  O  O8  1  0.73149900  0.56098900  0.48233000  1
  O  O9  1  0.22518200  0.48233000  0.56098900  1
  O  O10  1  0.93732200  0.18411900  0.94099400  1
  O  O11  1  0.93756400  0.94099400  0.18411900  1
  O  O12  1  0.27754600  0.02012600  0.18903500  1
  O  O13  1  0.51329300  0.18903500  0.02012600  1
  O  O14  1  0.22557800  0.73686400  0.48374500  1
  O  O15  1  0.55381200  0.48374500  0.73686400  1
  O  O16  1  0.51688300  0.01993900  0.27554600  1
  O  O17  1  0.18763200  0.27554600  0.01993900  1
  O  O18  1  0.47524200  0.73790900  0.56103900  1
  O  O19  1  0.22581100  0.56103900  0.73790900  1
  O  O20  1  0.81133000  0.81140800  0.56530400  1
  O  O21  1  0.81195800  0.56530400  0.81140800  1
  O  O22  1  0.52980400  0.27155100  0.18416600  1
  O  O23  1  0.01447900  0.18416600  0.27155100  1
  O  O24  1  0.18416600  0.01447900  0.52980400  1
  O  O25  1  0.56530400  0.81195800  0.81133000  1
  O  O26  1  0.81140800  0.81133000  0.81195800  1
  O  O27  1  0.56103900  0.22581100  0.47524200  1
  O  O28  1  0.27554600  0.18763200  0.51688300  1
  O  O29  1  0.73686400  0.22557800  0.55381200  1
  O  O30  1  0.02012600  0.27754600  0.51329300  1
  O  O31  1  0.48233000  0.22518200  0.73149900  1
loop_
_geom_bond_atom_site_label_1
_geom_bond_atom_site_label_2
_geom_bond_distance
_geom_bond_site_symmetry_2
Na0 O17 2.429766 1_656
Na0 O2 2.429766 1_656
Na0 O21 2.473449 1_555
Na0 O26 2.473449 1_555
Na0 O1 2.474766 1_556
Na0 O19 2.474767 1_655
Na1 O22 2.438627 1_556
Na1 O0 2.438627 1_556
Na1 O3 2.451767 1_556
Na1 O15 2.451777 1_555
Na1 O21 2.488842 1_555
Na1 O25 2.488842 1_555
Na2 O13 2.427485 1_566
Na2 O12 2.427485 1_566
Na2 O25 2.464926 1_555
Na2 O26 2.464926 1_555
Na2 O31 2.493031 1_565
Na2 O7 2.493031 1_556
Na3 O4 2.427485 1_655
Na3 O30 2.427485 1_655
Na3 O21 2.464926 1_555
Na3 O20 2.464926 1_555
Na3 O8 2.493031 1_555
Na3 O9 2.493031 1_655
Na4 O10 2.432901 1_554
Na4 O11 2.432901 1_545
Na4 O27 2.443127 1_555
Na4 O1 2.443130 1_555
Na4 O23 2.456666 1_655
Na4 O22 2.456666 1_555
Na5 O24 2.438627 1_665
Na5 O23 2.438627 1_665
Na5 O29 2.451771 1_565
Na5 O14 2.451772 1_655
Na5 O20 2.488842 1_555
Na5 O26 2.488842 1_555
Na6 O16 2.429766 1_565
Na6 O28 2.429766 1_565
Na6 O25 2.473449 1_555
Na6 O20 2.473449 1_555
Na6 O18 2.474761 1_555
Na6 O27 2.474771 1_565
Na7 O5 2.432892 1_555
Na7 O6 2.432897 1_455
Na7 O19 2.443120 1_555
Na7 O18 2.443125 1_555
Na7 O0 2.456666 1_556
Na7 O24 2.456666 1_565
Co0 O4 2.015148 1_555
Co0 O9 2.045802 1_555
Co0 O3 2.064963 1_555
Co0 O28 2.069212 1_555
Co0 O27 2.078471 1_555
Co0 O22 2.138880 1_555
Co1 O30 2.015156 1_655
Co1 O8 2.045802 1_555
Co1 O29 2.064963 1_555
Co1 O2 2.069218 1_655
Co1 O1 2.078456 1_555
Co1 O23 2.138879 1_655
Co2 O12 2.015148 1_565
Co2 O7 2.045796 1_555
Co2 O14 2.064963 1_555
Co2 O16 2.069220 1_565
Co2 O18 2.078472 1_555
Co2 O24 2.138885 1_565
Co3 O13 2.015154 1_556
Co3 O31 2.045794 1_555
Co3 O15 2.064963 1_555
Co3 O17 2.069212 1_556
Co3 O19 2.078460 1_555
Co3 O0 2.138887 1_556
C0 O2 1.287439 1_555
C0 O4 1.296580 1_555
C0 O0 1.305626 1_555
C1 O7 1.288078 1_555
C1 O3 1.291362 1_555
C1 O1 1.311540 1_555
C2 O8 1.288078 1_555
C2 O15 1.291356 1_555
C2 O18 1.311539 1_555
C3 O9 1.288078 1_555
C3 O14 1.291355 1_555
C3 O19 1.311543 1_555
C4 O16 1.287439 1_555
C4 O13 1.296580 1_555
C4 O22 1.305626 1_555
C5 O17 1.287439 1_555
C5 O12 1.296580 1_555
C5 O23 1.305626 1_555
C6 O28 1.287439 1_555
C6 O30 1.296580 1_555
C6 O24 1.305626 1_555
C7 O31 1.288078 1_555
C7 O29 1.291352 1_555
C7 O27 1.311533 1_555
O5 S0 1.492108 1_566
O6 S0 1.492116 1_666
O10 S0 1.492108 1_656
O11 S0 1.492108 1_665
O20 S1 1.496797 1_555
O21 S1 1.496797 1_555
O25 S1 1.496797 1_555
O26 S1 1.496797 1_555
