# generated using pymatgen
data_Li2MnPHO5
_symmetry_space_group_name_H-M   'P 1'
_cell_length_a   5.24043878
_cell_length_b   11.01147821
_cell_length_c   7.84401948
_cell_angle_alpha   102.42917937
_cell_angle_beta   72.94628982
_cell_angle_gamma   80.54048782
_symmetry_Int_Tables_number   1
_chemical_formula_structural   Li2MnPHO5
_chemical_formula_sum   'Li8 Mn4 P4 H4 O20'
_cell_volume   409.85945249
_cell_formula_units_Z   4
loop_
 _symmetry_equiv_pos_site_id
 _symmetry_equiv_pos_as_xyz
  1  'x, y, z'
loop_
 _atom_site_type_symbol
 _atom_site_label
 _atom_site_symmetry_multiplicity
 _atom_site_fract_x
 _atom_site_fract_y
 _atom_site_fract_z
 _atom_site_occupancy
  Li  Li0  1  0.78980800  0.15376900  0.43929000  1
  Li  Li1  1  0.28978000  0.65366200  0.93938300  1
  Li  Li2  1  0.01610200  0.34076800  0.52538600  1
  Li  Li3  1  0.51578400  0.84081100  0.02506700  1
  Li  Li4  1  0.67411700  0.26407600  0.11356300  1
  Li  Li5  1  0.17381300  0.76403700  0.61354000  1
  Li  Li6  1  0.16533300  0.00616100  0.58936000  1
  Li  Li7  1  0.66544300  0.50635700  0.08986600  1
  Mn  Mn0  1  0.99954900  0.99874300  0.99387500  1
  Mn  Mn1  1  0.27494000  0.25195700  0.77286500  1
  Mn  Mn2  1  0.49958000  0.49871900  0.49396400  1
  Mn  Mn3  1  0.77437900  0.75202200  0.27226600  1
  P  P0  1  0.36288700  0.07850300  0.29565000  1
  P  P1  1  0.86273000  0.57854500  0.79585000  1
  P  P2  1  0.14332000  0.43507500  0.18721600  1
  P  P3  1  0.64338400  0.93498500  0.68680400  1
  H  H0  1  0.82899300  0.15468900  0.80999700  1
  H  H1  1  0.32864900  0.65457800  0.31020200  1
  H  H2  1  0.63070500  0.36949400  0.71073700  1
  H  H3  1  0.13038900  0.86952000  0.21066500  1
  O  O0  1  0.63099700  0.12405100  0.23528100  1
  O  O1  1  0.13094100  0.62400800  0.73527600  1
  O  O2  1  0.18414000  0.09496100  0.17505100  1
  O  O3  1  0.68387300  0.59497600  0.67524400  1
  O  O4  1  0.62969900  0.07466800  0.66831600  1
  O  O5  1  0.12946700  0.57470300  0.16849100  1
  O  O6  1  0.18080500  0.16073900  0.49983500  1
  O  O7  1  0.68072900  0.66086800  0.99999600  1
  O  O8  1  0.96316600  0.15917900  0.87502500  1
  O  O9  1  0.46306100  0.65910500  0.37504600  1
  O  O10  1  0.59383300  0.33113700  0.59775500  1
  O  O11  1  0.09388800  0.83113700  0.09752800  1
  O  O12  1  0.37383300  0.34254200  0.01000500  1
  O  O13  1  0.87390600  0.84250600  0.50958300  1
  O  O14  1  0.93191700  0.43514200  0.79985800  1
  O  O15  1  0.43249800  0.93512400  0.29942300  1
  O  O16  1  0.23124200  0.41809500  0.35535500  1
  O  O17  1  0.73129000  0.91795000  0.85492200  1
  O  O18  1  0.85660900  0.40431500  0.21136100  1
  O  O19  1  0.35661600  0.90429100  0.71113800  1
loop_
_geom_bond_atom_site_label_1
_geom_bond_atom_site_label_2
_geom_bond_distance
_geom_bond_site_symmetry_2
Li0 O10 1.990281 1_555
Li0 O0 2.001438 1_555
Li0 O4 2.172492 1_555
Li0 O6 2.244233 1_655
Li0 O2 2.335777 1_655
Li1 O11 1.990448 1_556
Li1 O1 2.002176 1_555
Li1 O5 2.172227 1_556
Li1 O7 2.244600 1_555
Li1 O3 2.334686 1_555
Li2 O16 1.922860 1_555
Li2 O6 1.969792 1_555
Li2 O14 2.058862 1_455
Li2 O10 2.143961 1_455
Li3 O17 1.922862 1_554
Li3 O7 1.970157 1_554
Li3 O15 2.058733 1_555
Li3 O11 2.142191 1_555
Li4 O0 1.990404 1_555
Li4 O8 1.990430 1_554
Li4 O18 2.072085 1_555
Li4 O12 2.118402 1_555
Li4 O16 2.568975 1_555
Li5 O1 1.990400 1_555
Li5 O9 1.990730 1_555
Li5 O19 2.072795 1_555
Li5 O13 2.119016 1_455
Li5 O17 2.566432 1_455
Li6 O19 1.956745 1_545
Li6 O6 1.980774 1_555
Li6 O15 2.179675 1_545
Li7 O18 1.955837 1_555
Li7 O7 1.981432 1_554
Li7 O14 2.179164 1_554
Mn0 O2 2.138459 1_666
Mn0 O8 2.174620 1_565
Mn0 O17 2.201847 1_555
Mn0 O11 2.212117 1_656
Mn0 O0 2.252557 1_566
Mn0 O19 2.331304 1_655
Mn1 O8 2.118587 1_455
Mn1 O12 2.158762 1_556
Mn1 O10 2.255591 1_555
Mn1 O4 2.272339 1_555
Mn1 O6 2.386520 1_555
Mn1 O14 2.397092 1_455
Mn2 O3 2.138068 1_555
Mn2 O9 2.174523 1_555
Mn2 O16 2.199844 1_555
Mn2 O10 2.212462 1_555
Mn2 O1 2.252392 1_555
Mn2 O18 2.330505 1_555
Mn3 O9 2.119130 1_555
Mn3 O13 2.161458 1_555
Mn3 O11 2.255774 1_655
Mn3 O5 2.273936 1_655
Mn3 O7 2.379796 1_554
Mn3 O15 2.392550 1_555
H0 O8 0.983842 1_555
H1 O9 0.983927 1_555
H2 O10 0.983501 1_555
H2 Li2 2.040249 1_655
H3 O11 0.983600 1_555
H3 Li3 2.041026 1_555
O0 P0 1.547089 1_555
O1 P1 1.547223 1_455
O2 P0 1.530650 1_555
O3 P1 1.531096 1_555
O4 P3 1.567749 1_545
O5 P2 1.567661 1_555
O6 P0 1.578285 1_555
O7 P1 1.578222 1_555
O12 P2 1.559011 1_555
O13 P3 1.558872 1_555
O14 P1 1.570287 1_555
O15 P0 1.569630 1_565
O16 P2 1.555946 1_555
O17 P3 1.555898 1_555
O18 P2 1.560790 1_655
O19 P3 1.560617 1_555
