# generated using pymatgen
data_MgCu2(SiO3)4
_symmetry_space_group_name_H-M   'P 1'
_cell_length_a   5.28503400
_cell_length_b   5.74623438
_cell_length_c   7.29517440
_cell_angle_alpha   84.83695191
_cell_angle_beta   80.23387958
_cell_angle_gamma   84.05414790
_symmetry_Int_Tables_number   1
_chemical_formula_structural   MgCu2(SiO3)4
_chemical_formula_sum   'Mg1 Cu2 Si4 O12'
_cell_volume   216.56879413
_cell_formula_units_Z   1
loop_
 _symmetry_equiv_pos_site_id
 _symmetry_equiv_pos_as_xyz
  1  'x, y, z'
loop_
 _atom_site_type_symbol
 _atom_site_label
 _atom_site_symmetry_multiplicity
 _atom_site_fract_x
 _atom_site_fract_y
 _atom_site_fract_z
 _atom_site_occupancy
  Mg  Mg0  1  0.00000000  0.00000000  0.00000000  1
  Cu  Cu0  1  0.50710300  0.82288100  0.18537200  1
  Cu  Cu1  1  0.49289700  0.17711900  0.81462800  1
  Si  Si0  1  0.30675300  0.78271000  0.61950900  1
  Si  Si1  1  0.77929300  0.58759100  0.80219800  1
  Si  Si2  1  0.22070700  0.41240900  0.19780200  1
  Si  Si3  1  0.69324700  0.21729000  0.38049100  1
  O  O0  1  0.24252400  0.00588200  0.75402700  1
  O  O1  1  0.75747600  0.99411800  0.24597300  1
  O  O2  1  0.73035400  0.79103900  0.95537900  1
  O  O3  1  0.29457200  0.87746000  0.40433300  1
  O  O4  1  0.57743500  0.63105700  0.65284200  1
  O  O5  1  0.25335400  0.67919000  0.09752600  1
  O  O6  1  0.07621400  0.60858400  0.69861100  1
  O  O7  1  0.92378600  0.39141600  0.30138900  1
  O  O8  1  0.74664600  0.32081000  0.90247400  1
  O  O9  1  0.42256500  0.36894300  0.34715800  1
  O  O10  1  0.70542800  0.12254000  0.59566700  1
  O  O11  1  0.26964600  0.20896100  0.04462100  1
loop_
_geom_bond_atom_site_label_1
_geom_bond_atom_site_label_2
_geom_bond_distance
_geom_bond_site_symmetry_2
Mg0 O1 2.020329 1_445
Mg0 O0 2.020329 1_554
Mg0 O11 2.039816 1_555
Mg0 O2 2.039816 1_444
Mg0 O8 2.296328 1_454
Mg0 O5 2.296328 1_545
Cu0 O3 1.822103 1_555
Cu0 O1 1.860398 1_555
Cu0 O5 1.872731 1_555
Cu0 O2 1.892004 1_554
Cu1 O10 1.822103 1_555
Cu1 O0 1.860398 1_555
Cu1 O8 1.872731 1_555
Cu1 O11 1.892004 1_556
O0 Si0 1.657132 1_545
O1 Si3 1.657132 1_565
O2 Si1 1.660359 1_555
O3 Si0 1.624155 1_555
O4 Si1 1.636412 1_555
O4 Si0 1.639098 1_555
O5 Si2 1.650787 1_555
O6 Si1 1.633593 1_455
O6 Si0 1.651901 1_555
O7 Si2 1.633593 1_655
O7 Si3 1.651901 1_555
O8 Si1 1.650787 1_555
O9 Si2 1.636412 1_555
O9 Si3 1.639098 1_555
O10 Si3 1.624155 1_555
O11 Si2 1.660359 1_555
