# generated using pymatgen
data_Gd3SbO7
_symmetry_space_group_name_H-M   'P 1'
_cell_length_a   7.55475200
_cell_length_b   7.57280500
_cell_length_c   10.72903600
_cell_angle_alpha   90.00000000
_cell_angle_beta   90.00000000
_cell_angle_gamma   90.00000000
_symmetry_Int_Tables_number   1
_chemical_formula_structural   Gd3SbO7
_chemical_formula_sum   'Gd12 Sb4 O28'
_cell_volume   613.81527063
_cell_formula_units_Z   4
loop_
 _symmetry_equiv_pos_site_id
 _symmetry_equiv_pos_as_xyz
  1  'x, y, z'
loop_
 _atom_site_type_symbol
 _atom_site_label
 _atom_site_symmetry_multiplicity
 _atom_site_fract_x
 _atom_site_fract_y
 _atom_site_fract_z
 _atom_site_occupancy
  Gd  Gd0  1  0.77291600  0.00458500  0.25000000  1
  Gd  Gd1  1  0.96589400  0.25342000  0.52011500  1
  Gd  Gd2  1  0.96589400  0.25342000  0.97988500  1
  Gd  Gd3  1  0.46589400  0.24658000  0.02011500  1
  Gd  Gd4  1  0.46589400  0.24658000  0.47988500  1
  Gd  Gd5  1  0.27291600  0.49541500  0.75000000  1
  Gd  Gd6  1  0.72708400  0.50458500  0.25000000  1
  Gd  Gd7  1  0.53410600  0.75342000  0.52011500  1
  Gd  Gd8  1  0.53410600  0.75342000  0.97988500  1
  Gd  Gd9  1  0.03410600  0.74658000  0.02011500  1
  Gd  Gd10  1  0.03410600  0.74658000  0.47988500  1
  Gd  Gd11  1  0.22708400  0.99541500  0.75000000  1
  Sb  Sb0  1  0.75200900  0.00158000  0.75000000  1
  Sb  Sb1  1  0.25200900  0.49842000  0.25000000  1
  Sb  Sb2  1  0.74799100  0.50158000  0.75000000  1
  Sb  Sb3  1  0.24799100  0.99842000  0.25000000  1
  O  O0  1  0.05292000  0.03256000  0.12414300  1
  O  O1  1  0.05292000  0.03256000  0.37585700  1
  O  O2  1  0.57072000  0.03613300  0.61818800  1
  O  O3  1  0.57072000  0.03613300  0.88181200  1
  O  O4  1  0.33741300  0.24775300  0.25000000  1
  O  O5  1  0.73199400  0.25142000  0.11684900  1
  O  O6  1  0.73199400  0.25142000  0.38315100  1
  O  O7  1  0.23199400  0.24858000  0.61684900  1
  O  O8  1  0.23199400  0.24858000  0.88315100  1
  O  O9  1  0.83741300  0.25224700  0.75000000  1
  O  O10  1  0.07072000  0.46386700  0.11818800  1
  O  O11  1  0.07072000  0.46386700  0.38181200  1
  O  O12  1  0.55292000  0.46744000  0.62414300  1
  O  O13  1  0.55292000  0.46744000  0.87585700  1
  O  O14  1  0.44708000  0.53256000  0.12414300  1
  O  O15  1  0.44708000  0.53256000  0.37585700  1
  O  O16  1  0.92928000  0.53613300  0.61818800  1
  O  O17  1  0.92928000  0.53613300  0.88181200  1
  O  O18  1  0.16258700  0.74775300  0.25000000  1
  O  O19  1  0.76800600  0.75142000  0.11684900  1
  O  O20  1  0.76800600  0.75142000  0.38315100  1
  O  O21  1  0.26800600  0.74858000  0.61684900  1
  O  O22  1  0.26800600  0.74858000  0.88315100  1
  O  O23  1  0.66258700  0.75224700  0.75000000  1
  O  O24  1  0.42928000  0.96386700  0.11818800  1
  O  O25  1  0.42928000  0.96386700  0.38181200  1
  O  O26  1  0.94708000  0.96744000  0.62414300  1
  O  O27  1  0.94708000  0.96744000  0.87585700  1
loop_
_geom_bond_atom_site_label_1
_geom_bond_atom_site_label_2
_geom_bond_distance
_geom_bond_site_symmetry_2
Gd0 O6 2.372858 1_555
Gd0 O5 2.372858 1_555
Gd0 O20 2.391184 1_545
Gd0 O19 2.391184 1_545
Gd0 O1 2.518533 1_655
Gd0 O0 2.518533 1_655
Gd0 O25 2.972329 1_545
Gd0 O24 2.972329 1_545
Gd1 O7 2.262717 1_655
Gd1 O6 2.298287 1_555
Gd1 O11 2.317065 1_655
Gd1 O1 2.371737 1_655
Gd1 O16 2.401516 1_555
Gd1 O26 2.440503 1_545
Gd1 O9 2.650580 1_555
Gd2 O8 2.262717 1_655
Gd2 O5 2.298287 1_556
Gd2 O10 2.317065 1_656
Gd2 O0 2.371737 1_656
Gd2 O17 2.401516 1_555
Gd2 O27 2.440503 1_545
Gd2 O9 2.650580 1_555
Gd3 O5 2.262717 1_555
Gd3 O8 2.298287 1_554
Gd3 O3 2.317065 1_554
Gd3 O13 2.371737 1_554
Gd3 O24 2.401516 1_545
Gd3 O14 2.440503 1_555
Gd3 O4 2.650580 1_555
Gd4 O6 2.262717 1_555
Gd4 O7 2.298287 1_555
Gd4 O2 2.317065 1_555
Gd4 O12 2.371737 1_555
Gd4 O25 2.401516 1_545
Gd4 O15 2.440503 1_555
Gd4 O4 2.650580 1_555
Gd5 O8 2.372858 1_555
Gd5 O7 2.372858 1_555
Gd5 O22 2.391184 1_555
Gd5 O21 2.391184 1_555
Gd5 O12 2.518533 1_555
Gd5 O13 2.518533 1_555
Gd5 O17 2.972329 1_455
Gd5 O16 2.972329 1_455
Gd6 O20 2.372858 1_555
Gd6 O19 2.372858 1_555
Gd6 O6 2.391184 1_555
Gd6 O5 2.391184 1_555
Gd6 O15 2.518533 1_555
Gd6 O14 2.518533 1_555
Gd6 O11 2.972329 1_655
Gd6 O10 2.972329 1_655
Gd7 O21 2.262717 1_555
Gd7 O20 2.298287 1_555
Gd7 O25 2.317065 1_555
Gd7 O15 2.371737 1_555
Gd7 O2 2.401516 1_565
Gd7 O12 2.440503 1_555
Gd7 O23 2.650580 1_555
Gd8 O22 2.262717 1_555
Gd8 O19 2.298287 1_556
Gd8 O24 2.317065 1_556
Gd8 O14 2.371737 1_556
Gd8 O3 2.401516 1_565
Gd8 O13 2.440503 1_555
Gd8 O23 2.650580 1_555
Gd9 O19 2.262717 1_455
Gd9 O22 2.298287 1_554
Gd9 O17 2.317065 1_454
Gd9 O27 2.371737 1_454
Gd9 O10 2.401516 1_555
Gd9 O0 2.440503 1_565
Gd9 O18 2.650580 1_555
Gd10 O20 2.262717 1_455
Gd10 O21 2.298287 1_555
Gd10 O16 2.317065 1_455
Gd10 O26 2.371737 1_455
Gd10 O11 2.401516 1_555
Gd10 O1 2.440503 1_565
Gd10 O18 2.650580 1_555
Gd11 O22 2.372858 1_555
Gd11 O21 2.372858 1_555
Gd11 O8 2.391184 1_565
Gd11 O7 2.391184 1_565
Gd11 O26 2.518533 1_455
Gd11 O27 2.518533 1_455
Gd11 O3 2.972329 1_565
Gd11 O2 2.972329 1_565
O0 Sb3 2.015452 1_545
O1 Sb3 2.015452 1_545
O2 Sb0 1.986016 1_555
O3 Sb0 1.986016 1_555
O4 Sb1 2.004907 1_555
O4 Sb3 2.005366 1_545
O9 Sb0 2.004907 1_555
O9 Sb2 2.005366 1_555
O10 Sb1 1.986016 1_555
O11 Sb1 1.986016 1_555
O12 Sb2 2.015452 1_555
O13 Sb2 2.015452 1_555
O14 Sb1 2.015452 1_555
O15 Sb1 2.015452 1_555
O16 Sb2 1.986016 1_555
O17 Sb2 1.986016 1_555
O18 Sb3 2.004907 1_555
O18 Sb1 2.005366 1_555
O23 Sb2 2.004907 1_555
O23 Sb0 2.005366 1_565
O24 Sb3 1.986016 1_555
O25 Sb3 1.986016 1_555
O26 Sb0 2.015452 1_565
O27 Sb0 2.015452 1_565
