# generated using pymatgen
data_LiV3O5F3
_symmetry_space_group_name_H-M   'P 1'
_cell_length_a   3.79006400
_cell_length_b   6.66311900
_cell_length_c   12.24968711
_cell_angle_alpha   75.88490310
_cell_angle_beta   90.00000000
_cell_angle_gamma   90.00000000
_symmetry_Int_Tables_number   1
_chemical_formula_structural   LiV3O5F3
_chemical_formula_sum   'Li2 V6 O10 F6'
_cell_volume   300.00934163
_cell_formula_units_Z   2
loop_
 _symmetry_equiv_pos_site_id
 _symmetry_equiv_pos_as_xyz
  1  'x, y, z'
loop_
 _atom_site_type_symbol
 _atom_site_label
 _atom_site_symmetry_multiplicity
 _atom_site_fract_x
 _atom_site_fract_y
 _atom_site_fract_z
 _atom_site_occupancy
  Li  Li0  1  0.00000000  0.18587700  0.30080600  1
  Li  Li1  1  0.50000000  0.80902000  0.68759800  1
  V  V0  1  0.50000000  0.13548000  0.05915100  1
  V  V1  1  0.50000000  0.31627500  0.53800100  1
  V  V2  1  0.50000000  0.24422300  0.81191300  1
  V  V3  1  0.00000000  0.73504100  0.20112600  1
  V  V4  1  0.00000000  0.68381800  0.46122000  1
  V  V5  1  0.00000000  0.88991800  0.91593700  1
  O  O0  1  0.00000000  0.03866900  0.08036500  1
  O  O1  1  0.50000000  0.14371500  0.67356500  1
  O  O2  1  0.00000000  0.19411000  0.82692900  1
  O  O3  1  0.00000000  0.49465700  0.27837600  1
  O  O4  1  0.00000000  0.38439200  0.51756000  1
  O  O5  1  0.50000000  0.35151100  0.95001100  1
  O  O6  1  0.50000000  0.61412100  0.48086900  1
  O  O7  1  0.00000000  0.86416000  0.32981800  1
  O  O8  1  0.00000000  0.77569000  0.81101300  1
  O  O9  1  0.50000000  0.96956800  0.93505000  1
  F  F0  1  0.50000000  0.20928900  0.19806300  1
  F  F1  1  0.50000000  0.17304100  0.42549500  1
  F  F2  1  0.00000000  0.65804500  0.05194800  1
  F  F3  1  0.50000000  0.50741000  0.71423700  1
  F  F4  1  0.50000000  0.79692200  0.17528300  1
  F  F5  1  0.00000000  0.82504600  0.57566600  1
loop_
_geom_bond_atom_site_label_1
_geom_bond_atom_site_label_2
_geom_bond_distance
_geom_bond_site_symmetry_2
Li0 O3 2.008189 1_555
Li0 O7 2.085645 1_545
Li1 O1 2.194533 1_565
Li1 O8 2.400466 1_555
Li1 O8 2.400466 1_655
O0 V0 1.998255 1_555
O0 V0 1.998255 1_455
O0 V3 2.195806 1_545
O0 V5 2.452151 1_544
O1 V1 1.774370 1_555
O1 V2 1.968281 1_555
O2 V2 1.925232 1_555
O2 V2 1.925232 1_455
O2 V5 2.054048 1_545
O3 V3 1.649748 1_555
O4 V4 1.945557 1_555
O4 V1 1.950491 1_555
O4 V1 1.950491 1_455
O5 V0 1.709020 1_556
O5 V2 1.990624 1_555
O6 V1 1.936732 1_555
O6 V4 1.951981 1_555
O6 V4 1.951981 1_655
O7 V4 1.758258 1_555
O7 V3 1.971506 1_555
O8 V5 1.645718 1_555
O9 V5 1.997055 1_655
O9 V5 1.997055 1_555
O9 V2 2.068326 1_565
O9 V0 2.086335 1_566
F0 V0 1.882970 1_555
F0 Li0 2.259141 1_555
F0 Li0 2.259141 1_655
F1 V1 1.857878 1_555
F1 Li0 2.422334 1_555
F1 Li0 2.422334 1_655
F2 V5 1.976710 1_554
F2 V3 2.014894 1_555
F3 V2 1.866411 1_555
F3 Li1 1.955856 1_555
F4 V3 1.948770 1_655
F4 V3 1.948770 1_555
F4 V0 2.355288 1_565
F5 V4 1.869322 1_555
F5 Li1 2.326186 1_455
F5 Li1 2.326186 1_555
