# generated using pymatgen
data_MnNb3(PO4)6
_symmetry_space_group_name_H-M   'P 1'
_cell_length_a   8.91797929
_cell_length_b   8.91797929
_cell_length_c   8.91797911
_cell_angle_alpha   57.95976471
_cell_angle_beta   57.95976468
_cell_angle_gamma   57.95976246
_symmetry_Int_Tables_number   1
_chemical_formula_structural   MnNb3(PO4)6
_chemical_formula_sum   'Mn1 Nb3 P6 O24'
_cell_volume   478.03916488
_cell_formula_units_Z   1
loop_
 _symmetry_equiv_pos_site_id
 _symmetry_equiv_pos_as_xyz
  1  'x, y, z'
loop_
 _atom_site_type_symbol
 _atom_site_label
 _atom_site_symmetry_multiplicity
 _atom_site_fract_x
 _atom_site_fract_y
 _atom_site_fract_z
 _atom_site_occupancy
  Mn  Mn0  1  0.14351315  0.14351315  0.14351315  1
  Nb  Nb0  1  0.85833593  0.85833593  0.85833593  1
  Nb  Nb1  1  0.64123637  0.64123637  0.64123637  1
  Nb  Nb2  1  0.36128859  0.36128859  0.36128859  1
  P  P0  1  0.52258337  0.96866861  0.25263779  1
  P  P1  1  0.25263779  0.52258337  0.96866861  1
  P  P2  1  0.96866861  0.25263779  0.52258337  1
  P  P3  1  0.03307667  0.75915409  0.46136336  1
  P  P4  1  0.75915409  0.46136336  0.03307667  1
  P  P5  1  0.46136336  0.03307667  0.75915409  1
  O  O0  1  0.50360418  0.87489875  0.70350781  1
  O  O1  1  0.87489875  0.70350781  0.50360418  1
  O  O2  1  0.69168686  0.95887476  0.06671565  1
  O  O3  1  0.70350781  0.50360418  0.87489875  1
  O  O4  1  0.58390695  0.78287083  0.40781574  1
  O  O5  1  0.34738062  0.98483505  0.25221332  1
  O  O6  1  0.06671565  0.69168686  0.95887476  1
  O  O7  1  0.40781574  0.58390695  0.78287083  1
  O  O8  1  0.78287083  0.40781574  0.58390695  1
  O  O9  1  0.00839782  0.76078420  0.64489959  1
  O  O10  1  0.03172168  0.94170608  0.30169008  1
  O  O11  1  0.76078420  0.64489959  0.00839782  1
  O  O12  1  0.25221332  0.34738062  0.98483505  1
  O  O13  1  0.95887476  0.06671565  0.69168686  1
  O  O14  1  0.98483505  0.25221332  0.34738062  1
  O  O15  1  0.21881084  0.59465992  0.41769356  1
  O  O16  1  0.59465992  0.41769356  0.21881084  1
  O  O17  1  0.94170608  0.30169008  0.03172168  1
  O  O18  1  0.64489959  0.00839782  0.76078420  1
  O  O19  1  0.41769356  0.21881084  0.59465992  1
  O  O20  1  0.29097120  0.49868014  0.12981542  1
  O  O21  1  0.30169008  0.03172168  0.94170608  1
  O  O22  1  0.12981542  0.29097120  0.49868014  1
  O  O23  1  0.49868014  0.12981542  0.29097120  1
loop_
_geom_bond_atom_site_label_1
_geom_bond_atom_site_label_2
_geom_bond_distance
_geom_bond_site_symmetry_2
Mn0 O5 1.983017 1_545
Mn0 O14 1.983017 1_455
Mn0 O12 1.983017 1_554
Mn0 O17 1.985110 1_455
Mn0 O21 1.985110 1_554
Mn0 O10 1.985110 1_545
Nb0 O6 1.972226 1_655
Nb0 O2 1.972226 1_556
Nb0 O13 1.972226 1_565
Nb0 O18 1.997433 1_565
Nb0 O9 1.997433 1_655
Nb0 O11 1.997433 1_556
Nb1 O8 1.960684 1_555
Nb1 O4 1.960684 1_555
Nb1 O7 1.960684 1_555
Nb1 O0 1.986953 1_555
Nb1 O3 1.986953 1_555
Nb1 O1 1.986953 1_555
Nb2 O15 1.955944 1_555
Nb2 O19 1.955944 1_555
Nb2 O16 1.955945 1_555
Nb2 O23 2.007571 1_555
Nb2 O20 2.007571 1_555
Nb2 O22 2.007571 1_555
O0 P5 1.535781 1_565
O1 P3 1.535781 1_655
O2 P0 1.546566 1_555
O3 P4 1.535781 1_556
O4 P0 1.538913 1_555
O5 P0 1.492900 1_555
O6 P1 1.546566 1_555
O7 P1 1.538913 1_555
O8 P2 1.538913 1_555
O9 P3 1.538606 1_555
O10 P3 1.488585 1_555
O11 P4 1.538606 1_555
O12 P1 1.492900 1_555
O13 P2 1.546566 1_555
O14 P2 1.492900 1_555
O15 P3 1.546225 1_555
O16 P4 1.546225 1_555
O17 P4 1.488585 1_555
O18 P5 1.538606 1_555
O19 P5 1.546225 1_555
O20 P1 1.531822 1_554
O21 P5 1.488585 1_555
O22 P2 1.531822 1_455
O23 P0 1.531822 1_545
