# generated using pymatgen
data_LiMnPH2O5
_symmetry_space_group_name_H-M   'P 1'
_cell_length_a   8.24251500
_cell_length_b   10.51854222
_cell_length_c   10.70064147
_cell_angle_alpha   95.64986169
_cell_angle_beta   107.89534124
_cell_angle_gamma   108.32161998
_symmetry_Int_Tables_number   1
_chemical_formula_structural   LiMnPH2O5
_chemical_formula_sum   'Li8 Mn8 P8 H16 O40'
_cell_volume   818.33172437
_cell_formula_units_Z   8
loop_
 _symmetry_equiv_pos_site_id
 _symmetry_equiv_pos_as_xyz
  1  'x, y, z'
loop_
 _atom_site_type_symbol
 _atom_site_label
 _atom_site_symmetry_multiplicity
 _atom_site_fract_x
 _atom_site_fract_y
 _atom_site_fract_z
 _atom_site_occupancy
  Li  Li0  1  0.74329700  0.16243400  0.06677900  1
  Li  Li1  1  0.35118100  0.24279400  0.21367900  1
  Li  Li2  1  0.84617500  0.76919000  0.46729000  1
  Li  Li3  1  0.26495000  0.66261400  0.32638100  1
  Li  Li4  1  0.74944300  0.33587700  0.68080100  1
  Li  Li5  1  0.15039400  0.23612600  0.53322700  1
  Li  Li6  1  0.85305700  0.75701500  0.96657600  1
  Li  Li7  1  0.26104800  0.66016500  0.83238000  1
  Mn  Mn0  1  0.99735900  0.99530900  0.25352000  1
  Mn  Mn1  1  0.49806300  0.99235300  0.25275600  1
  Mn  Mn2  1  0.99979700  0.50193300  0.49656000  1
  Mn  Mn3  1  0.50232700  0.50094400  0.50091300  1
  Mn  Mn4  1  0.00259300  0.00179900  0.75083300  1
  Mn  Mn5  1  0.50026700  0.00054300  0.74824800  1
  Mn  Mn6  1  0.99666000  0.49202200  0.00332800  1
  Mn  Mn7  1  0.49889300  0.49502500  0.00427500  1
  P  P0  1  0.58075900  0.83532100  0.00423400  1
  P  P1  1  0.90802300  0.66205900  0.24451800  1
  P  P2  1  0.08445000  0.33289400  0.25717600  1
  P  P3  1  0.58369500  0.83493400  0.50539900  1
  P  P4  1  0.41271400  0.16743500  0.49542300  1
  P  P5  1  0.90995700  0.66086400  0.74533700  1
  P  P6  1  0.08515700  0.34041200  0.75288600  1
  P  P7  1  0.41217800  0.16072500  0.99775700  1
  H  H0  1  0.17954500  0.96050500  0.05038200  1
  H  H1  1  0.39533700  0.67839200  0.12527100  1
  H  H2  1  0.12994600  0.82825700  0.12517800  1
  H  H3  1  0.33797800  0.53614700  0.18892500  1
  H  H4  1  0.68060800  0.46039000  0.30145200  1
  H  H5  1  0.86920600  0.17212700  0.37592300  1
  H  H6  1  0.62922500  0.32623800  0.37467300  1
  H  H7  1  0.81770800  0.03525400  0.44509800  1
  H  H8  1  0.18202700  0.96553500  0.55719100  1
  H  H9  1  0.40155700  0.68111200  0.63159700  1
  H  H10  1  0.13326700  0.83094000  0.63061600  1
  H  H11  1  0.34077200  0.54046600  0.69260600  1
  H  H12  1  0.65820400  0.45994100  0.80843500  1
  H  H13  1  0.89310400  0.17446900  0.87346500  1
  H  H14  1  0.60537500  0.32272800  0.87731600  1
  H  H15  1  0.83848100  0.03491600  0.93827400  1
  O  O0  1  0.77232000  0.95708400  0.05570200  1
  O  O1  1  0.94383700  0.35079600  0.13239200  1
  O  O2  1  0.49508400  0.82688800  0.11492700  1
  O  O3  1  0.39448700  0.29854600  0.04454800  1
  O  O4  1  0.71637900  0.54820700  0.19670900  1
  O  O5  1  0.90015700  0.80142200  0.29910900  1
  O  O6  1  0.31818600  0.57501700  0.10609200  1
  O  O7  1  0.17241100  0.93027300  0.13732000  1
  O  O8  1  0.53371100  0.13007500  0.12598700  1
  O  O9  1  0.01786700  0.32600400  0.37927800  1
  O  O10  1  0.98594300  0.67174800  0.12720400  1
  O  O11  1  0.44999800  0.85675700  0.37884100  1
  O  O12  1  0.81474600  0.06935500  0.35864100  1
  O  O13  1  0.68199800  0.42848000  0.38962500  1
  O  O14  1  0.10874600  0.19555000  0.21843800  1
  O  O15  1  0.27366600  0.45452300  0.30174200  1
  O  O16  1  0.59386800  0.69218000  0.46167100  1
  O  O17  1  0.78533100  0.93870800  0.54843200  1
  O  O18  1  0.47570900  0.16884900  0.37169100  1
  O  O19  1  0.04341100  0.62884500  0.36250600  1
  O  O20  1  0.96093700  0.36940700  0.62513300  1
  O  O21  1  0.50722800  0.83414000  0.61979700  1
  O  O22  1  0.21285900  0.06201100  0.45503600  1
  O  O23  1  0.40170600  0.30949700  0.53877100  1
  O  O24  1  0.72518500  0.53424400  0.69050300  1
  O  O25  1  0.88522700  0.79440000  0.79307900  1
  O  O26  1  0.32763100  0.57793600  0.60924600  1
  O  O27  1  0.18529300  0.93343500  0.64463000  1
  O  O28  1  0.55069700  0.14354100  0.61661500  1
  O  O29  1  0.97871000  0.32707600  0.85248300  1
  O  O30  1  0.99313900  0.67625000  0.63089900  1
  O  O31  1  0.44971300  0.85219400  0.87371000  1
  O  O32  1  0.82591900  0.07110600  0.85400200  1
  O  O33  1  0.67172000  0.42636900  0.89434600  1
  O  O34  1  0.11290300  0.20675900  0.70987100  1
  O  O35  1  0.27180000  0.46511000  0.81394100  1
  O  O36  1  0.61050700  0.69848200  0.97086200  1
  O  O37  1  0.51963400  0.17057800  0.89877900  1
  O  O38  1  0.04022400  0.63018900  0.86852100  1
  O  O39  1  0.22047700  0.04578800  0.93920400  1
loop_
_geom_bond_atom_site_label_1
_geom_bond_atom_site_label_2
_geom_bond_distance
_geom_bond_site_symmetry_2
Li0 O8 1.961372 1_555
Li0 O1 2.025986 1_555
Li0 O37 2.174998 1_554
Li0 O0 2.242471 1_545
Li1 O14 1.919856 1_555
Li1 O18 2.052245 1_555
Li1 O3 2.054534 1_555
Li1 O8 2.513928 1_555
Li2 O16 1.959376 1_555
Li2 O5 2.017187 1_555
Li2 O17 2.170198 1_555
Li2 O30 2.294836 1_555
Li3 O19 1.913914 1_555
Li3 O11 2.025234 1_555
Li3 O15 2.205098 1_555
Li4 O20 1.952209 1_555
Li4 O28 2.049282 1_555
Li4 O24 2.153316 1_555
Li4 O29 2.228133 1_555
Li5 O23 1.949460 1_555
Li5 O34 2.043944 1_555
Li5 O9 2.156566 1_555
Li5 O22 2.207978 1_555
Li6 O36 1.914708 1_555
Li6 O25 2.013050 1_555
Li6 O10 2.173159 1_556
Li6 O0 2.579997 1_556
Li7 O38 1.912511 1_555
Li7 O31 2.029872 1_555
Li7 O35 2.074027 1_555
Mn0 O5 2.109003 1_555
Mn0 O14 2.138188 1_665
Mn0 O22 2.204971 1_665
Mn0 O0 2.243561 1_555
Mn0 O7 2.377302 1_655
Mn0 O12 2.396372 1_565
Mn1 O11 2.088937 1_555
Mn1 O8 2.095057 1_565
Mn1 O2 2.156487 1_555
Mn1 O18 2.234757 1_565
Mn1 O12 2.329338 1_565
Mn1 O7 2.420471 1_555
Mn2 O20 2.075180 1_555
Mn2 O19 2.088348 1_655
Mn2 O9 2.202836 1_655
Mn2 O30 2.241466 1_555
Mn2 O13 2.340801 1_555
Mn2 O26 2.417535 1_655
Mn3 O16 2.049069 1_555
Mn3 O23 2.055289 1_555
Mn3 O24 2.185874 1_555
Mn3 O15 2.254072 1_555
Mn3 O26 2.376385 1_555
Mn3 O13 2.409786 1_555
Mn4 O39 2.138136 1_555
Mn4 O34 2.205732 1_555
Mn4 O17 2.219089 1_445
Mn4 O25 2.243975 1_445
Mn4 O32 2.316853 1_455
Mn4 O27 2.376549 1_545
Mn5 O21 2.143380 1_545
Mn5 O31 2.181372 1_545
Mn5 O28 2.191604 1_555
Mn5 O37 2.216783 1_555
Mn5 O27 2.322172 1_545
Mn5 O32 2.398274 1_555
Mn6 O1 2.161125 1_555
Mn6 O38 2.173695 1_654
Mn6 O29 2.185854 1_554
Mn6 O10 2.241040 1_555
Mn6 O6 2.358017 1_655
Mn6 O33 2.401950 1_554
Mn7 O3 2.117204 1_555
Mn7 O4 2.154257 1_555
Mn7 O36 2.160812 1_554
Mn7 O35 2.216182 1_554
Mn7 O33 2.333200 1_554
Mn7 O6 2.391287 1_555
H0 O7 1.024760 1_555
H0 O39 1.612570 1_564
H1 O6 1.034398 1_555
H1 O2 1.552587 1_555
H2 O7 0.999658 1_555
H2 O10 1.706984 1_455
H3 O6 1.001921 1_555
H3 O15 1.669348 1_555
H4 O13 1.030110 1_555
H4 O4 1.559523 1_555
H5 O12 1.004404 1_555
H5 O9 1.684375 1_655
H6 O13 1.000309 1_555
H6 O18 1.729340 1_555
H7 O12 1.020840 1_555
H7 O17 1.599133 1_545
H8 O27 1.021085 1_555
H8 O22 1.586285 1_565
H9 O26 1.024627 1_555
H9 O21 1.609866 1_555
H10 O27 1.003326 1_555
H10 O30 1.674256 1_455
H11 O26 0.999714 1_555
H11 O35 1.734982 1_555
H12 O33 1.003963 1_555
H12 O24 1.690929 1_555
H13 O32 1.018879 1_555
H13 O29 1.606611 1_555
H14 O33 1.022510 1_555
H14 O37 1.604528 1_555
H15 O32 1.001896 1_555
H15 O0 1.699865 1_546
O0 P0 1.578623 1_555
O1 P2 1.548331 1_655
O2 P0 1.550780 1_555
O3 P7 1.551893 1_554
O4 P1 1.544187 1_555
O5 P1 1.552004 1_555
O8 P7 1.560644 1_554
O9 P2 1.564572 1_555
O10 P1 1.574253 1_555
O11 P3 1.550542 1_555
O14 P2 1.553694 1_555
O15 P2 1.570005 1_555
O16 P3 1.563842 1_555
O17 P3 1.567124 1_555
O18 P4 1.563442 1_555
O19 P1 1.558040 1_455
O20 P6 1.558325 1_655
O21 P3 1.539054 1_555
O22 P4 1.565164 1_555
O23 P4 1.559137 1_555
O24 P5 1.568216 1_555
O25 P5 1.542129 1_555
O28 P4 1.541400 1_555
O29 P6 1.565899 1_655
O30 P5 1.575140 1_555
O31 P0 1.546335 1_556
O34 P6 1.542710 1_555
O35 P6 1.568091 1_555
O36 P0 1.560082 1_556
O37 P7 1.567602 1_555
O38 P5 1.557646 1_455
O39 P7 1.546711 1_555
