# generated using pymatgen
data_LiMn4(BO3)4
_symmetry_space_group_name_H-M   'P 1'
_cell_length_a   5.79137700
_cell_length_b   9.10266051
_cell_length_c   5.32978466
_cell_angle_alpha   92.95235859
_cell_angle_beta   112.19592432
_cell_angle_gamma   105.91586022
_symmetry_Int_Tables_number   1
_chemical_formula_structural   LiMn4(BO3)4
_chemical_formula_sum   'Li1 Mn4 B4 O12'
_cell_volume   246.35186622
_cell_formula_units_Z   1
loop_
 _symmetry_equiv_pos_site_id
 _symmetry_equiv_pos_as_xyz
  1  'x, y, z'
loop_
 _atom_site_type_symbol
 _atom_site_label
 _atom_site_symmetry_multiplicity
 _atom_site_fract_x
 _atom_site_fract_y
 _atom_site_fract_z
 _atom_site_occupancy
  Li  Li0  1  0.32833900  0.80613500  0.74588000  1
  Mn  Mn0  1  0.73755200  0.39114500  0.74650800  1
  Mn  Mn1  1  0.75570900  0.88956000  0.28057600  1
  Mn  Mn2  1  0.27227700  0.12200100  0.76510200  1
  Mn  Mn3  1  0.24768300  0.60249500  0.22676400  1
  B  B0  1  0.75304500  0.05274000  0.79110800  1
  B  B1  1  0.73458400  0.53566400  0.27155500  1
  B  B2  1  0.25454300  0.46326600  0.71169300  1
  B  B3  1  0.25539900  0.94829900  0.22458300  1
  O  O0  1  0.89284200  0.07699400  0.62192700  1
  O  O1  1  0.86643200  0.55748600  0.09478300  1
  O  O2  1  0.72027700  0.40828900  0.38930100  1
  O  O3  1  0.64648200  0.16862000  0.83122200  1
  O  O4  1  0.61823000  0.64662700  0.29910700  1
  O  O5  1  0.28300200  0.08162800  0.11929300  1
  O  O6  1  0.69973500  0.91861800  0.88533700  1
  O  O7  1  0.36781100  0.35231800  0.67809600  1
  O  O8  1  0.32012500  0.82540200  0.13109000  1
  O  O9  1  0.27898500  0.59552500  0.60231100  1
  O  O10  1  0.12246600  0.43909000  0.88716200  1
  O  O11  1  0.17596400  0.93510500  0.44487200  1
loop_
_geom_bond_atom_site_label_1
_geom_bond_atom_site_label_2
_geom_bond_distance
_geom_bond_site_symmetry_2
Li0 O9 1.930192 1_555
Li0 O6 1.932102 1_555
Li0 O8 2.071101 1_556
Li0 O11 2.103160 1_555
Mn0 O2 1.885262 1_555
Mn0 O7 1.955714 1_555
Mn0 O10 1.972768 1_655
Mn0 O3 2.067165 1_555
Mn0 O1 2.083070 1_556
Mn1 O6 2.049642 1_554
Mn1 O4 2.156379 1_555
Mn1 O11 2.158995 1_655
Mn1 O0 2.167265 1_565
Mn1 O8 2.228236 1_555
Mn2 O5 1.923006 1_556
Mn2 O0 1.945775 1_455
Mn2 O3 1.975865 1_555
Mn2 O7 2.138756 1_555
Mn2 O11 2.139992 1_545
Mn3 O9 1.946399 1_555
Mn3 O4 1.949701 1_555
Mn3 O1 1.959206 1_455
Mn3 O10 2.038085 1_554
Mn3 O8 2.086721 1_555
B0 O6 1.345974 1_545
B0 O3 1.404531 1_555
B0 O0 1.411145 1_555
B1 O2 1.344090 1_555
B1 O4 1.388752 1_555
B1 O1 1.410609 1_555
B2 O9 1.360326 1_555
B2 O7 1.384115 1_555
B2 O10 1.406235 1_555
B3 O5 1.358287 1_565
B3 O8 1.397847 1_555
B3 O11 1.413106 1_555
