# generated using pymatgen
data_Li4TiCr3O8
_symmetry_space_group_name_H-M   'P 1'
_cell_length_a   5.95852982
_cell_length_b   5.95852982
_cell_length_c   5.95852920
_cell_angle_alpha   59.52424792
_cell_angle_beta   59.52424792
_cell_angle_gamma   59.52423843
_symmetry_Int_Tables_number   1
_chemical_formula_structural   Li4TiCr3O8
_chemical_formula_sum   'Li4 Ti1 Cr3 O8'
_cell_volume   147.97159517
_cell_formula_units_Z   1
loop_
 _symmetry_equiv_pos_site_id
 _symmetry_equiv_pos_as_xyz
  1  'x, y, z'
loop_
 _atom_site_type_symbol
 _atom_site_label
 _atom_site_symmetry_multiplicity
 _atom_site_fract_x
 _atom_site_fract_y
 _atom_site_fract_z
 _atom_site_occupancy
  Li  Li0  1  0.50000000  0.00000000  0.00000000  1
  Li  Li1  1  0.00000000  0.50000000  0.00000000  1
  Li  Li2  1  0.00000000  0.00000000  0.50000000  1
  Li  Li3  1  0.50000000  0.50000000  0.50000000  1
  Ti  Ti0  1  0.00000000  0.00000000  0.00000000  1
  Cr  Cr0  1  0.50000000  0.50000000  0.00000000  1
  Cr  Cr1  1  0.50000000  0.00000000  0.50000000  1
  Cr  Cr2  1  0.00000000  0.50000000  0.50000000  1
  O  O0  1  0.74141200  0.74141200  0.74141200  1
  O  O1  1  0.75502700  0.75502700  0.25862500  1
  O  O2  1  0.74137500  0.24497300  0.24497300  1
  O  O3  1  0.24497300  0.74137500  0.24497300  1
  O  O4  1  0.75502700  0.25862500  0.75502700  1
  O  O5  1  0.25862500  0.75502700  0.75502700  1
  O  O6  1  0.24497300  0.24497300  0.74137500  1
  O  O7  1  0.25858800  0.25858800  0.25858800  1
loop_
_geom_bond_atom_site_label_1
_geom_bond_atom_site_label_2
_geom_bond_distance
_geom_bond_site_symmetry_2
Li0 O1 2.158303 1_545
Li0 O6 2.158303 1_554
Li0 O4 2.158303 1_554
Li0 O3 2.158303 1_545
Li0 O7 2.174648 1_555
Li0 O0 2.174648 1_544
Li1 O6 2.158303 1_554
Li1 O1 2.158303 1_455
Li1 O2 2.158303 1_455
Li1 O5 2.158303 1_554
Li1 O7 2.174648 1_555
Li1 O0 2.174648 1_454
Li2 O5 2.158303 1_545
Li2 O4 2.158303 1_455
Li2 O3 2.158303 1_545
Li2 O2 2.158303 1_455
Li2 O7 2.174648 1_555
Li2 O0 2.174648 1_445
Li3 O4 2.143669 1_555
Li3 O5 2.143669 1_555
Li3 O2 2.143669 1_555
Li3 O3 2.143669 1_555
Li3 O1 2.143669 1_555
Li3 O6 2.143669 1_555
Cr0 O0 2.028522 1_554
Cr0 O7 2.028522 1_555
Cr0 O5 2.042305 1_554
Cr0 O2 2.042305 1_555
Cr0 O3 2.042305 1_555
Cr0 O4 2.042305 1_554
Cr1 O0 2.028522 1_545
Cr1 O7 2.028522 1_555
Cr1 O1 2.042305 1_545
Cr1 O6 2.042305 1_555
Cr1 O2 2.042305 1_555
Cr1 O5 2.042305 1_545
Cr2 O0 2.028522 1_455
Cr2 O7 2.028522 1_555
Cr2 O6 2.042305 1_555
Cr2 O1 2.042305 1_455
Cr2 O3 2.042305 1_555
Cr2 O4 2.042305 1_455
O1 Ti0 2.057660 1_665
O2 Ti0 2.057660 1_655
O3 Ti0 2.057660 1_565
O4 Ti0 2.057660 1_656
O5 Ti0 2.057660 1_566
O6 Ti0 2.057660 1_556
