# generated using pymatgen
data_Li4Co3Ni5O16
_symmetry_space_group_name_H-M   'P 1'
_cell_length_a   5.64394062
_cell_length_b   5.64975967
_cell_length_c   9.38625232
_cell_angle_alpha   89.97237837
_cell_angle_beta   90.02955690
_cell_angle_gamma   120.02808167
_symmetry_Int_Tables_number   1
_chemical_formula_structural   Li4Co3Ni5O16
_chemical_formula_sum   'Li4 Co3 Ni5 O16'
_cell_volume   259.12674059
_cell_formula_units_Z   1
loop_
 _symmetry_equiv_pos_site_id
 _symmetry_equiv_pos_as_xyz
  1  'x, y, z'
loop_
 _atom_site_type_symbol
 _atom_site_label
 _atom_site_symmetry_multiplicity
 _atom_site_fract_x
 _atom_site_fract_y
 _atom_site_fract_z
 _atom_site_occupancy
  Li  Li0  1  0.33572800  0.66797100  0.89282800  1
  Li  Li1  1  0.00343100  0.00210900  0.99755600  1
  Li  Li2  1  0.99921500  0.99995300  0.49785300  1
  Li  Li3  1  0.66574300  0.33254200  0.39423100  1
  Co  Co0  1  0.16734100  0.83043000  0.21400000  1
  Co  Co1  1  0.16738200  0.33659300  0.21408200  1
  Co  Co2  1  0.33663700  0.16841800  0.71377600  1
  Ni  Ni0  1  0.33376100  0.66691500  0.49071500  1
  Ni  Ni1  1  0.66215800  0.83090200  0.21470600  1
  Ni  Ni2  1  0.66791100  0.33404500  0.99039600  1
  Ni  Ni3  1  0.83108200  0.66229600  0.71505600  1
  Ni  Ni4  1  0.83105500  0.16898700  0.71509700  1
  O  O0  1  0.16077400  0.84452400  0.60688600  1
  O  O1  1  0.03461400  0.51709300  0.32628100  1
  O  O2  1  0.33779900  0.66875900  0.11041800  1
  O  O3  1  0.99482300  0.99710200  0.31030000  1
  O  O4  1  0.99493300  0.99743600  0.80894500  1
  O  O5  1  0.16066500  0.31655900  0.60692800  1
  O  O6  1  0.47856600  0.96215500  0.32936900  1
  O  O7  1  0.47855100  0.51596100  0.32945300  1
  O  O8  1  0.31766900  0.15881800  0.10921000  1
  O  O9  1  0.68263200  0.84154200  0.60557100  1
  O  O10  1  0.51542300  0.47930500  0.82822700  1
  O  O11  1  0.51548400  0.03633200  0.82830300  1
  O  O12  1  0.67184600  0.33611500  0.61241500  1
  O  O13  1  0.84560700  0.68513400  0.10639500  1
  O  O14  1  0.96364700  0.48182100  0.83227500  1
  O  O15  1  0.84552100  0.16048500  0.10657000  1
loop_
_geom_bond_atom_site_label_1
_geom_bond_atom_site_label_2
_geom_bond_distance
_geom_bond_site_symmetry_2
Li0 O11 1.900923 1_565
Li0 O10 1.901486 1_555
Li0 O14 1.904737 1_455
Li0 O2 2.042376 1_556
Li1 O4 1.770827 1_445
Li1 O15 1.855239 1_456
Li1 O13 1.856556 1_446
Li1 O8 1.858780 1_556
Li2 O3 1.760549 1_555
Li2 O9 1.848329 1_555
Li2 O5 1.856770 1_665
Li2 O0 1.857280 1_655
Li3 O6 1.911456 1_545
Li3 O7 1.911604 1_555
Li3 O1 1.912161 1_655
Li3 O12 2.048141 1_555
Co0 O1 1.864809 1_555
Co0 O13 1.870377 1_455
Co0 O6 1.871463 1_555
Co0 O8 1.884972 1_565
Co0 O3 1.889757 1_455
Co0 O2 1.893786 1_555
Co1 O1 1.864723 1_555
Co1 O15 1.870385 1_455
Co1 O7 1.871307 1_555
Co1 O8 1.884589 1_555
Co1 O3 1.890152 1_445
Co1 O2 1.893771 1_555
Co2 O11 1.866383 1_555
Co2 O10 1.866592 1_555
Co2 O5 1.876921 1_555
Co2 O0 1.877043 1_545
Co2 O4 1.893889 1_445
Co2 O12 1.894490 1_555
Ni0 O9 2.016721 1_555
Ni0 O5 2.031254 1_555
Ni0 O0 2.032683 1_555
Ni0 O6 2.092422 1_555
Ni0 O7 2.094357 1_555
Ni0 O1 2.125428 1_555
Ni1 O3 1.856486 1_555
Ni1 O2 1.862601 1_555
Ni1 O6 1.884899 1_555
Ni1 O7 1.885151 1_555
Ni1 O15 1.907638 1_565
Ni1 O13 1.907641 1_555
Ni2 O13 2.033661 1_556
Ni2 O15 2.033973 1_556
Ni2 O8 2.043013 1_556
Ni2 O14 2.071807 1_555
Ni2 O10 2.106070 1_555
Ni2 O11 2.106399 1_555
Ni3 O4 1.861528 1_555
Ni3 O12 1.864176 1_555
Ni3 O10 1.878470 1_555
Ni3 O14 1.889867 1_555
Ni3 O9 1.905497 1_555
Ni3 O0 1.907048 1_655
Ni4 O4 1.861817 1_545
Ni4 O12 1.864219 1_555
Ni4 O11 1.878342 1_555
Ni4 O14 1.889656 1_555
Ni4 O9 1.905505 1_545
Ni4 O5 1.906694 1_655
