# generated using pymatgen
data_Li3Ni5OF11
_symmetry_space_group_name_H-M   'P 1'
_cell_length_a   5.10352062
_cell_length_b   5.49247048
_cell_length_c   9.14332794
_cell_angle_alpha   85.70039406
_cell_angle_beta   72.80018954
_cell_angle_gamma   116.93064688
_symmetry_Int_Tables_number   1
_chemical_formula_structural   Li3Ni5OF11
_chemical_formula_sum   'Li3 Ni5 O1 F11'
_cell_volume   211.61536826
_cell_formula_units_Z   1
loop_
 _symmetry_equiv_pos_site_id
 _symmetry_equiv_pos_as_xyz
  1  'x, y, z'
loop_
 _atom_site_type_symbol
 _atom_site_label
 _atom_site_symmetry_multiplicity
 _atom_site_fract_x
 _atom_site_fract_y
 _atom_site_fract_z
 _atom_site_occupancy
  Li  Li0  1  0.01950000  0.53303800  0.50051600  1
  Li  Li1  1  0.50367600  0.26519700  0.25858400  1
  Li  Li2  1  0.52800600  0.79325300  0.76742000  1
  Ni  Ni0  1  0.30884400  0.74776700  0.14908500  1
  Ni  Ni1  1  0.98278500  0.99182700  0.99669700  1
  Ni  Ni2  1  0.31333300  0.27636400  0.64771000  1
  Ni  Ni3  1  0.81001300  0.01438800  0.40715400  1
  Ni  Ni4  1  0.77827000  0.51048700  0.90349700  1
  O  O0  1  0.60267300  0.75569100  0.95716800  1
  F  F0  1  0.08754700  0.84235600  0.34883400  1
  F  F1  1  0.20397000  0.39938800  0.29916500  1
  F  F2  1  0.21575700  0.91675300  0.78943700  1
  F  F3  1  0.38715100  0.14792500  0.04344800  1
  F  F4  1  0.40958300  0.65783100  0.53901200  1
  F  F5  1  0.08145300  0.35009000  0.85183000  1
  F  F6  1  0.90385500  0.58925000  0.10470400  1
  F  F7  1  0.58547500  0.24170400  0.45223200  1
  F  F8  1  0.71041000  0.00398400  0.20679500  1
  F  F9  1  0.70437200  0.49224300  0.69894700  1
  F  F10  1  0.91309000  0.09486600  0.60264200  1
loop_
_geom_bond_atom_site_label_1
_geom_bond_atom_site_label_2
_geom_bond_distance
_geom_bond_site_symmetry_2
Li2 O0 1.899022 1_555
Ni0 O0 1.924312 1_554
Ni1 O0 1.944711 1_555
Ni4 O0 1.946794 1_555
F0 Li0 1.938501 1_555
F0 Ni3 2.006114 1_465
F0 Ni0 2.082052 1_555
F0 Li1 2.189374 1_565
F1 Li1 1.935711 1_555
F1 Ni0 2.018678 1_555
F1 Ni3 2.037291 1_455
F1 Li0 2.148982 1_555
F2 Li2 1.962144 1_555
F2 Ni2 2.042565 1_565
F2 Ni1 2.098478 1_455
F2 Ni4 2.193833 1_455
F3 Ni4 2.023372 1_554
F3 Ni1 2.037295 1_444
F3 Ni0 2.140320 1_545
F3 Li1 2.274354 1_555
F4 Li0 1.942042 1_555
F4 Ni3 2.007161 1_565
F4 Ni2 2.021306 1_555
F4 Li2 2.419121 1_555
F5 Ni1 2.048718 1_445
F5 Ni4 2.063564 1_455
F5 Ni2 2.070947 1_555
F5 Li2 2.316768 1_555
F6 Li1 1.987695 1_555
F6 Ni0 2.028201 1_655
F6 Ni4 2.132593 1_554
F6 Ni1 2.158046 1_554
F7 Li1 1.943601 1_555
F7 Ni2 1.995535 1_555
F7 Ni3 2.033637 1_555
F7 Li0 2.266161 1_655
F8 Ni1 2.037409 1_544
F8 Ni3 2.039072 1_555
F8 Li1 2.138536 1_555
F8 Ni0 2.144134 1_545
F9 Li0 1.953310 1_655
F9 Ni4 2.015241 1_555
F9 Ni2 2.025061 1_555
F9 Li2 2.259508 1_555
F10 Li2 1.949903 1_545
F10 Ni2 2.012678 1_655
F10 Ni3 2.032457 1_555
F10 Li0 2.266727 1_655
