# generated using pymatgen
data_Li2Si3NiO8
_symmetry_space_group_name_H-M   'P 1'
_cell_length_a   7.93526200
_cell_length_b   7.93526200
_cell_length_c   7.93526200
_cell_angle_alpha   90.00000000
_cell_angle_beta   90.00000000
_cell_angle_gamma   90.00000000
_symmetry_Int_Tables_number   1
_chemical_formula_structural   Li2Si3NiO8
_chemical_formula_sum   'Li8 Si12 Ni4 O32'
_cell_volume   499.67061689
_cell_formula_units_Z   4
loop_
 _symmetry_equiv_pos_site_id
 _symmetry_equiv_pos_as_xyz
  1  'x, y, z'
loop_
 _atom_site_type_symbol
 _atom_site_label
 _atom_site_symmetry_multiplicity
 _atom_site_fract_x
 _atom_site_fract_y
 _atom_site_fract_z
 _atom_site_occupancy
  Li  Li0  1  0.00782500  0.00782500  0.00782500  1
  Li  Li1  1  0.24217500  0.24217500  0.24217500  1
  Li  Li2  1  0.25782500  0.75782500  0.74217500  1
  Li  Li3  1  0.49217500  0.99217500  0.50782500  1
  Li  Li4  1  0.50782500  0.49217500  0.99217500  1
  Li  Li5  1  0.74217500  0.25782500  0.75782500  1
  Li  Li6  1  0.75782500  0.74217500  0.25782500  1
  Li  Li7  1  0.99217500  0.50782500  0.49217500  1
  Si  Si0  1  0.11494900  0.13505100  0.62500000  1
  Si  Si1  1  0.12500000  0.38505100  0.86494900  1
  Si  Si2  1  0.13505100  0.62500000  0.11494900  1
  Si  Si3  1  0.36494900  0.37500000  0.61494900  1
  Si  Si4  1  0.37500000  0.61494900  0.36494900  1
  Si  Si5  1  0.38505100  0.86494900  0.12500000  1
  Si  Si6  1  0.61494900  0.36494900  0.37500000  1
  Si  Si7  1  0.62500000  0.11494900  0.13505100  1
  Si  Si8  1  0.63505100  0.87500000  0.88505100  1
  Si  Si9  1  0.86494900  0.12500000  0.38505100  1
  Si  Si10  1  0.87500000  0.88505100  0.63505100  1
  Si  Si11  1  0.88505100  0.63505100  0.87500000  1
  Ni  Ni0  1  0.12500000  0.87500000  0.37500000  1
  Ni  Ni1  1  0.37500000  0.12500000  0.87500000  1
  Ni  Ni2  1  0.62500000  0.62500000  0.62500000  1
  Ni  Ni3  1  0.87500000  0.37500000  0.12500000  1
  O  O0  1  0.08740800  0.13384700  0.39884700  1
  O  O1  1  0.10115300  0.91259200  0.63384700  1
  O  O2  1  0.11859700  0.61859700  0.88140300  1
  O  O3  1  0.11615300  0.16259200  0.85115300  1
  O  O4  1  0.13384700  0.39884700  0.08740800  1
  O  O5  1  0.13140300  0.36859700  0.63140300  1
  O  O6  1  0.14884700  0.61615300  0.33740800  1
  O  O7  1  0.16259200  0.85115300  0.11615300  1
  O  O8  1  0.33740800  0.14884700  0.61615300  1
  O  O9  1  0.35115300  0.38384700  0.83740800  1
  O  O10  1  0.36859700  0.63140300  0.13140300  1
  O  O11  1  0.36615300  0.60115300  0.58740800  1
  O  O12  1  0.38384700  0.83740800  0.35115300  1
  O  O13  1  0.38140300  0.38140300  0.38140300  1
  O  O14  1  0.39884700  0.08740800  0.13384700  1
  O  O15  1  0.41259200  0.86615300  0.89884700  1
  O  O16  1  0.58740800  0.36615300  0.60115300  1
  O  O17  1  0.60115300  0.58740800  0.36615300  1
  O  O18  1  0.61859700  0.88140300  0.11859700  1
  O  O19  1  0.61615300  0.33740800  0.14884700  1
  O  O20  1  0.63384700  0.10115300  0.91259200  1
  O  O21  1  0.63140300  0.13140300  0.36859700  1
  O  O22  1  0.64884700  0.88384700  0.66259200  1
  O  O23  1  0.66259200  0.64884700  0.88384700  1
  O  O24  1  0.83740800  0.35115300  0.38384700  1
  O  O25  1  0.85115300  0.11615300  0.16259200  1
  O  O26  1  0.86859700  0.86859700  0.86859700  1
  O  O27  1  0.86615300  0.89884700  0.41259200  1
  O  O28  1  0.88384700  0.66259200  0.64884700  1
  O  O29  1  0.88140300  0.11859700  0.61859700  1
  O  O30  1  0.89884700  0.41259200  0.86615300  1
  O  O31  1  0.91259200  0.63384700  0.10115300  1
loop_
_geom_bond_atom_site_label_1
_geom_bond_atom_site_label_2
_geom_bond_distance
_geom_bond_site_symmetry_2
Li0 O26 1.913588 1_444
Li0 O7 1.947519 1_545
Li0 O3 1.947519 1_554
Li0 O25 1.947519 1_455
Li1 O13 1.913588 1_555
Li1 O4 1.947519 1_555
Li1 O0 1.947519 1_555
Li1 O14 1.947519 1_555
Li2 O2 1.913588 1_555
Li2 O11 1.947519 1_555
Li2 O15 1.947519 1_555
Li2 O1 1.947519 1_555
Li3 O21 1.913588 1_565
Li3 O8 1.947519 1_565
Li3 O22 1.947519 1_555
Li3 O12 1.947519 1_555
Li4 O10 1.913588 1_556
Li4 O19 1.947519 1_556
Li4 O9 1.947519 1_555
Li4 O23 1.947519 1_555
Li5 O29 1.913588 1_555
Li5 O30 1.947519 1_555
Li5 O16 1.947519 1_555
Li5 O20 1.947519 1_555
Li6 O18 1.913588 1_555
Li6 O17 1.947519 1_555
Li6 O27 1.947519 1_555
Li6 O31 1.947519 1_555
Li7 O5 1.913588 1_655
Li7 O6 1.947519 1_655
Li7 O28 1.947519 1_555
Li7 O24 1.947519 1_555
Ni0 O12 2.084175 1_555
Ni0 O6 2.084175 1_555
Ni0 O7 2.084175 1_555
Ni0 O0 2.084175 1_565
Ni0 O27 2.084175 1_455
Ni0 O1 2.084175 1_555
Ni1 O14 2.084175 1_556
Ni1 O3 2.084175 1_555
Ni1 O9 2.084175 1_555
Ni1 O20 2.084175 1_555
Ni1 O15 2.084175 1_545
Ni1 O8 2.084175 1_555
Ni2 O11 2.084175 1_555
Ni2 O28 2.084175 1_555
Ni2 O22 2.084175 1_555
Ni2 O16 2.084175 1_555
Ni2 O23 2.084175 1_555
Ni2 O17 2.084175 1_555
Ni3 O31 2.084175 1_555
Ni3 O25 2.084175 1_555
Ni3 O19 2.084175 1_555
Ni3 O30 2.084175 1_554
Ni3 O4 2.084175 1_655
Ni3 O24 2.084175 1_555
O0 Si9 1.770055 1_455
O0 Si0 1.807867 1_555
O1 Si0 1.770055 1_565
O1 Si10 1.807867 1_455
O2 Si2 1.858537 1_556
O2 Si1 1.858537 1_555
O2 Si11 1.858537 1_455
O3 Si1 1.770055 1_555
O3 Si0 1.807867 1_555
O4 Si1 1.770055 1_554
O4 Si2 1.807867 1_555
O5 Si1 1.858537 1_555
O5 Si0 1.858537 1_555
O5 Si3 1.858537 1_555
O6 Si2 1.770055 1_555
O6 Si4 1.807867 1_555
O7 Si5 1.770055 1_555
O7 Si2 1.807867 1_555
O8 Si0 1.770055 1_555
O8 Si3 1.807867 1_555
O9 Si3 1.770055 1_555
O9 Si1 1.807867 1_555
O10 Si5 1.858537 1_555
O10 Si2 1.858537 1_555
O10 Si4 1.858537 1_555
O11 Si4 1.770055 1_555
O11 Si3 1.807867 1_555
O12 Si4 1.770055 1_555
O12 Si5 1.807867 1_555
O13 Si4 1.858537 1_555
O13 Si6 1.858537 1_555
O13 Si3 1.858537 1_555
O14 Si5 1.770055 1_545
O14 Si7 1.807867 1_555
O15 Si8 1.770055 1_555
O15 Si5 1.807867 1_556
O16 Si3 1.770055 1_555
O16 Si6 1.807867 1_555
O17 Si6 1.770055 1_555
O17 Si4 1.807867 1_555
O18 Si7 1.858537 1_565
O18 Si8 1.858537 1_554
O18 Si5 1.858537 1_555
O19 Si7 1.770055 1_555
O19 Si6 1.807867 1_555
O20 Si7 1.770055 1_556
O20 Si8 1.807867 1_545
O21 Si9 1.858537 1_555
O21 Si7 1.858537 1_555
O21 Si6 1.858537 1_555
O22 Si8 1.770055 1_555
O22 Si10 1.807867 1_555
O23 Si11 1.770055 1_555
O23 Si8 1.807867 1_555
O24 Si6 1.770055 1_555
O24 Si9 1.807867 1_555
O25 Si9 1.770055 1_555
O25 Si7 1.807867 1_555
O26 Si10 1.858537 1_555
O26 Si11 1.858537 1_555
O26 Si8 1.858537 1_555
O27 Si10 1.770055 1_555
O27 Si9 1.807867 1_565
O28 Si10 1.770055 1_555
O28 Si11 1.807867 1_555
O29 Si0 1.858537 1_655
O29 Si10 1.858537 1_545
O29 Si9 1.858537 1_555
O30 Si11 1.770055 1_555
O30 Si1 1.807867 1_655
O31 Si2 1.770055 1_655
O31 Si11 1.807867 1_554
