# generated using pymatgen
data_Li2Mn3(BO3)3
_symmetry_space_group_name_H-M   'P 1'
_cell_length_a   14.75215802
_cell_length_b   14.75215802
_cell_length_c   8.24519799
_cell_angle_alpha   89.93845161
_cell_angle_beta   89.93845161
_cell_angle_gamma   24.81583148
_symmetry_Int_Tables_number   1
_chemical_formula_structural   Li2Mn3(BO3)3
_chemical_formula_sum   'Li8 Mn12 B12 O36'
_cell_volume   753.10217733
_cell_formula_units_Z   4
loop_
 _symmetry_equiv_pos_site_id
 _symmetry_equiv_pos_as_xyz
  1  'x, y, z'
loop_
 _atom_site_type_symbol
 _atom_site_label
 _atom_site_symmetry_multiplicity
 _atom_site_fract_x
 _atom_site_fract_y
 _atom_site_fract_z
 _atom_site_occupancy
  Li  Li0  1  0.74363400  0.74363400  0.70595000  1
  Li  Li1  1  0.24367600  0.24367600  0.71048800  1
  Li  Li2  1  0.42895400  0.42895400  0.66040500  1
  Li  Li3  1  0.07367400  0.07367400  0.62805200  1
  Li  Li4  1  0.99404200  0.99404200  0.21093700  1
  Li  Li5  1  0.49356900  0.49356900  0.21053200  1
  Li  Li6  1  0.67893500  0.67893500  0.16285300  1
  Li  Li7  1  0.82320300  0.82320300  0.12665900  1
  Mn  Mn0  1  0.75147500  0.25221400  0.85616300  1
  Mn  Mn1  1  0.25221400  0.75147500  0.85616300  1
  Mn  Mn2  1  0.90611200  0.40081700  0.82912100  1
  Mn  Mn3  1  0.40081700  0.90611200  0.82912100  1
  Mn  Mn4  1  0.59079400  0.09118700  0.81162900  1
  Mn  Mn5  1  0.09118700  0.59079400  0.81162900  1
  Mn  Mn6  1  0.49905800  0.00411300  0.35644900  1
  Mn  Mn7  1  0.00411300  0.49905800  0.35644900  1
  Mn  Mn8  1  0.65779000  0.15076000  0.32908900  1
  Mn  Mn9  1  0.15076000  0.65779000  0.32908900  1
  Mn  Mn10  1  0.84349000  0.33740000  0.31490900  1
  Mn  Mn11  1  0.33740000  0.84349000  0.31490900  1
  B  B0  1  0.99236500  0.50371000  0.99322800  1
  B  B1  1  0.50371000  0.99236500  0.99322800  1
  B  B2  1  0.91561200  0.91561200  0.00136500  1
  B  B3  1  0.41735600  0.41735600  0.00429700  1
  B  B4  1  0.08105200  0.08105200  0.99722300  1
  B  B5  1  0.58144300  0.58144300  0.00772600  1
  B  B6  1  0.75123200  0.24509200  0.49522800  1
  B  B7  1  0.24509200  0.75123200  0.49522800  1
  B  B8  1  0.33119800  0.33119800  0.50687800  1
  B  B9  1  0.83123500  0.83123500  0.49505500  1
  B  B10  1  0.66752000  0.66752000  0.50383000  1
  B  B11  1  0.16509300  0.16509300  0.50337000  1
  O  O0  1  0.46509100  0.46509100  0.98207400  1
  O  O1  1  0.96315200  0.96315200  0.98179000  1
  O  O2  1  0.62988700  0.62988700  0.98815400  1
  O  O3  1  0.12856300  0.12856300  0.97499100  1
  O  O4  1  0.05216300  0.05216300  0.86091100  1
  O  O5  1  0.55285100  0.55285100  0.87717700  1
  O  O6  1  0.88482200  0.88482200  0.87362000  1
  O  O7  1  0.38886500  0.38886500  0.86913500  1
  O  O8  1  0.97713400  0.47426400  0.84310300  1
  O  O9  1  0.47426400  0.97713400  0.84310300  1
  O  O10  1  0.81268000  0.81268000  0.65028300  1
  O  O11  1  0.31321400  0.31321400  0.66513300  1
  O  O12  1  0.65102600  0.65102600  0.66095800  1
  O  O13  1  0.14605800  0.14605800  0.65870100  1
  O  O14  1  0.70536600  0.23988500  0.63447200  1
  O  O15  1  0.23988500  0.70536600  0.63447200  1
  O  O16  1  0.82049600  0.27085900  0.50208400  1
  O  O17  1  0.27085900  0.82049600  0.50208400  1
  O  O18  1  0.21256500  0.21256500  0.48330700  1
  O  O19  1  0.71507300  0.71507300  0.47801900  1
  O  O20  1  0.87889600  0.87889600  0.47327000  1
  O  O21  1  0.37957300  0.37957300  0.48672600  1
  O  O22  1  0.80255300  0.80255300  0.35906400  1
  O  O23  1  0.30223400  0.30223400  0.37697800  1
  O  O24  1  0.63830800  0.63830800  0.36999100  1
  O  O25  1  0.13442000  0.13442000  0.37521800  1
  O  O26  1  0.72818600  0.22439400  0.34389200  1
  O  O27  1  0.22439400  0.72818600  0.34389200  1
  O  O28  1  0.06229400  0.06229400  0.15203900  1
  O  O29  1  0.56331300  0.56331300  0.16598800  1
  O  O30  1  0.89647400  0.89647400  0.15670900  1
  O  O31  1  0.40058500  0.40058500  0.16087400  1
  O  O32  1  0.95821200  0.48699900  0.13394600  1
  O  O33  1  0.48699900  0.95821200  0.13394600  1
  O  O34  1  0.56346500  0.02958300  0.99846500  1
  O  O35  1  0.02958300  0.56346500  0.99846500  1
loop_
_geom_bond_atom_site_label_1
_geom_bond_atom_site_label_2
_geom_bond_distance
_geom_bond_site_symmetry_2
Li0 O9 2.021251 1_555
Li0 O8 2.021251 1_555
Li0 O10 2.041337 1_555
Li0 O19 2.052467 1_555
Li1 O9 1.986416 1_545
Li1 O8 1.986416 1_455
Li1 O11 2.037943 1_555
Li1 O18 2.077511 1_555
Li2 O15 1.950833 1_555
Li2 O14 1.950833 1_555
Li2 O21 2.019867 1_555
Li2 O7 2.071704 1_555
Li3 O16 1.941476 1_455
Li3 O17 1.941476 1_545
Li3 O4 2.016895 1_555
Li3 O13 2.101286 1_555
Li4 O27 1.983966 1_655
Li4 O26 1.983966 1_565
Li4 O28 2.025244 1_665
Li4 O1 2.089418 1_554
Li5 O26 2.001481 1_555
Li5 O27 2.001481 1_555
Li5 O29 2.042572 1_555
Li5 O0 2.055490 1_554
Li6 O32 1.967395 1_555
Li6 O33 1.967395 1_555
Li6 O2 2.019109 1_554
Li6 O24 2.069536 1_555
Li7 O35 1.973070 1_654
Li7 O34 1.973070 1_564
Li7 O22 2.005860 1_555
Li7 O30 2.126076 1_555
Mn0 O14 2.016160 1_555
Mn0 O4 2.150189 1_655
Mn0 O5 2.166856 1_555
Mn0 O0 2.168283 1_555
Mn0 O1 2.198361 1_545
Mn1 O15 2.016160 1_555
Mn1 O4 2.150189 1_565
Mn1 O5 2.166856 1_555
Mn1 O0 2.168283 1_555
Mn1 O1 2.198361 1_455
Mn2 O8 2.084780 1_555
Mn2 O3 2.102024 1_655
Mn2 O13 2.116514 1_655
Mn2 O12 2.119677 1_555
Mn2 O2 2.178165 1_555
Mn3 O9 2.084780 1_555
Mn3 O3 2.102024 1_565
Mn3 O13 2.116514 1_565
Mn3 O12 2.119677 1_555
Mn3 O2 2.178165 1_555
Mn4 O34 2.005581 1_555
Mn4 O6 2.091346 1_545
Mn4 O11 2.147021 1_555
Mn4 O7 2.153432 1_555
Mn4 O10 2.225647 1_545
Mn5 O35 2.005581 1_555
Mn5 O6 2.091346 1_455
Mn5 O11 2.147021 1_555
Mn5 O7 2.153432 1_555
Mn5 O10 2.225647 1_455
Mn6 O33 2.019380 1_545
Mn6 O23 2.149546 1_555
Mn6 O19 2.161556 1_545
Mn6 O22 2.172645 1_545
Mn6 O18 2.194783 1_555
Mn7 O32 2.019380 1_455
Mn7 O23 2.149546 1_555
Mn7 O19 2.161556 1_455
Mn7 O22 2.172645 1_455
Mn7 O18 2.194783 1_555
Mn8 O26 2.078870 1_555
Mn8 O20 2.094733 1_545
Mn8 O30 2.124410 1_545
Mn8 O31 2.125640 1_555
Mn8 O21 2.185635 1_555
Mn9 O27 2.078870 1_555
Mn9 O20 2.094733 1_455
Mn9 O30 2.124410 1_455
Mn9 O31 2.125640 1_555
Mn9 O21 2.185635 1_555
Mn10 O16 2.015066 1_555
Mn10 O25 2.074947 1_655
Mn10 O24 2.164082 1_555
Mn10 O29 2.166682 1_555
Mn10 O28 2.216949 1_655
Mn11 O17 2.015066 1_555
Mn11 O25 2.074947 1_565
Mn11 O24 2.164082 1_555
Mn11 O29 2.166682 1_555
Mn11 O28 2.216949 1_565
B0 O32 1.372734 1_556
B0 O8 1.396528 1_555
B0 O35 1.399686 1_655
B1 O33 1.372734 1_556
B1 O9 1.396528 1_555
B1 O34 1.399686 1_565
B2 O6 1.377904 1_554
B2 O1 1.379172 1_554
B2 O30 1.393957 1_555
B3 O31 1.377995 1_555
B3 O7 1.384912 1_554
B3 O0 1.387443 1_554
B4 O3 1.381055 1_555
B4 O28 1.385663 1_556
B4 O4 1.399361 1_555
B5 O5 1.356236 1_554
B5 O2 1.405043 1_554
B5 O29 1.405059 1_555
B6 O14 1.369062 1_555
B6 O16 1.377314 1_555
B6 O26 1.398566 1_555
B7 O15 1.369062 1_555
B7 O17 1.377314 1_555
B7 O27 1.398566 1_555
B8 O23 1.358558 1_555
B8 O11 1.403451 1_555
B8 O21 1.403621 1_555
B9 O20 1.384861 1_555
B9 O10 1.386531 1_555
B9 O22 1.393684 1_555
B10 O12 1.379488 1_555
B10 O19 1.386445 1_555
B10 O24 1.388654 1_555
B11 O18 1.377699 1_555
B11 O25 1.378306 1_555
B11 O13 1.392690 1_555
