# generated using pymatgen
data_H2CS3
_symmetry_space_group_name_H-M   'P 1'
_cell_length_a   23.21684000
_cell_length_b   6.06247500
_cell_length_c   13.70653305
_cell_angle_alpha   88.30306690
_cell_angle_beta   90.00000000
_cell_angle_gamma   90.00000000
_symmetry_Int_Tables_number   1
_chemical_formula_structural   H2CS3
_chemical_formula_sum   'H32 C16 S48'
_cell_volume   1928.36918777
_cell_formula_units_Z   16
loop_
 _symmetry_equiv_pos_site_id
 _symmetry_equiv_pos_as_xyz
  1  'x, y, z'
loop_
 _atom_site_type_symbol
 _atom_site_label
 _atom_site_symmetry_multiplicity
 _atom_site_fract_x
 _atom_site_fract_y
 _atom_site_fract_z
 _atom_site_occupancy
  H  H0  1  0.71359600  0.26896000  0.57097800  1
  H  H1  1  0.21359600  0.73104000  0.92902200  1
  H  H2  1  0.28640400  0.73104000  0.42902200  1
  H  H3  1  0.78640400  0.26896000  0.07097800  1
  H  H4  1  0.72374500  0.55912200  0.65698300  1
  H  H5  1  0.22374500  0.44087800  0.84301700  1
  H  H6  1  0.27625500  0.44087800  0.34301700  1
  H  H7  1  0.77625500  0.55912200  0.15698300  1
  H  H8  1  0.41279200  0.77038800  0.73456500  1
  H  H9  1  0.91279200  0.22961200  0.76543500  1
  H  H10  1  0.58720800  0.22961200  0.26543500  1
  H  H11  1  0.08720800  0.77038800  0.23456500  1
  H  H12  1  0.55767700  0.98977100  0.60646800  1
  H  H13  1  0.05767700  0.01022900  0.89353200  1
  H  H14  1  0.44232300  0.01022900  0.39353200  1
  H  H15  1  0.94232300  0.98977100  0.10646800  1
  H  H16  1  0.62067500  0.22322100  0.06214300  1
  H  H17  1  0.12067500  0.77677900  0.43785700  1
  H  H18  1  0.37932500  0.77677900  0.93785700  1
  H  H19  1  0.87932500  0.22322100  0.56214300  1
  H  H20  1  0.52402500  0.50048300  0.84998100  1
  H  H21  1  0.02402500  0.49951700  0.65001900  1
  H  H22  1  0.47597500  0.49951700  0.15001900  1
  H  H23  1  0.97597500  0.50048300  0.34998100  1
  H  H24  1  0.84162600  0.84118900  0.76878300  1
  H  H25  1  0.34162600  0.15881100  0.73121700  1
  H  H26  1  0.15837400  0.15881100  0.23121700  1
  H  H27  1  0.65837400  0.84118900  0.26878300  1
  H  H28  1  0.68484000  0.96813000  0.87972400  1
  H  H29  1  0.18484000  0.03187000  0.62027600  1
  H  H30  1  0.31516000  0.03187000  0.12027600  1
  H  H31  1  0.81516000  0.96813000  0.37972400  1
  C  C0  1  0.64419400  0.55595400  0.54529700  1
  C  C1  1  0.14419400  0.44404600  0.95470300  1
  C  C2  1  0.35580600  0.44404600  0.45470300  1
  C  C3  1  0.85580600  0.55595400  0.04529700  1
  C  C4  1  0.48207400  0.04916900  0.72004600  1
  C  C5  1  0.98207400  0.95083100  0.77995400  1
  C  C6  1  0.51792600  0.95083100  0.27995400  1
  C  C7  1  0.01792600  0.04916900  0.22004600  1
  C  C8  1  0.60548800  0.52628200  0.95575000  1
  C  C9  1  0.10548800  0.47371800  0.54425000  1
  C  C10  1  0.39451200  0.47371800  0.04425000  1
  C  C11  1  0.89451200  0.52628200  0.45575000  1
  C  C12  1  0.76387800  0.08176900  0.77809900  1
  C  C13  1  0.26387800  0.91823100  0.72190100  1
  C  C14  1  0.23612200  0.91823100  0.22190100  1
  C  C15  1  0.73612200  0.08176900  0.27809900  1
  S  S0  1  0.58625400  0.66334000  0.49130900  1
  S  S1  1  0.08625400  0.33666000  0.00869100  1
  S  S2  1  0.41374600  0.33666000  0.50869100  1
  S  S3  1  0.91374600  0.66334000  0.99130900  1
  S  S4  1  0.66568400  0.29255900  0.51342900  1
  S  S5  1  0.16568400  0.70744100  0.98657100  1
  S  S6  1  0.33431600  0.70744100  0.48657100  1
  S  S7  1  0.83431600  0.29255900  0.01342900  1
  S  S8  1  0.68074100  0.70558900  0.63166600  1
  S  S9  1  0.18074100  0.29441100  0.86833400  1
  S  S10  1  0.31925900  0.29441100  0.36833400  1
  S  S11  1  0.81925900  0.70558900  0.13166600  1
  S  S12  1  0.44893900  0.19178300  0.80499600  1
  S  S13  1  0.94893900  0.80821700  0.69500400  1
  S  S14  1  0.55106100  0.80821700  0.19500400  1
  S  S15  1  0.05106100  0.19178300  0.30499600  1
  S  S16  1  0.46076800  0.79289200  0.67789900  1
  S  S17  1  0.96076800  0.20710800  0.82210100  1
  S  S18  1  0.53923200  0.20710800  0.32210100  1
  S  S19  1  0.03923200  0.79289200  0.17789900  1
  S  S20  1  0.54338600  0.16003400  0.66548400  1
  S  S21  1  0.04338600  0.83996600  0.83451600  1
  S  S22  1  0.45661400  0.83996600  0.33451600  1
  S  S23  1  0.95661400  0.16003400  0.16548400  1
  S  S24  1  0.66345500  0.64908700  0.99915600  1
  S  S25  1  0.16345500  0.35091300  0.50084400  1
  S  S26  1  0.33654500  0.35091300  0.00084400  1
  S  S27  1  0.83654500  0.64908700  0.49915600  1
  S  S28  1  0.57997600  0.26610400  0.99280300  1
  S  S29  1  0.07997600  0.73389600  0.50719700  1
  S  S30  1  0.42002400  0.73389600  0.00719700  1
  S  S31  1  0.92002400  0.26610400  0.49280300  1
  S  S32  1  0.56497500  0.65923600  0.86528200  1
  S  S33  1  0.06497500  0.34076400  0.63471800  1
  S  S34  1  0.43502500  0.34076400  0.13471800  1
  S  S35  1  0.93502500  0.65923600  0.36528200  1
  S  S36  1  0.79609700  0.25509300  0.69865800  1
  S  S37  1  0.29609700  0.74490700  0.80134200  1
  S  S38  1  0.20390300  0.74490700  0.30134200  1
  S  S39  1  0.70390300  0.25509300  0.19865800  1
  S  S40  1  0.79201400  0.83368400  0.82238000  1
  S  S41  1  0.29201400  0.16631600  0.67762000  1
  S  S42  1  0.20798600  0.16631600  0.17762000  1
  S  S43  1  0.70798600  0.83368400  0.32238000  1
  S  S44  1  0.69675100  0.15270600  0.82197000  1
  S  S45  1  0.19675100  0.84729400  0.67803000  1
  S  S46  1  0.30324900  0.84729400  0.17803000  1
  S  S47  1  0.80324900  0.15270600  0.32197000  1
loop_
_geom_bond_atom_site_label_1
_geom_bond_atom_site_label_2
_geom_bond_distance
_geom_bond_site_symmetry_2
H0 S4 1.368701 1_555
H1 S5 1.368701 1_555
H2 S6 1.368701 1_555
H3 S7 1.368701 1_555
H4 S8 1.373849 1_555
H5 S9 1.373849 1_555
H6 S10 1.373849 1_555
H7 S11 1.373849 1_555
H8 S16 1.362445 1_555
H9 S17 1.362445 1_555
H10 S18 1.362445 1_555
H11 S19 1.362445 1_555
H12 S20 1.370887 1_565
H13 S21 1.370887 1_545
H14 S22 1.370887 1_545
H15 S23 1.370887 1_565
H16 S28 1.359807 1_554
H17 S29 1.359807 1_555
H18 S30 1.359807 1_556
H19 S31 1.359807 1_555
H20 S32 1.373357 1_555
H21 S33 1.373357 1_555
H22 S34 1.373357 1_555
H23 S35 1.373357 1_555
H24 S40 1.366196 1_555
H25 S41 1.366196 1_555
H26 S42 1.366196 1_555
H27 S43 1.366196 1_555
H28 S44 1.379415 1_565
H29 S45 1.379415 1_545
H30 S46 1.379415 1_545
H31 S47 1.379415 1_565
C0 S0 1.659037 1_555
C0 S8 1.734339 1_555
C0 S4 1.740944 1_555
C1 S1 1.659037 1_556
C1 S9 1.734339 1_555
C1 S5 1.740944 1_555
C2 S2 1.659037 1_555
C2 S10 1.734339 1_555
C2 S6 1.740944 1_555
C3 S3 1.659037 1_554
C3 S11 1.734339 1_555
C3 S7 1.740944 1_555
C4 S12 1.659732 1_555
C4 S20 1.734223 1_555
C4 S16 1.745127 1_545
C5 S13 1.659732 1_555
C5 S21 1.734223 1_655
C5 S17 1.745127 1_565
C6 S14 1.659732 1_555
C6 S22 1.734223 1_555
C6 S18 1.745127 1_565
C7 S15 1.659732 1_555
C7 S23 1.734223 1_455
C7 S19 1.745127 1_545
C8 S24 1.657010 1_555
C8 S32 1.735740 1_555
C8 S28 1.746214 1_555
C9 S25 1.657010 1_555
C9 S33 1.735740 1_555
C9 S29 1.746214 1_555
C10 S26 1.657010 1_555
C10 S34 1.735740 1_555
C10 S30 1.746214 1_555
C11 S27 1.657010 1_555
C11 S35 1.735740 1_555
C11 S31 1.746214 1_555
C12 S36 1.667788 1_555
C12 S44 1.729363 1_555
C12 S40 1.732935 1_545
C13 S37 1.667788 1_555
C13 S45 1.729363 1_555
C13 S41 1.732935 1_565
C14 S38 1.667788 1_555
C14 S46 1.729363 1_555
C14 S42 1.732935 1_565
C15 S39 1.667788 1_555
C15 S47 1.729363 1_555
C15 S43 1.732935 1_545
