# generated using pymatgen
data_V2Cr(PO4)3
_symmetry_space_group_name_H-M   'P 1'
_cell_length_a   8.57983364
_cell_length_b   8.57983364
_cell_length_c   8.57983352
_cell_angle_alpha   60.19478459
_cell_angle_beta   60.19478459
_cell_angle_gamma   60.19478691
_symmetry_Int_Tables_number   1
_chemical_formula_structural   V2Cr(PO4)3
_chemical_formula_sum   'V4 Cr2 P6 O24'
_cell_volume   448.57284341
_cell_formula_units_Z   2
loop_
 _symmetry_equiv_pos_site_id
 _symmetry_equiv_pos_as_xyz
  1  'x, y, z'
loop_
 _atom_site_type_symbol
 _atom_site_label
 _atom_site_symmetry_multiplicity
 _atom_site_fract_x
 _atom_site_fract_y
 _atom_site_fract_z
 _atom_site_occupancy
  V  V0  1  0.35636600  0.35636600  0.35636600  1
  V  V1  1  0.85636600  0.85636600  0.85636600  1
  V  V2  1  0.14363400  0.14363400  0.14363400  1
  V  V3  1  0.64363400  0.64363400  0.64363400  1
  Cr  Cr0  1  0.00000000  0.00000000  0.00000000  1
  Cr  Cr1  1  0.50000000  0.50000000  0.50000000  1
  P  P0  1  0.75000000  0.04309700  0.45690300  1
  P  P1  1  0.04309700  0.45690300  0.75000000  1
  P  P2  1  0.45690300  0.75000000  0.04309700  1
  P  P3  1  0.54309700  0.25000000  0.95690300  1
  P  P4  1  0.95690300  0.54309700  0.25000000  1
  P  P5  1  0.25000000  0.95690300  0.54309700  1
  O  O0  1  0.88469600  0.49354900  0.68974300  1
  O  O1  1  0.49354900  0.68974300  0.88469600  1
  O  O2  1  0.68974300  0.88469600  0.49354900  1
  O  O3  1  0.91322800  0.05976100  0.25925300  1
  O  O4  1  0.81025700  0.00645100  0.61530400  1
  O  O5  1  0.58677200  0.24074700  0.44023900  1
  O  O6  1  0.05976100  0.25925300  0.91322800  1
  O  O7  1  0.24074700  0.44023900  0.58677200  1
  O  O8  1  0.38469600  0.18974300  0.99354900  1
  O  O9  1  0.44023900  0.58677200  0.24074700  1
  O  O10  1  0.74074700  0.08677200  0.94023900  1
  O  O11  1  0.99354900  0.38469600  0.18974300  1
  O  O12  1  0.00645100  0.61530400  0.81025700  1
  O  O13  1  0.25925300  0.91322800  0.05976100  1
  O  O14  1  0.55976100  0.41322800  0.75925300  1
  O  O15  1  0.61530400  0.81025700  0.00645100  1
  O  O16  1  0.75925300  0.55976100  0.41322800  1
  O  O17  1  0.94023900  0.74074700  0.08677200  1
  O  O18  1  0.41322800  0.75925300  0.55976100  1
  O  O19  1  0.18974300  0.99354900  0.38469600  1
  O  O20  1  0.08677200  0.94023900  0.74074700  1
  O  O21  1  0.31025700  0.11530400  0.50645100  1
  O  O22  1  0.50645100  0.31025700  0.11530400  1
  O  O23  1  0.11530400  0.50645100  0.31025700  1
loop_
_geom_bond_atom_site_label_1
_geom_bond_atom_site_label_2
_geom_bond_distance
_geom_bond_site_symmetry_2
Cr0 O3 2.207477 1_455
Cr0 O20 2.207477 1_544
Cr0 O6 2.207477 1_554
Cr0 O17 2.207477 1_445
Cr0 O13 2.207477 1_545
Cr0 O10 2.207477 1_454
Cr1 O14 2.207477 1_555
Cr1 O9 2.207477 1_555
Cr1 O16 2.207477 1_555
Cr1 O7 2.207477 1_555
Cr1 O18 2.207477 1_555
Cr1 O5 2.207477 1_555
O0 P1 1.524883 1_655
O0 V3 1.936954 1_555
O1 P2 1.524883 1_556
O1 V3 1.936954 1_555
O2 P0 1.524883 1_565
O2 V3 1.936954 1_555
O3 P0 1.566719 1_555
O3 V2 2.040808 1_655
O4 P0 1.524883 1_555
O4 V1 1.936954 1_545
O5 P0 1.566719 1_555
O5 V0 2.040808 1_555
O6 P1 1.566719 1_555
O6 V2 2.040808 1_556
O7 P1 1.566719 1_555
O7 V0 2.040808 1_555
O8 P3 1.524883 1_555
O8 V2 1.936954 1_556
O9 P2 1.566719 1_555
O9 V0 2.040808 1_555
O10 P3 1.566719 1_555
O10 V1 2.040808 1_545
O11 P4 1.524883 1_555
O11 V2 1.936954 1_655
O12 P1 1.524883 1_555
O12 V1 1.936954 1_455
O13 P2 1.566719 1_555
O13 V2 2.040808 1_565
O14 P3 1.566719 1_555
O14 V3 2.040808 1_555
O15 P2 1.524883 1_555
O15 V1 1.936954 1_554
O16 P4 1.566719 1_555
O16 V3 2.040808 1_555
O17 P4 1.566719 1_555
O17 V1 2.040808 1_554
O18 P5 1.566719 1_555
O18 V3 2.040808 1_555
O19 P5 1.524883 1_555
O19 V2 1.936954 1_565
O20 P5 1.566719 1_555
O20 V1 2.040808 1_455
O21 P5 1.524883 1_545
O21 V0 1.936954 1_555
O22 P3 1.524883 1_554
O22 V0 1.936954 1_555
O23 P4 1.524883 1_455
O23 V0 1.936954 1_555
