# generated using pymatgen
data_Li8NbS6
_symmetry_space_group_name_H-M   'P 1'
_cell_length_a   7.28457633
_cell_length_b   7.28457633
_cell_length_c   7.28457663
_cell_angle_alpha   55.28792447
_cell_angle_beta   55.28792447
_cell_angle_gamma   55.28793088
_symmetry_Int_Tables_number   1
_chemical_formula_structural   Li8NbS6
_chemical_formula_sum   'Li8 Nb1 S6'
_cell_volume   243.40501844
_cell_formula_units_Z   1
loop_
 _symmetry_equiv_pos_site_id
 _symmetry_equiv_pos_as_xyz
  1  'x, y, z'
loop_
 _atom_site_type_symbol
 _atom_site_label
 _atom_site_symmetry_multiplicity
 _atom_site_fract_x
 _atom_site_fract_y
 _atom_site_fract_z
 _atom_site_occupancy
  Li  Li0  1  0.51964100  0.89581700  0.22608500  1
  Li  Li1  1  0.77391500  0.48035900  0.10418300  1
  Li  Li2  1  0.10418300  0.77391500  0.48035900  1
  Li  Li3  1  0.65907900  0.65907900  0.65907900  1
  Li  Li4  1  0.34092100  0.34092100  0.34092100  1
  Li  Li5  1  0.89581700  0.22608500  0.51964100  1
  Li  Li6  1  0.22608500  0.51964100  0.89581700  1
  Li  Li7  1  0.48035900  0.10418300  0.77391500  1
  Nb  Nb0  1  0.00000000  0.00000000  0.00000000  1
  S  S0  1  0.38374100  0.76124600  0.08864200  1
  S  S1  1  0.91135800  0.61625900  0.23875400  1
  S  S2  1  0.23875400  0.91135800  0.61625900  1
  S  S3  1  0.76124600  0.08864200  0.38374100  1
  S  S4  1  0.08864200  0.38374100  0.76124600  1
  S  S5  1  0.61625900  0.23875400  0.91135800  1
loop_
_geom_bond_atom_site_label_1
_geom_bond_atom_site_label_2
_geom_bond_distance
_geom_bond_site_symmetry_2
Li0 S5 2.373635 1_564
Li0 S2 2.399392 1_555
Li0 S1 2.401203 1_555
Li0 S0 2.509062 1_555
Li1 S4 2.373635 1_654
Li1 S0 2.399392 1_555
Li1 S3 2.401203 1_555
Li1 S1 2.509062 1_555
Li2 S3 2.373635 1_465
Li2 S4 2.399392 1_555
Li2 S0 2.401203 1_555
Li2 S2 2.509062 1_555
Li3 S5 2.622225 1_555
Li3 S1 2.622225 1_555
Li3 S2 2.622225 1_555
Li3 S3 2.858812 1_565
Li3 S0 2.858812 1_556
Li3 S4 2.858812 1_655
Li4 S0 2.622225 1_555
Li4 S4 2.622225 1_555
Li4 S3 2.622225 1_555
Li4 S2 2.858812 1_545
Li4 S5 2.858812 1_554
Li4 S1 2.858812 1_455
Li5 S2 2.373635 1_645
Li5 S1 2.399392 1_555
Li5 S5 2.401203 1_555
Li5 S3 2.509062 1_555
Li6 S1 2.373635 1_456
Li6 S5 2.399392 1_555
Li6 S2 2.401203 1_555
Li6 S4 2.509062 1_555
Li7 S0 2.373635 1_546
Li7 S3 2.399392 1_555
Li7 S4 2.401203 1_555
Li7 S5 2.509062 1_555
Nb0 S4 2.548654 1_554
Nb0 S1 2.548654 1_445
Nb0 S3 2.548655 1_455
Nb0 S2 2.548655 1_544
Nb0 S0 2.548655 1_545
Nb0 S5 2.548655 1_454
