# generated using pymatgen
data_Li4Mn2Si3O10
_symmetry_space_group_name_H-M   'P 1'
_cell_length_a   5.40043806
_cell_length_b   5.40043806
_cell_length_c   17.20884901
_cell_angle_alpha   81.45668858
_cell_angle_beta   81.45668858
_cell_angle_gamma   60.81818119
_symmetry_Int_Tables_number   1
_chemical_formula_structural   Li4Mn2Si3O10
_chemical_formula_sum   'Li8 Mn4 Si6 O20'
_cell_volume   431.64004865
_cell_formula_units_Z   2
loop_
 _symmetry_equiv_pos_site_id
 _symmetry_equiv_pos_as_xyz
  1  'x, y, z'
loop_
 _atom_site_type_symbol
 _atom_site_label
 _atom_site_symmetry_multiplicity
 _atom_site_fract_x
 _atom_site_fract_y
 _atom_site_fract_z
 _atom_site_occupancy
  Li  Li0  1  0.83097600  0.67743200  0.94744000  1
  Li  Li1  1  0.57897800  0.79019800  0.77073700  1
  Li  Li2  1  0.67743200  0.83097600  0.44744000  1
  Li  Li3  1  0.79019800  0.57897800  0.27073700  1
  Li  Li4  1  0.20980200  0.42102200  0.72926300  1
  Li  Li5  1  0.32256800  0.16902400  0.55256000  1
  Li  Li6  1  0.42102200  0.20980200  0.22926300  1
  Li  Li7  1  0.16902400  0.32256800  0.05256000  1
  Mn  Mn0  1  0.19749300  0.01364400  0.91592400  1
  Mn  Mn1  1  0.01364400  0.19749300  0.41592400  1
  Mn  Mn2  1  0.98635600  0.80250700  0.58407600  1
  Mn  Mn3  1  0.80250700  0.98635600  0.08407600  1
  Si  Si0  1  0.65939800  0.46421700  0.59912200  1
  Si  Si1  1  0.88366400  0.11633600  0.75000000  1
  Si  Si2  1  0.53578300  0.34060200  0.90087800  1
  Si  Si3  1  0.46421700  0.65939800  0.09912200  1
  Si  Si4  1  0.11633600  0.88366400  0.25000000  1
  Si  Si5  1  0.34060200  0.53578300  0.40087800  1
  O  O0  1  0.91859700  0.83987400  0.71341600  1
  O  O1  1  0.83987400  0.91859700  0.21341600  1
  O  O2  1  0.61071300  0.78078000  0.56476300  1
  O  O3  1  0.57101900  0.62912400  0.88856800  1
  O  O4  1  0.78040200  0.41131200  0.68791600  1
  O  O5  1  0.78054100  0.07580700  0.95220200  1
  O  O6  1  0.92419300  0.21945900  0.54779800  1
  O  O7  1  0.78078000  0.61071300  0.06476300  1
  O  O8  1  0.62912400  0.57101900  0.38856800  1
  O  O9  1  0.58868800  0.21959800  0.81208400  1
  O  O10  1  0.41131200  0.78040200  0.18791600  1
  O  O11  1  0.37087600  0.42898100  0.61143200  1
  O  O12  1  0.21922000  0.38928700  0.93523700  1
  O  O13  1  0.07580700  0.78054100  0.45220200  1
  O  O14  1  0.21945900  0.92419300  0.04779800  1
  O  O15  1  0.21959800  0.58868800  0.31208400  1
  O  O16  1  0.42898100  0.37087600  0.11143200  1
  O  O17  1  0.38928700  0.21922000  0.43523700  1
  O  O18  1  0.16012600  0.08140300  0.78658400  1
  O  O19  1  0.08140300  0.16012600  0.28658400  1
loop_
_geom_bond_atom_site_label_1
_geom_bond_atom_site_label_2
_geom_bond_distance
_geom_bond_site_symmetry_2
Li0 O12 1.909528 1_655
Li0 O3 1.980814 1_555
Li0 O7 1.999034 1_556
Li0 O5 2.045421 1_565
Li1 O18 2.034536 1_565
Li1 O0 2.067016 1_555
Li1 O3 2.087278 1_555
Li1 O4 2.374173 1_555
Li1 O9 2.550776 1_565
Li2 O17 1.909528 1_565
Li2 O8 1.980814 1_555
Li2 O2 1.999034 1_555
Li2 O13 2.045421 1_655
Li3 O19 2.034536 1_655
Li3 O1 2.067016 1_555
Li3 O8 2.087278 1_555
Li3 O10 2.374173 1_555
Li3 O15 2.550776 1_655
Li4 O0 2.034536 1_455
Li4 O18 2.067016 1_555
Li4 O11 2.087278 1_555
Li4 O9 2.374173 1_555
Li4 O4 2.550776 1_455
Li5 O2 1.909528 1_545
Li5 O11 1.980814 1_555
Li5 O17 1.999034 1_555
Li5 O6 2.045421 1_455
Li6 O1 2.034536 1_545
Li6 O19 2.067016 1_555
Li6 O16 2.087278 1_555
Li6 O15 2.374173 1_555
Li6 O10 2.550776 1_545
Li7 O7 1.909528 1_455
Li7 O16 1.980814 1_555
Li7 O12 1.999034 1_554
Li7 O14 2.045421 1_545
Mn0 O5 2.116640 1_455
Mn0 O3 2.127524 1_545
Mn0 O12 2.164168 1_555
Mn0 O18 2.224461 1_555
Mn0 O14 2.257430 1_546
Mn1 O13 2.116640 1_545
Mn1 O8 2.127524 1_455
Mn1 O17 2.164168 1_555
Mn1 O19 2.224461 1_555
Mn1 O6 2.257430 1_455
Mn2 O6 2.116640 1_565
Mn2 O11 2.127524 1_655
Mn2 O2 2.164168 1_555
Mn2 O0 2.224461 1_555
Mn2 O13 2.257430 1_655
Mn3 O14 2.116640 1_655
Mn3 O16 2.127524 1_565
Mn3 O7 2.164168 1_555
Mn3 O1 2.224461 1_555
Mn3 O5 2.257430 1_564
O0 Si1 1.621839 1_565
O1 Si4 1.621839 1_655
O2 Si0 1.627554 1_555
O3 Si2 1.639509 1_555
O4 Si1 1.671872 1_555
O4 Si0 1.681806 1_555
O5 Si2 1.643329 1_555
O6 Si0 1.643329 1_555
O7 Si3 1.627554 1_555
O8 Si5 1.639509 1_555
O9 Si1 1.671872 1_555
O9 Si2 1.681806 1_555
O10 Si4 1.671872 1_555
O10 Si3 1.681806 1_555
O11 Si0 1.639509 1_555
O12 Si2 1.627554 1_555
O13 Si5 1.643329 1_555
O14 Si3 1.643329 1_555
O15 Si4 1.671872 1_555
O15 Si5 1.681806 1_555
O16 Si3 1.639509 1_555
O17 Si5 1.627554 1_555
O18 Si1 1.621839 1_455
O19 Si4 1.621839 1_545
