# generated using pymatgen
data_Mn6O7F5
_symmetry_space_group_name_H-M   'P 1'
_cell_length_a   7.93155680
_cell_length_b   5.60879714
_cell_length_c   5.60879714
_cell_angle_alpha   68.10548021
_cell_angle_beta   68.06829297
_cell_angle_gamma   68.06829297
_symmetry_Int_Tables_number   1
_chemical_formula_structural   Mn6O7F5
_chemical_formula_sum   'Mn6 O7 F5'
_cell_volume   206.65885245
_cell_formula_units_Z   1
loop_
 _symmetry_equiv_pos_site_id
 _symmetry_equiv_pos_as_xyz
  1  'x, y, z'
loop_
 _atom_site_type_symbol
 _atom_site_label
 _atom_site_symmetry_multiplicity
 _atom_site_fract_x
 _atom_site_fract_y
 _atom_site_fract_z
 _atom_site_occupancy
  Mn  Mn0  1  0.83414700  0.66642000  0.66642000  1
  Mn  Mn1  1  0.65471200  0.33671100  0.33671100  1
  Mn  Mn2  1  0.32737400  0.65824000  0.65824000  1
  Mn  Mn3  1  0.18971800  0.34362100  0.34362100  1
  Mn  Mn4  1  0.49467000  0.99783800  0.99783800  1
  Mn  Mn5  1  0.00359200  0.00377800  0.00377800  1
  O  O0  1  0.66622500  0.03071900  0.63679600  1
  O  O1  1  0.33007200  0.36024200  0.97219700  1
  O  O2  1  0.38247100  0.43420500  0.43420500  1
  O  O3  1  0.33007200  0.97219700  0.36024200  1
  O  O4  1  0.66622500  0.63679600  0.03071900  1
  O  O5  1  0.00469500  0.30409300  0.69652200  1
  O  O6  1  0.00469500  0.69652200  0.30409300  1
  F  F0  1  0.29893100  0.88234300  0.88234300  1
  F  F1  1  0.63892300  0.55212700  0.55212700  1
  F  F2  1  0.94648300  0.23232900  0.23232900  1
  F  F3  1  0.69981000  0.11165400  0.11165400  1
  F  F4  1  0.02718600  0.78016300  0.78016300  1
loop_
_geom_bond_atom_site_label_1
_geom_bond_atom_site_label_2
_geom_bond_distance
_geom_bond_site_symmetry_2
Mn0 O5 1.962000 1_655
Mn0 O6 1.962000 1_655
Mn0 O4 1.963599 1_556
Mn0 O0 1.963599 1_565
Mn1 O0 1.905287 1_555
Mn1 O4 1.905287 1_555
Mn1 O2 1.928611 1_555
Mn2 O3 1.923875 1_555
Mn2 O1 1.923875 1_555
Mn2 O2 1.925119 1_555
Mn3 O1 1.946318 1_554
Mn3 O3 1.946318 1_545
Mn3 O5 1.966345 1_555
Mn3 O6 1.966345 1_555
Mn3 O2 2.050993 1_555
Mn4 O3 1.948505 1_556
Mn4 O1 1.948505 1_565
Mn4 O4 1.958775 1_556
Mn4 O0 1.958775 1_565
Mn5 O5 1.908411 1_554
Mn5 O6 1.908411 1_545
F0 Mn2 1.991328 1_555
F0 Mn5 2.092228 1_566
F0 Mn4 2.250565 1_555
F1 Mn1 1.948836 1_555
F1 Mn2 2.209429 1_555
F1 Mn0 2.238072 1_555
F2 Mn5 1.962074 1_655
F2 Mn1 2.067000 1_555
F2 Mn3 2.567291 1_655
F3 Mn1 1.956662 1_555
F3 Mn5 2.152367 1_655
F3 Mn4 2.306110 1_544
F4 Mn5 2.000907 1_566
F4 Mn2 2.126139 1_555
F4 Mn0 2.218357 1_455
