# generated using pymatgen
data_Pr2S3O20
_symmetry_space_group_name_H-M   'P 1'
_cell_length_a   6.56805863
_cell_length_b   6.56805863
_cell_length_c   20.26740043
_cell_angle_alpha   86.69038897
_cell_angle_beta   86.69038897
_cell_angle_gamma   61.51936877
_symmetry_Int_Tables_number   1
_chemical_formula_structural   Pr2S3O20
_chemical_formula_sum   'Pr4 S6 O40'
_cell_volume   766.77502342
_cell_formula_units_Z   2
loop_
 _symmetry_equiv_pos_site_id
 _symmetry_equiv_pos_as_xyz
  1  'x, y, z'
loop_
 _atom_site_type_symbol
 _atom_site_label
 _atom_site_symmetry_multiplicity
 _atom_site_fract_x
 _atom_site_fract_y
 _atom_site_fract_z
 _atom_site_occupancy
  Pr  Pr0  1  0.20589500  0.19269400  0.12126800  1
  Pr  Pr1  1  0.19269400  0.20589500  0.62126800  1
  Pr  Pr2  1  0.89628300  0.89271700  0.88833500  1
  Pr  Pr3  1  0.89271700  0.89628300  0.38833500  1
  S  S0  1  0.37118800  0.71522800  0.25281600  1
  S  S1  1  0.71522800  0.37118800  0.75281600  1
  S  S2  1  0.86529100  0.85454200  0.08044300  1
  S  S3  1  0.85454200  0.86529100  0.58044300  1
  S  S4  1  0.23295300  0.22511100  0.92814400  1
  S  S5  1  0.22511100  0.23295300  0.42814400  1
  O  O0  1  0.90852300  0.87126800  0.00840600  1
  O  O1  1  0.87126800  0.90852300  0.50840600  1
  O  O2  1  0.99520600  0.95077800  0.11666700  1
  O  O3  1  0.95077800  0.99520600  0.61666700  1
  O  O4  1  0.61609700  0.98355000  0.09700300  1
  O  O5  1  0.98355000  0.61609700  0.59700300  1
  O  O6  1  0.96310100  0.60990900  0.10370100  1
  O  O7  1  0.60990900  0.96310100  0.60370100  1
  O  O8  1  0.20676700  0.21659900  0.00143200  1
  O  O9  1  0.21659900  0.20676700  0.50143200  1
  O  O10  1  0.10851400  0.10931600  0.90124900  1
  O  O11  1  0.10931600  0.10851400  0.40124900  1
  O  O12  1  0.12957500  0.47060800  0.90370600  1
  O  O13  1  0.47060800  0.12957500  0.40370600  1
  O  O14  1  0.48113800  0.10060600  0.90759000  1
  O  O15  1  0.10060600  0.48113800  0.40759000  1
  O  O16  1  0.56416200  0.64847700  0.29888000  1
  O  O17  1  0.64847700  0.56416200  0.79888000  1
  O  O18  1  0.15010200  0.78134700  0.29266200  1
  O  O19  1  0.78134700  0.15010200  0.79266200  1
  O  O20  1  0.34118800  0.91506700  0.20931300  1
  O  O21  1  0.91506700  0.34118800  0.70931300  1
  O  O22  1  0.42555700  0.51192000  0.21184100  1
  O  O23  1  0.51192000  0.42555700  0.71184100  1
  O  O24  1  0.90825500  0.68440600  0.79036200  1
  O  O25  1  0.68440600  0.90825500  0.29036200  1
  O  O26  1  0.63450800  0.62208600  0.95810400  1
  O  O27  1  0.62208600  0.63450800  0.45810400  1
  O  O28  1  0.19022300  0.88992400  0.80167500  1
  O  O29  1  0.88992400  0.19022300  0.30167500  1
  O  O30  1  0.41965500  0.69403300  0.04544000  1
  O  O31  1  0.69403300  0.41965500  0.54544000  1
  O  O32  1  0.62455700  0.44148000  0.95215200  1
  O  O33  1  0.44148000  0.62455700  0.45215200  1
  O  O34  1  0.40706400  0.16007700  0.72177600  1
  O  O35  1  0.16007700  0.40706400  0.22177600  1
  O  O36  1  0.80615900  0.30771500  0.09433200  1
  O  O37  1  0.30771500  0.80615900  0.59433200  1
  O  O38  1  0.40861700  0.51446000  0.04012200  1
  O  O39  1  0.51446000  0.40861700  0.54012200  1
loop_
_geom_bond_atom_site_label_1
_geom_bond_atom_site_label_2
_geom_bond_distance
_geom_bond_site_symmetry_2
O0 S2 1.479077 1_555
O0 Pr2 2.433221 1_554
O1 S3 1.479077 1_555
O1 Pr3 2.433221 1_555
O2 S2 1.518860 1_555
O2 Pr0 2.564632 1_665
O3 S3 1.518860 1_555
O3 Pr1 2.564632 1_665
O4 S2 1.468405 1_555
O4 Pr0 2.404788 1_565
O5 S3 1.468405 1_555
O5 Pr1 2.404788 1_655
O6 S2 1.476366 1_555
O6 Pr0 2.442174 1_655
O7 S3 1.476366 1_555
O7 Pr1 2.442174 1_565
O8 S4 1.486297 1_554
O8 Pr0 2.424624 1_555
O9 S5 1.486297 1_555
O9 Pr1 2.424624 1_555
O10 S4 1.495236 1_555
O10 Pr2 2.451918 1_445
O11 S5 1.495236 1_555
O11 Pr3 2.451918 1_445
O12 S4 1.486188 1_555
O12 Pr2 2.456658 1_455
O13 S5 1.486188 1_555
O13 Pr3 2.456658 1_545
O14 S4 1.479548 1_555
O14 Pr2 2.416487 1_545
O15 S5 1.479548 1_555
O15 Pr3 2.416487 1_455
O16 S0 1.493212 1_555
O17 S1 1.493212 1_555
O18 S0 1.501015 1_555
O18 Pr3 2.400214 1_455
O19 S1 1.501015 1_555
O19 Pr2 2.400214 1_545
O20 S0 1.476071 1_555
O20 Pr0 2.358161 1_565
O21 S1 1.476071 1_555
O21 Pr1 2.358161 1_655
O22 S0 1.496438 1_555
O23 S1 1.496438 1_555
O24 Pr2 2.452354 1_555
O25 Pr3 2.452354 1_555
O26 O32 1.231805 1_555
O27 O33 1.231805 1_555
O28 Pr2 2.528019 1_455
O29 Pr3 2.528019 1_545
O30 O38 1.226824 1_555
O31 O39 1.226824 1_555
O34 Pr1 2.465523 1_555
O35 Pr0 2.465523 1_555
O36 Pr0 2.447070 1_655
O37 Pr1 2.447070 1_565
