# generated using pymatgen
data_Y4H9NO13
_symmetry_space_group_name_H-M   'P 1'
_cell_length_a   16.66607800
_cell_length_b   3.66030200
_cell_length_c   9.47365245
_cell_angle_alpha   80.05649717
_cell_angle_beta   90.00000000
_cell_angle_gamma   90.00000000
_symmetry_Int_Tables_number   1
_chemical_formula_structural   Y4H9NO13
_chemical_formula_sum   'Y8 H18 N2 O26'
_cell_volume   569.23884554
_cell_formula_units_Z   2
loop_
 _symmetry_equiv_pos_site_id
 _symmetry_equiv_pos_as_xyz
  1  'x, y, z'
loop_
 _atom_site_type_symbol
 _atom_site_label
 _atom_site_symmetry_multiplicity
 _atom_site_fract_x
 _atom_site_fract_y
 _atom_site_fract_z
 _atom_site_occupancy
  Y  Y0  1  0.50057200  0.63113900  0.73101300  1
  Y  Y1  1  0.00057200  0.36886100  0.26898700  1
  Y  Y2  1  0.79027400  0.88197400  0.26816400  1
  Y  Y3  1  0.29027400  0.11802600  0.73183600  1
  Y  Y4  1  0.68963700  0.54667600  0.93934200  1
  Y  Y5  1  0.18963700  0.45332400  0.06065800  1
  Y  Y6  1  0.68217200  0.19945900  0.59653300  1
  Y  Y7  1  0.18217200  0.80054100  0.40346700  1
  H  H0  1  0.52395400  0.52082600  0.04232600  1
  H  H1  1  0.02395400  0.47917400  0.95767400  1
  H  H2  1  0.81084500  0.08990500  0.82519500  1
  H  H3  1  0.31084500  0.91009500  0.17480500  1
  H  H4  1  0.51147800  0.26538900  0.48579200  1
  H  H5  1  0.01147800  0.73461100  0.51420800  1
  H  H6  1  0.64932200  0.33473100  0.29336100  1
  H  H7  1  0.14932200  0.66526900  0.70663900  1
  H  H8  1  0.85334800  0.46800500  0.04974400  1
  H  H9  1  0.35334800  0.53199500  0.95025600  1
  H  H10  1  0.62018200  0.95739100  0.13867500  1
  H  H11  1  0.12018200  0.04260900  0.86132500  1
  H  H12  1  0.81911000  0.70946400  0.59372300  1
  H  H13  1  0.31911000  0.29053600  0.40627700  1
  H  H14  1  0.94015900  0.95800300  0.06518600  1
  H  H15  1  0.44015900  0.04199700  0.93481400  1
  H  H16  1  0.86385700  0.32071800  0.46681100  1
  H  H17  1  0.36385700  0.67928200  0.53318900  1
  N  N0  1  0.96084200  0.17472200  0.74681700  1
  N  N1  1  0.46084200  0.82527800  0.25318300  1
  O  O0  1  0.55438200  0.55206700  0.95419800  1
  O  O1  1  0.05438200  0.44793300  0.04580200  1
  O  O2  1  0.63632900  0.64474000  0.71363400  1
  O  O3  1  0.13632900  0.35526000  0.28636600  1
  O  O4  1  0.75164700  0.10052200  0.81766400  1
  O  O5  1  0.25164700  0.89947800  0.18233600  1
  O  O6  1  0.53668900  0.19050100  0.57962700  1
  O  O7  1  0.03668900  0.80949900  0.42037300  1
  O  O8  1  0.69807000  0.33553600  0.34906600  1
  O  O9  1  0.19807000  0.66446400  0.65093400  1
  O  O10  1  0.80022000  0.46404100  0.09242600  1
  O  O11  1  0.30022000  0.53595900  0.90757400  1
  O  O12  1  0.67415300  0.97259000  0.09771100  1
  O  O13  1  0.17415300  0.02741000  0.90228900  1
  O  O14  1  0.77170800  0.74463900  0.53245400  1
  O  O15  1  0.27170800  0.25536100  0.46754600  1
  O  O16  1  0.93192100  0.91595000  0.16856300  1
  O  O17  1  0.43192100  0.08405000  0.83143700  1
  O  O18  1  0.86841200  0.34205300  0.36352600  1
  O  O19  1  0.36841200  0.65794700  0.63647400  1
  O  O20  1  0.91894800  0.04296500  0.85631900  1
  O  O21  1  0.41894800  0.95703500  0.14368100  1
  O  O22  1  0.03208300  0.06523500  0.73466800  1
  O  O23  1  0.53208300  0.93476500  0.26533200  1
  O  O24  1  0.93068600  0.41645600  0.64929400  1
  O  O25  1  0.43068600  0.58354400  0.35070600  1
loop_
_geom_bond_atom_site_label_1
_geom_bond_atom_site_label_2
_geom_bond_distance
_geom_bond_site_symmetry_2
H0 O0 0.966602 1_554
H1 O1 0.966602 1_556
H2 O4 0.989454 1_555
H3 O5 0.989454 1_555
H4 O6 0.978660 1_555
H5 O7 0.978660 1_555
H6 O8 0.969072 1_555
H7 O9 0.969072 1_555
H8 O10 0.972462 1_555
H9 O11 0.972462 1_555
H10 O12 0.977403 1_555
H11 O13 0.977403 1_555
H12 O14 0.975596 1_555
H13 O15 0.975596 1_555
H14 O16 0.974486 1_555
H15 O17 0.974486 1_555
H16 O18 0.971034 1_555
H17 O19 0.971034 1_555
N0 O22 1.264706 1_655
N0 O24 1.267581 1_555
N0 O20 1.274153 1_555
N1 O23 1.264706 1_555
N1 O25 1.267581 1_555
N1 O21 1.274153 1_555
O0 Y4 2.258858 1_555
O0 Y0 2.268759 1_555
O1 Y5 2.258858 1_555
O1 Y1 2.268759 1_555
O2 Y6 2.257286 1_555
O2 Y0 2.268442 1_555
O2 Y6 2.271389 1_565
O2 Y4 2.285898 1_555
O3 Y7 2.257286 1_555
O3 Y1 2.268442 1_555
O3 Y7 2.271389 1_545
O3 Y5 2.285898 1_555
O4 Y6 2.366115 1_555
O4 Y4 2.387365 1_545
O4 Y4 2.390366 1_555
O5 Y7 2.366115 1_555
O5 Y5 2.387365 1_565
O5 Y5 2.390366 1_555
O6 Y0 2.365815 1_545
O6 Y0 2.412339 1_555
O6 Y6 2.430509 1_555
O7 Y1 2.365815 1_565
O7 Y1 2.412339 1_555
O7 Y7 2.430509 1_555
O8 Y6 2.326221 1_555
O8 Y2 2.478794 1_545
O8 Y2 2.533753 1_555
O9 Y7 2.326221 1_555
O9 Y3 2.478794 1_565
O9 Y3 2.533753 1_555
O10 Y4 2.332350 1_554
O10 Y2 2.453374 1_555
O10 Y2 2.472550 1_545
O11 Y5 2.332350 1_556
O11 Y3 2.453374 1_555
O11 Y3 2.472550 1_565
O12 Y4 2.357068 1_554
O12 Y4 2.375790 1_564
O12 Y2 2.505589 1_555
O13 Y5 2.357068 1_556
O13 Y5 2.375790 1_546
O13 Y3 2.505589 1_555
O14 Y6 2.390761 1_565
O14 Y6 2.481729 1_555
O14 Y2 2.486511 1_555
O15 Y7 2.390761 1_545
O15 Y7 2.481729 1_555
O15 Y3 2.486511 1_555
O16 Y1 2.346732 1_665
O16 Y1 2.359298 1_655
O16 Y2 2.537360 1_555
O17 Y0 2.346732 1_545
O17 Y0 2.359298 1_555
O17 Y3 2.537360 1_555
O18 Y1 2.373358 1_655
O18 Y2 2.408548 1_555
O18 Y2 2.423513 1_545
O19 Y0 2.373358 1_555
O19 Y3 2.408548 1_555
O19 Y3 2.423513 1_565
