# generated using pymatgen
data_Li6V3W3O16
_symmetry_space_group_name_H-M   'P 1'
_cell_length_a   6.07480669
_cell_length_b   6.09818374
_cell_length_c   10.11696499
_cell_angle_alpha   89.87405018
_cell_angle_beta   90.98440350
_cell_angle_gamma   120.20412636
_symmetry_Int_Tables_number   1
_chemical_formula_structural   Li6V3W3O16
_chemical_formula_sum   'Li6 V3 W3 O16'
_cell_volume   323.84759743
_cell_formula_units_Z   1
loop_
 _symmetry_equiv_pos_site_id
 _symmetry_equiv_pos_as_xyz
  1  'x, y, z'
loop_
 _atom_site_type_symbol
 _atom_site_label
 _atom_site_symmetry_multiplicity
 _atom_site_fract_x
 _atom_site_fract_y
 _atom_site_fract_z
 _atom_site_occupancy
  Li  Li0  1  0.32999800  0.66228200  0.51506200  1
  Li  Li1  1  0.33144800  0.66818900  0.88774500  1
  Li  Li2  1  0.99084300  0.99478100  0.99651200  1
  Li  Li3  1  0.98581700  0.99054600  0.50044800  1
  Li  Li4  1  0.65857000  0.33045700  0.00846500  1
  Li  Li5  1  0.66651500  0.33405700  0.39544500  1
  V  V0  1  0.66688400  0.83373300  0.21356500  1
  V  V1  1  0.83712700  0.66455200  0.71430700  1
  V  V2  1  0.83277700  0.16750800  0.71446600  1
  W  W0  1  0.17215300  0.83100500  0.21561700  1
  W  W1  1  0.17141500  0.34079700  0.21555900  1
  W  W2  1  0.34218000  0.17202300  0.71498700  1
  O  O0  1  0.16388600  0.85769500  0.60803300  1
  O  O1  1  0.02446700  0.51162500  0.32936800  1
  O  O2  1  0.32402900  0.66258900  0.09856900  1
  O  O3  1  0.01309500  0.00619600  0.32112300  1
  O  O4  1  0.02126600  0.00312500  0.81767500  1
  O  O5  1  0.15776500  0.30205900  0.60905600  1
  O  O6  1  0.48334700  0.97544000  0.31924500  1
  O  O7  1  0.48277900  0.50763700  0.31879400  1
  O  O8  1  0.30604000  0.15366600  0.10287600  1
  O  O9  1  0.70005800  0.83385000  0.61655600  1
  O  O10  1  0.50364600  0.47745000  0.82034500  1
  O  O11  1  0.50790100  0.02938200  0.82035400  1
  O  O12  1  0.64613900  0.33051300  0.60285600  1
  O  O13  1  0.85527400  0.69484200  0.10937900  1
  O  O14  1  0.96893100  0.50287300  0.81309400  1
  O  O15  1  0.85565400  0.16143000  0.10834100  1
loop_
_geom_bond_atom_site_label_1
_geom_bond_atom_site_label_2
_geom_bond_distance
_geom_bond_site_symmetry_2
Li0 O5 2.130014 1_555
Li0 O0 2.137873 1_555
Li0 O9 2.182103 1_555
Li0 O1 2.447526 1_555
Li0 O7 2.577928 1_555
Li0 O6 2.587703 1_555
Li1 O11 2.026898 1_565
Li1 O14 2.036880 1_455
Li1 O10 2.040690 1_555
Li1 O2 2.133985 1_556
Li2 O4 1.819860 1_665
Li2 O8 1.957081 1_666
Li2 O13 1.958354 1_556
Li2 O15 1.965692 1_566
Li3 O3 1.822535 1_665
Li3 O9 1.924187 1_555
Li3 O0 1.961789 1_655
Li3 O5 1.969859 1_665
Li4 O8 2.098470 1_555
Li4 O13 2.168941 1_555
Li4 O15 2.170803 1_555
Li4 O10 2.468037 1_554
Li4 O11 2.468845 1_554
Li4 O14 2.586757 1_554
Li5 O1 2.006356 1_655
Li5 O7 2.030532 1_555
Li5 O6 2.035818 1_545
Li5 O12 2.103563 1_555
O0 W2 1.974363 1_565
O0 V1 2.049110 1_455
O1 W1 2.045505 1_555
O1 W0 2.046966 1_555
O2 W0 2.074744 1_555
O2 W1 2.075615 1_555
O2 V0 2.125013 1_555
O3 W1 2.068872 1_555
O3 W0 2.072063 1_545
O3 V0 2.101031 1_445
O4 W2 1.996306 1_555
O4 V1 2.062357 1_445
O4 V2 2.124965 1_455
O5 W2 1.970091 1_555
O5 V2 2.036358 1_455
O6 W0 1.925960 1_555
O6 V0 2.036526 1_555
O7 W1 1.924618 1_555
O7 V0 2.032866 1_555
O8 W0 2.060557 1_545
O8 W1 2.060939 1_555
O9 V1 1.889282 1_555
O9 V2 2.025363 1_565
O10 W2 1.924051 1_555
O10 V1 2.073718 1_555
O11 W2 1.935619 1_555
O11 V2 2.036691 1_555
O12 W2 1.975372 1_555
O12 V1 2.086657 1_555
O12 V2 2.152585 1_555
O13 W0 1.968453 1_655
O13 V0 2.039310 1_555
O14 V1 1.836984 1_555
O14 V2 2.034921 1_555
O15 W1 1.968537 1_655
O15 V0 2.041709 1_545
