# generated using pymatgen
data_KPH3O4F
_symmetry_space_group_name_H-M   'P 1'
_cell_length_a   6.11605440
_cell_length_b   11.98318972
_cell_length_c   6.96304155
_cell_angle_alpha   90.00000000
_cell_angle_beta   115.90407144
_cell_angle_gamma   90.00000000
_symmetry_Int_Tables_number   1
_chemical_formula_structural   KPH3O4F
_chemical_formula_sum   'K4 P4 H12 O16 F4'
_cell_volume   459.04666666
_cell_formula_units_Z   4
loop_
 _symmetry_equiv_pos_site_id
 _symmetry_equiv_pos_as_xyz
  1  'x, y, z'
loop_
 _atom_site_type_symbol
 _atom_site_label
 _atom_site_symmetry_multiplicity
 _atom_site_fract_x
 _atom_site_fract_y
 _atom_site_fract_z
 _atom_site_occupancy
  K  K0  1  0.14933380  0.13290500  0.88694649  1
  K  K1  1  0.14933380  0.36709500  0.38694649  1
  K  K2  1  0.85066620  0.63290500  0.61305351  1
  K  K3  1  0.85066620  0.86709500  0.11305351  1
  P  P0  1  0.34704846  0.86036453  0.59230462  1
  P  P1  1  0.65295154  0.36036453  0.90769538  1
  P  P2  1  0.34704846  0.63963547  0.09230462  1
  P  P3  1  0.65295154  0.13963547  0.40769538  1
  H  H0  1  0.02662346  0.88598793  0.70876832  1
  H  H1  1  0.02662346  0.61401207  0.20876832  1
  H  H2  1  0.45221244  0.70613729  0.78272975  1
  H  H3  1  0.46608191  0.52184894  0.81010497  1
  H  H4  1  0.53391809  0.02184894  0.68989503  1
  H  H5  1  0.54778756  0.20613729  0.71727025  1
  H  H6  1  0.45221244  0.79386271  0.28272975  1
  H  H7  1  0.46608191  0.97815106  0.31010497  1
  H  H8  1  0.53391809  0.47815106  0.18989503  1
  H  H9  1  0.54778756  0.29386271  0.21727025  1
  H  H10  1  0.97337654  0.38598793  0.79123168  1
  H  H11  1  0.97337654  0.11401207  0.29123168  1
  O  O0  1  0.09450194  0.83492075  0.56676400  1
  O  O1  1  0.36297085  0.62056059  0.88405189  1
  O  O2  1  0.09450194  0.66507925  0.06676400  1
  O  O3  1  0.44636201  0.96523183  0.73950026  1
  O  O4  1  0.47838162  0.26118835  0.78902411  1
  O  O5  1  0.52161838  0.76118835  0.71097589  1
  O  O6  1  0.36297085  0.87943941  0.38405189  1
  O  O7  1  0.55363799  0.46523183  0.76049974  1
  O  O8  1  0.44636201  0.53476817  0.23950026  1
  O  O9  1  0.63702915  0.12056059  0.61594811  1
  O  O10  1  0.47838162  0.23881165  0.28902411  1
  O  O11  1  0.52161838  0.73881165  0.21097589  1
  O  O12  1  0.55363799  0.03476717  0.26049974  1
  O  O13  1  0.90549806  0.33492075  0.93323600  1
  O  O14  1  0.63702915  0.37943941  0.11594811  1
  O  O15  1  0.90549806  0.16507925  0.43323600  1
  F  F0  1  0.02008185  0.42363853  0.68361904  1
  F  F1  1  0.02008185  0.07636147  0.18361904  1
  F  F2  1  0.97991815  0.92363853  0.81638096  1
  F  F3  1  0.97991815  0.57636147  0.31638096  1
loop_
_geom_bond_atom_site_label_1
_geom_bond_atom_site_label_2
_geom_bond_distance
_geom_bond_site_symmetry_2
K0 O4 2.842005 1_555
K0 O9 2.869520 1_455
K0 O15 2.869978 1_455
K0 O10 2.928487 1_556
K0 O13 2.933960 1_455
K0 O12 2.939960 1_556
K0 O3 3.165590 1_545
K1 O10 2.842005 1_555
K1 O14 2.869520 1_455
K1 O13 2.869978 1_454
K1 O4 2.928487 1_555
K1 O15 2.933960 1_455
K1 O7 2.939955 1_555
K1 O8 3.165590 1_555
K2 O5 2.842005 1_555
K2 O1 2.869520 1_655
K2 O2 2.869978 1_656
K2 O11 2.928487 1_555
K2 O0 2.933960 1_655
K2 O8 2.939955 1_555
K2 O7 3.165590 1_555
K3 O11 2.842005 1_555
K3 O6 2.869520 1_655
K3 O0 2.869978 1_655
K3 O5 2.928487 1_554
K3 O2 2.933960 1_655
K3 O3 2.939955 1_554
K3 O12 3.165583 1_565
H0 O0 1.372289 1_555
H1 O2 1.372289 1_555
H2 O5 1.024847 1_555
H2 O1 1.477739 1_555
H3 O7 1.013888 1_555
H3 O1 1.531578 1_555
H4 O3 1.013888 1_545
H4 O9 1.531578 1_555
H5 O4 1.024847 1_555
H5 O9 1.477739 1_555
H6 O11 1.024847 1_555
H6 O6 1.477739 1_555
H7 O12 1.013880 1_565
H7 O6 1.531578 1_555
H8 O8 1.013888 1_555
H8 O14 1.531578 1_555
H9 O10 1.024847 1_555
H9 O14 1.477739 1_555
H10 O13 1.372289 1_555
H11 O15 1.372289 1_555
O0 P0 1.506764 1_555
O1 P2 1.512555 1_556
O2 P2 1.506764 1_555
O3 P0 1.566729 1_555
O4 P1 1.569809 1_555
O5 P0 1.569809 1_555
O6 P0 1.512555 1_555
O7 P1 1.566729 1_555
O8 P2 1.566729 1_555
O9 P3 1.512555 1_555
O10 P3 1.569809 1_555
O11 P2 1.569809 1_555
O12 P3 1.566738 1_555
O13 P1 1.506764 1_555
O14 P1 1.512555 1_554
O15 P3 1.506764 1_555
F0 H10 1.016680 1_455
F0 K1 2.603480 1_555
F0 K2 2.675569 1_455
F1 H11 1.016680 1_455
F1 K0 2.603480 1_554
F1 K3 2.675569 1_445
F2 H0 1.016680 1_655
F2 K3 2.603480 1_556
F2 K0 2.675569 1_665
F3 H1 1.016680 1_655
F3 K2 2.603480 1_555
F3 K1 2.675569 1_655
