# generated using pymatgen
data_LaAlO3
_symmetry_space_group_name_H-M   'P 1'
_cell_length_a   7.09101498
_cell_length_b   7.09101498
_cell_length_c   10.17005618
_cell_angle_alpha   90.00000000
_cell_angle_beta   90.00000000
_cell_angle_gamma   120.05924920
_symmetry_Int_Tables_number   1
_chemical_formula_structural   LaAlO3
_chemical_formula_sum   'La6 Al6 O18'
_cell_volume   442.59977665
_cell_formula_units_Z   6
loop_
 _symmetry_equiv_pos_site_id
 _symmetry_equiv_pos_as_xyz
  1  'x, y, z'
loop_
 _atom_site_type_symbol
 _atom_site_label
 _atom_site_symmetry_multiplicity
 _atom_site_fract_x
 _atom_site_fract_y
 _atom_site_fract_z
 _atom_site_occupancy
  La  La0  1  0.82918827  0.17081173  0.50000000  1
  La  La1  1  0.82918827  0.17081173  0.00000000  1
  La  La2  1  0.17081173  0.82918827  0.50000000  1
  La  La3  1  0.17081173  0.82918827  0.00000000  1
  La  La4  1  0.50000000  0.50000000  0.00000000  1
  La  La5  1  0.50000000  0.50000000  0.50000000  1
  Al  Al0  1  0.57649780  0.83447906  0.25000000  1
  Al  Al1  1  0.16552094  0.42350220  0.75000000  1
  Al  Al2  1  0.83447906  0.57649780  0.25000000  1
  Al  Al3  1  0.42350220  0.16552094  0.75000000  1
  Al  Al4  1  0.90569997  0.90569997  0.75000000  1
  Al  Al5  1  0.09430003  0.09430003  0.25000000  1
  O  O0  1  0.92647861  0.16498439  0.75000000  1
  O  O1  1  0.83501561  0.07352139  0.25000000  1
  O  O2  1  0.47888469  0.83374943  0.40650941  1
  O  O3  1  0.47888469  0.83374943  0.09349059  1
  O  O4  1  0.16625057  0.52111531  0.59349059  1
  O  O5  1  0.16625057  0.52111531  0.90650941  1
  O  O6  1  0.83374943  0.47888469  0.40650941  1
  O  O7  1  0.83374943  0.47888469  0.09349059  1
  O  O8  1  0.52111531  0.16625057  0.59349059  1
  O  O9  1  0.52111531  0.16625057  0.90650941  1
  O  O10  1  0.07352139  0.83501561  0.25000000  1
  O  O11  1  0.16498439  0.92647861  0.75000000  1
  O  O12  1  0.40444156  0.40444156  0.75000000  1
  O  O13  1  0.81152588  0.81152588  0.59093017  1
  O  O14  1  0.81152588  0.81152588  0.90906983  1
  O  O15  1  0.18847412  0.18847412  0.09093017  1
  O  O16  1  0.18847412  0.18847412  0.40906983  1
  O  O17  1  0.59555844  0.59555844  0.25000000  1
loop_
_geom_bond_atom_site_label_1
_geom_bond_atom_site_label_2
_geom_bond_distance
_geom_bond_site_symmetry_2
La0 O6 2.367816 1_555
La0 O8 2.367816 1_555
La0 O2 2.615201 1_545
La0 O4 2.615201 1_655
La0 O1 2.640187 1_555
La0 O0 2.640187 1_555
La0 O16 2.653677 1_655
La0 O13 2.653677 1_545
La1 O7 2.367816 1_555
La1 O9 2.367816 1_554
La1 O5 2.615201 1_654
La1 O3 2.615201 1_545
La1 O1 2.640187 1_555
La1 O0 2.640187 1_554
La1 O14 2.653677 1_544
La1 O15 2.653677 1_655
La2 O4 2.367816 1_555
La2 O2 2.367816 1_555
La2 O8 2.615201 1_565
La2 O6 2.615201 1_455
La2 O10 2.640187 1_555
La2 O11 2.640187 1_555
La2 O16 2.653677 1_565
La2 O13 2.653677 1_455
La3 O3 2.367816 1_555
La3 O5 2.367816 1_554
La3 O7 2.615201 1_455
La3 O9 2.615201 1_564
La3 O10 2.640187 1_555
La3 O11 2.640187 1_554
La3 O14 2.653677 1_454
La3 O15 2.653677 1_565
La4 O15 2.392966 1_555
La4 O14 2.392966 1_554
La4 O3 2.623421 1_555
La4 O7 2.623421 1_555
La4 O5 2.623421 1_554
La4 O9 2.623421 1_554
La4 O17 2.631104 1_555
La4 O12 2.631104 1_554
La5 O16 2.392966 1_555
La5 O13 2.392966 1_555
La5 O2 2.623421 1_555
La5 O6 2.623421 1_555
La5 O4 2.623421 1_555
La5 O8 2.623421 1_555
La5 O12 2.631104 1_555
La5 O17 2.631104 1_555
Al0 O2 1.734672 1_555
Al0 O3 1.734672 1_555
Al0 O17 1.765770 1_555
Al0 O1 1.766579 1_565
Al1 O4 1.734672 1_555
Al1 O5 1.734672 1_555
Al1 O12 1.765770 1_555
Al1 O0 1.766579 1_455
Al2 O6 1.734672 1_555
Al2 O7 1.734672 1_555
Al2 O17 1.765770 1_555
Al2 O10 1.766579 1_655
Al3 O8 1.734672 1_555
Al3 O9 1.734672 1_555
Al3 O12 1.765770 1_555
Al3 O11 1.766579 1_545
Al4 O14 1.749931 1_555
Al4 O13 1.749931 1_555
Al4 O0 1.769389 1_565
Al4 O11 1.769389 1_655
Al5 O15 1.749931 1_555
Al5 O16 1.749931 1_555
Al5 O1 1.769389 1_455
Al5 O10 1.769389 1_545
