# generated using pymatgen
data_Na3VO3
_symmetry_space_group_name_H-M   'P 1'
_cell_length_a   5.92982090
_cell_length_b   5.92324257
_cell_length_c   12.78258100
_cell_angle_alpha   90.00030382
_cell_angle_beta   90.00019378
_cell_angle_gamma   115.40650816
_symmetry_Int_Tables_number   1
_chemical_formula_structural   Na3VO3
_chemical_formula_sum   'Na12 V4 O12'
_cell_volume   405.55074081
_cell_formula_units_Z   4
loop_
 _symmetry_equiv_pos_site_id
 _symmetry_equiv_pos_as_xyz
  1  'x, y, z'
loop_
 _atom_site_type_symbol
 _atom_site_label
 _atom_site_symmetry_multiplicity
 _atom_site_fract_x
 _atom_site_fract_y
 _atom_site_fract_z
 _atom_site_occupancy
  Na  Na0  1  0.69940800  0.14317800  0.22183900  1
  Na  Na1  1  0.80062900  0.35700100  0.72179900  1
  Na  Na2  1  0.19940800  0.64318400  0.27816200  1
  Na  Na3  1  0.30062900  0.85699900  0.77820200  1
  Na  Na4  1  0.78075800  0.24812700  0.48391400  1
  Na  Na5  1  0.71935600  0.25199600  0.98398600  1
  Na  Na6  1  0.28075900  0.74812800  0.01608600  1
  Na  Na7  1  0.21935600  0.75199800  0.51601400  1
  Na  Na8  1  0.35842900  0.28371800  0.59334000  1
  Na  Na9  1  0.14137200  0.21619000  0.09355300  1
  Na  Na10  1  0.85842400  0.78372100  0.90666000  1
  Na  Na11  1  0.64138400  0.71618800  0.40644600  1
  V  V0  1  0.24755000  0.32816000  0.83533700  1
  V  V1  1  0.74754300  0.82816200  0.66466800  1
  V  V2  1  0.25250200  0.17183100  0.33513400  1
  V  V3  1  0.75250300  0.67181200  0.16486300  1
  O  O0  1  0.45300800  0.00490100  0.37267900  1
  O  O1  1  0.95301100  0.50489500  0.12732000  1
  O  O2  1  0.04678100  0.49534600  0.87244400  1
  O  O3  1  0.54678500  0.99535500  0.62755500  1
  O  O4  1  0.30078800  0.11960300  0.93750200  1
  O  O5  1  0.80079100  0.61961000  0.56250100  1
  O  O6  1  0.19922400  0.37983900  0.43731100  1
  O  O7  1  0.69922200  0.87983200  0.06268900  1
  O  O8  1  0.05379200  0.08087600  0.72603000  1
  O  O9  1  0.44640400  0.41923500  0.22635200  1
  O  O10  1  0.55378400  0.58088100  0.77397000  1
  O  O11  1  0.94640000  0.91923300  0.27364600  1
loop_
_geom_bond_atom_site_label_1
_geom_bond_atom_site_label_2
_geom_bond_distance
_geom_bond_site_symmetry_2
Na0 O0 2.344462 1_555
Na0 O1 2.355209 1_555
Na0 O11 2.451584 1_545
Na0 O7 2.563246 1_545
Na0 O9 2.651954 1_555
Na1 O2 2.341734 1_655
Na1 O3 2.353479 1_545
Na1 O10 2.451814 1_555
Na1 O5 2.562146 1_555
Na1 O8 2.653007 1_655
Na2 O1 2.344465 1_455
Na2 O0 2.355175 1_565
Na2 O9 2.451632 1_555
Na2 O6 2.563249 1_555
Na2 O11 2.651934 1_455
Na3 O3 2.341787 1_555
Na3 O2 2.353515 1_555
Na3 O8 2.451765 1_565
Na3 O4 2.562140 1_565
Na3 O10 2.652932 1_555
Na4 O6 2.336634 1_655
Na4 O0 2.339199 1_555
Na4 O5 2.374994 1_555
Na4 O3 2.399058 1_545
Na5 O4 2.336308 1_555
Na5 O2 2.340704 1_655
Na5 O7 2.379074 1_546
Na5 O1 2.395735 1_556
Na6 O7 2.336617 1_555
Na6 O1 2.339213 1_455
Na6 O4 2.374953 1_564
Na6 O2 2.399080 1_554
Na7 O5 2.336311 1_455
Na7 O3 2.340703 1_555
Na7 O6 2.379041 1_555
Na7 O0 2.395767 1_565
Na8 O6 2.377910 1_555
Na8 O8 2.391921 1_555
Na8 O3 2.448100 1_545
Na8 O5 2.552722 1_555
Na8 O10 2.832233 1_555
Na9 O4 2.379905 1_554
Na9 O9 2.394370 1_555
Na9 O1 2.448914 1_455
Na9 O7 2.552831 1_445
Na9 O11 2.825792 1_445
Na10 O7 2.377877 1_556
Na10 O10 2.391911 1_555
Na10 O2 2.448168 1_655
Na10 O4 2.552710 1_665
Na10 O8 2.832244 1_665
Na11 O5 2.379898 1_555
Na11 O11 2.394346 1_555
Na11 O0 2.449026 1_565
Na11 O6 2.552862 1_555
Na11 O9 2.825777 1_555
O0 V2 1.905357 1_555
O1 V3 1.905299 1_555
O2 V0 1.906469 1_555
O3 V1 1.906466 1_555
O4 V0 1.914633 1_555
O5 V1 1.914648 1_555
O6 V2 1.912509 1_555
O7 V3 1.912548 1_555
O8 V1 1.954786 1_445
O8 V0 1.993403 1_555
O9 V3 1.954618 1_555
O9 V2 1.989293 1_555
O10 V0 1.954785 1_555
O10 V1 1.993368 1_555
O11 V2 1.954658 1_665
O11 V3 1.989327 1_555
