# generated using pymatgen
data_PrH20S4N5O16
_symmetry_space_group_name_H-M   'P 1'
_cell_length_a   12.28343003
_cell_length_b   12.28343003
_cell_length_c   9.48292491
_cell_angle_alpha   83.56818751
_cell_angle_beta   83.56818751
_cell_angle_gamma   141.14208613
_symmetry_Int_Tables_number   1
_chemical_formula_structural   PrH20S4N5O16
_chemical_formula_sum   'Pr2 H40 S8 N10 O32'
_cell_volume   845.24257050
_cell_formula_units_Z   2
loop_
 _symmetry_equiv_pos_site_id
 _symmetry_equiv_pos_as_xyz
  1  'x, y, z'
loop_
 _atom_site_type_symbol
 _atom_site_label
 _atom_site_symmetry_multiplicity
 _atom_site_fract_x
 _atom_site_fract_y
 _atom_site_fract_z
 _atom_site_occupancy
  Pr  Pr0  1  0.07612900  0.92387100  0.75000000  1
  Pr  Pr1  1  0.92387100  0.07612900  0.25000000  1
  H  H0  1  0.23020500  0.66897600  0.84360900  1
  H  H1  1  0.33102400  0.76979500  0.65639100  1
  H  H2  1  0.76979500  0.33102400  0.15639100  1
  H  H3  1  0.66897600  0.23020500  0.34360900  1
  H  H4  1  0.42873400  0.76470700  0.76128000  1
  H  H5  1  0.23529300  0.57126600  0.73872000  1
  H  H6  1  0.57126600  0.23529300  0.23872000  1
  H  H7  1  0.76470700  0.42873400  0.26128000  1
  H  H8  1  0.54249900  0.72733900  0.10182400  1
  H  H9  1  0.27266100  0.45750100  0.39817600  1
  H  H10  1  0.45750100  0.27266100  0.89817600  1
  H  H11  1  0.72733900  0.54249900  0.60182400  1
  H  H12  1  0.63622400  0.68527100  0.02938600  1
  H  H13  1  0.31472900  0.36377600  0.47061400  1
  H  H14  1  0.36377600  0.31472900  0.97061400  1
  H  H15  1  0.68527100  0.63622400  0.52938600  1
  H  H16  1  0.58230000  0.74502000  0.91796500  1
  H  H17  1  0.25498000  0.41770000  0.58203500  1
  H  H18  1  0.41770000  0.25498000  0.08203500  1
  H  H19  1  0.74502000  0.58230000  0.41796500  1
  H  H20  1  0.41191800  0.53819900  0.04883600  1
  H  H21  1  0.46180100  0.58808200  0.45116400  1
  H  H22  1  0.58808200  0.46180100  0.95116400  1
  H  H23  1  0.53819900  0.41191800  0.54883600  1
  H  H24  1  0.96886400  0.37880300  0.45665300  1
  H  H25  1  0.62119700  0.03113600  0.04334700  1
  H  H26  1  0.03113600  0.62119700  0.54334700  1
  H  H27  1  0.37880300  0.96886400  0.95665300  1
  H  H28  1  0.88373700  0.33405500  0.63998800  1
  H  H29  1  0.66594500  0.11626300  0.86001200  1
  H  H30  1  0.11626300  0.66594500  0.36001200  1
  H  H31  1  0.33405500  0.88373700  0.13998800  1
  H  H32  1  0.91360600  0.22544100  0.58901900  1
  H  H33  1  0.77455900  0.08639400  0.91098100  1
  H  H34  1  0.08639400  0.77455900  0.41098100  1
  H  H35  1  0.22544100  0.91360600  0.08901900  1
  H  H36  1  0.75195000  0.17613000  0.55144900  1
  H  H37  1  0.82387000  0.24805000  0.94855100  1
  H  H38  1  0.24805000  0.82387000  0.44855100  1
  H  H39  1  0.17613000  0.75195000  0.05144900  1
  S  S0  1  0.10092300  0.22319700  0.87916600  1
  S  S1  1  0.77680300  0.89907700  0.62083400  1
  S  S2  1  0.89907700  0.77680300  0.12083400  1
  S  S3  1  0.22319700  0.10092300  0.37916600  1
  S  S4  1  0.47114000  0.11552600  0.66647900  1
  S  S5  1  0.88447400  0.52886000  0.83352100  1
  S  S6  1  0.52886000  0.88447400  0.33352100  1
  S  S7  1  0.11552600  0.47114000  0.16647900  1
  N  N0  1  0.30561000  0.69439000  0.75000000  1
  N  N1  1  0.69439000  0.30561000  0.25000000  1
  N  N2  1  0.54229500  0.67244800  0.02591900  1
  N  N3  1  0.32755200  0.45770500  0.47408100  1
  N  N4  1  0.45770500  0.32755200  0.97408100  1
  N  N5  1  0.67244800  0.54229500  0.52591900  1
  N  N6  1  0.88065500  0.27897900  0.56209300  1
  N  N7  1  0.72102100  0.11934500  0.93790700  1
  N  N8  1  0.11934500  0.72102100  0.43790700  1
  N  N9  1  0.27897900  0.88065500  0.06209300  1
  O  O0  1  0.90441300  0.05570700  0.97446600  1
  O  O1  1  0.94429300  0.09558700  0.52553400  1
  O  O2  1  0.09558700  0.94429300  0.02553400  1
  O  O3  1  0.05570700  0.90441300  0.47446600  1
  O  O4  1  0.16228900  0.17871100  0.78811500  1
  O  O5  1  0.82128900  0.83771100  0.71188500  1
  O  O6  1  0.83771100  0.82128900  0.21188500  1
  O  O7  1  0.17871100  0.16228900  0.28811500  1
  O  O8  1  0.20746300  0.30792100  0.98794800  1
  O  O9  1  0.69207900  0.79253700  0.51205200  1
  O  O10  1  0.79253700  0.69207900  0.01205200  1
  O  O11  1  0.30792100  0.20746300  0.48794800  1
  O  O12  1  0.12918400  0.34835000  0.77534000  1
  O  O13  1  0.65165000  0.87081600  0.72466000  1
  O  O14  1  0.87081600  0.65165000  0.22466000  1
  O  O15  1  0.34835000  0.12918400  0.27534000  1
  O  O16  1  0.39681800  0.15003300  0.76009000  1
  O  O17  1  0.84996700  0.60318200  0.73991000  1
  O  O18  1  0.60318200  0.84996700  0.23991000  1
  O  O19  1  0.15003300  0.39681800  0.26009000  1
  O  O20  1  0.50022600  0.04174800  0.76653600  1
  O  O21  1  0.95825200  0.49977400  0.73346400  1
  O  O22  1  0.49977400  0.95825200  0.23346400  1
  O  O23  1  0.04174800  0.50022600  0.26653600  1
  O  O24  1  0.64472400  0.28466000  0.54872000  1
  O  O25  1  0.71534000  0.35527600  0.95128000  1
  O  O26  1  0.35527600  0.71534000  0.45128000  1
  O  O27  1  0.28466000  0.64472400  0.04872000  1
  O  O28  1  0.32267300  0.97302100  0.60395500  1
  O  O29  1  0.02697900  0.67732700  0.89604500  1
  O  O30  1  0.67732700  0.02697900  0.39604500  1
  O  O31  1  0.97302100  0.32267300  0.10395500  1
loop_
_geom_bond_atom_site_label_1
_geom_bond_atom_site_label_2
_geom_bond_distance
_geom_bond_site_symmetry_2
H0 N0 1.023103 1_555
H1 N0 1.023103 1_555
H2 N1 1.023103 1_555
H3 N1 1.023103 1_555
H4 N0 1.033098 1_555
H5 N0 1.033098 1_555
H6 N1 1.033098 1_555
H7 N1 1.033098 1_555
H8 N2 1.038864 1_555
H9 N3 1.038864 1_555
H10 N4 1.038864 1_555
H11 N5 1.038864 1_555
H12 N2 1.041012 1_555
H13 N3 1.041012 1_555
H14 N4 1.041012 1_555
H15 N5 1.041012 1_555
H16 N2 1.041511 1_556
H17 N3 1.041511 1_555
H18 N4 1.041511 1_554
H19 N5 1.041511 1_555
H20 N2 1.029595 1_555
H21 N3 1.029595 1_555
H22 N4 1.029595 1_555
H23 N5 1.029595 1_555
H24 N6 1.044379 1_555
H25 N7 1.044379 1_554
H26 N8 1.044379 1_555
H27 N9 1.044379 1_556
H28 N6 1.040716 1_555
H29 N7 1.040716 1_555
H30 N8 1.040716 1_555
H31 N9 1.040716 1_555
H32 N6 1.030329 1_555
H33 N7 1.030329 1_555
H34 N8 1.030329 1_555
H35 N9 1.030329 1_555
H36 N6 1.029247 1_555
H37 N7 1.029247 1_555
H38 N8 1.029247 1_555
H39 N9 1.029247 1_555
O0 S0 1.495473 1_655
O0 Pr1 2.672175 1_556
O1 S1 1.495473 1_545
O1 Pr1 2.672175 1_555
O2 S2 1.495473 1_455
O2 Pr0 2.672175 1_554
O3 S3 1.495473 1_565
O3 Pr0 2.672175 1_555
O4 S0 1.487846 1_555
O4 Pr0 2.495828 1_545
O5 S1 1.487846 1_555
O5 Pr0 2.495828 1_655
O6 S2 1.487846 1_555
O6 Pr1 2.495828 1_565
O7 S3 1.487846 1_555
O7 Pr1 2.495828 1_455
O8 S0 1.510533 1_555
O8 Pr1 2.728605 1_456
O9 S1 1.510533 1_555
O9 Pr1 2.728605 1_565
O10 S2 1.510533 1_555
O10 Pr0 2.728605 1_654
O11 S3 1.510533 1_555
O11 Pr0 2.728605 1_545
O12 S0 1.485394 1_555
O13 S1 1.485394 1_555
O14 S2 1.485394 1_555
O15 S3 1.485394 1_555
O16 S4 1.518719 1_555
O16 Pr0 2.518868 1_545
O17 S5 1.518719 1_555
O17 Pr0 2.518868 1_655
O18 S6 1.518719 1_555
O18 Pr1 2.518868 1_565
O19 S7 1.518719 1_555
O19 Pr1 2.518868 1_455
O20 S4 1.495584 1_555
O21 S5 1.495584 1_555
O22 S6 1.495584 1_555
O23 S7 1.495584 1_555
O24 S4 1.468794 1_555
O25 S5 1.468794 1_555
O26 S6 1.468794 1_555
O27 S7 1.468794 1_555
O28 S4 1.498183 1_565
O28 Pr0 2.734833 1_555
O29 S5 1.498183 1_455
O29 Pr0 2.734833 1_555
O30 S6 1.498183 1_545
O30 Pr1 2.734833 1_555
O31 S7 1.498183 1_655
O31 Pr1 2.734833 1_555
