# generated using pymatgen
data_Tl16O15F17
_symmetry_space_group_name_H-M   'P 1'
_cell_length_a   9.49093926
_cell_length_b   9.49093926
_cell_length_c   9.51438593
_cell_angle_alpha   70.31152221
_cell_angle_beta   70.31152221
_cell_angle_gamma   108.73438793
_symmetry_Int_Tables_number   1
_chemical_formula_structural   Tl16O15F17
_chemical_formula_sum   'Tl16 O15 F17'
_cell_volume   662.15099578
_cell_formula_units_Z   1
loop_
 _symmetry_equiv_pos_site_id
 _symmetry_equiv_pos_as_xyz
  1  'x, y, z'
loop_
 _atom_site_type_symbol
 _atom_site_label
 _atom_site_symmetry_multiplicity
 _atom_site_fract_x
 _atom_site_fract_y
 _atom_site_fract_z
 _atom_site_occupancy
  Tl  Tl0  1  0.24453834  0.99902439  0.26632348  1
  Tl  Tl1  1  0.99902439  0.24453834  0.26632348  1
  Tl  Tl2  1  0.98072322  0.98072322  0.99344240  1
  Tl  Tl3  1  0.02737754  0.52165081  0.49486397  1
  Tl  Tl4  1  0.52165081  0.02737754  0.49486397  1
  Tl  Tl5  1  0.22776994  0.22776994  0.50002460  1
  Tl  Tl6  1  0.75390862  0.00733094  0.73557867  1
  Tl  Tl7  1  0.48916067  0.76801407  0.26834353  1
  Tl  Tl8  1  0.76801407  0.48916067  0.26834353  1
  Tl  Tl9  1  0.00733094  0.75390862  0.73557867  1
  Tl  Tl10  1  0.23694955  0.49780562  0.73968530  1
  Tl  Tl11  1  0.49780562  0.23694955  0.73968530  1
  Tl  Tl12  1  0.76308927  0.26277695  0.01885228  1
  Tl  Tl13  1  0.26277695  0.76308927  0.01885228  1
  Tl  Tl14  1  0.47512934  0.47512934  0.01941651  1
  Tl  Tl15  1  0.78499651  0.78499651  0.47774937  1
  O  O0  1  0.97803329  0.97803329  0.21640982  1
  O  O1  1  0.24012938  0.24012938  0.21794724  1
  O  O2  1  0.94551904  0.94551904  0.79117631  1
  O  O3  1  0.25425225  0.00929527  0.50424694  1
  O  O4  1  0.00929527  0.25425225  0.50424694  1
  O  O5  1  0.54480917  0.01871137  0.25946846  1
  O  O6  1  0.01871137  0.54480917  0.25946846  1
  O  O7  1  0.26306170  0.52328611  0.49627979  1
  O  O8  1  0.52328611  0.26306170  0.49627979  1
  O  O9  1  0.75045910  0.99604012  0.50517942  1
  O  O10  1  0.99604012  0.75045910  0.50517942  1
  O  O11  1  0.28831821  0.80632277  0.22538083  1
  O  O12  1  0.49182176  0.97793753  0.77999528  1
  O  O13  1  0.80632277  0.28831821  0.22538083  1
  O  O14  1  0.97793753  0.49182176  0.77999528  1
  F  F0  1  0.25542670  0.02979723  0.98121808  1
  F  F1  1  0.02979723  0.25542670  0.98121808  1
  F  F2  1  0.22578865  0.22578865  0.73739954  1
  F  F3  1  0.46106473  0.46106473  0.26819317  1
  F  F4  1  0.42051250  0.42051250  0.80741602  1
  F  F5  1  0.74523285  0.02882462  0.97958691  1
  F  F6  1  0.25517979  0.52960278  0.98220133  1
  F  F7  1  0.02882462  0.74523285  0.97958691  1
  F  F8  1  0.52960278  0.25517979  0.98220133  1
  F  F9  1  0.71818582  0.71818582  0.22002370  1
  F  F10  1  0.71515043  0.52171890  0.51891101  1
  F  F11  1  0.52171890  0.71515043  0.51891101  1
  F  F12  1  0.75672709  0.27585757  0.71142719  1
  F  F13  1  0.27585757  0.75672709  0.71142719  1
  F  F14  1  0.68746849  0.68746849  0.77027534  1
  F  F15  1  0.73083339  0.51438656  0.02272049  1
  F  F16  1  0.51438656  0.73083339  0.02272049  1
loop_
_geom_bond_atom_site_label_1
_geom_bond_atom_site_label_2
_geom_bond_distance
_geom_bond_site_symmetry_2
O0 Tl2 2.104336 1_554
O0 Tl15 2.144891 1_555
O0 Tl1 2.685597 1_565
O0 Tl0 2.685597 1_655
O1 Tl14 2.155020 1_555
O1 Tl0 2.194260 1_545
O1 Tl1 2.194260 1_455
O1 Tl5 2.607139 1_555
O2 Tl2 2.172910 1_555
O2 Tl9 2.248456 1_655
O2 Tl6 2.248456 1_565
O2 Tl5 2.723209 1_665
O3 Tl5 2.156331 1_555
O3 Tl0 2.329347 1_545
O3 Tl9 2.343584 1_545
O3 Tl4 2.456708 1_555
O4 Tl5 2.156331 1_555
O4 Tl1 2.329347 1_455
O4 Tl6 2.343584 1_455
O4 Tl3 2.456708 1_555
O5 Tl4 2.207968 1_555
O5 Tl7 2.230411 1_545
O5 Tl12 2.246564 1_555
O5 Tl0 2.772241 1_545
O6 Tl3 2.207968 1_555
O6 Tl8 2.230411 1_455
O6 Tl13 2.246564 1_555
O6 Tl1 2.772241 1_455
O7 Tl10 2.163444 1_555
O7 Tl7 2.229657 1_555
O7 Tl3 2.236543 1_555
O7 Tl5 2.702056 1_555
O8 Tl11 2.163444 1_555
O8 Tl8 2.229657 1_555
O8 Tl4 2.236543 1_555
O8 Tl5 2.702056 1_555
O9 Tl15 2.214479 1_555
O9 Tl6 2.241044 1_565
O9 Tl4 2.313611 1_565
O9 Tl1 2.344012 1_565
O10 Tl15 2.214479 1_555
O10 Tl9 2.241044 1_655
O10 Tl3 2.313611 1_655
O10 Tl0 2.344012 1_655
O11 Tl0 2.128024 1_555
O11 Tl7 2.191550 1_555
O11 Tl13 2.211036 1_555
O11 Tl3 2.600494 1_555
O12 Tl13 2.179341 1_556
O12 Tl6 2.282615 1_565
O12 Tl11 2.335329 1_565
O12 Tl4 2.489841 1_565
O13 Tl1 2.128024 1_555
O13 Tl8 2.191550 1_555
O13 Tl12 2.211036 1_555
O13 Tl4 2.600494 1_555
O14 Tl12 2.179341 1_556
O14 Tl9 2.282615 1_655
O14 Tl10 2.335329 1_655
O14 Tl3 2.489841 1_655
F0 Tl11 2.219598 1_555
F0 Tl2 2.450930 1_445
F0 Tl13 2.461735 1_546
F0 Tl0 2.590771 1_546
F1 Tl10 2.219598 1_555
F1 Tl2 2.450930 1_445
F1 Tl12 2.461735 1_456
F1 Tl1 2.590771 1_456
F2 Tl5 2.245877 1_555
F2 Tl2 2.375569 1_445
F2 Tl11 2.557453 1_555
F2 Tl10 2.557453 1_555
F3 Tl5 2.222516 1_555
F3 Tl14 2.280545 1_555
F4 Tl10 2.290751 1_555
F4 Tl11 2.290751 1_555
F4 Tl14 2.417094 1_556
F5 Tl12 2.336335 1_556
F5 Tl6 2.374713 1_555
F5 Tl2 2.456531 1_545
F5 Tl7 2.576048 1_546
F6 Tl13 2.339331 1_556
F6 Tl14 2.412139 1_556
F6 Tl10 2.479865 1_555
F6 Tl1 2.637499 1_456
F7 Tl13 2.336335 1_556
F7 Tl9 2.374713 1_555
F7 Tl2 2.456531 1_455
F7 Tl8 2.576048 1_456
F8 Tl12 2.339331 1_556
F8 Tl14 2.412139 1_556
F8 Tl11 2.479865 1_555
F8 Tl0 2.637499 1_546
F9 Tl8 2.300717 1_555
F9 Tl7 2.300717 1_555
F9 Tl2 2.416120 1_554
F10 Tl15 2.222214 1_555
F10 Tl11 2.376106 1_555
F10 Tl8 2.412606 1_555
F11 Tl15 2.222214 1_555
F11 Tl10 2.376106 1_555
F11 Tl7 2.412606 1_555
F12 Tl11 2.269913 1_555
F12 Tl3 2.373075 1_655
F12 Tl6 2.471071 1_555
F13 Tl10 2.269913 1_555
F13 Tl4 2.373075 1_565
F13 Tl9 2.471071 1_555
F14 Tl14 2.166820 1_556
F14 Tl15 2.331880 1_555
F15 Tl14 2.346907 1_555
F15 Tl8 2.424072 1_555
F15 Tl12 2.513744 1_555
F15 Tl9 2.582725 1_654
F16 Tl14 2.346907 1_555
F16 Tl7 2.424072 1_555
F16 Tl13 2.513744 1_555
F16 Tl6 2.582725 1_564
