# generated using pymatgen
data_Li3MnO4
_symmetry_space_group_name_H-M   'P 1'
_cell_length_a   5.08478548
_cell_length_b   10.19265217
_cell_length_c   9.77349027
_cell_angle_alpha   16.25606227
_cell_angle_beta   29.44615918
_cell_angle_gamma   33.33149694
_symmetry_Int_Tables_number   1
_chemical_formula_structural   Li3MnO4
_chemical_formula_sum   'Li3 Mn1 O4'
_cell_volume   69.70657674
_cell_formula_units_Z   1
loop_
 _symmetry_equiv_pos_site_id
 _symmetry_equiv_pos_as_xyz
  1  'x, y, z'
loop_
 _atom_site_type_symbol
 _atom_site_label
 _atom_site_symmetry_multiplicity
 _atom_site_fract_x
 _atom_site_fract_y
 _atom_site_fract_z
 _atom_site_occupancy
  Li  Li0  1  0.99099500  0.99482400  0.00995500  1
  Li  Li1  1  0.99692000  0.51393800  0.98624200  1
  Li  Li2  1  0.50233300  0.01030600  0.48848300  1
  Mn  Mn0  1  0.49882100  0.50345600  0.49587100  1
  O  O0  1  0.28036600  0.00150900  0.21957400  1
  O  O1  1  0.18692400  0.50473600  0.26539500  1
  O  O2  1  0.72098800  0.00478000  0.77041500  1
  O  O3  1  0.80777400  0.50244200  0.72783900  1
loop_
_geom_bond_atom_site_label_1
_geom_bond_atom_site_label_2
_geom_bond_distance
_geom_bond_site_symmetry_2
Li0 O3 2.025420 1_555
Li0 O0 2.054778 1_565
Li0 O1 2.061388 1_655
Li0 O3 2.065985 1_564
Li0 O2 2.075478 1_664
Li0 O1 2.089821 1_664
Li1 O0 2.140621 1_665
Li1 O2 2.147144 1_565
Li1 O2 2.170464 1_556
Li1 O0 2.198544 1_656
Li1 O1 2.235909 1_556
Li1 O3 2.239857 1_655
Li2 O3 2.037108 1_554
Li2 O1 2.051884 1_555
Li2 O1 2.062856 1_546
Li2 O0 2.077867 1_655
Li2 O3 2.079247 1_545
Li2 O2 2.095198 1_455
Mn0 O1 1.899881 1_655
Mn0 O3 1.904796 1_455
Mn0 O0 1.941575 1_556
Mn0 O0 1.943519 1_565
Mn0 O2 1.947056 1_564
Mn0 O2 1.951685 1_555
