# generated using pymatgen
data_Li5Fe2Co3O10
_symmetry_space_group_name_H-M   'P 1'
_cell_length_a   2.87435800
_cell_length_b   5.04628900
_cell_length_c   23.54650144
_cell_angle_alpha   85.58856303
_cell_angle_beta   90.00000000
_cell_angle_gamma   90.00000000
_symmetry_Int_Tables_number   1
_chemical_formula_structural   Li5Fe2Co3O10
_chemical_formula_sum   'Li10 Fe4 Co6 O20'
_cell_volume   340.52642811
_cell_formula_units_Z   2
loop_
 _symmetry_equiv_pos_site_id
 _symmetry_equiv_pos_as_xyz
  1  'x, y, z'
loop_
 _atom_site_type_symbol
 _atom_site_label
 _atom_site_symmetry_multiplicity
 _atom_site_fract_x
 _atom_site_fract_y
 _atom_site_fract_z
 _atom_site_occupancy
  Li  Li0  1  0.50000000  0.19909700  0.89918400  1
  Li  Li1  1  0.00000000  0.40000700  0.80012000  1
  Li  Li2  1  0.50000000  0.59983500  0.70068600  1
  Li  Li3  1  0.00000000  0.80169400  0.60121800  1
  Li  Li4  1  0.50000000  0.00057800  0.50073300  1
  Li  Li5  1  0.00000000  0.20110200  0.40055800  1
  Li  Li6  1  0.50000000  0.40047800  0.30039600  1
  Li  Li7  1  0.00000000  0.59992200  0.19973900  1
  Li  Li8  1  0.50000000  0.79988700  0.09911200  1
  Li  Li9  1  0.00000000  0.99806500  0.99826500  1
  Fe  Fe0  1  0.00000000  0.49854500  0.50215700  1
  Fe  Fe1  1  0.00000000  0.89391800  0.30368600  1
  Fe  Fe2  1  0.50000000  0.10032100  0.19958200  1
  Fe  Fe3  1  0.00000000  0.30626900  0.09541600  1
  Co  Co0  1  0.00000000  0.70082100  0.89810300  1
  Co  Co1  1  0.50000000  0.90050000  0.79961100  1
  Co  Co2  1  0.00000000  0.09987500  0.70056500  1
  Co  Co3  1  0.50000000  0.29832000  0.60160100  1
  Co  Co4  1  0.50000000  0.69624000  0.40321800  1
  Co  Co5  1  0.50000000  0.50492600  0.99607100  1
  O  O0  1  0.00000000  0.38275900  0.94954600  1
  O  O1  1  0.50000000  0.82052700  0.94510600  1
  O  O2  1  0.00000000  0.02040800  0.84711200  1
  O  O3  1  0.50000000  0.58012700  0.85101600  1
  O  O4  1  0.00000000  0.78051400  0.75224900  1
  O  O5  1  0.50000000  0.21962500  0.74806200  1
  O  O6  1  0.00000000  0.41870700  0.64883300  1
  O  O7  1  0.00000000  0.17504100  0.55426300  1
  O  O8  1  0.50000000  0.98018400  0.65310700  1
  O  O9  1  0.50000000  0.62090400  0.55035900  1
  O  O10  1  0.50000000  0.37788600  0.45391200  1
  O  O11  1  0.00000000  0.82081000  0.44962300  1
  O  O12  1  0.00000000  0.56479600  0.35679100  1
  O  O13  1  0.50000000  0.02772400  0.35368200  1
  O  O14  1  0.00000000  0.23639100  0.25038800  1
  O  O15  1  0.50000000  0.76066500  0.25220900  1
  O  O16  1  0.00000000  0.96419100  0.14884000  1
  O  O17  1  0.50000000  0.43953200  0.14689000  1
  O  O18  1  0.50000000  0.17228000  0.04545900  1
  O  O19  1  0.00000000  0.63652600  0.04253300  1
loop_
_geom_bond_atom_site_label_1
_geom_bond_atom_site_label_2
_geom_bond_distance
_geom_bond_site_symmetry_2
Li0 O0 2.121267 1_655
Li0 O0 2.121267 1_555
Li0 O1 2.121548 1_545
Li0 O2 2.133545 1_555
Li0 O2 2.133545 1_655
Li0 O3 2.155924 1_555
Li1 O3 2.120245 1_555
Li1 O3 2.120245 1_455
Li1 O2 2.137209 1_555
Li1 O5 2.137346 1_455
Li1 O5 2.137346 1_555
Li1 O4 2.150483 1_555
Li2 O4 2.131007 1_555
Li2 O4 2.131007 1_655
Li2 O6 2.136197 1_555
Li2 O6 2.136197 1_655
Li2 O5 2.143918 1_555
Li2 O8 2.146679 1_555
Li3 O7 2.109854 1_565
Li3 O9 2.121323 1_455
Li3 O9 2.121323 1_555
Li3 O8 2.130462 1_455
Li3 O8 2.130462 1_555
Li3 O6 2.158440 1_555
Li4 O11 2.122426 1_545
Li4 O11 2.122426 1_645
Li4 O10 2.125502 1_555
Li4 O7 2.144761 1_555
Li4 O7 2.144761 1_655
Li4 O9 2.166072 1_545
Li5 O12 2.034560 1_555
Li5 O13 2.048858 1_555
Li5 O13 2.048858 1_455
Li5 O10 2.147564 1_555
Li5 O10 2.147564 1_455
Li5 O11 2.162515 1_545
Li6 O15 2.067326 1_555
Li6 O14 2.070664 1_655
Li6 O14 2.070664 1_555
Li6 O12 2.164664 1_555
Li6 O12 2.164664 1_655
Li6 O13 2.179323 1_555
Li7 O15 2.098583 1_555
Li7 O15 2.098583 1_455
Li7 O17 2.103347 1_455
Li7 O17 2.103347 1_555
Li7 O14 2.109756 1_555
Li7 O16 2.115769 1_555
Li8 O17 2.063420 1_555
Li8 O16 2.067205 1_555
Li8 O16 2.067205 1_655
Li8 O19 2.165380 1_655
Li8 O19 2.165380 1_555
Li8 O18 2.182250 1_565
Li9 O19 2.030394 1_556
Li9 O18 2.055126 1_466
Li9 O18 2.055126 1_566
Li9 O1 2.146491 1_455
Li9 O1 2.146491 1_555
Li9 O0 2.177602 1_565
Fe0 O10 1.957836 1_555
Fe0 O10 1.957836 1_455
Fe0 O9 1.960293 1_555
Fe0 O9 1.960293 1_455
Fe0 O7 1.965257 1_555
Fe0 O11 1.966049 1_555
Fe1 O12 2.000628 1_555
Fe1 O13 2.007378 1_465
Fe1 O13 2.007378 1_565
Fe1 O15 2.027863 1_455
Fe1 O15 2.027863 1_555
Fe1 O14 2.056225 1_565
Fe2 O16 2.022669 1_545
Fe2 O16 2.022669 1_645
Fe2 O14 2.023482 1_655
Fe2 O14 2.023482 1_555
Fe2 O17 2.035377 1_555
Fe2 O15 2.036328 1_545
Fe3 O19 2.002190 1_555
Fe3 O18 2.007168 1_555
Fe3 O18 2.007168 1_455
Fe3 O17 2.027838 1_455
Fe3 O17 2.027838 1_555
Fe3 O16 2.056266 1_545
Co0 O0 1.935019 1_555
Co0 O2 1.935096 1_565
Co0 O1 1.938593 1_455
Co0 O1 1.938593 1_555
Co0 O3 1.941548 1_455
Co0 O3 1.941548 1_555
Co1 O5 1.940614 1_565
Co1 O3 1.943644 1_555
Co1 O4 1.944136 1_555
Co1 O4 1.944136 1_655
Co1 O2 1.945953 1_565
Co1 O2 1.945953 1_665
Co2 O6 1.941883 1_555
Co2 O4 1.943331 1_545
Co2 O8 1.944959 1_545
Co2 O8 1.944959 1_445
Co2 O5 1.945614 1_455
Co2 O5 1.945614 1_555
Co3 O8 1.936145 1_545
Co3 O6 1.943029 1_555
Co3 O6 1.943029 1_655
Co3 O7 1.949769 1_555
Co3 O7 1.949769 1_655
Co3 O9 1.950272 1_555
Co4 O10 1.926318 1_555
Co4 O11 1.939136 1_555
Co4 O11 1.939136 1_655
Co4 O12 1.952454 1_655
Co4 O12 1.952454 1_555
Co4 O13 1.964300 1_565
Co5 O1 1.918989 1_555
Co5 O0 1.936378 1_555
Co5 O0 1.936378 1_655
Co5 O19 1.953239 1_556
Co5 O19 1.953239 1_656
Co5 O18 1.967196 1_556
