# generated using pymatgen
data_Co3SnO8
_symmetry_space_group_name_H-M   'P 1'
_cell_length_a   5.67547652
_cell_length_b   5.67547652
_cell_length_c   9.39117000
_cell_angle_alpha   90.00000000
_cell_angle_beta   90.00000000
_cell_angle_gamma   120.00000611
_symmetry_Int_Tables_number   1
_chemical_formula_structural   Co3SnO8
_chemical_formula_sum   'Co6 Sn2 O16'
_cell_volume   261.97205717
_cell_formula_units_Z   2
loop_
 _symmetry_equiv_pos_site_id
 _symmetry_equiv_pos_as_xyz
  1  'x, y, z'
loop_
 _atom_site_type_symbol
 _atom_site_label
 _atom_site_symmetry_multiplicity
 _atom_site_fract_x
 _atom_site_fract_y
 _atom_site_fract_z
 _atom_site_occupancy
  Co  Co0  1  0.16753100  0.83246900  0.21281100  1
  Co  Co1  1  0.16753100  0.33506100  0.21281100  1
  Co  Co2  1  0.66493900  0.83246900  0.21281100  1
  Co  Co3  1  0.33506100  0.16753100  0.71281100  1
  Co  Co4  1  0.83246900  0.66493900  0.71281100  1
  Co  Co5  1  0.83246900  0.16753100  0.71281100  1
  Sn  Sn0  1  0.33333300  0.66666700  0.49147300  1
  Sn  Sn1  1  0.66666700  0.33333300  0.99147300  1
  O  O0  1  0.15652800  0.84347200  0.60907700  1
  O  O1  1  0.03209100  0.51604600  0.32534100  1
  O  O2  1  0.33333300  0.66666700  0.10901200  1
  O  O3  1  0.00000000  0.00000000  0.31597300  1
  O  O4  1  0.00000000  0.00000000  0.81597300  1
  O  O5  1  0.15652800  0.31305500  0.60907700  1
  O  O6  1  0.48395400  0.96790900  0.32534100  1
  O  O7  1  0.48395400  0.51604600  0.32534100  1
  O  O8  1  0.31305500  0.15652800  0.10907700  1
  O  O9  1  0.68694500  0.84347200  0.60907700  1
  O  O10  1  0.51604600  0.48395400  0.82534100  1
  O  O11  1  0.51604600  0.03209100  0.82534100  1
  O  O12  1  0.66666700  0.33333300  0.60901200  1
  O  O13  1  0.84347200  0.68694500  0.10907700  1
  O  O14  1  0.96790900  0.48395400  0.82534100  1
  O  O15  1  0.84347200  0.15652800  0.10907700  1
loop_
_geom_bond_atom_site_label_1
_geom_bond_atom_site_label_2
_geom_bond_distance
_geom_bond_site_symmetry_2
Co0 O13 1.869431 1_455
Co0 O8 1.869431 1_565
Co0 O1 1.884759 1_555
Co0 O6 1.884759 1_555
Co0 O2 1.899131 1_555
Co0 O3 1.910697 1_565
Co1 O8 1.869422 1_555
Co1 O15 1.869430 1_455
Co1 O7 1.884760 1_555
Co1 O1 1.884767 1_555
Co1 O2 1.899139 1_555
Co1 O3 1.910693 1_555
Co2 O13 1.869422 1_555
Co2 O15 1.869430 1_565
Co2 O7 1.884760 1_555
Co2 O6 1.884767 1_555
Co2 O2 1.899139 1_555
Co2 O3 1.910693 1_665
Co3 O5 1.869422 1_555
Co3 O0 1.869430 1_545
Co3 O10 1.884760 1_555
Co3 O11 1.884767 1_555
Co3 O12 1.899139 1_555
Co3 O4 1.910693 1_555
Co4 O9 1.869422 1_555
Co4 O0 1.869430 1_655
Co4 O10 1.884760 1_555
Co4 O14 1.884767 1_555
Co4 O12 1.899139 1_555
Co4 O4 1.910693 1_665
Co5 O9 1.869431 1_545
Co5 O5 1.869431 1_655
Co5 O11 1.884759 1_555
Co5 O14 1.884759 1_555
Co5 O12 1.899131 1_555
Co5 O4 1.910697 1_655
O0 Sn0 2.059257 1_555
O1 Sn0 2.150913 1_555
O5 Sn0 2.059265 1_555
O6 Sn0 2.150913 1_555
O7 Sn0 2.150913 1_555
O8 Sn1 2.059265 1_554
O9 Sn0 2.059265 1_555
O10 Sn1 2.150913 1_555
O11 Sn1 2.150913 1_555
O13 Sn1 2.059265 1_554
O14 Sn1 2.150913 1_555
O15 Sn1 2.059257 1_554
