# generated using pymatgen
data_Ca3WO6
_symmetry_space_group_name_H-M   'P 1'
_cell_length_a   5.87336100
_cell_length_b   5.60329100
_cell_length_c   9.83542972
_cell_angle_alpha   55.74871251
_cell_angle_beta   90.00000000
_cell_angle_gamma   90.00000000
_symmetry_Int_Tables_number   1
_chemical_formula_structural   Ca3WO6
_chemical_formula_sum   'Ca6 W2 O12'
_cell_volume   267.55100253
_cell_formula_units_Z   2
loop_
 _symmetry_equiv_pos_site_id
 _symmetry_equiv_pos_as_xyz
  1  'x, y, z'
loop_
 _atom_site_type_symbol
 _atom_site_label
 _atom_site_symmetry_multiplicity
 _atom_site_fract_x
 _atom_site_fract_y
 _atom_site_fract_z
 _atom_site_occupancy
  Ca  Ca0  1  0.50000000  0.50000000  0.50000000  1
  Ca  Ca1  1  0.94461100  0.72576400  0.25840300  1
  Ca  Ca2  1  0.44461100  0.27423600  0.24159700  1
  Ca  Ca3  1  0.00000000  0.50000000  0.00000000  1
  Ca  Ca4  1  0.55538900  0.72576400  0.75840300  1
  Ca  Ca5  1  0.05538900  0.27423600  0.74159700  1
  W  W0  1  0.50000000  0.00000000  0.00000000  1
  W  W1  1  0.00000000  0.00000000  0.50000000  1
  O  O0  1  0.44154300  0.10783700  0.77503500  1
  O  O1  1  0.22494800  0.75630300  0.07466400  1
  O  O2  1  0.17601700  0.33498100  0.44998700  1
  O  O3  1  0.67601700  0.66501900  0.05001300  1
  O  O4  1  0.72494800  0.24369700  0.42533600  1
  O  O5  1  0.94154300  0.89216300  0.72496500  1
  O  O6  1  0.05845700  0.10783700  0.27503500  1
  O  O7  1  0.27505200  0.75630300  0.57466400  1
  O  O8  1  0.32398300  0.33498100  0.94998700  1
  O  O9  1  0.82398300  0.66501900  0.55001300  1
  O  O10  1  0.77505200  0.24369700  0.92533600  1
  O  O11  1  0.55845700  0.89216300  0.22496500  1
loop_
_geom_bond_atom_site_label_1
_geom_bond_atom_site_label_2
_geom_bond_distance
_geom_bond_site_symmetry_2
Ca0 O9 2.286883 1_555
Ca0 O2 2.286883 1_555
Ca0 O4 2.352549 1_555
Ca0 O7 2.352549 1_555
Ca0 O0 2.360705 1_555
Ca0 O11 2.360705 1_555
Ca1 O6 2.334820 1_665
Ca1 O2 2.355436 1_655
Ca1 O1 2.378659 1_655
Ca1 O11 2.403383 1_555
Ca1 O4 2.581536 1_555
Ca1 O3 2.755119 1_555
Ca1 O9 2.782981 1_555
Ca2 O11 2.334820 1_545
Ca2 O3 2.355436 1_555
Ca2 O4 2.378659 1_555
Ca2 O6 2.403383 1_555
Ca2 O1 2.581536 1_555
Ca2 O2 2.755119 1_555
Ca2 O8 2.782981 1_554
Ca3 O3 2.286883 1_455
Ca3 O8 2.286883 1_554
Ca3 O1 2.352549 1_555
Ca3 O10 2.352549 1_454
Ca3 O5 2.360705 1_454
Ca3 O6 2.360705 1_555
Ca4 O0 2.334820 1_565
Ca4 O8 2.355436 1_555
Ca4 O7 2.378659 1_555
Ca4 O5 2.403383 1_555
Ca4 O10 2.581536 1_555
Ca4 O9 2.755119 1_555
Ca4 O3 2.782981 1_556
Ca5 O5 2.334820 1_445
Ca5 O9 2.355436 1_455
Ca5 O10 2.378659 1_455
Ca5 O0 2.403383 1_555
Ca5 O7 2.581536 1_555
Ca5 O8 2.755119 1_555
Ca5 O2 2.782981 1_555
O0 W0 1.968188 1_556
O1 W0 1.971014 1_565
O2 W1 1.947959 1_555
O3 W0 1.947959 1_565
O4 W1 1.971014 1_655
O5 W1 1.968188 1_665
O6 W1 1.968188 1_555
O7 W1 1.971014 1_565
O8 W0 1.947959 1_556
O9 W1 1.947959 1_665
O10 W0 1.971014 1_556
O11 W0 1.968188 1_565
