# generated using pymatgen
data_Na6Bi2B4SO16
_symmetry_space_group_name_H-M   'P 1'
_cell_length_a   10.25883953
_cell_length_b   10.25883953
_cell_length_c   10.25883953
_cell_angle_alpha   60.00000000
_cell_angle_beta   60.00000000
_cell_angle_gamma   60.00000000
_symmetry_Int_Tables_number   1
_chemical_formula_structural   Na6Bi2B4SO16
_chemical_formula_sum   'Na12 Bi4 B8 S2 O32'
_cell_volume   763.44844021
_cell_formula_units_Z   2
loop_
 _symmetry_equiv_pos_site_id
 _symmetry_equiv_pos_as_xyz
  1  'x, y, z'
loop_
 _atom_site_type_symbol
 _atom_site_label
 _atom_site_symmetry_multiplicity
 _atom_site_fract_x
 _atom_site_fract_y
 _atom_site_fract_z
 _atom_site_occupancy
  Na  Na0  1  0.04130500  0.45869500  0.45869500  1
  Na  Na1  1  0.04130500  0.04130500  0.45869500  1
  Na  Na2  1  0.79130500  0.79130500  0.20869500  1
  Na  Na3  1  0.45869500  0.04130500  0.04130500  1
  Na  Na4  1  0.20869500  0.79130500  0.20869500  1
  Na  Na5  1  0.79130500  0.20869500  0.79130500  1
  Na  Na6  1  0.45869500  0.04130500  0.45869500  1
  Na  Na7  1  0.04130500  0.45869500  0.04130500  1
  Na  Na8  1  0.79130500  0.20869500  0.20869500  1
  Na  Na9  1  0.20869500  0.79130500  0.79130500  1
  Na  Na10  1  0.20869500  0.20869500  0.79130500  1
  Na  Na11  1  0.45869500  0.45869500  0.04130500  1
  Bi  Bi0  1  0.62500000  0.12500000  0.62500000  1
  Bi  Bi1  1  0.12500000  0.62500000  0.62500000  1
  Bi  Bi2  1  0.62500000  0.62500000  0.12500000  1
  Bi  Bi3  1  0.62500000  0.62500000  0.62500000  1
  B  B0  1  0.79173600  0.40275500  0.40275500  1
  B  B1  1  0.84724500  0.84724500  0.45826400  1
  B  B2  1  0.40275500  0.79173600  0.40275500  1
  B  B3  1  0.40275500  0.40275500  0.40275500  1
  B  B4  1  0.84724500  0.84724500  0.84724500  1
  B  B5  1  0.84724500  0.45826400  0.84724500  1
  B  B6  1  0.45826400  0.84724500  0.84724500  1
  B  B7  1  0.40275500  0.40275500  0.79173600  1
  S  S0  1  0.00000000  0.00000000  0.00000000  1
  S  S1  1  0.25000000  0.25000000  0.25000000  1
  O  O0  1  0.05964900  0.05964900  0.82105200  1
  O  O1  1  0.05964900  0.05964900  0.05964900  1
  O  O2  1  0.05964900  0.82105200  0.05964900  1
  O  O3  1  0.71951200  0.98938800  0.83550300  1
  O  O4  1  0.82105200  0.05964900  0.05964900  1
  O  O5  1  0.98938800  0.71951200  0.45559700  1
  O  O6  1  0.45559700  0.83550300  0.98938800  1
  O  O7  1  0.83550300  0.98938800  0.45559700  1
  O  O8  1  0.79440300  0.53048800  0.41449700  1
  O  O9  1  0.53048800  0.79440300  0.26061200  1
  O  O10  1  0.98938800  0.83550300  0.71951200  1
  O  O11  1  0.71951200  0.83550300  0.45559700  1
  O  O12  1  0.79440300  0.26061200  0.53048800  1
  O  O13  1  0.41449700  0.53048800  0.26061200  1
  O  O14  1  0.98938800  0.45559700  0.83550300  1
  O  O15  1  0.83550300  0.45559700  0.71951200  1
  O  O16  1  0.41449700  0.79440300  0.53048800  1
  O  O17  1  0.83550300  0.71951200  0.98938800  1
  O  O18  1  0.26061200  0.79440300  0.41449700  1
  O  O19  1  0.45559700  0.98938800  0.71951200  1
  O  O20  1  0.53048800  0.41449700  0.79440300  1
  O  O21  1  0.26061200  0.41449700  0.53048800  1
  O  O22  1  0.71951200  0.45559700  0.98938800  1
  O  O23  1  0.45559700  0.71951200  0.83550300  1
  O  O24  1  0.41449700  0.26061200  0.79440300  1
  O  O25  1  0.79440300  0.41449700  0.26061200  1
  O  O26  1  0.26061200  0.53048800  0.79440300  1
  O  O27  1  0.42894800  0.19035100  0.19035100  1
  O  O28  1  0.53048800  0.26061200  0.41449700  1
  O  O29  1  0.19035100  0.42894800  0.19035100  1
  O  O30  1  0.19035100  0.19035100  0.19035100  1
  O  O31  1  0.19035100  0.19035100  0.42894800  1
loop_
_geom_bond_atom_site_label_1
_geom_bond_atom_site_label_2
_geom_bond_distance
_geom_bond_site_symmetry_2
Na0 O5 2.439415 1_455
Na0 O15 2.439415 1_455
Na0 O8 2.472400 1_455
Na0 O21 2.472400 1_555
Na0 O29 2.484700 1_555
Na0 O31 2.484700 1_555
Na1 O7 2.439415 1_445
Na1 O10 2.439415 1_445
Na1 O18 2.472400 1_545
Na1 O12 2.472400 1_455
Na1 O30 2.484703 1_555
Na1 O31 2.484709 1_555
Na2 O9 2.439415 1_555
Na2 O8 2.439415 1_555
Na2 O17 2.472400 1_554
Na2 O11 2.472400 1_555
Na2 O2 2.484700 1_655
Na2 O4 2.484700 1_565
Na3 O3 2.439415 1_544
Na3 O6 2.439415 1_544
Na3 O24 2.472400 1_554
Na3 O9 2.472400 1_545
Na3 O30 2.484703 1_555
Na3 O27 2.484709 1_555
Na4 O13 2.439415 1_555
Na4 O18 2.439415 1_555
Na4 O6 2.472400 1_554
Na4 O5 2.472400 1_455
Na4 O1 2.484703 1_565
Na4 O2 2.484709 1_555
Na5 O12 2.439415 1_555
Na5 O20 2.439415 1_555
Na5 O15 2.472400 1_555
Na5 O3 2.472400 1_545
Na5 O4 2.484700 1_556
Na5 O0 2.484700 1_655
Na6 O19 2.439415 1_545
Na6 O11 2.439415 1_545
Na6 O16 2.472400 1_545
Na6 O28 2.472400 1_555
Na6 O27 2.484700 1_555
Na6 O31 2.484700 1_555
Na7 O14 2.439415 1_454
Na7 O17 2.439415 1_454
Na7 O25 2.472400 1_455
Na7 O26 2.472400 1_554
Na7 O30 2.484703 1_555
Na7 O29 2.484709 1_555
Na8 O28 2.439415 1_555
Na8 O25 2.439415 1_555
Na8 O22 2.472400 1_554
Na8 O7 2.472400 1_545
Na8 O1 2.484703 1_655
Na8 O4 2.484709 1_555
Na9 O26 2.439415 1_555
Na9 O16 2.439415 1_555
Na9 O10 2.472400 1_455
Na9 O23 2.472400 1_555
Na9 O0 2.484700 1_565
Na9 O2 2.484700 1_556
Na10 O21 2.439415 1_555
Na10 O24 2.439415 1_555
Na10 O14 2.472400 1_455
Na10 O19 2.472400 1_545
Na10 O1 2.484703 1_556
Na10 O0 2.484709 1_555
Na11 O23 2.439415 1_554
Na11 O22 2.439415 1_554
Na11 O20 2.472400 1_554
Na11 O13 2.472400 1_555
Na11 O27 2.484700 1_555
Na11 O29 2.484700 1_555
Bi0 O3 2.297751 1_545
Bi0 O24 2.297751 1_555
Bi0 O12 2.297751 1_555
Bi0 O28 2.297751 1_555
Bi0 O7 2.297751 1_545
Bi0 O19 2.297751 1_545
Bi1 O10 2.297751 1_455
Bi1 O26 2.297751 1_555
Bi1 O18 2.297751 1_555
Bi1 O21 2.297751 1_555
Bi1 O14 2.297751 1_455
Bi1 O5 2.297751 1_455
Bi2 O17 2.297751 1_554
Bi2 O9 2.297751 1_555
Bi2 O25 2.297751 1_555
Bi2 O13 2.297751 1_555
Bi2 O6 2.297751 1_554
Bi2 O22 2.297751 1_554
Bi3 O15 2.297751 1_555
Bi3 O11 2.297751 1_555
Bi3 O23 2.297751 1_555
Bi3 O16 2.297751 1_555
Bi3 O20 2.297751 1_555
Bi3 O8 2.297751 1_555
B0 O8 1.389023 1_555
B0 O12 1.389029 1_555
B0 O25 1.389033 1_555
B1 O11 1.389023 1_555
B1 O5 1.389029 1_555
B1 O7 1.389033 1_555
B2 O16 1.389023 1_555
B2 O9 1.389029 1_555
B2 O18 1.389033 1_555
B3 O13 1.389028 1_555
B3 O21 1.389028 1_555
B3 O28 1.389028 1_555
B4 O10 1.389028 1_555
B4 O3 1.389028 1_555
B4 O17 1.389028 1_555
B5 O15 1.389023 1_555
B5 O22 1.389029 1_555
B5 O14 1.389033 1_555
B6 O23 1.389023 1_555
B6 O19 1.389029 1_555
B6 O6 1.389033 1_555
B7 O20 1.389023 1_555
B7 O26 1.389029 1_555
B7 O24 1.389033 1_555
O0 S0 1.498923 1_556
O1 S0 1.498915 1_555
O2 S0 1.498923 1_565
O4 S0 1.498923 1_655
O27 S1 1.498923 1_555
O29 S1 1.498923 1_555
O30 S1 1.498915 1_555
O31 S1 1.498923 1_555
