# generated using pymatgen
data_TiCr2Ni3(PO4)6
_symmetry_space_group_name_H-M   'P 1'
_cell_length_a   8.40034748
_cell_length_b   8.40034748
_cell_length_c   8.40034773
_cell_angle_alpha   61.90362888
_cell_angle_beta   61.90362888
_cell_angle_gamma   61.90363418
_symmetry_Int_Tables_number   1
_chemical_formula_structural   TiCr2Ni3(PO4)6
_chemical_formula_sum   'Ti1 Cr2 Ni3 P6 O24'
_cell_volume   437.01701131
_cell_formula_units_Z   1
loop_
 _symmetry_equiv_pos_site_id
 _symmetry_equiv_pos_as_xyz
  1  'x, y, z'
loop_
 _atom_site_type_symbol
 _atom_site_label
 _atom_site_symmetry_multiplicity
 _atom_site_fract_x
 _atom_site_fract_y
 _atom_site_fract_z
 _atom_site_occupancy
  Ti  Ti0  1  0.85313700  0.85313700  0.85313700  1
  Cr  Cr0  1  0.00083500  0.00083500  0.00083500  1
  Cr  Cr1  1  0.50188600  0.50188600  0.50188600  1
  Ni  Ni0  1  0.14463100  0.14463100  0.14463100  1
  Ni  Ni1  1  0.35871200  0.35871200  0.35871200  1
  Ni  Ni2  1  0.64311400  0.64311400  0.64311400  1
  P  P0  1  0.94877100  0.54852600  0.25160500  1
  P  P1  1  0.25160500  0.94877100  0.54852600  1
  P  P2  1  0.54852600  0.25160500  0.94877100  1
  P  P3  1  0.44894300  0.74754200  0.05021000  1
  P  P4  1  0.74754200  0.05021000  0.44894300  1
  P  P5  1  0.05021000  0.44894300  0.74754200  1
  O  O0  1  0.51310700  0.32502500  0.10214900  1
  O  O1  1  0.10214900  0.51310700  0.32502500  1
  O  O2  1  0.24969000  0.90413700  0.06065700  1
  O  O3  1  0.32502500  0.10214900  0.51310700  1
  O  O4  1  0.61131600  0.82695200  0.98854500  1
  O  O5  1  0.44342000  0.60103600  0.25237200  1
  O  O6  1  0.90413700  0.06065700  0.24969000  1
  O  O7  1  0.60103600  0.25237200  0.44342000  1
  O  O8  1  0.99686300  0.39765400  0.17387300  1
  O  O9  1  0.25237200  0.44342000  0.60103600  1
  O  O10  1  0.93440400  0.75433200  0.09250700  1
  O  O11  1  0.17387300  0.99686300  0.39765400  1
  O  O12  1  0.82695200  0.98854500  0.61131600  1
  O  O13  1  0.06065700  0.24969000  0.90413700  1
  O  O14  1  0.74540000  0.56830100  0.40083500  1
  O  O15  1  0.98854500  0.61131600  0.82695200  1
  O  O16  1  0.40083500  0.74540000  0.56830100  1
  O  O17  1  0.09250700  0.93440400  0.75433200  1
  O  O18  1  0.56830100  0.40083500  0.74540000  1
  O  O19  1  0.39765400  0.17387300  0.99686300  1
  O  O20  1  0.66548200  0.90250000  0.49153300  1
  O  O21  1  0.75433200  0.09250700  0.93440400  1
  O  O22  1  0.90250000  0.49153300  0.66548200  1
  O  O23  1  0.49153300  0.66548200  0.90250000  1
loop_
_geom_bond_atom_site_label_1
_geom_bond_atom_site_label_2
_geom_bond_distance
_geom_bond_site_symmetry_2
Cr0 O13 2.070743 1_554
Cr0 O2 2.070743 1_545
Cr0 O6 2.070743 1_455
Cr0 O10 2.091398 1_445
Cr0 O21 2.091398 1_454
Cr0 O17 2.091398 1_544
Cr1 O14 2.051740 1_555
Cr1 O18 2.051740 1_555
Cr1 O16 2.051740 1_555
Cr1 O9 2.065947 1_555
Cr1 O5 2.065948 1_555
Cr1 O7 2.065948 1_555
Ni0 O19 1.959161 1_554
Ni0 O11 1.959161 1_545
Ni0 O8 1.959161 1_455
Ni0 O6 2.105797 1_455
Ni0 O13 2.105798 1_554
Ni0 O2 2.105798 1_545
Ni1 O3 2.000764 1_555
Ni1 O0 2.000764 1_555
Ni1 O1 2.000764 1_555
Ni1 O5 2.121524 1_555
Ni1 O9 2.121524 1_555
Ni1 O7 2.121524 1_555
Ni2 O20 1.987804 1_555
Ni2 O23 1.987804 1_555
Ni2 O22 1.987804 1_555
Ni2 O18 2.079510 1_555
Ni2 O14 2.079510 1_555
Ni2 O16 2.079510 1_555
O0 P2 1.530855 1_554
O1 P0 1.530855 1_455
O2 P3 1.560828 1_555
O3 P1 1.530855 1_545
O4 P3 1.561992 1_556
O4 Ti0 1.864811 1_555
O5 P3 1.552973 1_555
O6 P4 1.560828 1_555
O7 P4 1.552973 1_555
O8 P0 1.498195 1_555
O9 P5 1.552973 1_555
O10 P0 1.602713 1_555
O10 Ti0 2.094154 1_554
O11 P1 1.498195 1_555
O12 P4 1.561992 1_565
O12 Ti0 1.864811 1_555
O13 P5 1.560828 1_555
O14 P0 1.558617 1_555
O15 P5 1.561992 1_655
O15 Ti0 1.864811 1_555
O16 P1 1.558617 1_555
O17 P1 1.602713 1_555
O17 Ti0 2.094154 1_455
O18 P2 1.558617 1_555
O19 P2 1.498195 1_555
O20 P4 1.515920 1_565
O21 P2 1.602713 1_555
O21 Ti0 2.094154 1_545
O22 P5 1.515920 1_655
O23 P3 1.515920 1_556
