# generated using pymatgen
data_Li8Mn7Fe(BO3)8
_symmetry_space_group_name_H-M   'P 1'
_cell_length_a   6.06640300
_cell_length_b   9.03025205
_cell_length_c   9.86521246
_cell_angle_alpha   81.57118853
_cell_angle_beta   79.22036510
_cell_angle_gamma   77.24336105
_symmetry_Int_Tables_number   1
_chemical_formula_structural   Li8Mn7Fe(BO3)8
_chemical_formula_sum   'Li8 Mn7 Fe1 B8 O24'
_cell_volume   514.65146293
_cell_formula_units_Z   1
loop_
 _symmetry_equiv_pos_site_id
 _symmetry_equiv_pos_as_xyz
  1  'x, y, z'
loop_
 _atom_site_type_symbol
 _atom_site_label
 _atom_site_symmetry_multiplicity
 _atom_site_fract_x
 _atom_site_fract_y
 _atom_site_fract_z
 _atom_site_occupancy
  Li  Li0  1  0.97272900  0.96554300  0.70212800  1
  Li  Li1  1  0.72148000  0.46721300  0.95126700  1
  Li  Li2  1  0.77850000  0.53476500  0.54966300  1
  Li  Li3  1  0.47191700  0.96574600  0.20158500  1
  Li  Li4  1  0.52833400  0.03409800  0.79835600  1
  Li  Li5  1  0.22127500  0.46645100  0.45166900  1
  Li  Li6  1  0.27845000  0.53437800  0.04779300  1
  Li  Li7  1  0.02931700  0.03229400  0.29822700  1
  Mn  Mn0  1  0.78834500  0.79353500  0.97634600  1
  Mn  Mn1  1  0.96204200  0.70601700  0.27305500  1
  Mn  Mn2  1  0.71249100  0.20555000  0.52249700  1
  Mn  Mn3  1  0.53862300  0.29404000  0.22700300  1
  Mn  Mn4  1  0.29123400  0.79287800  0.47928800  1
  Mn  Mn5  1  0.03867700  0.29406800  0.72673900  1
  Mn  Mn6  1  0.21051000  0.20594200  0.02353500  1
  Fe  Fe0  1  0.46263400  0.70241900  0.77485400  1
  B  B0  1  0.98303300  0.36774600  0.27929100  1
  B  B1  1  0.73226700  0.86750800  0.53117300  1
  B  B2  1  0.76649700  0.13264300  0.97054500  1
  B  B3  1  0.48295200  0.36904900  0.77786100  1
  B  B4  1  0.51683100  0.63270400  0.22054200  1
  B  B5  1  0.23338300  0.86670000  0.02704900  1
  B  B6  1  0.26712800  0.13214800  0.47055000  1
  B  B7  1  0.01694000  0.63257100  0.72118600  1
  O  O0  1  0.90457200  0.86446600  0.41592600  1
  O  O1  1  0.84140700  0.63483400  0.83486900  1
  O  O2  1  0.88623400  0.25345900  0.93822800  1
  O  O3  1  0.93299100  0.48353000  0.36446400  1
  O  O4  1  0.68387400  0.98437700  0.61493800  1
  O  O5  1  0.81592500  0.01638000  0.88603900  1
  O  O6  1  0.86384700  0.24662800  0.31089100  1
  O  O7  1  0.61122900  0.74721600  0.56597600  1
  O  O8  1  0.65810200  0.36501400  0.66437700  1
  O  O9  1  0.40531900  0.86396900  0.91158600  1
  O  O10  1  0.63734300  0.75291200  0.18804000  1
  O  O11  1  0.43251200  0.48812500  0.86031700  1
  O  O12  1  0.56557800  0.51653000  0.13569500  1
  O  O13  1  0.36307300  0.24867000  0.81255300  1
  O  O14  1  0.59212800  0.13513200  0.08486900  1
  O  O15  1  0.34295800  0.63534300  0.33514100  1
  O  O16  1  0.38706600  0.25285100  0.43841300  1
  O  O17  1  0.13792400  0.75246600  0.68988300  1
  O  O18  1  0.18615600  0.98265400  0.11214900  1
  O  O19  1  0.31613700  0.01588500  0.38602000  1
  O  O20  1  0.06690800  0.51643600  0.63615100  1
  O  O21  1  0.11296800  0.74651200  0.06141200  1
  O  O22  1  0.15731000  0.36586800  0.16492000  1
  O  O23  1  0.09285700  0.13473300  0.58493900  1
loop_
_geom_bond_atom_site_label_1
_geom_bond_atom_site_label_2
_geom_bond_distance
_geom_bond_site_symmetry_2
Li0 O5 1.952717 1_565
Li0 O23 1.964846 1_665
Li0 O17 1.972939 1_655
Li0 O4 2.056375 1_555
Li1 O1 1.950208 1_555
Li1 O12 1.952168 1_556
Li1 O2 1.978400 1_555
Li1 O11 2.075135 1_555
Li2 O8 1.959748 1_555
Li2 O3 1.961185 1_555
Li2 O7 1.976328 1_555
Li2 O20 2.050755 1_655
Li3 O19 1.953964 1_565
Li3 O14 1.964550 1_565
Li3 O10 1.972859 1_555
Li3 O18 2.054919 1_555
Li4 O4 1.943830 1_545
Li4 O9 1.963749 1_545
Li4 O13 1.987035 1_555
Li4 O5 2.053848 1_555
Li5 O20 1.951809 1_555
Li5 O15 1.964241 1_555
Li5 O16 1.979185 1_555
Li5 O3 2.056001 1_455
Li6 O22 1.962519 1_555
Li6 O21 1.967531 1_555
Li6 O11 1.968765 1_554
Li6 O12 2.052318 1_555
Li7 O18 1.968638 1_545
Li7 O0 1.969680 1_445
Li7 O6 1.983767 1_455
Li7 O19 2.052263 1_555
Mn0 O1 2.078461 1_555
Mn0 O5 2.106795 1_565
Mn0 O10 2.131511 1_556
Mn0 O21 2.215198 1_656
Mn0 O9 2.448524 1_555
Mn1 O0 2.083866 1_555
Mn1 O3 2.108689 1_555
Mn1 O21 2.130797 1_655
Mn1 O10 2.215431 1_555
Mn1 O15 2.426057 1_655
Mn2 O8 2.085632 1_555
Mn2 O4 2.100174 1_545
Mn2 O6 2.131876 1_555
Mn2 O16 2.214527 1_555
Mn2 O23 2.424316 1_655
Mn3 O14 2.084362 1_555
Mn3 O12 2.105757 1_555
Mn3 O16 2.130664 1_555
Mn3 O6 2.212356 1_555
Mn3 O22 2.428497 1_555
Mn4 O15 2.091270 1_555
Mn4 O19 2.112819 1_565
Mn4 O17 2.125858 1_555
Mn4 O7 2.198599 1_555
Mn4 O0 2.463947 1_455
Mn5 O23 2.084320 1_555
Mn5 O20 2.104456 1_555
Mn5 O2 2.132235 1_455
Mn5 O13 2.218695 1_555
Mn5 O8 2.425218 1_455
Mn6 O22 2.086035 1_555
Mn6 O18 2.101951 1_545
Mn6 O13 2.130561 1_554
Mn6 O2 2.214234 1_454
Mn6 O14 2.427190 1_555
Fe0 O11 2.027112 1_555
Fe0 O9 2.060594 1_555
Fe0 O7 2.108138 1_555
Fe0 O17 2.213724 1_555
Fe0 O1 2.405514 1_555
B0 O3 1.383233 1_555
B0 O22 1.393758 1_655
B0 O6 1.407535 1_555
B1 O4 1.382363 1_555
B1 O0 1.392087 1_555
B1 O7 1.409115 1_555
B2 O5 1.382472 1_555
B2 O14 1.393593 1_556
B2 O2 1.407451 1_555
B3 O11 1.389092 1_555
B3 O8 1.390529 1_555
B3 O13 1.405217 1_555
B4 O12 1.384369 1_555
B4 O15 1.393556 1_555
B4 O10 1.405828 1_555
B5 O18 1.385118 1_555
B5 O9 1.392284 1_554
B5 O21 1.405738 1_555
B6 O19 1.382796 1_555
B6 O23 1.393635 1_555
B6 O16 1.407336 1_555
B7 O20 1.384866 1_555
B7 O1 1.393734 1_455
B7 O17 1.405117 1_555
