# generated using pymatgen
data_Sn2(SO4)3
_symmetry_space_group_name_H-M   'P 1'
_cell_length_a   9.23227100
_cell_length_b   8.85305300
_cell_length_c   15.02692990
_cell_angle_alpha   56.03977598
_cell_angle_beta   90.00000000
_cell_angle_gamma   90.00000000
_symmetry_Int_Tables_number   1
_chemical_formula_structural   Sn2(SO4)3
_chemical_formula_sum   'Sn8 S12 O48'
_cell_volume   1018.70700422
_cell_formula_units_Z   4
loop_
 _symmetry_equiv_pos_site_id
 _symmetry_equiv_pos_as_xyz
  1  'x, y, z'
loop_
 _atom_site_type_symbol
 _atom_site_label
 _atom_site_symmetry_multiplicity
 _atom_site_fract_x
 _atom_site_fract_y
 _atom_site_fract_z
 _atom_site_occupancy
  Sn  Sn0  1  0.52992700  0.36917500  0.87772800  1
  Sn  Sn1  1  0.96119500  0.14296000  0.10979200  1
  Sn  Sn2  1  0.02992700  0.63082500  0.62227200  1
  Sn  Sn3  1  0.46119500  0.85704000  0.39020800  1
  Sn  Sn4  1  0.53880500  0.14296000  0.60979200  1
  Sn  Sn5  1  0.97007300  0.36917500  0.37772800  1
  Sn  Sn6  1  0.03880500  0.85704000  0.89020800  1
  Sn  Sn7  1  0.47007300  0.63082500  0.12227200  1
  S  S0  1  0.22724300  0.45752500  0.00637000  1
  S  S1  1  0.38893300  0.76647300  0.63937700  1
  S  S2  1  0.12948700  0.03077600  0.34357200  1
  S  S3  1  0.62948700  0.96922400  0.15642800  1
  S  S4  1  0.88893300  0.23352700  0.86062300  1
  S  S5  1  0.72724300  0.54247500  0.49363000  1
  S  S6  1  0.27275700  0.45752500  0.50637000  1
  S  S7  1  0.11106700  0.76647300  0.13937700  1
  S  S8  1  0.37051300  0.03077600  0.84357200  1
  S  S9  1  0.87051300  0.96922400  0.65642800  1
  S  S10  1  0.61106700  0.23352700  0.36062300  1
  S  S11  1  0.77275700  0.54247500  0.99363000  1
  O  O0  1  0.88453400  0.39546500  0.06219600  1
  O  O1  1  0.84957600  0.84169000  0.62459800  1
  O  O2  1  0.56135600  0.10227800  0.33186500  1
  O  O3  1  0.73733200  0.54650700  0.89749300  1
  O  O4  1  0.35234200  0.48953100  0.93865300  1
  O  O5  1  0.24151400  0.71523800  0.68111500  1
  O  O6  1  0.38435000  0.87121200  0.51711200  1
  O  O7  1  0.02806000  0.12356700  0.24769900  1
  O  O8  1  0.15695500  0.27939100  0.03535700  1
  O  O9  1  0.27263600  0.00013200  0.30406000  1
  O  O10  1  0.06876600  0.85504000  0.42806300  1
  O  O11  1  0.49101600  0.61547800  0.68234500  1
  O  O12  1  0.99101600  0.38452200  0.81765500  1
  O  O13  1  0.56876600  0.14496000  0.07193700  1
  O  O14  1  0.77263600  0.99986800  0.19594000  1
  O  O15  1  0.65695500  0.72060900  0.46464300  1
  O  O16  1  0.88435000  0.12878800  0.98288800  1
  O  O17  1  0.52806000  0.87643300  0.25230100  1
  O  O18  1  0.74151400  0.28476200  0.81888500  1
  O  O19  1  0.85234200  0.51046900  0.56134700  1
  O  O20  1  0.23733200  0.45349300  0.60250700  1
  O  O21  1  0.34957600  0.15831000  0.87540200  1
  O  O22  1  0.06135600  0.89772200  0.16813500  1
  O  O23  1  0.38453400  0.60453500  0.43780400  1
  O  O24  1  0.61546600  0.39546500  0.56219600  1
  O  O25  1  0.93864400  0.10227800  0.83186500  1
  O  O26  1  0.65042400  0.84169000  0.12459800  1
  O  O27  1  0.76266800  0.54650700  0.39749300  1
  O  O28  1  0.14765800  0.48953100  0.43865300  1
  O  O29  1  0.25848600  0.71523800  0.18111500  1
  O  O30  1  0.47194000  0.12356700  0.74769900  1
  O  O31  1  0.11565000  0.87121200  0.01711200  1
  O  O32  1  0.34304500  0.27939100  0.53535700  1
  O  O33  1  0.22736400  0.00013200  0.80406000  1
  O  O34  1  0.43123400  0.85504000  0.92806300  1
  O  O35  1  0.00898400  0.61547800  0.18234500  1
  O  O36  1  0.50898400  0.38452200  0.31765500  1
  O  O37  1  0.93123400  0.14496000  0.57193700  1
  O  O38  1  0.72736400  0.99986800  0.69594000  1
  O  O39  1  0.84304500  0.72060900  0.96464300  1
  O  O40  1  0.97194000  0.87643300  0.75230100  1
  O  O41  1  0.61565000  0.12878800  0.48288800  1
  O  O42  1  0.75848600  0.28476200  0.31888500  1
  O  O43  1  0.64765800  0.51046900  0.06134700  1
  O  O44  1  0.26266800  0.45349300  0.10250700  1
  O  O45  1  0.43864400  0.89772200  0.66813500  1
  O  O46  1  0.15042400  0.15831000  0.37540200  1
  O  O47  1  0.11546600  0.60453500  0.93780400  1
loop_
_geom_bond_atom_site_label_1
_geom_bond_atom_site_label_2
_geom_bond_distance
_geom_bond_site_symmetry_2
O0 S11 1.523882 1_554
O0 Sn1 2.055086 1_555
O1 S9 1.464336 1_555
O1 Sn2 2.516237 1_655
O2 S10 1.519380 1_555
O2 Sn3 2.052031 1_545
O3 S11 1.462061 1_555
O3 Sn0 2.596222 1_555
O4 S0 1.458604 1_556
O4 Sn0 2.398199 1_555
O5 S1 1.460695 1_555
O5 Sn2 2.427856 1_555
O6 S1 1.527680 1_555
O6 Sn3 2.103078 1_555
O7 S2 1.518221 1_555
O7 Sn1 2.075466 1_455
O8 S0 1.526561 1_555
O8 Sn1 2.113517 1_455
O9 S2 1.533850 1_555
O9 Sn3 2.116346 1_545
O10 S2 1.462834 1_565
O10 Sn2 2.472561 1_555
O11 S1 1.458686 1_555
O11 Sn0 2.520180 1_555
O12 S4 1.458686 1_555
O12 Sn2 2.520180 1_655
O13 S3 1.462834 1_545
O13 Sn0 2.472561 1_554
O14 S3 1.533850 1_555
O14 Sn1 2.116346 1_565
O15 S5 1.526561 1_555
O15 Sn3 2.113517 1_555
O16 S4 1.527680 1_555
O16 Sn1 2.103078 1_556
O17 S3 1.518221 1_555
O17 Sn3 2.075466 1_555
O18 S4 1.460695 1_555
O18 Sn0 2.427856 1_555
O19 S5 1.458604 1_555
O19 Sn2 2.398199 1_655
O20 S6 1.462061 1_555
O20 Sn2 2.596222 1_555
O21 S8 1.464336 1_555
O21 Sn0 2.516237 1_555
O22 S7 1.519380 1_555
O22 Sn1 2.052031 1_465
O23 S6 1.523882 1_555
O23 Sn3 2.055086 1_555
O24 S5 1.523882 1_555
O24 Sn4 2.055086 1_555
O25 S4 1.519380 1_555
O25 Sn6 2.052031 1_645
O26 S3 1.464336 1_555
O26 Sn7 2.516237 1_555
O27 S5 1.462061 1_555
O27 Sn5 2.596222 1_555
O28 S6 1.458604 1_555
O28 Sn5 2.398199 1_455
O29 S7 1.460695 1_555
O29 Sn7 2.427856 1_555
O30 S8 1.518221 1_555
O30 Sn4 2.075466 1_555
O31 S7 1.527680 1_555
O31 Sn6 2.103078 1_554
O32 S6 1.526561 1_555
O32 Sn4 2.113517 1_555
O33 S8 1.533850 1_555
O33 Sn6 2.116346 1_545
O34 S8 1.462834 1_565
O34 Sn7 2.472561 1_556
O35 S7 1.458686 1_555
O35 Sn5 2.520180 1_455
O36 S10 1.458686 1_555
O36 Sn7 2.520180 1_555
O37 S9 1.462834 1_545
O37 Sn5 2.472561 1_555
O38 S9 1.533850 1_555
O38 Sn4 2.116346 1_565
O39 S11 1.526561 1_555
O39 Sn6 2.113517 1_655
O40 S9 1.518221 1_555
O40 Sn6 2.075466 1_655
O41 S10 1.527680 1_555
O41 Sn4 2.103078 1_555
O42 S10 1.460695 1_555
O42 Sn5 2.427856 1_555
O43 S11 1.458604 1_554
O43 Sn7 2.398199 1_555
O44 S0 1.462061 1_555
O44 Sn7 2.596222 1_555
O45 S1 1.519380 1_555
O45 Sn4 2.052031 1_565
O46 S2 1.464336 1_555
O46 Sn5 2.516237 1_455
O47 S0 1.523882 1_556
O47 Sn6 2.055086 1_555
