# generated using pymatgen
data_Ce(ClO4)3
_symmetry_space_group_name_H-M   'P 1'
_cell_length_a   9.79823650
_cell_length_b   9.79823650
_cell_length_c   9.79823651
_cell_angle_alpha   51.55075428
_cell_angle_beta   51.55075428
_cell_angle_gamma   51.55075695
_symmetry_Int_Tables_number   1
_chemical_formula_structural   Ce(ClO4)3
_chemical_formula_sum   'Ce2 Cl6 O24'
_cell_volume   532.86577377
_cell_formula_units_Z   2
loop_
 _symmetry_equiv_pos_site_id
 _symmetry_equiv_pos_as_xyz
  1  'x, y, z'
loop_
 _atom_site_type_symbol
 _atom_site_label
 _atom_site_symmetry_multiplicity
 _atom_site_fract_x
 _atom_site_fract_y
 _atom_site_fract_z
 _atom_site_occupancy
  Ce  Ce0  1  0.94140600  0.94140600  0.94140600  1
  Ce  Ce1  1  0.44140600  0.44140600  0.44140600  1
  Cl  Cl0  1  0.65434100  0.03251000  0.31230600  1
  Cl  Cl1  1  0.53251000  0.15434100  0.81230600  1
  Cl  Cl2  1  0.81230600  0.53251000  0.15434100  1
  Cl  Cl3  1  0.03251000  0.31230600  0.65434100  1
  Cl  Cl4  1  0.31230600  0.65434100  0.03251000  1
  Cl  Cl5  1  0.15434100  0.81230600  0.53251000  1
  O  O0  1  0.92460300  0.25360100  0.86120000  1
  O  O1  1  0.71117400  0.11520700  0.79876500  1
  O  O2  1  0.99723600  0.42895200  0.05329400  1
  O  O3  1  0.60671700  0.07853000  0.16764700  1
  O  O4  1  0.57853000  0.10671700  0.66764700  1
  O  O5  1  0.92895200  0.49723600  0.55329400  1
  O  O6  1  0.61520700  0.21117400  0.29876500  1
  O  O7  1  0.42895200  0.05329400  0.99723600  1
  O  O8  1  0.75360100  0.42460300  0.36120000  1
  O  O9  1  0.79876500  0.71117400  0.11520700  1
  O  O10  1  0.66764700  0.57853000  0.10671700  1
  O  O11  1  0.42460300  0.36120000  0.75360100  1
  O  O12  1  0.49723600  0.55329400  0.92895200  1
  O  O13  1  0.86120000  0.92460300  0.25360100  1
  O  O14  1  0.07853000  0.16764700  0.60671700  1
  O  O15  1  0.21117400  0.29876500  0.61520700  1
  O  O16  1  0.29876500  0.61520700  0.21117400  1
  O  O17  1  0.55329400  0.92895200  0.49723600  1
  O  O18  1  0.36120000  0.75360100  0.42460300  1
  O  O19  1  0.16764700  0.60671700  0.07853000  1
  O  O20  1  0.10671700  0.66764700  0.57853000  1
  O  O21  1  0.25360100  0.86120000  0.92460300  1
  O  O22  1  0.11520700  0.79876500  0.71117400  1
  O  O23  1  0.05329400  0.99723600  0.42895200  1
loop_
_geom_bond_atom_site_label_1
_geom_bond_atom_site_label_2
_geom_bond_distance
_geom_bond_site_symmetry_2
Ce0 O9 2.475035 1_556
Ce0 O22 2.475035 1_655
Ce0 O1 2.475035 1_565
Ce0 O13 2.558682 1_556
Ce0 O0 2.558682 1_565
Ce0 O21 2.558682 1_655
Ce0 O14 2.580151 1_665
Ce0 O3 2.580151 1_566
Ce0 O19 2.580151 1_656
Ce1 O15 2.475035 1_555
Ce1 O16 2.475035 1_555
Ce1 O6 2.475035 1_555
Ce1 O11 2.558682 1_555
Ce1 O8 2.558682 1_555
Ce1 O18 2.558682 1_555
Ce1 O10 2.580151 1_555
Ce1 O4 2.580151 1_555
Ce1 O20 2.580151 1_555
Cl0 O17 1.422978 1_545
Cl0 O6 1.472692 1_555
Cl0 O3 1.481934 1_555
Cl0 O13 1.482631 1_545
Cl1 O7 1.422978 1_555
Cl1 O1 1.472692 1_555
Cl1 O4 1.481934 1_555
Cl1 O11 1.482631 1_555
Cl2 O2 1.422978 1_555
Cl2 O9 1.472692 1_555
Cl2 O10 1.481934 1_555
Cl2 O8 1.482631 1_555
Cl3 O5 1.422978 1_455
Cl3 O15 1.472692 1_555
Cl3 O14 1.481934 1_555
Cl3 O0 1.482631 1_455
Cl4 O12 1.422978 1_554
Cl4 O16 1.472692 1_555
Cl4 O19 1.481934 1_555
Cl4 O21 1.482631 1_554
Cl5 O23 1.422978 1_555
Cl5 O22 1.472692 1_555
Cl5 O20 1.481934 1_555
Cl5 O18 1.482631 1_555
