# generated using pymatgen
data_Mn3FeO8
_symmetry_space_group_name_H-M   'P 1'
_cell_length_a   5.79830574
_cell_length_b   5.79830574
_cell_length_c   9.04087000
_cell_angle_alpha   90.00000000
_cell_angle_beta   90.00000000
_cell_angle_gamma   119.99999709
_symmetry_Int_Tables_number   1
_chemical_formula_structural   Mn3FeO8
_chemical_formula_sum   'Mn6 Fe2 O16'
_cell_volume   263.23467261
_cell_formula_units_Z   2
loop_
 _symmetry_equiv_pos_site_id
 _symmetry_equiv_pos_as_xyz
  1  'x, y, z'
loop_
 _atom_site_type_symbol
 _atom_site_label
 _atom_site_symmetry_multiplicity
 _atom_site_fract_x
 _atom_site_fract_y
 _atom_site_fract_z
 _atom_site_occupancy
  Mn  Mn0  1  0.16767700  0.83232300  0.21172800  1
  Mn  Mn1  1  0.16767700  0.33535300  0.21172800  1
  Mn  Mn2  1  0.66464700  0.83232300  0.21172800  1
  Mn  Mn3  1  0.33535300  0.16767700  0.71172800  1
  Mn  Mn4  1  0.83232300  0.66464700  0.71172800  1
  Mn  Mn5  1  0.83232300  0.16767700  0.71172800  1
  Fe  Fe0  1  0.33333300  0.66666700  0.49485900  1
  Fe  Fe1  1  0.66666700  0.33333300  0.99485900  1
  O  O0  1  0.16301400  0.83698600  0.60108500  1
  O  O1  1  0.04068300  0.52034100  0.33509700  1
  O  O2  1  0.33333300  0.66666700  0.10277100  1
  O  O3  1  0.00000000  0.00000000  0.31672600  1
  O  O4  1  0.00000000  0.00000000  0.81672600  1
  O  O5  1  0.16301400  0.32602900  0.60108500  1
  O  O6  1  0.47965900  0.95931700  0.33509700  1
  O  O7  1  0.47965900  0.52034100  0.33509700  1
  O  O8  1  0.32602900  0.16301400  0.10108500  1
  O  O9  1  0.67397100  0.83698600  0.60108500  1
  O  O10  1  0.52034100  0.47965900  0.83509700  1
  O  O11  1  0.52034100  0.04068300  0.83509700  1
  O  O12  1  0.66666700  0.33333300  0.60277100  1
  O  O13  1  0.83698600  0.67397100  0.10108500  1
  O  O14  1  0.95931700  0.47965900  0.83509700  1
  O  O15  1  0.83698600  0.16301400  0.10108500  1
loop_
_geom_bond_atom_site_label_1
_geom_bond_atom_site_label_2
_geom_bond_distance
_geom_bond_site_symmetry_2
Mn0 O1 1.930434 1_555
Mn0 O6 1.930434 1_555
Mn0 O3 1.933103 1_565
Mn0 O2 1.933436 1_555
Mn0 O13 1.938999 1_455
Mn0 O8 1.938999 1_565
Mn1 O1 1.930434 1_555
Mn1 O7 1.930434 1_555
Mn1 O3 1.933098 1_555
Mn1 O2 1.933445 1_555
Mn1 O8 1.938999 1_555
Mn1 O15 1.938999 1_455
Mn2 O6 1.930434 1_555
Mn2 O7 1.930434 1_555
Mn2 O3 1.933098 1_665
Mn2 O2 1.933445 1_555
Mn2 O13 1.938999 1_555
Mn2 O15 1.938999 1_565
Mn3 O11 1.930434 1_555
Mn3 O10 1.930434 1_555
Mn3 O4 1.933098 1_555
Mn3 O12 1.933445 1_555
Mn3 O5 1.938999 1_555
Mn3 O0 1.938999 1_545
Mn4 O14 1.930434 1_555
Mn4 O10 1.930434 1_555
Mn4 O4 1.933098 1_665
Mn4 O12 1.933445 1_555
Mn4 O9 1.938999 1_555
Mn4 O0 1.938999 1_655
Mn5 O14 1.930434 1_555
Mn5 O11 1.930434 1_555
Mn5 O4 1.933103 1_655
Mn5 O12 1.933436 1_555
Mn5 O5 1.938999 1_655
Mn5 O9 1.938999 1_545
Fe0 O0 1.961671 1_555
Fe0 O5 1.961672 1_555
Fe0 O9 1.961672 1_555
Fe0 O6 2.060532 1_555
Fe0 O1 2.060532 1_555
Fe0 O7 2.060539 1_555
Fe1 O15 1.961671 1_556
Fe1 O13 1.961672 1_556
Fe1 O8 1.961672 1_556
Fe1 O14 2.060532 1_555
Fe1 O11 2.060532 1_555
Fe1 O10 2.060539 1_555
