# generated using pymatgen
data_Sr3La7Mn7(FeO10)3
_symmetry_space_group_name_H-M   'P 1'
_cell_length_a   5.54072800
_cell_length_b   7.87596930
_cell_length_c   14.76734911
_cell_angle_alpha   105.22794236
_cell_angle_beta   100.67677264
_cell_angle_gamma   90.77544025
_symmetry_Int_Tables_number   1
_chemical_formula_structural   Sr3La7Mn7(FeO10)3
_chemical_formula_sum   'Sr3 La7 Mn7 Fe3 O30'
_cell_volume   609.71914996
_cell_formula_units_Z   1
loop_
 _symmetry_equiv_pos_site_id
 _symmetry_equiv_pos_as_xyz
  1  'x, y, z'
loop_
 _atom_site_type_symbol
 _atom_site_label
 _atom_site_symmetry_multiplicity
 _atom_site_fract_x
 _atom_site_fract_y
 _atom_site_fract_z
 _atom_site_occupancy
  Sr  Sr0  1  0.49705900  0.74819600  0.99696100  1
  Sr  Sr1  1  0.89839900  0.14904000  0.79895400  1
  Sr  Sr2  1  0.30013800  0.55182600  0.60290900  1
  La  La0  1  0.49646100  0.24802900  0.99615000  1
  La  La1  1  0.70309900  0.94894900  0.40229100  1
  La  La2  1  0.89808900  0.64940800  0.80003000  1
  La  La3  1  0.09661200  0.34955500  0.19898400  1
  La  La4  1  0.30149400  0.05107200  0.60396400  1
  La  La5  1  0.69775200  0.45001900  0.40184700  1
  La  La6  1  0.09788800  0.84714400  0.19593000  1
  Mn  Mn0  1  0.99898200  0.99870000  0.99907300  1
  Mn  Mn1  1  0.39768600  0.40061400  0.79942600  1
  Mn  Mn2  1  0.80017700  0.80020600  0.60130700  1
  Mn  Mn3  1  0.99712900  0.49963300  0.99872400  1
  Mn  Mn4  1  0.19889700  0.19948800  0.40013100  1
  Mn  Mn5  1  0.39895300  0.89962100  0.80007100  1
  Mn  Mn6  1  0.79892500  0.30065800  0.60057800  1
  Fe  Fe0  1  0.59959100  0.59857300  0.19832800  1
  Fe  Fe1  1  0.20087700  0.69773300  0.40101600  1
  Fe  Fe2  1  0.59712400  0.09777400  0.19831400  1
  O  O0  1  0.23104800  0.42631400  0.91349300  1
  O  O1  1  0.98699500  0.73790500  0.97644000  1
  O  O2  1  0.63708500  0.82454900  0.70896900  1
  O  O3  1  0.72036300  0.42125400  0.89267200  1
  O  O4  1  0.68086900  0.98750900  0.91453500  1
  O  O5  1  0.40892700  0.65894700  0.81695100  1
  O  O6  1  0.38783600  0.13809300  0.77784600  1
  O  O7  1  0.03254000  0.21493900  0.50609200  1
  O  O8  1  0.11386400  0.82279800  0.68816000  1
  O  O9  1  0.07736900  0.38487000  0.71082300  1
  O  O10  1  0.16950000  0.97084000  0.89369300  1
  O  O11  1  0.80936000  0.05708600  0.61544300  1
  O  O12  1  0.78505700  0.53754700  0.57459800  1
  O  O13  1  0.43572900  0.62388400  0.31206600  1
  O  O14  1  0.51731400  0.20966600  0.48416300  1
  O  O15  1  0.48135900  0.79035500  0.50937700  1
  O  O16  1  0.56860500  0.36462000  0.69041300  1
  O  O17  1  0.21273700  0.45316600  0.41982300  1
  O  O18  1  0.18148800  0.94043900  0.37328800  1
  O  O19  1  0.84168800  0.03000900  0.11375900  1
  O  O20  1  0.92287100  0.61287300  0.28980800  1
  O  O21  1  0.87847500  0.18735400  0.31346100  1
  O  O22  1  0.96534300  0.77198900  0.48881900  1
  O  O23  1  0.61041800  0.86252900  0.22520300  1
  O  O24  1  0.58872500  0.33536500  0.17498000  1
  O  O25  1  0.31151800  0.02050800  0.09195800  1
  O  O26  1  0.27066800  0.58064100  0.11226700  1
  O  O27  1  0.36389300  0.17627400  0.29071300  1
  O  O28  1  0.01260100  0.26172800  0.02459200  1
  O  O29  1  0.77874500  0.56867800  0.09102800  1
loop_
_geom_bond_atom_site_label_1
_geom_bond_atom_site_label_2
_geom_bond_distance
_geom_bond_site_symmetry_2
La0 O0 2.432152 1_555
La0 O4 2.433230 1_545
La0 O24 2.498907 1_556
La0 O10 2.734833 1_545
La0 O3 2.736290 1_555
La0 O28 2.788679 1_556
La0 O28 2.808778 1_656
La0 O29 2.830094 1_556
La0 O25 2.842924 1_556
La0 O6 3.050453 1_555
La0 O26 3.145133 1_556
La0 O19 3.169903 1_556
La1 O14 2.439679 1_565
La1 O22 2.447223 1_555
La1 O23 2.474616 1_555
La1 O7 2.691298 1_665
La1 O15 2.699339 1_555
La1 O18 2.761180 1_655
La1 O13 2.810429 1_555
La1 O21 2.812025 1_565
La1 O18 2.839305 1_555
La1 O11 2.978489 1_565
La1 O20 3.126530 1_555
La1 O27 3.153754 1_565
La2 O1 2.465036 1_555
La2 O2 2.471894 1_555
La2 O9 2.482366 1_655
La2 O5 2.767757 1_555
La2 O5 2.793143 1_655
La2 O3 2.795175 1_555
La2 O10 2.805406 1_655
La2 O16 2.805512 1_555
La2 O8 2.810019 1_655
La3 O28 2.436937 1_555
La3 O20 2.469380 1_455
La3 O27 2.484589 1_555
La3 O19 2.737542 1_455
La3 O26 2.741696 1_555
La3 O24 2.767338 1_455
La3 O21 2.792927 1_455
La3 O13 2.796326 1_555
La3 O24 2.813968 1_555
La3 O29 3.018120 1_455
La3 O25 3.043219 1_555
La3 O17 3.086364 1_555
La4 O6 2.429717 1_555
La4 O7 2.491824 1_555
La4 O15 2.495024 1_545
La4 O8 2.731618 1_545
La4 O16 2.731921 1_555
La4 O11 2.763487 1_455
La4 O11 2.786522 1_555
La4 O22 2.818514 1_445
La4 O14 2.832723 1_555
La5 O12 2.413935 1_555
La5 O13 2.456622 1_555
La5 O21 2.471412 1_555
La5 O17 2.748733 1_555
La5 O14 2.769220 1_555
La5 O27 2.769837 1_555
La5 O22 2.785669 1_555
La5 O20 2.788293 1_555
La5 O17 2.815474 1_655
La6 O19 2.428369 1_465
La6 O26 2.445184 1_555
La6 O18 2.478807 1_555
La6 O25 2.711788 1_565
La6 O29 2.726157 1_455
La6 O23 2.788235 1_555
La6 O23 2.812578 1_455
La6 O20 2.839038 1_455
La6 O27 2.842036 1_565
La6 O1 3.066999 1_454
La6 O13 3.165584 1_555
La6 O21 3.177567 1_465
Mn0 O10 1.932230 1_655
Mn0 O4 1.948235 1_555
Mn0 O25 1.974267 1_666
Mn0 O1 1.990612 1_555
Mn0 O28 2.003588 1_666
Mn0 O19 2.005497 1_566
Mn1 O16 1.975143 1_555
Mn1 O5 1.981043 1_555
Mn1 O9 1.981313 1_555
Mn1 O6 2.005966 1_555
Mn1 O3 2.020231 1_555
Mn1 O0 2.033004 1_555
Mn2 O8 1.934752 1_655
Mn2 O2 1.938549 1_555
Mn2 O11 1.977583 1_565
Mn2 O12 1.999130 1_555
Mn2 O22 2.005279 1_555
Mn2 O15 2.005451 1_555
Mn3 O3 1.939580 1_555
Mn3 O0 1.959682 1_655
Mn3 O29 1.964025 1_556
Mn3 O1 1.988360 1_555
Mn3 O26 1.996438 1_656
Mn3 O28 2.008076 1_656
Mn4 O7 1.936576 1_555
Mn4 O17 1.940275 1_555
Mn4 O14 1.947214 1_555
Mn4 O27 1.968939 1_555
Mn4 O18 1.970978 1_545
Mn4 O21 1.971897 1_455
Mn5 O5 1.975909 1_555
Mn5 O6 1.989624 1_565
Mn5 O8 2.018409 1_555
Mn5 O10 2.026221 1_555
Mn5 O4 2.038139 1_555
Mn5 O2 2.039946 1_555
Mn6 O16 1.983904 1_555
Mn6 O9 1.986189 1_655
Mn6 O11 1.987756 1_555
Mn6 O12 2.000756 1_555
Mn6 O14 2.057244 1_555
Mn6 O7 2.067887 1_655
Fe0 O29 1.986123 1_555
Fe0 O26 1.999260 1_555
Fe0 O24 2.008324 1_555
Fe0 O23 2.009316 1_555
Fe0 O20 2.015957 1_555
Fe0 O13 2.019700 1_555
Fe1 O15 1.985594 1_555
Fe1 O20 1.993636 1_455
Fe1 O22 1.993904 1_455
Fe1 O13 2.002364 1_555
Fe1 O17 2.017275 1_555
Fe1 O18 2.057583 1_555
Fe2 O25 1.972867 1_555
Fe2 O24 1.989386 1_555
Fe2 O23 1.993799 1_545
Fe2 O19 1.994146 1_555
Fe2 O27 2.036138 1_555
Fe2 O21 2.043802 1_555
O0 Sr0 2.775382 1_555
O0 Sr1 2.796878 1_455
O1 Sr0 2.783693 1_655
O1 Sr0 2.786635 1_555
O2 Sr2 2.755529 1_555
O2 Sr1 2.792231 1_565
O3 Sr1 2.547423 1_555
O3 Sr0 3.040106 1_555
O4 Sr0 2.771998 1_555
O4 Sr1 2.801058 1_565
O5 Sr0 2.515371 1_555
O5 Sr2 2.990882 1_555
O6 Sr1 2.785635 1_555
O6 Sr1 2.786411 1_455
O7 Sr2 2.897893 1_555
O8 Sr2 2.516834 1_555
O8 Sr1 3.050033 1_465
O9 Sr2 2.752791 1_555
O9 Sr1 2.797361 1_455
O10 Sr1 2.548195 1_465
O10 Sr0 3.026514 1_555
O11 Sr1 2.564326 1_555
O12 Sr2 2.793932 1_555
O12 Sr2 2.803002 1_655
O14 Sr2 3.189407 1_555
O15 Sr2 2.875975 1_555
O16 Sr2 2.530691 1_555
O16 Sr1 3.036351 1_555
O17 Sr2 2.559161 1_555
O19 Sr0 2.863802 1_544
O22 Sr2 3.122512 1_655
O23 Sr0 3.189311 1_554
O25 Sr0 2.576469 1_544
O26 Sr0 2.853314 1_554
O28 Sr1 3.152910 1_454
O29 Sr0 2.579296 1_554
