# generated using pymatgen
data_LiSnPO4
_symmetry_space_group_name_H-M   'P 1'
_cell_length_a   5.57367100
_cell_length_b   7.10741197
_cell_length_c   10.07074823
_cell_angle_alpha   73.40678646
_cell_angle_beta   79.44420479
_cell_angle_gamma   77.97741764
_symmetry_Int_Tables_number   1
_chemical_formula_structural   LiSnPO4
_chemical_formula_sum   'Li4 Sn4 P4 O16'
_cell_volume   370.67550651
_cell_formula_units_Z   4
loop_
 _symmetry_equiv_pos_site_id
 _symmetry_equiv_pos_as_xyz
  1  'x, y, z'
loop_
 _atom_site_type_symbol
 _atom_site_label
 _atom_site_symmetry_multiplicity
 _atom_site_fract_x
 _atom_site_fract_y
 _atom_site_fract_z
 _atom_site_occupancy
  Li  Li0  1  0.68235000  0.31662900  0.89612200  1
  Li  Li1  1  0.11661400  0.50473600  0.74411300  1
  Li  Li2  1  0.88338600  0.49526400  0.25588700  1
  Li  Li3  1  0.31765000  0.68337100  0.10387800  1
  Sn  Sn0  1  0.30237000  0.93783800  0.78635300  1
  Sn  Sn1  1  0.74466300  0.20943000  0.58781800  1
  Sn  Sn2  1  0.25533700  0.79057000  0.41218200  1
  Sn  Sn3  1  0.69763000  0.06216200  0.21364700  1
  P  P0  1  0.79638400  0.80487800  0.94903100  1
  P  P1  1  0.71219200  0.64403900  0.58034600  1
  P  P2  1  0.28780800  0.35596100  0.41965400  1
  P  P3  1  0.20361600  0.19512200  0.05096900  1
  O  O0  1  0.57373500  0.72661400  0.91364600  1
  O  O1  1  0.04444800  0.72390300  0.86161700  1
  O  O2  1  0.18698100  0.27765900  0.89472100  1
  O  O3  1  0.76048600  0.03508500  0.90173000  1
  O  O4  1  0.90238800  0.78495900  0.55922400  1
  O  O5  1  0.44403900  0.75472300  0.61682800  1
  O  O6  1  0.77340600  0.45456600  0.70161700  1
  O  O7  1  0.28347300  0.42684700  0.55252500  1
  O  O8  1  0.71652700  0.57315300  0.44747500  1
  O  O9  1  0.22659400  0.54543400  0.29838300  1
  O  O10  1  0.55596100  0.24527700  0.38317200  1
  O  O11  1  0.09761200  0.21504100  0.44077600  1
  O  O12  1  0.23951400  0.96491500  0.09827000  1
  O  O13  1  0.81301900  0.72234100  0.10527900  1
  O  O14  1  0.95555200  0.27609700  0.13838300  1
  O  O15  1  0.42626500  0.27338600  0.08635400  1
loop_
_geom_bond_atom_site_label_1
_geom_bond_atom_site_label_2
_geom_bond_distance
_geom_bond_site_symmetry_2
Li0 O3 1.943828 1_555
Li0 O6 1.949840 1_555
Li0 O15 2.155584 1_556
Li1 O2 1.901371 1_555
Li1 O1 2.146153 1_555
Li1 O7 2.152263 1_555
Li1 O6 2.154268 1_455
Li1 O4 2.562254 1_455
Li2 O13 1.901371 1_555
Li2 O14 2.146153 1_555
Li2 O8 2.152263 1_555
Li2 O9 2.154268 1_655
Li2 O11 2.562254 1_655
Li3 O12 1.943828 1_555
Li3 O9 1.949840 1_555
Li3 O0 2.155584 1_554
O0 P0 1.593497 1_555
O0 Sn0 2.202284 1_555
O1 P0 1.590528 1_455
O1 Sn0 2.192318 1_555
O2 P3 1.527192 1_556
O3 P0 1.548355 1_545
O4 P1 1.552487 1_555
O4 Sn2 2.235178 1_655
O5 P1 1.568992 1_555
O5 Sn0 2.361998 1_555
O5 Sn2 2.408575 1_555
O6 P1 1.563127 1_555
O6 Sn1 2.387175 1_555
O7 P2 1.553410 1_555
O7 Sn2 2.555498 1_555
O7 Sn1 2.736429 1_555
O8 P1 1.553410 1_555
O8 Sn1 2.555498 1_555
O8 Sn2 2.736429 1_555
O9 P2 1.563127 1_555
O9 Sn2 2.387175 1_555
O10 P2 1.568992 1_555
O10 Sn3 2.361998 1_555
O10 Sn1 2.408575 1_555
O11 P2 1.552487 1_555
O11 Sn1 2.235178 1_455
O12 P3 1.548355 1_565
O13 P0 1.527192 1_554
O14 P3 1.590528 1_655
O14 Sn3 2.192318 1_555
O15 P3 1.593497 1_555
O15 Sn3 2.202284 1_555
