# generated using pymatgen
data_Li3V2(O2F)2
_symmetry_space_group_name_H-M   'P 1'
_cell_length_a   5.94428353
_cell_length_b   6.12841725
_cell_length_c   8.23277543
_cell_angle_alpha   102.71865920
_cell_angle_beta   64.00782325
_cell_angle_gamma   121.48704535
_symmetry_Int_Tables_number   1
_chemical_formula_structural   Li3V2(O2F)2
_chemical_formula_sum   'Li6 V4 O8 F4'
_cell_volume   229.86928972
_cell_formula_units_Z   2
loop_
 _symmetry_equiv_pos_site_id
 _symmetry_equiv_pos_as_xyz
  1  'x, y, z'
loop_
 _atom_site_type_symbol
 _atom_site_label
 _atom_site_symmetry_multiplicity
 _atom_site_fract_x
 _atom_site_fract_y
 _atom_site_fract_z
 _atom_site_occupancy
  Li  Li0  1  0.16364800  0.65689300  0.37189200  1
  Li  Li1  1  0.32547400  0.82363400  0.64941100  1
  Li  Li2  1  0.29429100  0.31537200  0.60985200  1
  Li  Li3  1  0.67454700  0.67638700  0.35060500  1
  Li  Li4  1  0.83642500  0.84317400  0.62812400  1
  Li  Li5  1  0.70577800  0.18466400  0.39016200  1
  V  V0  1  0.00044000  0.49856000  0.99656700  1
  V  V1  1  0.99953100  0.00143200  0.00340400  1
  V  V2  1  0.50408400  0.49993400  0.99329700  1
  V  V3  1  0.49583300  0.00000800  0.00673700  1
  O  O0  1  0.06881200  0.81978600  0.14085000  1
  O  O1  1  0.07186000  0.33361700  0.14121800  1
  O  O2  1  0.59018500  0.83166000  0.14396600  1
  O  O3  1  0.60585900  0.34449300  0.13270500  1
  O  O4  1  0.40978500  0.66831500  0.85600100  1
  O  O5  1  0.39412000  0.15548000  0.86726000  1
  O  O6  1  0.93112900  0.68018800  0.85914700  1
  O  O7  1  0.92808000  0.16634700  0.85878500  1
  F  F0  1  0.27202700  0.52788000  0.49449200  1
  F  F1  1  0.25641700  0.98792500  0.51192600  1
  F  F2  1  0.74365600  0.51212100  0.48807500  1
  F  F3  1  0.72801600  0.97213000  0.50552200  1
loop_
_geom_bond_atom_site_label_1
_geom_bond_atom_site_label_2
_geom_bond_distance
_geom_bond_site_symmetry_2
Li0 O2 2.230452 1_555
Li0 O1 2.439588 1_555
Li1 O6 2.053587 1_455
Li1 O5 2.384864 1_565
Li1 O4 2.451175 1_555
Li2 O7 2.147084 1_455
Li2 O4 2.644736 1_555
Li3 O0 2.053389 1_655
Li3 O3 2.385322 1_555
Li3 O2 2.451559 1_555
Li4 O4 2.230629 1_555
Li4 O7 2.439071 1_565
Li5 O1 2.146806 1_655
Li5 O2 2.645297 1_545
O0 V0 2.002318 1_554
O0 V3 2.008473 1_565
O0 V1 2.032552 1_465
O1 V0 2.010400 1_554
O1 V1 2.027979 1_455
O1 V2 2.047339 1_554
O2 V1 1.939060 1_565
O2 V2 2.071876 1_554
O2 V3 2.080493 1_565
O3 V0 1.870153 1_654
O3 V3 2.036739 1_555
O3 V2 2.069478 1_554
O4 V0 1.939060 1_555
O4 V3 2.072003 1_566
O4 V2 2.080829 1_555
O5 V1 1.870198 1_456
O5 V2 2.036834 1_555
O5 V3 2.069777 1_556
O6 V1 2.002292 1_566
O6 V2 2.008616 1_555
O6 V0 2.032433 1_655
O7 V1 2.010198 1_556
O7 V0 2.027985 1_655
O7 V3 2.047475 1_556
F0 Li2 1.857534 1_555
F0 Li0 1.874126 1_555
F0 Li3 1.916295 1_555
F0 Li1 1.936108 1_555
F1 Li2 1.924160 1_565
F1 Li1 1.950436 1_555
F1 Li4 1.975278 1_455
F1 Li0 2.026717 1_555
F1 Li5 2.101078 1_565
F2 Li5 1.924183 1_555
F2 Li3 1.950450 1_555
F2 Li0 1.975261 1_655
F2 Li4 2.026869 1_555
F2 Li2 2.101102 1_555
F3 Li5 1.857568 1_565
F3 Li4 1.874030 1_555
F3 Li1 1.916396 1_555
F3 Li3 1.936047 1_555
