# generated using pymatgen
data_ErTa3O9
_symmetry_space_group_name_H-M   'P 1'
_cell_length_a   7.42579609
_cell_length_b   5.21833894
_cell_length_c   8.21981723
_cell_angle_alpha   87.53946585
_cell_angle_beta   90.00000000
_cell_angle_gamma   90.00000000
_symmetry_Int_Tables_number   1
_chemical_formula_structural   ErTa3O9
_chemical_formula_sum   'Er2 Ta6 O18'
_cell_volume   318.22688900
_cell_formula_units_Z   2
loop_
 _symmetry_equiv_pos_site_id
 _symmetry_equiv_pos_as_xyz
  1  'x, y, z'
loop_
 _atom_site_type_symbol
 _atom_site_label
 _atom_site_symmetry_multiplicity
 _atom_site_fract_x
 _atom_site_fract_y
 _atom_site_fract_z
 _atom_site_occupancy
  Er  Er0  1  0.25000000  0.96712829  0.43482641  1
  Er  Er1  1  0.75000000  0.03287171  0.56517359  1
  Ta  Ta0  1  0.00000000  -0.00000000  -0.00000000  1
  Ta  Ta1  1  0.50000000  -0.00000000  -0.00000000  1
  Ta  Ta2  1  0.00788203  0.52836423  0.69711364  1
  Ta  Ta3  1  0.49211797  0.52836423  0.69711364  1
  Ta  Ta4  1  0.99211797  0.47163577  0.30288636  1
  Ta  Ta5  1  0.50788203  0.47163577  0.30288636  1
  O  O0  1  0.25000000  0.89635219  0.97712311  1
  O  O1  1  0.93345752  0.85555810  0.78289244  1
  O  O2  1  0.56654248  0.85555810  0.78289244  1
  O  O3  1  0.95500586  0.74375754  0.46672463  1
  O  O4  1  0.54499414  0.74375754  0.46672463  1
  O  O5  1  0.25000000  0.67128016  0.65185467  1
  O  O6  1  0.94206031  0.67148905  0.11835572  1
  O  O7  1  0.55793969  0.67148905  0.11835572  1
  O  O8  1  0.25000000  0.58124743  0.31328212  1
  O  O9  1  0.75000000  0.41875257  0.68671788  1
  O  O10  1  0.05793969  0.32851095  0.88164428  1
  O  O11  1  0.44206031  0.32851095  0.88164428  1
  O  O12  1  0.75000000  0.32871984  0.34814533  1
  O  O13  1  0.04499414  0.25624246  0.53327537  1
  O  O14  1  0.45500586  0.25624246  0.53327537  1
  O  O15  1  0.06654248  0.14444190  0.21710756  1
  O  O16  1  0.43345752  0.14444190  0.21710756  1
  O  O17  1  0.75000000  0.10364781  0.02287689  1
loop_
_geom_bond_atom_site_label_1
_geom_bond_atom_site_label_2
_geom_bond_distance
_geom_bond_site_symmetry_2
Er0 O8 2.285978 1_555
Er0 O5 2.308543 1_555
Er0 O14 2.313729 1_565
Er0 O13 2.313729 1_565
Er0 O16 2.402619 1_565
Er0 O15 2.402619 1_565
Er0 O4 2.489933 1_555
Er0 O3 2.489933 1_455
Er1 O9 2.285978 1_555
Er1 O12 2.308543 1_555
Er1 O4 2.313729 1_545
Er1 O3 2.313729 1_545
Er1 O1 2.402619 1_545
Er1 O2 2.402619 1_545
Er1 O14 2.489933 1_555
Er1 O13 2.489933 1_655
O0 Ta1 1.945003 1_566
O0 Ta0 1.945003 1_566
O1 Ta2 1.954787 1_655
O1 Ta0 2.027939 1_666
O2 Ta3 1.954787 1_555
O2 Ta1 2.027939 1_566
O3 Ta4 2.017492 1_555
O3 Ta2 2.195697 1_655
O4 Ta5 2.017492 1_555
O4 Ta3 2.195697 1_555
O5 Ta2 1.975673 1_555
O5 Ta3 1.975673 1_555
O6 Ta4 1.841386 1_555
O6 Ta0 1.981701 1_665
O7 Ta5 1.841386 1_555
O7 Ta1 1.981701 1_565
O8 Ta4 2.001454 1_455
O8 Ta5 2.001454 1_555
O9 Ta3 2.001454 1_555
O9 Ta2 2.001454 1_655
O10 Ta2 1.841386 1_555
O10 Ta0 1.981701 1_556
O11 Ta3 1.841386 1_555
O11 Ta1 1.981701 1_556
O12 Ta5 1.975673 1_555
O12 Ta4 1.975673 1_555
O13 Ta2 2.017492 1_555
O13 Ta4 2.195697 1_455
O14 Ta3 2.017492 1_555
O14 Ta5 2.195697 1_555
O15 Ta4 1.954787 1_455
O15 Ta0 2.027939 1_555
O16 Ta5 1.954787 1_555
O16 Ta1 2.027939 1_555
O17 Ta1 1.945003 1_555
O17 Ta0 1.945003 1_655
