# generated using pymatgen
data_Li5V4O8
_symmetry_space_group_name_H-M   'P 1'
_cell_length_a   6.04261030
_cell_length_b   6.04261030
_cell_length_c   6.04261013
_cell_angle_alpha   60.37563126
_cell_angle_beta   60.37563126
_cell_angle_gamma   60.37563464
_symmetry_Int_Tables_number   1
_chemical_formula_structural   Li5V4O8
_chemical_formula_sum   'Li5 V4 O8'
_cell_volume   157.33776685
_cell_formula_units_Z   1
loop_
 _symmetry_equiv_pos_site_id
 _symmetry_equiv_pos_as_xyz
  1  'x, y, z'
loop_
 _atom_site_type_symbol
 _atom_site_label
 _atom_site_symmetry_multiplicity
 _atom_site_fract_x
 _atom_site_fract_y
 _atom_site_fract_z
 _atom_site_occupancy
  Li  Li0  1  0.01948300  0.43382200  0.01948300  1
  Li  Li1  1  0.01863200  0.01863200  0.01863200  1
  Li  Li2  1  0.01948300  0.01948300  0.43382200  1
  Li  Li3  1  0.87584500  0.87584500  0.87584500  1
  Li  Li4  1  0.43382200  0.01948300  0.01948300  1
  V  V0  1  0.49933900  0.49933900  0.99975500  1
  V  V1  1  0.49933900  0.99975500  0.49933900  1
  V  V2  1  0.99975500  0.49933900  0.49933900  1
  V  V3  1  0.50080500  0.50080500  0.50080500  1
  O  O0  1  0.25072800  0.73036400  0.25072800  1
  O  O1  1  0.73036400  0.25072800  0.25072800  1
  O  O2  1  0.25178800  0.25178800  0.25178800  1
  O  O3  1  0.25072800  0.25072800  0.73036400  1
  O  O4  1  0.74794400  0.74794400  0.74794400  1
  O  O5  1  0.75132900  0.75132900  0.26747200  1
  O  O6  1  0.26747200  0.75132900  0.75132900  1
  O  O7  1  0.75132900  0.26747200  0.75132900  1
loop_
_geom_bond_atom_site_label_1
_geom_bond_atom_site_label_2
_geom_bond_distance
_geom_bond_site_symmetry_2
Li0 O2 2.011442 1_555
Li0 O1 2.048851 1_455
Li0 O3 2.048851 1_554
Li0 O4 2.343272 1_454
Li0 O6 2.433180 1_554
Li0 O5 2.433180 1_455
Li1 O3 2.020455 1_554
Li1 O1 2.020455 1_455
Li1 O0 2.020455 1_545
Li1 O5 2.292557 1_445
Li1 O6 2.292558 1_544
Li1 O7 2.292558 1_454
Li2 O2 2.011442 1_555
Li2 O1 2.048851 1_455
Li2 O0 2.048851 1_545
Li2 O4 2.343272 1_445
Li2 O7 2.433180 1_455
Li2 O6 2.433180 1_545
Li3 O4 1.887711 1_555
Li3 O5 1.942019 1_556
Li3 O7 1.942019 1_565
Li3 O6 1.942019 1_655
Li4 O2 2.011442 1_555
Li4 O0 2.048851 1_545
Li4 O3 2.048851 1_554
Li4 O4 2.343272 1_544
Li4 O7 2.433180 1_554
Li4 O5 2.433180 1_545
O0 V2 2.067086 1_455
O0 V0 2.067086 1_554
O0 V3 2.145703 1_555
O1 V1 2.067086 1_545
O1 V0 2.067086 1_554
O1 V3 2.145703 1_555
O2 V0 2.121856 1_554
O2 V1 2.121856 1_545
O2 V2 2.121856 1_455
O3 V1 2.067086 1_545
O3 V2 2.067086 1_455
O3 V3 2.145703 1_555
O4 V0 2.130742 1_555
O4 V1 2.130742 1_555
O4 V2 2.130742 1_555
O5 V2 2.060442 1_555
O5 V1 2.060442 1_555
O5 V3 2.148623 1_555
O6 V1 2.060442 1_555
O6 V0 2.060442 1_555
O6 V3 2.148623 1_555
O7 V2 2.060442 1_555
O7 V0 2.060442 1_555
O7 V3 2.148623 1_555
