# generated using pymatgen
data_Ti3Nb(CuO4)3
_symmetry_space_group_name_H-M   'P 1'
_cell_length_a   6.47557776
_cell_length_b   6.47557776
_cell_length_c   6.47557719
_cell_angle_alpha   109.65686923
_cell_angle_beta   109.65686923
_cell_angle_gamma   109.65686453
_symmetry_Int_Tables_number   1
_chemical_formula_structural   Ti3Nb(CuO4)3
_chemical_formula_sum   'Ti3 Nb1 Cu3 O12'
_cell_volume   207.58322439
_cell_formula_units_Z   1
loop_
 _symmetry_equiv_pos_site_id
 _symmetry_equiv_pos_as_xyz
  1  'x, y, z'
loop_
 _atom_site_type_symbol
 _atom_site_label
 _atom_site_symmetry_multiplicity
 _atom_site_fract_x
 _atom_site_fract_y
 _atom_site_fract_z
 _atom_site_occupancy
  Ti  Ti0  1  0.50000000  0.00000000  0.00000000  1
  Ti  Ti1  1  0.00000000  0.00000000  0.50000000  1
  Ti  Ti2  1  0.00000000  0.50000000  0.00000000  1
  Nb  Nb0  1  0.50000000  0.50000000  0.50000000  1
  Cu  Cu0  1  0.50000000  0.00000000  0.50000000  1
  Cu  Cu1  1  0.50000000  0.50000000  0.00000000  1
  Cu  Cu2  1  0.00000000  0.50000000  0.50000000  1
  O  O0  1  0.82005600  0.13359400  0.31340500  1
  O  O1  1  0.49188600  0.31200700  0.17574300  1
  O  O2  1  0.86640600  0.68659500  0.17994400  1
  O  O3  1  0.68659500  0.17994400  0.86640600  1
  O  O4  1  0.31200700  0.17574300  0.49188600  1
  O  O5  1  0.82425700  0.50811400  0.68799300  1
  O  O6  1  0.17574300  0.49188600  0.31200700  1
  O  O7  1  0.31340500  0.82005600  0.13359400  1
  O  O8  1  0.68799300  0.82425700  0.50811400  1
  O  O9  1  0.13359400  0.31340500  0.82005600  1
  O  O10  1  0.50811400  0.68799300  0.82425700  1
  O  O11  1  0.17994400  0.86640600  0.68659500  1
loop_
_geom_bond_atom_site_label_1
_geom_bond_atom_site_label_2
_geom_bond_distance
_geom_bond_site_symmetry_2
Nb0 O10 2.014129 1_555
Nb0 O1 2.014129 1_555
Nb0 O5 2.014129 1_555
Nb0 O6 2.014129 1_555
Nb0 O8 2.014129 1_555
Nb0 O4 2.014129 1_555
Cu0 O4 1.925908 1_555
Cu0 O8 1.925908 1_545
Cu0 O3 1.926488 1_555
Cu0 O7 1.926488 1_545
Cu1 O1 1.925908 1_555
Cu1 O10 1.925908 1_554
Cu1 O2 1.926489 1_555
Cu1 O9 1.926489 1_554
Cu2 O6 1.925908 1_555
Cu2 O5 1.925908 1_455
Cu2 O0 1.926489 1_455
Cu2 O11 1.926489 1_555
O0 Ti0 1.986298 1_555
O0 Ti1 2.000098 1_655
O1 Ti0 1.986137 1_555
O2 Ti1 1.986298 1_665
O2 Ti2 2.000098 1_655
O3 Ti2 1.986298 1_656
O3 Ti0 2.000098 1_556
O4 Ti1 1.986137 1_555
O5 Ti2 1.986137 1_656
O6 Ti2 1.986137 1_555
O7 Ti2 1.986298 1_555
O7 Ti0 2.000098 1_565
O8 Ti1 1.986137 1_665
O9 Ti1 1.986298 1_555
O9 Ti2 2.000098 1_556
O10 Ti0 1.986137 1_566
O11 Ti0 1.986298 1_566
O11 Ti1 2.000098 1_565
