# generated using pymatgen
data_Li4Ti3Fe3(CuO8)2
_symmetry_space_group_name_H-M   'P 1'
_cell_length_a   5.93756062
_cell_length_b   5.90061630
_cell_length_c   9.61446688
_cell_angle_alpha   89.98278732
_cell_angle_beta   90.83865525
_cell_angle_gamma   119.74575337
_symmetry_Int_Tables_number   1
_chemical_formula_structural   Li4Ti3Fe3(CuO8)2
_chemical_formula_sum   'Li4 Ti3 Fe3 Cu2 O16'
_cell_volume   292.42044522
_cell_formula_units_Z   1
loop_
 _symmetry_equiv_pos_site_id
 _symmetry_equiv_pos_as_xyz
  1  'x, y, z'
loop_
 _atom_site_type_symbol
 _atom_site_label
 _atom_site_symmetry_multiplicity
 _atom_site_fract_x
 _atom_site_fract_y
 _atom_site_fract_z
 _atom_site_occupancy
  Li  Li0  1  0.33506500  0.66592400  0.89601600  1
  Li  Li1  1  0.99347800  0.99805600  0.99494100  1
  Li  Li2  1  0.99759000  0.99822400  0.49573900  1
  Li  Li3  1  0.66540200  0.33252900  0.39703100  1
  Ti  Ti0  1  0.16841400  0.82932100  0.21143200  1
  Ti  Ti1  1  0.17311700  0.33823600  0.21313700  1
  Ti  Ti2  1  0.34208300  0.17351900  0.71358500  1
  Fe  Fe0  1  0.66300400  0.83313000  0.21225200  1
  Fe  Fe1  1  0.83312900  0.66295500  0.71146200  1
  Fe  Fe2  1  0.83055800  0.16845500  0.71188800  1
  Cu  Cu0  1  0.33432100  0.66939800  0.48669600  1
  Cu  Cu1  1  0.67449300  0.33572900  0.98547200  1
  O  O0  1  0.17127100  0.83966300  0.60283100  1
  O  O1  1  0.03729900  0.51993800  0.33451500  1
  O  O2  1  0.32161800  0.66010900  0.10226900  1
  O  O3  1  0.00500800  0.00277700  0.31028500  1
  O  O4  1  0.00545100  0.00109900  0.80889900  1
  O  O5  1  0.16986400  0.33218400  0.60321100  1
  O  O6  1  0.47287600  0.95835800  0.33975500  1
  O  O7  1  0.47315100  0.51574200  0.34011000  1
  O  O8  1  0.32683500  0.16300900  0.10632100  1
  O  O9  1  0.67198400  0.83643700  0.60173700  1
  O  O10  1  0.51644100  0.47404900  0.84145600  1
  O  O11  1  0.51848900  0.04077100  0.84033700  1
  O  O12  1  0.65769500  0.33038300  0.60190800  1
  O  O13  1  0.84075900  0.67231200  0.10261400  1
  O  O14  1  0.96014500  0.47923800  0.83849300  1
  O  O15  1  0.84046200  0.16875700  0.10344600  1
loop_
_geom_bond_atom_site_label_1
_geom_bond_atom_site_label_2
_geom_bond_distance
_geom_bond_site_symmetry_2
Li0 O2 1.985388 1_556
Li0 O10 1.985843 1_555
Li0 O11 1.997720 1_565
Li0 O14 2.001467 1_455
Li1 O4 1.790877 1_665
Li1 O15 1.965894 1_566
Li1 O13 1.971076 1_556
Li1 O8 2.009655 1_666
Li2 O3 1.784095 1_665
Li2 O9 1.978203 1_555
Li2 O0 1.981089 1_655
Li2 O5 1.991795 1_665
Li3 O12 1.970875 1_555
Li3 O6 1.990584 1_545
Li3 O7 1.994277 1_555
Li3 O1 2.018787 1_655
Fe0 O3 1.985314 1_665
Fe0 O15 2.021624 1_565
Fe0 O13 2.037776 1_555
Fe0 O2 2.038035 1_555
Fe0 O6 2.047433 1_555
Fe0 O7 2.057547 1_555
Fe1 O4 1.962860 1_665
Fe1 O12 1.996537 1_555
Fe1 O9 2.004485 1_555
Fe1 O14 2.004763 1_555
Fe1 O0 2.047545 1_655
Fe1 O10 2.080478 1_555
Fe2 O4 1.977909 1_655
Fe2 O9 1.996962 1_545
Fe2 O14 2.002586 1_555
Fe2 O12 2.006303 1_555
Fe2 O11 2.051164 1_555
Fe2 O5 2.052696 1_655
Cu0 O9 2.046777 1_555
Cu0 O0 2.047151 1_555
Cu0 O6 2.054392 1_555
Cu0 O7 2.064991 1_555
Cu0 O5 2.066465 1_555
Cu0 O1 2.100157 1_555
Cu1 O15 2.039212 1_556
Cu1 O10 2.045814 1_555
Cu1 O11 2.048935 1_555
Cu1 O13 2.051990 1_556
Cu1 O14 2.057893 1_555
Cu1 O8 2.152134 1_556
O0 Ti2 2.007562 1_565
O1 Ti0 1.988591 1_555
O1 Ti1 2.011953 1_555
O2 Ti0 1.963612 1_555
O2 Ti1 1.971135 1_555
O3 Ti1 1.962759 1_555
O3 Ti0 1.976148 1_545
O4 Ti2 1.976140 1_555
O5 Ti2 1.991450 1_555
O6 Ti0 1.984774 1_555
O7 Ti1 1.961258 1_555
O8 Ti1 1.980222 1_555
O8 Ti0 1.992915 1_545
O10 Ti2 1.967281 1_555
O11 Ti2 1.992974 1_555
O12 Ti2 1.964295 1_555
O13 Ti0 1.972371 1_655
O15 Ti1 1.998293 1_655
