# generated using pymatgen
data_Er2TeO6
_symmetry_space_group_name_H-M   'P 1'
_cell_length_a   8.98383132
_cell_length_b   8.98369137
_cell_length_c   5.11548037
_cell_angle_alpha   90.00031347
_cell_angle_beta   89.99903570
_cell_angle_gamma   119.99973469
_symmetry_Int_Tables_number   1
_chemical_formula_structural   Er2TeO6
_chemical_formula_sum   'Er6 Te3 O18'
_cell_volume   357.54822601
_cell_formula_units_Z   3
loop_
 _symmetry_equiv_pos_site_id
 _symmetry_equiv_pos_as_xyz
  1  'x, y, z'
loop_
 _atom_site_type_symbol
 _atom_site_label
 _atom_site_symmetry_multiplicity
 _atom_site_fract_x
 _atom_site_fract_y
 _atom_site_fract_z
 _atom_site_occupancy
  Er  Er0  1  0.99999900  0.61906845  -0.00000305  1
  Er  Er1  1  0.28224801  -0.00000614  0.49999848  1
  Er  Er2  1  -0.00000175  0.28225566  0.50000072  1
  Er  Er3  1  0.61907723  0.00000259  -0.00000587  1
  Er  Er4  1  0.38092238  0.38092796  0.00000173  1
  Er  Er5  1  0.71775081  0.71775038  0.50000422  1
  Te  Te0  1  0.33332775  0.66666516  0.49749150  1
  Te  Te1  1  0.66666841  0.33333300  0.50249863  1
  Te  Te2  1  0.00000405  0.00000290  0.00001143  1
  O  O0  1  0.07849843  0.87751290  0.78761105  1
  O  O1  1  0.20098627  0.12248570  0.21241391  1
  O  O2  1  0.22609961  0.76261766  0.28170856  1
  O  O3  1  0.46346769  0.23738125  0.71826766  1
  O  O4  1  0.13200865  0.54394782  0.71182342  1
  O  O5  1  0.58804556  0.45604411  0.28819295  1
  O  O6  1  0.54394416  0.13200917  0.28818051  1
  O  O7  1  0.41195677  0.86799807  0.71180830  1
  O  O8  1  0.23739432  0.46347541  0.28173463  1
  O  O9  1  0.77389404  0.53651739  0.71827650  1
  O  O10  1  0.12249697  0.20099140  0.78761365  1
  O  O11  1  0.92149707  0.79901025  0.21239354  1
  O  O12  1  0.53653422  0.77391184  0.28172164  1
  O  O13  1  0.76260051  0.22608439  0.71826151  1
  O  O14  1  0.45605717  0.58806191  0.71181674  1
  O  O15  1  0.86798613  0.41193622  0.28817672  1
  O  O16  1  0.87751263  0.07850090  0.21240251  1
  O  O17  1  0.79902393  0.92151367  0.78760139  1
loop_
_geom_bond_atom_site_label_1
_geom_bond_atom_site_label_2
_geom_bond_distance
_geom_bond_site_symmetry_2
Er0 O4 2.198932 1_654
Er0 O15 2.198971 1_555
Er0 O2 2.290499 1_655
Er0 O9 2.290560 1_554
Er0 O0 2.330461 1_654
Er0 O11 2.330471 1_555
Er1 O1 2.170609 1_555
Er1 O0 2.170663 1_545
Er1 O2 2.230088 1_545
Er1 O3 2.230098 1_555
Er1 O6 2.306440 1_555
Er1 O7 2.306483 1_545
Er2 O16 2.170651 1_455
Er2 O10 2.170770 1_555
Er2 O8 2.230128 1_555
Er2 O13 2.230140 1_455
Er2 O4 2.306414 1_555
Er2 O15 2.306437 1_455
Er3 O7 2.198960 1_544
Er3 O6 2.199019 1_555
Er3 O13 2.290396 1_554
Er3 O12 2.290454 1_545
Er3 O17 2.330433 1_544
Er3 O16 2.330497 1_555
Er4 O14 2.198984 1_554
Er4 O5 2.198999 1_555
Er4 O8 2.290364 1_555
Er4 O3 2.290474 1_554
Er4 O10 2.330383 1_554
Er4 O1 2.330499 1_555
Er5 O11 2.170643 1_555
Er5 O17 2.170688 1_555
Er5 O9 2.230068 1_555
Er5 O12 2.230090 1_555
Er5 O14 2.306409 1_555
Er5 O5 2.306483 1_555
O0 Te2 1.914335 1_566
O1 Te2 1.914363 1_555
O2 Te0 1.928709 1_555
O3 Te1 1.928787 1_555
O4 Te0 1.922150 1_555
O5 Te1 1.922163 1_555
O6 Te1 1.922147 1_555
O7 Te0 1.922169 1_555
O8 Te0 1.928681 1_555
O9 Te1 1.928703 1_555
O10 Te2 1.914360 1_556
O11 Te2 1.914331 1_665
O12 Te0 1.928824 1_555
O13 Te1 1.928653 1_555
O14 Te0 1.922237 1_555
O15 Te1 1.922111 1_555
O16 Te2 1.914342 1_655
O17 Te2 1.914382 1_666
