# generated using pymatgen
data_LiCoPO4
_symmetry_space_group_name_H-M   'P 1'
_cell_length_a   5.15147159
_cell_length_b   9.35399131
_cell_length_c   8.96942983
_cell_angle_alpha   90.02469192
_cell_angle_beta   90.02067614
_cell_angle_gamma   89.17066292
_symmetry_Int_Tables_number   1
_chemical_formula_structural   LiCoPO4
_chemical_formula_sum   'Li4 Co4 P4 O16'
_cell_volume   432.16296164
_cell_formula_units_Z   4
loop_
 _symmetry_equiv_pos_site_id
 _symmetry_equiv_pos_as_xyz
  1  'x, y, z'
loop_
 _atom_site_type_symbol
 _atom_site_label
 _atom_site_symmetry_multiplicity
 _atom_site_fract_x
 _atom_site_fract_y
 _atom_site_fract_z
 _atom_site_occupancy
  Li  Li0  1  0.49519400  0.74259100  0.50026600  1
  Li  Li1  1  0.99518000  0.74264300  0.00019300  1
  Li  Li2  1  0.99516700  0.24267600  0.99968900  1
  Li  Li3  1  0.49512900  0.24274000  0.49973400  1
  Co  Co0  1  0.99687400  0.34710600  0.66663100  1
  Co  Co1  1  0.49701900  0.84716000  0.83342200  1
  Co  Co2  1  0.49687100  0.34733700  0.16659900  1
  Co  Co3  1  0.99693900  0.84734200  0.33346200  1
  P  P0  1  0.50093600  0.71230500  0.16966300  1
  P  P1  1  0.00079800  0.71208300  0.66964000  1
  P  P2  1  0.00088100  0.21235000  0.33032800  1
  P  P3  1  0.50078900  0.21217800  0.83030600  1
  O  O0  1  0.63391600  0.77039700  0.02610600  1
  O  O1  1  0.13381500  0.77002600  0.52598500  1
  O  O2  1  0.13390900  0.27053100  0.47410600  1
  O  O3  1  0.63385700  0.27019300  0.97399000  1
  O  O4  1  0.53188300  0.55013400  0.17582700  1
  O  O5  1  0.03113600  0.54992200  0.67601600  1
  O  O6  1  0.03180400  0.05015300  0.32402200  1
  O  O7  1  0.53151400  0.05003800  0.82394700  1
  O  O8  1  0.63315900  0.77973700  0.30943000  1
  O  O9  1  0.13339500  0.77943900  0.80932200  1
  O  O10  1  0.13303100  0.27980200  0.19056400  1
  O  O11  1  0.63310100  0.27959400  0.69070000  1
  O  O12  1  0.20870400  0.75843900  0.16925700  1
  O  O13  1  0.70859800  0.75833700  0.66927800  1
  O  O14  1  0.70845900  0.25829600  0.33077000  1
  O  O15  1  0.20854300  0.25824600  0.83074800  1
loop_
_geom_bond_atom_site_label_1
_geom_bond_atom_site_label_2
_geom_bond_distance
_geom_bond_site_symmetry_2
Li0 O13 1.879261 1_555
Li0 O8 1.887930 1_555
Li0 O1 1.889757 1_555
Li1 O12 1.880040 1_655
Li1 O9 1.888085 1_654
Li1 O0 1.889753 1_555
Li2 O15 1.879262 1_655
Li2 O10 1.887278 1_656
Li2 O3 1.889342 1_555
Li3 O14 1.879279 1_555
Li3 O11 1.887750 1_555
Li3 O2 1.889123 1_555
Co0 O5 1.909691 1_655
Co0 O2 1.994630 1_655
Co0 O11 1.997955 1_555
Co0 O15 2.005099 1_655
Co1 O7 1.910510 1_565
Co1 O0 1.996335 1_556
Co1 O9 1.997702 1_555
Co1 O13 2.004939 1_555
Co2 O4 1.909870 1_555
Co2 O3 1.997082 1_554
Co2 O10 1.998250 1_555
Co2 O14 2.005920 1_555
Co3 O6 1.910078 1_665
Co3 O1 1.996890 1_655
Co3 O8 1.998035 1_555
Co3 O12 2.006160 1_655
O0 P0 1.560305 1_555
O1 P1 1.560621 1_555
O2 P2 1.561551 1_555
O3 P3 1.560397 1_555
O4 P0 1.524029 1_555
O5 P1 1.523727 1_555
O6 P2 1.524262 1_555
O7 P3 1.523658 1_555
O8 P0 1.563503 1_555
O9 P1 1.563452 1_555
O10 P2 1.564222 1_555
O11 P3 1.563316 1_555
O12 P0 1.560043 1_555
O13 P1 1.560179 1_655
O14 P2 1.560525 1_655
O15 P3 1.559952 1_555
