# generated using pymatgen
data_Li5Fe2Co3O10
_symmetry_space_group_name_H-M   'P 1'
_cell_length_a   5.15702400
_cell_length_b   5.16593586
_cell_length_c   7.78243411
_cell_angle_alpha   103.92324946
_cell_angle_beta   108.44906754
_cell_angle_gamma   99.06327816
_symmetry_Int_Tables_number   1
_chemical_formula_structural   Li5Fe2Co3O10
_chemical_formula_sum   'Li5 Fe2 Co3 O10'
_cell_volume   184.64643174
_cell_formula_units_Z   1
loop_
 _symmetry_equiv_pos_site_id
 _symmetry_equiv_pos_as_xyz
  1  'x, y, z'
loop_
 _atom_site_type_symbol
 _atom_site_label
 _atom_site_symmetry_multiplicity
 _atom_site_fract_x
 _atom_site_fract_y
 _atom_site_fract_z
 _atom_site_occupancy
  Li  Li0  1  0.08016300  0.79109700  0.58746600  1
  Li  Li1  1  0.70379400  0.60138700  0.21184700  1
  Li  Li2  1  0.50000000  0.50000000  0.50000000  1
  Li  Li3  1  0.29620600  0.39861300  0.78815300  1
  Li  Li4  1  0.91983700  0.20890300  0.41253400  1
  Fe  Fe0  1  0.30750200  0.90118900  0.30836400  1
  Fe  Fe1  1  0.69249800  0.09881100  0.69163600  1
  Co  Co0  1  0.50000000  0.00000000  0.00000000  1
  Co  Co1  1  0.10084000  0.30727900  0.10958300  1
  Co  Co2  1  0.89916000  0.69272100  0.89041700  1
  O  O0  1  0.90774500  0.94733100  0.13996000  1
  O  O1  1  0.28791400  0.65762800  0.04963800  1
  O  O2  1  0.68618700  0.85698400  0.45209100  1
  O  O3  1  0.51429400  0.77372400  0.76982500  1
  O  O4  1  0.10268800  0.54165000  0.33291700  1
  O  O5  1  0.89731200  0.45835000  0.66708300  1
  O  O6  1  0.48570600  0.22627600  0.23017500  1
  O  O7  1  0.31381300  0.14301600  0.54790900  1
  O  O8  1  0.71208600  0.34237200  0.95036200  1
  O  O9  1  0.09225500  0.05266900  0.86004000  1
loop_
_geom_bond_atom_site_label_1
_geom_bond_atom_site_label_2
_geom_bond_distance
_geom_bond_site_symmetry_2
Li0 O2 2.095099 1_455
Li0 O4 2.136060 1_555
Li0 O5 2.144666 1_455
Li0 O7 2.160026 1_565
Li0 O9 2.199989 1_565
Li0 O3 2.268942 1_555
Li1 O2 2.050505 1_555
Li1 O4 2.080352 1_655
Li1 O6 2.142021 1_555
Li1 O8 2.167052 1_554
Li1 O0 2.207814 1_555
Li1 O1 2.221934 1_555
Li2 O7 2.112222 1_555
Li2 O2 2.112222 1_555
Li2 O4 2.126628 1_555
Li2 O5 2.126628 1_555
Li2 O6 2.203343 1_555
Li2 O3 2.203343 1_555
Li3 O7 2.050505 1_555
Li3 O5 2.080352 1_455
Li3 O3 2.142021 1_555
Li3 O1 2.167052 1_556
Li3 O9 2.207814 1_555
Li3 O8 2.221934 1_555
Li4 O7 2.095099 1_655
Li4 O5 2.136060 1_555
Li4 O4 2.144666 1_655
Li4 O2 2.160026 1_545
Li4 O0 2.199989 1_545
Li4 O6 2.268942 1_555
Fe0 O7 1.965992 1_565
Fe0 O2 1.999484 1_555
Fe0 O1 2.063878 1_555
Fe0 O4 2.069391 1_555
Fe0 O6 2.096340 1_565
Fe0 O0 2.149320 1_455
Fe1 O2 1.965992 1_545
Fe1 O7 1.999484 1_555
Fe1 O8 2.063878 1_555
Fe1 O5 2.069391 1_555
Fe1 O3 2.096340 1_545
Fe1 O9 2.149320 1_655
Co0 O3 1.919295 1_544
Co0 O6 1.919295 1_555
Co0 O8 2.111980 1_554
Co0 O1 2.111980 1_545
Co0 O0 2.134303 1_545
Co0 O9 2.134303 1_554
Co1 O4 1.860131 1_555
Co1 O9 2.049754 1_554
Co1 O8 2.058609 1_454
Co1 O6 2.065643 1_555
Co1 O0 2.069373 1_445
Co1 O1 2.136617 1_555
Co2 O5 1.860131 1_555
Co2 O0 2.049754 1_556
Co2 O1 2.058609 1_656
Co2 O3 2.065643 1_555
Co2 O9 2.069373 1_665
Co2 O8 2.136617 1_555
