# generated using pymatgen
data_Rb2U2WO10
_symmetry_space_group_name_H-M   'P 1'
_cell_length_a   29.09314200
_cell_length_b   8.41571500
_cell_length_c   10.95468752
_cell_angle_alpha   57.28866814
_cell_angle_beta   90.00000000
_cell_angle_gamma   90.00000000
_symmetry_Int_Tables_number   1
_chemical_formula_structural   Rb2U2WO10
_chemical_formula_sum   'Rb16 U16 W8 O80'
_cell_volume   2256.76412925
_cell_formula_units_Z   8
loop_
 _symmetry_equiv_pos_site_id
 _symmetry_equiv_pos_as_xyz
  1  'x, y, z'
loop_
 _atom_site_type_symbol
 _atom_site_label
 _atom_site_symmetry_multiplicity
 _atom_site_fract_x
 _atom_site_fract_y
 _atom_site_fract_z
 _atom_site_occupancy
  Rb  Rb0  1  0.87841000  0.02736800  0.39144500  1
  Rb  Rb1  1  0.74446900  0.07582000  0.04432600  1
  Rb  Rb2  1  0.51338100  0.05965000  0.18071700  1
  Rb  Rb3  1  0.98661900  0.05965000  0.68071700  1
  Rb  Rb4  1  0.37841000  0.97263200  0.10855500  1
  Rb  Rb5  1  0.01338100  0.94035000  0.31928300  1
  Rb  Rb6  1  0.48661900  0.94035000  0.81928300  1
  Rb  Rb7  1  0.24446900  0.92418000  0.45567400  1
  Rb  Rb8  1  0.39828200  0.95933700  0.51922600  1
  Rb  Rb9  1  0.89828200  0.04066300  0.98077400  1
  Rb  Rb10  1  0.75553100  0.07582000  0.54432600  1
  Rb  Rb11  1  0.25553100  0.92418000  0.95567400  1
  Rb  Rb12  1  0.60171800  0.04066300  0.48077400  1
  Rb  Rb13  1  0.62159000  0.02736800  0.89144500  1
  Rb  Rb14  1  0.10171800  0.95933700  0.01922600  1
  Rb  Rb15  1  0.12159000  0.97263200  0.60855500  1
  U  U0  1  0.43204600  0.50056500  0.47130500  1
  U  U1  1  0.59808900  0.49395000  0.91879000  1
  U  U2  1  0.06795400  0.50056500  0.97130500  1
  U  U3  1  0.09808900  0.50605000  0.58121000  1
  U  U4  1  0.40191100  0.50605000  0.08121000  1
  U  U5  1  0.81388800  0.54509700  0.14042800  1
  U  U6  1  0.68611200  0.54509700  0.64042800  1
  U  U7  1  0.16768600  0.44747200  0.21799800  1
  U  U8  1  0.31388800  0.45490300  0.35957200  1
  U  U9  1  0.56795400  0.49943500  0.52869500  1
  U  U10  1  0.83231400  0.55252800  0.78200200  1
  U  U11  1  0.90191100  0.49395000  0.41879000  1
  U  U12  1  0.66768600  0.55252800  0.28200200  1
  U  U13  1  0.18611200  0.45490300  0.85957200  1
  U  U14  1  0.93204600  0.49943500  0.02869500  1
  U  U15  1  0.33231400  0.44747200  0.71799800  1
  W  W0  1  0.46783200  0.42060400  0.81086000  1
  W  W1  1  0.78984800  0.64686700  0.45198100  1
  W  W2  1  0.28984800  0.35313300  0.04801900  1
  W  W3  1  0.21015200  0.35313300  0.54801900  1
  W  W4  1  0.71015200  0.64686700  0.95198100  1
  W  W5  1  0.03216800  0.42060400  0.31086000  1
  W  W6  1  0.53216800  0.57939600  0.18914000  1
  W  W7  1  0.96783200  0.57939600  0.68914000  1
  O  O0  1  0.54462800  0.82575100  0.07052900  1
  O  O1  1  0.66250000  0.81104100  0.18635100  1
  O  O2  1  0.29065900  0.10539400  0.17514500  1
  O  O3  1  0.15180700  0.41565300  0.44477800  1
  O  O4  1  0.44441100  0.56321500  0.88054700  1
  O  O5  1  0.67836900  0.80420500  0.53219100  1
  O  O6  1  0.18080800  0.45513000  0.64847300  1
  O  O7  1  0.68080800  0.54487000  0.85152700  1
  O  O8  1  0.93641800  0.76077900  0.92996200  1
  O  O9  1  0.19909300  0.70953200  0.74329200  1
  O  O10  1  0.08836000  0.49272400  0.18902000  1
  O  O11  1  0.64334200  0.51104400  0.48863400  1
  O  O12  1  0.58836000  0.50727600  0.31098000  1
  O  O13  1  0.97226100  0.42052200  0.37660100  1
  O  O14  1  0.04462800  0.17424900  0.42947100  1
  O  O15  1  0.45537200  0.17424900  0.92947100  1
  O  O16  1  0.82295000  0.29660300  0.86885800  1
  O  O17  1  0.56759700  0.23674300  0.62549100  1
  O  O18  1  0.76615200  0.61515400  0.63065500  1
  O  O19  1  0.05558900  0.56321500  0.38054700  1
  O  O20  1  0.91606200  0.74966400  0.30852600  1
  O  O21  1  0.84819300  0.58434700  0.55522200  1
  O  O22  1  0.38750000  0.75862000  0.96611300  1
  O  O23  1  0.50503900  0.52074000  0.37100600  1
  O  O24  1  0.60977400  0.49210300  0.71360000  1
  O  O25  1  0.08393800  0.25033600  0.69147400  1
  O  O26  1  0.82163100  0.80420500  0.03219100  1
  O  O27  1  0.06358200  0.23922100  0.07003800  1
  O  O28  1  0.80090700  0.29046800  0.25670800  1
  O  O29  1  0.14334200  0.48895600  0.01136600  1
  O  O30  1  0.31919200  0.45513000  0.14847300  1
  O  O31  1  0.41164000  0.49272400  0.68902000  1
  O  O32  1  0.32295000  0.70339700  0.63114200  1
  O  O33  1  0.79065900  0.89460600  0.32485500  1
  O  O34  1  0.94441100  0.43678500  0.61945300  1
  O  O35  1  0.43240300  0.76325700  0.37450900  1
  O  O36  1  0.76802000  0.55770800  0.93505400  1
  O  O37  1  0.41606200  0.25033600  0.19147400  1
  O  O38  1  0.32163100  0.19579500  0.46780900  1
  O  O39  1  0.02773900  0.57947800  0.62339900  1
  O  O40  1  0.11250000  0.75862000  0.46611300  1
  O  O41  1  0.56358200  0.76077900  0.42996200  1
  O  O42  1  0.34819300  0.41565300  0.94477800  1
  O  O43  1  0.17836900  0.19579500  0.96780900  1
  O  O44  1  0.43641800  0.23922100  0.57003800  1
  O  O45  1  0.26615200  0.38484600  0.86934500  1
  O  O46  1  0.23198000  0.44229200  0.06494600  1
  O  O47  1  0.00503900  0.47926000  0.12899400  1
  O  O48  1  0.93240300  0.23674300  0.12549100  1
  O  O49  1  0.85665800  0.51104400  0.98863400  1
  O  O50  1  0.73198000  0.55770800  0.43505400  1
  O  O51  1  0.39022600  0.50789700  0.28640000  1
  O  O52  1  0.16250000  0.18895900  0.31364900  1
  O  O53  1  0.81919200  0.54487000  0.35152700  1
  O  O54  1  0.65180700  0.58434700  0.05522200  1
  O  O55  1  0.55558900  0.43678500  0.11945300  1
  O  O56  1  0.67705000  0.29660300  0.36885800  1
  O  O57  1  0.61250000  0.24138000  0.03388700  1
  O  O58  1  0.88750000  0.24138000  0.53388700  1
  O  O59  1  0.06759700  0.76325700  0.87450900  1
  O  O60  1  0.26802000  0.44229200  0.56494600  1
  O  O61  1  0.35665800  0.48895600  0.51136600  1
  O  O62  1  0.49496100  0.47926000  0.62899400  1
  O  O63  1  0.70934100  0.89460600  0.82485500  1
  O  O64  1  0.69909300  0.29046800  0.75670800  1
  O  O65  1  0.20934100  0.10539400  0.67514500  1
  O  O66  1  0.58393800  0.74966400  0.80852600  1
  O  O67  1  0.89022600  0.49210300  0.21360000  1
  O  O68  1  0.47226100  0.57947800  0.12339900  1
  O  O69  1  0.73384800  0.61515400  0.13065500  1
  O  O70  1  0.10977400  0.50789700  0.78640000  1
  O  O71  1  0.33750000  0.18895900  0.81364900  1
  O  O72  1  0.83750000  0.81104100  0.68635100  1
  O  O73  1  0.30090700  0.70953200  0.24329200  1
  O  O74  1  0.23384800  0.38484600  0.36934500  1
  O  O75  1  0.17705000  0.70339700  0.13114200  1
  O  O76  1  0.99496100  0.52074000  0.87100600  1
  O  O77  1  0.91164000  0.50727600  0.81098000  1
  O  O78  1  0.52773900  0.42052200  0.87660100  1
  O  O79  1  0.95537200  0.82575100  0.57052900  1
loop_
_geom_bond_atom_site_label_1
_geom_bond_atom_site_label_2
_geom_bond_distance
_geom_bond_site_symmetry_2
O0 W6 1.790674 1_555
O0 Rb13 2.853659 1_564
O0 Rb6 2.912846 1_554
O0 Rb2 2.954015 1_565
O1 U12 1.841187 1_555
O1 Rb13 2.968333 1_564
O1 Rb1 3.053832 1_565
O2 W2 1.774443 1_555
O2 Rb7 2.917227 1_545
O2 Rb4 3.029674 1_545
O3 W3 1.947841 1_555
O3 U7 2.395388 1_555
O3 U3 2.546330 1_555
O3 Rb15 3.265356 1_545
O4 W0 1.864870 1_555
O4 U4 2.334390 1_556
O4 Rb6 3.119214 1_555
O5 U6 1.848540 1_555
O5 Rb12 2.835269 1_565
O5 Rb10 3.257398 1_565
O6 W3 1.922898 1_555
O6 U13 2.316637 1_555
O6 U3 2.485319 1_555
O7 W4 1.922898 1_555
O7 U6 2.316637 1_555
O7 U1 2.485319 1_555
O8 U14 1.858029 1_556
O8 Rb3 2.914092 1_565
O8 Rb9 2.916486 1_565
O9 U13 1.845794 1_555
O9 Rb15 2.938208 1_555
O9 Rb7 2.963386 1_555
O10 W5 1.986672 1_555
O10 U7 2.332654 1_555
O10 U2 2.423825 1_554
O10 Rb14 3.337177 1_555
O11 U12 2.212059 1_555
O11 U6 2.215984 1_555
O11 U9 2.228508 1_555
O12 W6 1.986672 1_555
O12 U12 2.332654 1_555
O12 U9 2.423825 1_555
O12 Rb12 3.337177 1_555
O13 W5 1.885670 1_655
O13 U11 2.256796 1_555
O13 Rb3 3.092137 1_555
O14 W5 1.790674 1_555
O14 Rb15 2.853659 1_545
O14 Rb3 2.912846 1_455
O14 Rb5 2.954015 1_545
O15 W0 1.790674 1_555
O15 Rb4 2.853659 1_546
O15 Rb2 2.912846 1_556
O15 Rb6 2.954015 1_545
O16 U10 1.844844 1_555
O16 Rb9 2.844580 1_555
O16 Rb1 2.915526 1_556
O17 U9 1.864999 1_555
O17 Rb13 2.917527 1_555
O17 Rb12 3.008181 1_555
O17 Rb6 3.248948 1_545
O18 W1 1.952686 1_555
O18 U6 2.390250 1_555
O18 U10 2.405672 1_555
O19 W5 1.864870 1_555
O19 U3 2.334390 1_555
O19 Rb5 3.119214 1_555
O20 U11 1.857472 1_555
O20 Rb9 3.106885 1_564
O20 Rb0 3.127525 1_565
O20 Rb5 3.287837 1_655
O21 W1 1.947841 1_555
O21 U10 2.395388 1_555
O21 U11 2.546330 1_555
O21 Rb0 3.265356 1_565
O22 U4 1.840360 1_556
O22 Rb4 2.964144 1_556
O22 Rb6 3.253163 1_555
O23 W6 1.942391 1_555
O23 U0 2.354591 1_555
O23 U9 2.455966 1_555
O24 U1 2.281697 1_555
O24 U6 2.321098 1_555
O24 U9 2.334947 1_555
O24 Rb13 3.312831 1_555
O25 U3 1.857472 1_555
O25 Rb14 3.106885 1_546
O25 Rb15 3.127525 1_545
O25 Rb3 3.287837 1_455
O26 U5 1.848540 1_555
O26 Rb9 2.835269 1_564
O26 Rb1 3.257398 1_565
O27 U2 1.858029 1_554
O27 Rb5 2.914092 1_545
O27 Rb14 2.916486 1_545
O28 U5 1.845794 1_555
O28 Rb0 2.938208 1_555
O28 Rb10 2.963386 1_555
O29 U7 2.212059 1_555
O29 U13 2.215984 1_554
O29 U2 2.228508 1_554
O30 W2 1.922898 1_555
O30 U8 2.316637 1_555
O30 U4 2.485319 1_555
O31 W0 1.986672 1_555
O31 U15 2.332654 1_555
O31 U0 2.423825 1_555
O31 Rb8 3.337177 1_555
O32 U15 1.844844 1_555
O32 Rb8 2.844580 1_555
O32 Rb7 2.915526 1_555
O33 W1 1.774443 1_555
O33 Rb1 2.917227 1_565
O33 Rb0 3.029674 1_565
O34 W7 1.864870 1_555
O34 U11 2.334390 1_555
O34 Rb3 3.119214 1_555
O35 U0 1.864999 1_555
O35 Rb4 2.917527 1_555
O35 Rb8 3.008181 1_555
O35 Rb2 3.248948 1_565
O36 W4 1.892657 1_555
O36 U10 2.528010 1_555
O36 U5 2.568184 1_556
O37 U4 1.857472 1_555
O37 Rb8 3.106885 1_545
O37 Rb4 3.127525 1_545
O37 Rb2 3.287837 1_555
O38 U8 1.848540 1_555
O38 Rb8 2.835269 1_545
O38 Rb7 3.257398 1_545
O39 W7 1.885670 1_455
O39 U3 2.256796 1_555
O39 Rb5 3.092137 1_555
O40 U3 1.840360 1_555
O40 Rb15 2.964144 1_555
O40 Rb5 3.253163 1_555
O41 U9 1.858029 1_555
O41 Rb2 2.914092 1_565
O41 Rb12 2.916486 1_565
O42 W2 1.947841 1_556
O42 U15 2.395388 1_555
O42 U4 2.546330 1_556
O42 Rb4 3.265356 1_546
O43 U13 1.848540 1_555
O43 Rb14 2.835269 1_546
O43 Rb11 3.257398 1_545
O44 U0 1.858029 1_555
O44 Rb6 2.914092 1_545
O44 Rb8 2.916486 1_545
O45 W2 1.952686 1_556
O45 U13 2.390250 1_555
O45 U15 2.405672 1_555
O46 W2 1.892657 1_555
O46 U7 2.528010 1_555
O46 U13 2.568184 1_554
O47 W5 1.942391 1_555
O47 U14 2.354591 1_455
O47 U2 2.455966 1_554
O48 U14 1.864999 1_555
O48 Rb0 2.917527 1_555
O48 Rb9 3.008181 1_554
O48 Rb5 3.248948 1_645
O49 U10 2.212059 1_555
O49 U5 2.215984 1_556
O49 U14 2.228508 1_556
O50 W1 1.892657 1_555
O50 U12 2.528010 1_555
O50 U6 2.568184 1_555
O51 U4 2.281697 1_555
O51 U8 2.321098 1_555
O51 U0 2.334947 1_555
O51 Rb4 3.312831 1_555
O52 U7 1.841187 1_555
O52 Rb15 2.968333 1_545
O52 Rb7 3.053832 1_545
O53 W1 1.922898 1_555
O53 U5 2.316637 1_555
O53 U11 2.485319 1_555
O54 W4 1.947841 1_554
O54 U12 2.395388 1_555
O54 U1 2.546330 1_554
O54 Rb13 3.265356 1_564
O55 W6 1.864870 1_555
O55 U1 2.334390 1_554
O55 Rb2 3.119214 1_555
O56 U12 1.844844 1_555
O56 Rb12 2.844580 1_555
O56 Rb10 2.915526 1_555
O57 U1 1.840360 1_554
O57 Rb13 2.964144 1_554
O57 Rb2 3.253163 1_555
O58 U11 1.840360 1_555
O58 Rb0 2.964144 1_555
O58 Rb3 3.253163 1_555
O59 U2 1.864999 1_555
O59 Rb15 2.917527 1_555
O59 Rb14 3.008181 1_556
O59 Rb3 3.248948 1_465
O60 W3 1.892657 1_555
O60 U15 2.528010 1_555
O60 U8 2.568184 1_555
O61 U15 2.212059 1_555
O61 U8 2.215984 1_555
O61 U0 2.228508 1_555
O62 W0 1.942391 1_555
O62 U9 2.354591 1_555
O62 U0 2.455966 1_555
O63 W4 1.774443 1_555
O63 Rb10 2.917227 1_565
O63 Rb13 3.029674 1_565
O64 U6 1.845794 1_555
O64 Rb13 2.938208 1_555
O64 Rb1 2.963386 1_556
O65 W3 1.774443 1_555
O65 Rb11 2.917227 1_545
O65 Rb15 3.029674 1_545
O66 U1 1.857472 1_555
O66 Rb12 3.106885 1_565
O66 Rb13 3.127525 1_565
O66 Rb6 3.287837 1_555
O67 U11 2.281697 1_555
O67 U5 2.321098 1_555
O67 U14 2.334947 1_555
O67 Rb0 3.312831 1_555
O68 W6 1.885670 1_555
O68 U4 2.256796 1_555
O68 Rb6 3.092137 1_554
O69 W4 1.952686 1_554
O69 U5 2.390250 1_555
O69 U12 2.405672 1_555
O70 U3 2.281697 1_555
O70 U13 2.321098 1_555
O70 U2 2.334947 1_555
O70 Rb15 3.312831 1_555
O71 U15 1.841187 1_555
O71 Rb4 2.968333 1_546
O71 Rb11 3.053832 1_545
O72 U10 1.841187 1_555
O72 Rb0 2.968333 1_565
O72 Rb10 3.053832 1_565
O73 U8 1.845794 1_555
O73 Rb4 2.938208 1_555
O73 Rb11 2.963386 1_554
O74 W3 1.952686 1_555
O74 U8 2.390250 1_555
O74 U7 2.405672 1_555
O75 U7 1.844844 1_555
O75 Rb14 2.844580 1_555
O75 Rb11 2.915526 1_554
O76 W7 1.942391 1_555
O76 U2 2.354591 1_655
O76 U14 2.455966 1_556
O77 W7 1.986672 1_555
O77 U10 2.332654 1_555
O77 U14 2.423825 1_556
O77 Rb9 3.337177 1_555
O78 W0 1.885670 1_555
O78 U1 2.256796 1_555
O78 Rb2 3.092137 1_556
O79 W7 1.790674 1_555
O79 Rb0 2.853659 1_565
O79 Rb5 2.912846 1_655
O79 Rb3 2.954015 1_565
