# generated using pymatgen
data_Zn(AgO2)2
_symmetry_space_group_name_H-M   'P 1'
_cell_length_a   8.03135597
_cell_length_b   6.56650376
_cell_length_c   6.31335737
_cell_angle_alpha   77.12526857
_cell_angle_beta   52.84962938
_cell_angle_gamma   50.02510205
_symmetry_Int_Tables_number   1
_chemical_formula_structural   Zn(AgO2)2
_chemical_formula_sum   'Zn2 Ag4 O8'
_cell_volume   195.79282617
_cell_formula_units_Z   2
loop_
 _symmetry_equiv_pos_site_id
 _symmetry_equiv_pos_as_xyz
  1  'x, y, z'
loop_
 _atom_site_type_symbol
 _atom_site_label
 _atom_site_symmetry_multiplicity
 _atom_site_fract_x
 _atom_site_fract_y
 _atom_site_fract_z
 _atom_site_occupancy
  Zn  Zn0  1  0.75000000  0.75000000  0.75000000  1
  Zn  Zn1  1  0.50000000  0.50000000  0.50000000  1
  Ag  Ag0  1  0.11679700  0.11679700  0.38320300  1
  Ag  Ag1  1  0.86679700  0.86679700  0.13320300  1
  Ag  Ag2  1  0.38320300  0.38320300  0.11679700  1
  Ag  Ag3  1  0.13320300  0.13320300  0.86679700  1
  O  O0  1  0.98711800  0.75981300  0.37353500  1
  O  O1  1  0.37046600  0.87646500  0.49018700  1
  O  O2  1  0.37353500  0.87953400  0.98711800  1
  O  O3  1  0.75981300  0.98711800  0.87953400  1
  O  O4  1  0.87646500  0.37046600  0.26288200  1
  O  O5  1  0.49018700  0.26288200  0.37046600  1
  O  O6  1  0.87953400  0.37353500  0.75981300  1
  O  O7  1  0.26288200  0.49018700  0.87646500  1
loop_
_geom_bond_atom_site_label_1
_geom_bond_atom_site_label_2
_geom_bond_distance
_geom_bond_site_symmetry_2
Ag0 O4 2.037937 1_455
Ag0 O1 2.037937 1_545
Ag0 O6 2.076735 1_455
Ag0 O2 2.076735 1_544
Ag1 O0 2.037937 1_555
Ag1 O3 2.037937 1_554
Ag1 O7 2.076735 1_654
Ag1 O5 2.076735 1_565
Ag2 O7 2.037937 1_554
Ag2 O5 2.037937 1_555
Ag2 O3 2.076735 1_544
Ag2 O0 2.076735 1_455
Ag3 O6 2.037937 1_455
Ag3 O2 2.037937 1_545
Ag3 O1 2.076735 1_545
Ag3 O4 2.076735 1_456
O0 Zn0 1.975432 1_555
O1 Zn1 1.975432 1_555
O2 Zn0 1.975432 1_555
O3 Zn0 1.975432 1_555
O4 Zn1 1.975432 1_555
O5 Zn1 1.975432 1_555
O6 Zn0 1.975432 1_555
O7 Zn1 1.975432 1_555
