# generated using pymatgen
data_Li5V3P8O29
_symmetry_space_group_name_H-M   'P 1'
_cell_length_a   9.72092800
_cell_length_b   9.75748904
_cell_length_c   14.09300285
_cell_angle_alpha   89.55983815
_cell_angle_beta   89.69864393
_cell_angle_gamma   60.39203312
_symmetry_Int_Tables_number   1
_chemical_formula_structural   Li5V3P8O29
_chemical_formula_sum   'Li10 V6 P16 O58'
_cell_volume   1162.16729562
_cell_formula_units_Z   2
loop_
 _symmetry_equiv_pos_site_id
 _symmetry_equiv_pos_as_xyz
  1  'x, y, z'
loop_
 _atom_site_type_symbol
 _atom_site_label
 _atom_site_symmetry_multiplicity
 _atom_site_fract_x
 _atom_site_fract_y
 _atom_site_fract_z
 _atom_site_occupancy
  Li  Li0  1  0.23439500  0.09107600  0.55539900  1
  Li  Li1  1  0.09806800  0.66129400  0.55789000  1
  Li  Li2  1  0.23785100  0.66515300  0.06179100  1
  Li  Li3  1  0.66551900  0.10160700  0.06282500  1
  Li  Li4  1  0.66803100  0.23061900  0.55840600  1
  Li  Li5  1  0.32900800  0.90754100  0.94260400  1
  Li  Li6  1  0.90091700  0.33228400  0.43683300  1
  Li  Li7  1  0.90436400  0.77113800  0.94332600  1
  Li  Li8  1  0.98245000  0.07870700  0.01234200  1
  Li  Li9  1  0.02557500  0.95108200  0.49402500  1
  V  V0  1  0.43670300  0.56458600  0.25253900  1
  V  V1  1  0.56673500  0.43362400  0.75177700  1
  V  V2  1  0.43489100  0.00146900  0.74504500  1
  V  V3  1  0.56587300  0.99828100  0.25207200  1
  V  V4  1  0.00271300  0.43191200  0.24527200  1
  V  V5  1  0.99903800  0.56421500  0.75308300  1
  P  P0  1  0.08572400  0.22064200  0.83902700  1
  P  P1  1  0.22119900  0.08670000  0.34174600  1
  P  P2  1  0.08752600  0.68657800  0.34114200  1
  P  P3  1  0.33572400  0.33539400  0.13080600  1
  P  P4  1  0.33315900  0.33633600  0.63106500  1
  P  P5  1  0.22950200  0.68475100  0.84482400  1
  P  P6  1  0.30534700  0.77696000  0.65960300  1
  P  P7  1  0.68621600  0.08634200  0.84335900  1
  P  P8  1  0.31014100  0.91340500  0.15811900  1
  P  P9  1  0.68623800  0.22465100  0.34358300  1
  P  P10  1  0.77847000  0.30742600  0.16081100  1
  P  P11  1  0.67160900  0.66211800  0.36831400  1
  P  P12  1  0.66053400  0.67196100  0.86760000  1
  P  P13  1  0.91337900  0.31398200  0.65604700  1
  P  P14  1  0.78203200  0.91407000  0.66059400  1
  P  P15  1  0.91259700  0.77538700  0.15877200  1
  O  O0  1  0.99536800  0.23089100  0.56574400  1
  O  O1  1  0.07741500  0.25559700  0.33596600  1
  O  O2  1  0.22107100  0.98743400  0.06819500  1
  O  O3  1  0.25974000  0.08347500  0.83493000  1
  O  O4  1  0.08080500  0.38194200  0.82834200  1
  O  O5  1  0.19282000  0.32755600  0.17698600  1
  O  O6  1  0.08109200  0.53434800  0.33016900  1
  O  O7  1  0.00262100  0.77359800  0.07035200  1
  O  O8  1  0.08229800  0.66360400  0.84288700  1
  O  O9  1  0.32137300  0.18995200  0.66796700  1
  O  O10  1  0.37664300  0.08937200  0.32846700  1
  O  O11  1  0.18896000  0.48811600  0.67205700  1
  O  O12  1  0.33140700  0.35097300  0.02535800  1
  O  O13  1  0.34154800  0.33851600  0.52520600  1
  O  O14  1  0.32793900  0.48896100  0.17488700  1
  O  O15  1  0.53006500  0.08830800  0.82819800  1
  O  O16  1  0.49054500  0.18821500  0.16761600  1
  O  O17  1  0.26079100  0.65542000  0.33152600  1
  O  O18  1  0.20958400  0.80106600  0.75871100  1
  O  O19  1  0.19646500  0.79055400  0.58081700  1
  O  O20  1  0.23902100  0.76092400  0.93512600  1
  O  O21  1  0.38162900  0.52510400  0.82547100  1
  O  O22  1  0.48902900  0.32361000  0.67531600  1
  O  O23  1  0.34307500  0.73937500  0.16223400  1
  O  O24  1  0.52868800  0.38121200  0.32785400  1
  O  O25  1  0.65708300  0.08459800  0.33694500  1
  O  O26  1  0.20222900  0.99641200  0.25017600  1
  O  O27  1  0.20830300  0.01039000  0.43185100  1
  O  O28  1  0.79853900  0.00439500  0.57944000  1
  O  O29  1  0.33892100  0.91653100  0.65654200  1
  O  O30  1  0.45908800  0.61639600  0.66931300  1
  O  O31  1  0.66126100  0.25625700  0.83299000  1
  O  O32  1  0.52371800  0.66091500  0.31828000  1
  O  O33  1  0.61592200  0.45869800  0.16907300  1
  O  O34  1  0.79195400  0.20174800  0.08058300  1
  O  O35  1  0.76743900  0.22608400  0.43424200  1
  O  O36  1  0.80195300  0.20785900  0.25805500  1
  O  O37  1  0.74248300  0.33739900  0.66020500  1
  O  O38  1  0.50954800  0.81503200  0.82493600  1
  O  O39  1  0.46466100  0.91871200  0.16971100  1
  O  O40  1  0.66436600  0.52310000  0.81814800  1
  O  O41  1  0.65395000  0.66925600  0.97297700  1
  O  O42  1  0.66158200  0.65734300  0.47325200  1
  O  O43  1  0.81641000  0.50804600  0.32950200  1
  O  O44  1  0.62031700  0.91997800  0.66902200  1
  O  O45  1  0.67268500  0.80728300  0.32301100  1
  O  O46  1  0.91404900  0.34460500  0.16050100  1
  O  O47  1  0.00738800  0.19880400  0.74305400  1
  O  O48  1  0.00116900  0.20622300  0.92225100  1
  O  O49  1  0.90844300  0.47071200  0.67252600  1
  O  O50  1  0.81028500  0.67794500  0.83077100  1
  O  O51  1  0.90694500  0.62222800  0.17218100  1
  O  O52  1  0.74534800  0.92102300  0.15852400  1
  O  O53  1  0.76883300  0.00935300  0.93503200  1
  O  O54  1  0.80460400  0.98673400  0.75870900  1
  O  O55  1  0.91868700  0.74044300  0.66207700  1
  O  O56  1  0.01889400  0.77287200  0.43190800  1
  O  O57  1  0.99802500  0.79853600  0.25098200  1
loop_
_geom_bond_atom_site_label_1
_geom_bond_atom_site_label_2
_geom_bond_distance
_geom_bond_site_symmetry_2
Li0 O27 1.984649 1_555
Li0 O0 2.036809 1_455
Li0 O29 2.057380 1_545
Li0 O9 2.237428 1_555
Li1 O19 1.952347 1_555
Li1 O56 2.021544 1_555
Li1 O55 2.110171 1_455
Li1 O11 2.173170 1_555
Li2 O7 1.992785 1_555
Li2 O20 2.011118 1_554
Li2 O23 2.082668 1_555
Li2 O14 2.178952 1_555
Li3 O34 1.929168 1_555
Li3 O52 2.036988 1_545
Li3 O53 2.043297 1_554
Li3 O16 2.088221 1_555
Li4 O28 1.948495 1_555
Li4 O35 1.984658 1_555
Li4 O37 2.108697 1_555
Li4 O22 2.235722 1_555
Li5 O2 2.008680 1_556
Li5 O20 2.015646 1_555
Li5 O3 2.128744 1_565
Li5 O38 2.252073 1_555
Li6 O35 2.021978 1_555
Li6 O0 2.052975 1_555
Li6 O1 2.060689 1_655
Li6 O43 2.117819 1_555
Li7 O53 2.030676 1_565
Li7 O7 2.039344 1_656
Li7 O8 2.073664 1_655
Li7 O50 2.244675 1_555
Li8 O48 1.841269 1_654
Li8 O34 1.896740 1_555
Li8 O2 2.181856 1_645
Li9 O56 1.982387 1_555
Li9 O19 2.032238 1_555
Li9 O27 2.291157 1_565
Li9 O28 2.331889 1_465
O0 P13 1.509583 1_555
O1 P1 1.548941 1_555
O1 V4 1.965262 1_555
O2 P8 1.502324 1_555
O3 P0 1.555367 1_555
O3 V2 1.946932 1_555
O4 P0 1.556965 1_555
O4 V5 1.871598 1_455
O5 P3 1.566486 1_555
O5 V4 1.874853 1_555
O6 P2 1.526309 1_555
O6 V4 1.947184 1_555
O7 P15 1.514158 1_455
O8 P5 1.543770 1_555
O8 V5 2.000636 1_455
O9 P4 1.572707 1_555
O9 V2 1.938191 1_555
O10 P1 1.534563 1_555
O10 V3 1.926442 1_545
O11 P4 1.563737 1_555
O11 V5 1.974857 1_455
O12 P3 1.491369 1_555
O13 P4 1.494232 1_555
O14 P3 1.593331 1_555
O14 V0 1.911927 1_555
O15 P7 1.524702 1_555
O15 V2 1.936105 1_555
O16 P3 1.567682 1_555
O16 V3 2.005449 1_545
O17 P2 1.562017 1_555
O17 V0 1.856446 1_555
O18 P5 1.600798 1_555
O18 P6 1.627197 1_555
O19 P6 1.497359 1_555
O20 P5 1.504760 1_555
O21 P5 1.553670 1_555
O21 V1 1.876358 1_555
O22 P4 1.588396 1_555
O22 V1 1.926558 1_555
O23 P8 1.565529 1_555
O23 V0 1.949821 1_555
O24 P9 1.554006 1_555
O24 V0 1.878169 1_555
O25 P9 1.530204 1_555
O25 V3 1.921127 1_545
O26 P8 1.613023 1_555
O26 P1 1.629730 1_565
O27 P1 1.502893 1_555
O28 P14 1.494290 1_545
O29 P6 1.549578 1_555
O29 V2 1.976115 1_565
O30 P6 1.546623 1_555
O30 V1 1.939859 1_555
O31 P7 1.558272 1_555
O31 V1 1.886457 1_555
O32 P11 1.609849 1_555
O32 V0 1.806813 1_555
O33 P10 1.544377 1_555
O33 V0 1.924786 1_555
O34 P10 1.497208 1_555
O35 P9 1.509127 1_555
O36 P9 1.597393 1_555
O36 P10 1.624137 1_555
O37 P13 1.561908 1_555
O37 V1 1.968796 1_555
O38 P12 1.560878 1_555
O38 V2 1.943260 1_565
O39 P8 1.537913 1_555
O39 V3 1.923204 1_555
O40 P12 1.599592 1_555
O40 V1 1.838071 1_555
O41 P12 1.486714 1_555
O42 P11 1.483477 1_555
O43 P11 1.566570 1_555
O43 V4 1.975437 1_655
O44 P14 1.548313 1_555
O44 V2 1.898874 1_565
O45 P11 1.553940 1_555
O45 V3 1.902898 1_555
O46 P10 1.530027 1_555
O46 V4 1.909934 1_655
O47 P13 1.605454 1_455
O47 P0 1.621811 1_555
O48 P0 1.473986 1_555
O49 P13 1.525713 1_555
O49 V5 1.928010 1_555
O50 P12 1.570826 1_555
O50 V5 1.944844 1_555
O51 P15 1.532576 1_555
O51 V4 1.910140 1_655
O52 P15 1.542632 1_555
O52 V3 2.010404 1_555
O53 P7 1.509405 1_555
O54 P7 1.609466 1_565
O54 P14 1.623203 1_555
O55 P14 1.552814 1_555
O55 V5 1.965030 1_555
O56 P2 1.497612 1_555
O57 P2 1.617401 1_655
O57 P15 1.621913 1_555
