# generated using pymatgen
data_HoHO2
_symmetry_space_group_name_H-M   'P 1'
_cell_length_a   3.48574000
_cell_length_b   4.84852500
_cell_length_c   5.46391300
_cell_angle_alpha   90.00000000
_cell_angle_beta   90.00000000
_cell_angle_gamma   90.00000000
_symmetry_Int_Tables_number   1
_chemical_formula_structural   HoHO2
_chemical_formula_sum   'Ho2 H2 O4'
_cell_volume   92.34394096
_cell_formula_units_Z   2
loop_
 _symmetry_equiv_pos_site_id
 _symmetry_equiv_pos_as_xyz
  1  'x, y, z'
loop_
 _atom_site_type_symbol
 _atom_site_label
 _atom_site_symmetry_multiplicity
 _atom_site_fract_x
 _atom_site_fract_y
 _atom_site_fract_z
 _atom_site_occupancy
  Ho  Ho0  1  0.00000000  0.72315700  0.98253200  1
  Ho  Ho1  1  0.50000000  0.27684300  0.48253200  1
  H  H0  1  0.50000000  0.19350000  0.96263700  1
  H  H1  1  0.00000000  0.80650000  0.46263700  1
  O  O0  1  0.50000000  0.02132900  0.85645100  1
  O  O1  1  0.00000000  0.51769400  0.62115600  1
  O  O2  1  0.00000000  0.97867100  0.35645100  1
  O  O3  1  0.50000000  0.48230600  0.12115600  1
loop_
_geom_bond_atom_site_label_1
_geom_bond_atom_site_label_2
_geom_bond_distance
_geom_bond_site_symmetry_2
Ho0 O1 2.211596 1_555
Ho0 O3 2.230468 1_456
Ho0 O3 2.230468 1_556
Ho0 O0 2.366898 1_565
Ho0 O0 2.366898 1_465
Ho0 O2 2.389328 1_556
Ho1 O3 2.211596 1_555
Ho1 O1 2.230468 1_555
Ho1 O1 2.230468 1_655
Ho1 O2 2.366898 1_645
Ho1 O2 2.366898 1_545
Ho1 O0 2.389328 1_555
H0 O0 1.016598 1_555
H0 O3 1.646506 1_556
H1 O2 1.016598 1_555
H1 O1 1.646506 1_555
