# generated using pymatgen
data_Zr2N2O
_symmetry_space_group_name_H-M   'P 1'
_cell_length_a   5.57630484
_cell_length_b   5.57630484
_cell_length_c   14.79864744
_cell_angle_alpha   89.94694833
_cell_angle_beta   89.94694833
_cell_angle_gamma   59.80847245
_symmetry_Int_Tables_number   1
_chemical_formula_structural   Zr2N2O
_chemical_formula_sum   'Zr12 N12 O6'
_cell_volume   397.74434365
_cell_formula_units_Z   6
loop_
 _symmetry_equiv_pos_site_id
 _symmetry_equiv_pos_as_xyz
  1  'x, y, z'
loop_
 _atom_site_type_symbol
 _atom_site_label
 _atom_site_symmetry_multiplicity
 _atom_site_fract_x
 _atom_site_fract_y
 _atom_site_fract_z
 _atom_site_occupancy
  Zr  Zr0  1  0.99776500  0.99922200  0.64164400  1
  Zr  Zr1  1  0.99922200  0.99776500  0.14164400  1
  Zr  Zr2  1  0.67817000  0.67627900  0.80889700  1
  Zr  Zr3  1  0.67854300  0.67378100  0.52519100  1
  Zr  Zr4  1  0.67627900  0.67817000  0.30889700  1
  Zr  Zr5  1  0.67378100  0.67854300  0.02519100  1
  Zr  Zr6  1  0.32621900  0.32145700  0.97480900  1
  Zr  Zr7  1  0.32372100  0.32183000  0.69110300  1
  Zr  Zr8  1  0.32145700  0.32621900  0.47480900  1
  Zr  Zr9  1  0.32183000  0.32372100  0.19110300  1
  Zr  Zr10  1  0.00077800  0.00223500  0.85835600  1
  Zr  Zr11  1  0.00223500  0.00077800  0.35835600  1
  N  N0  1  0.00582700  0.28991900  0.75160800  1
  N  N1  1  0.28991900  0.00582700  0.25160800  1
  N  N2  1  0.36854700  0.95566400  0.91781800  1
  N  N3  1  0.95566400  0.36854700  0.41781800  1
  N  N4  1  0.33922400  0.03478800  0.58463600  1
  N  N5  1  0.03478800  0.33922400  0.08463600  1
  N  N6  1  0.96521200  0.66077600  0.91536400  1
  N  N7  1  0.66077600  0.96521200  0.41536400  1
  N  N8  1  0.04433600  0.63145300  0.58218200  1
  N  N9  1  0.63145300  0.04433600  0.08218200  1
  N  N10  1  0.71008100  0.99417300  0.74839200  1
  N  N11  1  0.99417300  0.71008100  0.24839200  1
  O  O0  1  0.66660800  0.35646200  0.91782300  1
  O  O1  1  0.35646200  0.66660800  0.41782300  1
  O  O2  1  0.64353800  0.33339200  0.58217700  1
  O  O3  1  0.33339200  0.64353800  0.08217700  1
  O  O4  1  0.31065300  0.68934700  0.75000000  1
  O  O5  1  0.68934700  0.31065300  0.25000000  1
loop_
_geom_bond_atom_site_label_1
_geom_bond_atom_site_label_2
_geom_bond_distance
_geom_bond_site_symmetry_2
N0 Zr7 2.071182 1_555
N0 Zr2 2.177180 1_455
N0 Zr10 2.260637 1_555
N0 Zr0 2.314345 1_445
N1 Zr9 2.071182 1_555
N1 Zr4 2.177180 1_545
N1 Zr11 2.260637 1_555
N1 Zr1 2.314345 1_445
N2 Zr6 2.108618 1_565
N2 Zr10 2.124800 1_565
N2 Zr5 2.272643 1_556
N2 Zr2 2.302259 1_555
N3 Zr8 2.108618 1_655
N3 Zr11 2.124800 1_655
N3 Zr3 2.272643 1_555
N3 Zr4 2.302259 1_555
N4 Zr3 2.139094 1_545
N4 Zr0 2.180163 1_445
N4 Zr7 2.217467 1_555
N4 Zr8 2.264030 1_555
N5 Zr5 2.139094 1_455
N5 Zr1 2.180163 1_445
N5 Zr9 2.217467 1_555
N5 Zr6 2.264030 1_554
N6 Zr6 2.139094 1_655
N6 Zr10 2.180163 1_665
N6 Zr2 2.217467 1_555
N6 Zr5 2.264030 1_556
N7 Zr8 2.139094 1_565
N7 Zr11 2.180163 1_665
N7 Zr4 2.217467 1_555
N7 Zr3 2.264030 1_555
N8 Zr3 2.108618 1_455
N8 Zr0 2.124800 1_455
N8 Zr8 2.272643 1_555
N8 Zr7 2.302259 1_555
N9 Zr5 2.108618 1_545
N9 Zr1 2.124800 1_545
N9 Zr6 2.272643 1_554
N9 Zr9 2.302259 1_555
N10 Zr2 2.071182 1_555
N10 Zr7 2.177180 1_565
N10 Zr0 2.260637 1_555
N10 Zr10 2.314345 1_665
N11 Zr4 2.071182 1_555
N11 Zr9 2.177180 1_655
N11 Zr1 2.260637 1_555
N11 Zr11 2.314345 1_665
O0 Zr10 2.108709 1_655
O0 Zr6 2.172901 1_555
O0 Zr5 2.414448 1_556
O0 Zr2 2.427591 1_555
O1 Zr11 2.108709 1_565
O1 Zr8 2.172901 1_555
O1 Zr3 2.414448 1_555
O1 Zr4 2.427591 1_555
O2 Zr0 2.108709 1_545
O2 Zr3 2.172901 1_555
O2 Zr8 2.414448 1_555
O2 Zr7 2.427591 1_555
O3 Zr1 2.108709 1_455
O3 Zr5 2.172901 1_555
O3 Zr6 2.414448 1_554
O3 Zr9 2.427591 1_555
O4 Zr2 2.194985 1_555
O4 Zr7 2.194985 1_555
O4 Zr0 2.359883 1_455
O4 Zr10 2.359883 1_565
O5 Zr4 2.194985 1_555
O5 Zr9 2.194985 1_555
O5 Zr11 2.359883 1_655
O5 Zr1 2.359883 1_545
