# generated using pymatgen
data_Li3La2H6(N3O10)3
_symmetry_space_group_name_H-M   'P 1'
_cell_length_a   13.54133400
_cell_length_b   13.54133400
_cell_length_c   13.54133400
_cell_angle_alpha   90.00000000
_cell_angle_beta   90.00000000
_cell_angle_gamma   90.00000000
_symmetry_Int_Tables_number   1
_chemical_formula_structural   Li3La2H6(N3O10)3
_chemical_formula_sum   'Li12 La8 H24 N36 O120'
_cell_volume   2483.04362935
_cell_formula_units_Z   4
loop_
 _symmetry_equiv_pos_site_id
 _symmetry_equiv_pos_as_xyz
  1  'x, y, z'
loop_
 _atom_site_type_symbol
 _atom_site_label
 _atom_site_symmetry_multiplicity
 _atom_site_fract_x
 _atom_site_fract_y
 _atom_site_fract_z
 _atom_site_occupancy
  Li  Li0  1  0.20169500  0.95391100  0.77882000  1
  Li  Li1  1  0.22118000  0.70169500  0.54608900  1
  Li  Li2  1  0.45391100  0.72118000  0.79830500  1
  Li  Li3  1  0.70169500  0.54608900  0.22118000  1
  Li  Li4  1  0.72118000  0.79830500  0.45391100  1
  Li  Li5  1  0.95391100  0.77882000  0.20169500  1
  Li  Li6  1  0.79830500  0.45391100  0.72118000  1
  Li  Li7  1  0.77882000  0.20169500  0.95391100  1
  Li  Li8  1  0.54608900  0.22118000  0.70169500  1
  Li  Li9  1  0.29830500  0.04608900  0.27882000  1
  Li  Li10  1  0.27882000  0.29830500  0.04608900  1
  Li  Li11  1  0.04608900  0.27882000  0.29830500  1
  La  La0  1  0.03174200  0.53174200  0.96825800  1
  La  La1  1  0.53174200  0.96825800  0.03174200  1
  La  La2  1  0.96825800  0.03174200  0.53174200  1
  La  La3  1  0.46825800  0.46825800  0.46825800  1
  La  La4  1  0.77780000  0.77780000  0.77780000  1
  La  La5  1  0.22220000  0.27780000  0.72220000  1
  La  La6  1  0.27780000  0.72220000  0.22220000  1
  La  La7  1  0.72220000  0.22220000  0.27780000  1
  H  H0  1  0.03878000  0.64844200  0.52606600  1
  H  H1  1  0.47393400  0.53878000  0.85155800  1
  H  H2  1  0.14844200  0.97393400  0.96122000  1
  H  H3  1  0.53878000  0.85155800  0.47393400  1
  H  H4  1  0.97393400  0.96122000  0.14844200  1
  H  H5  1  0.64844200  0.52606600  0.03878000  1
  H  H6  1  0.96122000  0.14844200  0.97393400  1
  H  H7  1  0.52606600  0.03878000  0.64844200  1
  H  H8  1  0.85155800  0.47393400  0.53878000  1
  H  H9  1  0.46122000  0.35155800  0.02606600  1
  H  H10  1  0.02606600  0.46122000  0.35155800  1
  H  H11  1  0.35155800  0.02606600  0.46122000  1
  H  H12  1  0.09856400  0.56919100  0.58274900  1
  H  H13  1  0.41725100  0.59856400  0.93080900  1
  H  H14  1  0.06919100  0.91725100  0.90143600  1
  H  H15  1  0.59856400  0.93080900  0.41725100  1
  H  H16  1  0.91725100  0.90143600  0.06919100  1
  H  H17  1  0.56919100  0.58274900  0.09856400  1
  H  H18  1  0.90143600  0.06919100  0.91725100  1
  H  H19  1  0.58274900  0.09856400  0.56919100  1
  H  H20  1  0.93080900  0.41725100  0.59856400  1
  H  H21  1  0.40143600  0.43080900  0.08274900  1
  H  H22  1  0.08274900  0.40143600  0.43080900  1
  H  H23  1  0.43080900  0.08274900  0.40143600  1
  N  N0  1  0.23784500  0.62671800  0.01120800  1
  N  N1  1  0.98879200  0.73784500  0.87328200  1
  N  N2  1  0.12671800  0.48879200  0.76215500  1
  N  N3  1  0.73784500  0.87328200  0.98879200  1
  N  N4  1  0.48879200  0.76215500  0.12671800  1
  N  N5  1  0.62671800  0.01120800  0.23784500  1
  N  N6  1  0.76215500  0.12671800  0.48879200  1
  N  N7  1  0.01120800  0.23784500  0.62671800  1
  N  N8  1  0.87328200  0.98879200  0.73784500  1
  N  N9  1  0.26215500  0.37328200  0.51120800  1
  N  N10  1  0.51120800  0.26215500  0.37328200  1
  N  N11  1  0.37328200  0.51120800  0.26215500  1
  N  N12  1  0.38643600  0.60897600  0.62926200  1
  N  N13  1  0.37073800  0.88643600  0.89102400  1
  N  N14  1  0.10897600  0.87073800  0.61356400  1
  N  N15  1  0.88643600  0.89102400  0.37073800  1
  N  N16  1  0.87073800  0.61356400  0.10897600  1
  N  N17  1  0.60897600  0.62926200  0.38643600  1
  N  N18  1  0.61356400  0.10897600  0.87073800  1
  N  N19  1  0.62926200  0.38643600  0.60897600  1
  N  N20  1  0.89102400  0.37073800  0.88643600  1
  N  N21  1  0.11356400  0.39102400  0.12926200  1
  N  N22  1  0.12926200  0.11356400  0.39102400  1
  N  N23  1  0.39102400  0.12926200  0.11356400  1
  N  N24  1  0.70842500  0.57704500  0.85370500  1
  N  N25  1  0.14629500  0.20842500  0.92295500  1
  N  N26  1  0.07704500  0.64629500  0.29157500  1
  N  N27  1  0.20842500  0.92295500  0.14629500  1
  N  N28  1  0.64629500  0.29157500  0.07704500  1
  N  N29  1  0.57704500  0.85370500  0.70842500  1
  N  N30  1  0.29157500  0.07704500  0.64629500  1
  N  N31  1  0.85370500  0.70842500  0.57704500  1
  N  N32  1  0.92295500  0.14629500  0.20842500  1
  N  N33  1  0.79157500  0.42295500  0.35370500  1
  N  N34  1  0.35370500  0.79157500  0.42295500  1
  N  N35  1  0.42295500  0.35370500  0.79157500  1
  O  O0  1  0.87295400  0.92228500  0.66966600  1
  O  O1  1  0.33033400  0.37295400  0.57771500  1
  O  O2  1  0.42228500  0.83033400  0.12704600  1
  O  O3  1  0.37295400  0.57771500  0.33033400  1
  O  O4  1  0.83033400  0.12704600  0.42228500  1
  O  O5  1  0.92228500  0.66966600  0.87295400  1
  O  O6  1  0.12704600  0.42228500  0.83033400  1
  O  O7  1  0.66966600  0.87295400  0.92228500  1
  O  O8  1  0.57771500  0.33033400  0.37295400  1
  O  O9  1  0.62704600  0.07771500  0.16966600  1
  O  O10  1  0.16966600  0.62704600  0.07771500  1
  O  O11  1  0.07771500  0.16966600  0.62704600  1
  O  O12  1  0.22294200  0.58178100  0.93188100  1
  O  O13  1  0.06811900  0.72294200  0.91821900  1
  O  O14  1  0.08178100  0.56811900  0.77705800  1
  O  O15  1  0.72294200  0.91821900  0.06811900  1
  O  O16  1  0.56811900  0.77705800  0.08178100  1
  O  O17  1  0.58178100  0.93188100  0.22294200  1
  O  O18  1  0.77705800  0.08178100  0.56811900  1
  O  O19  1  0.93188100  0.22294200  0.58178100  1
  O  O20  1  0.91821900  0.06811900  0.72294200  1
  O  O21  1  0.27705800  0.41821900  0.43188100  1
  O  O22  1  0.43188100  0.27705800  0.41821900  1
  O  O23  1  0.41821900  0.43188100  0.27705800  1
  O  O24  1  0.82896700  0.97116600  0.81771100  1
  O  O25  1  0.18228900  0.32896700  0.52883400  1
  O  O26  1  0.47116600  0.68228900  0.17103300  1
  O  O27  1  0.32896700  0.52883400  0.18228900  1
  O  O28  1  0.68228900  0.17103300  0.47116600  1
  O  O29  1  0.97116600  0.81771100  0.82896700  1
  O  O30  1  0.17103300  0.47116600  0.68228900  1
  O  O31  1  0.81771100  0.82896700  0.97116600  1
  O  O32  1  0.52883400  0.18228900  0.32896700  1
  O  O33  1  0.67103300  0.02883400  0.31771100  1
  O  O34  1  0.31771100  0.67103300  0.02883400  1
  O  O35  1  0.02883400  0.31771100  0.67103300  1
  O  O36  1  0.33930400  0.59595300  0.54744700  1
  O  O37  1  0.45255300  0.83930400  0.90404700  1
  O  O38  1  0.09595300  0.95255300  0.66069600  1
  O  O39  1  0.83930400  0.90404700  0.45255300  1
  O  O40  1  0.95255300  0.66069600  0.09595300  1
  O  O41  1  0.59595300  0.54744700  0.33930400  1
  O  O42  1  0.66069600  0.09595300  0.95255300  1
  O  O43  1  0.54744700  0.33930400  0.59595300  1
  O  O44  1  0.90404700  0.45255300  0.83930400  1
  O  O45  1  0.16069600  0.40404700  0.04744700  1
  O  O46  1  0.04744700  0.16069600  0.40404700  1
  O  O47  1  0.40404700  0.04744700  0.16069600  1
  O  O48  1  0.05692000  0.85656200  0.53690800  1
  O  O49  1  0.46309200  0.55692000  0.64343800  1
  O  O50  1  0.35656200  0.96309200  0.94308000  1
  O  O51  1  0.55692000  0.64343800  0.46309200  1
  O  O52  1  0.96309200  0.94308000  0.35656200  1
  O  O53  1  0.85656200  0.53690800  0.05692000  1
  O  O54  1  0.94308000  0.35656200  0.96309200  1
  O  O55  1  0.53690800  0.05692000  0.85656200  1
  O  O56  1  0.64343800  0.46309200  0.55692000  1
  O  O57  1  0.44308000  0.14343800  0.03690800  1
  O  O58  1  0.03690800  0.44308000  0.14343800  1
  O  O59  1  0.14343800  0.03690800  0.44308000  1
  O  O60  1  0.35635600  0.67135900  0.68986400  1
  O  O61  1  0.31013600  0.85635600  0.82864100  1
  O  O62  1  0.17135900  0.81013600  0.64364400  1
  O  O63  1  0.85635600  0.82864100  0.31013600  1
  O  O64  1  0.81013600  0.64364400  0.17135900  1
  O  O65  1  0.67135900  0.68986400  0.35635600  1
  O  O66  1  0.64364400  0.17135900  0.81013600  1
  O  O67  1  0.68986400  0.35635600  0.67135900  1
  O  O68  1  0.82864100  0.31013600  0.85635600  1
  O  O69  1  0.14364400  0.32864100  0.18986400  1
  O  O70  1  0.18986400  0.14364400  0.32864100  1
  O  O71  1  0.32864100  0.18986400  0.14364400  1
  O  O72  1  0.70120900  0.65582200  0.90444600  1
  O  O73  1  0.09555400  0.20120900  0.84417800  1
  O  O74  1  0.15582200  0.59555400  0.29879100  1
  O  O75  1  0.20120900  0.84417800  0.09555400  1
  O  O76  1  0.59555400  0.29879100  0.15582200  1
  O  O77  1  0.65582200  0.90444600  0.70120900  1
  O  O78  1  0.29879100  0.15582200  0.59555400  1
  O  O79  1  0.90444600  0.70120900  0.65582200  1
  O  O80  1  0.84417800  0.09555400  0.20120900  1
  O  O81  1  0.79879100  0.34417800  0.40444600  1
  O  O82  1  0.40444600  0.79879100  0.34417800  1
  O  O83  1  0.34417800  0.40444600  0.79879100  1
  O  O84  1  0.74083400  0.58699200  0.76376400  1
  O  O85  1  0.23623600  0.24083400  0.91300800  1
  O  O86  1  0.08699200  0.73623600  0.25916600  1
  O  O87  1  0.24083400  0.91300800  0.23623600  1
  O  O88  1  0.73623600  0.25916600  0.08699200  1
  O  O89  1  0.58699200  0.76376400  0.74083400  1
  O  O90  1  0.25916600  0.08699200  0.73623600  1
  O  O91  1  0.76376400  0.74083400  0.58699200  1
  O  O92  1  0.91300800  0.23623600  0.24083400  1
  O  O93  1  0.75916600  0.41300800  0.26376400  1
  O  O94  1  0.26376400  0.75916600  0.41300800  1
  O  O95  1  0.41300800  0.26376400  0.75916600  1
  O  O96  1  0.49452200  0.88667000  0.68756700  1
  O  O97  1  0.31243300  0.99452200  0.61333000  1
  O  O98  1  0.38667000  0.81243300  0.50547800  1
  O  O99  1  0.99452200  0.61333000  0.31243300  1
  O  O100  1  0.81243300  0.50547800  0.38667000  1
  O  O101  1  0.88667000  0.68756700  0.49452200  1
  O  O102  1  0.50547800  0.38667000  0.81243300  1
  O  O103  1  0.68756700  0.49452200  0.88667000  1
  O  O104  1  0.61333000  0.31243300  0.99452200  1
  O  O105  1  0.00547800  0.11333000  0.18756700  1
  O  O106  1  0.18756700  0.00547800  0.11333000  1
  O  O107  1  0.11333000  0.18756700  0.00547800  1
  O  O108  1  0.10419200  0.61754500  0.52972200  1
  O  O109  1  0.47027800  0.60419200  0.88245500  1
  O  O110  1  0.11754500  0.97027800  0.89580800  1
  O  O111  1  0.60419200  0.88245500  0.47027800  1
  O  O112  1  0.97027800  0.89580800  0.11754500  1
  O  O113  1  0.61754500  0.52972200  0.10419200  1
  O  O114  1  0.89580800  0.11754500  0.97027800  1
  O  O115  1  0.52972200  0.10419200  0.61754500  1
  O  O116  1  0.88245500  0.47027800  0.60419200  1
  O  O117  1  0.39580800  0.38245500  0.02972200  1
  O  O118  1  0.02972200  0.39580800  0.38245500  1
  O  O119  1  0.38245500  0.02972200  0.39580800  1
loop_
_geom_bond_atom_site_label_1
_geom_bond_atom_site_label_2
_geom_bond_distance
_geom_bond_site_symmetry_2
Li0 O110 1.963974 1_555
Li0 O90 2.045901 1_565
Li0 O61 2.087236 1_555
Li0 O38 2.146910 1_555
Li1 O108 1.963974 1_555
Li1 O94 2.045901 1_555
Li1 O62 2.087236 1_555
Li1 O36 2.146910 1_555
Li2 O109 1.963974 1_555
Li2 O89 2.045901 1_555
Li2 O60 2.087236 1_555
Li2 O37 2.146910 1_555
Li3 O113 1.963974 1_555
Li3 O93 2.045901 1_555
Li3 O64 2.087236 1_555
Li3 O41 2.146910 1_555
Li4 O111 1.963974 1_555
Li4 O91 2.045901 1_555
Li4 O65 2.087236 1_555
Li4 O39 2.146910 1_555
Li5 O112 1.963974 1_555
Li5 O86 2.045901 1_655
Li5 O63 2.087236 1_555
Li5 O40 2.146910 1_555
Li6 O116 1.963974 1_555
Li6 O84 2.045901 1_555
Li6 O67 2.087236 1_555
Li6 O44 2.146910 1_555
Li7 O114 1.963974 1_555
Li7 O88 2.045901 1_556
Li7 O68 2.087236 1_555
Li7 O42 2.146910 1_555
Li8 O115 1.963974 1_555
Li8 O95 2.045901 1_555
Li8 O66 2.087236 1_555
Li8 O43 2.146910 1_555
Li9 O119 1.963974 1_555
Li9 O87 2.045901 1_545
Li9 O70 2.087236 1_555
Li9 O47 2.146910 1_555
Li10 O117 1.963974 1_555
Li10 O85 2.045901 1_554
Li10 O71 2.087236 1_555
Li10 O45 2.146910 1_555
Li11 O118 1.963974 1_555
Li11 O92 2.045901 1_455
Li11 O69 2.087236 1_555
Li11 O46 2.146910 1_555
La0 O58 2.659611 1_556
La0 O54 2.659611 1_455
La0 O53 2.659611 1_456
La0 O44 2.681254 1_455
La0 O40 2.681254 1_456
La0 O45 2.681254 1_556
La0 O5 2.711201 1_455
La0 O6 2.711201 1_555
La0 O10 2.711201 1_556
La0 O13 2.721257 1_555
La0 O14 2.721257 1_555
La0 O12 2.721257 1_555
La1 O57 2.659611 1_565
La1 O50 2.659611 1_554
La1 O55 2.659611 1_564
La1 O42 2.681254 1_564
La1 O37 2.681254 1_554
La1 O47 2.681254 1_565
La1 O7 2.711201 1_554
La1 O2 2.711201 1_555
La1 O9 2.711201 1_565
La1 O16 2.721257 1_555
La1 O15 2.721257 1_555
La1 O17 2.721257 1_555
La2 O59 2.659611 1_655
La2 O48 2.659611 1_645
La2 O52 2.659611 1_545
La2 O39 2.681254 1_545
La2 O38 2.681254 1_645
La2 O46 2.681254 1_655
La2 O0 2.711201 1_545
La2 O4 2.711201 1_555
La2 O11 2.711201 1_655
La2 O18 2.721257 1_555
La2 O20 2.721257 1_555
La2 O19 2.721257 1_555
La3 O51 2.659611 1_555
La3 O56 2.659611 1_555
La3 O49 2.659611 1_555
La3 O41 2.681254 1_555
La3 O36 2.681254 1_555
La3 O43 2.681254 1_555
La3 O8 2.711201 1_555
La3 O1 2.711201 1_555
La3 O3 2.711201 1_555
La3 O22 2.721257 1_555
La3 O23 2.721257 1_555
La3 O21 2.721257 1_555
La4 O77 2.597114 1_555
La4 O72 2.597114 1_555
La4 O79 2.597114 1_555
La4 O91 2.638691 1_555
La4 O84 2.638691 1_555
La4 O89 2.638691 1_555
La4 O24 2.761946 1_555
La4 O31 2.761946 1_555
La4 O29 2.761946 1_555
La4 O0 2.762670 1_555
La4 O7 2.762670 1_555
La4 O5 2.762670 1_555
La5 O78 2.597114 1_555
La5 O83 2.597114 1_555
La5 O73 2.597114 1_555
La5 O95 2.638691 1_555
La5 O90 2.638691 1_555
La5 O85 2.638691 1_555
La5 O25 2.761946 1_555
La5 O30 2.761946 1_555
La5 O35 2.761946 1_555
La5 O11 2.762670 1_555
La5 O1 2.762670 1_555
La5 O6 2.762670 1_555
La6 O74 2.597114 1_555
La6 O75 2.597114 1_555
La6 O82 2.597114 1_555
La6 O86 2.638691 1_555
La6 O94 2.638691 1_555
La6 O87 2.638691 1_555
La6 O27 2.761946 1_555
La6 O26 2.761946 1_555
La6 O34 2.761946 1_555
La6 O10 2.762670 1_555
La6 O3 2.762670 1_555
La6 O2 2.762670 1_555
La7 O76 2.597114 1_555
La7 O80 2.597114 1_555
La7 O81 2.597114 1_555
La7 O88 2.638691 1_555
La7 O93 2.638691 1_555
La7 O92 2.638691 1_555
La7 O32 2.761946 1_555
La7 O28 2.761946 1_555
La7 O33 2.761946 1_555
La7 O9 2.762670 1_555
La7 O8 2.762670 1_555
La7 O4 2.762670 1_555
H0 O108 0.980856 1_555
H1 O109 0.980856 1_555
H2 O110 0.980856 1_555
H3 O111 0.980856 1_555
H4 O112 0.980856 1_555
H5 O113 0.980856 1_555
H6 O114 0.980856 1_555
H7 O115 0.980856 1_555
H8 O116 0.980856 1_555
H9 O117 0.980856 1_555
H10 O118 0.980856 1_555
H11 O119 0.980856 1_555
H12 O108 0.974755 1_555
H13 O109 0.974755 1_555
H14 O110 0.974755 1_555
H15 O111 0.974755 1_555
H16 O112 0.974755 1_555
H17 O113 0.974755 1_555
H18 O114 0.974755 1_555
H19 O115 0.974755 1_555
H20 O116 0.974755 1_555
H21 O117 0.974755 1_555
H22 O118 0.974755 1_555
H23 O119 0.974755 1_555
N0 O12 1.250959 1_554
N0 O34 1.259641 1_555
N0 O10 1.289748 1_555
N1 O13 1.250959 1_655
N1 O29 1.259641 1_555
N1 O5 1.289748 1_555
N2 O14 1.250959 1_555
N2 O30 1.259641 1_555
N2 O6 1.289748 1_555
N3 O15 1.250959 1_556
N3 O31 1.259641 1_555
N3 O7 1.289748 1_555
N4 O16 1.250959 1_555
N4 O26 1.259641 1_555
N4 O2 1.289748 1_555
N5 O17 1.250959 1_545
N5 O33 1.259641 1_555
N5 O9 1.289748 1_555
N6 O18 1.250959 1_555
N6 O28 1.259641 1_555
N6 O4 1.289748 1_555
N7 O19 1.250959 1_455
N7 O35 1.259641 1_555
N7 O11 1.289748 1_555
N8 O20 1.250959 1_565
N8 O24 1.259641 1_555
N8 O0 1.289748 1_555
N9 O21 1.250959 1_555
N9 O25 1.259641 1_555
N9 O1 1.289748 1_555
N10 O22 1.250959 1_555
N10 O32 1.259641 1_555
N10 O8 1.289748 1_555
N11 O23 1.250959 1_555
N11 O27 1.259641 1_555
N11 O3 1.289748 1_555
N12 O60 1.246174 1_555
N12 O49 1.269346 1_555
N12 O36 1.290676 1_555
N13 O61 1.246174 1_555
N13 O50 1.269346 1_555
N13 O37 1.290676 1_555
N14 O62 1.246174 1_555
N14 O48 1.269346 1_555
N14 O38 1.290676 1_555
N15 O63 1.246174 1_555
N15 O52 1.269346 1_555
N15 O39 1.290676 1_555
N16 O64 1.246174 1_555
N16 O53 1.269346 1_555
N16 O40 1.290676 1_555
N17 O65 1.246174 1_555
N17 O51 1.269346 1_555
N17 O41 1.290676 1_555
N18 O66 1.246174 1_555
N18 O55 1.269346 1_555
N18 O42 1.290676 1_555
N19 O67 1.246174 1_555
N19 O56 1.269346 1_555
N19 O43 1.290676 1_555
N20 O68 1.246174 1_555
N20 O54 1.269346 1_555
N20 O44 1.290676 1_555
N21 O69 1.246174 1_555
N21 O58 1.269346 1_555
N21 O45 1.290676 1_555
N22 O70 1.246174 1_555
N22 O59 1.269346 1_555
N22 O46 1.290676 1_555
N23 O71 1.246174 1_555
N23 O57 1.269346 1_555
N23 O47 1.290676 1_555
N24 O103 1.236035 1_555
N24 O72 1.272636 1_555
N24 O84 1.301566 1_555
N25 O107 1.236035 1_556
N25 O73 1.272636 1_555
N25 O85 1.301566 1_555
N26 O99 1.236035 1_455
N26 O74 1.272636 1_555
N26 O86 1.301566 1_555
N27 O106 1.236035 1_565
N27 O75 1.272636 1_555
N27 O87 1.301566 1_555
N28 O104 1.236035 1_554
N28 O76 1.272636 1_555
N28 O88 1.301566 1_555
N29 O96 1.236035 1_555
N29 O77 1.272636 1_555
N29 O89 1.301566 1_555
N30 O97 1.236035 1_545
N30 O78 1.272636 1_555
N30 O90 1.301566 1_555
N31 O101 1.236035 1_555
N31 O79 1.272636 1_555
N31 O91 1.301566 1_555
N32 O105 1.236035 1_655
N32 O80 1.272636 1_555
N32 O92 1.301566 1_555
N33 O100 1.236035 1_555
N33 O81 1.272636 1_555
N33 O93 1.301566 1_555
N34 O98 1.236035 1_555
N34 O82 1.272636 1_555
N34 O94 1.301566 1_555
N35 O102 1.236035 1_555
N35 O83 1.272636 1_555
N35 O95 1.301566 1_555
