# generated using pymatgen
data_Ti5Nb(PO4)6
_symmetry_space_group_name_H-M   'P 1'
_cell_length_a   8.43919984
_cell_length_b   8.43920020
_cell_length_c   8.43920113
_cell_angle_alpha   63.42341131
_cell_angle_beta   63.42341016
_cell_angle_gamma   63.42341036
_symmetry_Int_Tables_number   1
_chemical_formula_structural   Ti5Nb(PO4)6
_chemical_formula_sum   'Ti5 Nb1 P6 O24'
_cell_volume   457.19341955
_cell_formula_units_Z   1
loop_
 _symmetry_equiv_pos_site_id
 _symmetry_equiv_pos_as_xyz
  1  'x, y, z'
loop_
 _atom_site_type_symbol
 _atom_site_label
 _atom_site_symmetry_multiplicity
 _atom_site_fract_x
 _atom_site_fract_y
 _atom_site_fract_z
 _atom_site_occupancy
  Ti  Ti0  1  0.99368400  0.99368400  0.99368400  1
  Ti  Ti1  1  0.49814000  0.49814000  0.49814000  1
  Ti  Ti2  1  0.14059300  0.14059300  0.14059300  1
  Ti  Ti3  1  0.36177300  0.36177300  0.36177300  1
  Ti  Ti4  1  0.64091300  0.64091300  0.64091300  1
  Nb  Nb0  1  0.86339300  0.86339300  0.86339300  1
  P  P0  1  0.04271000  0.75259300  0.45337100  1
  P  P1  1  0.45337100  0.04271000  0.75259300  1
  P  P2  1  0.25955300  0.53308600  0.95813800  1
  P  P3  1  0.53308600  0.95813800  0.25955300  1
  P  P4  1  0.95813800  0.25955300  0.53308600  1
  P  P5  1  0.75259300  0.45337100  0.04271000  1
  O  O0  1  0.11293700  0.32995400  0.49472100  1
  O  O1  1  0.32995400  0.49472100  0.11293700  1
  O  O2  1  0.05668700  0.90261300  0.25625000  1
  O  O3  1  0.49472100  0.11293700  0.32995400  1
  O  O4  1  0.00791600  0.82488800  0.60686200  1
  O  O5  1  0.23970400  0.59973500  0.44015900  1
  O  O6  1  0.25625000  0.05668700  0.90261300  1
  O  O7  1  0.44015900  0.23970400  0.59973500  1
  O  O8  1  0.18201000  0.38349000  0.99588200  1
  O  O9  1  0.59973500  0.44015900  0.23970400  1
  O  O10  1  0.10797900  0.73138600  0.94331100  1
  O  O11  1  0.38349000  0.99588200  0.18201000  1
  O  O12  1  0.60686200  0.00791600  0.82488800  1
  O  O13  1  0.90261300  0.25625000  0.05668700  1
  O  O14  1  0.40873900  0.55066100  0.76008900  1
  O  O15  1  0.82488800  0.60686200  0.00791600  1
  O  O16  1  0.55066100  0.76008900  0.40873900  1
  O  O17  1  0.73138600  0.94331100  0.10797900  1
  O  O18  1  0.76008900  0.40873900  0.55066100  1
  O  O19  1  0.99588200  0.18201000  0.38349000  1
  O  O20  1  0.50016300  0.88526100  0.68065400  1
  O  O21  1  0.94331100  0.10797900  0.73138600  1
  O  O22  1  0.68065400  0.50016300  0.88526100  1
  O  O23  1  0.88526100  0.68065400  0.50016300  1
loop_
_geom_bond_atom_site_label_1
_geom_bond_atom_site_label_2
_geom_bond_distance
_geom_bond_site_symmetry_2
Nb0 O12 2.047491 1_565
Nb0 O15 2.047491 1_556
Nb0 O4 2.047491 1_655
Nb0 O10 2.114781 1_655
Nb0 O21 2.114781 1_565
Nb0 O17 2.114781 1_556
O0 P4 1.519326 1_455
O0 Ti3 1.966621 1_555
O1 P2 1.519326 1_554
O1 Ti3 1.966621 1_555
O2 P0 1.567699 1_555
O2 Ti2 2.094671 1_565
O2 Ti0 2.224427 1_454
O3 P3 1.519326 1_545
O3 Ti3 1.966621 1_555
O4 P0 1.530648 1_555
O5 P0 1.576145 1_555
O5 Ti3 2.063865 1_555
O5 Ti1 2.153504 1_555
O6 P1 1.567699 1_555
O6 Ti2 2.094671 1_556
O6 Ti0 2.224427 1_445
O7 P1 1.576145 1_555
O7 Ti3 2.063866 1_555
O7 Ti1 2.153504 1_555
O8 P2 1.521983 1_555
O8 Ti2 1.958234 1_556
O9 P5 1.576145 1_555
O9 Ti3 2.063865 1_555
O9 Ti1 2.153504 1_555
O10 P2 1.578892 1_555
O10 Ti0 2.139081 1_455
O11 P3 1.521984 1_555
O11 Ti2 1.958234 1_565
O12 P1 1.530647 1_555
O13 P5 1.567699 1_555
O13 Ti2 2.094671 1_655
O13 Ti0 2.224427 1_544
O14 P2 1.569392 1_555
O14 Ti4 2.077827 1_555
O14 Ti1 2.176637 1_555
O15 P5 1.530647 1_555
O16 P3 1.569392 1_555
O16 Ti4 2.077827 1_555
O16 Ti1 2.176637 1_555
O17 P3 1.578892 1_555
O17 Ti0 2.139081 1_554
O18 P4 1.569392 1_555
O18 Ti4 2.077827 1_555
O18 Ti1 2.176637 1_555
O19 P4 1.521984 1_555
O19 Ti2 1.958234 1_655
O20 P1 1.525739 1_565
O20 Ti4 1.961207 1_555
O21 P4 1.578892 1_555
O21 Ti0 2.139081 1_545
O22 P5 1.525739 1_556
O22 Ti4 1.961207 1_555
O23 P0 1.525738 1_655
O23 Ti4 1.961207 1_555
