# generated using pymatgen
data_V5Sn(PO4)6
_symmetry_space_group_name_H-M   'P 1'
_cell_length_a   8.66091268
_cell_length_b   8.66091268
_cell_length_c   8.66091282
_cell_angle_alpha   60.35909784
_cell_angle_beta   60.35909784
_cell_angle_gamma   60.35910204
_symmetry_Int_Tables_number   1
_chemical_formula_structural   V5Sn(PO4)6
_chemical_formula_sum   'V5 Sn1 P6 O24'
_cell_volume   463.11572650
_cell_formula_units_Z   1
loop_
 _symmetry_equiv_pos_site_id
 _symmetry_equiv_pos_as_xyz
  1  'x, y, z'
loop_
 _atom_site_type_symbol
 _atom_site_label
 _atom_site_symmetry_multiplicity
 _atom_site_fract_x
 _atom_site_fract_y
 _atom_site_fract_z
 _atom_site_occupancy
  V  V0  1  0.00241300  0.00241300  0.00241300  1
  V  V1  1  0.35553700  0.35553700  0.35553700  1
  V  V2  1  0.49976300  0.49976300  0.49976300  1
  V  V3  1  0.14378100  0.14378100  0.14378100  1
  V  V4  1  0.64231400  0.64231400  0.64231400  1
  Sn  Sn0  1  0.85548500  0.85548500  0.85548500  1
  P  P0  1  0.45210000  0.74766700  0.04584400  1
  P  P1  1  0.74766700  0.04584400  0.45210000  1
  P  P2  1  0.04584400  0.45210000  0.74766700  1
  P  P3  1  0.95670700  0.54037400  0.25316000  1
  P  P4  1  0.25316000  0.95670700  0.54037400  1
  P  P5  1  0.54037400  0.25316000  0.95670700  1
  O  O0  1  0.68823400  0.88689400  0.49615300  1
  O  O1  1  0.88689400  0.49615300  0.68823400  1
  O  O2  1  0.49615300  0.68823400  0.88689400  1
  O  O3  1  0.25833800  0.91027600  0.06157900  1
  O  O4  1  0.60615200  0.81107000  0.01671200  1
  O  O5  1  0.43555100  0.58807000  0.24163500  1
  O  O6  1  0.91027600  0.06157900  0.25833800  1
  O  O7  1  0.58807000  0.24163500  0.43555100  1
  O  O8  1  0.99474100  0.38799700  0.18611000  1
  O  O9  1  0.24163500  0.43555100  0.58807000  1
  O  O10  1  0.94331200  0.73971900  0.09119400  1
  O  O11  1  0.18611000  0.99474100  0.38799700  1
  O  O12  1  0.81107000  0.01671200  0.60615200  1
  O  O13  1  0.06157900  0.25833800  0.91027600  1
  O  O14  1  0.75945900  0.56006100  0.41021100  1
  O  O15  1  0.01671200  0.60615200  0.81107000  1
  O  O16  1  0.41021100  0.75945900  0.56006100  1
  O  O17  1  0.09119400  0.94331200  0.73971900  1
  O  O18  1  0.56006100  0.41021100  0.75945900  1
  O  O19  1  0.38799700  0.18611000  0.99474100  1
  O  O20  1  0.73971900  0.09119400  0.94331200  1
  O  O21  1  0.50273500  0.31688700  0.11179100  1
  O  O22  1  0.11179100  0.50273500  0.31688700  1
  O  O23  1  0.31688700  0.11179100  0.50273500  1
loop_
_geom_bond_atom_site_label_1
_geom_bond_atom_site_label_2
_geom_bond_distance
_geom_bond_site_symmetry_2
O0 P1 1.514209 1_565
O0 V4 1.982612 1_555
O1 P2 1.514209 1_655
O1 V4 1.982612 1_555
O2 P0 1.514209 1_556
O2 V4 1.982612 1_555
O3 P0 1.563369 1_555
O3 V3 2.078940 1_565
O3 V0 2.186756 1_565
O4 P0 1.549209 1_555
O4 Sn0 2.017127 1_554
O5 P0 1.563262 1_555
O5 V1 2.061197 1_555
O5 V2 2.238318 1_555
O6 P1 1.563369 1_555
O6 V3 2.078939 1_655
O6 V0 2.186756 1_655
O7 P1 1.563262 1_555
O7 V1 2.061197 1_555
O7 V2 2.238318 1_555
O8 P3 1.525203 1_555
O8 V3 1.967932 1_655
O9 P2 1.563262 1_555
O9 V1 2.061197 1_555
O9 V2 2.238318 1_555
O10 P3 1.590395 1_555
O10 Sn0 2.123309 1_554
O10 V0 2.249857 1_665
O11 P4 1.525203 1_555
O11 V3 1.967932 1_565
O12 P1 1.549209 1_555
O12 Sn0 2.017127 1_545
O13 P2 1.563369 1_555
O13 V3 2.078940 1_556
O13 V0 2.186756 1_556
O14 P3 1.562221 1_555
O14 V4 2.064481 1_555
O14 V2 2.229101 1_555
O15 P2 1.549209 1_555
O15 Sn0 2.017127 1_455
O16 P4 1.562221 1_555
O16 V4 2.064481 1_555
O16 V2 2.229101 1_555
O17 P4 1.590395 1_555
O17 Sn0 2.123309 1_455
O17 V0 2.249857 1_566
O18 P5 1.562221 1_555
O18 V4 2.064481 1_555
O18 V2 2.229101 1_555
O19 P5 1.525203 1_555
O19 V3 1.967932 1_556
O20 P5 1.590395 1_555
O20 Sn0 2.123309 1_545
O20 V0 2.249857 1_656
O21 P5 1.528796 1_554
O21 V1 1.951599 1_555
O22 P3 1.528796 1_455
O22 V1 1.951599 1_555
O23 P4 1.528796 1_545
O23 V1 1.951599 1_555
