# generated using pymatgen
data_Li3CrO4
_symmetry_space_group_name_H-M   'P 1'
_cell_length_a   6.28808689
_cell_length_b   5.35858908
_cell_length_c   4.90448202
_cell_angle_alpha   90.00651873
_cell_angle_beta   89.99942904
_cell_angle_gamma   89.99985481
_symmetry_Int_Tables_number   1
_chemical_formula_structural   Li3CrO4
_chemical_formula_sum   'Li6 Cr2 O8'
_cell_volume   165.25786311
_cell_formula_units_Z   2
loop_
 _symmetry_equiv_pos_site_id
 _symmetry_equiv_pos_as_xyz
  1  'x, y, z'
loop_
 _atom_site_type_symbol
 _atom_site_label
 _atom_site_symmetry_multiplicity
 _atom_site_fract_x
 _atom_site_fract_y
 _atom_site_fract_z
 _atom_site_occupancy
  Li  Li0  1  0.00000800  0.15758071  0.48819571  1
  Li  Li1  1  0.24651640  0.33463462  0.99057380  1
  Li  Li2  1  0.25340835  0.66544235  0.49062324  1
  Li  Li3  1  0.50000707  0.84234194  0.98820078  1
  Li  Li4  1  0.74658983  0.66542192  0.49061720  1
  Li  Li5  1  0.75347895  0.33460909  0.99059102  1
  Cr  Cr0  1  -0.00001391  0.82997391  0.99867224  1
  Cr  Cr1  1  0.50000530  0.17002913  0.49863114  1
  O  O0  1  0.99999583  0.13215275  0.88847907  1
  O  O1  1  0.99999397  0.81712703  0.34609443  1
  O  O2  1  0.22705453  0.68656926  0.89109756  1
  O  O3  1  0.27288686  0.31348085  0.39104418  1
  O  O4  1  0.49999600  0.18288086  0.84608325  1
  O  O5  1  0.49999859  0.86780500  0.38842692  1
  O  O6  1  0.72712136  0.31343503  0.39104962  1
  O  O7  1  0.77295386  0.68651556  0.89108883  1
loop_
_geom_bond_atom_site_label_1
_geom_bond_atom_site_label_2
_geom_bond_distance
_geom_bond_site_symmetry_2
Li0 O1 1.952866 1_445
Li0 O6 1.966985 1_455
Li0 O3 1.967048 1_555
Li0 O0 1.967921 1_455
Li1 O4 1.924531 1_555
Li1 O2 1.951853 1_555
Li1 O0 1.957250 1_455
Li1 O3 1.974358 1_556
Li2 O1 1.924184 1_455
Li2 O3 1.952017 1_555
Li2 O5 1.957426 1_555
Li2 O2 1.974331 1_555
Li3 O4 1.953469 1_565
Li3 O2 1.967067 1_555
Li3 O7 1.967156 1_555
Li3 O5 1.967623 1_556
Li4 O1 1.924158 1_555
Li4 O6 1.952131 1_555
Li4 O5 1.957487 1_555
Li4 O7 1.974317 1_555
Li5 O4 1.924537 1_555
Li5 O7 1.951744 1_555
Li5 O0 1.957165 1_555
Li5 O6 1.974297 1_556
Cr0 O7 1.705087 1_455
Cr0 O2 1.705123 1_555
Cr0 O1 1.705324 1_456
Cr0 O0 1.707118 1_465
Cr1 O6 1.705444 1_555
Cr1 O4 1.705456 1_555
Cr1 O3 1.705581 1_555
Cr1 O5 1.707249 1_545
