# generated using pymatgen
data_Li11V12(OF)24
_symmetry_space_group_name_H-M   'P 1'
_cell_length_a   4.89196300
_cell_length_b   7.84465417
_cell_length_c   22.23519397
_cell_angle_alpha   84.44737481
_cell_angle_beta   89.32415255
_cell_angle_gamma   89.06380848
_symmetry_Int_Tables_number   1
_chemical_formula_structural   Li11V12(OF)24
_chemical_formula_sum   'Li11 V12 O24 F24'
_cell_volume   849.13045461
_cell_formula_units_Z   1
loop_
 _symmetry_equiv_pos_site_id
 _symmetry_equiv_pos_as_xyz
  1  'x, y, z'
loop_
 _atom_site_type_symbol
 _atom_site_label
 _atom_site_symmetry_multiplicity
 _atom_site_fract_x
 _atom_site_fract_y
 _atom_site_fract_z
 _atom_site_occupancy
  Li  Li0  1  0.75995000  0.97474000  0.87590400  1
  Li  Li1  1  0.24989900  0.36257300  0.79068300  1
  Li  Li2  1  0.24714400  0.86791100  0.80134300  1
  Li  Li3  1  0.22218500  0.77149600  0.69411100  1
  Li  Li4  1  0.75432100  0.30792300  0.54308100  1
  Li  Li5  1  0.25240700  0.20146900  0.46828600  1
  Li  Li6  1  0.25115000  0.69525800  0.45704300  1
  Li  Li7  1  0.22126200  0.10905600  0.36021400  1
  Li  Li8  1  0.75827300  0.63589000  0.20777900  1
  Li  Li9  1  0.24534700  0.02881000  0.12493300  1
  Li  Li10  1  0.21487400  0.46025800  0.04387400  1
  V  V0  1  0.22753900  0.21136200  0.94059300  1
  V  V1  1  0.27373100  0.71802500  0.94485400  1
  V  V2  1  0.76987200  0.12182800  0.71979900  1
  V  V3  1  0.71666600  0.60909400  0.71941600  1
  V  V4  1  0.27097300  0.05261500  0.61280200  1
  V  V5  1  0.22059900  0.54227400  0.60755300  1
  V  V6  1  0.77457300  0.45357400  0.38723200  1
  V  V7  1  0.71708000  0.94255300  0.38611500  1
  V  V8  1  0.27535600  0.38770700  0.27535900  1
  V  V9  1  0.22018400  0.87420300  0.27393800  1
  V  V10  1  0.72314800  0.27380700  0.05531700  1
  V  V11  1  0.76847400  0.79070800  0.05617200  1
  O  O0  1  0.96216900  0.30215300  0.98896000  1
  O  O1  1  0.10632300  0.01848200  0.93885600  1
  O  O2  1  0.55400500  0.80415200  0.98886900  1
  O  O3  1  0.37186100  0.51903500  0.94191100  1
  O  O4  1  0.89259400  0.31408000  0.72631200  1
  O  O5  1  0.06371100  0.01533300  0.68086800  1
  O  O6  1  0.59633700  0.80693300  0.72717400  1
  O  O7  1  0.44754300  0.53139800  0.67676500  1
  O  O8  1  0.56199400  0.14549500  0.65516000  1
  O  O9  1  0.95475800  0.63789500  0.65379700  1
  O  O10  1  0.10212700  0.34868800  0.60679600  1
  O  O11  1  0.37613700  0.85533300  0.60818100  1
  O  O12  1  0.59557300  0.14025600  0.39405300  1
  O  O13  1  0.89258300  0.64785400  0.39304200  1
  O  O14  1  0.06065700  0.35359400  0.34703200  1
  O  O15  1  0.44777700  0.86494300  0.34333200  1
  O  O16  1  0.55531900  0.47344600  0.32343500  1
  O  O17  1  0.37578600  0.18836000  0.27369400  1
  O  O18  1  0.95541100  0.97140500  0.32080700  1
  O  O19  1  0.09923500  0.68167100  0.27311300  1
  O  O20  1  0.61650400  0.47325100  0.05990200  1
  O  O21  1  0.45214200  0.19975100  0.00889100  1
  O  O22  1  0.89434000  0.98282300  0.05878300  1
  O  O23  1  0.05338300  0.68895900  0.01249300  1
  F  F0  1  0.55423500  0.18139700  0.89808700  1
  F  F1  1  0.97405400  0.73668500  0.89435100  1
  F  F2  1  0.09273100  0.31855900  0.86929900  1
  F  F3  1  0.44688400  0.83120200  0.87298900  1
  F  F4  1  0.58355000  0.49812000  0.79119600  1
  F  F5  1  0.45426000  0.12351900  0.77050300  1
  F  F6  1  0.92238100  0.00442600  0.79452300  1
  F  F7  1  0.06099900  0.64584300  0.76459000  1
  F  F8  1  0.97154000  0.06788300  0.56274900  1
  F  F9  1  0.54930300  0.51507400  0.56551600  1
  F  F10  1  0.44277400  0.16645500  0.54052100  1
  F  F11  1  0.09189100  0.64961600  0.53569600  1
  F  F12  1  0.92554800  0.33689800  0.46200400  1
  F  F13  1  0.58406700  0.83125400  0.45776000  1
  F  F14  1  0.45726300  0.45536100  0.43839800  1
  F  F15  1  0.06076200  0.98004700  0.43128500  1
  F  F16  1  0.96181500  0.39466000  0.23147500  1
  F  F17  1  0.08737000  0.98294000  0.20315700  1
  F  F18  1  0.54726100  0.84710900  0.23210800  1
  F  F19  1  0.44255800  0.49722500  0.20812100  1
  F  F20  1  0.57184600  0.16538300  0.12464200  1
  F  F21  1  0.90674700  0.67784300  0.12697100  1
  F  F22  1  0.05414300  0.28336500  0.09951700  1
  F  F23  1  0.44731900  0.81555900  0.10076400  1
loop_
_geom_bond_atom_site_label_1
_geom_bond_atom_site_label_2
_geom_bond_distance
_geom_bond_site_symmetry_2
Li0 O1 2.261877 1_665
Li1 O4 2.331242 1_455
Li2 O6 2.434366 1_555
Li3 O9 1.966648 1_455
Li3 O6 2.013901 1_555
Li3 O5 2.048051 1_565
Li3 O11 2.095103 1_555
Li3 O7 2.230326 1_555
Li4 O10 2.273018 1_655
Li5 O12 2.415556 1_555
Li6 O13 2.328711 1_455
Li7 O18 1.970038 1_445
Li7 O12 2.015392 1_555
Li7 O14 2.056818 1_555
Li7 O17 2.099730 1_555
Li7 O15 2.257412 1_545
Li8 O19 2.280174 1_655
Li9 O22 2.329067 1_445
Li10 O20 2.006931 1_555
Li10 O23 2.013490 1_555
Li10 O0 2.221761 1_454
Li10 O3 2.389692 1_554
Li10 O21 2.517410 1_555
O0 V0 1.853161 1_655
O0 V10 1.870282 1_556
O1 V0 1.638198 1_555
O1 V1 2.474369 1_545
O2 V11 1.831466 1_556
O2 V1 1.866569 1_555
O3 V1 1.632793 1_555
O4 V2 1.652216 1_555
O4 V3 2.447338 1_555
O5 V4 1.814376 1_555
O5 V2 1.893373 1_455
O6 V3 1.674651 1_555
O7 V3 1.780919 1_555
O7 V5 1.902622 1_555
O8 V2 1.763805 1_555
O8 V4 1.908686 1_555
O9 V5 1.843110 1_655
O9 V3 1.855048 1_555
O10 V5 1.635941 1_555
O10 V4 2.444260 1_555
O11 V4 1.635184 1_565
O12 V7 1.676358 1_545
O12 V6 2.612657 1_555
O13 V6 1.655698 1_555
O13 V7 2.444313 1_555
O14 V6 1.855543 1_455
O14 V8 1.897807 1_555
O15 V7 1.782994 1_555
O15 V9 1.908375 1_555
O16 V6 1.781747 1_555
O16 V8 1.916923 1_555
O17 V8 1.635210 1_555
O18 V7 1.850498 1_555
O18 V9 1.853335 1_655
O19 V9 1.632908 1_555
O19 V8 2.444680 1_555
O20 V10 1.653294 1_555
O21 V10 1.825992 1_555
O21 V0 1.879116 1_554
O22 V11 1.643737 1_555
O22 V10 2.413063 1_565
O23 V1 1.838279 1_554
O23 V11 1.898594 1_455
F0 V0 1.870241 1_555
F0 Li0 1.993461 1_545
F1 V1 1.852465 1_655
F1 Li0 2.133226 1_555
F2 V0 1.844885 1_555
F2 Li1 1.904253 1_555
F3 Li2 1.874644 1_555
F3 Li0 1.921047 1_555
F3 V1 1.943513 1_555
F4 V3 1.858600 1_555
F4 Li1 1.963258 1_555
F5 V2 1.901635 1_555
F5 Li1 2.192833 1_555
F5 Li2 2.302471 1_545
F6 Li2 1.900676 1_645
F6 Li0 1.962289 1_545
F6 V2 1.968775 1_555
F7 Li3 1.935596 1_555
F7 V3 2.010292 1_455
F7 Li2 2.208318 1_555
F7 Li1 2.413417 1_555
F8 V4 1.845424 1_655
F8 Li4 2.156953 1_555
F9 V5 1.869976 1_555
F9 Li4 1.996814 1_555
F10 Li5 1.861184 1_555
F10 Li4 1.904514 1_555
F10 V4 1.949821 1_555
F11 V5 1.845093 1_555
F11 Li6 1.910366 1_555
F12 Li5 1.904199 1_655
F12 V6 1.964625 1_555
F12 Li4 1.973462 1_555
F13 V7 1.856996 1_555
F13 Li6 1.962519 1_555
F14 V6 1.914361 1_555
F14 Li6 2.192996 1_555
F14 Li5 2.281702 1_555
F15 Li7 1.955802 1_565
F15 V7 2.008761 1_455
F15 Li5 2.218305 1_565
F15 Li6 2.425598 1_555
F16 V8 1.824832 1_655
F16 Li8 2.146618 1_555
F17 V9 1.836548 1_555
F17 Li9 1.899537 1_565
F18 V9 1.860765 1_555
F18 Li8 2.051353 1_555
F19 V8 1.840615 1_555
F19 Li8 1.903081 1_555
F20 V10 1.840460 1_555
F20 Li9 1.937349 1_555
F21 V11 1.858893 1_555
F21 Li8 1.930513 1_555
F22 V10 1.910271 1_455
F22 Li10 1.937800 1_555
F22 Li9 2.216961 1_555
F23 V11 1.865486 1_555
F23 Li9 2.042300 1_565
