# generated using pymatgen
data_Rb3ClO
_symmetry_space_group_name_H-M   'P 1'
_cell_length_a   7.74588013
_cell_length_b   7.74588013
_cell_length_c   19.74094400
_cell_angle_alpha   90.00000000
_cell_angle_beta   90.00000000
_cell_angle_gamma   120.00000108
_symmetry_Int_Tables_number   1
_chemical_formula_structural   Rb3ClO
_chemical_formula_sum   'Rb18 Cl6 O6'
_cell_volume   1025.74660157
_cell_formula_units_Z   6
loop_
 _symmetry_equiv_pos_site_id
 _symmetry_equiv_pos_as_xyz
  1  'x, y, z'
loop_
 _atom_site_type_symbol
 _atom_site_label
 _atom_site_symmetry_multiplicity
 _atom_site_fract_x
 _atom_site_fract_y
 _atom_site_fract_z
 _atom_site_occupancy
  Rb  Rb0  1  0.16572700  0.83427300  0.91770900  1
  Rb  Rb1  1  0.16572700  0.83427300  0.58229100  1
  Rb  Rb2  1  0.02761800  0.51380900  0.75000000  1
  Rb  Rb3  1  0.16572700  0.33145500  0.58229100  1
  Rb  Rb4  1  0.16572700  0.33145500  0.91770900  1
  Rb  Rb5  1  0.48619100  0.97238200  0.75000000  1
  Rb  Rb6  1  0.48619100  0.51380900  0.75000000  1
  Rb  Rb7  1  0.33145500  0.16572700  0.08229100  1
  Rb  Rb8  1  0.33145500  0.16572700  0.41770900  1
  Rb  Rb9  1  0.66854500  0.83427300  0.91770900  1
  Rb  Rb10  1  0.66854500  0.83427300  0.58229100  1
  Rb  Rb11  1  0.51380900  0.48619100  0.25000000  1
  Rb  Rb12  1  0.51380900  0.02761800  0.25000000  1
  Rb  Rb13  1  0.83427300  0.66854500  0.08229100  1
  Rb  Rb14  1  0.83427300  0.66854500  0.41770900  1
  Rb  Rb15  1  0.97238200  0.48619100  0.25000000  1
  Rb  Rb16  1  0.83427300  0.16572700  0.08229100  1
  Rb  Rb17  1  0.83427300  0.16572700  0.41770900  1
  Cl  Cl0  1  0.33333300  0.66666700  0.08898700  1
  Cl  Cl1  1  0.00000000  0.00000000  0.25000000  1
  Cl  Cl2  1  0.33333300  0.66666700  0.41101300  1
  Cl  Cl3  1  0.00000000  0.00000000  0.75000000  1
  Cl  Cl4  1  0.66666700  0.33333300  0.58898700  1
  Cl  Cl5  1  0.66666700  0.33333300  0.91101300  1
  O  O0  1  0.33333300  0.66666700  0.83957600  1
  O  O1  1  0.00000000  0.00000000  0.00000000  1
  O  O2  1  0.00000000  0.00000000  0.50000000  1
  O  O3  1  0.33333300  0.66666700  0.66042400  1
  O  O4  1  0.66666700  0.33333300  0.33957600  1
  O  O5  1  0.66666700  0.33333300  0.16042400  1
loop_
_geom_bond_atom_site_label_1
_geom_bond_atom_site_label_2
_geom_bond_distance
_geom_bond_site_symmetry_2
Cl0 Rb7 3.875208 1_565
Cl0 Rb13 3.875208 1_455
Cl0 Rb16 3.875216 1_565
Cl0 Rb16 3.875216 1_455
Cl0 Rb13 3.875223 1_555
Cl0 Rb7 3.875223 1_555
Cl1 Rb11 3.877369 1_555
Cl1 Rb11 3.877369 1_445
Cl1 Rb15 3.877369 1_445
Cl1 Rb12 3.877369 1_555
Cl1 Rb15 3.877369 1_455
Cl1 Rb12 3.877369 1_455
Cl1 Rb16 3.988061 1_455
Cl1 Rb17 3.988061 1_455
Cl1 Rb8 3.988064 1_555
Cl1 Rb7 3.988064 1_555
Cl1 Rb14 3.988064 1_445
Cl1 Rb13 3.988064 1_445
Cl2 Rb8 3.875208 1_565
Cl2 Rb14 3.875208 1_455
Cl2 Rb17 3.875216 1_565
Cl2 Rb17 3.875216 1_455
Cl2 Rb14 3.875223 1_555
Cl2 Rb8 3.875223 1_555
Cl3 Rb6 3.877369 1_555
Cl3 Rb6 3.877369 1_445
Cl3 Rb2 3.877369 1_555
Cl3 Rb5 3.877369 1_445
Cl3 Rb5 3.877369 1_545
Cl3 Rb2 3.877369 1_545
Cl3 Rb0 3.988061 1_545
Cl3 Rb1 3.988061 1_545
Cl3 Rb4 3.988064 1_555
Cl3 Rb9 3.988064 1_445
Cl3 Rb3 3.988064 1_555
Cl3 Rb10 3.988064 1_445
Cl4 Rb3 3.875208 1_655
Cl4 Rb10 3.875208 1_545
Cl4 Rb1 3.875216 1_655
Cl4 Rb1 3.875216 1_545
Cl4 Rb10 3.875223 1_555
Cl4 Rb3 3.875223 1_555
Cl5 Rb4 3.875208 1_655
Cl5 Rb9 3.875208 1_545
Cl5 Rb0 3.875216 1_655
Cl5 Rb0 3.875216 1_545
Cl5 Rb9 3.875223 1_555
Cl5 Rb4 3.875223 1_555
O0 Rb5 2.707881 1_555
O0 Rb2 2.707881 1_555
O0 Rb6 2.707886 1_555
O0 Rb9 2.726804 1_555
O0 Rb4 2.726804 1_555
O0 Rb0 2.726804 1_555
O1 Rb0 2.753666 1_544
O1 Rb16 2.753666 1_455
O1 Rb7 2.753671 1_555
O1 Rb4 2.753671 1_554
O1 Rb9 2.753671 1_444
O1 Rb13 2.753671 1_445
O2 Rb1 2.753666 1_545
O2 Rb17 2.753666 1_455
O2 Rb10 2.753671 1_445
O2 Rb8 2.753671 1_555
O2 Rb3 2.753671 1_555
O2 Rb14 2.753671 1_445
O3 Rb5 2.707881 1_555
O3 Rb2 2.707881 1_555
O3 Rb6 2.707886 1_555
O3 Rb10 2.726804 1_555
O3 Rb3 2.726804 1_555
O3 Rb1 2.726804 1_555
O4 Rb15 2.707881 1_555
O4 Rb12 2.707881 1_555
O4 Rb11 2.707886 1_555
O4 Rb14 2.726804 1_555
O4 Rb8 2.726804 1_555
O4 Rb17 2.726804 1_555
O5 Rb15 2.707881 1_555
O5 Rb12 2.707881 1_555
O5 Rb11 2.707886 1_555
O5 Rb7 2.726804 1_555
O5 Rb13 2.726804 1_555
O5 Rb16 2.726804 1_555
