# generated using pymatgen
data_Li9Fe3(OF7)2
_symmetry_space_group_name_H-M   'P 1'
_cell_length_a   5.93126600
_cell_length_b   5.99153582
_cell_length_c   10.30861574
_cell_angle_alpha   90.79282769
_cell_angle_beta   106.13012908
_cell_angle_gamma   119.53694136
_symmetry_Int_Tables_number   1
_chemical_formula_structural   Li9Fe3(OF7)2
_chemical_formula_sum   'Li9 Fe3 O2 F14'
_cell_volume   301.15854685
_cell_formula_units_Z   1
loop_
 _symmetry_equiv_pos_site_id
 _symmetry_equiv_pos_as_xyz
  1  'x, y, z'
loop_
 _atom_site_type_symbol
 _atom_site_label
 _atom_site_symmetry_multiplicity
 _atom_site_fract_x
 _atom_site_fract_y
 _atom_site_fract_z
 _atom_site_occupancy
  Li  Li0  1  0.97136100  0.23092000  0.74135600  1
  Li  Li1  1  0.00000000  0.50000000  0.00000000  1
  Li  Li2  1  0.63659200  0.58855000  0.69289500  1
  Li  Li3  1  0.36340800  0.41145000  0.30710500  1
  Li  Li4  1  0.37891000  0.92171900  0.80821200  1
  Li  Li5  1  0.62109000  0.07828100  0.19178800  1
  Li  Li6  1  0.50000000  0.00000000  0.50000000  1
  Li  Li7  1  0.02863900  0.76908000  0.25864400  1
  Li  Li8  1  0.00000000  0.00000000  0.50000000  1
  Fe  Fe0  1  0.50000000  0.50000000  0.00000000  1
  Fe  Fe1  1  0.00000000  0.00000000  0.00000000  1
  Fe  Fe2  1  0.00000000  0.50000000  0.50000000  1
  O  O0  1  0.24711600  0.35023400  0.10088900  1
  O  O1  1  0.75288400  0.64976600  0.89911100  1
  F  F0  1  0.24503800  0.12887600  0.87277600  1
  F  F1  1  0.75599400  0.39880100  0.12181500  1
  F  F2  1  0.22972500  0.86930300  0.12079100  1
  F  F3  1  0.77027500  0.13069700  0.87920900  1
  F  F4  1  0.24400600  0.60119900  0.87818500  1
  F  F5  1  0.75496200  0.87112400  0.12722400  1
  F  F6  1  0.76732300  0.38012100  0.61744200  1
  F  F7  1  0.76853500  0.14760700  0.38876800  1
  F  F8  1  0.22294600  0.37780400  0.61700000  1
  F  F9  1  0.75561800  0.90103200  0.61653700  1
  F  F10  1  0.24438200  0.09896800  0.38346300  1
  F  F11  1  0.77705400  0.62219600  0.38300000  1
  F  F12  1  0.23146500  0.85239300  0.61123200  1
  F  F13  1  0.23267700  0.61987900  0.38255800  1
loop_
_geom_bond_atom_site_label_1
_geom_bond_atom_site_label_2
_geom_bond_distance
_geom_bond_site_symmetry_2
Li1 O0 2.123853 1_555
Li1 O1 2.123853 1_454
Li2 O1 2.010866 1_555
Li3 O0 2.010866 1_555
Fe0 O0 1.924105 1_555
Fe0 O1 1.924105 1_554
Fe1 O0 1.921837 1_555
Fe1 O1 1.921837 1_444
F0 Li4 1.963799 1_545
F0 Fe1 2.099820 1_556
F0 Fe0 2.110254 1_556
F0 Li0 2.150271 1_455
F1 Li5 1.921586 1_555
F1 Fe0 2.029618 1_555
F1 Li1 2.050556 1_655
F1 Li7 2.152963 1_655
F2 Li5 1.912261 1_565
F2 Li7 2.015386 1_555
F2 Fe1 2.038762 1_565
F2 Li1 2.076409 1_555
F3 Li4 1.912261 1_545
F3 Li0 2.015386 1_555
F3 Fe1 2.038762 1_656
F3 Li1 2.076409 1_656
F4 Li4 1.921586 1_555
F4 Fe0 2.029618 1_556
F4 Li1 2.050556 1_556
F4 Li0 2.152963 1_455
F5 Li5 1.963799 1_565
F5 Fe1 2.099820 1_665
F5 Fe0 2.110254 1_555
F5 Li7 2.150271 1_655
F6 Fe2 1.965015 1_655
F6 Li2 2.007174 1_555
F6 Li0 2.033408 1_555
F6 Li6 2.112675 1_555
F7 Li5 1.921569 1_555
F7 Fe2 1.964133 1_655
F7 Li6 2.070701 1_555
F7 Li8 2.081406 1_655
F8 Fe2 1.957589 1_555
F8 Li2 2.019286 1_555
F8 Li8 2.101014 1_555
F8 Li0 2.108054 1_455
F9 Li2 1.915633 1_555
F9 Li0 1.928931 1_565
F9 Li6 1.996893 1_565
F9 Li8 2.008898 1_665
F10 Li3 1.915633 1_555
F10 Li7 1.928931 1_545
F10 Li6 1.996893 1_555
F10 Li8 2.008898 1_555
F11 Fe2 1.957589 1_655
F11 Li3 2.019286 1_555
F11 Li8 2.101014 1_665
F11 Li7 2.108054 1_655
F12 Li4 1.921569 1_555
F12 Fe2 1.964133 1_555
F12 Li6 2.070701 1_565
F12 Li8 2.081406 1_565
F13 Fe2 1.965015 1_555
F13 Li3 2.007174 1_555
F13 Li7 2.033408 1_555
F13 Li6 2.112675 1_565
