# generated using pymatgen
data_Li3MnPCO7
_symmetry_space_group_name_H-M   'P 1'
_cell_length_a   6.52930566
_cell_length_b   8.58491993
_cell_length_c   10.58580534
_cell_angle_alpha   95.28852314
_cell_angle_beta   93.76960317
_cell_angle_gamma   95.52551576
_symmetry_Int_Tables_number   1
_chemical_formula_structural   Li3MnPCO7
_chemical_formula_sum   'Li12 Mn4 P4 C4 O28'
_cell_volume   586.43169754
_cell_formula_units_Z   4
loop_
 _symmetry_equiv_pos_site_id
 _symmetry_equiv_pos_as_xyz
  1  'x, y, z'
loop_
 _atom_site_type_symbol
 _atom_site_label
 _atom_site_symmetry_multiplicity
 _atom_site_fract_x
 _atom_site_fract_y
 _atom_site_fract_z
 _atom_site_occupancy
  Li  Li0  1  0.75230800  0.12051400  0.10606400  1
  Li  Li1  1  0.75207400  0.12053600  0.60616800  1
  Li  Li2  1  0.14236900  0.87455500  0.02098800  1
  Li  Li3  1  0.14228700  0.87457200  0.52107200  1
  Li  Li4  1  0.41068500  0.74520200  0.20631500  1
  Li  Li5  1  0.41063900  0.74507600  0.70642600  1
  Li  Li6  1  0.48526000  0.24960100  0.42087500  1
  Li  Li7  1  0.48513400  0.24956000  0.92085100  1
  Li  Li8  1  0.92834300  0.75073200  0.25437600  1
  Li  Li9  1  0.92827500  0.75061600  0.75442700  1
  Li  Li10  1  0.96781100  0.24381200  0.37275700  1
  Li  Li11  1  0.96786900  0.24382800  0.87276100  1
  Mn  Mn0  1  0.20831400  0.35330000  0.65526400  1
  Mn  Mn1  1  0.68803500  0.64131700  0.97201200  1
  Mn  Mn2  1  0.20851600  0.35313600  0.15547200  1
  Mn  Mn3  1  0.68775100  0.64174200  0.47163600  1
  P  P0  1  0.70167000  0.41096700  0.20635800  1
  P  P1  1  0.70165700  0.41102800  0.70625500  1
  P  P2  1  0.19467300  0.58370600  0.42086300  1
  P  P3  1  0.19470100  0.58353400  0.92091000  1
  C  C0  1  0.18988500  0.04267400  0.21205300  1
  C  C1  1  0.18983200  0.04260300  0.71206100  1
  C  C2  1  0.70652900  0.95184500  0.41542100  1
  C  C3  1  0.70651400  0.95175100  0.91541200  1
  O  O0  1  0.73830200  0.90217500  0.02743400  1
  O  O1  1  0.73827600  0.90231000  0.52743400  1
  O  O2  1  0.15885800  0.09258400  0.10015000  1
  O  O3  1  0.15887000  0.09257300  0.60016600  1
  O  O4  1  0.52516600  0.31424300  0.11727500  1
  O  O5  1  0.52514300  0.31420600  0.61723200  1
  O  O6  1  0.37131700  0.68024200  0.00990500  1
  O  O7  1  0.37121600  0.68029800  0.50999200  1
  O  O8  1  0.75685700  0.57382100  0.15853600  1
  O  O9  1  0.75677000  0.57383300  0.65838500  1
  O  O10  1  0.13950400  0.42081100  0.46853700  1
  O  O11  1  0.13957500  0.42070400  0.96874200  1
  O  O12  1  0.88869300  0.30967100  0.20202800  1
  O  O13  1  0.88871100  0.30969600  0.70196200  1
  O  O14  1  0.00756700  0.68495000  0.42518900  1
  O  O15  1  0.00759700  0.68479800  0.92523600  1
  O  O16  1  0.17981800  0.89113600  0.21823600  1
  O  O17  1  0.17971600  0.89105300  0.71818300  1
  O  O18  1  0.71610600  0.10330400  0.40890800  1
  O  O19  1  0.71610300  0.10321700  0.90896500  1
  O  O20  1  0.25645000  0.56596900  0.28138800  1
  O  O21  1  0.25626200  0.56571100  0.78141000  1
  O  O22  1  0.63985100  0.42877800  0.34578900  1
  O  O23  1  0.63988800  0.42873300  0.84572200  1
  O  O24  1  0.67035200  0.85053700  0.31620300  1
  O  O25  1  0.67034300  0.85052700  0.81615400  1
  O  O26  1  0.22577600  0.14364400  0.31152200  1
  O  O27  1  0.22570100  0.14350700  0.81157600  1
loop_
_geom_bond_atom_site_label_1
_geom_bond_atom_site_label_2
_geom_bond_distance
_geom_bond_site_symmetry_2
Li0 O12 1.939192 1_555
Li0 O0 1.970792 1_545
Li0 O19 2.074243 1_554
Li0 O4 2.332689 1_555
Li1 O13 1.939030 1_555
Li1 O1 1.970376 1_545
Li1 O18 2.075889 1_555
Li1 O5 2.331283 1_555
Li2 O15 1.938509 1_554
Li2 O2 1.969137 1_565
Li2 O16 2.076364 1_555
Li2 O6 2.344863 1_555
Li3 O14 1.938104 1_555
Li3 O3 1.968639 1_565
Li3 O17 2.074951 1_555
Li3 O7 2.344517 1_555
Li4 O20 2.011354 1_555
Li4 O16 2.053613 1_555
Li4 O24 2.072906 1_555
Li4 O6 2.094839 1_555
Li5 O21 2.012159 1_555
Li5 O17 2.054061 1_555
Li5 O25 2.072599 1_555
Li5 O7 2.094840 1_555
Li6 O22 2.012115 1_555
Li6 O18 2.055635 1_555
Li6 O26 2.071026 1_555
Li6 O5 2.093916 1_555
Li7 O23 2.012800 1_555
Li7 O19 2.056495 1_555
Li7 O27 2.070651 1_555
Li7 O4 2.094738 1_556
Li8 O8 1.956718 1_555
Li8 O14 1.994385 1_655
Li8 O16 2.020330 1_655
Li8 O24 2.078360 1_555
Li9 O9 1.956913 1_555
Li9 O15 1.994613 1_655
Li9 O17 2.020639 1_655
Li9 O25 2.078095 1_555
Li10 O10 1.957594 1_655
Li10 O12 1.993673 1_555
Li10 O18 2.021996 1_555
Li10 O26 2.077593 1_655
Li11 O11 1.957793 1_655
Li11 O13 1.994441 1_555
Li11 O19 2.022943 1_555
Li11 O27 2.077272 1_655
Mn0 O10 2.142310 1_555
Mn0 O21 2.143049 1_555
Mn0 O13 2.181396 1_455
Mn0 O5 2.184592 1_555
Mn0 O3 2.247201 1_555
Mn0 O27 2.561003 1_555
Mn1 O8 2.140269 1_556
Mn1 O23 2.145053 1_555
Mn1 O15 2.181287 1_655
Mn1 O6 2.183214 1_556
Mn1 O0 2.248994 1_556
Mn1 O25 2.553900 1_555
Mn2 O11 2.142673 1_554
Mn2 O20 2.144572 1_555
Mn2 O12 2.182190 1_455
Mn2 O4 2.183468 1_555
Mn2 O2 2.246181 1_555
Mn2 O26 2.556999 1_555
Mn3 O9 2.144053 1_555
Mn3 O22 2.145056 1_555
Mn3 O14 2.181577 1_655
Mn3 O7 2.182476 1_555
Mn3 O1 2.247305 1_555
Mn3 O24 2.547848 1_555
C0 O26 1.294294 1_555
C0 O16 1.304166 1_545
C0 O2 1.306367 1_555
C1 O27 1.294319 1_555
C1 O17 1.304161 1_545
C1 O3 1.306454 1_555
C2 O24 1.294129 1_555
C2 O18 1.304141 1_565
C2 O1 1.306682 1_555
C3 O25 1.294021 1_555
C3 O19 1.304094 1_565
C3 O0 1.306954 1_556
O4 P0 1.560573 1_555
O5 P1 1.560635 1_555
O6 P3 1.560520 1_554
O7 P2 1.560526 1_555
O8 P0 1.548613 1_555
O9 P1 1.548366 1_555
O10 P2 1.548249 1_555
O11 P3 1.548404 1_555
O12 P0 1.566528 1_555
O13 P1 1.566879 1_555
O14 P2 1.566699 1_555
O15 P3 1.566796 1_555
O20 P2 1.553866 1_555
O21 P3 1.553678 1_555
O22 P0 1.553533 1_555
O23 P1 1.553757 1_555
