# generated using pymatgen
data_Li2FeCuO4
_symmetry_space_group_name_H-M   'P 1'
_cell_length_a   2.96692700
_cell_length_b   5.10990600
_cell_length_c   5.15325594
_cell_angle_alpha   70.56622874
_cell_angle_beta   90.00000000
_cell_angle_gamma   90.00000000
_symmetry_Int_Tables_number   1
_chemical_formula_structural   Li2FeCuO4
_chemical_formula_sum   'Li2 Fe1 Cu1 O4'
_cell_volume   73.67590490
_cell_formula_units_Z   1
loop_
 _symmetry_equiv_pos_site_id
 _symmetry_equiv_pos_as_xyz
  1  'x, y, z'
loop_
 _atom_site_type_symbol
 _atom_site_label
 _atom_site_symmetry_multiplicity
 _atom_site_fract_x
 _atom_site_fract_y
 _atom_site_fract_z
 _atom_site_occupancy
  Li  Li0  1  0.00000000  0.00000000  0.00000000  1
  Li  Li1  1  0.50000000  0.50000000  0.00000000  1
  Fe  Fe0  1  0.50000000  0.00000000  0.50000000  1
  Cu  Cu0  1  0.00000000  0.50000000  0.50000000  1
  O  O0  1  0.00000000  0.75670500  0.73305800  1
  O  O1  1  0.50000000  0.25383300  0.73154000  1
  O  O2  1  0.00000000  0.24329500  0.26694200  1
  O  O3  1  0.50000000  0.74616700  0.26846000  1
loop_
_geom_bond_atom_site_label_1
_geom_bond_atom_site_label_2
_geom_bond_distance
_geom_bond_site_symmetry_2
Li0 O0 2.139143 1_544
Li0 O2 2.139143 1_555
Li0 O3 2.145434 1_445
Li0 O3 2.145434 1_545
Li0 O1 2.145434 1_554
Li0 O1 2.145434 1_454
Li1 O0 2.147768 1_654
Li1 O2 2.147768 1_655
Li1 O0 2.147768 1_554
Li1 O2 2.147768 1_555
Li1 O3 2.157360 1_555
Li1 O1 2.157360 1_554
Fe0 O1 2.033694 1_555
Fe0 O3 2.033694 1_545
Fe0 O2 2.048194 1_655
Fe0 O0 2.048194 1_645
Fe0 O2 2.048194 1_555
Fe0 O0 2.048194 1_545
Cu0 O1 2.051315 1_455
Cu0 O1 2.051315 1_555
Cu0 O3 2.051315 1_555
Cu0 O3 2.051315 1_455
Cu0 O0 2.052171 1_555
Cu0 O2 2.052171 1_555
