# generated using pymatgen
data_YbCO3
_symmetry_space_group_name_H-M   'P 1'
_cell_length_a   4.90863500
_cell_length_b   5.67710600
_cell_length_c   7.89878700
_cell_angle_alpha   90.00000000
_cell_angle_beta   90.00000000
_cell_angle_gamma   90.00000000
_symmetry_Int_Tables_number   1
_chemical_formula_structural   YbCO3
_chemical_formula_sum   'Yb4 C4 O12'
_cell_volume   220.11424308
_cell_formula_units_Z   4
loop_
 _symmetry_equiv_pos_site_id
 _symmetry_equiv_pos_as_xyz
  1  'x, y, z'
loop_
 _atom_site_type_symbol
 _atom_site_label
 _atom_site_symmetry_multiplicity
 _atom_site_fract_x
 _atom_site_fract_y
 _atom_site_fract_z
 _atom_site_occupancy
  Yb  Yb0  1  0.75000000  0.74071800  0.41531400  1
  Yb  Yb1  1  0.25000000  0.75928200  0.91531400  1
  Yb  Yb2  1  0.75000000  0.24071800  0.08468600  1
  Yb  Yb3  1  0.25000000  0.25928200  0.58468600  1
  C  C0  1  0.75000000  0.58450600  0.76161500  1
  C  C1  1  0.25000000  0.91549400  0.26161500  1
  C  C2  1  0.75000000  0.08450600  0.73838500  1
  C  C3  1  0.25000000  0.41549400  0.23838500  1
  O  O0  1  0.97710300  0.58551600  0.67775900  1
  O  O1  1  0.52289700  0.58551600  0.67775900  1
  O  O2  1  0.75000000  0.59403300  0.92492900  1
  O  O3  1  0.25000000  0.90596700  0.42492900  1
  O  O4  1  0.02289700  0.91448400  0.17775900  1
  O  O5  1  0.47710300  0.91448400  0.17775900  1
  O  O6  1  0.52289700  0.08551600  0.82224100  1
  O  O7  1  0.97710300  0.08551600  0.82224100  1
  O  O8  1  0.75000000  0.09403300  0.57507100  1
  O  O9  1  0.25000000  0.40596700  0.07507100  1
  O  O10  1  0.47710300  0.41448400  0.32224100  1
  O  O11  1  0.02289700  0.41448400  0.32224100  1
loop_
_geom_bond_atom_site_label_1
_geom_bond_atom_site_label_2
_geom_bond_distance
_geom_bond_site_symmetry_2
C0 O2 1.291116 1_555
C0 O0 1.296710 1_555
C0 O1 1.296710 1_555
C1 O3 1.291116 1_555
C1 O4 1.296710 1_555
C1 O5 1.296710 1_555
C2 O8 1.291116 1_555
C2 O7 1.296710 1_555
C2 O6 1.296710 1_555
C3 O9 1.291116 1_555
C3 O10 1.296710 1_555
C3 O11 1.296710 1_555
O0 Yb3 2.401043 1_655
O0 Yb1 2.507672 1_655
O0 Yb0 2.513236 1_555
O1 Yb3 2.401043 1_555
O1 Yb1 2.507672 1_555
O1 Yb0 2.513236 1_555
O2 Yb2 2.369730 1_556
O2 Yb1 2.628601 1_555
O2 Yb1 2.628601 1_655
O3 Yb3 2.369730 1_565
O3 Yb0 2.628601 1_455
O3 Yb0 2.628601 1_555
O4 Yb2 2.401043 1_465
O4 Yb0 2.507672 1_455
O4 Yb1 2.513236 1_554
O5 Yb2 2.401043 1_565
O5 Yb0 2.507672 1_555
O5 Yb1 2.513236 1_554
O6 Yb1 2.401043 1_545
O6 Yb3 2.507672 1_555
O6 Yb2 2.513236 1_556
O7 Yb1 2.401043 1_645
O7 Yb3 2.507672 1_655
O7 Yb2 2.513236 1_556
O8 Yb0 2.369730 1_545
O8 Yb3 2.628601 1_555
O8 Yb3 2.628601 1_655
O9 Yb1 2.369730 1_554
O9 Yb2 2.628601 1_455
O9 Yb2 2.628601 1_555
O10 Yb0 2.401043 1_555
O10 Yb2 2.507672 1_555
O10 Yb3 2.513236 1_555
O11 Yb0 2.401043 1_455
O11 Yb2 2.507672 1_455
O11 Yb3 2.513236 1_555
