# generated using pymatgen
data_Li4Cr2Fe3O10
_symmetry_space_group_name_H-M   'P 1'
_cell_length_a   5.11496900
_cell_length_b   5.13503036
_cell_length_c   7.82996965
_cell_angle_alpha   72.33638857
_cell_angle_beta   72.04430987
_cell_angle_gamma   80.09595811
_symmetry_Int_Tables_number   1
_chemical_formula_structural   Li4Cr2Fe3O10
_chemical_formula_sum   'Li4 Cr2 Fe3 O10'
_cell_volume   185.71843045
_cell_formula_units_Z   1
loop_
 _symmetry_equiv_pos_site_id
 _symmetry_equiv_pos_as_xyz
  1  'x, y, z'
loop_
 _atom_site_type_symbol
 _atom_site_label
 _atom_site_symmetry_multiplicity
 _atom_site_fract_x
 _atom_site_fract_y
 _atom_site_fract_z
 _atom_site_occupancy
  Li  Li0  1  0.49966200  0.77770700  0.42490400  1
  Li  Li1  1  0.98463100  0.49101900  0.50866100  1
  Li  Li2  1  0.49769000  0.21767200  0.59351800  1
  Li  Li3  1  0.48560900  0.38887800  0.22323000  1
  Cr  Cr0  1  0.00628400  0.88950300  0.68616100  1
  Cr  Cr1  1  0.99909000  0.10277700  0.30513800  1
  Fe  Fe0  1  0.49914800  0.99839600  0.99202600  1
  Fe  Fe1  1  0.99980100  0.68976500  0.11008200  1
  Fe  Fe2  1  0.99403700  0.31380100  0.89165400  1
  O  O0  1  0.23087500  0.96497100  0.85505600  1
  O  O1  1  0.78603900  0.87804600  0.54144700  1
  O  O2  1  0.77479500  0.66727100  0.94156400  1
  O  O3  1  0.25409200  0.77265200  0.22932000  1
  O  O4  1  0.21790300  0.56192100  0.66331400  1
  O  O5  1  0.77008900  0.45454600  0.33674400  1
  O  O6  1  0.76638600  0.20756200  0.76208500  1
  O  O7  1  0.22977500  0.33049000  0.06230500  1
  O  O8  1  0.23139800  0.12676700  0.46120100  1
  O  O9  1  0.75991500  0.05351100  0.14000200  1
loop_
_geom_bond_atom_site_label_1
_geom_bond_atom_site_label_2
_geom_bond_distance
_geom_bond_site_symmetry_2
Li0 O8 2.097392 1_565
Li0 O4 2.103541 1_555
Li0 O5 2.111965 1_555
Li0 O1 2.147778 1_555
Li0 O3 2.268261 1_555
Li0 O9 2.377928 1_565
Li1 O5 2.045918 1_555
Li1 O4 2.080964 1_655
Li1 O1 2.121757 1_555
Li1 O8 2.133143 1_655
Li1 O6 2.177775 1_555
Li1 O3 2.383803 1_655
Li2 O8 2.128099 1_555
Li2 O1 2.135173 1_545
Li2 O6 2.164712 1_555
Li2 O4 2.169190 1_555
Li2 O5 2.198822 1_555
Li2 O0 2.239069 1_545
Li3 O5 2.041840 1_555
Li3 O3 2.123125 1_555
Li3 O8 2.135529 1_555
Li3 O9 2.155247 1_555
Li3 O7 2.184225 1_555
Li3 O2 2.428639 1_554
Cr0 O1 1.845750 1_455
Cr0 O4 1.862829 1_555
Cr0 O8 1.960255 1_565
Cr0 O6 1.994151 1_465
Cr0 O2 2.079281 1_455
Cr0 O0 2.149313 1_555
Cr1 O1 1.958689 1_545
Cr1 O8 1.989290 1_655
Cr1 O5 2.015157 1_555
Cr1 O7 2.029020 1_655
Cr1 O3 2.073666 1_645
Cr1 O9 2.124332 1_555
Fe0 O6 2.019348 1_565
Fe0 O3 2.030747 1_556
Fe0 O0 2.040270 1_555
Fe0 O2 2.067534 1_555
Fe0 O7 2.098347 1_566
Fe0 O9 2.117388 1_566
Fe1 O5 1.972520 1_555
Fe1 O3 1.981147 1_655
Fe1 O2 2.038014 1_554
Fe1 O7 2.080443 1_655
Fe1 O9 2.085476 1_565
Fe1 O0 2.188236 1_654
Fe2 O6 1.991362 1_555
Fe2 O4 1.997072 1_655
Fe2 O0 2.027127 1_645
Fe2 O2 2.040800 1_555
Fe2 O7 2.084494 1_656
Fe2 O9 2.130595 1_556
