# generated using pymatgen
data_Co3(OF2)2
_symmetry_space_group_name_H-M   'P 1'
_cell_length_a   4.73395664
_cell_length_b   4.73395664
_cell_length_c   9.23124582
_cell_angle_alpha   89.18519784
_cell_angle_beta   89.18519784
_cell_angle_gamma   94.47122880
_symmetry_Int_Tables_number   1
_chemical_formula_structural   Co3(OF2)2
_chemical_formula_sum   'Co6 O4 F8'
_cell_volume   206.20056600
_cell_formula_units_Z   2
loop_
 _symmetry_equiv_pos_site_id
 _symmetry_equiv_pos_as_xyz
  1  'x, y, z'
loop_
 _atom_site_type_symbol
 _atom_site_label
 _atom_site_symmetry_multiplicity
 _atom_site_fract_x
 _atom_site_fract_y
 _atom_site_fract_z
 _atom_site_occupancy
  Co  Co0  1  0.00000000  0.00000000  0.00000000  1
  Co  Co1  1  0.03437800  0.03437800  0.33103800  1
  Co  Co2  1  0.96562200  0.96562200  0.66896200  1
  Co  Co3  1  0.50160200  0.50160200  0.15568400  1
  Co  Co4  1  0.49839800  0.49839800  0.84431600  1
  Co  Co5  1  0.50000000  0.50000000  0.50000000  1
  O  O0  1  0.69778600  0.69778600  0.00674000  1
  O  O1  1  0.68306200  0.68306200  0.67530500  1
  O  O2  1  0.30221400  0.30221400  0.99326000  1
  O  O3  1  0.31693800  0.31693800  0.32469500  1
  F  F0  1  0.19844600  0.81159500  0.16781200  1
  F  F1  1  0.18840500  0.80155400  0.83218800  1
  F  F2  1  0.19324900  0.80675100  0.50000000  1
  F  F3  1  0.71927700  0.71927700  0.33011400  1
  F  F4  1  0.28072300  0.28072300  0.66988600  1
  F  F5  1  0.81159500  0.19844600  0.16781200  1
  F  F6  1  0.80155400  0.18840500  0.83218800  1
  F  F7  1  0.80675100  0.19324900  0.50000000  1
loop_
_geom_bond_atom_site_label_1
_geom_bond_atom_site_label_2
_geom_bond_distance
_geom_bond_site_symmetry_2
Co0 O0 1.942498 1_445
Co0 O2 1.942498 1_554
Co0 F0 2.051954 1_545
Co0 F5 2.051954 1_455
Co0 F1 2.051954 1_544
Co0 F6 2.051954 1_454
Co1 O3 1.816175 1_555
Co1 F3 2.025846 1_445
Co1 F5 2.031142 1_455
Co1 F0 2.031142 1_545
Co1 F2 2.066757 1_545
Co1 F7 2.066757 1_455
Co2 O1 1.816175 1_555
Co2 F4 2.025846 1_665
Co2 F6 2.031142 1_565
Co2 F1 2.031142 1_655
Co2 F2 2.066757 1_655
Co2 F7 2.066757 1_565
Co3 O0 1.846186 1_555
Co3 O3 1.940581 1_555
Co3 O2 1.992885 1_554
Co3 F0 2.134041 1_555
Co3 F5 2.134041 1_555
Co3 F3 2.155295 1_555
Co4 O2 1.846186 1_555
Co4 O1 1.940581 1_555
Co4 O0 1.992885 1_556
Co4 F6 2.134041 1_555
Co4 F1 2.134041 1_555
Co4 F4 2.155295 1_555
Co5 O1 2.020776 1_555
Co5 O3 2.020776 1_555
Co5 F4 2.086604 1_555
Co5 F3 2.086604 1_555
Co5 F7 2.132192 1_555
Co5 F2 2.132192 1_555
