# generated using pymatgen
data_Li11Mn6O16
_symmetry_space_group_name_H-M   'P 1'
_cell_length_a   8.23604000
_cell_length_b   8.29073317
_cell_length_c   8.63230905
_cell_angle_alpha   89.54413386
_cell_angle_beta   89.78757731
_cell_angle_gamma   89.88683522
_symmetry_Int_Tables_number   1
_chemical_formula_structural   Li11Mn6O16
_chemical_formula_sum   'Li22 Mn12 O32'
_cell_volume   589.41449599
_cell_formula_units_Z   2
loop_
 _symmetry_equiv_pos_site_id
 _symmetry_equiv_pos_as_xyz
  1  'x, y, z'
loop_
 _atom_site_type_symbol
 _atom_site_label
 _atom_site_symmetry_multiplicity
 _atom_site_fract_x
 _atom_site_fract_y
 _atom_site_fract_z
 _atom_site_occupancy
  Li  Li0  1  0.23582800  0.23981400  0.99503600  1
  Li  Li1  1  0.99877200  0.99186800  0.00865500  1
  Li  Li2  1  0.30835900  0.44143000  0.17848300  1
  Li  Li3  1  0.98074200  0.75753900  0.22789100  1
  Li  Li4  1  0.78394900  0.00489600  0.23264300  1
  Li  Li5  1  0.00480900  0.24988700  0.25095100  1
  Li  Li6  1  0.50600200  0.25865800  0.23345400  1
  Li  Li7  1  0.15343200  0.59260900  0.35053100  1
  Li  Li8  1  0.59259800  0.07882500  0.40799400  1
  Li  Li9  1  0.99057700  0.49239400  0.52612600  1
  Li  Li10  1  0.26657300  0.74331500  0.51738300  1
  Li  Li11  1  0.50375800  0.49724300  0.50567100  1
  Li  Li12  1  0.77514100  0.27431800  0.53731800  1
  Li  Li13  1  0.43854700  0.93958800  0.58787400  1
  Li  Li14  1  0.75344800  0.50372900  0.75316600  1
  Li  Li15  1  0.75554000  0.99889300  0.75561700  1
  Li  Li16  1  0.00668600  0.23706200  0.75437200  1
  Li  Li17  1  0.24273500  0.00246800  0.79218800  1
  Li  Li18  1  0.51355900  0.72840500  0.78829900  1
  Li  Li19  1  0.24973700  0.74245500  0.00681900  1
  Li  Li20  1  0.52222700  0.50393900  0.99361400  1
  Li  Li21  1  0.75691600  0.75287400  0.01017900  1
  Mn  Mn0  1  0.75584900  0.48714700  0.26280700  1
  Mn  Mn1  1  0.50610800  0.74158700  0.24948800  1
  Mn  Mn2  1  0.25688900  0.25261300  0.49470900  1
  Mn  Mn3  1  0.75355600  0.74787800  0.50132300  1
  Mn  Mn4  1  0.25526000  0.50268000  0.75200300  1
  Mn  Mn5  1  0.50320500  0.25292300  0.75484800  1
  Mn  Mn6  1  0.75381300  0.24832500  0.00134700  1
  Mn  Mn7  1  0.50364900  0.99712800  0.00223400  1
  Mn  Mn8  1  0.25311800  0.99569900  0.24621800  1
  Mn  Mn9  1  0.00665300  0.75103100  0.75465100  1
  Mn  Mn10  1  0.00226400  0.49750000  0.00484600  1
  Mn  Mn11  1  0.00753800  0.99435500  0.49591300  1
  O  O0  1  0.74723800  0.01419900  0.00244600  1
  O  O1  1  0.76446700  0.48418200  0.00329700  1
  O  O2  1  0.25831700  0.99791000  0.02341100  1
  O  O3  1  0.51379900  0.74343900  0.02685800  1
  O  O4  1  0.98629400  0.49426900  0.25539600  1
  O  O5  1  0.74920900  0.24724900  0.23101000  1
  O  O6  1  0.49367600  0.98267600  0.23355100  1
  O  O7  1  0.51682200  0.51042200  0.25275100  1
  O  O8  1  0.27226300  0.75643600  0.25419400  1
  O  O9  1  0.74205300  0.74382700  0.26752500  1
  O  O10  1  0.25953800  0.22676700  0.25336200  1
  O  O11  1  0.02210400  0.99423800  0.26348400  1
  O  O12  1  0.75428900  0.51674000  0.50328900  1
  O  O13  1  0.77610900  0.98681100  0.49165300  1
  O  O14  1  0.24423400  0.99361100  0.47736800  1
  O  O15  1  0.51987100  0.75687900  0.48164600  1
  O  O16  1  0.24850100  0.49735600  0.52545200  1
  O  O17  1  0.99406600  0.75723600  0.48873000  1
  O  O18  1  0.01816200  0.22771700  0.50676400  1
  O  O19  1  0.48832700  0.24536500  0.50309700  1
  O  O20  1  0.01282400  0.98221200  0.72453000  1
  O  O21  1  0.76290700  0.75022400  0.72346400  1
  O  O22  1  0.26238400  0.26310400  0.74890000  1
  O  O23  1  0.25351100  0.73710900  0.74865400  1
  O  O24  1  0.48831400  0.49210500  0.75650400  1
  O  O25  1  0.01740400  0.51563000  0.74958800  1
  O  O26  1  0.73973600  0.25288100  0.76947000  1
  O  O27  1  0.49288900  0.01115700  0.78096300  1
  O  O28  1  0.23897000  0.49333900  0.97885300  1
  O  O29  1  0.99553800  0.73639900  0.99977600  1
  O  O30  1  0.51912800  0.25552500  0.00763000  1
  O  O31  1  0.98865500  0.25559800  0.99399300  1
loop_
_geom_bond_atom_site_label_1
_geom_bond_atom_site_label_2
_geom_bond_distance
_geom_bond_site_symmetry_2
Li0 O2 2.026729 1_546
Li0 O31 2.039719 1_455
Li0 O28 2.105640 1_555
Li0 O22 2.142372 1_555
Li0 O10 2.240941 1_556
Li0 O30 2.340137 1_556
Li1 O0 2.080387 1_565
Li1 O29 2.120244 1_554
Li1 O2 2.142594 1_655
Li1 O31 2.190608 1_564
Li1 O11 2.209096 1_655
Li1 O20 2.456889 1_654
Li2 O28 1.864402 1_554
Li2 O7 1.924538 1_555
Li2 O10 1.931181 1_555
Li3 O29 1.981612 1_554
Li3 O9 1.997456 1_555
Li3 O11 2.018541 1_655
Li3 O4 2.194103 1_555
Li3 O17 2.254703 1_555
Li3 O8 2.412521 1_655
Li4 O11 1.982120 1_645
Li4 O0 2.011960 1_555
Li4 O5 2.028939 1_555
Li4 O9 2.210520 1_545
Li4 O13 2.240386 1_545
Li4 O6 2.398129 1_545
Li5 O4 2.032192 1_455
Li5 O10 2.106484 1_555
Li5 O5 2.112964 1_455
Li5 O11 2.125940 1_545
Li5 O18 2.217553 1_555
Li5 O31 2.222742 1_454
Li6 O30 1.952354 1_555
Li6 O5 2.005149 1_555
Li6 O10 2.053946 1_555
Li6 O7 2.097361 1_555
Li6 O6 2.290538 1_545
Li6 O19 2.333393 1_555
Li7 O4 1.804864 1_455
Li7 O8 1.864269 1_555
Li7 O16 1.871923 1_555
Li7 O17 2.239661 1_455
Li8 O19 1.823744 1_555
Li8 O13 1.839186 1_545
Li8 O6 1.896722 1_545
Li9 O25 1.953506 1_655
Li9 O12 1.966591 1_555
Li9 O16 2.124737 1_655
Li9 O18 2.213228 1_655
Li9 O17 2.217022 1_555
Li9 O4 2.337350 1_555
Li10 O23 1.999160 1_555
Li10 O16 2.045513 1_555
Li10 O14 2.108772 1_555
Li10 O15 2.110813 1_555
Li10 O17 2.261498 1_455
Li10 O8 2.273981 1_555
Li11 O12 2.070037 1_555
Li11 O19 2.092667 1_555
Li11 O16 2.108598 1_555
Li11 O15 2.165182 1_555
Li11 O24 2.168615 1_555
Li11 O7 2.187407 1_555
Li12 O26 2.030485 1_555
Li12 O12 2.035908 1_555
Li12 O18 2.054170 1_655
Li12 O19 2.394467 1_555
Li12 O13 2.419104 1_545
Li13 O27 1.831104 1_565
Li13 O15 1.896741 1_555
Li13 O14 1.916623 1_555
Li14 O21 2.059211 1_555
Li14 O26 2.086606 1_555
Li14 O12 2.158840 1_555
Li14 O1 2.166219 1_556
Li14 O25 2.176478 1_655
Li14 O24 2.186043 1_555
Li15 O21 2.083170 1_555
Li15 O26 2.113817 1_565
Li15 O0 2.136321 1_566
Li15 O20 2.139281 1_655
Li15 O27 2.175692 1_565
Li15 O13 2.287256 1_555
Li16 O31 2.080140 1_455
Li16 O22 2.117716 1_555
Li16 O20 2.131051 1_545
Li16 O18 2.141179 1_555
Li16 O26 2.205694 1_455
Li16 O25 2.311428 1_555
Li17 O20 1.991453 1_545
Li17 O2 2.000637 1_546
Li17 O27 2.063570 1_555
Li17 O22 2.196187 1_555
Li17 O23 2.236365 1_545
Li18 O24 1.991789 1_555
Li18 O3 2.064082 1_556
Li18 O21 2.134182 1_555
Li18 O23 2.171156 1_555
Li18 O27 2.350427 1_565
Li19 O28 2.083422 1_554
Li19 O29 2.095413 1_454
Li19 O2 2.125215 1_555
Li19 O8 2.148214 1_555
Li19 O3 2.182369 1_555
Li19 O23 2.229454 1_554
Li20 O1 2.003488 1_556
Li20 O3 2.009546 1_556
Li20 O30 2.062327 1_556
Li20 O24 2.069928 1_555
Li20 O7 2.238299 1_556
Li20 O28 2.338728 1_555
Li21 O29 1.971536 1_554
Li21 O3 2.008592 1_555
Li21 O0 2.168390 1_565
Li21 O9 2.225084 1_555
Li21 O1 2.229657 1_555
Li21 O21 2.475593 1_554
Mn0 O4 1.899814 1_555
Mn0 O7 1.979848 1_555
Mn0 O5 2.010821 1_555
Mn0 O12 2.092290 1_555
Mn0 O9 2.131577 1_555
Mn0 O1 2.241360 1_555
Mn1 O7 1.918371 1_555
Mn1 O3 1.922560 1_555
Mn1 O8 1.929943 1_555
Mn1 O9 1.950192 1_555
Mn1 O6 2.004882 1_555
Mn1 O15 2.012700 1_555
Mn2 O19 1.908585 1_555
Mn2 O18 1.979642 1_555
Mn2 O16 2.049469 1_555
Mn2 O10 2.096097 1_555
Mn2 O14 2.156468 1_545
Mn2 O22 2.197307 1_555
Mn3 O12 1.916241 1_555
Mn3 O21 1.919676 1_555
Mn3 O15 1.933988 1_555
Mn3 O17 1.985064 1_555
Mn3 O13 1.991045 1_555
Mn3 O9 2.021339 1_555
Mn4 O24 1.921793 1_555
Mn4 O23 1.943599 1_555
Mn4 O16 1.957508 1_555
Mn4 O25 1.961899 1_555
Mn4 O28 1.963257 1_555
Mn4 O22 1.987402 1_555
Mn5 O26 1.952630 1_555
Mn5 O22 1.985877 1_555
Mn5 O24 1.986703 1_555
Mn5 O27 2.017193 1_555
Mn5 O19 2.178504 1_555
Mn5 O30 2.186795 1_556
Mn6 O30 1.934252 1_555
Mn6 O31 1.936017 1_554
Mn6 O0 1.941885 1_555
Mn6 O1 1.957777 1_555
Mn6 O5 1.982693 1_555
Mn6 O26 2.005469 1_554
Mn7 O27 1.915063 1_564
Mn7 O6 2.000832 1_555
Mn7 O0 2.011482 1_565
Mn7 O2 2.028144 1_555
Mn7 O3 2.113819 1_555
Mn7 O30 2.147227 1_565
Mn8 O11 1.907973 1_555
Mn8 O10 1.918045 1_565
Mn8 O2 1.923599 1_555
Mn8 O6 1.986626 1_555
Mn8 O8 1.990277 1_555
Mn8 O14 1.996367 1_555
Mn9 O20 1.932908 1_555
Mn9 O25 1.954309 1_555
Mn9 O21 2.026493 1_455
Mn9 O23 2.036668 1_555
Mn9 O29 2.120154 1_455
Mn9 O17 2.298398 1_455
Mn10 O28 1.961830 1_554
Mn10 O1 1.961934 1_455
Mn10 O29 1.981453 1_454
Mn10 O31 2.011841 1_454
Mn10 O4 2.166290 1_455
Mn10 O25 2.210468 1_554
Mn11 O13 1.907708 1_455
Mn11 O18 1.939915 1_565
Mn11 O14 1.955410 1_555
Mn11 O17 1.970719 1_455
Mn11 O20 1.975895 1_555
Mn11 O11 2.009546 1_555
