# generated using pymatgen
data_Li2Ge3O8
_symmetry_space_group_name_H-M   'P 1'
_cell_length_a   7.89239967
_cell_length_b   7.89239967
_cell_length_c   5.15963700
_cell_angle_alpha   76.52503936
_cell_angle_beta   76.52503936
_cell_angle_gamma   98.31505414
_symmetry_Int_Tables_number   1
_chemical_formula_structural   Li2Ge3O8
_chemical_formula_sum   'Li4 Ge6 O16'
_cell_volume   297.14302912
_cell_formula_units_Z   2
loop_
 _symmetry_equiv_pos_site_id
 _symmetry_equiv_pos_as_xyz
  1  'x, y, z'
loop_
 _atom_site_type_symbol
 _atom_site_label
 _atom_site_symmetry_multiplicity
 _atom_site_fract_x
 _atom_site_fract_y
 _atom_site_fract_z
 _atom_site_occupancy
  Li  Li0  1  0.55972900  0.44027100  0.75000000  1
  Li  Li1  1  0.44027100  0.55972900  0.25000000  1
  Li  Li2  1  0.83412300  0.16587700  0.75000000  1
  Li  Li3  1  0.16587700  0.83412300  0.25000000  1
  Ge  Ge0  1  0.87102500  0.72123100  0.88974000  1
  Ge  Ge1  1  0.27876900  0.12897500  0.61026000  1
  Ge  Ge2  1  0.12897500  0.27876900  0.11026000  1
  Ge  Ge3  1  0.72123100  0.87102500  0.38974000  1
  Ge  Ge4  1  0.29817400  0.70182600  0.75000000  1
  Ge  Ge5  1  0.70182600  0.29817400  0.25000000  1
  O  O0  1  0.21325300  0.60456100  0.49887200  1
  O  O1  1  0.39543900  0.78674700  0.00112800  1
  O  O2  1  0.78674700  0.39543900  0.50112800  1
  O  O3  1  0.60456100  0.21325300  0.99887200  1
  O  O4  1  0.09953700  0.19703700  0.47412900  1
  O  O5  1  0.80296300  0.90046300  0.02587100  1
  O  O6  1  0.90046300  0.80296300  0.52587100  1
  O  O7  1  0.19703700  0.09953700  0.97412900  1
  O  O8  1  0.69139000  0.53415200  0.02982900  1
  O  O9  1  0.46584800  0.30861000  0.47017100  1
  O  O10  1  0.30861000  0.46584800  0.97017100  1
  O  O11  1  0.53415200  0.69139000  0.52982900  1
  O  O12  1  0.93230200  0.30546300  0.02048700  1
  O  O13  1  0.69453700  0.06769800  0.47951300  1
  O  O14  1  0.06769800  0.69453700  0.97951300  1
  O  O15  1  0.30546300  0.93230200  0.52048700  1
loop_
_geom_bond_atom_site_label_1
_geom_bond_atom_site_label_2
_geom_bond_distance
_geom_bond_site_symmetry_2
Li0 O2 2.075382 1_555
Li0 O3 2.075382 1_555
Li0 O11 2.105376 1_555
Li0 O10 2.105376 1_555
Li0 O8 2.165284 1_556
Li0 O9 2.165284 1_555
Li1 O0 2.075382 1_555
Li1 O1 2.075382 1_555
Li1 O8 2.105376 1_555
Li1 O9 2.105376 1_555
Li1 O11 2.165284 1_555
Li1 O10 2.165284 1_554
Li2 O3 2.099226 1_555
Li2 O2 2.099226 1_555
Li2 O12 2.176110 1_556
Li2 O13 2.176110 1_555
Li2 O5 2.184676 1_546
Li2 O4 2.184676 1_655
Li3 O0 2.099226 1_555
Li3 O1 2.099226 1_555
Li3 O14 2.176110 1_554
Li3 O15 2.176110 1_555
Li3 O6 2.184676 1_455
Li3 O7 2.184676 1_564
Ge0 O14 1.747144 1_655
Ge0 O8 1.769780 1_556
Ge0 O6 1.784321 1_555
Ge0 O5 1.813808 1_556
Ge1 O15 1.747144 1_545
Ge1 O9 1.769780 1_555
Ge1 O7 1.784321 1_555
Ge1 O4 1.813808 1_555
Ge2 O12 1.747144 1_455
Ge2 O10 1.769780 1_554
Ge2 O4 1.784321 1_555
Ge2 O7 1.813808 1_554
Ge3 O13 1.747144 1_565
Ge3 O11 1.769780 1_555
Ge3 O5 1.784321 1_555
Ge3 O6 1.813808 1_555
Ge4 O0 1.853885 1_555
Ge4 O1 1.853885 1_556
Ge4 O14 1.910115 1_555
Ge4 O15 1.910115 1_555
Ge4 O11 1.966698 1_555
Ge4 O10 1.966698 1_555
Ge5 O3 1.853885 1_554
Ge5 O2 1.853885 1_555
Ge5 O13 1.910115 1_555
Ge5 O12 1.910115 1_555
Ge5 O9 1.966698 1_555
Ge5 O8 1.966698 1_555
