# generated using pymatgen
data_Li2NiBO4
_symmetry_space_group_name_H-M   'P 1'
_cell_length_a   6.15763300
_cell_length_b   7.13801100
_cell_length_c   6.90243700
_cell_angle_alpha   90.00000000
_cell_angle_beta   90.00013984
_cell_angle_gamma   90.00000000
_symmetry_Int_Tables_number   1
_chemical_formula_structural   Li2NiBO4
_chemical_formula_sum   'Li8 Ni4 B4 O16'
_cell_volume   303.38455348
_cell_formula_units_Z   4
loop_
 _symmetry_equiv_pos_site_id
 _symmetry_equiv_pos_as_xyz
  1  'x, y, z'
loop_
 _atom_site_type_symbol
 _atom_site_label
 _atom_site_symmetry_multiplicity
 _atom_site_fract_x
 _atom_site_fract_y
 _atom_site_fract_z
 _atom_site_occupancy
  Li  Li0  1  0.49997100  0.49999400  0.17945600  1
  Li  Li1  1  0.50002800  0.00000700  0.67945600  1
  Li  Li2  1  0.00002900  0.49999400  0.82054400  1
  Li  Li3  1  0.99997200  0.00000700  0.32054400  1
  Li  Li4  1  0.75000000  0.19234400  0.99999900  1
  Li  Li5  1  0.75000000  0.69239100  0.49999900  1
  Li  Li6  1  0.25000000  0.80760800  0.00000100  1
  Li  Li7  1  0.25000000  0.30765600  0.50000100  1
  Ni  Ni0  1  0.25000000  0.68877000  0.50000000  1
  Ni  Ni1  1  0.75000000  0.81123100  0.00000000  1
  Ni  Ni2  1  0.25000000  0.18873600  0.00000000  1
  Ni  Ni3  1  0.75000000  0.31126600  0.50000000  1
  B  B0  1  0.00000800  0.50000100  0.18490900  1
  B  B1  1  0.99999100  0.99999700  0.68490700  1
  B  B2  1  0.49999200  0.50000100  0.81509100  1
  B  B3  1  0.50000900  0.99999700  0.31509300  1
  O  O0  1  0.20077900  0.50866100  0.30285000  1
  O  O1  1  0.20080300  0.00864600  0.80283500  1
  O  O2  1  0.79919300  0.49135400  0.30283500  1
  O  O3  1  0.79921800  0.99134100  0.80285300  1
  O  O4  1  0.70080800  0.49135400  0.69716400  1
  O  O5  1  0.70078200  0.99134000  0.19714700  1
  O  O6  1  0.29922100  0.50866100  0.69715000  1
  O  O7  1  0.29919700  0.00864600  0.19716600  1
  O  O8  1  0.00999300  0.33197100  0.05256400  1
  O  O9  1  0.00997800  0.83199400  0.55251800  1
  O  O10  1  0.99002400  0.66800400  0.05251900  1
  O  O11  1  0.99001100  0.16803100  0.55256300  1
  O  O12  1  0.49000700  0.33197100  0.94743600  1
  O  O13  1  0.49002200  0.83199500  0.44748200  1
  O  O14  1  0.50997500  0.66800300  0.94748100  1
  O  O15  1  0.50998900  0.16803100  0.44743700  1
loop_
_geom_bond_atom_site_label_1
_geom_bond_atom_site_label_2
_geom_bond_distance
_geom_bond_site_symmetry_2
Li0 O14 2.001453 1_554
Li0 O12 2.001754 1_554
Li0 O0 2.030612 1_555
Li0 O2 2.030726 1_555
Li1 O13 2.001461 1_545
Li1 O15 2.001752 1_555
Li1 O3 2.030605 1_545
Li1 O1 2.030746 1_555
Li2 O10 2.001458 1_456
Li2 O8 2.001754 1_556
Li2 O6 2.030612 1_555
Li2 O4 2.030723 1_455
Li3 O9 2.001465 1_645
Li3 O11 2.001752 1_555
Li3 O5 2.030605 1_545
Li3 O7 2.030744 1_655
Li4 O12 1.920410 1_555
Li4 O8 1.920412 1_656
Li4 O3 2.000534 1_545
Li4 O5 2.000548 1_546
Li5 O9 1.920186 1_655
Li5 O13 1.920187 1_555
Li5 O2 2.000769 1_555
Li5 O4 2.000773 1_555
Li6 O10 1.920180 1_455
Li6 O14 1.920181 1_554
Li6 O7 2.000782 1_565
Li6 O1 2.000786 1_564
Li7 O11 1.920382 1_455
Li7 O15 1.920384 1_555
Li7 O6 2.000560 1_555
Li7 O0 2.000569 1_555
Ni0 O9 1.833294 1_555
Ni0 O13 1.833298 1_555
Ni0 O6 1.896443 1_555
Ni0 O0 1.896443 1_555
Ni1 O10 1.833316 1_555
Ni1 O14 1.833324 1_554
Ni1 O5 1.896426 1_555
Ni1 O3 1.896431 1_554
Ni2 O12 1.833326 1_554
Ni2 O8 1.833326 1_555
Ni2 O1 1.896402 1_554
Ni2 O7 1.896407 1_555
Ni3 O11 1.833343 1_555
Ni3 O15 1.833343 1_555
Ni3 O4 1.896383 1_555
Ni3 O2 1.896389 1_555
B0 O0 1.481525 1_555
B0 O2 1.481694 1_455
B0 O8 1.508916 1_555
B0 O10 1.508951 1_455
B1 O3 1.481556 1_555
B1 O1 1.481683 1_665
B1 O11 1.508933 1_565
B1 O9 1.508948 1_655
B2 O6 1.481525 1_555
B2 O4 1.481703 1_555
B2 O12 1.508916 1_555
B2 O14 1.508945 1_555
B3 O5 1.481557 1_555
B3 O7 1.481679 1_565
B3 O15 1.508933 1_565
B3 O13 1.508942 1_555
