# generated using pymatgen
data_LiMn2Cr2O8
_symmetry_space_group_name_H-M   'P 1'
_cell_length_a   5.86255400
_cell_length_b   10.11933022
_cell_length_c   10.29680107
_cell_angle_alpha   109.17082677
_cell_angle_beta   90.07533121
_cell_angle_gamma   90.38480462
_symmetry_Int_Tables_number   1
_chemical_formula_structural   LiMn2Cr2O8
_chemical_formula_sum   'Li4 Mn8 Cr8 O32'
_cell_volume   576.96595825
_cell_formula_units_Z   4
loop_
 _symmetry_equiv_pos_site_id
 _symmetry_equiv_pos_as_xyz
  1  'x, y, z'
loop_
 _atom_site_type_symbol
 _atom_site_label
 _atom_site_symmetry_multiplicity
 _atom_site_fract_x
 _atom_site_fract_y
 _atom_site_fract_z
 _atom_site_occupancy
  Li  Li0  1  0.50065800  0.24890200  0.25119100  1
  Li  Li1  1  0.73695600  0.99530400  0.75274000  1
  Li  Li2  1  0.00009300  0.50205600  0.00145400  1
  Li  Li3  1  0.00100400  0.99721600  0.48963600  1
  Mn  Mn0  1  0.00625300  0.50064000  0.49707300  1
  Mn  Mn1  1  0.99836600  0.99989400  0.00392200  1
  Mn  Mn2  1  0.24643000  0.75073300  0.50214900  1
  Mn  Mn3  1  0.24915000  0.24507300  0.99571000  1
  Mn  Mn4  1  0.49967500  0.99981700  0.49715100  1
  Mn  Mn5  1  0.49868700  0.50170800  0.00068800  1
  Mn  Mn6  1  0.75020900  0.75180100  0.99961600  1
  Mn  Mn7  1  0.74873600  0.24876200  0.99953700  1
  Cr  Cr0  1  0.25536700  0.75738600  0.00135300  1
  Cr  Cr1  1  0.25151300  0.25384600  0.50264800  1
  Cr  Cr2  1  0.49749600  0.75033000  0.24983400  1
  Cr  Cr3  1  0.49800600  0.25220100  0.75196600  1
  Cr  Cr4  1  0.74119800  0.74014300  0.49747400  1
  Cr  Cr5  1  0.75190200  0.25724500  0.50567800  1
  Cr  Cr6  1  0.00441800  0.74686400  0.75013400  1
  Cr  Cr7  1  0.00137800  0.24929100  0.24931000  1
  O  O0  1  0.00313800  0.37281900  0.60134900  1
  O  O1  1  0.99630000  0.87149100  0.10364200  1
  O  O2  1  0.99106300  0.12832300  0.89565000  1
  O  O3  1  0.22304500  0.63106300  0.61181800  1
  O  O4  1  0.21886500  0.87268400  0.89159000  1
  O  O5  1  0.27446400  0.62731000  0.10879900  1
  O  O6  1  0.22851800  0.36705300  0.38523500  1
  O  O7  1  0.27329500  0.87176400  0.38917700  1
  O  O8  1  0.22600500  0.13312800  0.11455200  1
  O  O9  1  0.27371100  0.37076200  0.88997700  1
  O  O10  1  0.27521700  0.12890700  0.60954900  1
  O  O11  1  0.50421000  0.63152300  0.89860000  1
  O  O12  1  0.50040600  0.87101700  0.60409700  1
  O  O13  1  0.49752900  0.35998600  0.10284100  1
  O  O14  1  0.50006300  0.85047500  0.11151200  1
  O  O15  1  0.49451300  0.65036800  0.38914500  1
  O  O16  1  0.50511300  0.34926200  0.61378900  1
  O  O17  1  0.50193500  0.13626200  0.39615500  1
  O  O18  1  0.50431200  0.14369800  0.88349600  1
  O  O19  1  0.72468000  0.62986000  0.11097800  1
  O  O20  1  0.72448400  0.87175100  0.39077400  1
  O  O21  1  0.78506800  0.62776900  0.60838400  1
  O  O22  1  0.78204300  0.87218700  0.88468300  1
  O  O23  1  0.72488300  0.37272700  0.89187400  1
  O  O24  1  0.72277300  0.12434000  0.61570500  1
  O  O25  1  0.77825500  0.36761000  0.38503600  1
  O  O26  1  0.77184800  0.13399600  0.11586700  1
  O  O27  1  0.99198000  0.85570300  0.61208900  1
  O  O28  1  0.00090200  0.64741100  0.89339700  1
  O  O29  1  0.00496500  0.63161500  0.39672200  1
  O  O30  1  0.00378600  0.35249400  0.10638300  1
  O  O31  1  0.99780900  0.14838800  0.39277000  1
loop_
_geom_bond_atom_site_label_1
_geom_bond_atom_site_label_2
_geom_bond_distance
_geom_bond_site_symmetry_2
Li0 O17 2.155194 1_555
Li0 O13 2.173756 1_555
Li0 O26 2.188112 1_555
Li0 O6 2.197161 1_555
Li0 O8 2.197912 1_555
Li0 O25 2.207129 1_555
Li1 O12 2.134078 1_555
Li1 O22 2.140782 1_555
Li1 O18 2.152288 1_565
Li1 O2 2.205198 1_565
Li1 O24 2.216782 1_565
Li1 O27 2.240256 1_555
Li2 O5 2.112671 1_555
Li2 O28 2.115728 1_554
Li2 O30 2.129018 1_555
Li2 O23 2.141508 1_454
Li2 O19 2.150897 1_455
Li2 O9 2.165126 1_554
Li3 O31 2.082733 1_465
Li3 O20 2.096516 1_455
Li3 O7 2.097368 1_555
Li3 O10 2.184057 1_565
Li3 O27 2.197338 1_455
Li3 O24 2.222066 1_465
Mn0 O3 1.924195 1_555
Mn0 O21 1.925620 1_455
Mn0 O29 1.929754 1_555
Mn0 O0 1.933415 1_555
Mn0 O6 1.963831 1_555
Mn0 O25 1.970150 1_455
Mn1 O1 1.902325 1_555
Mn1 O4 1.927273 1_654
Mn1 O22 1.928124 1_554
Mn1 O8 1.964570 1_665
Mn1 O2 1.971279 1_564
Mn1 O26 1.983580 1_565
Mn2 O3 1.912264 1_555
Mn2 O15 1.936191 1_555
Mn2 O29 1.936228 1_555
Mn2 O7 1.952323 1_555
Mn2 O27 1.967496 1_455
Mn2 O12 1.983140 1_555
Mn3 O8 1.925587 1_556
Mn3 O9 1.931612 1_555
Mn3 O30 1.939374 1_556
Mn3 O13 1.954467 1_556
Mn3 O18 1.967693 1_555
Mn3 O2 1.979662 1_455
Mn4 O7 1.924420 1_555
Mn4 O20 1.926317 1_555
Mn4 O24 1.937025 1_565
Mn4 O10 1.952335 1_565
Mn4 O12 1.963198 1_555
Mn4 O17 1.982648 1_565
Mn5 O5 1.918246 1_555
Mn5 O19 1.931961 1_555
Mn5 O11 1.933421 1_554
Mn5 O9 1.943051 1_554
Mn5 O23 1.945284 1_554
Mn5 O13 2.038084 1_555
Mn6 O28 1.933495 1_655
Mn6 O14 1.934854 1_556
Mn6 O11 1.945304 1_555
Mn6 O19 1.946070 1_556
Mn6 O1 1.953497 1_556
Mn6 O22 1.965664 1_555
Mn7 O26 1.928009 1_556
Mn7 O23 1.933244 1_555
Mn7 O18 1.937026 1_555
Mn7 O30 1.940134 1_656
Mn7 O13 1.951209 1_556
Mn7 O2 1.954205 1_555
Cr0 O14 1.872883 1_555
Cr0 O4 1.884998 1_554
Cr0 O28 1.964821 1_554
Cr0 O5 1.981725 1_555
Cr0 O1 1.994581 1_455
Cr0 O11 2.003458 1_554
Cr1 O16 1.924282 1_555
Cr1 O6 1.924426 1_555
Cr1 O10 1.935291 1_555
Cr1 O31 1.952534 1_455
Cr1 O0 1.956123 1_555
Cr1 O17 1.986032 1_555
Cr2 O14 2.000893 1_555
Cr2 O15 2.008488 1_555
Cr2 O5 2.038162 1_555
Cr2 O7 2.040822 1_555
Cr2 O19 2.046059 1_555
Cr2 O20 2.046574 1_555
Cr3 O16 1.976905 1_555
Cr3 O18 2.004547 1_555
Cr3 O9 2.023433 1_555
Cr3 O23 2.037447 1_555
Cr3 O10 2.045594 1_555
Cr3 O24 2.052922 1_555
Cr4 O15 1.863760 1_555
Cr4 O21 1.876041 1_555
Cr4 O29 1.988039 1_655
Cr4 O20 1.988159 1_555
Cr4 O27 1.996941 1_555
Cr4 O12 2.006559 1_555
Cr5 O16 1.881774 1_555
Cr5 O25 1.929673 1_555
Cr5 O0 1.929766 1_655
Cr5 O31 1.956533 1_555
Cr5 O17 1.995728 1_555
Cr5 O24 2.029680 1_555
Cr6 O3 1.993293 1_555
Cr6 O21 2.013804 1_455
Cr6 O4 2.019622 1_555
Cr6 O22 2.024924 1_455
Cr6 O28 2.040629 1_555
Cr6 O27 2.065862 1_455
Cr7 O26 1.995267 1_455
Cr7 O8 1.998922 1_555
Cr7 O25 2.006140 1_455
Cr7 O6 2.007621 1_555
Cr7 O31 2.053165 1_455
Cr7 O30 2.065433 1_555
