# generated using pymatgen
data_Ba4Li(SbO4)3
_symmetry_space_group_name_H-M   'P 1'
_cell_length_a   7.23019322
_cell_length_b   7.23019322
_cell_length_c   7.23019322
_cell_angle_alpha   109.47122063
_cell_angle_beta   109.47122063
_cell_angle_gamma   109.47122063
_symmetry_Int_Tables_number   1
_chemical_formula_structural   Ba4Li(SbO4)3
_chemical_formula_sum   'Ba4 Li1 Sb3 O12'
_cell_volume   290.95633620
_cell_formula_units_Z   1
loop_
 _symmetry_equiv_pos_site_id
 _symmetry_equiv_pos_as_xyz
  1  'x, y, z'
loop_
 _atom_site_type_symbol
 _atom_site_label
 _atom_site_symmetry_multiplicity
 _atom_site_fract_x
 _atom_site_fract_y
 _atom_site_fract_z
 _atom_site_occupancy
  Ba  Ba0  1  0.00000000  0.50000000  0.00000000  1
  Ba  Ba1  1  0.50000000  0.00000000  0.00000000  1
  Ba  Ba2  1  0.00000000  0.00000000  0.50000000  1
  Ba  Ba3  1  0.50000000  0.50000000  0.50000000  1
  Li  Li0  1  0.00000000  0.00000000  0.00000000  1
  Sb  Sb0  1  0.50000000  0.00000000  0.50000000  1
  Sb  Sb1  1  0.00000000  0.50000000  0.50000000  1
  Sb  Sb2  1  0.50000000  0.50000000  0.00000000  1
  O  O0  1  0.25000000  0.75000000  0.50000000  1
  O  O1  1  0.73137400  0.00000000  0.73137400  1
  O  O2  1  0.00000000  0.73137400  0.73137400  1
  O  O3  1  0.00000000  0.26862600  0.26862600  1
  O  O4  1  0.26862600  0.26862600  0.00000000  1
  O  O5  1  0.26862600  0.00000000  0.26862600  1
  O  O6  1  0.73137400  0.73137400  0.00000000  1
  O  O7  1  0.75000000  0.25000000  0.50000000  1
  O  O8  1  0.50000000  0.25000000  0.75000000  1
  O  O9  1  0.50000000  0.75000000  0.25000000  1
  O  O10  1  0.25000000  0.50000000  0.75000000  1
  O  O11  1  0.75000000  0.50000000  0.25000000  1
loop_
_geom_bond_atom_site_label_1
_geom_bond_atom_site_label_2
_geom_bond_distance
_geom_bond_site_symmetry_2
Ba0 O8 2.951714 1_454
Ba0 O7 2.951714 1_454
Ba0 O0 2.951714 1_555
Ba0 O9 2.951714 1_555
Ba0 O10 2.951714 1_554
Ba0 O11 2.951714 1_455
Ba0 O5 2.955807 1_565
Ba0 O3 2.955807 1_555
Ba0 O2 2.955807 1_554
Ba0 O4 2.955807 1_555
Ba0 O6 2.955807 1_455
Ba0 O1 2.955807 1_454
Ba1 O7 2.951714 1_555
Ba1 O0 2.951714 1_544
Ba1 O9 2.951714 1_545
Ba1 O8 2.951714 1_554
Ba1 O11 2.951714 1_555
Ba1 O10 2.951714 1_544
Ba1 O5 2.955807 1_555
Ba1 O3 2.955807 1_655
Ba1 O2 2.955807 1_544
Ba1 O4 2.955807 1_555
Ba1 O1 2.955807 1_554
Ba1 O6 2.955807 1_545
Ba2 O10 2.951714 1_555
Ba2 O11 2.951714 1_445
Ba2 O7 2.951714 1_455
Ba2 O9 2.951714 1_445
Ba2 O0 2.951714 1_545
Ba2 O8 2.951714 1_555
Ba2 O5 2.955807 1_555
Ba2 O3 2.955807 1_555
Ba2 O2 2.955807 1_545
Ba2 O1 2.955807 1_455
Ba2 O6 2.955807 1_445
Ba2 O4 2.955807 1_556
Ba3 O10 2.951714 1_555
Ba3 O0 2.951714 1_555
Ba3 O9 2.951714 1_555
Ba3 O7 2.951714 1_555
Ba3 O8 2.951714 1_555
Ba3 O11 2.951714 1_555
Ba3 O5 2.955807 1_555
Ba3 O3 2.955807 1_555
Ba3 O6 2.955807 1_556
Ba3 O2 2.955807 1_655
Ba3 O4 2.955807 1_555
Ba3 O1 2.955807 1_565
Li0 O4 2.242680 1_555
Li0 O5 2.242680 1_555
Li0 O3 2.242680 1_555
Li0 O1 2.242680 1_454
Li0 O2 2.242680 1_544
Li0 O6 2.242680 1_445
O0 Sb0 2.087177 1_565
O0 Sb1 2.087177 1_555
O1 Sb0 1.931674 1_555
O2 Sb1 1.931674 1_555
O3 Sb1 1.931674 1_555
O4 Sb2 1.931674 1_555
O5 Sb0 1.931674 1_555
O6 Sb2 1.931674 1_555
O7 Sb0 2.087177 1_555
O7 Sb1 2.087177 1_655
O8 Sb0 2.087177 1_555
O8 Sb2 2.087177 1_556
O9 Sb0 2.087177 1_565
O9 Sb2 2.087177 1_555
O10 Sb1 2.087177 1_555
O10 Sb2 2.087177 1_556
O11 Sb2 2.087177 1_555
O11 Sb1 2.087177 1_655
