# generated using pymatgen
data_Li3V2OF7
_symmetry_space_group_name_H-M   'P 1'
_cell_length_a   5.93323852
_cell_length_b   5.90664824
_cell_length_c   10.42439021
_cell_angle_alpha   75.78794714
_cell_angle_beta   88.09778237
_cell_angle_gamma   118.16050784
_symmetry_Int_Tables_number   1
_chemical_formula_structural   Li3V2OF7
_chemical_formula_sum   'Li6 V4 O2 F14'
_cell_volume   307.44078319
_cell_formula_units_Z   2
loop_
 _symmetry_equiv_pos_site_id
 _symmetry_equiv_pos_as_xyz
  1  'x, y, z'
loop_
 _atom_site_type_symbol
 _atom_site_label
 _atom_site_symmetry_multiplicity
 _atom_site_fract_x
 _atom_site_fract_y
 _atom_site_fract_z
 _atom_site_occupancy
  Li  Li0  1  0.31273000  0.12095400  0.06031700  1
  Li  Li1  1  0.81270200  0.12099400  0.56027600  1
  Li  Li2  1  0.24914300  0.49257900  0.24625000  1
  Li  Li3  1  0.74913800  0.49260200  0.74622400  1
  Li  Li4  1  0.18659500  0.88708800  0.44372900  1
  Li  Li5  1  0.68658200  0.88708800  0.94377400  1
  V  V0  1  0.26847700  0.00888700  0.74491400  1
  V  V1  1  0.50900700  0.48945900  0.50453100  1
  V  V2  1  0.76868600  0.00888700  0.24490000  1
  V  V3  1  0.00908400  0.48967500  0.00444600  1
  O  O0  1  0.08995600  0.24719900  0.12379400  1
  O  O1  1  0.58970200  0.24711000  0.62378500  1
  F  F0  1  0.64635400  0.24987000  0.12464500  1
  F  F1  1  0.14605000  0.24974200  0.62472300  1
  F  F2  1  0.40717900  0.75404800  0.37694000  1
  F  F3  1  0.90706200  0.75410800  0.87689900  1
  F  F4  1  0.86199200  0.75077200  0.37548800  1
  F  F5  1  0.36185100  0.75074900  0.87549200  1
  F  F6  1  0.87416600  0.22845800  0.36717100  1
  F  F7  1  0.37416800  0.22846600  0.86715800  1
  F  F8  1  0.12713800  0.73457700  0.11400700  1
  F  F9  1  0.62733300  0.73470100  0.61390800  1
  F  F10  1  0.36194500  0.27338200  0.38217600  1
  F  F11  1  0.86176800  0.27335300  0.88222900  1
  F  F12  1  0.60712300  0.76426900  0.13686100  1
  F  F13  1  0.10710400  0.76422100  0.63684100  1
loop_
_geom_bond_atom_site_label_1
_geom_bond_atom_site_label_2
_geom_bond_distance
_geom_bond_site_symmetry_2
Li0 O0 1.963548 1_555
Li1 O1 1.964218 1_555
Li2 O0 2.078145 1_555
Li3 O1 2.078638 1_555
O0 V3 1.908589 1_555
O0 V2 1.908859 1_455
O1 V1 1.906932 1_555
O1 V0 1.908744 1_555
F0 Li0 1.965692 1_555
F0 V3 2.068883 1_655
F0 V2 2.069730 1_555
F1 Li1 1.964911 1_455
F1 V0 2.069291 1_555
F1 V1 2.069770 1_555
F2 Li4 1.998515 1_555
F2 V2 2.121365 1_565
F2 V1 2.121424 1_555
F2 Li2 2.207148 1_555
F3 Li5 1.998104 1_555
F3 V0 2.120729 1_665
F3 V3 2.121306 1_656
F3 Li3 2.207088 1_555
F4 Li4 1.942195 1_655
F4 V2 2.076444 1_565
F4 V1 2.078566 1_555
F5 Li5 1.943028 1_555
F5 V0 2.076745 1_565
F5 V3 2.077191 1_556
F6 Li1 1.921833 1_555
F6 V2 1.948546 1_555
F6 Li2 2.131831 1_655
F7 Li0 1.922369 1_556
F7 V0 1.948381 1_555
F7 Li3 2.131862 1_555
F8 Li0 1.921994 1_565
F8 V3 1.948204 1_555
F8 Li2 2.131417 1_555
F9 Li1 1.921583 1_565
F9 V1 1.948194 1_555
F9 Li3 2.131390 1_555
F10 Li4 1.922612 1_545
F10 V1 1.959381 1_555
F10 Li2 2.027815 1_555
F11 Li5 1.922494 1_545
F11 V3 1.959305 1_656
F11 Li3 2.027794 1_555
F12 Li5 1.922799 1_554
F12 V2 1.959171 1_565
F12 Li2 2.027395 1_555
F13 Li4 1.923053 1_555
F13 V0 1.959448 1_565
F13 Li3 2.027253 1_455
