# generated using pymatgen
data_Na3H6Ir
_symmetry_space_group_name_H-M   'P 1'
_cell_length_a   5.19789841
_cell_length_b   9.28109109
_cell_length_c   9.51066078
_cell_angle_alpha   90.00000000
_cell_angle_beta   90.00000000
_cell_angle_gamma   90.00000000
_symmetry_Int_Tables_number   1
_chemical_formula_structural   Na3H6Ir
_chemical_formula_sum   'Na12 H24 Ir4'
_cell_volume   458.81490103
_cell_formula_units_Z   4
loop_
 _symmetry_equiv_pos_site_id
 _symmetry_equiv_pos_as_xyz
  1  'x, y, z'
loop_
 _atom_site_type_symbol
 _atom_site_label
 _atom_site_symmetry_multiplicity
 _atom_site_fract_x
 _atom_site_fract_y
 _atom_site_fract_z
 _atom_site_occupancy
  Na  Na0  1  0.25000000  0.54596217  0.87212445  1
  Na  Na1  1  0.25000000  0.04596217  0.62787555  1
  Na  Na2  1  0.75000000  0.45403783  0.12787555  1
  Na  Na3  1  0.75000000  0.95403783  0.37212445  1
  Na  Na4  1  0.25000000  0.89692507  0.96530236  1
  Na  Na5  1  0.25000000  0.39692507  0.53469764  1
  Na  Na6  1  0.75000000  0.10307493  0.03469764  1
  Na  Na7  1  0.75000000  0.60307493  0.46530236  1
  Na  Na8  1  0.25000000  0.71959708  0.24955018  1
  Na  Na9  1  0.25000000  0.21959708  0.25044982  1
  Na  Na10  1  0.75000000  0.28040292  0.75044982  1
  Na  Na11  1  0.75000000  0.78040292  0.74955018  1
  H  H0  1  0.47854454  0.83120570  0.53151308  1
  H  H1  1  0.02145546  0.33120570  0.96848692  1
  H  H2  1  0.97854454  0.16879430  0.46848692  1
  H  H3  1  0.52145546  0.66879430  0.03151308  1
  H  H4  1  0.52145546  0.16879430  0.46848692  1
  H  H5  1  0.97854454  0.66879430  0.03151308  1
  H  H6  1  0.02145546  0.83120570  0.53151308  1
  H  H7  1  0.47854454  0.33120570  0.96848692  1
  H  H8  1  0.47166052  0.60974872  0.66229829  1
  H  H9  1  0.02833948  0.10974872  0.83770171  1
  H  H10  1  0.97166052  0.39025128  0.33770171  1
  H  H11  1  0.52833948  0.89025128  0.16229829  1
  H  H12  1  0.52833948  0.39025128  0.33770171  1
  H  H13  1  0.97166052  0.89025128  0.16229829  1
  H  H14  1  0.02833948  0.60974872  0.66229829  1
  H  H15  1  0.47166052  0.10974872  0.83770171  1
  H  H16  1  0.25000000  0.62287018  0.45237597  1
  H  H17  1  0.25000000  0.12287018  0.04762403  1
  H  H18  1  0.75000000  0.37712982  0.54762403  1
  H  H19  1  0.75000000  0.87712982  0.95237597  1
  H  H20  1  0.25000000  0.81599758  0.74759765  1
  H  H21  1  0.25000000  0.31599758  0.75240235  1
  H  H22  1  0.75000000  0.18400242  0.25240235  1
  H  H23  1  0.75000000  0.68400242  0.24759765  1
  Ir  Ir0  1  0.25000000  0.72211538  0.59769224  1
  Ir  Ir1  1  0.25000000  0.22211538  0.90230776  1
  Ir  Ir2  1  0.75000000  0.27788462  0.40230776  1
  Ir  Ir3  1  0.75000000  0.77788462  0.09769224  1
loop_
_geom_bond_atom_site_label_1
_geom_bond_atom_site_label_2
_geom_bond_distance
_geom_bond_site_symmetry_2
H0 Ir0 1.683001 1_555
H0 Na3 2.363996 1_555
H0 Na1 2.494773 1_565
H0 Na11 2.552130 1_555
H0 Na7 2.621148 1_555
H1 Ir1 1.683001 1_555
H1 Na2 2.363996 1_456
H1 Na0 2.494773 1_555
H1 Na10 2.552130 1_455
H1 Na6 2.621148 1_456
H2 Ir2 1.683001 1_555
H2 Na1 2.363996 1_655
H2 Na3 2.494773 1_545
H2 Na9 2.552130 1_655
H2 Na5 2.621148 1_655
H3 Ir3 1.683001 1_555
H3 Na0 2.363996 1_554
H3 Na2 2.494773 1_555
H3 Na8 2.552130 1_555
H3 Na4 2.621148 1_554
H4 Ir2 1.683001 1_555
H4 Na1 2.363996 1_555
H4 Na3 2.494773 1_545
H4 Na9 2.552130 1_555
H4 Na5 2.621148 1_555
H5 Ir3 1.683001 1_555
H5 Na0 2.363996 1_654
H5 Na2 2.494773 1_555
H5 Na8 2.552130 1_655
H5 Na4 2.621148 1_654
H6 Ir0 1.683001 1_555
H6 Na3 2.363996 1_455
H6 Na1 2.494773 1_565
H6 Na11 2.552130 1_455
H6 Na7 2.621148 1_455
H7 Ir1 1.683001 1_555
H7 Na2 2.363996 1_556
H7 Na0 2.494773 1_555
H7 Na10 2.552130 1_555
H7 Na6 2.621148 1_556
H8 Ir0 1.671121 1_555
H8 Na11 2.300083 1_555
H8 Na7 2.367962 1_555
H8 Na0 2.379145 1_555
H8 Na5 2.588782 1_555
H9 Ir1 1.671121 1_555
H9 Na10 2.300083 1_455
H9 Na6 2.367962 1_456
H9 Na1 2.379145 1_555
H9 Na4 2.588782 1_545
H10 Ir2 1.671121 1_555
H10 Na9 2.300083 1_655
H10 Na5 2.367962 1_655
H10 Na2 2.379145 1_555
H10 Na7 2.588782 1_555
H11 Ir3 1.671121 1_555
H11 Na8 2.300083 1_555
H11 Na4 2.367962 1_554
H11 Na3 2.379145 1_555
H11 Na6 2.588782 1_565
H12 Ir2 1.671121 1_555
H12 Na9 2.300083 1_555
H12 Na5 2.367962 1_555
H12 Na2 2.379145 1_555
H12 Na7 2.588782 1_555
H13 Ir3 1.671121 1_555
H13 Na8 2.300083 1_655
H13 Na4 2.367962 1_654
H13 Na3 2.379145 1_555
H13 Na6 2.588782 1_565
H14 Ir0 1.671121 1_555
H14 Na11 2.300083 1_455
H14 Na7 2.367962 1_455
H14 Na0 2.379145 1_555
H14 Na5 2.588782 1_555
H15 Ir1 1.671121 1_555
H15 Na10 2.300083 1_555
H15 Na6 2.367962 1_556
H15 Na1 2.379145 1_555
H15 Na4 2.588782 1_545
H16 Ir0 1.660875 1_555
H16 Na8 2.127673 1_555
H16 Na5 2.238407 1_555
H16 Na7 2.608334 1_455
H16 Na7 2.608334 1_555
H17 Ir1 1.660875 1_554
H17 Na9 2.127673 1_555
H17 Na4 2.238407 1_544
H17 Na6 2.608334 1_455
H17 Na6 2.608334 1_555
H18 Ir2 1.660875 1_555
H18 Na10 2.127673 1_555
H18 Na7 2.238407 1_555
H18 Na5 2.608334 1_555
H18 Na5 2.608334 1_655
H19 Ir3 1.660875 1_556
H19 Na11 2.127673 1_555
H19 Na6 2.238407 1_566
H19 Na4 2.608334 1_555
H19 Na4 2.608334 1_655
H20 Ir0 1.670878 1_555
H20 Na4 2.202539 1_555
H20 Na1 2.419054 1_565
H20 Na11 2.619927 1_555
H20 Na11 2.619927 1_455
H21 Ir1 1.670878 1_555
H21 Na5 2.202539 1_555
H21 Na0 2.419054 1_555
H21 Na10 2.619927 1_455
H21 Na10 2.619927 1_555
H22 Ir2 1.670878 1_555
H22 Na6 2.202539 1_555
H22 Na3 2.419054 1_545
H22 Na9 2.619927 1_655
H22 Na9 2.619927 1_555
H23 Ir3 1.670878 1_555
H23 Na7 2.202539 1_555
H23 Na2 2.419054 1_555
H23 Na8 2.619927 1_555
H23 Na8 2.619927 1_655
