# generated using pymatgen
data_Li3FeOF3
_symmetry_space_group_name_H-M   'P 1'
_cell_length_a   5.94262863
_cell_length_b   5.95333705
_cell_length_c   8.63390968
_cell_angle_alpha   89.99833207
_cell_angle_beta   89.82794376
_cell_angle_gamma   90.00027778
_symmetry_Int_Tables_number   1
_chemical_formula_structural   Li3FeOF3
_chemical_formula_sum   'Li12 Fe4 O4 F12'
_cell_volume   305.45314760
_cell_formula_units_Z   4
loop_
 _symmetry_equiv_pos_site_id
 _symmetry_equiv_pos_as_xyz
  1  'x, y, z'
loop_
 _atom_site_type_symbol
 _atom_site_label
 _atom_site_symmetry_multiplicity
 _atom_site_fract_x
 _atom_site_fract_y
 _atom_site_fract_z
 _atom_site_occupancy
  Li  Li0  1  0.74999900  0.24999700  0.25000000  1
  Li  Li1  1  0.25000100  0.75000300  0.75000000  1
  Li  Li2  1  0.25000000  0.75000100  0.24999900  1
  Li  Li3  1  0.75000100  0.24999900  0.75000100  1
  Li  Li4  1  0.75000100  0.75000200  0.25000000  1
  Li  Li5  1  0.24999900  0.24999700  0.75000000  1
  Li  Li6  1  0.25000000  0.24999800  0.25000000  1
  Li  Li7  1  0.75000000  0.75000300  0.75000000  1
  Li  Li8  1  0.00000000  0.50000000  0.50000000  1
  Li  Li9  1  0.50000000  0.00000000  0.00000000  1
  Li  Li10  1  0.00000000  0.00000000  0.50000000  1
  Li  Li11  1  0.50000000  0.50000000  0.00000000  1
  Fe  Fe0  1  0.49999900  0.50000100  0.50000300  1
  Fe  Fe1  1  0.00000000  0.49999600  0.99999900  1
  Fe  Fe2  1  0.99999700  0.99999500  0.99999900  1
  Fe  Fe3  1  0.49999900  0.00000300  0.50000100  1
  O  O0  1  0.71917100  0.24999800  0.50115200  1
  O  O1  1  0.21918600  0.75000700  0.00113700  1
  O  O2  1  0.28082700  0.75000300  0.49884700  1
  O  O3  1  0.78081800  0.24999600  0.99886400  1
  F  F0  1  0.77725900  0.75001100  0.50505600  1
  F  F1  1  0.27726200  0.24998700  0.00505300  1
  F  F2  1  0.22274000  0.24998700  0.49494300  1
  F  F3  1  0.72273800  0.75001200  0.99494700  1
  F  F4  1  0.99745400  0.50087100  0.25914300  1
  F  F5  1  0.49744200  0.00089100  0.75913500  1
  F  F6  1  0.00255300  0.00089100  0.74086600  1
  F  F7  1  0.50253500  0.50088000  0.24085300  1
  F  F8  1  0.99744900  0.99911100  0.25913400  1
  F  F9  1  0.49746400  0.49912000  0.75914600  1
  F  F10  1  0.00254700  0.49912700  0.74085700  1
  F  F11  1  0.50255700  0.99910900  0.24086600  1
loop_
_geom_bond_atom_site_label_1
_geom_bond_atom_site_label_2
_geom_bond_distance
_geom_bond_site_symmetry_2
Li0 O3 2.175458 1_554
Li0 O0 2.175600 1_555
Li1 O1 2.175465 1_556
Li1 O2 2.175608 1_555
Li2 O2 2.156875 1_555
Li2 O1 2.156989 1_555
Li3 O0 2.156885 1_555
Li3 O3 2.156999 1_555
Li8 O2 2.236119 1_555
Li8 O0 2.236124 1_455
Li9 O1 2.236022 1_545
Li9 O3 2.236051 1_554
Li10 O2 2.236106 1_545
Li10 O0 2.236119 1_455
Li11 O1 2.236088 1_555
Li11 O3 2.236094 1_554
Fe0 O2 1.977819 1_555
Fe0 O0 1.977823 1_555
Fe1 O3 1.977838 1_455
Fe1 O1 1.977904 1_556
Fe2 O1 1.977821 1_656
Fe2 O3 1.977840 1_565
Fe3 O0 1.977778 1_555
Fe3 O2 1.977800 1_545
F0 Li10 1.992128 1_665
F0 Li8 1.992237 1_655
F0 Li7 2.120534 1_555
F0 Li4 2.208565 1_555
F0 Fe3 2.220837 1_565
F0 Fe0 2.220899 1_555
F1 Li9 1.992118 1_555
F1 Li11 1.992222 1_555
F1 Li6 2.120561 1_555
F1 Li5 2.208542 1_554
F1 Fe2 2.220849 1_444
F1 Fe1 2.220913 1_554
F2 Li10 1.992115 1_555
F2 Li8 1.992242 1_555
F2 Li6 2.120526 1_555
F2 Li5 2.208574 1_555
F2 Fe3 2.220801 1_555
F2 Fe0 2.220912 1_555
F3 Li9 1.992123 1_566
F3 Li11 1.992218 1_556
F3 Li7 2.120561 1_555
F3 Li4 2.208542 1_556
F3 Fe2 2.220787 1_555
F3 Fe1 2.220941 1_655
F4 Li8 2.079644 1_655
F4 Li4 2.090249 1_555
F4 Li0 2.097626 1_555
F4 Li2 2.111304 1_655
F4 Li6 2.118619 1_655
F4 Fe1 2.237438 1_654
F5 Li9 2.079714 1_556
F5 Li5 2.090099 1_555
F5 Li1 2.097625 1_545
F5 Li3 2.111264 1_555
F5 Li7 2.118730 1_545
F5 Fe3 2.237352 1_555
F6 Li10 2.079723 1_555
F6 Li5 2.090104 1_555
F6 Li1 2.097660 1_545
F6 Li3 2.111248 1_455
F6 Li7 2.118695 1_445
F6 Fe2 2.237343 1_445
F7 Li11 2.079610 1_555
F7 Li4 2.090260 1_555
F7 Li0 2.097710 1_555
F7 Li2 2.111234 1_555
F7 Li6 2.118598 1_555
F7 Fe0 2.237489 1_555
F8 Li10 2.079723 1_665
F8 Li4 2.090125 1_555
F8 Li0 2.097660 1_565
F8 Li2 2.111252 1_655
F8 Li6 2.118683 1_665
F8 Fe2 2.237360 1_554
F9 Li11 2.079618 1_556
F9 Li5 2.090260 1_555
F9 Li1 2.097706 1_555
F9 Li3 2.111242 1_555
F9 Li7 2.118606 1_555
F9 Fe0 2.237429 1_555
F10 Li8 2.079644 1_555
F10 Li5 2.090241 1_555
F10 Li1 2.097631 1_555
F10 Li3 2.111295 1_455
F10 Li7 2.118636 1_455
F10 Fe1 2.237420 1_555
F11 Li9 2.079723 1_565
F11 Li4 2.090107 1_555
F11 Li0 2.097628 1_565
F11 Li2 2.111255 1_555
F11 Li6 2.118730 1_565
F11 Fe3 2.237361 1_565
