# generated using pymatgen
data_Li9Al(CoO4)2
_symmetry_space_group_name_H-M   'P 1'
_cell_length_a   6.38820800
_cell_length_b   7.57898300
_cell_length_c   15.93186900
_cell_angle_alpha   90.00000000
_cell_angle_beta   90.00000000
_cell_angle_gamma   90.00000000
_symmetry_Int_Tables_number   1
_chemical_formula_structural   Li9Al(CoO4)2
_chemical_formula_sum   'Li36 Al4 Co8 O32'
_cell_volume   771.35927866
_cell_formula_units_Z   4
loop_
 _symmetry_equiv_pos_site_id
 _symmetry_equiv_pos_as_xyz
  1  'x, y, z'
loop_
 _atom_site_type_symbol
 _atom_site_label
 _atom_site_symmetry_multiplicity
 _atom_site_fract_x
 _atom_site_fract_y
 _atom_site_fract_z
 _atom_site_occupancy
  Li  Li0  1  0.01835500  0.53393700  0.06911600  1
  Li  Li1  1  0.48164500  0.53393700  0.06911600  1
  Li  Li2  1  0.75000000  0.33813200  0.14141900  1
  Li  Li3  1  0.00883700  0.10087600  0.11995400  1
  Li  Li4  1  0.49116300  0.10087600  0.11995400  1
  Li  Li5  1  0.25000000  0.33040200  0.16145800  1
  Li  Li6  1  0.75000000  0.80490200  0.19405100  1
  Li  Li7  1  0.50929700  0.55069500  0.21140300  1
  Li  Li8  1  0.99070300  0.55069500  0.21140300  1
  Li  Li9  1  0.00929700  0.05069500  0.28859700  1
  Li  Li10  1  0.49070300  0.05069500  0.28859700  1
  Li  Li11  1  0.25000000  0.30490200  0.30594900  1
  Li  Li12  1  0.75000000  0.83040200  0.33854200  1
  Li  Li13  1  0.99116300  0.60087600  0.38004600  1
  Li  Li14  1  0.50883700  0.60087600  0.38004600  1
  Li  Li15  1  0.25000000  0.83813200  0.35858100  1
  Li  Li16  1  0.51835500  0.03393700  0.43088400  1
  Li  Li17  1  0.98164500  0.03393700  0.43088400  1
  Li  Li18  1  0.01835500  0.96606300  0.56911600  1
  Li  Li19  1  0.48164500  0.96606300  0.56911600  1
  Li  Li20  1  0.75000000  0.16186800  0.64141900  1
  Li  Li21  1  0.49116300  0.39912400  0.61995400  1
  Li  Li22  1  0.00883700  0.39912400  0.61995400  1
  Li  Li23  1  0.25000000  0.16959800  0.66145800  1
  Li  Li24  1  0.75000000  0.69509800  0.69405100  1
  Li  Li25  1  0.50929700  0.94930500  0.71140300  1
  Li  Li26  1  0.99070300  0.94930500  0.71140300  1
  Li  Li27  1  0.00929700  0.44930500  0.78859700  1
  Li  Li28  1  0.49070300  0.44930500  0.78859700  1
  Li  Li29  1  0.25000000  0.19509800  0.80594900  1
  Li  Li30  1  0.75000000  0.66959800  0.83854200  1
  Li  Li31  1  0.99116300  0.89912400  0.88004600  1
  Li  Li32  1  0.50883700  0.89912400  0.88004600  1
  Li  Li33  1  0.25000000  0.66186800  0.85858100  1
  Li  Li34  1  0.51835500  0.46606300  0.93088400  1
  Li  Li35  1  0.98164500  0.46606300  0.93088400  1
  Al  Al0  1  0.25000000  0.83935100  0.00475100  1
  Al  Al1  1  0.75000000  0.33935100  0.49524900  1
  Al  Al2  1  0.25000000  0.66064900  0.50475100  1
  Al  Al3  1  0.75000000  0.16064900  0.99524900  1
  Co  Co0  1  0.75000000  0.76825400  0.03299900  1
  Co  Co1  1  0.25000000  0.79645800  0.19841300  1
  Co  Co2  1  0.75000000  0.29645800  0.30158700  1
  Co  Co3  1  0.25000000  0.26825400  0.46700100  1
  Co  Co4  1  0.75000000  0.73174600  0.53299900  1
  Co  Co5  1  0.25000000  0.70354200  0.69841300  1
  Co  Co6  1  0.75000000  0.20354200  0.80158700  1
  Co  Co7  1  0.25000000  0.23174600  0.96700100  1
  O  O0  1  0.97659200  0.28947400  0.02366100  1
  O  O1  1  0.52340800  0.28947400  0.02366100  1
  O  O2  1  0.75000000  0.00514300  0.08333700  1
  O  O3  1  0.75000000  0.59136400  0.12929100  1
  O  O4  1  0.25000000  0.56850500  0.14156100  1
  O  O5  1  0.25000000  0.96022700  0.10059500  1
  O  O6  1  0.50317900  0.27882000  0.22322700  1
  O  O7  1  0.99682100  0.27882000  0.22322700  1
  O  O8  1  0.00317900  0.77882000  0.27677300  1
  O  O9  1  0.49682100  0.77882000  0.27677300  1
  O  O10  1  0.75000000  0.46022700  0.39940500  1
  O  O11  1  0.75000000  0.06850500  0.35843900  1
  O  O12  1  0.25000000  0.09136400  0.37070900  1
  O  O13  1  0.25000000  0.50514300  0.41666300  1
  O  O14  1  0.47659200  0.78947400  0.47633900  1
  O  O15  1  0.02340800  0.78947400  0.47633900  1
  O  O16  1  0.97659200  0.21052600  0.52366100  1
  O  O17  1  0.52340800  0.21052600  0.52366100  1
  O  O18  1  0.75000000  0.49485700  0.58333700  1
  O  O19  1  0.75000000  0.90863600  0.62929100  1
  O  O20  1  0.25000000  0.93149500  0.64156100  1
  O  O21  1  0.25000000  0.53977300  0.60059500  1
  O  O22  1  0.50317900  0.22118000  0.72322700  1
  O  O23  1  0.99682100  0.22118000  0.72322700  1
  O  O24  1  0.00317900  0.72118000  0.77677300  1
  O  O25  1  0.49682100  0.72118000  0.77677300  1
  O  O26  1  0.75000000  0.03977300  0.89940500  1
  O  O27  1  0.75000000  0.43149500  0.85843900  1
  O  O28  1  0.25000000  0.40863600  0.87070900  1
  O  O29  1  0.25000000  0.99485700  0.91666300  1
  O  O30  1  0.47659200  0.71052600  0.97633900  1
  O  O31  1  0.02340800  0.71052600  0.97633900  1
loop_
_geom_bond_atom_site_label_1
_geom_bond_atom_site_label_2
_geom_bond_distance
_geom_bond_site_symmetry_2
Li0 O4 1.894882 1_555
Li0 O31 1.994261 1_554
Li0 O0 2.007091 1_455
Li0 O3 2.011812 1_455
Li1 O4 1.894882 1_555
Li1 O30 1.994261 1_554
Li1 O1 2.007091 1_555
Li1 O3 2.011812 1_555
Li2 O3 1.928943 1_555
Li2 O7 2.094499 1_555
Li2 O6 2.094499 1_555
Li2 O0 2.398139 1_555
Li2 O1 2.398139 1_555
Li3 O2 1.897588 1_455
Li3 O5 1.898652 1_545
Li3 O0 2.106919 1_455
Li3 O7 2.128808 1_455
Li4 O2 1.897588 1_555
Li4 O5 1.898652 1_545
Li4 O1 2.106919 1_555
Li4 O6 2.128808 1_555
Li5 O4 1.832209 1_555
Li5 O6 1.933166 1_555
Li5 O7 1.933166 1_455
Li6 O3 1.919303 1_555
Li6 O8 2.095670 1_655
Li6 O9 2.095670 1_555
Li6 O2 2.326898 1_565
Li7 O4 2.000039 1_555
Li7 O9 2.019973 1_555
Li7 O3 2.042251 1_555
Li7 O6 2.069498 1_555
Li8 O4 2.000039 1_655
Li8 O8 2.019973 1_655
Li8 O3 2.042251 1_555
Li8 O7 2.069498 1_555
Li9 O11 2.000039 1_455
Li9 O7 2.019973 1_455
Li9 O12 2.042251 1_555
Li9 O8 2.069498 1_545
Li10 O11 2.000039 1_555
Li10 O6 2.019973 1_555
Li10 O12 2.042251 1_555
Li10 O9 2.069498 1_545
Li11 O12 1.919303 1_555
Li11 O6 2.095670 1_555
Li11 O7 2.095670 1_455
Li11 O13 2.326898 1_555
Li12 O11 1.832209 1_565
Li12 O8 1.933166 1_655
Li12 O9 1.933166 1_555
Li13 O13 1.897588 1_655
Li13 O10 1.898652 1_555
Li13 O15 2.106919 1_655
Li13 O8 2.128808 1_655
Li14 O13 1.897588 1_555
Li14 O10 1.898652 1_555
Li14 O14 2.106919 1_555
Li14 O9 2.128808 1_555
Li15 O12 1.928943 1_565
Li15 O9 2.094499 1_555
Li15 O8 2.094499 1_555
Li15 O14 2.398139 1_555
Li15 O15 2.398139 1_555
Li16 O11 1.894882 1_555
Li16 O17 1.994261 1_555
Li16 O14 2.007091 1_545
Li16 O12 2.011812 1_555
Li17 O11 1.894882 1_555
Li17 O16 1.994261 1_555
Li17 O15 2.007091 1_645
Li17 O12 2.011812 1_655
Li18 O20 1.894882 1_555
Li18 O15 1.994261 1_555
Li18 O16 2.007091 1_465
Li18 O19 2.011812 1_455
Li19 O20 1.894882 1_555
Li19 O14 1.994261 1_555
Li19 O17 2.007091 1_565
Li19 O19 2.011812 1_555
Li20 O19 1.928943 1_545
Li20 O23 2.094499 1_555
Li20 O22 2.094499 1_555
Li20 O16 2.398139 1_555
Li20 O17 2.398139 1_555
Li21 O18 1.897588 1_555
Li21 O21 1.898652 1_555
Li21 O17 2.106919 1_555
Li21 O22 2.128808 1_555
Li22 O18 1.897588 1_455
Li22 O21 1.898652 1_555
Li22 O16 2.106919 1_455
Li22 O23 2.128808 1_455
Li23 O20 1.832209 1_545
Li23 O22 1.933166 1_555
Li23 O23 1.933166 1_455
Li24 O19 1.919303 1_555
Li24 O24 2.095670 1_655
Li24 O25 2.095670 1_555
Li24 O18 2.326898 1_555
Li25 O20 2.000039 1_555
Li25 O25 2.019973 1_555
Li25 O19 2.042251 1_555
Li25 O22 2.069498 1_565
Li26 O20 2.000039 1_655
Li26 O24 2.019973 1_655
Li26 O19 2.042251 1_555
Li26 O23 2.069498 1_565
Li27 O27 2.000039 1_455
Li27 O23 2.019973 1_455
Li27 O28 2.042251 1_555
Li27 O24 2.069498 1_555
Li28 O27 2.000039 1_555
Li28 O22 2.019973 1_555
Li28 O28 2.042251 1_555
Li28 O25 2.069498 1_555
Li29 O28 1.919303 1_555
Li29 O22 2.095670 1_555
Li29 O23 2.095670 1_455
Li29 O29 2.326898 1_545
Li30 O27 1.832209 1_555
Li30 O24 1.933166 1_655
Li30 O25 1.933166 1_555
Li31 O29 1.897588 1_655
Li31 O26 1.898652 1_565
Li31 O31 2.106919 1_655
Li31 O24 2.128808 1_655
Li32 O29 1.897588 1_555
Li32 O26 1.898652 1_565
Li32 O30 2.106919 1_555
Li32 O25 2.128808 1_555
Li33 O28 1.928943 1_555
Li33 O25 2.094499 1_555
Li33 O24 2.094499 1_555
Li33 O30 2.398139 1_555
Li33 O31 2.398139 1_555
Li34 O27 1.894882 1_555
Li34 O1 1.994261 1_556
Li34 O30 2.007091 1_555
Li34 O28 2.011812 1_555
Li35 O27 1.894882 1_555
Li35 O0 1.994261 1_556
Li35 O31 2.007091 1_655
Li35 O28 2.011812 1_655
Al0 O5 1.780708 1_555
Al0 O30 1.803742 1_554
Al0 O31 1.803742 1_554
Al0 O29 1.832647 1_554
Al1 O10 1.780708 1_555
Al1 O16 1.803742 1_555
Al1 O17 1.803742 1_555
Al1 O18 1.832647 1_555
Al2 O21 1.780708 1_555
Al2 O14 1.803742 1_555
Al2 O15 1.803742 1_555
Al2 O13 1.832647 1_555
Al3 O26 1.780708 1_555
Al3 O0 1.803742 1_556
Al3 O1 1.803742 1_556
Al3 O2 1.832647 1_556
Co0 O2 1.966355 1_565
Co0 O31 2.014164 1_654
Co0 O30 2.014164 1_554
Co0 O3 2.037359 1_555
Co1 O4 1.950687 1_555
Co1 O5 1.992302 1_555
Co1 O9 2.015576 1_555
Co1 O8 2.015576 1_555
Co2 O11 1.950687 1_555
Co2 O10 1.992302 1_555
Co2 O7 2.015576 1_555
Co2 O6 2.015576 1_555
Co3 O13 1.966355 1_555
Co3 O17 2.014164 1_555
Co3 O16 2.014164 1_455
Co3 O12 2.037359 1_555
Co4 O18 1.966355 1_555
Co4 O15 2.014164 1_655
Co4 O14 2.014164 1_555
Co4 O19 2.037359 1_555
Co5 O20 1.950687 1_555
Co5 O21 1.992302 1_555
Co5 O25 2.015576 1_555
Co5 O24 2.015576 1_555
Co6 O27 1.950687 1_555
Co6 O26 1.992302 1_555
Co6 O23 2.015576 1_555
Co6 O22 2.015576 1_555
Co7 O29 1.966355 1_545
Co7 O1 2.014164 1_556
Co7 O0 2.014164 1_456
Co7 O28 2.037359 1_555
