# generated using pymatgen
data_Li2VO2F
_symmetry_space_group_name_H-M   'P 1'
_cell_length_a   2.99092100
_cell_length_b   5.10108600
_cell_length_c   7.20666918
_cell_angle_alpha   89.11063445
_cell_angle_beta   90.00000000
_cell_angle_gamma   90.00000000
_symmetry_Int_Tables_number   1
_chemical_formula_structural   Li2VO2F
_chemical_formula_sum   'Li4 V2 O4 F2'
_cell_volume   109.93851127
_cell_formula_units_Z   2
loop_
 _symmetry_equiv_pos_site_id
 _symmetry_equiv_pos_as_xyz
  1  'x, y, z'
loop_
 _atom_site_type_symbol
 _atom_site_label
 _atom_site_symmetry_multiplicity
 _atom_site_fract_x
 _atom_site_fract_y
 _atom_site_fract_z
 _atom_site_occupancy
  Li  Li0  1  0.00000000  0.83467800  0.32345300  1
  Li  Li1  1  0.00000000  0.50000000  0.00000000  1
  Li  Li2  1  0.50000000  0.00000000  0.00000000  1
  Li  Li3  1  0.00000000  0.16532200  0.67654700  1
  V  V0  1  0.50000000  0.30057900  0.34116300  1
  V  V1  1  0.50000000  0.69942100  0.65883700  1
  O  O0  1  0.00000000  0.50000000  0.50000000  1
  O  O1  1  0.50000000  0.00000000  0.50000000  1
  O  O2  1  0.00000000  0.82189800  0.82296000  1
  O  O3  1  0.00000000  0.17810200  0.17704000  1
  F  F0  1  0.50000000  0.65300000  0.17235600  1
  F  F1  1  0.50000000  0.34700000  0.82764400  1
loop_
_geom_bond_atom_site_label_1
_geom_bond_atom_site_label_2
_geom_bond_distance
_geom_bond_site_symmetry_2
Li0 O3 2.030982 1_565
Li0 O0 2.113282 1_555
Li0 O1 2.144689 1_565
Li0 O1 2.144689 1_465
Li1 O2 2.063750 1_554
Li1 O3 2.063750 1_555
Li2 O3 2.173850 1_655
Li2 O3 2.173850 1_555
Li2 O2 2.173850 1_544
Li2 O2 2.173850 1_644
Li3 O2 2.030982 1_545
Li3 O0 2.113282 1_555
Li3 O1 2.144689 1_455
Li3 O1 2.144689 1_555
O0 V1 2.148879 1_555
O0 V1 2.148879 1_455
O0 V0 2.148879 1_455
O0 V0 2.148879 1_555
O1 V0 1.899149 1_555
O1 V1 1.899149 1_545
O2 V1 2.012124 1_555
O2 V1 2.012124 1_455
O3 V0 2.012124 1_555
O3 V0 2.012124 1_455
F0 Li0 2.076613 1_555
F0 Li0 2.076613 1_655
F0 Li1 2.102015 1_555
F0 Li1 2.102015 1_655
F0 Li2 2.146570 1_565
F0 V0 2.154971 1_555
F1 Li3 2.076613 1_555
F1 Li3 2.076613 1_655
F1 Li1 2.102015 1_556
F1 Li1 2.102015 1_656
F1 Li2 2.146570 1_556
F1 V1 2.154971 1_555
