# generated using pymatgen
data_Sb3PO7
_symmetry_space_group_name_H-M   'P 1'
_cell_length_a   9.59397922
_cell_length_b   9.59397922
_cell_length_c   12.50392840
_cell_angle_alpha   76.19367092
_cell_angle_beta   76.19367092
_cell_angle_gamma   90.17888976
_symmetry_Int_Tables_number   1
_chemical_formula_structural   Sb3PO7
_chemical_formula_sum   'Sb18 P6 O42'
_cell_volume   1083.16878043
_cell_formula_units_Z   6
loop_
 _symmetry_equiv_pos_site_id
 _symmetry_equiv_pos_as_xyz
  1  'x, y, z'
loop_
 _atom_site_type_symbol
 _atom_site_label
 _atom_site_symmetry_multiplicity
 _atom_site_fract_x
 _atom_site_fract_y
 _atom_site_fract_z
 _atom_site_occupancy
  Sb  Sb0  1  0.12375000  0.43942200  0.04883500  1
  Sb  Sb1  1  0.43942200  0.12375000  0.04883500  1
  Sb  Sb2  1  0.17910800  0.48594800  0.37719800  1
  Sb  Sb3  1  0.48594800  0.17910800  0.37719800  1
  Sb  Sb4  1  0.19645700  0.82272700  0.17844100  1
  Sb  Sb5  1  0.82272700  0.19645700  0.17844100  1
  Sb  Sb6  1  0.53406100  0.22253700  0.72853600  1
  Sb  Sb7  1  0.22253700  0.53406100  0.72853600  1
  Sb  Sb8  1  0.11633300  0.81930400  0.49633700  1
  Sb  Sb9  1  0.81930400  0.11633300  0.49633700  1
  Sb  Sb10  1  0.17431400  0.83472200  0.83733100  1
  Sb  Sb11  1  0.83472200  0.17431400  0.83733100  1
  Sb  Sb12  1  0.81972500  0.48579300  0.32485200  1
  Sb  Sb13  1  0.48579300  0.81972500  0.32485200  1
  Sb  Sb14  1  0.51011900  0.87372500  0.62373900  1
  Sb  Sb15  1  0.87372500  0.51011900  0.62373900  1
  Sb  Sb16  1  0.48389000  0.83834100  0.92635200  1
  Sb  Sb17  1  0.83834100  0.48389000  0.92635200  1
  P  P0  1  0.16758400  0.16758400  0.28567500  1
  P  P1  1  0.17489300  0.17489300  0.91476800  1
  P  P2  1  0.50423300  0.50423300  0.46149100  1
  P  P3  1  0.47817400  0.47817400  0.87673400  1
  P  P4  1  0.85812300  0.85812300  0.35011400  1
  P  P5  1  0.82164400  0.82164400  0.72661600  1
  O  O0  1  0.07176600  0.07176600  0.39632400  1
  O  O1  1  0.26328800  0.07337900  0.21610000  1
  O  O2  1  0.07337900  0.26328800  0.21610000  1
  O  O3  1  0.07379200  0.07379200  0.88562500  1
  O  O4  1  0.27206400  0.27206400  0.31627900  1
  O  O5  1  0.60003600  0.16287500  0.22650100  1
  O  O6  1  0.16287500  0.60003600  0.22650100  1
  O  O7  1  0.07847100  0.26415900  0.99109000  1
  O  O8  1  0.26415900  0.07847100  0.99109000  1
  O  O9  1  0.27421000  0.27421000  0.80980000  1
  O  O10  1  0.08150200  0.59343600  0.55892700  1
  O  O11  1  0.59343600  0.08150200  0.55892700  1
  O  O12  1  0.40307000  0.40307000  0.56129000  1
  O  O13  1  0.50000600  0.50000600  0.33973100  1
  O  O14  1  0.54697900  0.08156700  0.88619700  1
  O  O15  1  0.08156700  0.54697900  0.88619700  1
  O  O16  1  0.26314400  0.77565600  0.33834200  1
  O  O17  1  0.77565600  0.26314400  0.33834200  1
  O  O18  1  0.36991300  0.36991300  0.97516000  1
  O  O19  1  0.89034700  0.41785200  0.09542600  1
  O  O20  1  0.41785200  0.89034700  0.09542600  1
  O  O21  1  0.22578200  0.75468900  0.69100100  1
  O  O22  1  0.75468900  0.22578200  0.69100100  1
  O  O23  1  0.66522100  0.47027300  0.47288000  1
  O  O24  1  0.47027300  0.66522100  0.47288000  1
  O  O25  1  0.57940500  0.39231400  0.79995600  1
  O  O26  1  0.39231400  0.57940500  0.79995600  1
  O  O27  1  0.76410100  0.27138600  0.97098700  1
  O  O28  1  0.27138600  0.76410100  0.97098700  1
  O  O29  1  0.96339000  0.42876000  0.42173300  1
  O  O30  1  0.42876000  0.96339000  0.42173300  1
  O  O31  1  0.75198900  0.75198900  0.33272300  1
  O  O32  1  0.57039200  0.57039200  0.92034000  1
  O  O33  1  0.92686900  0.38917500  0.76780100  1
  O  O34  1  0.38917500  0.92686900  0.76780100  1
  O  O35  1  0.95480200  0.76686600  0.42447700  1
  O  O36  1  0.76686600  0.95480200  0.42447700  1
  O  O37  1  0.84999200  0.66065600  0.72255800  1
  O  O38  1  0.66065600  0.84999200  0.72255800  1
  O  O39  1  0.95201300  0.95201300  0.24057400  1
  O  O40  1  0.84687500  0.84687500  0.83437100  1
  O  O41  1  0.91755300  0.91755300  0.61287100  1
loop_
_geom_bond_atom_site_label_1
_geom_bond_atom_site_label_2
_geom_bond_distance
_geom_bond_site_symmetry_2
O0 P0 1.544341 1_555
O0 Sb8 2.535615 1_545
O0 Sb9 2.535615 1_455
O1 P0 1.554335 1_555
O1 Sb1 2.299778 1_555
O2 P0 1.554335 1_555
O2 Sb0 2.299778 1_555
O3 P1 1.531652 1_555
O3 Sb11 2.636740 1_455
O3 Sb10 2.636740 1_545
O4 P0 1.586140 1_555
O4 Sb3 2.453464 1_555
O4 Sb2 2.453464 1_555
O5 Sb3 1.982337 1_555
O5 Sb5 2.078471 1_555
O6 Sb2 1.982337 1_555
O6 Sb4 2.078471 1_555
O7 P1 1.572773 1_555
O7 Sb0 2.064459 1_556
O8 P1 1.572773 1_555
O8 Sb1 2.064459 1_556
O9 P1 1.529396 1_555
O9 Sb6 2.555864 1_555
O9 Sb7 2.555864 1_555
O10 Sb15 2.044314 1_455
O10 Sb8 2.116875 1_555
O10 Sb7 2.729627 1_555
O11 Sb14 2.044314 1_545
O11 Sb9 2.116875 1_555
O11 Sb6 2.729627 1_555
O12 P2 1.509693 1_555
O13 P2 1.542775 1_555
O14 Sb6 2.139155 1_555
O14 Sb1 2.181292 1_556
O14 Sb16 2.313143 1_545
O15 Sb7 2.139155 1_555
O15 Sb0 2.181292 1_556
O15 Sb17 2.313143 1_455
O16 Sb13 2.135051 1_555
O16 Sb4 2.189117 1_555
O16 Sb8 2.265507 1_555
O17 Sb12 2.135051 1_555
O17 Sb5 2.189117 1_555
O17 Sb9 2.265507 1_555
O18 P3 1.563751 1_555
O18 Sb1 2.477008 1_556
O18 Sb0 2.477008 1_556
O19 Sb5 2.151197 1_555
O19 Sb0 2.171049 1_655
O19 Sb17 2.232905 1_554
O20 Sb4 2.151197 1_555
O20 Sb1 2.171049 1_565
O20 Sb16 2.232905 1_554
O21 Sb7 2.054295 1_555
O21 Sb10 2.103066 1_555
O22 Sb6 2.054295 1_555
O22 Sb11 2.103066 1_555
O23 P2 1.611812 1_555
O23 Sb12 2.050108 1_555
O24 P2 1.611812 1_555
O24 Sb13 2.050108 1_555
O25 P3 1.575077 1_555
O25 Sb6 2.124880 1_555
O26 P3 1.575077 1_555
O26 Sb7 2.124880 1_555
O27 Sb17 2.057538 1_555
O27 Sb11 2.079841 1_555
O28 Sb16 2.057538 1_555
O28 Sb10 2.079841 1_555
O29 Sb12 2.037619 1_555
O29 Sb2 2.047284 1_655
O30 Sb13 2.037619 1_555
O30 Sb3 2.047284 1_565
O31 P4 1.525068 1_555
O31 Sb12 2.655956 1_555
O31 Sb13 2.655956 1_555
O32 P3 1.522632 1_555
O32 Sb17 2.716366 1_555
O32 Sb16 2.716366 1_555
O33 Sb15 2.072587 1_555
O33 Sb11 2.133796 1_555
O33 Sb17 2.353386 1_555
O34 Sb14 2.072587 1_555
O34 Sb10 2.133796 1_555
O34 Sb16 2.353386 1_555
O35 P4 1.587323 1_555
O35 Sb8 2.082689 1_655
O36 P4 1.587323 1_555
O36 Sb9 2.082689 1_565
O37 P5 1.579719 1_555
O37 Sb15 2.093795 1_555
O37 Sb17 2.679978 1_555
O38 P5 1.579719 1_555
O38 Sb14 2.093795 1_555
O38 Sb16 2.679978 1_555
O39 P4 1.521855 1_555
O40 P5 1.497844 1_555
O41 P5 1.568966 1_555
O41 Sb9 2.447281 1_565
O41 Sb8 2.447281 1_655
