# generated using pymatgen
data_K5H3S4N2O15
_symmetry_space_group_name_H-M   'P 1'
_cell_length_a   12.02018600
_cell_length_b   14.16708791
_cell_length_c   16.31798638
_cell_angle_alpha   86.25180403
_cell_angle_beta   77.07621536
_cell_angle_gamma   73.69346004
_symmetry_Int_Tables_number   1
_chemical_formula_structural   K5H3S4N2O15
_chemical_formula_sum   'K30 H18 S24 N12 O90'
_cell_volume   2599.45462358
_cell_formula_units_Z   6
loop_
 _symmetry_equiv_pos_site_id
 _symmetry_equiv_pos_as_xyz
  1  'x, y, z'
loop_
 _atom_site_type_symbol
 _atom_site_label
 _atom_site_symmetry_multiplicity
 _atom_site_fract_x
 _atom_site_fract_y
 _atom_site_fract_z
 _atom_site_occupancy
  K  K0  1  0.59519900  0.91752000  0.15850200  1
  K  K1  1  0.40480100  0.08248000  0.84149800  1
  K  K2  1  0.78038300  0.74366100  0.48578100  1
  K  K3  1  0.21961700  0.25633900  0.51421900  1
  K  K4  1  0.92914100  0.57422200  0.82760100  1
  K  K5  1  0.07085900  0.42577800  0.17239900  1
  K  K6  1  0.86450100  0.06284500  0.07471600  1
  K  K7  1  0.13549900  0.93715500  0.92528400  1
  K  K8  1  0.03089400  0.88300800  0.41996600  1
  K  K9  1  0.96910600  0.11699200  0.58003400  1
  K  K10  1  0.18273700  0.71200400  0.75464400  1
  K  K11  1  0.81726300  0.28799600  0.24535600  1
  K  K12  1  0.35295800  0.53766800  0.09151500  1
  K  K13  1  0.64704200  0.46233200  0.90848500  1
  K  K14  1  0.52022100  0.37605800  0.41526300  1
  K  K15  1  0.47977900  0.62394200  0.58473700  1
  K  K16  1  0.69629400  0.22102000  0.73954700  1
  K  K17  1  0.30370600  0.77898000  0.26045300  1
  K  K18  1  0.01279200  0.70038900  0.06318800  1
  K  K19  1  0.98720800  0.29961100  0.93681200  1
  K  K20  1  0.17155400  0.52828100  0.39957600  1
  K  K21  1  0.82844600  0.47171900  0.60042400  1
  K  K22  1  0.27507200  0.35353800  0.74454400  1
  K  K23  1  0.72492800  0.64646200  0.25545600  1
  K  K24  1  0.43191800  0.19339500  0.07435700  1
  K  K25  1  0.56808200  0.80660500  0.92564300  1
  K  K26  1  0.58579800  0.03763300  0.39697900  1
  K  K27  1  0.41420200  0.96236700  0.60302100  1
  K  K28  1  0.84247000  0.87109200  0.72721000  1
  K  K29  1  0.15753000  0.12890800  0.27279000  1
  H  H0  1  0.91647300  0.08242300  0.83013700  1
  H  H1  1  0.08352700  0.91757700  0.16986300  1
  H  H2  1  0.75209100  0.25827500  0.49392700  1
  H  H3  1  0.24790900  0.74172500  0.50607300  1
  H  H4  1  0.57967400  0.41910900  0.16312500  1
  H  H5  1  0.42032600  0.58089100  0.83687500  1
  H  H6  1  0.73172500  0.22619700  0.95648100  1
  H  H7  1  0.26827500  0.77380300  0.04351900  1
  H  H8  1  0.90940200  0.04833500  0.29233900  1
  H  H9  1  0.09059800  0.95166500  0.70766100  1
  H  H10  1  0.57975600  0.38776900  0.62904700  1
  H  H11  1  0.42024400  0.61223100  0.37095300  1
  H  H12  1  0.71923600  0.28736500  0.03685500  1
  H  H13  1  0.28076400  0.71263500  0.96314500  1
  H  H14  1  0.88217700  0.10957100  0.37473700  1
  H  H15  1  0.11782300  0.89042900  0.62526300  1
  H  H16  1  0.55914600  0.44953900  0.71109500  1
  H  H17  1  0.44085400  0.55046100  0.28890500  1
  S  S0  1  0.82502400  0.49817300  0.06488100  1
  S  S1  1  0.17497600  0.50182700  0.93511900  1
  S  S2  1  0.99144800  0.32543200  0.40054800  1
  S  S3  1  0.00855200  0.67456800  0.59945200  1
  S  S4  1  0.15867900  0.12554500  0.73564200  1
  S  S5  1  0.84132100  0.87445500  0.26435800  1
  S  S6  1  0.32625900  0.95987300  0.07040600  1
  S  S7  1  0.67374100  0.04012700  0.92959400  1
  S  S8  1  0.49742600  0.80478400  0.40224800  1
  S  S9  1  0.50257400  0.19521600  0.59775200  1
  S  S10  1  0.66374400  0.66805000  0.73114100  1
  S  S11  1  0.33625600  0.33195000  0.26885900  1
  S  S12  1  0.57793500  0.63819900  0.09600200  1
  S  S13  1  0.42206500  0.36180100  0.90399800  1
  S  S14  1  0.75301800  0.47610400  0.41580500  1
  S  S15  1  0.24698200  0.52389600  0.58419500  1
  S  S16  1  0.95347100  0.30338600  0.73927300  1
  S  S17  1  0.04652900  0.69661400  0.26072700  1
  S  S18  1  0.11740000  0.13527500  0.07642800  1
  S  S19  1  0.88260000  0.86472500  0.92357200  1
  S  S20  1  0.26802400  0.96119600  0.43509100  1
  S  S21  1  0.73197600  0.03880400  0.56490900  1
  S  S22  1  0.41223800  0.79853900  0.76896000  1
  S  S23  1  0.58776200  0.20146100  0.23104000  1
  N  N0  1  0.67499400  0.52317400  0.11758200  1
  N  N1  1  0.32500600  0.47682600  0.88241800  1
  N  N2  1  0.83910000  0.36055800  0.44671100  1
  N  N3  1  0.16090000  0.63944200  0.55328900  1
  N  N4  1  0.00773800  0.18348800  0.77876300  1
  N  N5  1  0.99226200  0.81651200  0.22123700  1
  N  N6  1  0.17554500  0.01677300  0.11654100  1
  N  N7  1  0.82445500  0.98322700  0.88345900  1
  N  N8  1  0.34703300  0.84034900  0.45596000  1
  N  N9  1  0.65296700  0.15965100  0.54404000  1
  N  N10  1  0.51564600  0.68633800  0.78804300  1
  N  N11  1  0.48435400  0.31366200  0.21195700  1
  O  O0  1  0.62617000  0.44985300  0.09711000  1
  O  O1  1  0.37383000  0.55014700  0.90289000  1
  O  O2  1  0.78604200  0.28917000  0.42799200  1
  O  O3  1  0.21395800  0.71083000  0.57200800  1
  O  O4  1  0.93830200  0.12440200  0.76161700  1
  O  O5  1  0.06169800  0.87559800  0.23838300  1
  O  O6  1  0.10439100  0.95744500  0.10292000  1
  O  O7  1  0.89560900  0.04255500  0.89708000  1
  O  O8  1  0.28503100  0.77757500  0.43473700  1
  O  O9  1  0.71496900  0.22242500  0.56526300  1
  O  O10  1  0.46990000  0.61031900  0.76936300  1
  O  O11  1  0.53010000  0.38968100  0.23063700  1
  O  O12  1  0.87886400  0.40019500  0.09643900  1
  O  O13  1  0.12113600  0.59980500  0.90356100  1
  O  O14  1  0.03487100  0.22712700  0.43564000  1
  O  O15  1  0.96512900  0.77287300  0.56436000  1
  O  O16  1  0.17657600  0.02572600  0.77099400  1
  O  O17  1  0.82342400  0.97427400  0.22900600  1
  O  O18  1  0.34451600  0.85827900  0.10129800  1
  O  O19  1  0.65548400  0.14172100  0.89870200  1
  O  O20  1  0.53279300  0.69769900  0.41489700  1
  O  O21  1  0.46720700  0.30230100  0.58510300  1
  O  O22  1  0.72412500  0.57090800  0.76092100  1
  O  O23  1  0.27587500  0.42909200  0.23907900  1
  O  O24  1  0.86711500  0.57493200  0.09380200  1
  O  O25  1  0.13288500  0.42506800  0.90619800  1
  O  O26  1  0.03738000  0.39889900  0.42993000  1
  O  O27  1  0.96262000  0.60110100  0.57007000  1
  O  O28  1  0.22267100  0.18330600  0.76852400  1
  O  O29  1  0.77732900  0.81669400  0.23147600  1
  O  O30  1  0.39144200  0.01461500  0.10553100  1
  O  O31  1  0.60855800  0.98538500  0.89446900  1
  O  O32  1  0.55471300  0.85623100  0.44843100  1
  O  O33  1  0.44528700  0.14376900  0.55156900  1
  O  O34  1  0.70073400  0.74771100  0.76015100  1
  O  O35  1  0.29926600  0.25228900  0.23984900  1
  O  O36  1  0.83283800  0.49836900  0.97342500  1
  O  O37  1  0.16716200  0.50163100  0.02657500  1
  O  O38  1  0.00597500  0.32261000  0.30837300  1
  O  O39  1  0.99402500  0.67739000  0.69162700  1
  O  O40  1  0.17959500  0.12444800  0.64341000  1
  O  O41  1  0.82040500  0.87555200  0.35659000  1
  O  O42  1  0.34459400  0.96467100  0.97803000  1
  O  O43  1  0.65540600  0.03532900  0.02197000  1
  O  O44  1  0.50799500  0.83196200  0.31278700  1
  O  O45  1  0.49200500  0.16803800  0.68721300  1
  O  O46  1  0.66762600  0.66963100  0.64028600  1
  O  O47  1  0.33237400  0.33036900  0.35971400  1
  O  O48  1  0.47287700  0.63793600  0.16195500  1
  O  O49  1  0.52712300  0.36206400  0.83804500  1
  O  O50  1  0.64027500  0.48416600  0.47513500  1
  O  O51  1  0.35972500  0.51583400  0.52486500  1
  O  O52  1  0.83094000  0.33295100  0.78741300  1
  O  O53  1  0.16906000  0.66704900  0.21258700  1
  O  O54  1  0.00085500  0.16781000  0.13280700  1
  O  O55  1  0.99914500  0.83219000  0.86719300  1
  O  O56  1  0.15917900  0.97424100  0.50071800  1
  O  O57  1  0.84082100  0.02575900  0.49928200  1
  O  O58  1  0.31040500  0.79444200  0.83690800  1
  O  O59  1  0.68959500  0.20555800  0.16309200  1
  O  O60  1  0.63392400  0.71462000  0.10702400  1
  O  O61  1  0.36607600  0.28538000  0.89297600  1
  O  O62  1  0.81306800  0.54876600  0.42893200  1
  O  O63  1  0.18693200  0.45123400  0.57106800  1
  O  O64  1  0.02748200  0.36070300  0.76082800  1
  O  O65  1  0.97251800  0.63929700  0.23917200  1
  O  O66  1  0.19878000  0.19166200  0.08577200  1
  O  O67  1  0.80122000  0.80833800  0.91422800  1
  O  O68  1  0.34148000  0.02464800  0.44515600  1
  O  O69  1  0.65852000  0.97535200  0.55484400  1
  O  O70  1  0.46395400  0.87855400  0.77756000  1
  O  O71  1  0.53604600  0.12144600  0.22244000  1
  O  O72  1  0.55723100  0.63459800  0.01077400  1
  O  O73  1  0.44276900  0.36540200  0.98922600  1
  O  O74  1  0.74501300  0.46775100  0.32796600  1
  O  O75  1  0.25498700  0.53224900  0.67203400  1
  O  O76  1  0.96192200  0.29635200  0.64850100  1
  O  O77  1  0.03807800  0.70364800  0.35149900  1
  O  O78  1  0.10935800  0.12424700  0.98907100  1
  O  O79  1  0.89064200  0.87575300  0.01092900  1
  O  O80  1  0.24412600  0.96262600  0.35030500  1
  O  O81  1  0.75587400  0.03737400  0.64969500  1
  O  O82  1  0.38736600  0.79389900  0.68516700  1
  O  O83  1  0.61263400  0.20610100  0.31483300  1
  O  O84  1  0.23104200  0.73276200  0.01885500  1
  O  O85  1  0.76895800  0.26723800  0.98114500  1
  O  O86  1  0.93616200  0.09480400  0.32011200  1
  O  O87  1  0.06383800  0.90519600  0.67988800  1
  O  O88  1  0.61414900  0.42747700  0.65804800  1
  O  O89  1  0.38585100  0.57252300  0.34195200  1
loop_
_geom_bond_atom_site_label_1
_geom_bond_atom_site_label_2
_geom_bond_distance
_geom_bond_site_symmetry_2
K0 O29 2.727409 1_555
K0 O30 2.745453 1_565
K0 O43 2.782785 1_565
K0 O44 2.835561 1_555
K0 O60 2.928222 1_555
K0 O71 2.974791 1_565
K1 O28 2.727409 1_555
K1 O31 2.745453 1_545
K1 O42 2.782785 1_545
K1 O45 2.835561 1_555
K1 O61 2.928222 1_555
K1 O70 2.974791 1_545
K2 O41 2.775450 1_555
K2 O62 2.863782 1_555
K2 O46 2.866612 1_555
K2 O32 2.907945 1_555
K2 O15 2.933603 1_555
K2 O27 3.044561 1_555
K2 O77 3.295122 1_655
K2 O69 3.351870 1_555
K3 O40 2.775450 1_555
K3 O63 2.863782 1_555
K3 O47 2.866612 1_555
K3 O33 2.907945 1_555
K3 O14 2.933603 1_555
K3 O26 3.044561 1_555
K3 O76 3.295122 1_455
K3 O68 3.351870 1_555
K4 O39 2.666410 1_555
K4 O36 2.699845 1_555
K4 O22 2.920637 1_555
K4 O13 2.966777 1_655
K4 O64 3.095425 1_655
K4 O25 3.201945 1_655
K5 O38 2.666410 1_555
K5 O37 2.699845 1_555
K5 O23 2.920637 1_555
K5 O12 2.966777 1_455
K5 O65 3.095425 1_455
K5 O24 3.201945 1_455
K6 O59 2.688049 1_555
K6 O17 2.745165 1_545
K6 O79 2.820334 1_545
K6 O54 2.836216 1_655
K6 O7 2.861545 1_554
K6 O43 2.961667 1_555
K6 O6 2.973564 1_645
K7 O58 2.688049 1_555
K7 O16 2.745165 1_565
K7 O78 2.820334 1_565
K7 O55 2.836216 1_455
K7 O6 2.861545 1_556
K7 O42 2.961667 1_555
K7 O7 2.973564 1_465
K8 O57 2.722107 1_465
K8 O77 2.813754 1_555
K8 O15 2.826657 1_455
K8 O56 2.834696 1_555
K8 O5 2.907917 1_555
K8 O41 2.969332 1_455
K8 O80 3.047366 1_555
K8 O8 3.056276 1_555
K9 O56 2.722107 1_645
K9 O76 2.813754 1_555
K9 O14 2.826657 1_655
K9 O57 2.834696 1_555
K9 O4 2.907917 1_555
K9 O40 2.969332 1_655
K9 O81 3.047366 1_555
K9 O9 3.056276 1_555
K10 O55 2.761889 1_455
K10 O58 2.766561 1_555
K10 O75 2.782053 1_555
K10 O39 2.859594 1_455
K10 O13 2.886344 1_555
K10 O3 2.919881 1_555
K10 O82 2.977354 1_555
K10 O87 3.027934 1_555
K11 O54 2.761889 1_655
K11 O59 2.766561 1_555
K11 O74 2.782053 1_555
K11 O38 2.859594 1_655
K11 O12 2.886344 1_555
K11 O2 2.919881 1_555
K11 O83 2.977354 1_555
K11 O86 3.027934 1_555
K12 O48 2.742490 1_555
K12 O37 2.853217 1_555
K12 O73 2.855634 1_554
K12 O23 2.888057 1_555
K12 O53 2.897224 1_555
K12 O1 3.029274 1_554
K12 O84 3.044147 1_555
K12 O72 3.140129 1_555
K12 O0 3.188430 1_555
K13 O49 2.742490 1_555
K13 O36 2.853217 1_555
K13 O72 2.855634 1_556
K13 O22 2.888057 1_555
K13 O52 2.897224 1_555
K13 O0 3.029274 1_556
K13 O85 3.044147 1_555
K13 O73 3.140129 1_555
K13 O1 3.188430 1_555
K14 O50 2.729487 1_555
K14 O51 2.759736 1_555
K14 O83 2.813678 1_555
K14 O47 2.855160 1_555
K14 O21 2.895542 1_555
K14 O11 2.984071 1_555
K14 O89 3.113081 1_555
K14 O2 3.134098 1_555
K14 O74 3.320408 1_555
K15 O51 2.729487 1_555
K15 O50 2.759736 1_555
K15 O82 2.813678 1_555
K15 O46 2.855160 1_555
K15 O20 2.895542 1_555
K15 O10 2.984071 1_555
K15 O88 3.113081 1_555
K15 O3 3.134098 1_555
K15 O75 3.320408 1_555
K16 O49 2.717960 1_555
K16 O19 2.757853 1_555
K16 O9 2.801510 1_555
K16 O52 2.812951 1_555
K16 O81 2.900753 1_555
K16 O4 2.938307 1_555
K16 O45 3.062596 1_555
K17 O48 2.717960 1_555
K17 O18 2.757853 1_555
K17 O8 2.801510 1_555
K17 O53 2.812951 1_555
K17 O80 2.900753 1_555
K17 O5 2.938307 1_555
K17 O44 3.062596 1_555
K18 O79 2.699982 1_455
K18 O84 2.720164 1_555
K18 O24 2.777612 1_455
K18 O13 2.904707 1_554
K18 O65 2.918665 1_455
K18 O37 2.918713 1_555
K18 N5 3.075849 1_455
K19 O78 2.699982 1_655
K19 O85 2.720164 1_555
K19 O25 2.777612 1_655
K19 O12 2.904707 1_556
K19 O64 2.918665 1_655
K19 O36 2.918713 1_555
K19 N4 3.075849 1_655
K20 O26 2.718501 1_555
K20 O77 2.726141 1_555
K20 O89 2.767378 1_555
K20 O23 2.903240 1_555
K20 O47 2.941731 1_555
K20 O63 2.962329 1_555
K20 N3 3.007906 1_555
K21 O27 2.718501 1_555
K21 O76 2.726141 1_555
K21 O88 2.767378 1_555
K21 O22 2.903240 1_555
K21 O46 2.941731 1_555
K21 O62 2.962329 1_555
K21 N2 3.007906 1_555
K22 O28 2.643011 1_555
K22 O75 2.694669 1_555
K22 O25 2.875167 1_555
K22 O61 2.877815 1_555
K22 O64 2.901396 1_555
K22 O21 3.040981 1_555
K22 O45 3.156440 1_555
K22 N1 3.190489 1_555
K22 O63 3.325243 1_555
K23 O29 2.643011 1_555
K23 O74 2.694669 1_555
K23 O24 2.875167 1_555
K23 O60 2.877815 1_555
K23 O65 2.901396 1_555
K23 O20 3.040981 1_555
K23 O44 3.156440 1_555
K23 N0 3.190489 1_555
K23 O62 3.325243 1_555
K24 O30 2.706168 1_555
K24 O73 2.745874 1_554
K24 O66 2.773640 1_555
K24 O35 2.855291 1_555
K24 O71 2.959573 1_555
K24 O43 2.967643 1_555
K25 O31 2.706168 1_555
K25 O72 2.745874 1_556
K25 O67 2.773640 1_555
K25 O34 2.855291 1_555
K25 O70 2.959573 1_555
K25 O42 2.967643 1_555
K26 O83 2.723574 1_555
K26 O32 2.750620 1_545
K26 O69 2.907846 1_545
K26 O68 2.920293 1_555
K26 O33 2.939565 1_555
K26 O41 3.064266 1_545
K26 O71 3.130546 1_555
K27 O82 2.723574 1_555
K27 O33 2.750620 1_565
K27 O68 2.907846 1_565
K27 O69 2.920293 1_555
K27 O32 2.939565 1_555
K27 O40 3.064266 1_565
K27 O70 3.130546 1_555
K28 O81 2.656176 1_565
K28 O34 2.717837 1_555
K28 O87 2.768411 1_655
K28 O39 2.848560 1_555
K28 O15 2.958129 1_555
K28 N7 3.026692 1_555
K28 O67 3.092803 1_555
K28 O55 3.200778 1_555
K29 O80 2.656176 1_545
K29 O35 2.717837 1_555
K29 O86 2.768411 1_455
K29 O38 2.848560 1_555
K29 O14 2.958129 1_555
K29 N6 3.026692 1_555
K29 O66 3.092803 1_555
K29 O54 3.200778 1_555
H0 O7 1.204793 1_555
H0 O4 1.241839 1_555
H1 O6 1.204793 1_555
H1 O5 1.241839 1_555
H2 O2 1.165360 1_555
H2 O9 1.276604 1_555
H3 O3 1.165360 1_555
H3 O8 1.276604 1_555
H4 O0 1.211834 1_555
H4 O11 1.236271 1_555
H5 O1 1.211834 1_555
H5 O10 1.236271 1_555
H6 O85 0.978587 1_555
H7 O84 0.978587 1_555
H8 O86 0.982539 1_555
H9 O87 0.982539 1_555
H10 O88 0.981955 1_555
H11 O89 0.981955 1_555
H12 O85 0.979840 1_554
H13 O84 0.979840 1_556
H14 O86 0.974067 1_555
H15 O87 0.974067 1_555
H16 O88 0.973365 1_555
H17 O89 0.973365 1_555
N0 O0 1.417887 1_555
N0 S0 1.761997 1_555
N0 S12 1.783747 1_555
N1 O1 1.417887 1_555
N1 S1 1.761997 1_555
N1 S13 1.783747 1_555
N2 O2 1.418675 1_555
N2 S2 1.757495 1_555
N2 S14 1.782956 1_555
N3 O3 1.418675 1_555
N3 S3 1.757495 1_555
N3 S15 1.782956 1_555
N4 O4 1.415273 1_455
N4 S4 1.768870 1_555
N4 S16 1.774462 1_455
N5 O5 1.415273 1_655
N5 S5 1.768870 1_555
N5 S17 1.774462 1_655
N6 O6 1.414392 1_545
N6 S18 1.771288 1_555
N6 S6 1.774181 1_545
N7 O7 1.414392 1_565
N7 S19 1.771288 1_555
N7 S7 1.774181 1_565
N8 O8 1.412155 1_555
N8 S20 1.761933 1_555
N8 S8 1.768489 1_555
N9 O9 1.412155 1_555
N9 S21 1.761933 1_555
N9 S9 1.768489 1_555
N10 O10 1.416186 1_555
N10 S10 1.769565 1_555
N10 S22 1.779771 1_555
N11 O11 1.416186 1_555
N11 S11 1.769565 1_555
N11 S23 1.779771 1_555
O12 S0 1.470340 1_555
O13 S1 1.470340 1_555
O14 S2 1.470090 1_455
O15 S3 1.470090 1_655
O16 S4 1.468634 1_555
O17 S5 1.468634 1_555
O18 S6 1.466658 1_555
O19 S7 1.466658 1_555
O20 S8 1.470038 1_555
O21 S9 1.470038 1_555
O22 S10 1.471843 1_555
O23 S11 1.471843 1_555
O24 S0 1.464278 1_555
O25 S1 1.464278 1_555
O26 S2 1.457512 1_455
O27 S3 1.457512 1_655
O28 S4 1.464471 1_555
O29 S5 1.464471 1_555
O30 S6 1.464270 1_545
O31 S7 1.464270 1_565
O32 S8 1.469391 1_555
O33 S9 1.469391 1_555
O34 S10 1.463292 1_555
O35 S11 1.463292 1_555
O36 S0 1.474085 1_556
O37 S1 1.474085 1_554
O38 S2 1.476786 1_455
O39 S3 1.476786 1_655
O40 S4 1.469764 1_555
O41 S5 1.469764 1_555
O42 S6 1.473713 1_556
O43 S7 1.473713 1_554
O44 S8 1.471903 1_555
O45 S9 1.471903 1_555
O46 S10 1.471732 1_555
O47 S11 1.471732 1_555
O48 S12 1.465320 1_555
O49 S13 1.465320 1_555
O50 S14 1.458614 1_555
O51 S15 1.458614 1_555
O52 S16 1.463167 1_555
O53 S17 1.463167 1_555
O54 S18 1.462082 1_555
O55 S19 1.462082 1_555
O56 S20 1.468366 1_555
O57 S21 1.468366 1_555
O58 S22 1.468144 1_555
O59 S23 1.468144 1_555
O60 S12 1.464992 1_555
O61 S13 1.464992 1_555
O62 S14 1.463498 1_555
O63 S15 1.463498 1_555
O64 S16 1.468840 1_455
O65 S17 1.468840 1_655
O66 S18 1.462781 1_555
O67 S19 1.462781 1_555
O68 S20 1.464426 1_545
O69 S21 1.464426 1_565
O70 S22 1.465148 1_555
O71 S23 1.465148 1_555
O72 S12 1.473073 1_555
O73 S13 1.473073 1_555
O74 S14 1.472425 1_555
O75 S15 1.472425 1_555
O76 S16 1.469884 1_555
O77 S17 1.469884 1_555
O78 S18 1.471398 1_556
O79 S19 1.471398 1_554
O80 S20 1.472394 1_555
O81 S21 1.472394 1_555
O82 S22 1.472733 1_555
O83 S23 1.472733 1_555
