# generated using pymatgen
data_CoO2
_symmetry_space_group_name_H-M   'P 1'
_cell_length_a   2.82105798
_cell_length_b   10.94872445
_cell_length_c   4.92915723
_cell_angle_alpha   102.91440359
_cell_angle_beta   89.91177868
_cell_angle_gamma   95.91988637
_symmetry_Int_Tables_number   1
_chemical_formula_structural   CoO2
_chemical_formula_sum   'Co4 O8'
_cell_volume   147.56801654
_cell_formula_units_Z   4
loop_
 _symmetry_equiv_pos_site_id
 _symmetry_equiv_pos_as_xyz
  1  'x, y, z'
loop_
 _atom_site_type_symbol
 _atom_site_label
 _atom_site_symmetry_multiplicity
 _atom_site_fract_x
 _atom_site_fract_y
 _atom_site_fract_z
 _atom_site_occupancy
  Co  Co0  1  0.53987900  0.99212800  0.50071100  1
  Co  Co1  1  0.29499300  0.49613300  0.74827700  1
  Co  Co2  1  0.03987700  0.99212800  0.00071100  1
  Co  Co3  1  0.79497700  0.49612900  0.24827400  1
  O  O0  1  0.00436700  0.90374500  0.62409900  1
  O  O1  1  0.50432800  0.90370600  0.12401200  1
  O  O2  1  0.32991700  0.58454100  0.45923700  1
  O  O3  1  0.82992600  0.58452200  0.95927900  1
  O  O4  1  0.07525000  0.08055500  0.37727100  1
  O  O5  1  0.57528600  0.08059500  0.87735400  1
  O  O6  1  0.75968900  0.40763900  0.53697800  1
  O  O7  1  0.25970000  0.40762100  0.03702200  1
loop_
_geom_bond_atom_site_label_1
_geom_bond_atom_site_label_2
_geom_bond_distance
_geom_bond_site_symmetry_2
Co0 O0 1.883415 1_555
Co0 O4 1.883471 1_665
Co0 O0 1.884253 1_655
Co0 O4 1.884980 1_565
Co0 O5 1.889893 1_565
Co0 O1 1.889992 1_555
Co1 O3 1.883442 1_455
Co1 O6 1.883829 1_555
Co1 O3 1.883948 1_555
Co1 O6 1.885728 1_455
Co1 O7 1.889692 1_556
Co1 O2 1.890187 1_555
Co2 O1 1.883520 1_455
Co2 O5 1.883593 1_564
Co2 O1 1.884267 1_555
Co2 O5 1.885008 1_464
Co2 O4 1.889412 1_565
Co2 O0 1.889497 1_554
Co3 O2 1.883459 1_555
Co3 O7 1.883856 1_655
Co3 O2 1.883956 1_655
Co3 O7 1.885616 1_555
Co3 O6 1.889354 1_555
Co3 O3 1.889883 1_554
