# generated using pymatgen
data_Li7Mn8O20
_symmetry_space_group_name_H-M   'P 1'
_cell_length_a   5.83596306
_cell_length_b   5.83596306
_cell_length_c   24.11983409
_cell_angle_alpha   83.38206662
_cell_angle_beta   83.38206662
_cell_angle_gamma   59.82919747
_symmetry_Int_Tables_number   1
_chemical_formula_structural   Li7Mn8O20
_chemical_formula_sum   'Li14 Mn16 O40'
_cell_volume   703.89302682
_cell_formula_units_Z   2
loop_
 _symmetry_equiv_pos_site_id
 _symmetry_equiv_pos_as_xyz
  1  'x, y, z'
loop_
 _atom_site_type_symbol
 _atom_site_label
 _atom_site_symmetry_multiplicity
 _atom_site_fract_x
 _atom_site_fract_y
 _atom_site_fract_z
 _atom_site_occupancy
  Li  Li0  1  0.07203200  0.07203200  0.27653100  1
  Li  Li1  1  0.12340100  0.12340100  0.12742500  1
  Li  Li2  1  0.73090500  0.73090500  0.32633900  1
  Li  Li3  1  0.47958800  0.47958800  0.06844000  1
  Li  Li4  1  0.20091700  0.20091700  0.90067900  1
  Li  Li5  1  0.79908300  0.79908300  0.09932100  1
  Li  Li6  1  0.52041200  0.52041200  0.93156000  1
  Li  Li7  1  0.87659900  0.87659900  0.87257500  1
  Li  Li8  1  0.92796800  0.92796800  0.72346900  1
  Li  Li9  1  0.80284500  0.80284500  0.59986400  1
  Li  Li10  1  0.66778700  0.66778700  0.47618100  1
  Li  Li11  1  0.26909500  0.26909500  0.67366100  1
  Li  Li12  1  0.33221300  0.33221300  0.52381900  1
  Li  Li13  1  0.19715500  0.19715500  0.40013600  1
  Mn  Mn0  1  0.40039200  0.40039200  0.30183600  1
  Mn  Mn1  1  0.60336300  0.09631600  0.19973700  1
  Mn  Mn2  1  0.60295300  0.60295300  0.19964200  1
  Mn  Mn3  1  0.09631600  0.60336300  0.19973700  1
  Mn  Mn4  1  0.00000000  0.50000000  0.00000000  1
  Mn  Mn5  1  0.90368400  0.39663700  0.80026300  1
  Mn  Mn6  1  0.50000000  0.00000000  0.00000000  1
  Mn  Mn7  1  0.39704700  0.39704700  0.80035800  1
  Mn  Mn8  1  0.00000000  0.00000000  0.00000000  1
  Mn  Mn9  1  0.59960800  0.59960800  0.69816400  1
  Mn  Mn10  1  0.39663700  0.90368400  0.80026300  1
  Mn  Mn11  1  0.30199400  0.80211600  0.59924100  1
  Mn  Mn12  1  0.19788400  0.69800600  0.40075900  1
  Mn  Mn13  1  0.00000000  0.00000000  0.50000000  1
  Mn  Mn14  1  0.80211600  0.30199400  0.59924100  1
  Mn  Mn15  1  0.69800600  0.19788400  0.40075900  1
  O  O0  1  0.93440500  0.93440500  0.15858000  1
  O  O1  1  0.47427800  0.93405200  0.15858700  1
  O  O2  1  0.71596300  0.27102500  0.24704900  1
  O  O3  1  0.27082000  0.27082000  0.24853200  1
  O  O4  1  0.66805000  0.12675700  0.04259200  1
  O  O5  1  0.27102500  0.71596300  0.24704900  1
  O  O6  1  0.44752700  0.44752700  0.15787500  1
  O  O7  1  0.75377200  0.75377200  0.24299800  1
  O  O8  1  0.93405200  0.47427800  0.15858700  1
  O  O9  1  0.15338700  0.15338700  0.04385700  1
  O  O10  1  0.33396200  0.33396200  0.95799600  1
  O  O11  1  0.87324300  0.33195000  0.95740800  1
  O  O12  1  0.66603800  0.66603800  0.04200400  1
  O  O13  1  0.12675700  0.66805000  0.04259200  1
  O  O14  1  0.06594800  0.52572200  0.84141300  1
  O  O15  1  0.84661300  0.84661300  0.95614300  1
  O  O16  1  0.55247300  0.55247300  0.84212500  1
  O  O17  1  0.33195000  0.87324300  0.95740800  1
  O  O18  1  0.72918000  0.72918000  0.75146800  1
  O  O19  1  0.28403700  0.72897500  0.75295100  1
  O  O20  1  0.46728600  0.46728600  0.64669200  1
  O  O21  1  0.06559500  0.06559500  0.84142000  1
  O  O22  1  0.52572200  0.06594800  0.84141300  1
  O  O23  1  0.91085000  0.45450100  0.65063400  1
  O  O24  1  0.24622800  0.24622800  0.75700200  1
  O  O25  1  0.45450100  0.91085000  0.65063400  1
  O  O26  1  0.63830400  0.63830400  0.55827300  1
  O  O27  1  0.72897500  0.28403700  0.75295100  1
  O  O28  1  0.96862300  0.96862300  0.64155300  1
  O  O29  1  0.15333100  0.68914700  0.54994900  1
  O  O30  1  0.13726600  0.13726600  0.55179100  1
  O  O31  1  0.68914700  0.15333100  0.54994900  1
  O  O32  1  0.31085300  0.84666900  0.45005100  1
  O  O33  1  0.86273400  0.86273400  0.44820900  1
  O  O34  1  0.84666900  0.31085300  0.45005100  1
  O  O35  1  0.03137700  0.03137700  0.35844700  1
  O  O36  1  0.36169600  0.36169600  0.44172700  1
  O  O37  1  0.54549900  0.08915000  0.34936600  1
  O  O38  1  0.53271400  0.53271400  0.35330800  1
  O  O39  1  0.08915000  0.54549900  0.34936600  1
loop_
_geom_bond_atom_site_label_1
_geom_bond_atom_site_label_2
_geom_bond_distance
_geom_bond_site_symmetry_2
Li0 O35 1.963887 1_555
Li0 O5 1.974084 1_545
Li0 O2 1.974084 1_455
Li0 O3 2.034570 1_555
Li1 O0 1.959215 1_445
Li1 O1 1.966720 1_545
Li1 O8 1.966720 1_455
Li1 O9 1.998062 1_555
Li2 O37 1.924985 1_565
Li2 O39 1.924985 1_655
Li2 O7 1.992647 1_555
Li2 O38 2.024009 1_555
Li3 O12 1.909142 1_555
Li3 O4 1.923471 1_555
Li3 O13 1.923471 1_555
Li3 O6 2.138334 1_555
Li4 O10 2.053727 1_555
Li4 O17 2.069312 1_545
Li4 O11 2.069312 1_455
Li4 O22 2.095509 1_555
Li4 O14 2.095509 1_555
Li4 O21 2.106553 1_555
Li5 O12 2.053727 1_555
Li5 O13 2.069312 1_655
Li5 O4 2.069312 1_565
Li5 O1 2.095509 1_555
Li5 O8 2.095509 1_555
Li5 O0 2.106553 1_555
Li6 O10 1.909142 1_555
Li6 O17 1.923471 1_555
Li6 O11 1.923471 1_555
Li6 O16 2.138334 1_555
Li7 O21 1.959215 1_665
Li7 O14 1.966720 1_655
Li7 O22 1.966720 1_565
Li7 O15 1.998062 1_555
Li8 O28 1.963887 1_555
Li8 O19 1.974084 1_655
Li8 O27 1.974084 1_565
Li8 O18 2.034570 1_555
Li9 O26 2.054616 1_555
Li9 O28 2.066980 1_555
Li9 O31 2.079860 1_565
Li9 O29 2.079860 1_655
Li9 O25 2.084644 1_555
Li9 O23 2.084644 1_555
Li10 O34 1.947123 1_555
Li10 O32 1.947123 1_555
Li10 O26 1.962777 1_555
Li10 O33 1.997781 1_555
Li11 O25 1.924985 1_545
Li11 O23 1.924985 1_455
Li11 O24 1.992647 1_555
Li11 O20 2.024009 1_555
Li12 O29 1.947123 1_555
Li12 O31 1.947123 1_555
Li12 O36 1.962777 1_555
Li12 O30 1.997781 1_555
Li13 O36 2.054616 1_555
Li13 O35 2.066980 1_555
Li13 O34 2.079860 1_455
Li13 O32 2.079860 1_545
Li13 O39 2.084644 1_555
Li13 O37 2.084644 1_555
Mn0 O39 1.878396 1_555
Mn0 O37 1.878396 1_555
Mn0 O38 1.943026 1_555
Mn0 O3 1.954360 1_555
Mn0 O5 1.994835 1_555
Mn0 O2 1.994835 1_555
Mn1 O0 1.884131 1_545
Mn1 O1 1.885584 1_545
Mn1 O7 1.955018 1_545
Mn1 O2 1.971834 1_555
Mn1 O6 1.977030 1_555
Mn1 O3 1.987921 1_555
Mn2 O8 1.884157 1_555
Mn2 O1 1.884157 1_555
Mn2 O7 1.961122 1_555
Mn2 O5 1.968245 1_555
Mn2 O2 1.968245 1_555
Mn2 O6 1.977030 1_555
Mn3 O0 1.884131 1_455
Mn3 O8 1.885584 1_455
Mn3 O7 1.955018 1_455
Mn3 O5 1.971834 1_555
Mn3 O6 1.977030 1_555
Mn3 O3 1.987921 1_555
Mn4 O12 1.907037 1_455
Mn4 O10 1.907037 1_554
Mn4 O11 1.923817 1_454
Mn4 O13 1.923817 1_555
Mn4 O9 1.979158 1_555
Mn4 O15 1.979158 1_454
Mn5 O21 1.884131 1_655
Mn5 O14 1.885584 1_655
Mn5 O24 1.955018 1_655
Mn5 O27 1.971834 1_555
Mn5 O16 1.977030 1_555
Mn5 O18 1.987921 1_555
Mn6 O12 1.907037 1_545
Mn6 O10 1.907037 1_554
Mn6 O17 1.923817 1_544
Mn6 O4 1.923817 1_555
Mn6 O9 1.979158 1_555
Mn6 O15 1.979158 1_544
Mn7 O14 1.884157 1_555
Mn7 O22 1.884157 1_555
Mn7 O24 1.961122 1_555
Mn7 O19 1.968245 1_555
Mn7 O27 1.968245 1_555
Mn7 O16 1.977030 1_555
Mn8 O17 1.905650 1_544
Mn8 O11 1.905650 1_454
Mn8 O4 1.905650 1_455
Mn8 O13 1.905650 1_545
Mn8 O9 1.990876 1_555
Mn8 O15 1.990876 1_444
Mn9 O23 1.878396 1_555
Mn9 O25 1.878396 1_555
Mn9 O20 1.943026 1_555
Mn9 O18 1.954360 1_555
Mn9 O19 1.994835 1_555
Mn9 O27 1.994835 1_555
Mn10 O21 1.884131 1_565
Mn10 O22 1.885584 1_565
Mn10 O24 1.955018 1_565
Mn10 O19 1.971834 1_555
Mn10 O16 1.977030 1_555
Mn10 O18 1.987921 1_555
Mn11 O29 1.895851 1_555
Mn11 O26 1.904526 1_555
Mn11 O28 1.908287 1_455
Mn11 O25 1.932539 1_555
Mn11 O20 1.975619 1_555
Mn11 O30 1.976684 1_565
Mn12 O32 1.895851 1_555
Mn12 O36 1.904526 1_555
Mn12 O35 1.908287 1_565
Mn12 O39 1.932539 1_555
Mn12 O38 1.975619 1_555
Mn12 O33 1.976684 1_455
Mn13 O34 1.912129 1_455
Mn13 O32 1.912129 1_545
Mn13 O31 1.912129 1_455
Mn13 O29 1.912129 1_545
Mn13 O33 1.987533 1_445
Mn13 O30 1.987533 1_555
Mn14 O31 1.895851 1_555
Mn14 O26 1.904526 1_555
Mn14 O28 1.908287 1_545
Mn14 O23 1.932539 1_555
Mn14 O20 1.975619 1_555
Mn14 O30 1.976684 1_655
Mn15 O34 1.895851 1_555
Mn15 O36 1.904526 1_555
Mn15 O35 1.908287 1_655
Mn15 O37 1.932539 1_555
Mn15 O38 1.975619 1_555
Mn15 O33 1.976684 1_545
