# generated using pymatgen
data_LiVF4
_symmetry_space_group_name_H-M   'P 1'
_cell_length_a   4.93162840
_cell_length_b   7.24272498
_cell_length_c   7.35035394
_cell_angle_alpha   77.83199645
_cell_angle_beta   90.00000000
_cell_angle_gamma   90.00000000
_symmetry_Int_Tables_number   1
_chemical_formula_structural   LiVF4
_chemical_formula_sum   'Li4 V4 F16'
_cell_volume   256.64473191
_cell_formula_units_Z   4
loop_
 _symmetry_equiv_pos_site_id
 _symmetry_equiv_pos_as_xyz
  1  'x, y, z'
loop_
 _atom_site_type_symbol
 _atom_site_label
 _atom_site_symmetry_multiplicity
 _atom_site_fract_x
 _atom_site_fract_y
 _atom_site_fract_z
 _atom_site_occupancy
  Li  Li0  1  0.25721258  0.33827514  0.35296772  1
  Li  Li1  1  0.24278742  0.83827514  0.35296772  1
  Li  Li2  1  0.75721258  0.16172486  0.64703228  1
  Li  Li3  1  0.74278742  0.66172486  0.64703228  1
  V  V0  1  0.74557257  0.18097011  0.18590812  1
  V  V1  1  0.75442743  0.68097011  0.18590812  1
  V  V2  1  0.24557257  0.31902989  0.81409188  1
  V  V3  1  0.25442743  0.81902989  0.81409188  1
  F  F0  1  0.07338157  0.30445613  0.05717024  1
  F  F1  1  0.42661843  0.80445613  0.05717024  1
  F  F2  1  0.58110223  0.43160465  0.19160001  1
  F  F3  1  0.42761889  0.08003903  0.30602415  1
  F  F4  1  0.91889777  0.93160465  0.19160001  1
  F  F5  1  0.07238111  0.58003903  0.30602415  1
  F  F6  1  0.92479026  0.19512715  0.40998506  1
  F  F7  1  0.57520974  0.69512715  0.40998506  1
  F  F8  1  0.42479026  0.30487285  0.59001494  1
  F  F9  1  0.07520974  0.80487285  0.59001494  1
  F  F10  1  0.92761889  0.41996097  0.69397585  1
  F  F11  1  0.08110223  0.06839535  0.80839999  1
  F  F12  1  0.57238111  0.91996097  0.69397585  1
  F  F13  1  0.41889777  0.56839535  0.80839999  1
  F  F14  1  0.57338157  0.19554387  0.94282976  1
  F  F15  1  0.92661843  0.69554387  0.94282976  1
loop_
_geom_bond_atom_site_label_1
_geom_bond_atom_site_label_2
_geom_bond_distance
_geom_bond_site_symmetry_2
F0 V2 1.960890 1_554
F0 V0 1.987979 1_455
F0 Li0 2.415288 1_555
F1 V3 1.960890 1_554
F1 V1 1.987979 1_555
F1 Li1 2.415288 1_555
F2 V1 1.990599 1_555
F2 V0 1.996720 1_555
F2 Li0 2.019200 1_555
F3 V0 1.870970 1_555
F3 Li1 1.939415 1_545
F3 Li0 2.143713 1_555
F4 V0 1.990599 1_565
F4 V1 1.996720 1_555
F4 Li1 2.019200 1_655
F5 V1 1.870970 1_455
F5 Li0 1.939415 1_555
F5 Li1 2.143713 1_555
F6 V0 1.890933 1_555
F6 Li2 1.897290 1_555
F6 Li0 1.937773 1_655
F7 V1 1.890933 1_555
F7 Li3 1.897290 1_555
F7 Li1 1.937773 1_555
F8 V2 1.890933 1_555
F8 Li0 1.897290 1_555
F8 Li2 1.937773 1_555
F9 V3 1.890933 1_555
F9 Li1 1.897290 1_555
F9 Li3 1.937773 1_455
F10 V2 1.870970 1_655
F10 Li3 1.939415 1_555
F10 Li2 2.143713 1_555
F11 V3 1.990599 1_545
F11 V2 1.996720 1_555
F11 Li2 2.019200 1_455
F12 V3 1.870970 1_555
F12 Li2 1.939415 1_565
F12 Li3 2.143713 1_555
F13 V2 1.990599 1_555
F13 V3 1.996720 1_555
F13 Li3 2.019200 1_555
F14 V0 1.960890 1_556
F14 V2 1.987979 1_555
F14 Li2 2.415288 1_555
F15 V1 1.960890 1_556
F15 V3 1.987979 1_655
F15 Li3 2.415288 1_555
