# generated using pymatgen
data_V5(P3O11)2
_symmetry_space_group_name_H-M   'P 1'
_cell_length_a   6.66751000
_cell_length_b   10.46520100
_cell_length_c   12.89738842
_cell_angle_alpha   75.90313498
_cell_angle_beta   90.00000000
_cell_angle_gamma   90.00000000
_symmetry_Int_Tables_number   1
_chemical_formula_structural   V5(P3O11)2
_chemical_formula_sum   'V10 P12 O44'
_cell_volume   872.83755816
_cell_formula_units_Z   2
loop_
 _symmetry_equiv_pos_site_id
 _symmetry_equiv_pos_as_xyz
  1  'x, y, z'
loop_
 _atom_site_type_symbol
 _atom_site_label
 _atom_site_symmetry_multiplicity
 _atom_site_fract_x
 _atom_site_fract_y
 _atom_site_fract_z
 _atom_site_occupancy
  V  V0  1  0.50000000  0.50000000  0.00000000  1
  V  V1  1  0.25023800  0.21199800  0.13642000  1
  V  V2  1  0.00000000  0.00000000  0.00000000  1
  V  V3  1  0.24976200  0.71199800  0.13642000  1
  V  V4  1  0.01170500  0.19708600  0.33633300  1
  V  V5  1  0.48829500  0.69708600  0.33633300  1
  V  V6  1  0.51170500  0.30291400  0.66366700  1
  V  V7  1  0.98829500  0.80291400  0.66366700  1
  V  V8  1  0.75023800  0.28800200  0.86358000  1
  V  V9  1  0.74976200  0.78800200  0.86358000  1
  P  P0  1  0.74146500  0.22435400  0.08760800  1
  P  P1  1  0.75853500  0.72435400  0.08760800  1
  P  P2  1  0.39075500  0.42623700  0.25893500  1
  P  P3  1  0.10924500  0.92623700  0.25893500  1
  P  P4  1  0.70286300  0.40891700  0.41765400  1
  P  P5  1  0.20286300  0.09108300  0.58234600  1
  P  P6  1  0.79713700  0.90891700  0.41765400  1
  P  P7  1  0.29713700  0.59108300  0.58234600  1
  P  P8  1  0.89075500  0.07376300  0.74106500  1
  P  P9  1  0.60924500  0.57376300  0.74106500  1
  P  P10  1  0.24146500  0.27564600  0.91239200  1
  P  P11  1  0.25853500  0.77564600  0.91239200  1
  O  O0  1  0.79057900  0.13869900  0.00457800  1
  O  O1  1  0.71022300  0.36047000  0.99938800  1
  O  O2  1  0.70942100  0.63869900  0.00457800  1
  O  O3  1  0.78977700  0.86047000  0.99938800  1
  O  O4  1  0.55063800  0.17793900  0.14842200  1
  O  O5  1  0.92370100  0.23171000  0.16005500  1
  O  O6  1  0.52893400  0.44864400  0.16314800  1
  O  O7  1  0.19010300  0.05981900  0.27400200  1
  O  O8  1  0.94936200  0.67793900  0.14842200  1
  O  O9  1  0.57629900  0.73171000  0.16005500  1
  O  O10  1  0.22492500  0.32701300  0.24856600  1
  O  O11  1  0.97106600  0.94864400  0.16314800  1
  O  O12  1  0.30989700  0.55981900  0.27400200  1
  O  O13  1  0.80019400  0.05889800  0.38520900  1
  O  O14  1  0.27507500  0.82701300  0.24856600  1
  O  O15  1  0.88081200  0.34999500  0.37215000  1
  O  O16  1  0.50266200  0.35689900  0.36641900  1
  O  O17  1  0.18042400  0.14838900  0.46197500  1
  O  O18  1  0.69980600  0.55889800  0.38520900  1
  O  O19  1  0.61918800  0.84999500  0.37215000  1
  O  O20  1  0.99733800  0.85689900  0.36641900  1
  O  O21  1  0.31957600  0.64838900  0.46197500  1
  O  O22  1  0.68042400  0.35161100  0.53802500  1
  O  O23  1  0.00266200  0.14310100  0.63358100  1
  O  O24  1  0.38081200  0.15000500  0.62785000  1
  O  O25  1  0.30019400  0.44110200  0.61479100  1
  O  O26  1  0.81957600  0.85161100  0.53802500  1
  O  O27  1  0.49733800  0.64310100  0.63358100  1
  O  O28  1  0.11918800  0.65000500  0.62785000  1
  O  O29  1  0.72492500  0.17298700  0.75143400  1
  O  O30  1  0.19980600  0.94110200  0.61479100  1
  O  O31  1  0.69010300  0.44018100  0.72599800  1
  O  O32  1  0.02893400  0.05135600  0.83685200  1
  O  O33  1  0.77507500  0.67298700  0.75143400  1
  O  O34  1  0.42370100  0.26829000  0.83994500  1
  O  O35  1  0.05063800  0.32206100  0.85157800  1
  O  O36  1  0.80989700  0.94018100  0.72599800  1
  O  O37  1  0.47106600  0.55135600  0.83685200  1
  O  O38  1  0.07629900  0.76829000  0.83994500  1
  O  O39  1  0.44936200  0.82206100  0.85157800  1
  O  O40  1  0.21022300  0.13953000  0.00061200  1
  O  O41  1  0.29057900  0.36130100  0.99542200  1
  O  O42  1  0.28977700  0.63953000  0.00061200  1
  O  O43  1  0.20942100  0.86130100  0.99542200  1
loop_
_geom_bond_atom_site_label_1
_geom_bond_atom_site_label_2
_geom_bond_distance
_geom_bond_site_symmetry_2
O0 P0 1.589065 1_555
O0 V2 2.025296 1_655
O0 V8 2.106315 1_554
O1 P0 1.605497 1_556
O1 V0 2.025475 1_556
O1 V8 2.088401 1_555
O2 P1 1.589065 1_555
O2 V0 2.025296 1_555
O2 V9 2.106315 1_554
O3 P1 1.605497 1_556
O3 V2 2.025475 1_666
O3 V9 2.088401 1_555
O4 P0 1.511423 1_555
O4 V1 2.033671 1_555
O5 P0 1.546091 1_555
O5 V1 2.215008 1_655
O5 V4 2.289807 1_655
O6 P2 1.512911 1_555
O6 V0 2.050066 1_555
O7 P3 1.554041 1_545
O7 V1 2.114039 1_555
O7 V4 2.165009 1_555
O8 P1 1.511423 1_555
O8 V3 2.033671 1_655
O9 P1 1.546091 1_555
O9 V3 2.215008 1_555
O9 V5 2.289807 1_555
O10 P2 1.544771 1_555
O10 V4 2.097972 1_555
O10 V1 2.101756 1_555
O11 P3 1.512911 1_655
O11 V2 2.050066 1_665
O12 P2 1.554041 1_555
O12 V3 2.114039 1_555
O12 V5 2.165009 1_555
O13 P6 1.522880 1_545
O13 V4 2.008358 1_655
O14 P3 1.544771 1_555
O14 V5 2.097972 1_555
O14 V3 2.101756 1_555
O15 P4 1.519433 1_555
O15 V4 1.973793 1_655
O16 P2 1.585872 1_555
O16 P4 1.640133 1_555
O17 P5 1.529274 1_555
O17 V4 1.936179 1_555
O18 P4 1.522880 1_555
O18 V5 2.008358 1_555
O19 P6 1.519433 1_555
O19 V5 1.973793 1_555
O20 P3 1.585872 1_655
O20 P6 1.640133 1_555
O21 P7 1.529274 1_555
O21 V5 1.936179 1_555
O22 P4 1.529274 1_555
O22 V6 1.936179 1_555
O23 P8 1.585872 1_455
O23 P5 1.640133 1_555
O24 P5 1.519433 1_555
O24 V6 1.973793 1_555
O25 P7 1.522880 1_555
O25 V6 2.008358 1_555
O26 P6 1.529274 1_555
O26 V7 1.936179 1_555
O27 P9 1.585872 1_555
O27 P7 1.640133 1_555
O28 P7 1.519433 1_555
O28 V7 1.973793 1_455
O29 P8 1.544771 1_555
O29 V6 2.097972 1_555
O29 V8 2.101756 1_555
O30 P5 1.522880 1_565
O30 V7 2.008358 1_455
O31 P9 1.554041 1_555
O31 V8 2.114039 1_555
O31 V6 2.165009 1_555
O32 P8 1.512911 1_455
O32 V2 2.050066 1_556
O33 P9 1.544771 1_555
O33 V7 2.097972 1_555
O33 V9 2.101756 1_555
O34 P10 1.546091 1_555
O34 V8 2.215008 1_555
O34 V6 2.289807 1_555
O35 P10 1.511423 1_555
O35 V8 2.033671 1_455
O36 P8 1.554041 1_565
O36 V9 2.114039 1_555
O36 V7 2.165009 1_555
O37 P9 1.512911 1_555
O37 V0 2.050066 1_556
O38 P11 1.546091 1_555
O38 V9 2.215008 1_455
O38 V7 2.289807 1_455
O39 P11 1.511423 1_555
O39 V9 2.033671 1_555
O40 P10 1.605497 1_554
O40 V2 2.025475 1_555
O40 V1 2.088401 1_555
O41 P10 1.589065 1_555
O41 V0 2.025296 1_556
O41 V1 2.106315 1_556
O42 P11 1.605497 1_554
O42 V0 2.025475 1_555
O42 V3 2.088401 1_555
O43 P11 1.589065 1_555
O43 V2 2.025296 1_566
O43 V3 2.106315 1_556
