# generated using pymatgen
data_BaLiCaVP2O9
_symmetry_space_group_name_H-M   'P 1'
_cell_length_a   7.22144400
_cell_length_b   7.44198500
_cell_length_c   14.87731724
_cell_angle_alpha   78.83174796
_cell_angle_beta   90.00000000
_cell_angle_gamma   90.00000000
_symmetry_Int_Tables_number   1
_chemical_formula_structural   BaLiCaVP2O9
_chemical_formula_sum   'Ba4 Li4 Ca4 V4 P8 O36'
_cell_volume   784.39387862
_cell_formula_units_Z   4
loop_
 _symmetry_equiv_pos_site_id
 _symmetry_equiv_pos_as_xyz
  1  'x, y, z'
loop_
 _atom_site_type_symbol
 _atom_site_label
 _atom_site_symmetry_multiplicity
 _atom_site_fract_x
 _atom_site_fract_y
 _atom_site_fract_z
 _atom_site_occupancy
  Ba  Ba0  1  0.73095000  0.62766400  0.42266400  1
  Ba  Ba1  1  0.76905000  0.62766400  0.92266400  1
  Ba  Ba2  1  0.23095000  0.37233600  0.07733600  1
  Ba  Ba3  1  0.26905000  0.37233600  0.57733600  1
  Li  Li0  1  0.21447400  0.90312000  0.29671800  1
  Li  Li1  1  0.28552600  0.90312000  0.79671800  1
  Li  Li2  1  0.71447400  0.09688000  0.20328200  1
  Li  Li3  1  0.78552600  0.09688000  0.70328200  1
  Ca  Ca0  1  0.97499700  0.80897700  0.15728600  1
  Ca  Ca1  1  0.52500300  0.80897700  0.65728600  1
  Ca  Ca2  1  0.47499700  0.19102300  0.34271400  1
  Ca  Ca3  1  0.02500300  0.19102300  0.84271400  1
  V  V0  1  0.47942700  0.83835500  0.15898300  1
  V  V1  1  0.02057300  0.83835500  0.65898300  1
  V  V2  1  0.97942700  0.16164500  0.34101700  1
  V  V3  1  0.52057300  0.16164500  0.84101700  1
  P  P0  1  0.26871300  0.87589500  0.00285600  1
  P  P1  1  0.23128700  0.87589500  0.50285600  1
  P  P2  1  0.22419200  0.53403000  0.30112000  1
  P  P3  1  0.72419200  0.46597000  0.19888000  1
  P  P4  1  0.27580800  0.53403000  0.80112000  1
  P  P5  1  0.77580800  0.46597000  0.69888000  1
  P  P6  1  0.76871300  0.12410500  0.49714400  1
  P  P7  1  0.73128700  0.12410500  0.99714400  1
  O  O0  1  0.47599200  0.97445900  0.25209500  1
  O  O1  1  0.26536500  0.99130400  0.08138500  1
  O  O2  1  0.70846900  0.99386700  0.09256300  1
  O  O3  1  0.02400800  0.97445900  0.75209500  1
  O  O4  1  0.23463500  0.99130400  0.58138500  1
  O  O5  1  0.79153100  0.99386700  0.59256300  1
  O  O6  1  0.08378900  0.77296900  0.00614900  1
  O  O7  1  0.05844200  0.63771800  0.33008800  1
  O  O8  1  0.43778000  0.74527900  0.02767900  1
  O  O9  1  0.67925900  0.66029100  0.22010000  1
  O  O10  1  0.27791800  0.65310400  0.20505800  1
  O  O11  1  0.38299800  0.50223800  0.37133400  1
  O  O12  1  0.41621100  0.77296900  0.50614900  1
  O  O13  1  0.44155800  0.63771800  0.83008800  1
  O  O14  1  0.06222000  0.74527900  0.52767900  1
  O  O15  1  0.82074100  0.66029100  0.72010000  1
  O  O16  1  0.88299800  0.49776200  0.12866600  1
  O  O17  1  0.22208200  0.65310400  0.70505800  1
  O  O18  1  0.77791800  0.34689600  0.29494200  1
  O  O19  1  0.11700200  0.50223800  0.87133400  1
  O  O20  1  0.17925900  0.33970900  0.27990000  1
  O  O21  1  0.93778000  0.25472100  0.47232100  1
  O  O22  1  0.55844200  0.36228200  0.16991200  1
  O  O23  1  0.58378900  0.22703100  0.49385100  1
  O  O24  1  0.61700200  0.49776200  0.62866600  1
  O  O25  1  0.72208200  0.34689600  0.79494200  1
  O  O26  1  0.32074100  0.33970900  0.77990000  1
  O  O27  1  0.56222000  0.25472100  0.97232100  1
  O  O28  1  0.94155800  0.36228200  0.66991200  1
  O  O29  1  0.91621100  0.22703100  0.99385100  1
  O  O30  1  0.20846900  0.00613300  0.40743700  1
  O  O31  1  0.76536500  0.00869600  0.41861500  1
  O  O32  1  0.97599200  0.02554100  0.24790500  1
  O  O33  1  0.29153100  0.00613300  0.90743700  1
  O  O34  1  0.73463500  0.00869600  0.91861500  1
  O  O35  1  0.52400800  0.02554100  0.74790500  1
loop_
_geom_bond_atom_site_label_1
_geom_bond_atom_site_label_2
_geom_bond_distance
_geom_bond_site_symmetry_2
Ba0 O7 2.730503 1_655
Ba0 O31 2.835498 1_565
Ba0 O11 2.836248 1_555
Ba0 O12 2.897965 1_555
Ba0 O9 2.999446 1_555
Ba0 O14 3.075652 1_655
Ba0 O18 3.103156 1_555
Ba0 O21 3.112139 1_555
Ba0 O24 3.139536 1_555
Ba0 O23 3.149152 1_555
Ba1 O13 2.730503 1_555
Ba1 O34 2.835498 1_565
Ba1 O19 2.836248 1_655
Ba1 O6 2.897965 1_656
Ba1 O15 2.999446 1_555
Ba1 O8 3.075652 1_556
Ba1 O25 3.103156 1_555
Ba1 O27 3.112139 1_555
Ba1 O16 3.139536 1_556
Ba1 O29 3.149152 1_555
Ba2 O22 2.730503 1_555
Ba2 O1 2.835498 1_545
Ba2 O16 2.836248 1_455
Ba2 O29 2.897965 1_454
Ba2 O20 2.999446 1_555
Ba2 O27 3.075652 1_554
Ba2 O10 3.103156 1_555
Ba2 O8 3.112139 1_555
Ba2 O19 3.139536 1_554
Ba2 O6 3.149152 1_555
Ba3 O28 2.730503 1_455
Ba3 O4 2.835498 1_545
Ba3 O24 2.836248 1_555
Ba3 O23 2.897965 1_555
Ba3 O26 2.999446 1_555
Ba3 O21 3.075652 1_455
Ba3 O17 3.103156 1_555
Ba3 O14 3.112139 1_555
Ba3 O11 3.139536 1_555
Ba3 O12 3.149152 1_555
Li0 O30 1.947316 1_565
Li0 O32 2.016685 1_465
Li0 O0 2.037799 1_555
Li0 O7 2.244400 1_555
Li1 O33 1.947316 1_565
Li1 O35 2.016685 1_565
Li1 O3 2.037799 1_555
Li1 O13 2.244400 1_555
Li2 O2 1.947316 1_545
Li2 O0 2.016685 1_545
Li2 O32 2.037799 1_555
Li2 O22 2.244400 1_555
Li3 O5 1.947316 1_545
Li3 O3 2.016685 1_645
Li3 O35 2.037799 1_555
Li3 O28 2.244400 1_555
Ca0 O32 2.292766 1_565
Ca0 O6 2.445047 1_655
Ca0 O2 2.451879 1_555
Ca0 O9 2.501627 1_555
Ca0 O10 2.513292 1_655
Ca0 O16 2.523651 1_555
Ca0 O1 2.630505 1_655
Ca0 O7 2.706914 1_655
Ca1 O35 2.292766 1_565
Ca1 O12 2.445047 1_555
Ca1 O5 2.451879 1_555
Ca1 O15 2.501627 1_555
Ca1 O17 2.513292 1_555
Ca1 O24 2.523651 1_555
Ca1 O4 2.630505 1_555
Ca1 O13 2.706914 1_555
Ca2 O0 2.292766 1_545
Ca2 O23 2.445047 1_555
Ca2 O30 2.451879 1_555
Ca2 O20 2.501627 1_555
Ca2 O18 2.513292 1_555
Ca2 O11 2.523651 1_555
Ca2 O31 2.630505 1_555
Ca2 O22 2.706914 1_555
Ca3 O3 2.292766 1_545
Ca3 O29 2.445047 1_455
Ca3 O33 2.451879 1_555
Ca3 O26 2.501627 1_555
Ca3 O25 2.513292 1_455
Ca3 O19 2.523651 1_555
Ca3 O34 2.630505 1_455
Ca3 O28 2.706914 1_455
O0 V0 1.867892 1_555
O1 P0 1.578569 1_555
O1 V0 2.123424 1_555
O2 P7 1.564853 1_564
O2 V0 2.146760 1_555
O3 V1 1.867892 1_555
O4 P1 1.578569 1_555
O4 V1 2.123424 1_555
O5 P6 1.564853 1_565
O5 V1 2.146760 1_655
O6 P0 1.535552 1_555
O7 P2 1.530585 1_555
O8 P0 1.559745 1_555
O8 V0 2.215938 1_555
O9 P3 1.572613 1_555
O9 V0 2.049019 1_555
O10 P2 1.577228 1_555
O10 V0 2.030269 1_555
O11 P2 1.538372 1_555
O12 P1 1.535552 1_555
O13 P4 1.530585 1_555
O14 P1 1.559745 1_555
O14 V1 2.215938 1_555
O15 P5 1.572613 1_555
O15 V1 2.049019 1_655
O16 P3 1.538372 1_555
O17 P4 1.577228 1_555
O17 V1 2.030269 1_555
O18 P3 1.577228 1_555
O18 V2 2.030269 1_555
O19 P4 1.538372 1_555
O20 P2 1.572613 1_555
O20 V2 2.049019 1_455
O21 P6 1.559745 1_555
O21 V2 2.215938 1_555
O22 P3 1.530585 1_555
O23 P6 1.535552 1_555
O24 P5 1.538372 1_555
O25 P5 1.577228 1_555
O25 V3 2.030269 1_555
O26 P4 1.572613 1_555
O26 V3 2.049019 1_555
O27 P7 1.559745 1_555
O27 V3 2.215938 1_555
O28 P5 1.530585 1_555
O29 P7 1.535552 1_555
O30 P1 1.564853 1_545
O30 V2 2.146760 1_455
O31 P6 1.578569 1_555
O31 V2 2.123424 1_555
O32 V2 1.867892 1_555
O33 P0 1.564853 1_546
O33 V3 2.146760 1_555
O34 P7 1.578569 1_555
O34 V3 2.123424 1_555
O35 V3 1.867892 1_555
