# generated using pymatgen
data_Li4Co3Sn(PO4)4
_symmetry_space_group_name_H-M   'P 1'
_cell_length_a   6.06476600
_cell_length_b   4.82507700
_cell_length_c   10.72727962
_cell_angle_alpha   88.77202861
_cell_angle_beta   90.00000000
_cell_angle_gamma   90.00000000
_symmetry_Int_Tables_number   1
_chemical_formula_structural   Li4Co3Sn(PO4)4
_chemical_formula_sum   'Li4 Co3 Sn1 P4 O16'
_cell_volume   313.83989311
_cell_formula_units_Z   1
loop_
 _symmetry_equiv_pos_site_id
 _symmetry_equiv_pos_as_xyz
  1  'x, y, z'
loop_
 _atom_site_type_symbol
 _atom_site_label
 _atom_site_symmetry_multiplicity
 _atom_site_fract_x
 _atom_site_fract_y
 _atom_site_fract_z
 _atom_site_occupancy
  Li  Li0  1  0.25186600  0.00385400  0.01321900  1
  Li  Li1  1  0.74813400  0.00385400  0.01321900  1
  Li  Li2  1  0.74579500  0.50202300  0.48513800  1
  Li  Li3  1  0.25420500  0.50202300  0.48513800  1
  Co  Co0  1  0.00000000  0.02132600  0.27485400  1
  Co  Co1  1  0.00000000  0.48421400  0.78895200  1
  Co  Co2  1  0.50000000  0.53127400  0.21445000  1
  Sn  Sn0  1  0.50000000  0.99216800  0.71646700  1
  P  P0  1  0.50000000  0.08886100  0.38833000  1
  P  P1  1  0.50000000  0.43461700  0.92636200  1
  P  P2  1  0.00000000  0.58644200  0.09784900  1
  P  P3  1  0.00000000  0.87975200  0.58592400  1
  O  O0  1  0.50000000  0.22095700  0.51994300  1
  O  O1  1  0.29462900  0.22115700  0.32016700  1
  O  O2  1  0.70537100  0.22115700  0.32016700  1
  O  O3  1  0.00000000  0.19393100  0.60459100  1
  O  O4  1  0.00000000  0.26741100  0.10105200  1
  O  O5  1  0.29228300  0.32161200  0.85504900  1
  O  O6  1  0.70771700  0.32161200  0.85504900  1
  O  O7  1  0.50000000  0.28640100  0.05621600  1
  O  O8  1  0.00000000  0.71558300  0.96371400  1
  O  O9  1  0.79840700  0.71895900  0.16853900  1
  O  O10  1  0.20159300  0.71895900  0.16853900  1
  O  O11  1  0.50000000  0.75160000  0.93531500  1
  O  O12  1  0.50000000  0.77123500  0.39225000  1
  O  O13  1  0.80115400  0.72317300  0.65100600  1
  O  O14  1  0.19884600  0.72317300  0.65100600  1
  O  O15  1  0.00000000  0.79267400  0.44749500  1
loop_
_geom_bond_atom_site_label_1
_geom_bond_atom_site_label_2
_geom_bond_distance
_geom_bond_site_symmetry_2
Li0 O7 2.088770 1_555
Li0 O11 2.118508 1_544
Li0 O8 2.140478 1_544
Li0 O10 2.158824 1_545
Li0 O4 2.211238 1_555
Li0 O5 2.275568 1_554
Li1 O7 2.088770 1_555
Li1 O11 2.118508 1_544
Li1 O8 2.140478 1_644
Li1 O9 2.158824 1_545
Li1 O4 2.211238 1_655
Li1 O6 2.275568 1_554
Li2 O0 2.044269 1_555
Li2 O15 2.117161 1_655
Li2 O13 2.121009 1_555
Li2 O12 2.201563 1_555
Li2 O2 2.265230 1_555
Li2 O3 2.479326 1_655
Li3 O0 2.044269 1_555
Li3 O15 2.117161 1_555
Li3 O14 2.121009 1_555
Li3 O12 2.201563 1_555
Li3 O1 2.265230 1_555
Li3 O3 2.479326 1_555
Co0 O1 2.092583 1_555
Co0 O2 2.092583 1_455
Co0 O15 2.135276 1_545
Co0 O4 2.188848 1_555
Co0 O9 2.235015 1_445
Co0 O10 2.235015 1_545
Co1 O5 2.058313 1_555
Co1 O6 2.058313 1_455
Co1 O8 2.202401 1_555
Co1 O14 2.213676 1_555
Co1 O13 2.213676 1_455
Co1 O3 2.447811 1_555
Co2 O9 2.078173 1_555
Co2 O10 2.078173 1_555
Co2 O7 2.088830 1_555
Co2 O2 2.236899 1_555
Co2 O1 2.236899 1_555
Co2 O12 2.252344 1_555
O0 P0 1.561452 1_555
O0 Sn0 2.358659 1_545
O1 P0 1.572726 1_555
O2 P0 1.572726 1_555
O3 P3 1.533355 1_545
O4 P2 1.538996 1_555
O5 P1 1.577144 1_555
O5 Sn0 2.534773 1_545
O6 P1 1.577144 1_555
O6 Sn0 2.534773 1_545
O7 P1 1.552141 1_554
O8 P2 1.555727 1_556
O9 P2 1.580962 1_655
O10 P2 1.580962 1_555
O11 P1 1.534533 1_555
O11 Sn0 2.596535 1_555
O12 P0 1.532246 1_565
O13 P3 1.577950 1_655
O13 Sn0 2.356399 1_555
O14 P3 1.577950 1_555
O14 Sn0 2.356399 1_555
O15 P3 1.551902 1_555
