# generated using pymatgen
data_FeCo3O8
_symmetry_space_group_name_H-M   'P 1'
_cell_length_a   7.99254073
_cell_length_b   8.00518955
_cell_length_c   8.00655304
_cell_angle_alpha   90.03663762
_cell_angle_beta   90.04431877
_cell_angle_gamma   89.91588505
_symmetry_Int_Tables_number   1
_chemical_formula_structural   FeCo3O8
_chemical_formula_sum   'Fe4 Co12 O32'
_cell_volume   512.27289415
_cell_formula_units_Z   4
loop_
 _symmetry_equiv_pos_site_id
 _symmetry_equiv_pos_as_xyz
  1  'x, y, z'
loop_
 _atom_site_type_symbol
 _atom_site_label
 _atom_site_symmetry_multiplicity
 _atom_site_fract_x
 _atom_site_fract_y
 _atom_site_fract_z
 _atom_site_occupancy
  Fe  Fe0  1  0.12516400  0.87498800  0.37529900  1
  Fe  Fe1  1  0.37514000  0.12534600  0.87507000  1
  Fe  Fe2  1  0.62506400  0.62502100  0.62472600  1
  Fe  Fe3  1  0.87514700  0.37474900  0.12493800  1
  Co  Co0  1  0.12572100  0.12451100  0.62512000  1
  Co  Co1  1  0.12523500  0.37471300  0.87560600  1
  Co  Co2  1  0.12401100  0.62534200  0.12571300  1
  Co  Co3  1  0.37562500  0.37506600  0.62537700  1
  Co  Co4  1  0.37519800  0.62565700  0.37528900  1
  Co  Co5  1  0.37398200  0.87589000  0.12478800  1
  Co  Co6  1  0.62567300  0.37543000  0.37494100  1
  Co  Co7  1  0.62523300  0.12527600  0.12440600  1
  Co  Co8  1  0.62396500  0.87474600  0.87419300  1
  Co  Co9  1  0.87569400  0.12490200  0.37461900  1
  Co  Co10  1  0.87523100  0.87431500  0.62471800  1
  Co  Co11  1  0.87390300  0.62412200  0.87518900  1
  O  O0  1  0.11197200  0.10982400  0.38928500  1
  O  O1  1  0.11169100  0.88839200  0.61002800  1
  O  O2  1  0.10674300  0.60724000  0.89347900  1
  O  O3  1  0.14020000  0.13870800  0.86106800  1
  O  O4  1  0.11027700  0.38929700  0.11161100  1
  O  O5  1  0.14277000  0.35716300  0.64317800  1
  O  O6  1  0.13896000  0.64018100  0.36170400  1
  O  O7  1  0.13747500  0.86142500  0.14052200  1
  O  O8  1  0.36209200  0.13903900  0.64017300  1
  O  O9  1  0.36164200  0.36008100  0.86148800  1
  O  O10  1  0.35685000  0.64342700  0.14267100  1
  O  O11  1  0.38999000  0.61116000  0.61134800  1
  O  O12  1  0.36027000  0.86170900  0.36081600  1
  O  O13  1  0.39281100  0.39315500  0.39281900  1
  O  O14  1  0.38886200  0.11201000  0.10991000  1
  O  O15  1  0.38748500  0.89055500  0.88874900  1
  O  O16  1  0.61197400  0.39008300  0.61080700  1
  O  O17  1  0.61154400  0.61148200  0.39005800  1
  O  O18  1  0.60683800  0.89268500  0.10658400  1
  O  O19  1  0.64011000  0.36136600  0.13893200  1
  O  O20  1  0.61017600  0.11068000  0.88845400  1
  O  O21  1  0.64291900  0.14286400  0.35679400  1
  O  O22  1  0.63890200  0.85984900  0.63820600  1
  O  O23  1  0.63745200  0.63873500  0.85936900  1
  O  O24  1  0.86201600  0.36089700  0.35983300  1
  O  O25  1  0.86172400  0.13994500  0.13849100  1
  O  O26  1  0.85685900  0.85658900  0.85724700  1
  O  O27  1  0.89007200  0.88887200  0.38867600  1
  O  O28  1  0.86024700  0.63818700  0.63916100  1
  O  O29  1  0.89280500  0.10682400  0.60719600  1
  O  O30  1  0.88889500  0.38804500  0.89018900  1
  O  O31  1  0.88739400  0.60960000  0.11130200  1
loop_
_geom_bond_atom_site_label_1
_geom_bond_atom_site_label_2
_geom_bond_distance
_geom_bond_site_symmetry_2
Fe0 O27 1.885227 1_455
Fe0 O7 1.885455 1_555
Fe0 O1 1.885514 1_555
Fe0 O12 1.885597 1_555
Fe0 O6 1.885824 1_555
Fe0 O0 1.885967 1_565
Fe1 O3 1.883911 1_555
Fe1 O20 1.884998 1_555
Fe1 O9 1.885238 1_555
Fe1 O15 1.885239 1_545
Fe1 O14 1.886452 1_556
Fe1 O8 1.886772 1_555
Fe2 O23 1.884352 1_555
Fe2 O17 1.884962 1_555
Fe2 O11 1.885233 1_555
Fe2 O28 1.886267 1_555
Fe2 O22 1.886272 1_555
Fe2 O16 1.887002 1_555
Fe3 O19 1.885175 1_555
Fe3 O30 1.885907 1_554
Fe3 O31 1.885954 1_555
Fe3 O25 1.886065 1_555
Fe3 O4 1.886169 1_655
Fe3 O24 1.887047 1_555
Co0 O29 1.872564 1_455
Co0 O5 1.873089 1_555
Co0 O0 1.894921 1_555
Co0 O3 1.895929 1_555
Co0 O8 1.896687 1_555
Co0 O1 1.897434 1_545
Co1 O5 1.871501 1_555
Co1 O2 1.872459 1_555
Co1 O30 1.895499 1_455
Co1 O3 1.896379 1_555
Co1 O9 1.896403 1_555
Co1 O4 1.896968 1_556
Co2 O2 1.869949 1_554
Co2 O10 1.871630 1_555
Co2 O4 1.896219 1_555
Co2 O7 1.896737 1_555
Co2 O6 1.896815 1_555
Co2 O31 1.898964 1_455
Co3 O5 1.872372 1_555
Co3 O13 1.872868 1_555
Co3 O8 1.896477 1_555
Co3 O16 1.896712 1_555
Co3 O11 1.897035 1_555
Co3 O9 1.897704 1_555
Co4 O13 1.871684 1_555
Co4 O10 1.873602 1_555
Co4 O6 1.894593 1_555
Co4 O17 1.895848 1_555
Co4 O12 1.896840 1_555
Co4 O11 1.897238 1_555
Co5 O10 1.871726 1_555
Co5 O18 1.871960 1_555
Co5 O12 1.896513 1_555
Co5 O15 1.896742 1_554
Co5 O14 1.897921 1_565
Co5 O7 1.898292 1_555
Co6 O13 1.871937 1_555
Co6 O21 1.872191 1_555
Co6 O16 1.895278 1_555
Co6 O24 1.896340 1_555
Co6 O19 1.896490 1_555
Co6 O17 1.896641 1_555
Co7 O21 1.871110 1_555
Co7 O18 1.873289 1_545
Co7 O14 1.895805 1_555
Co7 O20 1.896438 1_554
Co7 O25 1.897243 1_555
Co7 O19 1.897344 1_555
Co8 O18 1.871197 1_556
Co8 O26 1.871890 1_555
Co8 O20 1.895123 1_565
Co8 O23 1.895876 1_555
Co8 O22 1.896968 1_555
Co8 O15 1.897790 1_555
Co9 O21 1.871149 1_555
Co9 O29 1.872727 1_555
Co9 O0 1.895693 1_655
Co9 O24 1.895955 1_555
Co9 O27 1.896197 1_545
Co9 O25 1.897671 1_555
Co10 O29 1.872138 1_565
Co10 O26 1.873140 1_555
Co10 O22 1.895751 1_555
Co10 O1 1.897183 1_655
Co10 O27 1.897360 1_555
Co10 O28 1.897821 1_555
Co11 O2 1.871318 1_655
Co11 O26 1.871328 1_555
Co11 O28 1.896244 1_555
Co11 O31 1.897070 1_556
Co11 O30 1.897336 1_555
Co11 O23 1.897430 1_555
