# generated using pymatgen
data_NaTi8O16
_symmetry_space_group_name_H-M   'P 1'
_cell_length_a   6.04373101
_cell_length_b   6.04373101
_cell_length_c   10.78085668
_cell_angle_alpha   65.89699003
_cell_angle_beta   65.89699003
_cell_angle_gamma   59.28977923
_symmetry_Int_Tables_number   1
_chemical_formula_structural   NaTi8O16
_chemical_formula_sum   'Na1 Ti8 O16'
_cell_volume   298.86066811
_cell_formula_units_Z   1
loop_
 _symmetry_equiv_pos_site_id
 _symmetry_equiv_pos_as_xyz
  1  'x, y, z'
loop_
 _atom_site_type_symbol
 _atom_site_label
 _atom_site_symmetry_multiplicity
 _atom_site_fract_x
 _atom_site_fract_y
 _atom_site_fract_z
 _atom_site_occupancy
  Na  Na0  1  0.13060500  0.13060500  0.54061700  1
  Ti  Ti0  1  0.07333200  0.57113600  0.64777700  1
  Ti  Ti1  1  0.44597800  0.44597800  0.35424700  1
  Ti  Ti2  1  0.95958500  0.95958500  0.87409300  1
  Ti  Ti3  1  0.47228100  0.47228100  0.85884400  1
  Ti  Ti4  1  0.52973200  0.03955100  0.14224800  1
  Ti  Ti5  1  0.03955100  0.52973200  0.14224800  1
  Ti  Ti6  1  0.57113600  0.07333200  0.64777700  1
  Ti  Ti7  1  0.91766000  0.91766000  0.36102700  1
  O  O0  1  0.15419900  0.66674500  0.76920300  1
  O  O1  1  0.45076500  0.45076500  0.53840700  1
  O  O2  1  0.17600700  0.17600700  0.72869100  1
  O  O3  1  0.67462500  0.67462500  0.73326400  1
  O  O4  1  0.05516800  0.55346500  0.46085600  1
  O  O5  1  0.73333600  0.24124000  0.96654300  1
  O  O6  1  0.24124000  0.73333600  0.96654300  1
  O  O7  1  0.34621500  0.34621500  0.23190800  1
  O  O8  1  0.66674500  0.15419900  0.76920300  1
  O  O9  1  0.76582500  0.76582500  0.03684000  1
  O  O10  1  0.26634700  0.26634700  0.03712400  1
  O  O11  1  0.93687100  0.93687100  0.54024800  1
  O  O12  1  0.82803500  0.32732000  0.27326400  1
  O  O13  1  0.32732000  0.82803500  0.27326400  1
  O  O14  1  0.55346500  0.05516800  0.46085600  1
  O  O15  1  0.84494500  0.84494500  0.22945100  1
loop_
_geom_bond_atom_site_label_1
_geom_bond_atom_site_label_2
_geom_bond_distance
_geom_bond_site_symmetry_2
Na0 O11 2.037107 1_445
Na0 O4 2.194048 1_555
Na0 O14 2.194048 1_555
Na0 O2 2.290739 1_555
O0 Ti0 1.927503 1_555
O0 Ti2 2.053432 1_455
O0 Ti3 2.071925 1_555
O1 Ti0 1.982873 1_555
O1 Ti6 1.982873 1_555
O1 Ti1 2.009523 1_555
O2 Ti6 2.018891 1_555
O2 Ti0 2.018891 1_555
O2 Ti2 2.068117 1_445
O3 Ti3 1.909698 1_555
O3 Ti0 2.040755 1_655
O3 Ti6 2.040755 1_565
O4 Ti7 1.902921 1_455
O4 Ti1 2.036463 1_555
O4 Ti0 2.110166 1_555
O5 Ti2 1.912055 1_545
O5 Ti3 1.925878 1_555
O5 Ti4 2.081005 1_556
O6 Ti2 1.912055 1_455
O6 Ti3 1.925878 1_555
O6 Ti5 2.081005 1_556
O7 Ti4 2.021766 1_555
O7 Ti5 2.021766 1_555
O7 Ti1 2.033951 1_555
O8 Ti6 1.927503 1_555
O8 Ti2 2.053432 1_545
O8 Ti3 2.071925 1_555
O9 Ti4 1.965768 1_565
O9 Ti5 1.965768 1_655
O9 Ti2 1.966079 1_554
O10 Ti4 1.916574 1_555
O10 Ti5 1.916574 1_555
O10 Ti3 2.113483 1_554
O11 Ti0 1.932862 1_655
O11 Ti6 1.932862 1_565
O11 Ti7 2.034800 1_555
O12 Ti1 1.944671 1_555
O12 Ti5 1.958827 1_655
O12 Ti7 2.110466 1_545
O13 Ti1 1.944671 1_555
O13 Ti4 1.958827 1_565
O13 Ti7 2.110466 1_455
O14 Ti7 1.902921 1_545
O14 Ti1 2.036463 1_555
O14 Ti6 2.110166 1_555
O15 Ti7 1.901051 1_555
O15 Ti4 2.041458 1_565
O15 Ti5 2.041458 1_655
