# generated using pymatgen
data_Li2VOF4
_symmetry_space_group_name_H-M   'P 1'
_cell_length_a   5.09520517
_cell_length_b   5.78585553
_cell_length_c   7.06014385
_cell_angle_alpha   71.10063077
_cell_angle_beta   90.02343502
_cell_angle_gamma   63.89669853
_symmetry_Int_Tables_number   1
_chemical_formula_structural   Li2VOF4
_chemical_formula_sum   'Li4 V2 O2 F8'
_cell_volume   174.30831576
_cell_formula_units_Z   2
loop_
 _symmetry_equiv_pos_site_id
 _symmetry_equiv_pos_as_xyz
  1  'x, y, z'
loop_
 _atom_site_type_symbol
 _atom_site_label
 _atom_site_symmetry_multiplicity
 _atom_site_fract_x
 _atom_site_fract_y
 _atom_site_fract_z
 _atom_site_occupancy
  Li  Li0  1  0.64078600  0.71717300  0.74610800  1
  Li  Li1  1  0.64015700  0.71745800  0.24622500  1
  Li  Li2  1  0.34680200  0.28820700  0.75792200  1
  Li  Li3  1  0.36352400  0.28779600  0.25822100  1
  V  V0  1  0.01606600  0.99820700  0.47643700  1
  V  V1  1  0.98447800  0.99785000  0.97675600  1
  O  O0  1  0.85328200  0.99504200  0.75435600  1
  O  O1  1  0.14937400  0.99674100  0.25394400  1
  F  F0  1  0.40598900  0.82768400  0.96309000  1
  F  F1  1  0.76397200  0.82865500  0.46230600  1
  F  F2  1  0.33438000  0.64319300  0.64764800  1
  F  F3  1  0.97716600  0.35454700  0.86376800  1
  F  F4  1  0.02087500  0.64306900  0.14848500  1
  F  F5  1  0.66635800  0.35486000  0.36451200  1
  F  F6  1  0.23627900  0.17151900  0.54477100  1
  F  F7  1  0.59066600  0.17197000  0.04413500  1
loop_
_geom_bond_atom_site_label_1
_geom_bond_atom_site_label_2
_geom_bond_distance
_geom_bond_site_symmetry_2
Li0 O0 2.313602 1_555
Li1 O1 2.317032 1_555
Li2 O0 2.390221 1_545
Li3 O1 2.382692 1_545
O0 V1 1.713999 1_555
O0 V0 2.128313 1_655
O1 V0 1.712710 1_555
O1 V1 2.126386 1_454
F0 V1 1.947353 1_455
F0 Li0 2.037096 1_555
F0 Li1 2.080571 1_556
F0 Li2 2.465978 1_565
F1 V0 1.947902 1_655
F1 Li1 2.032600 1_555
F1 Li0 2.084417 1_555
F1 Li3 2.458561 1_565
F2 Li2 1.917893 1_555
F2 V0 1.941423 1_555
F2 Li0 1.970712 1_555
F3 Li0 1.932612 1_555
F3 V1 1.939794 1_545
F3 Li2 1.950303 1_655
F4 Li3 1.919065 1_555
F4 V1 1.941796 1_454
F4 Li1 1.970579 1_455
F5 Li1 1.932630 1_555
F5 V0 1.940226 1_645
F5 Li3 1.951693 1_555
F6 V0 1.949430 1_545
F6 Li2 2.007398 1_555
F6 Li3 2.114004 1_555
F6 Li0 2.447058 1_545
F7 V1 1.949322 1_544
F7 Li3 2.012015 1_555
F7 Li2 2.112266 1_554
F7 Li1 2.449562 1_545
