# generated using pymatgen
data_FeOF
_symmetry_space_group_name_H-M   'P 1'
_cell_length_a   9.42246204
_cell_length_b   14.13198529
_cell_length_c   3.03556200
_cell_angle_alpha   90.00000000
_cell_angle_beta   90.00000000
_cell_angle_gamma   90.67048496
_symmetry_Int_Tables_number   1
_chemical_formula_structural   FeOF
_chemical_formula_sum   'Fe12 O12 F12'
_cell_volume   404.18197703
_cell_formula_units_Z   12
loop_
 _symmetry_equiv_pos_site_id
 _symmetry_equiv_pos_as_xyz
  1  'x, y, z'
loop_
 _atom_site_type_symbol
 _atom_site_label
 _atom_site_symmetry_multiplicity
 _atom_site_fract_x
 _atom_site_fract_y
 _atom_site_fract_z
 _atom_site_occupancy
  Fe  Fe0  1  0.01139300  0.00181900  0.00000000  1
  Fe  Fe1  1  0.99133600  0.34397600  0.00000000  1
  Fe  Fe2  1  0.02221900  0.65799900  0.00000000  1
  Fe  Fe3  1  0.21042000  0.17906800  0.50000000  1
  Fe  Fe4  1  0.23168800  0.49338400  0.50000000  1
  Fe  Fe5  1  0.29575000  0.82697800  0.50000000  1
  Fe  Fe6  1  0.51743400  0.33142700  0.00000000  1
  Fe  Fe7  1  0.49231900  0.00497400  0.00000000  1
  Fe  Fe8  1  0.51705600  0.66294900  0.00000000  1
  Fe  Fe9  1  0.72484700  0.16307500  0.50000000  1
  Fe  Fe10  1  0.73698500  0.49346000  0.50000000  1
  Fe  Fe11  1  0.73958200  0.82095000  0.50000000  1
  O  O0  1  0.07800200  0.27875600  0.50000000  1
  O  O1  1  0.10934600  0.60470200  0.50000000  1
  O  O2  1  0.14151900  0.10775700  0.00000000  1
  O  O3  1  0.13859500  0.43313300  0.00000000  1
  O  O4  1  0.36103900  0.89803600  0.00000000  1
  O  O5  1  0.42199700  0.72400500  0.50000000  1
  O  O6  1  0.59205800  0.26812800  0.50000000  1
  O  O7  1  0.60110900  0.60087600  0.50000000  1
  O  O8  1  0.64636400  0.09845300  0.00000000  1
  O  O9  1  0.65220100  0.43767900  0.00000000  1
  O  O10  1  0.65598000  0.75830000  0.00000000  1
  O  O11  1  0.89852600  0.40001700  0.50000000  1
  F  F0  1  0.10128000  0.92883500  0.50000000  1
  F  F1  1  0.16251200  0.76924600  0.00000000  1
  F  F2  1  0.33622900  0.24123200  0.00000000  1
  F  F3  1  0.35898700  0.56214400  0.00000000  1
  F  F4  1  0.38987900  0.07478000  0.50000000  1
  F  F5  1  0.39730200  0.40005500  0.50000000  1
  F  F6  1  0.60706900  0.93306400  0.50000000  1
  F  F7  1  0.84662100  0.23351600  0.00000000  1
  F  F8  1  0.85166400  0.89730700  0.00000000  1
  F  F9  1  0.85059100  0.57121200  0.00000000  1
  F  F10  1  0.89542600  0.06207500  0.50000000  1
  F  F11  1  0.91467600  0.73663400  0.50000000  1
loop_
_geom_bond_atom_site_label_1
_geom_bond_atom_site_label_2
_geom_bond_distance
_geom_bond_site_symmetry_2
Fe0 O2 1.923988 1_555
Fe1 O3 1.863296 1_655
Fe1 O11 1.926612 1_555
Fe1 O11 1.926612 1_554
Fe1 O0 1.958987 1_655
Fe1 O0 1.958987 1_654
Fe2 O1 1.886634 1_554
Fe2 O1 1.886634 1_555
Fe3 O0 1.892773 1_555
Fe3 O2 1.930135 1_556
Fe3 O2 1.930135 1_555
Fe4 O3 1.944375 1_555
Fe4 O3 1.944375 1_556
Fe4 O1 1.961144 1_555
Fe5 O5 1.890292 1_555
Fe5 O4 1.917303 1_555
Fe5 O4 1.917303 1_556
Fe6 O6 1.900787 1_554
Fe6 O6 1.900787 1_555
Fe6 O9 1.955126 1_555
Fe7 O4 1.941710 1_545
Fe7 O8 1.951175 1_555
Fe8 O10 1.867610 1_555
Fe8 O7 1.927866 1_554
Fe8 O7 1.927866 1_555
Fe8 O5 1.966851 1_554
Fe8 O5 1.966851 1_555
Fe9 O8 1.915390 1_555
Fe9 O8 1.915390 1_556
Fe9 O6 1.952699 1_555
Fe10 O9 1.883755 1_555
Fe10 O9 1.883755 1_556
Fe10 O7 1.997235 1_555
Fe10 O11 2.026743 1_555
Fe11 O10 1.921391 1_556
Fe11 O10 1.921391 1_555
F0 Fe0 2.026140 1_565
F0 Fe0 2.026140 1_566
F0 Fe5 2.343365 1_555
F1 Fe2 2.042161 1_555
F1 Fe5 2.126366 1_554
F1 Fe5 2.126366 1_555
F2 Fe3 2.110994 1_555
F2 Fe3 2.110994 1_554
F2 Fe6 2.118718 1_555
F3 Fe8 2.048918 1_555
F3 Fe4 2.158550 1_555
F3 Fe4 2.158550 1_554
F4 Fe7 2.056892 1_556
F4 Fe7 2.056892 1_555
F4 Fe3 2.256036 1_555
F5 Fe4 2.054961 1_555
F5 Fe6 2.133365 1_555
F5 Fe6 2.133365 1_556
F6 Fe11 2.028694 1_555
F6 Fe7 2.128651 1_566
F6 Fe7 2.128651 1_565
F7 Fe1 2.060653 1_555
F7 Fe9 2.141131 1_554
F7 Fe9 2.141131 1_555
F8 Fe0 2.096316 1_665
F8 Fe11 2.134647 1_555
F8 Fe11 2.134647 1_554
F9 Fe2 2.018172 1_655
F9 Fe10 2.151588 1_555
F9 Fe10 2.151588 1_554
F10 Fe0 2.060226 1_655
F10 Fe0 2.060226 1_656
F10 Fe9 2.162011 1_555
F11 Fe11 2.046387 1_555
F11 Fe2 2.142837 1_656
F11 Fe2 2.142837 1_655
