# generated using pymatgen
data_LiTiVO5
_symmetry_space_group_name_H-M   'P 1'
_cell_length_a   6.66497270
_cell_length_b   6.66497270
_cell_length_c   4.60066500
_cell_angle_alpha   90.00000000
_cell_angle_beta   90.00000000
_cell_angle_gamma   91.66737989
_symmetry_Int_Tables_number   1
_chemical_formula_structural   LiTiVO5
_chemical_formula_sum   'Li2 Ti2 V2 O10'
_cell_volume   204.28356905
_cell_formula_units_Z   2
loop_
 _symmetry_equiv_pos_site_id
 _symmetry_equiv_pos_as_xyz
  1  'x, y, z'
loop_
 _atom_site_type_symbol
 _atom_site_label
 _atom_site_symmetry_multiplicity
 _atom_site_fract_x
 _atom_site_fract_y
 _atom_site_fract_z
 _atom_site_occupancy
  Li  Li0  1  0.50000000  0.00000000  0.00000000  1
  Li  Li1  1  0.00000000  0.50000000  0.00000000  1
  Ti  Ti0  1  0.25000000  0.25000000  0.50000000  1
  Ti  Ti1  1  0.75000000  0.75000000  0.50000000  1
  V  V0  1  0.75000000  0.25000000  0.62190000  1
  V  V1  1  0.25000000  0.75000000  0.37810000  1
  O  O0  1  0.25766800  0.02499400  0.27199400  1
  O  O1  1  0.75000000  0.25000000  0.26478400  1
  O  O2  1  0.47500600  0.24233200  0.72800600  1
  O  O3  1  0.02499400  0.25766800  0.72800600  1
  O  O4  1  0.24233200  0.47500600  0.27199400  1
  O  O5  1  0.75766800  0.52499400  0.72800600  1
  O  O6  1  0.97500600  0.74233200  0.27199400  1
  O  O7  1  0.52499400  0.75766800  0.27199400  1
  O  O8  1  0.25000000  0.75000000  0.73521600  1
  O  O9  1  0.74233200  0.97500600  0.72800600  1
loop_
_geom_bond_atom_site_label_1
_geom_bond_atom_site_label_2
_geom_bond_distance
_geom_bond_site_symmetry_2
Li0 O7 2.053767 1_545
Li0 O2 2.053767 1_554
Li0 O9 2.053767 1_544
Li0 O0 2.053767 1_555
Li1 O6 2.053767 1_455
Li1 O4 2.053767 1_555
Li1 O3 2.053767 1_554
Li1 O5 2.053767 1_454
O0 Ti0 1.832050 1_555
O0 V1 1.895974 1_545
O1 V0 1.642971 1_555
O2 Ti0 1.832050 1_555
O2 V0 1.895974 1_555
O3 Ti0 1.832050 1_555
O3 V0 1.895974 1_455
O4 Ti0 1.832050 1_555
O4 V1 1.895974 1_555
O5 Ti1 1.832050 1_555
O5 V0 1.895974 1_555
O6 Ti1 1.832050 1_555
O6 V1 1.895974 1_655
O7 Ti1 1.832050 1_555
O7 V1 1.895974 1_555
O8 V1 1.642971 1_555
O9 Ti1 1.832050 1_555
O9 V0 1.895974 1_565
