# generated using pymatgen
data_CsCu4S3
_symmetry_space_group_name_H-M   'P 1'
_cell_length_a   3.96938200
_cell_length_b   3.96938200
_cell_length_c   9.68938700
_cell_angle_alpha   90.00000000
_cell_angle_beta   90.00000000
_cell_angle_gamma   90.00000000
_symmetry_Int_Tables_number   1
_chemical_formula_structural   CsCu4S3
_chemical_formula_sum   'Cs1 Cu4 S3'
_cell_volume   152.66591822
_cell_formula_units_Z   1
loop_
 _symmetry_equiv_pos_site_id
 _symmetry_equiv_pos_as_xyz
  1  'x, y, z'
loop_
 _atom_site_type_symbol
 _atom_site_label
 _atom_site_symmetry_multiplicity
 _atom_site_fract_x
 _atom_site_fract_y
 _atom_site_fract_z
 _atom_site_occupancy
  Cs  Cs0  1  0.00000000  0.00000000  0.50000000  1
  Cu  Cu0  1  0.50000000  0.00000000  0.14930300  1
  Cu  Cu1  1  0.50000000  0.00000000  0.85069700  1
  Cu  Cu2  1  0.00000000  0.50000000  0.85069700  1
  Cu  Cu3  1  0.00000000  0.50000000  0.14930300  1
  S  S0  1  0.50000000  0.50000000  0.72895300  1
  S  S1  1  0.50000000  0.50000000  0.27104700  1
  S  S2  1  0.00000000  0.00000000  0.00000000  1
loop_
_geom_bond_atom_site_label_1
_geom_bond_atom_site_label_2
_geom_bond_distance
_geom_bond_site_symmetry_2
Cs0 S0 3.577619 1_555
Cs0 S0 3.577619 1_545
Cs0 S0 3.577619 1_445
Cs0 S0 3.577619 1_455
Cs0 S1 3.577619 1_545
Cs0 S1 3.577619 1_455
Cs0 S1 3.577619 1_555
Cs0 S1 3.577619 1_445
Cu0 S1 2.308790 1_555
Cu0 S1 2.308790 1_545
Cu0 S2 2.455974 1_555
Cu0 S2 2.455974 1_655
Cu1 S0 2.308790 1_555
Cu1 S0 2.308790 1_545
Cu1 S2 2.455974 1_656
Cu1 S2 2.455974 1_556
Cu2 S0 2.308790 1_555
Cu2 S0 2.308790 1_455
Cu2 S2 2.455974 1_556
Cu2 S2 2.455974 1_566
Cu3 S1 2.308790 1_555
Cu3 S1 2.308790 1_455
Cu3 S2 2.455974 1_555
Cu3 S2 2.455974 1_565
