# generated using pymatgen
data_LiNiPO4
_symmetry_space_group_name_H-M   'P 1'
_cell_length_a   7.37505000
_cell_length_b   8.41401900
_cell_length_c   16.82235803
_cell_angle_alpha   60.26315166
_cell_angle_beta   90.00000000
_cell_angle_gamma   90.00000000
_symmetry_Int_Tables_number   1
_chemical_formula_structural   LiNiPO4
_chemical_formula_sum   'Li12 Ni12 P12 O48'
_cell_volume   906.42417234
_cell_formula_units_Z   12
loop_
 _symmetry_equiv_pos_site_id
 _symmetry_equiv_pos_as_xyz
  1  'x, y, z'
loop_
 _atom_site_type_symbol
 _atom_site_label
 _atom_site_symmetry_multiplicity
 _atom_site_fract_x
 _atom_site_fract_y
 _atom_site_fract_z
 _atom_site_occupancy
  Li  Li0  1  0.66442500  0.66419600  0.40611400  1
  Li  Li1  1  0.82453000  0.31735400  0.75896000  1
  Li  Li2  1  0.66970300  0.01523800  0.08288300  1
  Li  Li3  1  0.16970300  0.98476200  0.41711700  1
  Li  Li4  1  0.32453000  0.68264600  0.74104000  1
  Li  Li5  1  0.16442500  0.33580400  0.09388600  1
  Li  Li6  1  0.83557500  0.66419600  0.90611400  1
  Li  Li7  1  0.67547000  0.31735400  0.25896000  1
  Li  Li8  1  0.83029700  0.01523800  0.58288300  1
  Li  Li9  1  0.33029700  0.98476200  0.91711700  1
  Li  Li10  1  0.17547000  0.68264600  0.24104000  1
  Li  Li11  1  0.33557500  0.33580400  0.59388600  1
  Ni  Ni0  1  0.94988600  0.31908700  0.92321600  1
  Ni  Ni1  1  0.04673600  0.65741600  0.58625200  1
  Ni  Ni2  1  0.91576200  0.99829400  0.24808800  1
  Ni  Ni3  1  0.41576200  0.00170600  0.25191200  1
  Ni  Ni4  1  0.54673600  0.34258400  0.91374800  1
  Ni  Ni5  1  0.44988600  0.68091300  0.57678400  1
  Ni  Ni6  1  0.55011400  0.31908700  0.42321600  1
  Ni  Ni7  1  0.45326400  0.65741600  0.08625200  1
  Ni  Ni8  1  0.58423800  0.99829400  0.74808800  1
  Ni  Ni9  1  0.08423800  0.00170600  0.75191200  1
  Ni  Ni10  1  0.95326400  0.34258400  0.41374800  1
  Ni  Ni11  1  0.05011400  0.68091300  0.07678400  1
  P  P0  1  0.25762500  0.63748200  0.41210600  1
  P  P1  1  0.23534600  0.31941700  0.77125900  1
  P  P2  1  0.26216000  0.03746700  0.07091500  1
  P  P3  1  0.76216000  0.96253300  0.42908500  1
  P  P4  1  0.73534600  0.68058300  0.72874100  1
  P  P5  1  0.75762500  0.36251800  0.08789400  1
  P  P6  1  0.24237500  0.63748200  0.91210600  1
  P  P7  1  0.26465400  0.31941700  0.27125900  1
  P  P8  1  0.23784000  0.03746700  0.57091500  1
  P  P9  1  0.73784000  0.96253300  0.92908500  1
  P  P10  1  0.76465400  0.68058300  0.22874100  1
  P  P11  1  0.74237500  0.36251800  0.58789400  1
  O  O0  1  0.56454700  0.43752000  0.60508000  1
  O  O1  1  0.90340600  0.42209100  0.62524300  1
  O  O2  1  0.76034700  0.11160600  0.95828500  1
  O  O3  1  0.05425200  0.26805000  0.82471900  1
  O  O4  1  0.39289200  0.26053800  0.83975700  1
  O  O5  1  0.74999400  0.79439500  0.27992100  1
  O  O6  1  0.23883300  0.58206700  0.51546600  1
  O  O7  1  0.27163100  0.93016300  0.17826000  1
  O  O8  1  0.44170700  0.14273400  0.03521400  1
  O  O9  1  0.23965500  0.52556200  0.69532500  1
  O  O10  1  0.26669300  0.85187700  0.35831100  1
  O  O11  1  0.10294400  0.17403600  0.03965200  1
  O  O12  1  0.60294400  0.82596400  0.46034800  1
  O  O13  1  0.76669300  0.14812300  0.14168900  1
  O  O14  1  0.73965500  0.47443800  0.80467500  1
  O  O15  1  0.94170700  0.85726600  0.46478600  1
  O  O16  1  0.77163100  0.06983700  0.32174000  1
  O  O17  1  0.73883300  0.41793300  0.98453400  1
  O  O18  1  0.89289200  0.73946200  0.66024300  1
  O  O19  1  0.24999400  0.20560500  0.22007900  1
  O  O20  1  0.55425200  0.73195000  0.67528100  1
  O  O21  1  0.26034700  0.88839400  0.54171500  1
  O  O22  1  0.40340600  0.57790900  0.87475700  1
  O  O23  1  0.06454700  0.56248000  0.89492000  1
  O  O24  1  0.93545300  0.43752000  0.10508000  1
  O  O25  1  0.59659400  0.42209100  0.12524300  1
  O  O26  1  0.73965300  0.11160600  0.45828500  1
  O  O27  1  0.44574800  0.26805000  0.32471900  1
  O  O28  1  0.75000600  0.79439500  0.77992100  1
  O  O29  1  0.10710800  0.26053800  0.33975700  1
  O  O30  1  0.26116700  0.58206700  0.01546600  1
  O  O31  1  0.22836900  0.93016300  0.67826000  1
  O  O32  1  0.05829300  0.14273400  0.53521400  1
  O  O33  1  0.26034500  0.52556200  0.19532500  1
  O  O34  1  0.23330700  0.85187700  0.85831100  1
  O  O35  1  0.39705600  0.17403600  0.53965200  1
  O  O36  1  0.89705600  0.82596400  0.96034800  1
  O  O37  1  0.73330700  0.14812300  0.64168900  1
  O  O38  1  0.76034500  0.47443800  0.30467500  1
  O  O39  1  0.55829300  0.85726600  0.96478600  1
  O  O40  1  0.72836900  0.06983700  0.82174000  1
  O  O41  1  0.76116700  0.41793300  0.48453400  1
  O  O42  1  0.25000600  0.20560500  0.72007900  1
  O  O43  1  0.60710800  0.73946200  0.16024300  1
  O  O44  1  0.94574800  0.73195000  0.17528100  1
  O  O45  1  0.23965300  0.88839400  0.04171500  1
  O  O46  1  0.09659400  0.57790900  0.37475700  1
  O  O47  1  0.43545300  0.56248000  0.39492000  1
loop_
_geom_bond_atom_site_label_1
_geom_bond_atom_site_label_2
_geom_bond_distance
_geom_bond_site_symmetry_2
Li0 O47 1.944079 1_555
Li0 O5 1.948809 1_555
Li0 O41 1.957318 1_555
Li0 O12 2.030401 1_555
Li1 O14 1.933517 1_555
Li1 O40 1.942588 1_555
Li1 O3 1.952158 1_655
Li1 O1 2.051444 1_555
Li2 O8 1.941092 1_555
Li2 O2 1.952358 1_554
Li2 O13 1.959006 1_555
Li2 O43 2.072496 1_545
Li3 O15 1.941092 1_455
Li3 O21 1.952358 1_555
Li3 O10 1.959006 1_555
Li3 O29 2.072496 1_565
Li4 O9 1.933517 1_555
Li4 O31 1.942588 1_555
Li4 O20 1.952158 1_555
Li4 O22 2.051444 1_555
Li5 O24 1.944079 1_455
Li5 O19 1.948809 1_555
Li5 O30 1.957318 1_555
Li5 O11 2.030401 1_555
Li6 O23 1.944079 1_655
Li6 O28 1.948809 1_555
Li6 O17 1.957318 1_555
Li6 O36 2.030401 1_555
Li7 O38 1.933517 1_555
Li7 O16 1.942588 1_555
Li7 O27 1.952158 1_555
Li7 O25 2.051444 1_555
Li8 O32 1.941092 1_655
Li8 O26 1.952358 1_555
Li8 O37 1.959006 1_555
Li8 O18 2.072496 1_545
Li9 O39 1.941092 1_555
Li9 O45 1.952358 1_556
Li9 O34 1.959006 1_555
Li9 O4 2.072496 1_565
Li10 O33 1.933517 1_555
Li10 O7 1.942588 1_555
Li10 O44 1.952158 1_455
Li10 O46 2.051444 1_555
Li11 O0 1.944079 1_555
Li11 O42 1.948809 1_555
Li11 O6 1.957318 1_555
Li11 O35 2.030401 1_555
Ni0 O23 2.041707 1_655
Ni0 O3 2.056262 1_655
Ni0 O11 2.056416 1_656
Ni0 O2 2.080383 1_555
Ni0 O17 2.242671 1_555
Ni0 O14 2.345907 1_555
Ni1 O18 2.040981 1_455
Ni1 O1 2.044441 1_455
Ni1 O15 2.047983 1_455
Ni1 O6 2.139149 1_555
Ni1 O9 2.145331 1_555
Ni1 O21 2.318561 1_555
Ni2 O13 1.939883 1_565
Ni2 O16 1.940950 1_565
Ni2 O5 1.952769 1_555
Ni3 O10 1.939883 1_545
Ni3 O7 1.940950 1_545
Ni3 O19 1.952769 1_555
Ni4 O4 2.040981 1_555
Ni4 O22 2.044441 1_555
Ni4 O8 2.047983 1_556
Ni4 O17 2.139149 1_555
Ni4 O14 2.145331 1_555
Ni4 O2 2.318561 1_555
Ni5 O0 2.041707 1_555
Ni5 O20 2.056262 1_555
Ni5 O12 2.056416 1_555
Ni5 O21 2.080383 1_555
Ni5 O6 2.242671 1_555
Ni5 O9 2.345907 1_555
Ni6 O47 2.041707 1_555
Ni6 O27 2.056262 1_555
Ni6 O35 2.056416 1_555
Ni6 O26 2.080383 1_555
Ni6 O41 2.242671 1_555
Ni6 O38 2.345907 1_555
Ni7 O43 2.040981 1_555
Ni7 O25 2.044441 1_555
Ni7 O39 2.047983 1_554
Ni7 O30 2.139149 1_555
Ni7 O33 2.145331 1_555
Ni7 O45 2.318561 1_555
Ni8 O37 1.939883 1_565
Ni8 O40 1.940950 1_565
Ni8 O28 1.952769 1_555
Ni9 O34 1.939883 1_545
Ni9 O31 1.940950 1_545
Ni9 O42 1.952769 1_555
Ni10 O29 2.040981 1_655
Ni10 O46 2.044441 1_655
Ni10 O32 2.047983 1_655
Ni10 O41 2.139149 1_555
Ni10 O38 2.145331 1_555
Ni10 O26 2.318561 1_555
Ni11 O24 2.041707 1_455
Ni11 O44 2.056262 1_455
Ni11 O36 2.056416 1_454
Ni11 O45 2.080383 1_555
Ni11 O30 2.242671 1_555
Ni11 O33 2.345907 1_555
O0 P11 1.543643 1_555
O1 P11 1.539108 1_555
O2 P9 1.566314 1_545
O3 P1 1.547176 1_555
O4 P1 1.535234 1_555
O5 P10 1.577306 1_555
O6 P0 1.567045 1_555
O7 P2 1.569567 1_565
O8 P2 1.539775 1_555
O9 P1 1.563092 1_555
O10 P0 1.567830 1_555
O11 P2 1.541525 1_555
O12 P3 1.541525 1_555
O13 P5 1.567830 1_555
O14 P4 1.563092 1_555
O15 P3 1.539775 1_555
O16 P3 1.569567 1_545
O17 P5 1.567045 1_556
O18 P4 1.535234 1_555
O19 P7 1.577306 1_555
O20 P4 1.547176 1_555
O21 P8 1.566314 1_565
O22 P6 1.539108 1_555
O23 P6 1.543643 1_555
O24 P5 1.543643 1_555
O25 P5 1.539108 1_555
O26 P3 1.566314 1_545
O27 P7 1.547176 1_555
O28 P4 1.577306 1_555
O29 P7 1.535234 1_555
O30 P6 1.567045 1_554
O31 P8 1.569567 1_565
O32 P8 1.539775 1_555
O33 P7 1.563092 1_555
O34 P6 1.567830 1_555
O35 P8 1.541525 1_555
O36 P9 1.541525 1_555
O37 P11 1.567830 1_555
O38 P10 1.563092 1_555
O39 P9 1.539775 1_555
O40 P9 1.569567 1_545
O41 P11 1.567045 1_555
O42 P1 1.577306 1_555
O43 P10 1.535234 1_555
O44 P10 1.547176 1_555
O45 P2 1.566314 1_565
O46 P0 1.539108 1_555
O47 P0 1.543643 1_555
