# generated using pymatgen
data_Mn7Sb(PO4)12
_symmetry_space_group_name_H-M   'P 1'
_cell_length_a   8.48723520
_cell_length_b   8.47984749
_cell_length_c   11.82462584
_cell_angle_alpha   90.03725513
_cell_angle_beta   89.97815392
_cell_angle_gamma   90.01172787
_symmetry_Int_Tables_number   1
_chemical_formula_structural   Mn7Sb(PO4)12
_chemical_formula_sum   'Mn7 Sb1 P12 O48'
_cell_volume   851.02350287
_cell_formula_units_Z   1
loop_
 _symmetry_equiv_pos_site_id
 _symmetry_equiv_pos_as_xyz
  1  'x, y, z'
loop_
 _atom_site_type_symbol
 _atom_site_label
 _atom_site_symmetry_multiplicity
 _atom_site_fract_x
 _atom_site_fract_y
 _atom_site_fract_z
 _atom_site_occupancy
  Mn  Mn0  1  0.25025000  0.96524500  0.61799900  1
  Mn  Mn1  1  0.25005400  0.53515100  0.38194300  1
  Mn  Mn2  1  0.24970500  0.03506800  0.11746900  1
  Mn  Mn3  1  0.24974600  0.46577500  0.88165600  1
  Mn  Mn4  1  0.75048000  0.53571700  0.11797800  1
  Mn  Mn5  1  0.75045500  0.96430500  0.88221600  1
  Mn  Mn6  1  0.74953900  0.03359300  0.38118800  1
  Sb  Sb0  1  0.74960800  0.46662400  0.62068900  1
  P  P0  1  0.04173700  0.24677300  0.49797100  1
  P  P1  1  0.46363400  0.74998500  0.99996600  1
  P  P2  1  0.53707100  0.25041200  0.99982600  1
  P  P3  1  0.96565600  0.75458800  0.49810100  1
  P  P4  1  0.10714200  0.39139300  0.14498700  1
  P  P5  1  0.10715100  0.10855400  0.85466900  1
  P  P6  1  0.38678400  0.60912300  0.64604800  1
  P  P7  1  0.39270200  0.89165700  0.35480400  1
  P  P8  1  0.60517700  0.10088000  0.64596500  1
  P  P9  1  0.60393400  0.39051400  0.34947900  1
  P  P10  1  0.89655500  0.60949100  0.85867900  1
  P  P11  1  0.89293400  0.89185200  0.14519700  1
  O  O0  1  0.05975800  0.64121200  0.42344700  1
  O  O1  1  0.06151000  0.86241900  0.57527000  1
  O  O2  1  0.07449300  0.90146800  0.15877400  1
  O  O3  1  0.07650900  0.60181700  0.84420400  1
  O  O4  1  0.14895500  0.15745700  0.58019900  1
  O  O5  1  0.14797700  0.34006400  0.41696900  1
  O  O6  1  0.15974900  0.43808800  0.02676600  1
  O  O7  1  0.15956800  0.06201800  0.97332700  1
  O  O8  1  0.15341400  0.22212000  0.17623400  1
  O  O9  1  0.15279000  0.27822500  0.82429400  1
  O  O10  1  0.17742900  0.51436200  0.22788000  1
  O  O11  1  0.17844200  0.98692600  0.77213900  1
  O  O12  1  0.32110100  0.01305400  0.27179700  1
  O  O13  1  0.31727500  0.48628900  0.72763900  1
  O  O14  1  0.34162900  0.77861100  0.67654400  1
  O  O15  1  0.34705200  0.72197400  0.32361500  1
  O  O16  1  0.34002900  0.56150600  0.52629800  1
  O  O17  1  0.34125600  0.93808900  0.47356100  1
  O  O18  1  0.35306000  0.84054900  0.08110700  1
  O  O19  1  0.35481400  0.65833000  0.91899700  1
  O  O20  1  0.42467500  0.09643100  0.65846000  1
  O  O21  1  0.42306600  0.39977400  0.33881700  1
  O  O22  1  0.44085000  0.14079300  0.07657600  1
  O  O23  1  0.44048500  0.35877000  0.92319000  1
  O  O24  1  0.55975900  0.64059900  0.07655900  1
  O  O25  1  0.55999300  0.85928100  0.92339300  1
  O  O26  1  0.57044700  0.60548600  0.65884100  1
  O  O27  1  0.57437300  0.90092600  0.34102500  1
  O  O28  1  0.64687600  0.34135900  0.08079700  1
  O  O29  1  0.64675800  0.15789600  0.91893700  1
  O  O30  1  0.66022300  0.06315800  0.52659900  1
  O  O31  1  0.65709100  0.43941100  0.46931700  1
  O  O32  1  0.65251600  0.22112000  0.32234400  1
  O  O33  1  0.65023700  0.27267300  0.67993200  1
  O  O34  1  0.67905900  0.51290600  0.27011700  1
  O  O35  1  0.67993000  0.98229300  0.72841300  1
  O  O36  1  0.82057300  0.01359400  0.22756100  1
  O  O37  1  0.82101800  0.48391000  0.77841200  1
  O  O38  1  0.84628300  0.72262500  0.17655400  1
  O  O39  1  0.84647100  0.77686200  0.82507500  1
  O  O40  1  0.84247500  0.56405100  0.97667400  1
  O  O41  1  0.84051800  0.93834000  0.02669500  1
  O  O42  1  0.85654300  0.66499900  0.58229100  1
  O  O43  1  0.85545300  0.84296400  0.41668500  1
  O  O44  1  0.92518100  0.09869100  0.84131400  1
  O  O45  1  0.92562200  0.40148300  0.15908200  1
  O  O46  1  0.94016700  0.14115600  0.42320300  1
  O  O47  1  0.94623300  0.35716800  0.57725100  1
loop_
_geom_bond_atom_site_label_1
_geom_bond_atom_site_label_2
_geom_bond_distance
_geom_bond_site_symmetry_2
Mn0 O17 1.888168 1_555
Mn0 O1 1.892372 1_555
Mn0 O14 1.894142 1_555
Mn0 O4 1.896674 1_565
Mn0 O20 1.912364 1_565
Mn0 O11 1.930295 1_555
Mn1 O16 1.883395 1_555
Mn1 O0 1.912502 1_555
Mn1 O5 1.912816 1_555
Mn1 O15 1.914071 1_555
Mn1 O10 1.931354 1_555
Mn1 O21 1.932210 1_555
Mn2 O7 1.882581 1_554
Mn2 O8 1.914509 1_555
Mn2 O22 1.915408 1_555
Mn2 O18 1.916912 1_545
Mn2 O2 1.932064 1_545
Mn2 O12 1.932231 1_555
Mn3 O6 1.892675 1_556
Mn3 O19 1.911826 1_555
Mn3 O9 1.914434 1_555
Mn3 O13 1.917046 1_555
Mn3 O23 1.920157 1_555
Mn3 O3 1.921093 1_555
Mn4 O40 1.859731 1_554
Mn4 O34 1.908083 1_555
Mn4 O38 1.910872 1_555
Mn4 O24 1.911231 1_555
Mn4 O28 1.918740 1_555
Mn4 O45 1.934809 1_555
Mn5 O41 1.884936 1_556
Mn5 O25 1.908574 1_555
Mn5 O39 1.909397 1_555
Mn5 O29 1.912437 1_565
Mn5 O35 1.921017 1_555
Mn5 O44 1.931615 1_565
Mn6 O30 1.895377 1_555
Mn6 O43 1.897126 1_545
Mn6 O36 1.921198 1_555
Mn6 O32 1.921817 1_555
Mn6 O46 1.922450 1_555
Mn6 O27 1.923673 1_545
O0 P3 1.529741 1_455
O1 P3 1.526359 1_455
O2 P11 1.551458 1_455
O3 P10 1.538194 1_455
O4 P0 1.532650 1_555
O5 P0 1.535029 1_555
O6 P4 1.520030 1_555
O7 P5 1.524322 1_555
O8 P4 1.533682 1_555
O9 P5 1.532802 1_555
O10 P4 1.550103 1_555
O11 P5 1.542955 1_565
O12 P7 1.547396 1_545
O13 P6 1.537665 1_555
O14 P6 1.530357 1_555
O15 P7 1.534831 1_555
O16 P6 1.524855 1_555
O17 P7 1.522005 1_555
O18 P1 1.545870 1_554
O19 P1 1.540505 1_555
O20 P8 1.539472 1_555
O21 P9 1.542306 1_555
O22 P2 1.534547 1_554
O23 P2 1.529520 1_555
O24 P1 1.532388 1_554
O25 P1 1.532275 1_555
O26 P6 1.566483 1_555
O26 Sb0 1.975293 1_555
O27 P7 1.552388 1_555
O28 P2 1.542540 1_554
O29 P2 1.547780 1_555
O30 P8 1.520451 1_555
O31 P9 1.543734 1_555
O31 Sb0 1.968267 1_555
O32 P9 1.528350 1_555
O33 P8 1.558496 1_555
O33 Sb0 1.976732 1_555
O34 P9 1.537818 1_555
O35 P8 1.538253 1_565
O36 P11 1.545947 1_545
O37 P10 1.563570 1_555
O37 Sb0 1.966612 1_555
O38 P11 1.534235 1_555
O39 P10 1.534290 1_555
O40 P10 1.518551 1_555
O41 P11 1.522515 1_555
O42 P3 1.557495 1_555
O42 Sb0 1.964606 1_555
O43 P3 1.537912 1_555
O44 P5 1.554763 1_655
O45 P4 1.551901 1_655
O46 P0 1.525166 1_655
O47 P0 1.552667 1_655
O47 Sb0 1.977267 1_555
