# generated using pymatgen
data_Ba(NaSi2)2
_symmetry_space_group_name_H-M   'P 1'
_cell_length_a   11.09020986
_cell_length_b   11.09020986
_cell_length_c   11.09020986
_cell_angle_alpha   134.42335943
_cell_angle_beta   128.85616492
_cell_angle_gamma   70.89368552
_symmetry_Int_Tables_number   1
_chemical_formula_structural   Ba(NaSi2)2
_chemical_formula_sum   'Ba4 Na8 Si16'
_cell_volume   743.11552517
_cell_formula_units_Z   4
loop_
 _symmetry_equiv_pos_site_id
 _symmetry_equiv_pos_as_xyz
  1  'x, y, z'
loop_
 _atom_site_type_symbol
 _atom_site_label
 _atom_site_symmetry_multiplicity
 _atom_site_fract_x
 _atom_site_fract_y
 _atom_site_fract_z
 _atom_site_occupancy
  Ba  Ba0  1  0.00000000  0.99979300  0.99979300  1
  Ba  Ba1  1  0.08343800  0.16396900  0.58053100  1
  Ba  Ba2  1  0.91656200  0.49709400  0.08053100  1
  Ba  Ba3  1  0.50000000  0.99979300  0.49979300  1
  Na  Na0  1  0.50000000  0.50321400  0.00321400  1
  Na  Na1  1  0.00000000  0.50321400  0.50321400  1
  Na  Na2  1  0.25878500  0.22828900  0.03464200  1
  Na  Na3  1  0.30635300  0.77585700  0.53464200  1
  Na  Na4  1  0.37924000  0.80345400  0.92421400  1
  Na  Na5  1  0.62076000  0.54497400  0.42421400  1
  Na  Na6  1  0.74121500  0.77585700  0.96950400  1
  Na  Na7  1  0.69364700  0.22828900  0.46950400  1
  Si  Si0  1  0.11481800  0.80318300  0.18836400  1
  Si  Si1  1  0.21995600  0.54413500  0.08203600  1
  Si  Si2  1  0.03790100  0.86208100  0.58203600  1
  Si  Si3  1  0.78004400  0.86208100  0.32418000  1
  Si  Si4  1  0.26328600  0.45177400  0.43272300  1
  Si  Si5  1  0.20460300  0.67925100  0.97464800  1
  Si  Si6  1  0.27717500  0.30516300  0.52798800  1
  Si  Si7  1  0.36912100  0.19292500  0.32380400  1
  Si  Si8  1  0.79539700  0.77004500  0.47464800  1
  Si  Si9  1  0.72282500  0.25081200  0.02798800  1
  Si  Si10  1  0.63087900  0.95468300  0.82380400  1
  Si  Si11  1  0.51905100  0.45177400  0.68848800  1
  Si  Si12  1  0.73671400  0.16943700  0.18848800  1
  Si  Si13  1  0.96209900  0.54413500  0.82418000  1
  Si  Si14  1  0.48094900  0.16943700  0.93272300  1
  Si  Si15  1  0.88518200  0.07354600  0.68836400  1
loop_
_geom_bond_atom_site_label_1
_geom_bond_atom_site_label_2
_geom_bond_distance
_geom_bond_site_symmetry_2
Ba0 Si7 3.281185 1_566
Ba0 Si10 3.281185 1_455
Ba0 Si9 3.417903 1_466
Ba0 Si6 3.417908 1_566
Ba0 Si0 3.460330 1_556
Ba0 Si15 3.460340 1_465
Ba0 Si8 3.462557 1_455
Ba0 Si5 3.462557 1_555
Ba1 Si0 3.416520 1_545
Ba1 Si1 3.433341 1_556
Ba1 Si13 3.433343 1_455
Ba1 Si6 3.529688 1_555
Ba1 Si2 3.558104 1_545
Ba1 Si3 3.558112 1_445
Ba1 Si14 3.596170 1_555
Ba1 Si12 3.596170 1_455
Ba1 Si15 3.700206 1_455
Ba2 Si15 3.416528 1_554
Ba2 Si2 3.433341 1_655
Ba2 Si3 3.433344 1_555
Ba2 Si9 3.529707 1_555
Ba2 Si13 3.558095 1_554
Ba2 Si1 3.558110 1_655
Ba2 Si11 3.596167 1_554
Ba2 Si4 3.596176 1_655
Ba2 Si0 3.700206 1_655
Ba3 Si7 3.281185 1_565
Ba3 Si10 3.281185 1_555
Ba3 Si6 3.417908 1_565
Ba3 Si9 3.417910 1_566
Ba3 Si0 3.460336 1_555
Ba3 Si15 3.460340 1_565
Ba3 Si5 3.462557 1_554
Ba3 Si8 3.462557 1_555
Na0 Si6 3.116726 1_554
Na0 Si9 3.116734 1_555
Na0 Si8 3.165556 1_555
Na0 Si5 3.165556 1_554
Na0 Si11 3.257565 1_554
Na0 Si14 3.257565 1_554
Na1 Si6 3.116726 1_555
Na1 Si9 3.116727 1_455
Na1 Si8 3.165556 1_455
Na1 Si5 3.165556 1_555
Na1 Si12 3.257565 1_455
Na1 Si4 3.257565 1_555
Na2 Si7 2.908258 1_555
Na2 Si14 3.030334 1_554
Na2 Si1 3.074160 1_555
Na2 Si4 3.181586 1_555
Na2 Si2 3.199518 1_544
Na2 Si15 3.213121 1_454
Na3 Si10 2.908258 1_555
Na3 Si4 3.030334 1_555
Na3 Si2 3.074159 1_555
Na3 Si14 3.181586 1_565
Na3 Si1 3.199523 1_555
Na3 Si0 3.213129 1_555
Na4 Si5 3.185187 1_555
Na4 Si4 3.362080 1_555
Na4 Si11 3.362080 1_555
Na4 Si7 3.437780 1_566
Na5 Si8 3.185187 1_555
Na5 Si12 3.362080 1_555
Na5 Si14 3.362080 1_554
Na5 Si10 3.437780 1_555
Na6 Si10 2.908258 1_555
Na6 Si11 3.030334 1_555
Na6 Si3 3.074165 1_556
Na6 Si12 3.181586 1_566
Na6 Si13 3.199518 1_555
Na6 Si0 3.213120 1_656
Na7 Si7 2.908258 1_555
Na7 Si12 3.030334 1_555
Na7 Si13 3.074159 1_555
Na7 Si11 3.181586 1_555
Na7 Si3 3.199516 1_545
Na7 Si15 3.213121 1_555
Si0 Si13 2.406934 1_454
Si0 Si1 2.406944 1_555
Si0 Si5 2.450127 1_554
Si1 Si5 2.401996 1_554
Si1 Si13 2.468728 1_454
Si2 Si8 2.402001 1_455
Si2 Si3 2.468728 1_455
Si3 Si8 2.401995 1_555
Si4 Si7 2.407584 1_555
Si4 Si6 2.412529 1_555
Si6 Si7 2.416062 1_555
Si10 Si12 2.407584 1_566
Si10 Si14 2.407584 1_565
Si10 Si9 2.416053 1_566
Si11 Si7 2.407584 1_555
Si11 Si6 2.412529 1_555
Si11 Si4 2.448704 1_555
Si12 Si9 2.412519 1_555
Si12 Si14 2.448704 1_554
Si13 Si5 2.402001 1_655
Si14 Si9 2.412524 1_556
Si15 Si3 2.406929 1_545
Si15 Si2 2.406932 1_645
Si15 Si8 2.450130 1_545
