# generated using pymatgen
data_Na3FePCO7
_symmetry_space_group_name_H-M   'P 1'
_cell_length_a   5.30101677
_cell_length_b   11.23635873
_cell_length_c   11.23844440
_cell_angle_alpha   106.45045062
_cell_angle_beta   90.02145076
_cell_angle_gamma   89.98322198
_symmetry_Int_Tables_number   1
_chemical_formula_structural   Na3FePCO7
_chemical_formula_sum   'Na12 Fe4 P4 C4 O28'
_cell_volume   642.00583539
_cell_formula_units_Z   4
loop_
 _symmetry_equiv_pos_site_id
 _symmetry_equiv_pos_as_xyz
  1  'x, y, z'
loop_
 _atom_site_type_symbol
 _atom_site_label
 _atom_site_symmetry_multiplicity
 _atom_site_fract_x
 _atom_site_fract_y
 _atom_site_fract_z
 _atom_site_occupancy
  Na  Na0  1  0.00293600  0.24075600  0.24346100  1
  Na  Na1  1  0.00210200  0.74095400  0.74337800  1
  Na  Na2  1  0.99761400  0.99340100  0.99093400  1
  Na  Na3  1  0.99751500  0.49330400  0.49076000  1
  Na  Na4  1  0.44264400  0.02962100  0.19474700  1
  Na  Na5  1  0.44221100  0.52965100  0.69478000  1
  Na  Na6  1  0.55747300  0.94496100  0.77975300  1
  Na  Na7  1  0.55767500  0.44468600  0.27939100  1
  Na  Na8  1  0.49241800  0.99723900  0.49234300  1
  Na  Na9  1  0.49253100  0.49728400  0.99238200  1
  Na  Na10  1  0.50758900  0.24235700  0.74724100  1
  Na  Na11  1  0.50713300  0.74252100  0.24726500  1
  Fe  Fe0  1  0.02930000  0.71985600  0.01814500  1
  Fe  Fe1  1  0.97089900  0.26824700  0.97004800  1
  Fe  Fe2  1  0.03002000  0.21992400  0.51817000  1
  Fe  Fe3  1  0.96972300  0.76812800  0.47002100  1
  P  P0  1  0.98536100  0.94674300  0.29052400  1
  P  P1  1  0.98508500  0.44686800  0.79039600  1
  P  P2  1  0.01467400  0.04053200  0.69687600  1
  P  P3  1  0.01480300  0.54046800  0.19687500  1
  C  C0  1  0.49963400  0.29207700  0.44596300  1
  C  C1  1  0.49895600  0.79216600  0.94595100  1
  C  C2  1  0.50032700  0.69601800  0.54212000  1
  C  C3  1  0.50119600  0.19606600  0.04222500  1
  O  O0  1  0.32371500  0.34212900  0.39454500  1
  O  O1  1  0.32286000  0.84216500  0.89458800  1
  O  O2  1  0.67649000  0.64460500  0.59203300  1
  O  O3  1  0.67736200  0.14465900  0.09215600  1
  O  O4  1  0.73723000  0.31006400  0.42415000  1
  O  O5  1  0.73648400  0.81039000  0.92417400  1
  O  O6  1  0.26282300  0.67423000  0.56030400  1
  O  O7  1  0.26369700  0.17420000  0.06044300  1
  O  O8  1  0.06982800  0.90083000  0.15167300  1
  O  O9  1  0.06979300  0.40091000  0.65163100  1
  O  O10  1  0.92981200  0.90174200  0.65094800  1
  O  O11  1  0.93058500  0.40157300  0.15100700  1
  O  O12  1  0.08279900  0.08326900  0.33877200  1
  O  O13  1  0.08195900  0.58349600  0.83858000  1
  O  O14  1  0.91802000  0.08872600  0.83352800  1
  O  O15  1  0.91748600  0.58868400  0.33337600  1
  O  O16  1  0.43841100  0.22556500  0.51832700  1
  O  O17  1  0.43803200  0.72551300  0.01821200  1
  O  O18  1  0.56130400  0.76838400  0.47556100  1
  O  O19  1  0.56202700  0.26842700  0.97567700  1
  O  O20  1  0.69755800  0.93775200  0.30324400  1
  O  O21  1  0.69735200  0.43771300  0.80309500  1
  O  O22  1  0.30242800  0.05319300  0.68764700  1
  O  O23  1  0.30252100  0.55332400  0.18781600  1
  O  O24  1  0.12347900  0.86680500  0.36490300  1
  O  O25  1  0.12352300  0.36712400  0.86493200  1
  O  O26  1  0.87626500  0.11510700  0.61719300  1
  O  O27  1  0.87633400  0.61478800  0.11693300  1
loop_
_geom_bond_atom_site_label_1
_geom_bond_atom_site_label_2
_geom_bond_distance
_geom_bond_site_symmetry_2
Na0 O12 2.351759 1_555
Na0 O11 2.356825 1_455
Na0 O4 2.412428 1_455
Na0 O7 2.414733 1_555
Na0 O0 2.444506 1_555
Na0 O3 2.448472 1_455
Na1 O13 2.350647 1_555
Na1 O10 2.356304 1_455
Na1 O5 2.413180 1_455
Na1 O6 2.415222 1_555
Na1 O1 2.444736 1_555
Na1 O2 2.449564 1_455
Na2 O14 2.350953 1_565
Na2 O8 2.356953 1_656
Na2 O7 2.414310 1_666
Na2 O5 2.415538 1_555
Na2 O3 2.443249 1_566
Na2 O1 2.447522 1_655
Na3 O15 2.351562 1_555
Na3 O9 2.357022 1_655
Na3 O6 2.413016 1_655
Na3 O4 2.414825 1_555
Na3 O2 2.446524 1_555
Na3 O0 2.450336 1_655
Na4 O20 2.255932 1_545
Na4 O3 2.322585 1_555
Na4 O8 2.416304 1_545
Na4 O12 2.463949 1_555
Na4 O7 2.684019 1_555
Na5 O21 2.255757 1_555
Na5 O2 2.321828 1_555
Na5 O9 2.414300 1_555
Na5 O13 2.464266 1_555
Na5 O6 2.686263 1_555
Na6 O22 2.255956 1_565
Na6 O1 2.322237 1_555
Na6 O10 2.414644 1_555
Na6 O14 2.464892 1_565
Na6 O5 2.685005 1_555
Na7 O23 2.255715 1_555
Na7 O0 2.321127 1_555
Na7 O11 2.414519 1_555
Na7 O15 2.463545 1_555
Na7 O4 2.689347 1_555
Na8 O20 2.311381 1_555
Na8 O22 2.333873 1_565
Na8 O16 2.514878 1_565
Na8 O18 2.550751 1_555
Na8 O26 2.609612 1_565
Na8 O24 2.614375 1_555
Na9 O21 2.312384 1_555
Na9 O23 2.335184 1_556
Na9 O17 2.514399 1_556
Na9 O19 2.551420 1_555
Na9 O27 2.606656 1_556
Na9 O25 2.613445 1_555
Na10 O22 2.311646 1_555
Na10 O21 2.333405 1_555
Na10 O19 2.516645 1_555
Na10 O16 2.552049 1_555
Na10 O25 2.609602 1_555
Na10 O26 2.610927 1_555
Na11 O23 2.310542 1_555
Na11 O20 2.333711 1_555
Na11 O18 2.515332 1_555
Na11 O17 2.553020 1_555
Na11 O24 2.605555 1_555
Na11 O27 2.616415 1_555
Fe0 O27 2.006856 1_455
Fe0 O17 2.167640 1_555
Fe0 O8 2.169073 1_555
Fe0 O13 2.178744 1_554
Fe0 O5 2.272857 1_454
Fe1 O25 2.007263 1_655
Fe1 O11 2.168059 1_556
Fe1 O19 2.168368 1_555
Fe1 O14 2.179144 1_555
Fe1 O7 2.272388 1_656
Fe2 O26 2.008354 1_455
Fe2 O16 2.165819 1_555
Fe2 O9 2.168459 1_555
Fe2 O12 2.178926 1_555
Fe2 O4 2.270528 1_455
Fe3 O24 2.008093 1_655
Fe3 O18 2.165932 1_555
Fe3 O10 2.168961 1_555
Fe3 O15 2.178702 1_555
Fe3 O6 2.271764 1_655
C0 O16 1.292219 1_555
C0 O0 1.305074 1_555
C0 O4 1.309857 1_555
C1 O17 1.292103 1_556
C1 O1 1.305065 1_555
C1 O5 1.309973 1_555
C2 O18 1.292293 1_555
C2 O2 1.305098 1_555
C2 O6 1.309779 1_555
C3 O19 1.291962 1_554
C3 O3 1.305183 1_555
C3 O7 1.310037 1_555
O8 P0 1.564014 1_455
O9 P1 1.563530 1_455
O10 P2 1.563697 1_665
O11 P3 1.563753 1_655
O12 P0 1.563097 1_445
O13 P1 1.563075 1_455
O14 P2 1.563239 1_655
O15 P3 1.562913 1_655
O20 P0 1.538401 1_555
O21 P1 1.538178 1_555
O22 P2 1.538314 1_555
O23 P3 1.538192 1_555
O24 P0 1.570346 1_455
O25 P1 1.570789 1_455
O26 P2 1.570537 1_655
O27 P3 1.570797 1_655
