# generated using pymatgen
data_LiVCrP2(O4F)2
_symmetry_space_group_name_H-M   'P 1'
_cell_length_a   5.16698400
_cell_length_b   7.35418607
_cell_length_c   10.43299605
_cell_angle_alpha   104.08293863
_cell_angle_beta   97.07436222
_cell_angle_gamma   108.88871065
_symmetry_Int_Tables_number   1
_chemical_formula_structural   LiVCrP2(O4F)2
_chemical_formula_sum   'Li2 V2 Cr2 P4 O16 F4'
_cell_volume   354.90399063
_cell_formula_units_Z   2
loop_
 _symmetry_equiv_pos_site_id
 _symmetry_equiv_pos_as_xyz
  1  'x, y, z'
loop_
 _atom_site_type_symbol
 _atom_site_label
 _atom_site_symmetry_multiplicity
 _atom_site_fract_x
 _atom_site_fract_y
 _atom_site_fract_z
 _atom_site_occupancy
  Li  Li0  1  0.04884300  0.12837800  0.30518300  1
  Li  Li1  1  0.95115700  0.87162200  0.69481700  1
  V  V0  1  0.50000000  0.50000000  0.50000000  1
  V  V1  1  0.00000000  0.00000000  0.00000000  1
  Cr  Cr0  1  0.50000000  0.00000000  0.50000000  1
  Cr  Cr1  1  0.00000000  0.50000000  0.00000000  1
  P  P0  1  0.50609700  0.06713500  0.82270000  1
  P  P1  1  0.99572700  0.56029700  0.31905800  1
  P  P2  1  0.00427300  0.43970300  0.68094200  1
  P  P3  1  0.49390300  0.93286500  0.17730000  1
  O  O0  1  0.71816600  0.95782200  0.83580100  1
  O  O1  1  0.19055700  0.44134600  0.34217700  1
  O  O2  1  0.63603800  0.29135700  0.89249800  1
  O  O3  1  0.35681700  0.00642500  0.67146000  1
  O  O4  1  0.14106200  0.78753300  0.39235500  1
  O  O5  1  0.86629800  0.51018200  0.17058400  1
  O  O6  1  0.25060100  0.97160700  0.88551100  1
  O  O7  1  0.74098100  0.47832300  0.38677800  1
  O  O8  1  0.25901900  0.52167700  0.61322200  1
  O  O9  1  0.74939900  0.02839300  0.11448900  1
  O  O10  1  0.13370200  0.48981800  0.82941600  1
  O  O11  1  0.85893800  0.21246700  0.60764500  1
  O  O12  1  0.64318300  0.99357500  0.32854000  1
  O  O13  1  0.36396200  0.70864300  0.10750200  1
  O  O14  1  0.80944300  0.55865400  0.65782300  1
  O  O15  1  0.28183400  0.04217800  0.16419900  1
  F  F0  1  0.85938300  0.71369500  0.97295000  1
  F  F1  1  0.34433200  0.20262600  0.46676800  1
  F  F2  1  0.65566800  0.79737400  0.53323200  1
  F  F3  1  0.14061700  0.28630500  0.02705000  1
loop_
_geom_bond_atom_site_label_1
_geom_bond_atom_site_label_2
_geom_bond_distance
_geom_bond_site_symmetry_2
Li0 O12 2.081719 1_445
Li0 O1 2.095114 1_555
Li0 O15 2.119236 1_555
Li0 O9 2.164713 1_455
Li1 O3 2.081719 1_665
Li1 O14 2.095114 1_555
Li1 O0 2.119236 1_555
Li1 O6 2.164713 1_655
Cr0 O11 1.974610 1_555
Cr0 O4 1.974610 1_545
Cr0 F2 1.986574 1_545
Cr0 F1 1.986574 1_555
Cr0 O12 2.014201 1_545
Cr0 O3 2.014201 1_555
Cr1 O5 1.980323 1_455
Cr1 O10 1.980323 1_554
Cr1 O2 1.980802 1_454
Cr1 O13 1.980802 1_555
Cr1 F0 1.995481 1_454
Cr1 F3 1.995481 1_555
O0 P0 1.566065 1_565
O0 V1 1.996490 1_666
O1 P1 1.565214 1_455
O1 V0 2.003255 1_555
O2 P0 1.509487 1_555
O3 P0 1.555126 1_555
O4 P1 1.538023 1_455
O5 P1 1.513269 1_555
O6 P0 1.581898 1_565
O6 V1 1.892519 1_566
O7 P1 1.586739 1_555
O7 V0 1.835838 1_555
O8 P2 1.586739 1_555
O8 V0 1.835838 1_555
O9 P3 1.581898 1_545
O9 V1 1.892519 1_655
O10 P2 1.513269 1_555
O11 P2 1.538023 1_655
O12 P3 1.555126 1_555
O13 P3 1.509487 1_555
O14 P2 1.565214 1_655
O14 V0 2.003255 1_555
O15 P3 1.566065 1_545
O15 V1 1.996490 1_555
F0 V1 1.926309 1_666
F1 Li0 1.962008 1_555
F1 V0 1.993311 1_555
F2 Li1 1.962008 1_555
F2 V0 1.993311 1_555
F3 V1 1.926309 1_555
