# generated using pymatgen
data_Li4Ti2V3O10
_symmetry_space_group_name_H-M   'P 1'
_cell_length_a   6.72627800
_cell_length_b   7.84511951
_cell_length_c   7.94786135
_cell_angle_alpha   95.97435073
_cell_angle_beta   114.52268037
_cell_angle_gamma   90.87724157
_symmetry_Int_Tables_number   1
_chemical_formula_structural   Li4Ti2V3O10
_chemical_formula_sum   'Li8 Ti4 V6 O20'
_cell_volume   378.69892334
_cell_formula_units_Z   2
loop_
 _symmetry_equiv_pos_site_id
 _symmetry_equiv_pos_as_xyz
  1  'x, y, z'
loop_
 _atom_site_type_symbol
 _atom_site_label
 _atom_site_symmetry_multiplicity
 _atom_site_fract_x
 _atom_site_fract_y
 _atom_site_fract_z
 _atom_site_occupancy
  Li  Li0  1  0.09568700  0.70360300  0.77842800  1
  Li  Li1  1  0.81130000  0.59413400  0.40616800  1
  Li  Li2  1  0.24986300  0.75619900  0.49014800  1
  Li  Li3  1  0.75013700  0.24380100  0.50985200  1
  Li  Li4  1  0.18870000  0.40586600  0.59383200  1
  Li  Li5  1  0.90431300  0.29639700  0.22157200  1
  Li  Li6  1  0.32084200  0.08546400  0.40428900  1
  Li  Li7  1  0.67915800  0.91453600  0.59571100  1
  Ti  Ti0  1  0.34842900  0.46044300  0.30926300  1
  Ti  Ti1  1  0.65157100  0.53955700  0.69073700  1
  Ti  Ti2  1  0.83428900  0.94112400  0.31278600  1
  Ti  Ti3  1  0.16571100  0.05887600  0.68721400  1
  V  V0  1  0.97109300  0.65201700  0.09987000  1
  V  V1  1  0.02890700  0.34798300  0.90013000  1
  V  V2  1  0.50000000  0.50000000  0.00000000  1
  V  V3  1  0.00000000  0.00000000  0.00000000  1
  V  V4  1  0.46044000  0.14429800  0.09655100  1
  V  V5  1  0.53956000  0.85570200  0.90344900  1
  O  O0  1  0.76540400  0.44096900  0.94058600  1
  O  O1  1  0.90707300  0.47949900  0.66025300  1
  O  O2  1  0.09292700  0.52050100  0.33974700  1
  O  O3  1  0.39792800  0.61741100  0.76426000  1
  O  O4  1  0.23459600  0.55903100  0.05941400  1
  O  O5  1  0.52884100  0.65374500  0.46724900  1
  O  O6  1  0.90749000  0.11248100  0.76157500  1
  O  O7  1  0.69498500  0.72133700  0.14787500  1
  O  O8  1  0.30501500  0.27866300  0.85212500  1
  O  O9  1  0.02740100  0.15916400  0.46212100  1
  O  O10  1  0.47115900  0.34625500  0.53275100  1
  O  O11  1  0.18536800  0.22347800  0.14632000  1
  O  O12  1  0.81463200  0.77652200  0.85368000  1
  O  O13  1  0.60207200  0.38258900  0.23574000  1
  O  O14  1  0.97259900  0.84083600  0.53787900  1
  O  O15  1  0.25981400  0.93453900  0.92636600  1
  O  O16  1  0.09251000  0.88751900  0.23842500  1
  O  O17  1  0.40473300  0.97142500  0.65576000  1
  O  O18  1  0.59526700  0.02857500  0.34424000  1
  O  O19  1  0.74018600  0.06546100  0.07363400  1
loop_
_geom_bond_atom_site_label_1
_geom_bond_atom_site_label_2
_geom_bond_distance
_geom_bond_site_symmetry_2
Li0 O1 2.044873 1_455
Li0 O15 2.073974 1_555
Li0 O14 2.154422 1_455
Li0 O3 2.195243 1_555
Li0 O12 2.271398 1_455
Li0 O4 2.444244 1_556
Li1 O13 2.108960 1_555
Li1 O14 2.142405 1_555
Li1 O1 2.148903 1_555
Li1 O5 2.193072 1_555
Li1 O7 2.222470 1_555
Li1 O2 2.236268 1_655
Li2 O17 2.003478 1_555
Li2 O2 2.096412 1_555
Li2 O5 2.121221 1_555
Li2 O14 2.153049 1_455
Li2 O16 2.211086 1_555
Li2 O3 2.376883 1_555
Li3 O18 2.003478 1_555
Li3 O1 2.096412 1_555
Li3 O10 2.121221 1_555
Li3 O9 2.153049 1_655
Li3 O6 2.211086 1_555
Li3 O13 2.376883 1_555
Li4 O3 2.108960 1_555
Li4 O9 2.142405 1_555
Li4 O2 2.148903 1_555
Li4 O10 2.193072 1_555
Li4 O8 2.222470 1_555
Li4 O1 2.236268 1_455
Li5 O2 2.044873 1_655
Li5 O19 2.073974 1_555
Li5 O9 2.154422 1_655
Li5 O13 2.195243 1_555
Li5 O11 2.271398 1_655
Li5 O0 2.444244 1_554
Li6 O16 2.080446 1_545
Li6 O18 2.132213 1_555
Li6 O17 2.136569 1_545
Li6 O10 2.212569 1_555
Li6 O11 2.268885 1_555
Li6 O9 2.274650 1_555
Li7 O6 2.080446 1_565
Li7 O17 2.132213 1_555
Li7 O18 2.136569 1_565
Li7 O5 2.212569 1_555
Li7 O12 2.268885 1_555
Li7 O14 2.274650 1_555
O0 Ti1 2.050228 1_555
O0 V1 2.059309 1_655
O0 V0 2.073099 1_556
O0 V2 2.074581 1_556
O1 Ti1 1.892320 1_555
O1 V1 2.123512 1_655
O2 Ti0 1.892320 1_555
O2 V0 2.123512 1_455
O3 V2 2.034965 1_556
O3 V5 2.065484 1_555
O3 Ti1 2.100090 1_555
O4 Ti0 2.050228 1_555
O4 V0 2.059309 1_455
O4 V1 2.073099 1_554
O4 V2 2.074581 1_555
O5 Ti0 1.905611 1_555
O5 Ti1 1.943119 1_555
O6 V1 2.019104 1_655
O6 V3 2.035403 1_656
O6 Ti3 2.089399 1_655
O7 Ti2 2.007372 1_555
O7 V2 2.083851 1_555
O7 V0 2.113377 1_555
O7 V5 2.179944 1_554
O8 Ti3 2.007372 1_555
O8 V2 2.083851 1_556
O8 V1 2.113377 1_555
O8 V4 2.179944 1_556
O9 Ti3 1.902335 1_555
O9 Ti2 2.061911 1_445
O10 Ti1 1.905611 1_555
O10 Ti0 1.943119 1_555
O11 V3 2.070208 1_555
O11 V4 2.134754 1_555
O11 Ti0 2.143216 1_555
O11 V1 2.147130 1_554
O12 V3 2.070208 1_666
O12 V5 2.134754 1_555
O12 Ti1 2.143216 1_555
O12 V0 2.147130 1_556
O13 V2 2.034965 1_555
O13 V4 2.065484 1_555
O13 Ti0 2.100090 1_555
O14 Ti2 1.902335 1_555
O14 Ti3 2.061911 1_665
O15 V5 2.062277 1_555
O15 V4 2.076540 1_566
O15 Ti3 2.090722 1_565
O15 V3 2.115224 1_566
O16 V0 2.019104 1_455
O16 V3 2.035403 1_565
O16 Ti2 2.089399 1_455
O17 Ti3 1.857331 1_565
O17 V5 2.106489 1_555
O18 Ti2 1.857331 1_545
O18 V4 2.106489 1_555
O19 V4 2.062277 1_555
O19 V5 2.076540 1_544
O19 Ti2 2.090722 1_545
O19 V3 2.115224 1_655
