# generated using pymatgen
data_LiCrPH2O5
_symmetry_space_group_name_H-M   'P 1'
_cell_length_a   5.03217000
_cell_length_b   10.40504600
_cell_length_c   17.28840900
_cell_angle_alpha   90.00000000
_cell_angle_beta   90.00000000
_cell_angle_gamma   90.00000000
_symmetry_Int_Tables_number   1
_chemical_formula_structural   LiCrPH2O5
_chemical_formula_sum   'Li8 Cr8 P8 H16 O40'
_cell_volume   905.22040941
_cell_formula_units_Z   8
loop_
 _symmetry_equiv_pos_site_id
 _symmetry_equiv_pos_as_xyz
  1  'x, y, z'
loop_
 _atom_site_type_symbol
 _atom_site_label
 _atom_site_symmetry_multiplicity
 _atom_site_fract_x
 _atom_site_fract_y
 _atom_site_fract_z
 _atom_site_occupancy
  Li  Li0  1  0.46537700  0.17438900  0.49482800  1
  Li  Li1  1  0.53462300  0.17438900  0.99482800  1
  Li  Li2  1  0.91118600  0.39807900  0.24589400  1
  Li  Li3  1  0.08881400  0.39807900  0.74589400  1
  Li  Li4  1  0.46537700  0.67438900  0.00517200  1
  Li  Li5  1  0.53462300  0.67438900  0.50517200  1
  Li  Li6  1  0.08881400  0.89807900  0.75410600  1
  Li  Li7  1  0.91118600  0.89807900  0.25410600  1
  Cr  Cr0  1  0.56031200  0.14642000  0.19100100  1
  Cr  Cr1  1  0.43968800  0.14642000  0.69100100  1
  Cr  Cr2  1  0.87650200  0.42477200  0.44138500  1
  Cr  Cr3  1  0.12349800  0.42477200  0.94138500  1
  Cr  Cr4  1  0.56031200  0.64642000  0.30899900  1
  Cr  Cr5  1  0.43968800  0.64642000  0.80899900  1
  Cr  Cr6  1  0.12349800  0.92477200  0.55861500  1
  Cr  Cr7  1  0.87650200  0.92477200  0.05861500  1
  P  P0  1  0.03018400  0.23273200  0.09107700  1
  P  P1  1  0.96981600  0.23273200  0.59107700  1
  P  P2  1  0.40649000  0.33939800  0.34062400  1
  P  P3  1  0.59351000  0.33939800  0.84062400  1
  P  P4  1  0.03018400  0.73273200  0.40892300  1
  P  P5  1  0.96981600  0.73273200  0.90892300  1
  P  P6  1  0.59351000  0.83939800  0.65937600  1
  P  P7  1  0.40649000  0.83939800  0.15937600  1
  H  H0  1  0.08495700  0.00103200  0.37099300  1
  H  H1  1  0.91504300  0.00103200  0.87099300  1
  H  H2  1  0.63306000  0.05355700  0.38133600  1
  H  H3  1  0.36694000  0.05355700  0.88133600  1
  H  H4  1  0.13734900  0.10971300  0.31039900  1
  H  H5  1  0.86265100  0.10971300  0.81039900  1
  H  H6  1  0.63355100  0.44977800  0.05470000  1
  H  H7  1  0.36644900  0.44977800  0.55470000  1
  H  H8  1  0.08495700  0.50103200  0.12900700  1
  H  H9  1  0.91504300  0.50103200  0.62900700  1
  H  H10  1  0.63306000  0.55355700  0.11866400  1
  H  H11  1  0.36694000  0.55355700  0.61866400  1
  H  H12  1  0.13734900  0.60971300  0.18960100  1
  H  H13  1  0.86265100  0.60971300  0.68960100  1
  H  H14  1  0.63355100  0.94977800  0.44530000  1
  H  H15  1  0.36644900  0.94977800  0.94530000  1
  O  O0  1  0.53217500  0.02437500  0.42688900  1
  O  O1  1  0.46782500  0.02437500  0.92688900  1
  O  O2  1  0.00969700  0.04073800  0.32417200  1
  O  O3  1  0.99030300  0.04073800  0.82417200  1
  O  O4  1  0.87263200  0.12427200  0.04826500  1
  O  O5  1  0.12736800  0.12427200  0.54826500  1
  O  O6  1  0.32663300  0.19441900  0.09349700  1
  O  O7  1  0.67336700  0.19441900  0.59349700  1
  O  O8  1  0.56670400  0.21000000  0.79740100  1
  O  O9  1  0.43329600  0.21000000  0.29740100  1
  O  O10  1  0.90770700  0.24933800  0.17385300  1
  O  O11  1  0.09229300  0.24933800  0.67385300  1
  O  O12  1  0.47518700  0.32334800  0.92412700  1
  O  O13  1  0.52481300  0.32334800  0.42412700  1
  O  O14  1  0.99400400  0.36189900  0.04774200  1
  O  O15  1  0.00599600  0.36189900  0.54774200  1
  O  O16  1  0.11114400  0.37972300  0.34385900  1
  O  O17  1  0.88885600  0.37972300  0.84385900  1
  O  O18  1  0.56685100  0.44642700  0.29743800  1
  O  O19  1  0.43314900  0.44642700  0.79743800  1
  O  O20  1  0.53217500  0.52437500  0.07311100  1
  O  O21  1  0.46782500  0.52437500  0.57311100  1
  O  O22  1  0.00969700  0.54073800  0.17582800  1
  O  O23  1  0.99030300  0.54073800  0.67582800  1
  O  O24  1  0.12736800  0.62427200  0.95173500  1
  O  O25  1  0.87263200  0.62427200  0.45173500  1
  O  O26  1  0.67336700  0.69441900  0.90650300  1
  O  O27  1  0.32663300  0.69441900  0.40650300  1
  O  O28  1  0.43329600  0.71000000  0.20259900  1
  O  O29  1  0.56670400  0.71000000  0.70259900  1
  O  O30  1  0.90770700  0.74933800  0.32614700  1
  O  O31  1  0.09229300  0.74933800  0.82614700  1
  O  O32  1  0.47518700  0.82334800  0.57587300  1
  O  O33  1  0.52481300  0.82334800  0.07587300  1
  O  O34  1  0.99400400  0.86189900  0.45225800  1
  O  O35  1  0.00599600  0.86189900  0.95225800  1
  O  O36  1  0.88885600  0.87972300  0.65614100  1
  O  O37  1  0.11114400  0.87972300  0.15614100  1
  O  O38  1  0.43314900  0.94642700  0.70256200  1
  O  O39  1  0.56685100  0.94642700  0.20256200  1
loop_
_geom_bond_atom_site_label_1
_geom_bond_atom_site_label_2
_geom_bond_distance
_geom_bond_site_symmetry_2
Li0 O0 1.982168 1_555
Li0 O13 1.996437 1_555
Li0 O5 2.004629 1_555
Li0 O7 2.012150 1_555
Li1 O1 1.982168 1_555
Li1 O12 1.996437 1_555
Li1 O4 2.004629 1_556
Li1 O6 2.012150 1_556
Li2 O22 1.978996 1_655
Li2 O16 1.979253 1_655
Li2 O10 1.986644 1_555
Li2 O18 2.012358 1_555
Li3 O23 1.978996 1_455
Li3 O17 1.979253 1_455
Li3 O11 1.986644 1_555
Li3 O19 2.012358 1_555
Li4 O20 1.982168 1_555
Li4 O33 1.996437 1_555
Li4 O24 2.004629 1_554
Li4 O26 2.012150 1_554
Li5 O21 1.982168 1_555
Li5 O32 1.996437 1_555
Li5 O25 2.004629 1_555
Li5 O27 2.012150 1_555
Li6 O3 1.978996 1_465
Li6 O36 1.979253 1_455
Li6 O31 1.986644 1_555
Li6 O38 2.012358 1_555
Li7 O2 1.978996 1_665
Li7 O37 1.979253 1_655
Li7 O30 1.986644 1_555
Li7 O39 2.012358 1_555
Cr0 O9 2.056671 1_555
Cr0 O10 2.071395 1_555
Cr0 O39 2.090772 1_545
Cr0 O6 2.115124 1_555
Cr1 O8 2.056671 1_555
Cr1 O11 2.071395 1_555
Cr1 O38 2.090772 1_545
Cr1 O7 2.115124 1_555
Cr2 O15 2.057566 1_655
Cr2 O13 2.082011 1_555
Cr2 O25 2.083596 1_555
Cr2 O16 2.111098 1_655
Cr3 O14 2.057566 1_456
Cr3 O12 2.082011 1_555
Cr3 O24 2.083596 1_555
Cr3 O17 2.111098 1_455
Cr4 O28 2.056671 1_555
Cr4 O30 2.071395 1_555
Cr4 O18 2.090772 1_555
Cr4 O27 2.115124 1_555
Cr5 O29 2.056671 1_555
Cr5 O31 2.071395 1_555
Cr5 O19 2.090772 1_555
Cr5 O26 2.115124 1_555
Cr6 O34 2.057566 1_455
Cr6 O32 2.082011 1_555
Cr6 O5 2.083596 1_565
Cr6 O36 2.111098 1_455
Cr7 O35 2.057566 1_654
Cr7 O33 2.082011 1_555
Cr7 O4 2.083596 1_565
Cr7 O37 2.111098 1_655
H0 O2 0.984552 1_555
H1 O3 0.984552 1_555
H2 O0 0.984959 1_555
H3 O1 0.984959 1_555
H4 O2 0.992174 1_555
H5 O3 0.992174 1_555
H6 O20 0.981845 1_555
H7 O21 0.981845 1_555
H8 O22 0.984552 1_555
H9 O23 0.984552 1_555
H10 O20 0.984959 1_555
H11 O21 0.984959 1_555
H12 O22 0.992174 1_555
H13 O23 0.992174 1_555
H14 O0 0.981845 1_565
H15 O1 0.981845 1_565
O4 P0 1.565242 1_655
O5 P1 1.565242 1_455
O6 P0 1.544695 1_555
O7 P1 1.544695 1_555
O8 P3 1.545756 1_555
O9 P2 1.545756 1_555
O10 P0 1.567692 1_655
O11 P1 1.567692 1_455
O12 P3 1.570508 1_555
O13 P2 1.570508 1_555
O14 P0 1.549433 1_655
O15 P1 1.549433 1_455
O16 P2 1.545335 1_555
O17 P3 1.545335 1_555
O18 P2 1.564872 1_555
O19 P3 1.564872 1_555
O24 P5 1.565242 1_455
O25 P4 1.565242 1_655
O26 P5 1.544695 1_555
O27 P4 1.544695 1_555
O28 P7 1.545756 1_555
O29 P6 1.545756 1_555
O30 P4 1.567692 1_655
O31 P5 1.567692 1_455
O32 P6 1.570508 1_555
O33 P7 1.570508 1_555
O34 P4 1.549433 1_655
O35 P5 1.549433 1_455
O36 P6 1.545335 1_555
O37 P7 1.545335 1_555
O38 P6 1.564872 1_555
O39 P7 1.564872 1_555
