# generated using pymatgen
data_Li3Co5OF11
_symmetry_space_group_name_H-M   'P 1'
_cell_length_a   5.23416590
_cell_length_b   5.62296611
_cell_length_c   9.25053361
_cell_angle_alpha   85.83162202
_cell_angle_beta   73.91072629
_cell_angle_gamma   118.28712286
_symmetry_Int_Tables_number   1
_chemical_formula_structural   Li3Co5OF11
_chemical_formula_sum   'Li3 Co5 O1 F11'
_cell_volume   223.55773164
_cell_formula_units_Z   1
loop_
 _symmetry_equiv_pos_site_id
 _symmetry_equiv_pos_as_xyz
  1  'x, y, z'
loop_
 _atom_site_type_symbol
 _atom_site_label
 _atom_site_symmetry_multiplicity
 _atom_site_fract_x
 _atom_site_fract_y
 _atom_site_fract_z
 _atom_site_occupancy
  Li  Li0  1  0.15420900  0.36403000  0.05834600  1
  Li  Li1  1  0.14508900  0.86703500  0.57700400  1
  Li  Li2  1  0.86183900  0.64993200  0.92711900  1
  Co  Co0  1  0.35233800  0.87351300  0.17375700  1
  Co  Co1  1  0.33478000  0.36619600  0.66500000  1
  Co  Co2  1  0.62270000  0.60011700  0.33118500  1
  Co  Co3  1  0.65294600  0.13463200  0.82796200  1
  Co  Co4  1  0.88304900  0.13919500  0.42654200  1
  O  O0  1  0.25306700  0.28147300  0.47568500  1
  F  F0  1  0.04692900  0.01845700  0.22098300  1
  F  F1  1  0.04962000  0.52967500  0.72859200  1
  F  F2  1  0.45986900  0.88936900  0.37105000  1
  F  F3  1  0.55106800  0.62651200  0.12345500  1
  F  F4  1  0.25327800  0.78803400  0.97326700  1
  F  F5  1  0.74409800  0.22083100  0.03252300  1
  F  F6  1  0.76063600  0.71893800  0.52932900  1
  F  F7  1  0.43173400  0.36245100  0.86647900  1
  F  F8  1  0.56368200  0.11768500  0.62522700  1
  F  F9  1  0.95028100  0.48113400  0.27835100  1
  F  F10  1  0.92878800  0.97078900  0.78814500  1
loop_
_geom_bond_atom_site_label_1
_geom_bond_atom_site_label_2
_geom_bond_distance
_geom_bond_site_symmetry_2
Li1 O0 2.183823 1_565
Co0 F5 2.018501 1_565
Co0 F2 2.049645 1_555
Co0 F0 2.076054 1_565
Co0 F4 2.089483 1_554
Co0 F9 2.095988 1_455
Co0 F3 2.102955 1_555
Co1 O0 1.954517 1_555
Co1 F7 2.064060 1_555
Co1 F1 2.076333 1_555
Co1 F6 2.091639 1_555
Co1 F10 2.137482 1_445
Co1 F8 2.222761 1_555
Co2 O0 1.916541 1_555
Co2 F3 2.065386 1_555
Co2 F9 2.072842 1_555
Co2 F2 2.175900 1_555
Co2 F6 2.186697 1_555
Co2 F0 2.224718 1_665
Co3 F10 2.020956 1_545
Co3 F4 2.043944 1_545
Co3 F8 2.052798 1_555
Co3 F7 2.086163 1_555
Co3 F1 2.089062 1_655
Co3 F5 2.111379 1_556
Co4 O0 1.915722 1_655
Co4 F8 2.064008 1_555
Co4 F9 2.099534 1_555
Co4 F0 2.155936 1_655
Co4 F6 2.190767 1_545
Co4 F2 2.220148 1_545
F0 Li0 2.104091 1_555
F1 Li1 2.034951 1_555
F1 Li2 2.146143 1_455
F2 Li1 2.095084 1_555
F3 Li2 2.021537 1_554
F3 Li0 2.184702 1_555
F4 Li2 2.002026 1_455
F4 Li0 2.214001 1_556
F5 Li0 1.996810 1_655
F5 Li2 2.251183 1_554
F6 Li1 1.973408 1_655
F7 Li0 1.961078 1_556
F7 Li2 2.319159 1_555
F8 Li1 2.166154 1_545
F9 Li0 2.317696 1_655
F10 Li2 1.960728 1_555
F10 Li1 2.236742 1_655
