# generated using pymatgen
data_K3SnPCO7
_symmetry_space_group_name_H-M   'P 1'
_cell_length_a   7.55177200
_cell_length_b   5.68874700
_cell_length_c   10.14945489
_cell_angle_alpha   88.12280202
_cell_angle_beta   90.00000000
_cell_angle_gamma   90.00000000
_symmetry_Int_Tables_number   1
_chemical_formula_structural   K3SnPCO7
_chemical_formula_sum   'K6 Sn2 P2 C2 O14'
_cell_volume   435.78780410
_cell_formula_units_Z   2
loop_
 _symmetry_equiv_pos_site_id
 _symmetry_equiv_pos_as_xyz
  1  'x, y, z'
loop_
 _atom_site_type_symbol
 _atom_site_label
 _atom_site_symmetry_multiplicity
 _atom_site_fract_x
 _atom_site_fract_y
 _atom_site_fract_z
 _atom_site_occupancy
  K  K0  1  0.25000000  0.76361800  0.91631800  1
  K  K1  1  0.00227700  0.25654000  0.74252900  1
  K  K2  1  0.49772300  0.25654000  0.74252900  1
  K  K3  1  0.50227700  0.74346000  0.25747100  1
  K  K4  1  0.99772300  0.74346000  0.25747100  1
  K  K5  1  0.75000000  0.23638200  0.08368200  1
  Sn  Sn0  1  0.75000000  0.77355600  0.62734400  1
  Sn  Sn1  1  0.25000000  0.22644400  0.37265600  1
  P  P0  1  0.25000000  0.70828400  0.58885400  1
  P  P1  1  0.75000000  0.29171600  0.41114600  1
  C  C0  1  0.75000000  0.73794100  0.93336300  1
  C  C1  1  0.25000000  0.26205900  0.06663700  1
  O  O0  1  0.25000000  0.26932900  0.93819000  1
  O  O1  1  0.75000000  0.94111000  0.86892400  1
  O  O2  1  0.75000000  0.54333800  0.86870100  1
  O  O3  1  0.08227500  0.78096100  0.66795500  1
  O  O4  1  0.41772500  0.78096100  0.66795500  1
  O  O5  1  0.25000000  0.43469300  0.57574200  1
  O  O6  1  0.75000000  0.17310300  0.55333500  1
  O  O7  1  0.25000000  0.82689700  0.44666500  1
  O  O8  1  0.75000000  0.56530700  0.42425800  1
  O  O9  1  0.58227500  0.21903900  0.33204500  1
  O  O10  1  0.91772500  0.21903900  0.33204500  1
  O  O11  1  0.25000000  0.45666200  0.13129900  1
  O  O12  1  0.25000000  0.05889000  0.13107600  1
  O  O13  1  0.75000000  0.73067100  0.06181000  1
loop_
_geom_bond_atom_site_label_1
_geom_bond_atom_site_label_2
_geom_bond_distance
_geom_bond_site_symmetry_2
K0 O11 2.749626 1_556
K0 O12 2.795057 1_566
K0 O0 2.813376 1_555
K0 O3 2.819919 1_555
K0 O4 2.819919 1_555
K0 O0 2.892655 1_565
K1 O5 2.698143 1_555
K1 O0 2.730946 1_555
K1 O6 2.757134 1_455
K1 O2 2.840453 1_455
K1 O1 2.888650 1_445
K1 O3 2.896800 1_545
K1 O3 3.112873 1_555
K2 O5 2.698143 1_555
K2 O0 2.730946 1_555
K2 O6 2.757134 1_555
K2 O2 2.840453 1_555
K2 O1 2.888650 1_545
K2 O4 2.896800 1_545
K2 O4 3.112873 1_555
K3 O8 2.698143 1_555
K3 O13 2.730946 1_555
K3 O7 2.757134 1_555
K3 O11 2.840453 1_555
K3 O12 2.888650 1_565
K3 O9 2.896800 1_565
K3 O9 3.112873 1_555
K4 O8 2.698143 1_555
K4 O13 2.730946 1_555
K4 O7 2.757134 1_655
K4 O11 2.840453 1_655
K4 O12 2.888650 1_665
K4 O10 2.896800 1_565
K4 O10 3.112873 1_555
K5 O2 2.749626 1_554
K5 O1 2.795057 1_544
K5 O13 2.813376 1_555
K5 O9 2.819919 1_555
K5 O10 2.819919 1_555
K5 O13 2.892655 1_545
C0 O13 1.302968 1_556
C0 O2 1.305320 1_555
C0 O1 1.309214 1_555
C1 O0 1.302968 1_554
C1 O11 1.305320 1_555
C1 O12 1.309214 1_555
O1 Sn0 2.659604 1_555
O2 Sn0 2.739663 1_555
O3 P0 1.562545 1_555
O3 Sn0 2.543465 1_455
O4 P0 1.562545 1_555
O4 Sn0 2.543465 1_555
O5 P0 1.566407 1_555
O5 Sn1 2.410815 1_555
O6 P1 1.572946 1_555
O6 Sn0 2.370348 1_545
O7 P0 1.572946 1_555
O7 Sn1 2.370348 1_565
O8 P1 1.566407 1_555
O8 Sn0 2.410815 1_555
O9 P1 1.562545 1_555
O9 Sn1 2.543465 1_555
O10 P1 1.562545 1_555
O10 Sn1 2.543465 1_655
O11 Sn1 2.739663 1_555
O12 Sn1 2.659604 1_555
