# generated using pymatgen
data_Mo(PO4)2
_symmetry_space_group_name_H-M   'P 1'
_cell_length_a   11.91095600
_cell_length_b   9.98171500
_cell_length_c   17.43561747
_cell_angle_alpha   67.78235714
_cell_angle_beta   90.00000000
_cell_angle_gamma   90.00000000
_symmetry_Int_Tables_number   1
_chemical_formula_structural   Mo(PO4)2
_chemical_formula_sum   'Mo12 P24 O96'
_cell_volume   1919.04344363
_cell_formula_units_Z   12
loop_
 _symmetry_equiv_pos_site_id
 _symmetry_equiv_pos_as_xyz
  1  'x, y, z'
loop_
 _atom_site_type_symbol
 _atom_site_label
 _atom_site_symmetry_multiplicity
 _atom_site_fract_x
 _atom_site_fract_y
 _atom_site_fract_z
 _atom_site_occupancy
  Mo  Mo0  1  0.69737100  0.29362300  0.40787500  1
  Mo  Mo1  1  0.71237700  0.62923800  0.07516500  1
  Mo  Mo2  1  0.30262900  0.70637700  0.59212500  1
  Mo  Mo3  1  0.78762300  0.62923800  0.57516500  1
  Mo  Mo4  1  0.80262900  0.29362300  0.90787500  1
  Mo  Mo5  1  0.80558300  0.95656700  0.23905900  1
  Mo  Mo6  1  0.19737100  0.70637700  0.09212500  1
  Mo  Mo7  1  0.21237700  0.37076200  0.42483500  1
  Mo  Mo8  1  0.69441700  0.95656700  0.73905900  1
  Mo  Mo9  1  0.28762300  0.37076200  0.92483500  1
  Mo  Mo10  1  0.19441700  0.04343300  0.76094100  1
  Mo  Mo11  1  0.30558300  0.04343300  0.26094100  1
  P  P0  1  0.04824600  0.96721900  0.34421000  1
  P  P1  1  0.82776900  0.59774600  0.37682000  1
  P  P2  1  0.67223100  0.59774600  0.87682000  1
  P  P3  1  0.20629500  0.73167400  0.38484800  1
  P  P4  1  0.17223100  0.40225400  0.62318000  1
  P  P5  1  0.53804400  0.70771700  0.47854900  1
  P  P6  1  0.32776900  0.40225400  0.12318000  1
  P  P7  1  0.80009700  0.94532000  0.93912300  1
  P  P8  1  0.79370500  0.26832600  0.61515200  1
  P  P9  1  0.95175400  0.03278100  0.65579000  1
  P  P10  1  0.46056600  0.61938400  0.16151400  1
  P  P11  1  0.96056600  0.38061600  0.33848600  1
  P  P12  1  0.70629500  0.26832600  0.11515200  1
  P  P13  1  0.19990300  0.05468000  0.06087700  1
  P  P14  1  0.30009700  0.05468000  0.56087700  1
  P  P15  1  0.54824600  0.03278100  0.15579000  1
  P  P16  1  0.53943400  0.38061600  0.83848600  1
  P  P17  1  0.29370500  0.73167400  0.88484800  1
  P  P18  1  0.46195600  0.29228300  0.52145100  1
  P  P19  1  0.45175400  0.96721900  0.84421000  1
  P  P20  1  0.03943400  0.61938400  0.66151400  1
  P  P21  1  0.69990300  0.94532000  0.43912300  1
  P  P22  1  0.96195600  0.70771700  0.97854900  1
  P  P23  1  0.03804400  0.29228300  0.02145100  1
  O  O0  1  0.70060700  0.41533600  0.12490400  1
  O  O1  1  0.72067800  0.83421800  0.00252000  1
  O  O2  1  0.57741700  0.87526000  0.45958800  1
  O  O3  1  0.85891900  0.61606000  0.02606800  1
  O  O4  1  0.73591200  0.64067300  0.66294800  1
  O  O5  1  0.07253300  0.45750300  0.66509800  1
  O  O6  1  0.69531000  0.07908800  0.46334500  1
  O  O7  1  0.35891900  0.38394000  0.47393200  1
  O  O8  1  0.26408800  0.35932700  0.33705200  1
  O  O9  1  0.77932200  0.83421800  0.50252000  1
  O  O10  1  0.63692600  0.92809400  0.65743800  1
  O  O11  1  0.73007100  0.98067700  0.35046300  1
  O  O12  1  0.85725200  0.28570400  0.38247400  1
  O  O13  1  0.49216500  0.62076100  0.24226000  1
  O  O14  1  0.77528900  0.50275800  0.87512200  1
  O  O15  1  0.99850800  0.68338400  0.90477600  1
  O  O16  1  0.94697700  0.30879600  0.95365200  1
  O  O17  1  0.21611300  0.83283700  0.81486900  1
  O  O18  1  0.19531000  0.92091200  0.03665500  1
  O  O19  1  0.35147200  0.05637600  0.78984800  1
  O  O20  1  0.13692600  0.07190600  0.84256200  1
  O  O21  1  0.19575000  0.24823500  0.68573100  1
  O  O22  1  0.80469000  0.07908800  0.96334500  1
  O  O23  1  0.50783500  0.37923900  0.75774000  1
  O  O24  1  0.79939300  0.41533600  0.62490400  1
  O  O25  1  0.14274800  0.71429600  0.61752600  1
  O  O26  1  0.91665300  0.20098500  0.64065000  1
  O  O27  1  0.44724100  0.01087400  0.21642300  1
  O  O28  1  0.92746700  0.54249700  0.33490200  1
  O  O29  1  0.41665300  0.79901500  0.85935000  1
  O  O30  1  0.55649700  0.65716800  0.09388200  1
  O  O31  1  0.64852800  0.94362400  0.21015200  1
  O  O32  1  0.52585200  0.00999400  0.07922500  1
  O  O33  1  0.85433900  0.29612600  0.81683900  1
  O  O34  1  0.35725200  0.71429600  0.11752600  1
  O  O35  1  0.07741700  0.12474000  0.04041200  1
  O  O36  1  0.50149200  0.68338400  0.40477600  1
  O  O37  1  0.02585200  0.99000600  0.42077500  1
  O  O38  1  0.29939300  0.58466400  0.87509600  1
  O  O39  1  0.14566100  0.70387400  0.18316100  1
  O  O40  1  0.20060700  0.58466400  0.37509600  1
  O  O41  1  0.80425000  0.75176500  0.31426900  1
  O  O42  1  0.69575000  0.75176500  0.81426900  1
  O  O43  1  0.26270500  0.72263700  0.96970300  1
  O  O44  1  0.36307400  0.07190600  0.34256200  1
  O  O45  1  0.94724100  0.98912600  0.28357700  1
  O  O46  1  0.26992900  0.01932300  0.64953700  1
  O  O47  1  0.55275900  0.98912600  0.78357700  1
  O  O48  1  0.14108100  0.38394000  0.97393200  1
  O  O49  1  0.14257400  0.40725700  0.53847900  1
  O  O50  1  0.76270500  0.27736300  0.53029700  1
  O  O51  1  0.55302300  0.30879600  0.45365200  1
  O  O52  1  0.27932200  0.16578200  0.99748000  1
  O  O53  1  0.42258300  0.12474000  0.54041200  1
  O  O54  1  0.72471100  0.50275800  0.37512200  1
  O  O55  1  0.71611300  0.16716300  0.68513100  1
  O  O56  1  0.49850800  0.31661600  0.59522400  1
  O  O57  1  0.86307400  0.92809400  0.15743800  1
  O  O58  1  0.57253300  0.54249700  0.83490200  1
  O  O59  1  0.23591200  0.35932700  0.83705200  1
  O  O60  1  0.73729500  0.27736300  0.03029700  1
  O  O61  1  0.22067800  0.16578200  0.49748000  1
  O  O62  1  0.85742600  0.59274300  0.46152100  1
  O  O63  1  0.44350300  0.34283200  0.90611800  1
  O  O64  1  0.58334700  0.20098500  0.14065000  1
  O  O65  1  0.30425000  0.24823500  0.18573100  1
  O  O66  1  0.05275900  0.01087400  0.71642300  1
  O  O67  1  0.64108100  0.61606000  0.52606800  1
  O  O68  1  0.00783500  0.62076100  0.74226000  1
  O  O69  1  0.14852800  0.05637600  0.28984800  1
  O  O70  1  0.78388700  0.16716300  0.18513100  1
  O  O71  1  0.22471100  0.49724200  0.12487800  1
  O  O72  1  0.08334700  0.79901500  0.35935000  1
  O  O73  1  0.35433900  0.70387400  0.68316100  1
  O  O74  1  0.27528900  0.49724200  0.62487800  1
  O  O75  1  0.28388700  0.83283700  0.31486900  1
  O  O76  1  0.76992900  0.98067700  0.85046300  1
  O  O77  1  0.85147200  0.94362400  0.71015200  1
  O  O78  1  0.47414800  0.99000600  0.92077500  1
  O  O79  1  0.99216500  0.37923900  0.25774000  1
  O  O80  1  0.30469000  0.92091200  0.53665500  1
  O  O81  1  0.97414800  0.00999400  0.57922500  1
  O  O82  1  0.76408800  0.64067300  0.16294800  1
  O  O83  1  0.64274800  0.28570400  0.88247400  1
  O  O84  1  0.94350300  0.65716800  0.59388200  1
  O  O85  1  0.05302300  0.69120400  0.04634800  1
  O  O86  1  0.64566100  0.29612600  0.31683900  1
  O  O87  1  0.64257400  0.59274300  0.96152100  1
  O  O88  1  0.92258300  0.87526000  0.95958800  1
  O  O89  1  0.05649700  0.34283200  0.40611800  1
  O  O90  1  0.23007100  0.01932300  0.14953700  1
  O  O91  1  0.00149200  0.31661600  0.09522400  1
  O  O92  1  0.35742600  0.40725700  0.03847900  1
  O  O93  1  0.23729500  0.72263700  0.46970300  1
  O  O94  1  0.44697700  0.69120400  0.54634800  1
  O  O95  1  0.42746700  0.45750300  0.16509800  1
loop_
_geom_bond_atom_site_label_1
_geom_bond_atom_site_label_2
_geom_bond_distance
_geom_bond_site_symmetry_2
Mo0 O86 1.693933 1_555
Mo0 O51 1.925479 1_555
Mo0 O12 1.963507 1_555
Mo0 O54 1.971899 1_555
Mo0 O6 1.988827 1_555
Mo0 O50 2.219467 1_555
Mo1 O82 1.693250 1_555
Mo1 O30 1.923613 1_555
Mo1 O1 1.959730 1_555
Mo1 O3 1.970246 1_555
Mo1 O0 1.982456 1_555
Mo1 O87 2.301301 1_554
Mo2 O73 1.693933 1_555
Mo2 O94 1.925479 1_555
Mo2 O25 1.963507 1_555
Mo2 O74 1.971899 1_555
Mo2 O80 1.988827 1_555
Mo2 O93 2.219467 1_555
Mo3 O4 1.693250 1_555
Mo3 O84 1.923613 1_555
Mo3 O9 1.959730 1_555
Mo3 O67 1.970246 1_555
Mo3 O24 1.982456 1_555
Mo3 O62 2.301301 1_555
Mo4 O33 1.693933 1_555
Mo4 O16 1.925479 1_555
Mo4 O83 1.963507 1_555
Mo4 O14 1.971899 1_555
Mo4 O22 1.988827 1_555
Mo4 O60 2.219467 1_556
Mo5 O57 1.697296 1_555
Mo5 O45 1.935407 1_555
Mo5 O31 1.954325 1_555
Mo5 O41 1.967639 1_555
Mo5 O70 1.968497 1_565
Mo5 O11 2.234568 1_555
Mo6 O39 1.693933 1_555
Mo6 O85 1.925479 1_555
Mo6 O34 1.963507 1_555
Mo6 O71 1.971899 1_555
Mo6 O18 1.988827 1_555
Mo6 O43 2.219467 1_554
Mo7 O8 1.693250 1_555
Mo7 O89 1.923613 1_555
Mo7 O61 1.959730 1_555
Mo7 O7 1.970246 1_555
Mo7 O40 1.982456 1_555
Mo7 O49 2.301301 1_555
Mo8 O10 1.697296 1_555
Mo8 O47 1.935407 1_555
Mo8 O77 1.954325 1_555
Mo8 O42 1.967639 1_555
Mo8 O55 1.968497 1_565
Mo8 O76 2.234568 1_555
Mo9 O59 1.693250 1_555
Mo9 O63 1.923613 1_555
Mo9 O52 1.959730 1_555
Mo9 O48 1.970246 1_555
Mo9 O38 1.982456 1_555
Mo9 O92 2.301301 1_556
Mo10 O20 1.697296 1_555
Mo10 O66 1.935407 1_555
Mo10 O19 1.954325 1_555
Mo10 O21 1.967639 1_555
Mo10 O17 1.968497 1_545
Mo10 O46 2.234568 1_555
Mo11 O44 1.697296 1_555
Mo11 O27 1.935407 1_555
Mo11 O69 1.954325 1_555
Mo11 O65 1.967639 1_555
Mo11 O75 1.968497 1_545
Mo11 O90 2.234568 1_555
O0 P12 1.541262 1_555
O1 P7 1.555468 1_554
O2 P21 1.598788 1_555
O2 P5 1.645576 1_555
O3 P22 1.567298 1_554
O5 P4 1.597893 1_555
O5 P20 1.641323 1_555
O6 P21 1.546174 1_545
O7 P18 1.567298 1_555
O9 P21 1.555468 1_555
O11 P21 1.493558 1_555
O12 P11 1.565428 1_555
O13 P10 1.462375 1_555
O14 P2 1.558167 1_555
O15 P22 1.462640 1_555
O16 P23 1.566455 1_656
O17 P17 1.559088 1_555
O18 P13 1.546174 1_565
O19 P19 1.574546 1_545
O21 P4 1.537348 1_555
O22 P7 1.546174 1_545
O23 P16 1.462375 1_555
O24 P8 1.541262 1_555
O25 P20 1.565428 1_555
O26 P8 1.602506 1_555
O26 P9 1.651734 1_555
O27 P15 1.561402 1_555
O28 P1 1.597893 1_555
O28 P11 1.641323 1_555
O29 P17 1.602506 1_555
O29 P19 1.651734 1_555
O30 P10 1.581783 1_555
O31 P15 1.574546 1_565
O32 P15 1.461035 1_555
O34 P10 1.565428 1_555
O35 P13 1.598788 1_555
O35 P23 1.645576 1_555
O36 P5 1.462640 1_555
O37 P0 1.461035 1_555
O38 P17 1.541262 1_555
O40 P3 1.541262 1_555
O41 P1 1.537348 1_555
O42 P2 1.537348 1_555
O43 P17 1.494144 1_555
O45 P0 1.561402 1_655
O46 P14 1.493558 1_555
O47 P19 1.561402 1_555
O48 P23 1.567298 1_556
O49 P4 1.500827 1_555
O50 P8 1.494144 1_555
O51 P18 1.566455 1_555
O52 P13 1.555468 1_556
O53 P14 1.598788 1_555
O53 P18 1.645576 1_555
O54 P1 1.558167 1_555
O55 P8 1.559088 1_555
O56 P18 1.462640 1_555
O58 P2 1.597893 1_555
O58 P16 1.641323 1_555
O60 P12 1.494144 1_555
O61 P14 1.555468 1_555
O62 P1 1.500827 1_555
O63 P16 1.581783 1_555
O64 P12 1.602506 1_555
O64 P15 1.651734 1_555
O65 P6 1.537348 1_555
O66 P9 1.561402 1_455
O67 P5 1.567298 1_555
O68 P20 1.462375 1_555
O69 P0 1.574546 1_545
O70 P12 1.559088 1_555
O71 P6 1.558167 1_555
O72 P3 1.602506 1_555
O72 P0 1.651734 1_555
O74 P4 1.558167 1_555
O75 P3 1.559088 1_555
O76 P7 1.493558 1_555
O77 P9 1.574546 1_565
O78 P19 1.461035 1_555
O79 P11 1.462375 1_555
O80 P14 1.546174 1_565
O81 P9 1.461035 1_555
O83 P16 1.565428 1_555
O84 P20 1.581783 1_655
O85 P22 1.566455 1_454
O87 P2 1.500827 1_555
O88 P7 1.598788 1_555
O88 P22 1.645576 1_555
O89 P11 1.581783 1_455
O90 P13 1.493558 1_555
O91 P23 1.462640 1_555
O92 P6 1.500827 1_555
O93 P3 1.494144 1_555
O94 P5 1.566455 1_555
O95 P6 1.597893 1_555
O95 P10 1.641323 1_555
