# generated using pymatgen
data_Li14Co13O28
_symmetry_space_group_name_H-M   'P 1'
_cell_length_a   7.49918200
_cell_length_b   8.05935355
_cell_length_c   8.55269923
_cell_angle_alpha   102.77987540
_cell_angle_beta   104.52860818
_cell_angle_gamma   105.43692013
_symmetry_Int_Tables_number   1
_chemical_formula_structural   Li14Co13O28
_chemical_formula_sum   'Li14 Co13 O28'
_cell_volume   458.78551973
_cell_formula_units_Z   1
loop_
 _symmetry_equiv_pos_site_id
 _symmetry_equiv_pos_as_xyz
  1  'x, y, z'
loop_
 _atom_site_type_symbol
 _atom_site_label
 _atom_site_symmetry_multiplicity
 _atom_site_fract_x
 _atom_site_fract_y
 _atom_site_fract_z
 _atom_site_occupancy
  Li  Li0  1  0.93265600  0.27651300  0.20821400  1
  Li  Li1  1  0.85731800  0.07090100  0.43176700  1
  Li  Li2  1  0.64488700  0.42943700  0.07259600  1
  Li  Li3  1  0.57774200  0.21679900  0.28883200  1
  Li  Li4  1  0.79303900  0.86052500  0.65410400  1
  Li  Li5  1  0.50000000  0.00000000  0.50000000  1
  Li  Li6  1  0.72394500  0.65457600  0.86087600  1
  Li  Li7  1  0.27605500  0.34542400  0.13912400  1
  Li  Li8  1  0.20696100  0.13947500  0.34589600  1
  Li  Li9  1  0.42225800  0.78320100  0.71116800  1
  Li  Li10  1  0.00000000  0.50000000  0.00000000  1
  Li  Li11  1  0.35511300  0.57056300  0.92740400  1
  Li  Li12  1  0.14268200  0.92909900  0.56823300  1
  Li  Li13  1  0.06734400  0.72348700  0.79178600  1
  Co  Co0  1  0.92914600  0.78942100  0.21157300  1
  Co  Co1  1  0.85761800  0.57203100  0.42884800  1
  Co  Co2  1  0.64615700  0.92913100  0.07045500  1
  Co  Co3  1  0.78600800  0.35646800  0.64376800  1
  Co  Co4  1  0.57165100  0.71381500  0.28460400  1
  Co  Co5  1  0.71999300  0.13924600  0.86033700  1
  Co  Co6  1  0.50000000  0.50000000  0.50000000  1
  Co  Co7  1  0.28000700  0.86075400  0.13966300  1
  Co  Co8  1  0.42834900  0.28618500  0.71539600  1
  Co  Co9  1  0.21399200  0.64353200  0.35623200  1
  Co  Co10  1  0.35384300  0.07086900  0.92954500  1
  Co  Co11  1  0.14238200  0.42796900  0.57115200  1
  Co  Co12  1  0.07085400  0.21057900  0.78842700  1
  O  O0  1  0.90776700  0.01513800  0.21171100  1
  O  O1  1  0.93730600  0.55337000  0.23010100  1
  O  O2  1  0.86541700  0.33746400  0.44410300  1
  O  O3  1  0.63759700  0.16292900  0.05703100  1
  O  O4  1  0.84781200  0.80419500  0.41205900  1
  O  O5  1  0.65232200  0.69432500  0.08342600  1
  O  O6  1  0.98286800  0.24688000  0.97676800  1
  O  O7  1  0.79428700  0.12002700  0.65801400  1
  O  O8  1  0.77730000  0.59134100  0.62999300  1
  O  O9  1  0.58051200  0.48057700  0.30043100  1
  O  O10  1  0.55877800  0.94520100  0.26810700  1
  O  O11  1  0.70435200  0.37341200  0.84242000  1
  O  O12  1  0.50884000  0.26610100  0.51616200  1
  O  O13  1  0.30050400  0.09070200  0.13526800  1
  O  O14  1  0.69949600  0.90929800  0.86473200  1
  O  O15  1  0.49116000  0.73389900  0.48383800  1
  O  O16  1  0.29564800  0.62658800  0.15758000  1
  O  O17  1  0.44122200  0.05479900  0.73189300  1
  O  O18  1  0.41948800  0.51942300  0.69956900  1
  O  O19  1  0.22270000  0.40865900  0.37000700  1
  O  O20  1  0.20571300  0.87997300  0.34198600  1
  O  O21  1  0.01713200  0.75312000  0.02323200  1
  O  O22  1  0.34767800  0.30567500  0.91657400  1
  O  O23  1  0.15218800  0.19580500  0.58794100  1
  O  O24  1  0.36240300  0.83707100  0.94296900  1
  O  O25  1  0.13458300  0.66253600  0.55589700  1
  O  O26  1  0.06269400  0.44663000  0.76989900  1
  O  O27  1  0.09223300  0.98486200  0.78828900  1
loop_
_geom_bond_atom_site_label_1
_geom_bond_atom_site_label_2
_geom_bond_distance
_geom_bond_site_symmetry_2
Li0 O0 2.072317 1_555
Li0 O6 2.080841 1_554
Li0 O3 2.090094 1_555
Li0 O19 2.093988 1_655
Li0 O2 2.183948 1_555
Li0 O1 2.187561 1_555
Li1 O0 1.990191 1_555
Li1 O7 2.084247 1_555
Li1 O4 2.099013 1_545
Li1 O23 2.103674 1_655
Li1 O2 2.111201 1_555
Li1 O10 2.142608 1_545
Li2 O1 2.092298 1_555
Li2 O5 2.101364 1_555
Li2 O9 2.102992 1_555
Li2 O11 2.105379 1_554
Li2 O3 2.107474 1_555
Li2 O22 2.116280 1_554
Li3 O13 1.998733 1_555
Li3 O2 2.058573 1_555
Li3 O9 2.100427 1_555
Li3 O12 2.115816 1_555
Li3 O3 2.118915 1_555
Li3 O10 2.119653 1_545
Li4 O7 2.081758 1_565
Li4 O27 2.087541 1_655
Li4 O14 2.087903 1_555
Li4 O8 2.101551 1_555
Li4 O15 2.178455 1_555
Li4 O4 2.184126 1_555
Li5 O12 2.100330 1_555
Li5 O15 2.100330 1_545
Li5 O7 2.102699 1_555
Li5 O20 2.102699 1_545
Li5 O17 2.116034 1_555
Li5 O10 2.116034 1_545
Li6 O5 2.085386 1_556
Li6 O8 2.092582 1_555
Li6 O14 2.102983 1_555
Li6 O21 2.108024 1_656
Li6 O18 2.175669 1_555
Li6 O11 2.198667 1_555
Li7 O22 2.085386 1_554
Li7 O19 2.092582 1_555
Li7 O13 2.102983 1_555
Li7 O6 2.108024 1_454
Li7 O9 2.175669 1_555
Li7 O16 2.198667 1_555
Li8 O20 2.081758 1_545
Li8 O0 2.087541 1_455
Li8 O13 2.087903 1_555
Li8 O19 2.101551 1_555
Li8 O12 2.178455 1_555
Li8 O23 2.184126 1_555
Li9 O14 1.998733 1_555
Li9 O25 2.058573 1_555
Li9 O18 2.100427 1_555
Li9 O15 2.115816 1_555
Li9 O24 2.118915 1_555
Li9 O17 2.119653 1_565
Li10 O6 1.971259 1_454
Li10 O21 1.971259 1_555
Li10 O16 2.112150 1_555
Li10 O11 2.112150 1_454
Li10 O1 2.115751 1_455
Li10 O26 2.115751 1_554
Li11 O26 2.092298 1_555
Li11 O22 2.101364 1_555
Li11 O18 2.102992 1_555
Li11 O16 2.105379 1_556
Li11 O24 2.107474 1_555
Li11 O5 2.116280 1_556
Li12 O27 1.990191 1_555
Li12 O20 2.084247 1_555
Li12 O23 2.099013 1_565
Li12 O4 2.103674 1_455
Li12 O25 2.111201 1_555
Li12 O17 2.142608 1_565
Li13 O27 2.072317 1_555
Li13 O21 2.080841 1_556
Li13 O24 2.090094 1_555
Li13 O8 2.093988 1_455
Li13 O25 2.183948 1_555
Li13 O26 2.187561 1_555
Co0 O0 1.867982 1_565
Co0 O21 1.882352 1_655
Co0 O5 1.933396 1_555
Co0 O20 1.936931 1_655
Co0 O4 1.949220 1_555
Co0 O1 1.959217 1_555
Co1 O1 1.927055 1_555
Co1 O4 1.927129 1_555
Co1 O25 1.933191 1_655
Co1 O9 1.936301 1_555
Co1 O2 1.938667 1_555
Co1 O8 1.948818 1_555
Co2 O0 1.872251 1_565
Co2 O14 1.882569 1_554
Co2 O3 1.929804 1_565
Co2 O5 1.931953 1_555
Co2 O10 1.951381 1_555
Co2 O24 1.976087 1_554
Co3 O26 1.929908 1_655
Co3 O2 1.933209 1_555
Co3 O11 1.934975 1_555
Co3 O12 1.935497 1_555
Co3 O8 1.939566 1_555
Co3 O7 1.952375 1_555
Co4 O10 1.926706 1_555
Co4 O16 1.928169 1_555
Co4 O4 1.928938 1_555
Co4 O9 1.931513 1_555
Co4 O15 1.933953 1_555
Co4 O5 1.950499 1_555
Co5 O14 1.827999 1_545
Co5 O6 1.831084 1_555
Co5 O3 1.921070 1_556
Co5 O7 1.933852 1_555
Co5 O17 1.949348 1_555
Co5 O11 1.958477 1_555
Co6 O9 1.936895 1_555
Co6 O18 1.936895 1_555
Co6 O15 1.937580 1_555
Co6 O12 1.937580 1_555
Co6 O19 1.940459 1_555
Co6 O8 1.940459 1_555
Co7 O13 1.827999 1_565
Co7 O21 1.831084 1_555
Co7 O24 1.921070 1_554
Co7 O20 1.933852 1_555
Co7 O10 1.949348 1_555
Co7 O16 1.958477 1_555
Co8 O17 1.926706 1_555
Co8 O11 1.928169 1_555
Co8 O23 1.928938 1_555
Co8 O18 1.931513 1_555
Co8 O12 1.933953 1_555
Co8 O22 1.950499 1_555
Co9 O1 1.929908 1_455
Co9 O25 1.933209 1_555
Co9 O16 1.934975 1_555
Co9 O15 1.935497 1_555
Co9 O19 1.939566 1_555
Co9 O20 1.952375 1_555
Co10 O27 1.872251 1_545
Co10 O13 1.882569 1_556
Co10 O24 1.929804 1_545
Co10 O22 1.931953 1_555
Co10 O17 1.951381 1_555
Co10 O3 1.976087 1_556
Co11 O26 1.927055 1_555
Co11 O23 1.927129 1_555
Co11 O2 1.933191 1_455
Co11 O18 1.936301 1_555
Co11 O25 1.938667 1_555
Co11 O19 1.948818 1_555
Co12 O27 1.867982 1_545
Co12 O6 1.882352 1_455
Co12 O22 1.933396 1_555
Co12 O7 1.936931 1_455
Co12 O23 1.949220 1_555
Co12 O26 1.959217 1_555
