# generated using pymatgen
data_CsNa2(H5O3)3
_symmetry_space_group_name_H-M   'P 1'
_cell_length_a   13.91440141
_cell_length_b   6.08883820
_cell_length_c   12.46508290
_cell_angle_alpha   90.00000000
_cell_angle_beta   90.00000000
_cell_angle_gamma   90.00000000
_symmetry_Int_Tables_number   1
_chemical_formula_structural   CsNa2(H5O3)3
_chemical_formula_sum   'Cs4 Na8 H60 O36'
_cell_volume   1056.07347008
_cell_formula_units_Z   4
loop_
 _symmetry_equiv_pos_site_id
 _symmetry_equiv_pos_as_xyz
  1  'x, y, z'
loop_
 _atom_site_type_symbol
 _atom_site_label
 _atom_site_symmetry_multiplicity
 _atom_site_fract_x
 _atom_site_fract_y
 _atom_site_fract_z
 _atom_site_occupancy
  Cs  Cs0  1  0.09914996  0.58022618  0.49996023  1
  Cs  Cs1  1  0.90085004  0.41977382  0.99996023  1
  Cs  Cs2  1  0.40085004  0.58022618  0.99996023  1
  Cs  Cs3  1  0.59914996  0.41977382  0.49996023  1
  Na  Na0  1  0.16005774  0.73821679  0.17760922  1
  Na  Na1  1  0.83994226  0.26178321  0.67760922  1
  Na  Na2  1  0.33994226  0.73821679  0.67760922  1
  Na  Na3  1  0.66005774  0.26178321  0.17760922  1
  Na  Na4  1  0.14105070  0.24227399  0.15484657  1
  Na  Na5  1  0.85894930  0.75772601  0.65484657  1
  Na  Na6  1  0.35894930  0.24227399  0.65484657  1
  Na  Na7  1  0.64105070  0.75772601  0.15484657  1
  H  H0  1  0.42913005  0.12185910  0.25323670  1
  H  H1  1  0.57086995  0.87814090  0.75323670  1
  H  H2  1  0.07086995  0.12185910  0.75323670  1
  H  H3  1  0.92913005  0.87814090  0.25323670  1
  H  H4  1  0.31123935  0.12208195  0.39956300  1
  H  H5  1  0.68876065  0.87791805  0.89956300  1
  H  H6  1  0.18876065  0.12208195  0.89956300  1
  H  H7  1  0.81123935  0.87791805  0.39956300  1
  H  H8  1  0.88565685  0.17955340  0.32722146  1
  H  H9  1  0.11434315  0.82044660  0.82722146  1
  H  H10  1  0.61434315  0.17955340  0.82722146  1
  H  H11  1  0.38565685  0.82044660  0.32722146  1
  H  H12  1  0.99143546  0.92157416  0.10546105  1
  H  H13  1  0.00856454  0.07842584  0.60546105  1
  H  H14  1  0.50856454  0.92157416  0.60546105  1
  H  H15  1  0.49143546  0.07842584  0.10546105  1
  H  H16  1  0.04870232  0.94180380  0.99177489  1
  H  H17  1  0.95129768  0.05819620  0.49177489  1
  H  H18  1  0.45129768  0.94180380  0.49177489  1
  H  H19  1  0.54870232  0.05819620  0.99177489  1
  H  H20  1  0.32906658  0.06051207  0.13784288  1
  H  H21  1  0.67093342  0.93948793  0.63784288  1
  H  H22  1  0.17093342  0.06051207  0.63784288  1
  H  H23  1  0.82906658  0.93948793  0.13784288  1
  H  H24  1  0.26483841  0.05553332  0.03298015  1
  H  H25  1  0.73516159  0.94446668  0.53298015  1
  H  H26  1  0.23516159  0.05553332  0.53298015  1
  H  H27  1  0.76483841  0.94446668  0.03298015  1
  H  H28  1  0.16724735  0.07211699  0.35975444  1
  H  H29  1  0.83275265  0.92788301  0.85975444  1
  H  H30  1  0.33275265  0.07211699  0.85975444  1
  H  H31  1  0.66724735  0.92788301  0.35975444  1
  H  H32  1  0.05401595  0.04780513  0.33592768  1
  H  H33  1  0.94598405  0.95219487  0.83592768  1
  H  H34  1  0.44598405  0.04780513  0.83592768  1
  H  H35  1  0.55401595  0.95219487  0.33592768  1
  H  H36  1  0.98937278  0.58986755  0.22782993  1
  H  H37  1  0.01062722  0.41013245  0.72782993  1
  H  H38  1  0.51062722  0.58986755  0.72782993  1
  H  H39  1  0.48937278  0.41013245  0.22782993  1
  H  H40  1  0.00066312  0.36650632  0.29518145  1
  H  H41  1  0.99933688  0.63349368  0.79518145  1
  H  H42  1  0.49933688  0.36650632  0.79518145  1
  H  H43  1  0.50066312  0.63349368  0.29518145  1
  H  H44  1  0.17975357  0.41604104  0.97447290  1
  H  H45  1  0.82024643  0.58395896  0.47447290  1
  H  H46  1  0.32024643  0.41604104  0.47447290  1
  H  H47  1  0.67975357  0.58395896  0.97447290  1
  H  H48  1  0.11353625  0.63178253  0.96157436  1
  H  H49  1  0.88646375  0.36821747  0.46157436  1
  H  H50  1  0.38646375  0.63178253  0.46157436  1
  H  H51  1  0.61353625  0.36821747  0.96157436  1
  H  H52  1  0.32541420  0.38269891  0.22022209  1
  H  H53  1  0.67458580  0.61730109  0.72022209  1
  H  H54  1  0.17458580  0.38269891  0.72022209  1
  H  H55  1  0.82541420  0.61730109  0.22022209  1
  H  H56  1  0.25432586  0.38772114  0.31364797  1
  H  H57  1  0.74567414  0.61227886  0.81364797  1
  H  H58  1  0.24567414  0.38772114  0.81364797  1
  H  H59  1  0.75432586  0.61227886  0.31364797  1
  O  O0  1  0.41792593  0.21265338  0.18966645  1
  O  O1  1  0.58207407  0.78734662  0.68966645  1
  O  O2  1  0.08207407  0.21265338  0.68966645  1
  O  O3  1  0.91792593  0.78734662  0.18966645  1
  O  O4  1  0.25614042  0.20916704  0.42321280  1
  O  O5  1  0.74385958  0.79083296  0.92321280  1
  O  O6  1  0.24385958  0.20916704  0.92321280  1
  O  O7  1  0.75614042  0.79083296  0.42321280  1
  O  O8  1  0.94349223  0.18115229  0.37164737  1
  O  O9  1  0.05650777  0.81884771  0.87164737  1
  O  O10  1  0.55650777  0.18115229  0.87164737  1
  O  O11  1  0.44349223  0.81884771  0.37164737  1
  O  O12  1  0.04147336  0.00777608  0.06506398  1
  O  O13  1  0.95852664  0.99222392  0.56506398  1
  O  O14  1  0.45852664  0.00777608  0.56506398  1
  O  O15  1  0.54147336  0.99222392  0.06506398  1
  O  O16  1  0.27348478  0.97975789  0.10426497  1
  O  O17  1  0.72651522  0.02024211  0.60426497  1
  O  O18  1  0.22651522  0.97975789  0.60426497  1
  O  O19  1  0.77348478  0.02024211  0.10426497  1
  O  O20  1  0.11842737  0.99039455  0.31513849  1
  O  O21  1  0.88157263  0.00960545  0.81513849  1
  O  O22  1  0.38157263  0.99039455  0.81513849  1
  O  O23  1  0.61842737  0.00960545  0.31513849  1
  O  O24  1  0.03772258  0.47377904  0.24937683  1
  O  O25  1  0.96227742  0.52622096  0.74937683  1
  O  O26  1  0.46227742  0.47377904  0.74937683  1
  O  O27  1  0.53772258  0.52622096  0.24937683  1
  O  O28  1  0.14274608  0.53084472  0.01583590  1
  O  O29  1  0.85725392  0.46915528  0.51583590  1
  O  O30  1  0.35725392  0.53084472  0.51583590  1
  O  O31  1  0.64274608  0.46915528  0.01583590  1
  O  O32  1  0.26523356  0.46216026  0.24298620  1
  O  O33  1  0.73476644  0.53783974  0.74298620  1
  O  O34  1  0.23476644  0.46216026  0.74298620  1
  O  O35  1  0.76523356  0.53783974  0.24298620  1
loop_
_geom_bond_atom_site_label_1
_geom_bond_atom_site_label_2
_geom_bond_distance
_geom_bond_site_symmetry_2
Cs0 H54 3.175924 1_555
Cs0 H40 3.176010 1_555
Cs0 H46 3.250341 1_555
Cs0 H49 3.263953 1_455
Cs0 O2 3.264557 1_555
Cs0 H37 3.264623 1_555
Cs0 O18 3.278585 1_555
Cs0 O13 3.283324 1_455
Cs0 O4 3.285035 1_555
Cs0 O24 3.302599 1_555
Cs0 H56 3.380752 1_555
Cs0 O20 3.408340 1_555
Cs0 O29 3.438808 1_455
Cs1 H55 3.175924 1_556
Cs1 H41 3.176010 1_555
Cs1 H47 3.250341 1_555
Cs1 H48 3.263953 1_655
Cs1 O3 3.264557 1_556
Cs1 H36 3.264623 1_556
Cs1 O19 3.278585 1_556
Cs1 O12 3.283324 1_656
Cs1 O5 3.285035 1_555
Cs1 O25 3.302599 1_555
Cs1 H57 3.380752 1_555
Cs1 O21 3.408340 1_555
Cs1 O28 3.438808 1_656
Cs2 H52 3.175924 1_556
Cs2 H42 3.176010 1_555
Cs2 H44 3.250341 1_555
Cs2 H51 3.263953 1_555
Cs2 O0 3.264557 1_556
Cs2 H39 3.264623 1_556
Cs2 O16 3.278585 1_556
Cs2 O15 3.283324 1_556
Cs2 O6 3.285035 1_555
Cs2 O26 3.302599 1_555
Cs2 H58 3.380752 1_555
Cs2 O22 3.408340 1_555
Cs2 O31 3.438808 1_556
Cs3 H53 3.175924 1_555
Cs3 H43 3.176010 1_555
Cs3 H45 3.250341 1_555
Cs3 H50 3.263953 1_555
Cs3 O1 3.264557 1_555
Cs3 H38 3.264623 1_555
Cs3 O17 3.278585 1_555
Cs3 O14 3.283324 1_555
Cs3 O7 3.285035 1_555
Cs3 O27 3.302599 1_555
Cs3 H59 3.380752 1_555
Cs3 O23 3.408340 1_555
Cs3 O30 3.438808 1_555
Na0 O16 2.343021 1_555
Na0 O32 2.372999 1_555
Na0 O20 2.373201 1_555
Na0 O28 2.391373 1_555
Na0 O24 2.508052 1_555
Na1 O17 2.343021 1_555
Na1 O33 2.372999 1_555
Na1 O21 2.373201 1_555
Na1 O29 2.391373 1_555
Na1 O25 2.508052 1_555
Na2 O18 2.343021 1_555
Na2 O34 2.372999 1_555
Na2 O22 2.373201 1_555
Na2 O30 2.391373 1_555
Na2 O26 2.508052 1_555
Na3 O19 2.343021 1_555
Na3 O35 2.372999 1_555
Na3 O23 2.373201 1_555
Na3 O31 2.391373 1_555
Na3 O27 2.508052 1_555
Na4 O12 2.282747 1_555
Na4 O24 2.332925 1_555
Na4 O32 2.446495 1_555
Na4 O28 2.467862 1_555
Na4 O16 2.519557 1_545
Na4 O20 2.538385 1_545
Na5 O13 2.282747 1_555
Na5 O25 2.332925 1_555
Na5 O33 2.446495 1_555
Na5 O29 2.467862 1_555
Na5 O17 2.519557 1_565
Na5 O21 2.538385 1_565
Na6 O14 2.282747 1_555
Na6 O26 2.332925 1_555
Na6 O34 2.446495 1_555
Na6 O30 2.467862 1_555
Na6 O18 2.519557 1_545
Na6 O22 2.538385 1_545
Na7 O15 2.282747 1_555
Na7 O27 2.332925 1_555
Na7 O35 2.446495 1_555
Na7 O31 2.467862 1_555
Na7 O19 2.519557 1_565
Na7 O23 2.538385 1_565
H0 O0 0.978692 1_555
H1 O1 0.978692 1_555
H2 O2 0.978692 1_555
H3 O3 0.978692 1_555
H4 O4 0.977675 1_555
H5 O5 0.977675 1_555
H6 O6 0.977675 1_555
H7 O7 0.977675 1_555
H8 O8 0.976920 1_555
H9 O9 0.976920 1_555
H10 O10 0.976920 1_555
H11 O11 0.976920 1_555
H12 O12 1.006883 1_665
H13 O13 1.006883 1_445
H14 O14 1.006883 1_565
H15 O15 1.006883 1_545
H16 O12 1.003025 1_566
H17 O13 1.003025 1_545
H18 O14 1.003025 1_565
H19 O15 1.003025 1_546
H20 O16 1.007513 1_545
H21 O17 1.007513 1_565
H22 O18 1.007513 1_545
H23 O19 1.007513 1_565
H24 O16 1.008419 1_545
H24 Na4 2.562656 1_555
H25 O17 1.008419 1_565
H25 Na5 2.562656 1_555
H26 O18 1.008419 1_545
H26 Na6 2.562656 1_555
H27 O19 1.008419 1_565
H27 Na7 2.562656 1_555
H28 O20 1.009130 1_545
H29 O21 1.009130 1_565
H30 O22 1.009130 1_545
H31 O23 1.009130 1_565
H32 O20 0.996296 1_545
H33 O21 0.996296 1_565
H34 O22 0.996296 1_545
H35 O23 0.996296 1_565
H36 O24 1.012112 1_655
H36 O3 1.631081 1_555
H37 O25 1.012112 1_455
H37 O2 1.631081 1_555
H38 O26 1.012112 1_555
H38 O1 1.631081 1_555
H39 O27 1.012112 1_555
H39 O0 1.631081 1_555
H40 O24 1.009220 1_555
H41 O25 1.009220 1_555
H42 O26 1.009220 1_555
H43 O27 1.009220 1_555
H44 O28 1.009766 1_556
H44 Na4 2.542565 1_556
H45 O29 1.009766 1_555
H45 Na5 2.542565 1_555
H46 O30 1.009766 1_555
H46 Na6 2.542565 1_555
H47 O31 1.009766 1_556
H47 Na7 2.542565 1_556
H48 O28 1.000200 1_556
H49 O29 1.000200 1_555
H50 O30 1.000200 1_555
H51 O31 1.000200 1_556
H52 O32 1.007873 1_555
H53 O33 1.007873 1_555
H54 O34 1.007873 1_555
H55 O35 1.007873 1_555
H56 O32 1.002141 1_555
H57 O33 1.002141 1_555
H58 O34 1.002141 1_555
H59 O35 1.002141 1_555
