# generated using pymatgen
data_Li4Mn3Co3(TeO8)2
_symmetry_space_group_name_H-M   'P 1'
_cell_length_a   5.96011800
_cell_length_b   5.99430877
_cell_length_c   9.83414186
_cell_angle_alpha   89.31558032
_cell_angle_beta   89.36888048
_cell_angle_gamma   60.29428042
_symmetry_Int_Tables_number   1
_chemical_formula_structural   Li4Mn3Co3(TeO8)2
_chemical_formula_sum   'Li4 Mn3 Co3 Te2 O16'
_cell_volume   305.14258875
_cell_formula_units_Z   1
loop_
 _symmetry_equiv_pos_site_id
 _symmetry_equiv_pos_as_xyz
  1  'x, y, z'
loop_
 _atom_site_type_symbol
 _atom_site_label
 _atom_site_symmetry_multiplicity
 _atom_site_fract_x
 _atom_site_fract_y
 _atom_site_fract_z
 _atom_site_occupancy
  Li  Li0  1  0.33134600  0.33009600  0.08685100  1
  Li  Li1  1  0.99602300  0.99503800  0.01525800  1
  Li  Li2  1  0.99674100  0.99769700  0.51691400  1
  Li  Li3  1  0.66960000  0.66690400  0.58844100  1
  Mn  Mn0  1  0.16883000  0.17047800  0.79141400  1
  Mn  Mn1  1  0.33955300  0.83082200  0.28924400  1
  Mn  Mn2  1  0.83033300  0.33957700  0.28918900  1
  Co  Co0  1  0.17299900  0.65851800  0.78642900  1
  Co  Co1  1  0.65403700  0.17348200  0.78163800  1
  Co  Co2  1  0.82846900  0.82916100  0.28372900  1
  Te  Te0  1  0.33512200  0.33815700  0.51691800  1
  Te  Te1  1  0.66373500  0.66708800  0.01636000  1
  O  O0  1  0.17455600  0.66253200  0.41174700  1
  O  O1  1  0.48790600  0.47743500  0.64815600  1
  O  O2  1  0.34399900  0.31771500  0.88454700  1
  O  O3  1  0.99102400  0.01462800  0.70699900  1
  O  O4  1  0.00858500  0.00883700  0.20592300  1
  O  O5  1  0.66123800  0.17449200  0.41135400  1
  O  O6  1  0.03841300  0.48193500  0.64473000  1
  O  O7  1  0.48653300  0.03758300  0.64679400  1
  O  O8  1  0.82749200  0.83032400  0.91408100  1
  O  O9  1  0.17659600  0.17520700  0.41369200  1
  O  O10  1  0.51391100  0.96058400  0.14751800  1
  O  O11  1  0.96023500  0.51451500  0.14614200  1
  O  O12  1  0.65762500  0.65757300  0.38470800  1
  O  O13  1  0.34179900  0.83186800  0.91090700  1
  O  O14  1  0.51414800  0.51483100  0.14181000  1
  O  O15  1  0.82885100  0.34322500  0.91066300  1
loop_
_geom_bond_atom_site_label_1
_geom_bond_atom_site_label_2
_geom_bond_distance
_geom_bond_site_symmetry_2
Li0 O14 1.982026 1_555
Li0 O2 1.990961 1_554
Li0 O11 2.004498 1_455
Li0 O10 2.009996 1_545
Li1 O4 1.881783 1_665
Li1 O8 2.000553 1_554
Li1 O13 2.058289 1_654
Li1 O15 2.077783 1_564
Li2 O3 1.872306 1_565
Li2 O5 2.029401 1_565
Li2 O0 2.035793 1_655
Li2 O9 2.095805 1_665
Li3 O6 1.991063 1_655
Li3 O1 1.999118 1_555
Li3 O12 2.008028 1_555
Li3 O7 2.017626 1_565
Mn0 O2 1.913479 1_555
Mn0 O3 1.924598 1_455
Mn0 O15 2.109638 1_455
Mn0 O13 2.111718 1_545
Mn0 O6 2.166265 1_555
Mn0 O7 2.171534 1_555
Mn1 O12 1.902214 1_555
Mn1 O4 1.905200 1_565
Mn1 O0 2.089047 1_555
Mn1 O10 2.090648 1_555
Mn1 O9 2.179377 1_565
Mn1 O14 2.202657 1_555
Mn2 O12 1.911086 1_555
Mn2 O4 1.913598 1_655
Mn2 O5 2.090849 1_555
Mn2 O11 2.103190 1_555
Mn2 O9 2.177291 1_655
Mn2 O14 2.194827 1_555
Co0 O3 2.006840 1_465
Co0 O2 2.013501 1_555
Co0 O1 2.123645 1_555
Co0 O6 2.146398 1_555
Co0 O13 2.164269 1_555
Co0 O8 2.179255 1_455
Co1 O3 1.888978 1_555
Co1 O2 1.892775 1_555
Co1 O1 2.051024 1_555
Co1 O7 2.068760 1_555
Co1 O15 2.200343 1_555
Co1 O8 2.203285 1_545
Co2 O4 2.001504 1_665
Co2 O12 2.017969 1_555
Co2 O10 2.120408 1_555
Co2 O11 2.138775 1_555
Co2 O0 2.196050 1_655
Co2 O5 2.200756 1_565
O0 Te0 1.973780 1_555
O1 Te0 1.999254 1_555
O5 Te0 1.976896 1_555
O6 Te0 1.978971 1_555
O7 Te0 2.012678 1_555
O8 Te1 1.955272 1_556
O9 Te0 1.958772 1_555
O10 Te1 2.006996 1_555
O11 Te1 2.002066 1_555
O13 Te1 1.968193 1_556
O14 Te1 1.976150 1_555
O15 Te1 1.987434 1_556
