# generated using pymatgen
data_Na4Fe6O13
_symmetry_space_group_name_H-M   'P 1'
_cell_length_a   11.14725783
_cell_length_b   11.14725783
_cell_length_c   11.14725783
_cell_angle_alpha   152.64595960
_cell_angle_beta   121.76277121
_cell_angle_gamma   65.50664527
_symmetry_Int_Tables_number   1
_chemical_formula_structural   Na4Fe6O13
_chemical_formula_sum   'Na8 Fe12 O26'
_cell_volume   536.15435142
_cell_formula_units_Z   2
loop_
 _symmetry_equiv_pos_site_id
 _symmetry_equiv_pos_as_xyz
  1  'x, y, z'
loop_
 _atom_site_type_symbol
 _atom_site_label
 _atom_site_symmetry_multiplicity
 _atom_site_fract_x
 _atom_site_fract_y
 _atom_site_fract_z
 _atom_site_occupancy
  Na  Na0  1  0.70148200  0.83155700  0.84509900  1
  Na  Na1  1  0.54442100  0.66621200  0.87630800  1
  Na  Na2  1  0.78990400  0.16621200  0.62179100  1
  Na  Na3  1  0.98645800  0.33155700  0.63007500  1
  Na  Na4  1  0.01354200  0.64361700  0.34509900  1
  Na  Na5  1  0.21009600  0.83188700  0.37630800  1
  Na  Na6  1  0.45557900  0.33188700  0.12179100  1
  Na  Na7  1  0.29851800  0.14361700  0.13007500  1
  Fe  Fe0  1  0.16915100  0.45709700  0.54725600  1
  Fe  Fe1  1  0.63434700  0.25693600  0.37390500  1
  Fe  Fe2  1  0.45185400  0.05294000  0.39849300  1
  Fe  Fe3  1  0.65444700  0.55294000  0.10108700  1
  Fe  Fe4  1  0.88303100  0.75693600  0.12258900  1
  Fe  Fe5  1  0.09015800  0.87810400  0.04725600  1
  Fe  Fe6  1  0.90984200  0.95709700  0.78794600  1
  Fe  Fe7  1  0.11696900  0.23955800  0.87390500  1
  Fe  Fe8  1  0.34555300  0.44663900  0.89849300  1
  Fe  Fe9  1  0.54814600  0.94663900  0.60108700  1
  Fe  Fe10  1  0.36565300  0.73955800  0.62258900  1
  Fe  Fe11  1  0.83084900  0.37810400  0.28794600  1
  O  O0  1  0.00000000  0.68424200  0.68424200  1
  O  O1  1  0.00000000  0.18424200  0.18424200  1
  O  O2  1  0.27397600  0.63793500  0.64527300  1
  O  O3  1  0.26351500  0.12529500  0.31318000  1
  O  O4  1  0.49777000  0.49354100  0.49097200  1
  O  O5  1  0.54024200  0.15724500  0.40071100  1
  O  O6  1  0.47169500  0.65585000  0.03199800  1
  O  O7  1  0.76157700  0.51717800  0.75150700  1
  O  O8  1  0.76567000  0.01717800  0.25560100  1
  O  O9  1  0.62385300  0.15585000  0.68415500  1
  O  O10  1  0.75653400  0.65724500  0.11700400  1
  O  O11  1  0.00733800  0.87129600  0.14527300  1
  O  O12  1  0.18788600  0.54966600  0.81318000  1
  O  O13  1  0.00256900  0.99354100  0.49577200  1
  O  O14  1  0.99743100  0.49320200  0.99097200  1
  O  O15  1  0.81211400  0.62529500  0.36178000  1
  O  O16  1  0.99266200  0.13793500  0.86395800  1
  O  O17  1  0.24346600  0.36047000  0.90071100  1
  O  O18  1  0.37614700  0.06030200  0.53199800  1
  O  O19  1  0.23433000  0.48993100  0.25150700  1
  O  O20  1  0.23842300  0.98993100  0.75560100  1
  O  O21  1  0.52830500  0.56030200  0.18415500  1
  O  O22  1  0.45975800  0.86047000  0.61700400  1
  O  O23  1  0.50223000  0.99320200  0.99577200  1
  O  O24  1  0.73648500  0.04966600  0.86178000  1
  O  O25  1  0.72602400  0.37129600  0.36395800  1
loop_
_geom_bond_atom_site_label_1
_geom_bond_atom_site_label_2
_geom_bond_distance
_geom_bond_site_symmetry_2
Na0 O24 2.450564 1_565
Na0 O7 2.472442 1_555
Na0 O4 2.484435 1_555
Na0 O23 2.496824 1_555
Na0 O25 2.581430 1_555
Na0 O8 2.587278 1_566
Na0 O22 2.711468 1_555
Na0 O25 2.758651 1_566
Na1 O6 2.365926 1_556
Na1 O23 2.428212 1_555
Na1 O4 2.493500 1_555
Na1 O10 2.530034 1_556
Na1 O7 2.580794 1_555
Na1 O5 2.612722 1_555
Na1 O8 2.627531 1_566
Na1 O2 2.644311 1_555
Na1 O5 2.715031 1_566
Na2 O9 2.365916 1_555
Na2 O14 2.428220 1_555
Na2 O13 2.493495 1_645
Na2 O5 2.530027 1_555
Na2 O8 2.580789 1_555
Na2 O10 2.612720 1_545
Na2 O7 2.627539 1_555
Na2 O16 2.644303 1_555
Na2 O10 2.715034 1_556
Na3 O12 2.450570 1_655
Na3 O8 2.472449 1_555
Na3 O13 2.484443 1_645
Na3 O14 2.496819 1_555
Na3 O11 2.581426 1_645
Na3 O7 2.587274 1_555
Na3 O17 2.711463 1_655
Na3 O11 2.758652 1_656
Na4 O15 2.450564 1_455
Na4 O19 2.472453 1_555
Na4 O14 2.484435 1_454
Na4 O13 2.496811 1_555
Na4 O16 2.581426 1_454
Na4 O20 2.587278 1_555
Na4 O10 2.711463 1_455
Na4 O16 2.758652 1_465
Na5 O18 2.365909 1_565
Na5 O13 2.428224 1_555
Na5 O14 2.493500 1_454
Na5 O22 2.530027 1_555
Na5 O19 2.580781 1_555
Na5 O17 2.612720 1_554
Na5 O20 2.627531 1_555
Na5 O11 2.644303 1_555
Na5 O17 2.715034 1_565
Na6 O21 2.365916 1_555
Na6 O4 2.428220 1_555
Na6 O23 2.493507 1_544
Na6 O17 2.530034 1_554
Na6 O20 2.580789 1_544
Na6 O22 2.612716 1_544
Na6 O19 2.627526 1_555
Na6 O25 2.644310 1_555
Na6 O22 2.715036 1_555
Na7 O3 2.450553 1_555
Na7 O20 2.472449 1_544
Na7 O23 2.484429 1_544
Na7 O4 2.496819 1_555
Na7 O2 2.581425 1_544
Na7 O19 2.587285 1_555
Na7 O5 2.711468 1_555
Na7 O2 2.758657 1_555
Fe0 O2 1.821901 1_555
Fe0 O12 1.997220 1_555
Fe0 O1 2.010040 1_555
Fe0 O3 2.028582 1_555
Fe0 O0 2.121955 1_555
Fe1 O8 1.884817 1_555
Fe1 O7 1.892142 1_555
Fe1 O23 1.902876 1_544
Fe1 O4 1.904036 1_555
Fe1 O25 2.032833 1_555
Fe1 O5 2.076332 1_555
Fe2 O5 1.787874 1_555
Fe2 O3 1.954261 1_555
Fe2 O18 1.995398 1_555
Fe2 O9 2.009747 1_555
Fe2 O6 2.085401 1_545
Fe3 O10 1.787874 1_555
Fe3 O15 1.954250 1_555
Fe3 O21 1.995379 1_555
Fe3 O6 2.009747 1_555
Fe3 O9 2.085405 1_554
Fe4 O7 1.884823 1_554
Fe4 O8 1.892147 1_565
Fe4 O14 1.902881 1_554
Fe4 O13 1.904043 1_655
Fe4 O11 2.032825 1_655
Fe4 O10 2.076341 1_555
Fe5 O11 1.821892 1_555
Fe5 O3 1.997247 1_565
Fe5 O0 2.010047 1_554
Fe5 O12 2.028582 1_554
Fe5 O1 2.121961 1_565
Fe6 O16 1.821902 1_565
Fe6 O24 1.997242 1_565
Fe6 O0 2.010038 1_655
Fe6 O15 2.028583 1_555
Fe6 O1 2.121956 1_666
Fe7 O20 1.884817 1_545
Fe7 O19 1.892141 1_556
Fe7 O13 1.902874 1_545
Fe7 O14 1.904036 1_455
Fe7 O16 2.032825 1_455
Fe7 O17 2.076341 1_555
Fe8 O17 1.787865 1_555
Fe8 O12 1.954263 1_555
Fe8 O6 1.995381 1_556
Fe8 O21 2.009747 1_556
Fe8 O18 2.085400 1_555
Fe9 O22 1.787865 1_555
Fe9 O24 1.954253 1_565
Fe9 O9 1.995397 1_565
Fe9 O18 2.009747 1_565
Fe9 O21 2.085406 1_555
Fe10 O19 1.884822 1_555
Fe10 O20 1.892147 1_555
Fe10 O4 1.902881 1_555
Fe10 O23 1.904041 1_555
Fe10 O2 2.032833 1_555
Fe10 O22 2.076332 1_555
Fe11 O25 1.821892 1_555
Fe11 O15 1.997242 1_555
Fe11 O1 2.010038 1_655
Fe11 O24 2.028583 1_554
Fe11 O0 2.121956 1_655
