# generated using pymatgen
data_NbCr2Fe3(PO4)6
_symmetry_space_group_name_H-M   'P 1'
_cell_length_a   8.77078530
_cell_length_b   8.77078530
_cell_length_c   8.77078475
_cell_angle_alpha   59.65525180
_cell_angle_beta   59.65525180
_cell_angle_gamma   59.65524970
_symmetry_Int_Tables_number   1
_chemical_formula_structural   NbCr2Fe3(PO4)6
_chemical_formula_sum   'Nb1 Cr2 Fe3 P6 O24'
_cell_volume   473.35302126
_cell_formula_units_Z   1
loop_
 _symmetry_equiv_pos_site_id
 _symmetry_equiv_pos_as_xyz
  1  'x, y, z'
loop_
 _atom_site_type_symbol
 _atom_site_label
 _atom_site_symmetry_multiplicity
 _atom_site_fract_x
 _atom_site_fract_y
 _atom_site_fract_z
 _atom_site_occupancy
  Nb  Nb0  1  0.85532000  0.85532000  0.85532000  1
  Cr  Cr0  1  0.00869800  0.00869800  0.00869800  1
  Cr  Cr1  1  0.50071000  0.50071000  0.50071000  1
  Fe  Fe0  1  0.14898600  0.14898600  0.14898600  1
  Fe  Fe1  1  0.35473800  0.35473800  0.35473800  1
  Fe  Fe2  1  0.64426400  0.64426400  0.64426400  1
  P  P0  1  0.45055800  0.74786100  0.04383600  1
  P  P1  1  0.54004100  0.25405400  0.95640100  1
  P  P2  1  0.95640100  0.54004100  0.25405400  1
  P  P3  1  0.25405400  0.95640100  0.54004100  1
  P  P4  1  0.74786100  0.04383600  0.45055800  1
  P  P5  1  0.04383600  0.45055800  0.74786100  1
  O  O0  1  0.31043000  0.11309300  0.50504000  1
  O  O1  1  0.50504000  0.31043000  0.11309300  1
  O  O2  1  0.91351100  0.05972800  0.26159300  1
  O  O3  1  0.11309300  0.50504000  0.31043000  1
  O  O4  1  0.81598600  0.99018500  0.61386000  1
  O  O5  1  0.58937400  0.23649900  0.44513300  1
  O  O6  1  0.05972800  0.26159300  0.91351100  1
  O  O7  1  0.23649900  0.44513300  0.58937400  1
  O  O8  1  0.39055800  0.18356700  0.99875100  1
  O  O9  1  0.44513300  0.58937400  0.23649900  1
  O  O10  1  0.73842100  0.08863500  0.93423600  1
  O  O11  1  0.99875100  0.39055800  0.18356700  1
  O  O12  1  0.99018500  0.61386000  0.81598600  1
  O  O13  1  0.26159300  0.91351100  0.05972800  1
  O  O14  1  0.56048700  0.41216000  0.76172700  1
  O  O15  1  0.61386000  0.81598600  0.99018500  1
  O  O16  1  0.76172700  0.56048700  0.41216000  1
  O  O17  1  0.93423600  0.73842100  0.08863500  1
  O  O18  1  0.41216000  0.76172700  0.56048700  1
  O  O19  1  0.18356700  0.99875100  0.39055800  1
  O  O20  1  0.88750700  0.49935100  0.68470100  1
  O  O21  1  0.08863500  0.93423600  0.73842100  1
  O  O22  1  0.49935100  0.68470100  0.88750700  1
  O  O23  1  0.68470100  0.88750700  0.49935100  1
loop_
_geom_bond_atom_site_label_1
_geom_bond_atom_site_label_2
_geom_bond_distance
_geom_bond_site_symmetry_2
Nb0 O4 1.948848 1_555
Nb0 O12 1.948848 1_555
Nb0 O15 1.948848 1_555
Nb0 O17 2.076540 1_556
Nb0 O10 2.076540 1_565
Nb0 O21 2.076540 1_655
Cr0 O2 2.138153 1_455
Cr0 O13 2.138153 1_545
Cr0 O6 2.138153 1_554
Cr0 O21 2.441286 1_544
Cr0 O10 2.441286 1_454
Cr0 O17 2.441287 1_445
Cr1 O14 2.263603 1_555
Cr1 O18 2.263603 1_555
Cr1 O16 2.263603 1_555
Cr1 O9 2.269342 1_555
Cr1 O5 2.269342 1_555
Cr1 O7 2.269342 1_555
Fe0 O19 1.934444 1_545
Fe0 O11 1.934444 1_455
Fe0 O8 1.934444 1_554
Fe0 O6 2.155274 1_554
Fe0 O13 2.155274 1_545
Fe0 O2 2.155274 1_455
Fe1 O1 1.967824 1_555
Fe1 O3 1.967824 1_555
Fe1 O0 1.967824 1_555
Fe1 O7 2.144904 1_555
Fe1 O5 2.144904 1_555
Fe1 O9 2.144904 1_555
Fe2 O22 1.965201 1_555
Fe2 O20 1.965201 1_555
Fe2 O23 1.965201 1_555
Fe2 O16 2.091153 1_555
Fe2 O18 2.091153 1_555
Fe2 O14 2.091153 1_555
O0 P3 1.527882 1_545
O1 P1 1.527882 1_554
O2 P4 1.554142 1_555
O3 P2 1.527882 1_455
O4 P4 1.590446 1_565
O5 P4 1.549900 1_555
O6 P5 1.554142 1_555
O7 P5 1.549900 1_555
O8 P1 1.527746 1_555
O9 P0 1.549900 1_555
O10 P1 1.600853 1_555
O11 P2 1.527746 1_555
O12 P5 1.590446 1_655
O13 P0 1.554142 1_555
O14 P1 1.555640 1_555
O15 P0 1.590446 1_556
O16 P2 1.555640 1_555
O17 P2 1.600853 1_555
O18 P3 1.555640 1_555
O19 P3 1.527746 1_555
O20 P5 1.518238 1_655
O21 P3 1.600853 1_555
O22 P0 1.518238 1_556
O23 P4 1.518238 1_565
