# generated using pymatgen
data_LiY4Ti4(S2O5)2
_symmetry_space_group_name_H-M   'P 1'
_cell_length_a   11.62896861
_cell_length_b   11.62896861
_cell_length_c   5.46536878
_cell_angle_alpha   89.79161643
_cell_angle_beta   89.79161643
_cell_angle_gamma   152.82113019
_symmetry_Int_Tables_number   1
_chemical_formula_structural   LiY4Ti4(S2O5)2
_chemical_formula_sum   'Li1 Y4 Ti4 S4 O10'
_cell_volume   337.55714055
_cell_formula_units_Z   1
loop_
 _symmetry_equiv_pos_site_id
 _symmetry_equiv_pos_as_xyz
  1  'x, y, z'
loop_
 _atom_site_type_symbol
 _atom_site_label
 _atom_site_symmetry_multiplicity
 _atom_site_fract_x
 _atom_site_fract_y
 _atom_site_fract_z
 _atom_site_occupancy
  Li  Li0  1  0.50000000  0.50000000  0.00000000  1
  Y  Y0  1  0.91456900  0.58285200  0.75149900  1
  Y  Y1  1  0.58285200  0.91456900  0.75149900  1
  Y  Y2  1  0.41714800  0.08543100  0.24850100  1
  Y  Y3  1  0.08543100  0.41714800  0.24850100  1
  Ti  Ti0  1  0.16272500  0.32726700  0.74489500  1
  Ti  Ti1  1  0.32726700  0.16272500  0.74489500  1
  Ti  Ti2  1  0.67273300  0.83727500  0.25510500  1
  Ti  Ti3  1  0.83727500  0.67273300  0.25510500  1
  S  S0  1  0.04672200  0.45607000  0.75099900  1
  S  S1  1  0.45607000  0.04672200  0.75099900  1
  S  S2  1  0.54393000  0.95327800  0.24900100  1
  S  S3  1  0.95327800  0.54393000  0.24900100  1
  O  O0  1  0.39944700  0.60055300  0.50000000  1
  O  O1  1  0.25791400  0.25791400  0.75804100  1
  O  O2  1  0.10102900  0.89897100  0.50000000  1
  O  O3  1  0.59452500  0.40547500  0.00000000  1
  O  O4  1  0.74208600  0.74208600  0.24195900  1
  O  O5  1  0.89935500  0.10064500  0.00000000  1
  O  O6  1  0.89897100  0.10102900  0.50000000  1
  O  O7  1  0.60055300  0.39944700  0.50000000  1
  O  O8  1  0.10064500  0.89935500  0.00000000  1
  O  O9  1  0.40547500  0.59452500  0.00000000  1
loop_
_geom_bond_atom_site_label_1
_geom_bond_atom_site_label_2
_geom_bond_distance
_geom_bond_site_symmetry_2
Li0 O4 1.884956 1_555
Li0 O1 1.884956 1_554
Li0 O3 2.136909 1_555
Li0 O9 2.136909 1_555
S0 Ti0 2.767571 1_555
S0 Y1 2.855894 1_555
S0 Y3 2.857111 1_556
S0 Y3 2.883126 1_555
S0 Y1 2.883759 1_445
S0 Y0 2.926886 1_455
S1 Ti1 2.767571 1_555
S1 Y0 2.855894 1_555
S1 Y2 2.857111 1_556
S1 Y2 2.883126 1_555
S1 Y0 2.883759 1_445
S1 Y1 2.926886 1_545
S2 Ti2 2.767571 1_555
S2 Y3 2.855894 1_555
S2 Y1 2.857111 1_554
S2 Y1 2.883126 1_555
S2 Y3 2.883759 1_665
S2 Y2 2.926886 1_565
S3 Ti3 2.767571 1_555
S3 Y2 2.855894 1_555
S3 Y0 2.857111 1_554
S3 Y0 2.883126 1_555
S3 Y2 2.883759 1_665
S3 Y3 2.926886 1_655
O0 Ti2 1.961233 1_555
O0 Ti0 1.961233 1_555
O0 Y1 2.444188 1_555
O0 Y3 2.444188 1_555
O1 Ti0 1.862653 1_555
O1 Ti1 1.862653 1_555
O2 Ti3 1.954284 1_455
O2 Ti1 1.954284 1_565
O2 Y0 2.421701 1_455
O2 Y2 2.421701 1_565
O3 Ti1 2.005677 1_554
O3 Ti3 2.005677 1_555
O3 Y0 2.497047 1_554
O3 Y2 2.497047 1_555
O4 Ti3 1.862653 1_555
O4 Ti2 1.862653 1_555
O5 Ti2 1.962438 1_545
O5 Ti0 1.962438 1_654
O5 Y1 2.441629 1_544
O5 Y3 2.441629 1_655
O6 Ti2 1.954284 1_545
O6 Ti0 1.954284 1_655
O6 Y1 2.421701 1_545
O6 Y3 2.421701 1_655
O7 Ti1 1.961233 1_555
O7 Ti3 1.961233 1_555
O7 Y0 2.444188 1_555
O7 Y2 2.444188 1_555
O8 Ti1 1.962438 1_564
O8 Ti3 1.962438 1_455
O8 Y0 2.441629 1_454
O8 Y2 2.441629 1_565
O9 Ti0 2.005677 1_554
O9 Ti2 2.005677 1_555
O9 Y1 2.497047 1_554
O9 Y3 2.497047 1_555
