# generated using pymatgen
data_Li4Cr3P4O15
_symmetry_space_group_name_H-M   'P 1'
_cell_length_a   6.42295700
_cell_length_b   10.57326400
_cell_length_c   18.16280600
_cell_angle_alpha   90.00000000
_cell_angle_beta   90.00000000
_cell_angle_gamma   90.00000000
_symmetry_Int_Tables_number   1
_chemical_formula_structural   Li4Cr3P4O15
_chemical_formula_sum   'Li16 Cr12 P16 O60'
_cell_volume   1233.46557960
_cell_formula_units_Z   4
loop_
 _symmetry_equiv_pos_site_id
 _symmetry_equiv_pos_as_xyz
  1  'x, y, z'
loop_
 _atom_site_type_symbol
 _atom_site_label
 _atom_site_symmetry_multiplicity
 _atom_site_fract_x
 _atom_site_fract_y
 _atom_site_fract_z
 _atom_site_occupancy
  Li  Li0  1  0.81720500  0.51963700  0.50885900  1
  Li  Li1  1  0.69701100  0.94950000  0.53173300  1
  Li  Li2  1  0.45123900  0.19096600  0.59208300  1
  Li  Li3  1  0.85014700  0.75638000  0.70255500  1
  Li  Li4  1  0.35014700  0.25638000  0.79744500  1
  Li  Li5  1  0.95123900  0.69096600  0.90791700  1
  Li  Li6  1  0.19701100  0.44950000  0.96826700  1
  Li  Li7  1  0.31720500  0.01963700  0.99114100  1
  Li  Li8  1  0.81720500  0.98036300  0.00885900  1
  Li  Li9  1  0.69701100  0.55050000  0.03173300  1
  Li  Li10  1  0.45123900  0.30903400  0.09208300  1
  Li  Li11  1  0.85014700  0.74362000  0.20255500  1
  Li  Li12  1  0.35014700  0.24362000  0.29744500  1
  Li  Li13  1  0.95123900  0.80903400  0.40791700  1
  Li  Li14  1  0.19701100  0.05050000  0.46826700  1
  Li  Li15  1  0.31720500  0.48036300  0.49114100  1
  Cr  Cr0  1  0.09766800  0.50846100  0.63514000  1
  Cr  Cr1  1  0.10253100  0.00431800  0.65900100  1
  Cr  Cr2  1  0.83527500  0.25813400  0.74847100  1
  Cr  Cr3  1  0.33527500  0.75813400  0.75152900  1
  Cr  Cr4  1  0.60253100  0.50431800  0.84099900  1
  Cr  Cr5  1  0.59766800  0.00846100  0.86486000  1
  Cr  Cr6  1  0.09766800  0.99153900  0.13514000  1
  Cr  Cr7  1  0.10253100  0.49568200  0.15900100  1
  Cr  Cr8  1  0.83527500  0.24186600  0.24847100  1
  Cr  Cr9  1  0.33527500  0.74186600  0.25152900  1
  Cr  Cr10  1  0.60253100  0.99568200  0.34099900  1
  Cr  Cr11  1  0.59766800  0.49153900  0.36486000  1
  P  P0  1  0.12758700  0.76936800  0.54782600  1
  P  P1  1  0.95267200  0.24383300  0.55909900  1
  P  P2  1  0.59440400  0.51522500  0.67414000  1
  P  P3  1  0.60060200  0.99881400  0.70086200  1
  P  P4  1  0.10060200  0.49881400  0.79913800  1
  P  P5  1  0.09440400  0.01522500  0.82586000  1
  P  P6  1  0.45267200  0.74383300  0.94090100  1
  P  P7  1  0.62758700  0.26936800  0.95217400  1
  P  P8  1  0.12758700  0.73063200  0.04782600  1
  P  P9  1  0.95267200  0.25616700  0.05909900  1
  P  P10  1  0.59440400  0.98477500  0.17414000  1
  P  P11  1  0.60060200  0.50118600  0.20086200  1
  P  P12  1  0.10060200  0.00118600  0.29913800  1
  P  P13  1  0.09440400  0.48477500  0.32586000  1
  P  P14  1  0.45267200  0.75616700  0.44090100  1
  P  P15  1  0.62758700  0.23063200  0.45217400  1
  O  O0  1  0.99443300  0.86981900  0.50832600  1
  O  O1  1  0.36961600  0.80349200  0.52247600  1
  O  O2  1  0.08952500  0.63263000  0.52320100  1
  O  O3  1  0.05654600  0.37293200  0.54624100  1
  O  O4  1  0.11972700  0.14244800  0.57599900  1
  O  O5  1  0.76966100  0.24224400  0.61229400  1
  O  O6  1  0.40733200  0.48665900  0.62436400  1
  O  O7  1  0.11975900  0.78491600  0.63135900  1
  O  O8  1  0.78755600  0.53331700  0.62508000  1
  O  O9  1  0.41614500  0.02616900  0.64946600  1
  O  O10  1  0.78882700  0.97069100  0.65024600  1
  O  O11  1  0.61807600  0.40775100  0.73422300  1
  O  O12  1  0.57521400  0.63983400  0.72016900  1
  O  O13  1  0.07372100  0.38384800  0.74691300  1
  O  O14  1  0.12322100  0.61282300  0.74440500  1
  O  O15  1  0.62322100  0.11282300  0.75559500  1
  O  O16  1  0.57372100  0.88384800  0.75308700  1
  O  O17  1  0.07521400  0.13983400  0.77983100  1
  O  O18  1  0.11807600  0.90775100  0.76577700  1
  O  O19  1  0.28882700  0.47069100  0.84975400  1
  O  O20  1  0.91614500  0.52616900  0.85053400  1
  O  O21  1  0.28755600  0.03331700  0.87492000  1
  O  O22  1  0.61975900  0.28491600  0.86864100  1
  O  O23  1  0.90733200  0.98665900  0.87563600  1
  O  O24  1  0.26966100  0.74224400  0.88770600  1
  O  O25  1  0.61972700  0.64244800  0.92400100  1
  O  O26  1  0.55654600  0.87293200  0.95375900  1
  O  O27  1  0.58952500  0.13263000  0.97679900  1
  O  O28  1  0.86961600  0.30349200  0.97752400  1
  O  O29  1  0.49443300  0.36981900  0.99167400  1
  O  O30  1  0.99443300  0.63018100  0.00832600  1
  O  O31  1  0.36961600  0.69650800  0.02247600  1
  O  O32  1  0.08952500  0.86737000  0.02320100  1
  O  O33  1  0.05654600  0.12706800  0.04624100  1
  O  O34  1  0.11972700  0.35755200  0.07599900  1
  O  O35  1  0.76966100  0.25775600  0.11229400  1
  O  O36  1  0.40733200  0.01334100  0.12436400  1
  O  O37  1  0.11975900  0.71508400  0.13135900  1
  O  O38  1  0.78755600  0.96668300  0.12508000  1
  O  O39  1  0.41614500  0.47383100  0.14946600  1
  O  O40  1  0.78882700  0.52930900  0.15024600  1
  O  O41  1  0.61807600  0.09224900  0.23422300  1
  O  O42  1  0.57521400  0.86016600  0.22016900  1
  O  O43  1  0.07372100  0.11615200  0.24691300  1
  O  O44  1  0.12322100  0.88717700  0.24440500  1
  O  O45  1  0.62322100  0.38717700  0.25559500  1
  O  O46  1  0.57372100  0.61615200  0.25308700  1
  O  O47  1  0.07521400  0.36016600  0.27983100  1
  O  O48  1  0.11807600  0.59224900  0.26577700  1
  O  O49  1  0.28882700  0.02930900  0.34975400  1
  O  O50  1  0.91614500  0.97383100  0.35053400  1
  O  O51  1  0.28755600  0.46668300  0.37492000  1
  O  O52  1  0.61975900  0.21508400  0.36864100  1
  O  O53  1  0.90733200  0.51334100  0.37563600  1
  O  O54  1  0.26966100  0.75775600  0.38770600  1
  O  O55  1  0.61972700  0.85755200  0.42400100  1
  O  O56  1  0.55654600  0.62706800  0.45375900  1
  O  O57  1  0.58952500  0.36737000  0.47679900  1
  O  O58  1  0.86961600  0.19650800  0.47752400  1
  O  O59  1  0.49443300  0.13018100  0.49167400  1
loop_
_geom_bond_atom_site_label_1
_geom_bond_atom_site_label_2
_geom_bond_distance
_geom_bond_site_symmetry_2
Li0 O8 2.124402 1_555
Li0 O2 2.134133 1_655
Li0 O57 2.251576 1_555
Li0 O56 2.257156 1_555
Li0 O3 2.286980 1_655
Li0 O53 2.488875 1_555
Li1 O0 2.130700 1_555
Li1 O55 2.240601 1_555
Li1 O10 2.243070 1_555
Li1 O59 2.423211 1_565
Li1 O1 2.614093 1_555
Li2 O59 1.953444 1_555
Li2 O9 2.042834 1_555
Li2 O5 2.147463 1_555
Li2 O4 2.209608 1_555
Li3 O12 2.176967 1_555
Li3 O7 2.182200 1_655
Li3 O16 2.410623 1_555
Li3 O14 2.440902 1_655
Li3 O10 2.488449 1_555
Li3 O18 2.615646 1_655
Li4 O17 2.176967 1_555
Li4 O22 2.182200 1_555
Li4 O13 2.410623 1_555
Li4 O15 2.440902 1_555
Li4 O19 2.488449 1_555
Li4 O11 2.615646 1_555
Li5 O30 1.953444 1_556
Li5 O20 2.042834 1_555
Li5 O24 2.147463 1_655
Li5 O25 2.209608 1_555
Li6 O29 2.130700 1_555
Li6 O34 2.240601 1_556
Li6 O19 2.243070 1_555
Li6 O30 2.423211 1_456
Li6 O28 2.614093 1_455
Li7 O21 2.124402 1_555
Li7 O27 2.134133 1_555
Li7 O32 2.251576 1_546
Li7 O33 2.257156 1_556
Li7 O26 2.286980 1_545
Li7 O36 2.488875 1_556
Li8 O38 2.124402 1_555
Li8 O32 2.134133 1_655
Li8 O27 2.251576 1_564
Li8 O26 2.257156 1_554
Li8 O33 2.286980 1_665
Li8 O23 2.488875 1_554
Li9 O30 2.130700 1_555
Li9 O25 2.240601 1_554
Li9 O40 2.243070 1_555
Li9 O29 2.423211 1_554
Li9 O31 2.614093 1_555
Li10 O29 1.953444 1_554
Li10 O39 2.042834 1_555
Li10 O35 2.147463 1_555
Li10 O34 2.209608 1_555
Li11 O42 2.176967 1_555
Li11 O37 2.182200 1_655
Li11 O46 2.410623 1_555
Li11 O44 2.440902 1_655
Li11 O40 2.488449 1_555
Li11 O48 2.615646 1_655
Li12 O47 2.176967 1_555
Li12 O52 2.182200 1_555
Li12 O43 2.410623 1_555
Li12 O45 2.440902 1_555
Li12 O49 2.488449 1_555
Li12 O41 2.615646 1_555
Li13 O0 1.953444 1_555
Li13 O50 2.042834 1_555
Li13 O54 2.147463 1_655
Li13 O55 2.209608 1_555
Li14 O59 2.130700 1_555
Li14 O4 2.240601 1_555
Li14 O49 2.243070 1_555
Li14 O0 2.423211 1_445
Li14 O58 2.614093 1_455
Li15 O51 2.124402 1_555
Li15 O57 2.134133 1_555
Li15 O2 2.251576 1_555
Li15 O3 2.257156 1_555
Li15 O56 2.286980 1_555
Li15 O6 2.488875 1_555
Cr0 O6 2.011816 1_555
Cr0 O8 2.017391 1_455
Cr0 O3 2.174929 1_555
Cr0 O14 2.276622 1_555
Cr0 O2 2.420738 1_555
Cr0 O13 2.425075 1_555
Cr1 O9 2.034918 1_555
Cr1 O10 2.052206 1_445
Cr1 O4 2.101885 1_555
Cr1 O18 2.193981 1_545
Cr1 O7 2.376080 1_545
Cr1 O17 2.626815 1_555
Cr2 O13 2.028096 1_655
Cr2 O15 2.057276 1_555
Cr2 O17 2.064949 1_655
Cr2 O11 2.125017 1_555
Cr2 O5 2.514623 1_555
Cr2 O22 2.600035 1_555
Cr3 O16 2.028096 1_555
Cr3 O14 2.057276 1_555
Cr3 O12 2.064949 1_555
Cr3 O18 2.125017 1_555
Cr3 O24 2.514623 1_555
Cr3 O7 2.600035 1_555
Cr4 O20 2.034918 1_555
Cr4 O19 2.052206 1_555
Cr4 O25 2.101885 1_555
Cr4 O11 2.193981 1_555
Cr4 O22 2.376080 1_555
Cr4 O12 2.626815 1_555
Cr5 O23 2.011816 1_545
Cr5 O21 2.017391 1_555
Cr5 O26 2.174929 1_545
Cr5 O15 2.276622 1_555
Cr5 O27 2.420738 1_555
Cr5 O16 2.425075 1_545
Cr6 O36 2.011816 1_565
Cr6 O38 2.017391 1_455
Cr6 O33 2.174929 1_565
Cr6 O44 2.276622 1_555
Cr6 O32 2.420738 1_555
Cr6 O43 2.425075 1_565
Cr7 O39 2.034918 1_555
Cr7 O40 2.052206 1_455
Cr7 O34 2.101885 1_555
Cr7 O48 2.193981 1_555
Cr7 O37 2.376080 1_555
Cr7 O47 2.626815 1_555
Cr8 O43 2.028096 1_655
Cr8 O45 2.057276 1_555
Cr8 O47 2.064949 1_655
Cr8 O41 2.125017 1_555
Cr8 O35 2.514623 1_555
Cr8 O52 2.600035 1_555
Cr9 O46 2.028096 1_555
Cr9 O44 2.057276 1_555
Cr9 O42 2.064949 1_555
Cr9 O48 2.125017 1_555
Cr9 O54 2.514623 1_555
Cr9 O37 2.600035 1_555
Cr10 O50 2.034918 1_555
Cr10 O49 2.052206 1_565
Cr10 O55 2.101885 1_555
Cr10 O41 2.193981 1_565
Cr10 O52 2.376080 1_565
Cr10 O42 2.626815 1_555
Cr11 O53 2.011816 1_555
Cr11 O51 2.017391 1_555
Cr11 O56 2.174929 1_555
Cr11 O45 2.276622 1_555
Cr11 O57 2.420738 1_555
Cr11 O46 2.425075 1_555
O0 P0 1.540841 1_655
O1 P14 1.652330 1_555
O1 P0 1.660955 1_555
O2 P0 1.532987 1_555
O3 P1 1.537168 1_455
O4 P1 1.547463 1_455
O5 P1 1.521677 1_555
O6 P2 1.533723 1_555
O7 P0 1.526902 1_555
O8 P2 1.539383 1_555
O9 P3 1.535814 1_545
O10 P3 1.547634 1_555
O11 P2 1.582812 1_555
O12 P2 1.565242 1_555
O13 P4 1.551503 1_555
O14 P4 1.569221 1_555
O15 P3 1.569221 1_545
O16 P3 1.551503 1_555
O17 P5 1.565242 1_555
O18 P5 1.582812 1_565
O19 P4 1.547634 1_555
O20 P4 1.535814 1_655
O21 P5 1.539383 1_555
O22 P7 1.526902 1_555
O23 P5 1.533723 1_665
O24 P6 1.521677 1_555
O25 P6 1.547463 1_555
O26 P6 1.537168 1_555
O27 P7 1.532987 1_555
O28 P9 1.652330 1_556
O28 P7 1.660955 1_555
O29 P7 1.540841 1_555
O30 P8 1.540841 1_655
O31 P6 1.652330 1_554
O31 P8 1.660955 1_555
O32 P8 1.532987 1_555
O33 P9 1.537168 1_455
O34 P9 1.547463 1_455
O35 P9 1.521677 1_555
O36 P10 1.533723 1_545
O37 P8 1.526902 1_555
O38 P10 1.539383 1_555
O39 P11 1.535814 1_555
O40 P11 1.547634 1_555
O41 P10 1.582812 1_545
O42 P10 1.565242 1_555
O43 P12 1.551503 1_555
O44 P12 1.569221 1_565
O45 P11 1.569221 1_555
O46 P11 1.551503 1_555
O47 P13 1.565242 1_555
O48 P13 1.582812 1_555
O49 P12 1.547634 1_555
O50 P12 1.535814 1_665
O51 P13 1.539383 1_555
O52 P15 1.526902 1_555
O53 P13 1.533723 1_655
O54 P14 1.521677 1_555
O55 P14 1.547463 1_555
O56 P14 1.537168 1_555
O57 P15 1.532987 1_555
O58 P1 1.652330 1_555
O58 P15 1.660955 1_555
O59 P15 1.540841 1_555
