# generated using pymatgen
data_Li2Al2FeO6
_symmetry_space_group_name_H-M   'P 1'
_cell_length_a   6.52932007
_cell_length_b   6.52919521
_cell_length_c   10.08184942
_cell_angle_alpha   96.88129626
_cell_angle_beta   96.87892952
_cell_angle_gamma   80.86936066
_symmetry_Int_Tables_number   1
_chemical_formula_structural   Li2Al2FeO6
_chemical_formula_sum   'Li8 Al8 Fe4 O24'
_cell_volume   419.06687411
_cell_formula_units_Z   4
loop_
 _symmetry_equiv_pos_site_id
 _symmetry_equiv_pos_as_xyz
  1  'x, y, z'
loop_
 _atom_site_type_symbol
 _atom_site_label
 _atom_site_symmetry_multiplicity
 _atom_site_fract_x
 _atom_site_fract_y
 _atom_site_fract_z
 _atom_site_occupancy
  Li  Li0  1  0.75022100  0.74978500  0.62498600  1
  Li  Li1  1  0.25026700  0.24971800  0.87499800  1
  Li  Li2  1  0.75020700  0.74977500  0.12498800  1
  Li  Li3  1  0.25028900  0.24969800  0.37498700  1
  Li  Li4  1  0.39578800  0.10418900  0.62500300  1
  Li  Li5  1  0.89578200  0.60420000  0.87499500  1
  Li  Li6  1  0.39579700  0.10421600  0.12499800  1
  Li  Li7  1  0.89580800  0.60419700  0.37500900  1
  Al  Al0  1  0.16816700  0.83186700  0.75002300  1
  Al  Al1  1  0.66804800  0.33178800  0.99997100  1
  Al  Al2  1  0.16822400  0.83196300  0.25003500  1
  Al  Al3  1  0.66809800  0.33172600  0.49992700  1
  Al  Al4  1  0.34016400  0.65996900  0.50000300  1
  Al  Al5  1  0.84007400  0.15974000  0.75001900  1
  Al  Al6  1  0.34027500  0.65987100  0.99997100  1
  Al  Al7  1  0.84001500  0.15977300  0.24999600  1
  Fe  Fe0  1  0.50022600  0.49949200  0.74981100  1
  Fe  Fe1  1  0.00046300  0.99978300  0.00008400  1
  Fe  Fe2  1  0.50025700  0.49974200  0.25002300  1
  Fe  Fe3  1  0.00043600  0.99980500  0.50009300  1
  O  O0  1  0.76969100  0.43768200  0.68837800  1
  O  O1  1  0.26984700  0.93804400  0.93841600  1
  O  O2  1  0.76962800  0.43772000  0.18842500  1
  O  O3  1  0.26991400  0.93813200  0.43845800  1
  O  O4  1  0.06209600  0.73029900  0.56155700  1
  O  O5  1  0.56201800  0.23019900  0.81157600  1
  O  O6  1  0.06228600  0.73036300  0.06162000  1
  O  O7  1  0.56182000  0.23017800  0.31158300  1
  O  O8  1  0.89874200  0.88444200  0.80506200  1
  O  O9  1  0.39867200  0.38462000  0.05517900  1
  O  O10  1  0.89886700  0.88459900  0.30519600  1
  O  O11  1  0.39871300  0.38457800  0.55516200  1
  O  O12  1  0.61547000  0.60127500  0.44491400  1
  O  O13  1  0.11539000  0.10131100  0.69483200  1
  O  O14  1  0.61553200  0.60125700  0.94493000  1
  O  O15  1  0.11539000  0.10130100  0.19481900  1
  O  O16  1  0.43236400  0.76523500  0.67898100  1
  O  O17  1  0.93230800  0.26522400  0.92898100  1
  O  O18  1  0.43250200  0.76531900  0.17902900  1
  O  O19  1  0.93221500  0.26527500  0.42897300  1
  O  O20  1  0.73476400  0.06759700  0.57098600  1
  O  O21  1  0.23479700  0.56768800  0.82100100  1
  O  O22  1  0.73475200  0.06743500  0.07098600  1
  O  O23  1  0.23473500  0.56781100  0.32104200  1
loop_
_geom_bond_atom_site_label_1
_geom_bond_atom_site_label_2
_geom_bond_distance
_geom_bond_site_symmetry_2
Li0 O8 2.115609 1_555
Li0 O12 2.115781 1_555
Li0 O4 2.186775 1_655
Li0 O0 2.188053 1_555
Li0 O20 2.191693 1_565
Li0 O16 2.191982 1_555
Li1 O13 2.116529 1_555
Li1 O9 2.116705 1_556
Li1 O1 2.185387 1_545
Li1 O5 2.185945 1_555
Li1 O17 2.192536 1_455
Li1 O21 2.192671 1_555
Li2 O14 2.115505 1_554
Li2 O10 2.117415 1_555
Li2 O6 2.187866 1_655
Li2 O2 2.187973 1_555
Li2 O22 2.190740 1_565
Li2 O18 2.191104 1_555
Li3 O15 2.116572 1_555
Li3 O11 2.116656 1_555
Li3 O7 2.184497 1_555
Li3 O3 2.184888 1_545
Li3 O19 2.193212 1_455
Li3 O23 2.193316 1_555
Li4 O13 2.042222 1_555
Li4 O11 2.042274 1_555
Li4 O3 2.193633 1_545
Li4 O5 2.194679 1_555
Li4 O16 2.310997 1_545
Li4 O20 2.311279 1_555
Li5 O8 2.041837 1_555
Li5 O14 2.041881 1_555
Li5 O0 2.196035 1_555
Li5 O6 2.196232 1_656
Li5 O17 2.311189 1_555
Li5 O21 2.311488 1_655
Li6 O9 2.042202 1_555
Li6 O15 2.042287 1_555
Li6 O7 2.194051 1_555
Li6 O1 2.194426 1_544
Li6 O18 2.310752 1_545
Li6 O22 2.311035 1_555
Li7 O12 2.042257 1_555
Li7 O10 2.042395 1_555
Li7 O4 2.194871 1_655
Li7 O2 2.195868 1_555
Li7 O19 2.310832 1_555
Li7 O23 2.310902 1_655
Al0 O8 1.875348 1_455
Al0 O13 1.876050 1_565
Al0 O21 1.913001 1_555
Al0 O16 1.913399 1_555
Al0 O1 2.014294 1_555
Al0 O4 2.014536 1_555
Al1 O14 1.875621 1_555
Al1 O9 1.875703 1_556
Al1 O17 1.913517 1_555
Al1 O22 1.914224 1_556
Al1 O5 2.013880 1_555
Al1 O2 2.014195 1_556
Al2 O10 1.875404 1_455
Al2 O15 1.875494 1_565
Al2 O23 1.912943 1_555
Al2 O18 1.913718 1_555
Al2 O6 2.013903 1_555
Al2 O3 2.014558 1_555
Al3 O11 1.875864 1_555
Al3 O12 1.876005 1_555
Al3 O19 1.912473 1_555
Al3 O20 1.913085 1_555
Al3 O7 2.013823 1_555
Al3 O0 2.014236 1_555
Al4 O12 1.912087 1_555
Al4 O11 1.912856 1_555
Al4 O16 1.914336 1_555
Al4 O23 1.914437 1_555
Al4 O4 1.956880 1_555
Al4 O3 1.957392 1_555
Al5 O8 1.911853 1_545
Al5 O13 1.912495 1_655
Al5 O17 1.914676 1_555
Al5 O20 1.914807 1_555
Al5 O0 1.956482 1_555
Al5 O5 1.956861 1_555
Al6 O14 1.911593 1_555
Al6 O9 1.912166 1_556
Al6 O21 1.914652 1_555
Al6 O18 1.915429 1_556
Al6 O6 1.956837 1_556
Al6 O1 1.957550 1_555
Al7 O10 1.911710 1_545
Al7 O15 1.912825 1_655
Al7 O19 1.914784 1_555
Al7 O22 1.914846 1_555
Al7 O2 1.956231 1_555
Al7 O7 1.957807 1_555
Fe0 O0 1.902060 1_555
Fe0 O5 1.902389 1_555
Fe0 O21 1.921822 1_555
Fe0 O16 1.921954 1_555
Fe0 O11 2.084896 1_555
Fe0 O14 2.090169 1_555
Fe1 O6 1.902214 1_555
Fe1 O1 1.902531 1_554
Fe1 O17 1.921488 1_464
Fe1 O22 1.922030 1_465
Fe1 O15 2.085680 1_565
Fe1 O8 2.089316 1_454
Fe2 O2 1.902210 1_555
Fe2 O7 1.903144 1_555
Fe2 O23 1.921557 1_555
Fe2 O18 1.921685 1_555
Fe2 O9 2.087114 1_555
Fe2 O12 2.087614 1_555
Fe3 O4 1.902410 1_555
Fe3 O3 1.902953 1_555
Fe3 O19 1.921757 1_465
Fe3 O20 1.921796 1_465
Fe3 O13 2.085746 1_565
Fe3 O10 2.087710 1_455
