# generated using pymatgen
data_LiMn(PO3)4
_symmetry_space_group_name_H-M   'P 1'
_cell_length_a   8.69642140
_cell_length_b   8.69642140
_cell_length_c   9.16750231
_cell_angle_alpha   62.19664229
_cell_angle_beta   62.19664229
_cell_angle_gamma   54.49253713
_symmetry_Int_Tables_number   1
_chemical_formula_structural   LiMn(PO3)4
_chemical_formula_sum   'Li2 Mn2 P8 O24'
_cell_volume   480.47377651
_cell_formula_units_Z   2
loop_
 _symmetry_equiv_pos_site_id
 _symmetry_equiv_pos_as_xyz
  1  'x, y, z'
loop_
 _atom_site_type_symbol
 _atom_site_label
 _atom_site_symmetry_multiplicity
 _atom_site_fract_x
 _atom_site_fract_y
 _atom_site_fract_z
 _atom_site_occupancy
  Li  Li0  1  0.00000000  0.00000000  0.50000000  1
  Li  Li1  1  0.00000000  0.00000000  0.00000000  1
  Mn  Mn0  1  0.32390400  0.67609600  0.75000000  1
  Mn  Mn1  1  0.67609600  0.32390400  0.25000000  1
  P  P0  1  0.30154000  0.42667600  0.13802800  1
  P  P1  1  0.65410800  0.05075500  0.10391400  1
  P  P2  1  0.94924500  0.34589200  0.39608600  1
  P  P3  1  0.57332400  0.69846000  0.36197200  1
  P  P4  1  0.42667600  0.30154000  0.63802800  1
  P  P5  1  0.05075500  0.65410800  0.60391400  1
  P  P6  1  0.34589200  0.94924500  0.89608600  1
  P  P7  1  0.69846000  0.57332400  0.86197200  1
  O  O0  1  0.71981200  0.07782300  0.21427800  1
  O  O1  1  0.20743000  0.58845800  0.99373700  1
  O  O2  1  0.13092800  0.39470900  0.29724700  1
  O  O3  1  0.43589700  0.22413600  0.08605300  1
  O  O4  1  0.59012400  0.53790300  0.80421900  1
  O  O5  1  0.77586400  0.56410300  0.41394700  1
  O  O6  1  0.60529100  0.86907200  0.20275300  1
  O  O7  1  0.97815400  0.20134900  0.56358000  1
  O  O8  1  0.41154200  0.79257000  0.50626300  1
  O  O9  1  0.79865100  0.02184600  0.93642000  1
  O  O10  1  0.92217700  0.28018800  0.28572200  1
  O  O11  1  0.46209700  0.40987600  0.69578100  1
  O  O12  1  0.53790300  0.59012400  0.30421900  1
  O  O13  1  0.07782300  0.71981200  0.71427800  1
  O  O14  1  0.20134900  0.97815400  0.06358000  1
  O  O15  1  0.58845800  0.20743000  0.49373700  1
  O  O16  1  0.02184600  0.79865100  0.43642000  1
  O  O17  1  0.39470900  0.13092800  0.79724700  1
  O  O18  1  0.22413600  0.43589700  0.58605300  1
  O  O19  1  0.40987600  0.46209700  0.19578100  1
  O  O20  1  0.56410300  0.77586400  0.91394700  1
  O  O21  1  0.86907200  0.60529100  0.70275300  1
  O  O22  1  0.79257000  0.41154200  0.00626300  1
  O  O23  1  0.28018800  0.92217700  0.78572200  1
loop_
_geom_bond_atom_site_label_1
_geom_bond_atom_site_label_2
_geom_bond_distance
_geom_bond_site_symmetry_2
Li0 O7 1.975922 1_455
Li0 O16 1.975922 1_545
Li0 O10 2.261300 1_455
Li0 O13 2.261300 1_545
Li1 O9 1.975922 1_454
Li1 O14 1.975922 1_545
Li1 O23 2.261300 1_544
Li1 O0 2.261300 1_455
Mn0 O8 1.948421 1_555
Mn0 O1 1.948421 1_555
Mn0 O4 2.082206 1_555
Mn0 O11 2.082206 1_555
Mn0 O23 2.103341 1_555
Mn0 O13 2.103341 1_555
Mn1 O15 1.948421 1_555
Mn1 O22 1.948421 1_555
Mn1 O12 2.082206 1_555
Mn1 O19 2.082206 1_555
Mn1 O10 2.103341 1_555
Mn1 O0 2.103341 1_555
O0 P1 1.524232 1_555
O1 P0 1.528153 1_556
O2 P0 1.577818 1_555
O2 P2 1.606985 1_455
O3 P0 1.602374 1_555
O3 P1 1.623944 1_555
O4 P7 1.489098 1_555
O5 P3 1.602374 1_555
O5 P2 1.623944 1_555
O6 P3 1.577818 1_555
O6 P1 1.606985 1_565
O7 P2 1.481042 1_555
O8 P3 1.528153 1_555
O9 P1 1.481042 1_556
O10 P2 1.524232 1_555
O11 P4 1.489098 1_555
O12 P3 1.489098 1_555
O13 P5 1.524232 1_555
O14 P6 1.481042 1_554
O15 P4 1.528153 1_555
O16 P5 1.481042 1_555
O17 P4 1.577818 1_555
O17 P6 1.606985 1_545
O18 P4 1.602374 1_555
O18 P5 1.623944 1_555
O19 P0 1.489098 1_555
O20 P7 1.602374 1_555
O20 P6 1.623944 1_555
O21 P7 1.577818 1_555
O21 P5 1.606985 1_655
O22 P7 1.528153 1_554
O23 P6 1.524232 1_555
