# generated using pymatgen
data_LiV2O5
_symmetry_space_group_name_H-M   'P 1'
_cell_length_a   6.55752484
_cell_length_b   7.51834753
_cell_length_c   7.59541725
_cell_angle_alpha   90.00000000
_cell_angle_beta   90.00000000
_cell_angle_gamma   90.00000000
_symmetry_Int_Tables_number   1
_chemical_formula_structural   LiV2O5
_chemical_formula_sum   'Li4 V8 O20'
_cell_volume   374.46736760
_cell_formula_units_Z   4
loop_
 _symmetry_equiv_pos_site_id
 _symmetry_equiv_pos_as_xyz
  1  'x, y, z'
loop_
 _atom_site_type_symbol
 _atom_site_label
 _atom_site_symmetry_multiplicity
 _atom_site_fract_x
 _atom_site_fract_y
 _atom_site_fract_z
 _atom_site_occupancy
  Li  Li0  1  0.00000000  -0.00000000  -0.00000000  1
  Li  Li1  1  0.50000000  -0.00000000  -0.00000000  1
  Li  Li2  1  0.00000000  0.50000000  0.50000000  1
  Li  Li3  1  0.50000000  0.50000000  0.50000000  1
  V  V0  1  0.25000000  0.72974891  0.16976571  1
  V  V1  1  0.75000000  0.22974891  0.33023429  1
  V  V2  1  0.25000000  0.77025109  0.66976571  1
  V  V3  1  0.75000000  0.27025109  0.83023429  1
  V  V4  1  0.75000000  0.62921082  0.12484831  1
  V  V5  1  0.25000000  0.12921082  0.37515169  1
  V  V6  1  0.75000000  0.87078918  0.62484831  1
  V  V7  1  0.25000000  0.37078918  0.87515169  1
  O  O0  1  0.25000000  0.50472739  0.05455044  1
  O  O1  1  0.75000000  0.16250018  0.12278438  1
  O  O2  1  0.53765135  0.76510732  0.12064808  1
  O  O3  1  0.96234865  0.76510732  0.12064808  1
  O  O4  1  0.25000000  0.99703246  0.18895552  1
  O  O5  1  0.75000000  0.49703246  0.31104448  1
  O  O6  1  0.03765135  0.26510732  0.37935192  1
  O  O7  1  0.46234865  0.26510732  0.37935192  1
  O  O8  1  0.25000000  0.66250018  0.37721562  1
  O  O9  1  0.75000000  0.00472739  0.44544956  1
  O  O10  1  0.25000000  0.99527261  0.55455044  1
  O  O11  1  0.75000000  0.33749982  0.62278438  1
  O  O12  1  0.53765135  0.73489268  0.62064808  1
  O  O13  1  0.96234865  0.73489268  0.62064808  1
  O  O14  1  0.25000000  0.50296754  0.68895552  1
  O  O15  1  0.75000000  0.00296754  0.81104448  1
  O  O16  1  0.03765135  0.23489268  0.87935192  1
  O  O17  1  0.46234865  0.23489268  0.87935192  1
  O  O18  1  0.25000000  0.83749982  0.87721562  1
  O  O19  1  0.75000000  0.49527261  0.94544956  1
loop_
_geom_bond_atom_site_label_1
_geom_bond_atom_site_label_2
_geom_bond_distance
_geom_bond_site_symmetry_2
Li0 O3 2.004862 1_445
Li0 O16 2.004862 1_554
Li0 O4 2.178958 1_545
Li0 O15 2.178958 1_454
Li0 O1 2.247208 1_455
Li0 O18 2.247208 1_544
Li1 O2 2.004862 1_545
Li1 O17 2.004862 1_554
Li1 O4 2.178958 1_545
Li1 O15 2.178958 1_554
Li1 O1 2.247208 1_555
Li1 O18 2.247208 1_544
Li2 O6 2.004862 1_555
Li2 O13 2.004862 1_455
Li2 O5 2.178958 1_455
Li2 O14 2.178958 1_555
Li2 O8 2.247208 1_555
Li2 O11 2.247208 1_455
Li3 O7 2.004862 1_555
Li3 O12 2.004862 1_555
Li3 O5 2.178958 1_555
Li3 O14 2.178958 1_555
Li3 O8 2.247208 1_555
Li3 O11 2.247208 1_555
O0 V7 1.694325 1_554
O0 V0 1.904722 1_555
O1 V1 1.654800 1_555
O1 V3 2.365108 1_554
O2 V4 1.727405 1_555
O2 V0 1.941109 1_555
O3 V4 1.727405 1_555
O3 V0 1.941109 1_655
O4 V5 1.728477 1_565
O4 V0 2.014810 1_555
O5 V4 1.728477 1_555
O5 V1 2.014810 1_555
O6 V5 1.727405 1_555
O6 V1 1.941109 1_455
O7 V5 1.727405 1_555
O7 V1 1.941109 1_555
O8 V0 1.654800 1_555
O8 V2 2.365108 1_555
O9 V6 1.694325 1_545
O9 V1 1.904722 1_555
O10 V5 1.694325 1_565
O10 V2 1.904722 1_555
O11 V3 1.654800 1_555
O11 V1 2.365108 1_555
O12 V6 1.727405 1_555
O12 V2 1.941109 1_555
O13 V6 1.727405 1_555
O13 V2 1.941109 1_655
O14 V7 1.728477 1_555
O14 V2 2.014810 1_555
O15 V6 1.728477 1_545
O15 V3 2.014810 1_555
O16 V7 1.727405 1_555
O16 V3 1.941109 1_455
O17 V7 1.727405 1_555
O17 V3 1.941109 1_555
O18 V2 1.654800 1_555
O18 V0 2.365108 1_556
O19 V4 1.694325 1_556
O19 V3 1.904722 1_555
