# generated using pymatgen
data_Li3Mg2Fe19O32
_symmetry_space_group_name_H-M   'P 1'
_cell_length_a   5.99556313
_cell_length_b   5.99556313
_cell_length_c   19.97600920
_cell_angle_alpha   81.70479254
_cell_angle_beta   81.70479254
_cell_angle_gamma   60.49564838
_symmetry_Int_Tables_number   1
_chemical_formula_structural   Li3Mg2Fe19O32
_chemical_formula_sum   'Li3 Mg2 Fe19 O32'
_cell_volume   616.17474256
_cell_formula_units_Z   1
loop_
 _symmetry_equiv_pos_site_id
 _symmetry_equiv_pos_as_xyz
  1  'x, y, z'
loop_
 _atom_site_type_symbol
 _atom_site_label
 _atom_site_symmetry_multiplicity
 _atom_site_fract_x
 _atom_site_fract_y
 _atom_site_fract_z
 _atom_site_occupancy
  Li  Li0  1  0.87070400  0.87070400  0.37650100  1
  Li  Li1  1  0.12326900  0.12326900  0.62458100  1
  Li  Li2  1  0.37339800  0.37339800  0.87353500  1
  Mg  Mg0  1  0.15778200  0.15778200  0.02720400  1
  Mg  Mg1  1  0.39897100  0.39897100  0.28518700  1
  Fe  Fe0  1  0.62266400  0.62266400  0.12561800  1
  Fe  Fe1  1  0.49871100  0.49871100  0.99924700  1
  Fe  Fe2  1  0.09313800  0.09313800  0.22288200  1
  Fe  Fe3  1  0.12838300  0.62463100  0.12567300  1
  Fe  Fe4  1  0.62463100  0.12838300  0.12567300  1
  Fe  Fe5  1  0.74947500  0.74947500  0.25744400  1
  Fe  Fe6  1  0.34928800  0.34928800  0.47055400  1
  Fe  Fe7  1  0.62400600  0.12270700  0.62474500  1
  Fe  Fe8  1  0.37569500  0.87276000  0.37654200  1
  Fe  Fe9  1  0.87276000  0.37569500  0.37654200  1
  Fe  Fe10  1  0.12270700  0.62400600  0.62474500  1
  Fe  Fe11  1  0.64634300  0.64634300  0.53166000  1
  Fe  Fe12  1  0.99743000  0.99743000  0.49998400  1
  Fe  Fe13  1  0.25045300  0.25045300  0.74886700  1
  Fe  Fe14  1  0.59952200  0.59952200  0.72033200  1
  Fe  Fe15  1  0.88024200  0.37281100  0.87363800  1
  Fe  Fe16  1  0.37281100  0.88024200  0.87363800  1
  Fe  Fe17  1  0.89926600  0.89926600  0.77826900  1
  Fe  Fe18  1  0.84996500  0.84996500  0.96759200  1
  O  O0  1  0.32574100  0.78548800  0.06610700  1
  O  O1  1  0.78548800  0.32574100  0.06610700  1
  O  O2  1  0.43862200  0.43862200  0.18157800  1
  O  O3  1  0.32489700  0.32489700  0.06574700  1
  O  O4  1  0.57034200  0.57034200  0.31656000  1
  O  O5  1  0.06226100  0.06226100  0.31816100  1
  O  O6  1  0.92778600  0.92778600  0.18576600  1
  O  O7  1  0.81200000  0.81200000  0.06913400  1
  O  O8  1  0.18489900  0.70525300  0.43782000  1
  O  O9  1  0.92688200  0.45780600  0.18471100  1
  O  O10  1  0.70525300  0.18489900  0.43782000  1
  O  O11  1  0.45780600  0.92688200  0.18471100  1
  O  O12  1  0.02951100  0.56179500  0.31403700  1
  O  O13  1  0.56179500  0.02951100  0.31403700  1
  O  O14  1  0.81717100  0.81717100  0.56473200  1
  O  O15  1  0.68096900  0.68096900  0.43479900  1
  O  O16  1  0.31483500  0.31483500  0.56819500  1
  O  O17  1  0.17895800  0.17895800  0.43687400  1
  O  O18  1  0.43448400  0.95727500  0.68750200  1
  O  O19  1  0.95727500  0.43448400  0.68750200  1
  O  O20  1  0.06351700  0.54302000  0.81163600  1
  O  O21  1  0.81417700  0.28673200  0.56330400  1
  O  O22  1  0.54302000  0.06351700  0.81163600  1
  O  O23  1  0.28673200  0.81417700  0.56330400  1
  O  O24  1  0.18292100  0.18292100  0.92764300  1
  O  O25  1  0.93192700  0.93192700  0.68142100  1
  O  O26  1  0.06842500  0.06842500  0.81258400  1
  O  O27  1  0.56622600  0.56622600  0.81826300  1
  O  O28  1  0.42992300  0.42992300  0.68577300  1
  O  O29  1  0.68024400  0.68024400  0.93660000  1
  O  O30  1  0.20776800  0.68621700  0.93936500  1
  O  O31  1  0.68621700  0.20776800  0.93936500  1
loop_
_geom_bond_atom_site_label_1
_geom_bond_atom_site_label_2
_geom_bond_distance
_geom_bond_site_symmetry_2
Li0 O15 2.110553 1_555
Li0 O12 2.116792 1_655
Li0 O13 2.116792 1_565
Li0 O10 2.123120 1_565
Li0 O8 2.123120 1_655
Li0 O5 2.126743 1_665
Li1 O23 2.100615 1_545
Li1 O21 2.100615 1_455
Li1 O16 2.111820 1_555
Li1 O25 2.113283 1_445
Li1 O18 2.130395 1_545
Li1 O19 2.130395 1_455
Li2 O24 2.085411 1_555
Li2 O22 2.110440 1_555
Li2 O20 2.110440 1_555
Li2 O27 2.114741 1_555
Li2 O30 2.175629 1_555
Li2 O31 2.175629 1_555
Mg0 O24 1.962211 1_554
Mg0 O3 2.008635 1_555
Mg0 O0 2.027710 1_545
Mg0 O1 2.027710 1_455
Mg1 O13 1.963648 1_555
Mg1 O12 1.963648 1_555
Mg1 O4 1.978778 1_555
Mg1 O2 2.041663 1_555
Fe0 O0 2.024704 1_555
Fe0 O1 2.024704 1_555
Fe0 O2 2.042594 1_555
Fe0 O11 2.050873 1_555
Fe0 O9 2.050873 1_555
Fe0 O7 2.092956 1_555
Fe1 O31 2.005004 1_555
Fe1 O30 2.005004 1_555
Fe1 O3 2.051206 1_556
Fe1 O29 2.077514 1_555
Fe1 O1 2.079000 1_556
Fe1 O0 2.079000 1_556
Fe2 O5 1.876563 1_555
Fe2 O6 1.976774 1_445
Fe2 O11 1.986689 1_545
Fe2 O9 1.986689 1_455
Fe3 O0 2.032916 1_555
Fe3 O2 2.036536 1_555
Fe3 O3 2.044235 1_555
Fe3 O6 2.061774 1_455
Fe3 O7 2.070977 1_455
Fe3 O9 2.071120 1_455
Fe4 O1 2.032916 1_555
Fe4 O2 2.036536 1_555
Fe4 O3 2.044235 1_555
Fe4 O6 2.061774 1_545
Fe4 O7 2.070977 1_545
Fe4 O11 2.071120 1_545
Fe5 O13 1.919092 1_565
Fe5 O12 1.919092 1_655
Fe5 O4 2.026260 1_555
Fe5 O6 2.139715 1_555
Fe5 O11 2.180700 1_555
Fe5 O9 2.180700 1_555
Fe6 O8 1.914482 1_555
Fe6 O10 1.914482 1_555
Fe6 O16 1.923335 1_555
Fe6 O17 1.990524 1_555
Fe7 O21 2.031227 1_555
Fe7 O25 2.036641 1_545
Fe7 O16 2.040733 1_555
Fe7 O18 2.046174 1_545
Fe7 O14 2.068221 1_545
Fe7 O28 2.088161 1_555
Fe8 O13 1.994863 1_565
Fe8 O15 2.044984 1_555
Fe8 O8 2.046560 1_555
Fe8 O4 2.055328 1_555
Fe8 O17 2.075908 1_565
Fe8 O5 2.080721 1_565
Fe9 O12 1.994863 1_655
Fe9 O15 2.044984 1_555
Fe9 O10 2.046560 1_555
Fe9 O4 2.055328 1_555
Fe9 O17 2.075908 1_655
Fe9 O5 2.080721 1_655
Fe10 O23 2.031227 1_555
Fe10 O25 2.036641 1_455
Fe10 O16 2.040733 1_555
Fe10 O19 2.046174 1_455
Fe10 O14 2.068221 1_455
Fe10 O28 2.088161 1_555
Fe11 O15 1.908051 1_555
Fe11 O21 1.927194 1_555
Fe11 O23 1.927194 1_555
Fe11 O14 1.989523 1_555
Fe12 O10 2.039515 1_565
Fe12 O8 2.039515 1_655
Fe12 O23 2.042209 1_655
Fe12 O21 2.042209 1_565
Fe12 O17 2.081662 1_665
Fe12 O14 2.086325 1_555
Fe13 O18 2.032475 1_545
Fe13 O19 2.032475 1_455
Fe13 O20 2.048886 1_555
Fe13 O22 2.048886 1_555
Fe13 O28 2.064453 1_555
Fe13 O26 2.091345 1_555
Fe14 O19 1.923734 1_555
Fe14 O18 1.923734 1_555
Fe14 O27 1.928880 1_555
Fe14 O28 1.991999 1_555
Fe15 O24 1.982098 1_655
Fe15 O20 2.032236 1_655
Fe15 O27 2.047749 1_555
Fe15 O26 2.075574 1_655
Fe15 O31 2.091529 1_555
Fe15 O29 2.115178 1_555
Fe16 O24 1.982098 1_565
Fe16 O22 2.032236 1_565
Fe16 O27 2.047749 1_555
Fe16 O26 2.075574 1_565
Fe16 O30 2.091529 1_555
Fe16 O29 2.115178 1_555
Fe17 O25 1.907525 1_555
Fe17 O20 1.919096 1_655
Fe17 O22 1.919096 1_565
Fe17 O26 1.985310 1_665
Fe18 O30 1.902641 1_655
Fe18 O31 1.902641 1_565
Fe18 O29 1.958991 1_555
Fe18 O7 2.000657 1_556
