# generated using pymatgen
data_CaPrO3
_symmetry_space_group_name_H-M   'P 1'
_cell_length_a   6.10520000
_cell_length_b   6.32241500
_cell_length_c   8.44626500
_cell_angle_alpha   90.00000000
_cell_angle_beta   90.00000000
_cell_angle_gamma   90.00000000
_symmetry_Int_Tables_number   1
_chemical_formula_structural   CaPrO3
_chemical_formula_sum   'Ca4 Pr4 O12'
_cell_volume   326.02251855
_cell_formula_units_Z   4
loop_
 _symmetry_equiv_pos_site_id
 _symmetry_equiv_pos_as_xyz
  1  'x, y, z'
loop_
 _atom_site_type_symbol
 _atom_site_label
 _atom_site_symmetry_multiplicity
 _atom_site_fract_x
 _atom_site_fract_y
 _atom_site_fract_z
 _atom_site_occupancy
  Ca  Ca0  1  0.51698500  0.44603800  0.75000000  1
  Ca  Ca1  1  0.98301500  0.94603800  0.75000000  1
  Ca  Ca2  1  0.01698500  0.05396200  0.25000000  1
  Ca  Ca3  1  0.48301500  0.55396200  0.25000000  1
  Pr  Pr0  1  0.50000000  0.00000000  0.00000000  1
  Pr  Pr1  1  0.50000000  0.00000000  0.50000000  1
  Pr  Pr2  1  0.00000000  0.50000000  0.00000000  1
  Pr  Pr3  1  0.00000000  0.50000000  0.50000000  1
  O  O0  1  0.66415500  0.89815100  0.25000000  1
  O  O1  1  0.69673600  0.69916100  0.59531500  1
  O  O2  1  0.69673600  0.69916100  0.90468500  1
  O  O3  1  0.80326400  0.19916100  0.59531500  1
  O  O4  1  0.80326400  0.19916100  0.90468500  1
  O  O5  1  0.83584500  0.39815100  0.25000000  1
  O  O6  1  0.16415500  0.60184900  0.75000000  1
  O  O7  1  0.19673600  0.80083900  0.40468500  1
  O  O8  1  0.19673600  0.80083900  0.09531500  1
  O  O9  1  0.30326400  0.30083900  0.09531500  1
  O  O10  1  0.30326400  0.30083900  0.40468500  1
  O  O11  1  0.33584500  0.10184900  0.75000000  1
loop_
_geom_bond_atom_site_label_1
_geom_bond_atom_site_label_2
_geom_bond_distance
_geom_bond_site_symmetry_2
Ca0 O2 2.339318 1_555
Ca0 O1 2.339318 1_555
Ca0 O6 2.368663 1_555
Ca0 O11 2.440992 1_555
Ca0 O4 2.682913 1_555
Ca0 O3 2.682913 1_555
Ca1 O4 2.339318 1_565
Ca1 O3 2.339318 1_565
Ca1 O11 2.368663 1_665
Ca1 O6 2.440992 1_655
Ca1 O2 2.682913 1_555
Ca1 O1 2.682913 1_555
Ca2 O7 2.339318 1_545
Ca2 O8 2.339318 1_545
Ca2 O0 2.368663 1_445
Ca2 O5 2.440992 1_455
Ca2 O10 2.682913 1_555
Ca2 O9 2.682913 1_555
Ca3 O10 2.339318 1_555
Ca3 O9 2.339318 1_555
Ca3 O5 2.368663 1_555
Ca3 O0 2.440992 1_555
Ca3 O7 2.682913 1_555
Ca3 O8 2.682913 1_555
O0 Pr1 2.424410 1_565
O0 Pr0 2.424410 1_565
O1 Pr3 2.379422 1_655
O1 Pr1 2.389247 1_565
O2 Pr2 2.379422 1_656
O2 Pr0 2.389247 1_566
O3 Pr1 2.379422 1_555
O3 Pr3 2.389247 1_655
O4 Pr0 2.379422 1_556
O4 Pr2 2.389247 1_656
O5 Pr3 2.424410 1_655
O5 Pr2 2.424410 1_655
O6 Pr2 2.424410 1_556
O6 Pr3 2.424410 1_555
O7 Pr1 2.379422 1_565
O7 Pr3 2.389247 1_555
O8 Pr0 2.379422 1_565
O8 Pr2 2.389247 1_555
O9 Pr2 2.379422 1_555
O9 Pr0 2.389247 1_555
O10 Pr3 2.379422 1_555
O10 Pr1 2.389247 1_555
O11 Pr1 2.424410 1_555
O11 Pr0 2.424410 1_556
