# generated using pymatgen
data_Li2CoGeO4
_symmetry_space_group_name_H-M   'P 1'
_cell_length_a   7.54627313
_cell_length_b   7.54624911
_cell_length_c   8.14122726
_cell_angle_alpha   64.94378177
_cell_angle_beta   64.94355212
_cell_angle_gamma   94.94490540
_symmetry_Int_Tables_number   1
_chemical_formula_structural   Li2CoGeO4
_chemical_formula_sum   'Li8 Co4 Ge4 O16'
_cell_volume   359.98686815
_cell_formula_units_Z   4
loop_
 _symmetry_equiv_pos_site_id
 _symmetry_equiv_pos_as_xyz
  1  'x, y, z'
loop_
 _atom_site_type_symbol
 _atom_site_label
 _atom_site_symmetry_multiplicity
 _atom_site_fract_x
 _atom_site_fract_y
 _atom_site_fract_z
 _atom_site_occupancy
  Li  Li0  1  0.53894600  0.20503500  0.25075400  1
  Li  Li1  1  0.03894300  0.70503300  0.25075700  1
  Li  Li2  1  0.45578400  0.78969500  0.24925200  1
  Li  Li3  1  0.95578300  0.28969800  0.24925200  1
  Li  Li4  1  0.28969800  0.95578400  0.74925200  1
  Li  Li5  1  0.78969600  0.45578500  0.74925200  1
  Li  Li6  1  0.20503500  0.53894600  0.75075300  1
  Li  Li7  1  0.70503400  0.03894300  0.75075700  1
  Co  Co0  1  0.41524500  0.58070000  0.00000600  1
  Co  Co1  1  0.58070700  0.41524900  0.50000200  1
  Co  Co2  1  0.91525000  0.08071000  0.00000100  1
  Co  Co3  1  0.08071400  0.91525200  0.49999800  1
  Ge  Ge0  1  0.33463800  0.16585800  0.99999500  1
  Ge  Ge1  1  0.83465400  0.66585900  0.99999500  1
  Ge  Ge2  1  0.16585200  0.33463900  0.50000400  1
  Ge  Ge3  1  0.66586400  0.83465300  0.49999300  1
  O  O0  1  0.50917000  0.34117600  0.99999500  1
  O  O1  1  0.00918200  0.84118800  0.99999800  1
  O  O2  1  0.34117800  0.50917500  0.49999700  1
  O  O3  1  0.84118800  0.00918200  0.49999900  1
  O  O4  1  0.62656100  0.76256600  0.00001100  1
  O  O5  1  0.12654700  0.26256700  0.00001100  1
  O  O6  1  0.26256700  0.12654300  0.50001200  1
  O  O7  1  0.76256300  0.62655600  0.50001500  1
  O  O8  1  0.64687100  0.97001900  0.27039400  1
  O  O9  1  0.14687000  0.47003000  0.27040200  1
  O  O10  1  0.24042900  0.91727000  0.22959400  1
  O  O11  1  0.74044200  0.41727300  0.22958200  1
  O  O12  1  0.97001900  0.64686700  0.77039400  1
  O  O13  1  0.47002600  0.14686700  0.77040000  1
  O  O14  1  0.41727000  0.74044800  0.72958100  1
  O  O15  1  0.91726900  0.24043000  0.72959300  1
loop_
_geom_bond_atom_site_label_1
_geom_bond_atom_site_label_2
_geom_bond_distance
_geom_bond_site_symmetry_2
Li0 O0 1.981283 1_554
Li0 O8 1.988278 1_545
Li0 O6 2.000677 1_555
Li0 O11 2.007792 1_555
Li1 O1 1.981225 1_554
Li1 O9 1.988193 1_555
Li1 O7 2.000707 1_455
Li1 O10 2.007780 1_555
Li2 O2 1.981180 1_555
Li2 O10 1.988211 1_555
Li2 O4 2.000618 1_555
Li2 O8 2.007737 1_555
Li3 O3 1.981176 1_555
Li3 O11 1.988138 1_555
Li3 O5 2.000605 1_655
Li3 O9 2.007820 1_655
Li4 O1 1.981172 1_555
Li4 O14 1.988091 1_555
Li4 O6 2.000596 1_565
Li4 O13 2.007768 1_565
Li5 O0 1.981198 1_555
Li5 O15 1.988201 1_555
Li5 O7 2.000606 1_555
Li5 O12 2.007705 1_555
Li6 O2 1.981236 1_555
Li6 O12 1.988264 1_455
Li6 O5 2.000685 1_556
Li6 O14 2.007806 1_555
Li7 O3 1.981213 1_555
Li7 O13 1.988220 1_555
Li7 O4 2.000687 1_546
Li7 O15 2.007770 1_555
Co0 O0 1.997599 1_554
Co0 O9 2.004988 1_555
Co0 O14 2.005194 1_554
Co0 O4 2.012266 1_555
Co1 O2 1.997631 1_555
Co1 O13 2.005013 1_555
Co1 O11 2.005146 1_555
Co1 O7 2.012210 1_555
Co2 O1 1.997593 1_644
Co2 O8 2.004970 1_545
Co2 O15 2.005072 1_554
Co2 O5 2.012145 1_655
Co3 O3 1.997612 1_465
Co3 O12 2.005002 1_455
Co3 O10 2.005039 1_555
Co3 O6 2.012112 1_565
Ge0 O0 1.784539 1_555
Ge0 O13 1.786838 1_555
Ge0 O10 1.786863 1_546
Ge0 O5 1.787720 1_556
Ge1 O1 1.784591 1_655
Ge1 O11 1.786809 1_556
Ge1 O12 1.786859 1_555
Ge1 O4 1.787727 1_556
Ge2 O2 1.784565 1_555
Ge2 O15 1.786806 1_455
Ge2 O9 1.786854 1_555
Ge2 O6 1.787786 1_555
Ge3 O3 1.784585 1_565
Ge3 O14 1.786854 1_555
Ge3 O8 1.786855 1_555
Ge3 O7 1.787712 1_555
