# generated using pymatgen
data_Ni17(As3O16)2
_symmetry_space_group_name_H-M   'P 1'
_cell_length_a   11.87075218
_cell_length_b   9.82611852
_cell_length_c   10.32093500
_cell_angle_alpha   69.58123262
_cell_angle_beta   90.00000000
_cell_angle_gamma   90.00000000
_symmetry_Int_Tables_number   1
_chemical_formula_structural   Ni17(As3O16)2
_chemical_formula_sum   'Ni34 As12 O64'
_cell_volume   1128.22734343
_cell_formula_units_Z   2
loop_
 _symmetry_equiv_pos_site_id
 _symmetry_equiv_pos_as_xyz
  1  'x, y, z'
loop_
 _atom_site_type_symbol
 _atom_site_label
 _atom_site_symmetry_multiplicity
 _atom_site_fract_x
 _atom_site_fract_y
 _atom_site_fract_z
 _atom_site_occupancy
  Ni  Ni0  1  0.62202324  0.00059378  0.24111023  1
  Ni  Ni1  1  0.50001764  0.74257022  0.24796308  1
  Ni  Ni2  1  0.62158285  0.74255361  0.00460365  1
  Ni  Ni3  1  0.49864791  0.26286162  0.24691702  1
  Ni  Ni4  1  0.37797676  0.99940622  0.75888977  1
  Ni  Ni5  1  0.24423543  0.00053464  0.50128453  1
  Ni  Ni6  1  0.50000000  -0.00000000  0.50000000  1
  Ni  Ni7  1  0.50135209  0.73713838  0.75308298  1
  Ni  Ni8  1  0.25067364  0.73754244  0.75658116  1
  Ni  Ni9  1  0.37475539  0.73591626  0.50528407  1
  Ni  Ni10  1  0.37841715  0.25744639  0.99539635  1
  Ni  Ni11  1  0.49998236  0.25742978  0.75203692  1
  Ni  Ni12  1  0.24981974  0.26686208  0.74408590  1
  Ni  Ni13  1  -0.00000000  -0.00000000  0.00000000  1
  Ni  Ni14  1  0.25576457  0.00053464  0.00128453  1
  Ni  Ni15  1  0.24932636  0.73754244  0.25658116  1
  Ni  Ni16  1  0.99864791  0.73713838  0.25308298  1
  Ni  Ni17  1  0.12524461  0.73591626  0.00528407  1
  Ni  Ni18  1  0.12158285  0.25744639  0.49539635  1
  Ni  Ni19  1  0.25018026  0.26686208  0.24408590  1
  Ni  Ni20  1  0.00001764  0.25742978  0.25203692  1
  Ni  Ni21  1  0.75576457  -0.00053464  0.49871547  1
  Ni  Ni22  1  0.12202324  0.99940622  0.25888977  1
  Ni  Ni23  1  0.99998236  0.74257022  0.74796308  1
  Ni  Ni24  1  0.74981974  0.73313792  0.75591410  1
  Ni  Ni25  1  0.87841715  0.74255361  0.50460365  1
  Ni  Ni26  1  0.87475539  0.26408374  0.99471593  1
  Ni  Ni27  1  0.00135209  0.26286162  0.74691702  1
  Ni  Ni28  1  0.75067364  0.26245756  0.74341884  1
  Ni  Ni29  1  0.74423543  -0.00053464  0.99871547  1
  Ni  Ni30  1  0.87797676  0.00059378  0.74111023  1
  Ni  Ni31  1  0.75018026  0.73313792  0.25591410  1
  Ni  Ni32  1  0.62524461  0.26408374  0.49471593  1
  Ni  Ni33  1  0.74932636  0.26245756  0.24341884  1
  As  As0  1  0.62490614  0.99960195  0.75069583  1
  As  As1  1  0.62473653  0.42279944  0.94279701  1
  As  As2  1  0.37509386  0.00039805  0.24930417  1
  As  As3  1  0.37509642  0.42422258  0.44298501  1
  As  As4  1  0.12490614  0.00039805  0.74930417  1
  As  As5  1  0.12490358  0.42422258  0.94298501  1
  As  As6  1  0.87509386  0.99960195  0.25069583  1
  As  As7  1  0.37526347  0.57720056  0.05720299  1
  As  As8  1  0.87526347  0.42279944  0.44279701  1
  As  As9  1  0.12473653  0.57720056  0.55720299  1
  As  As10  1  0.87509642  0.57577742  0.05701499  1
  As  As11  1  0.62490358  0.57577742  0.55701499  1
  O  O0  1  0.62441261  0.61232768  0.88046059  1
  O  O1  1  0.48341677  0.12000193  0.14589165  1
  O  O2  1  0.63122302  0.12019974  0.84942038  1
  O  O3  1  0.63393281  0.85942313  0.13605686  1
  O  O4  1  0.62335328  0.62814670  0.38234648  1
  O  O5  1  0.37541276  0.61446470  0.37892115  1
  O  O6  1  0.49348678  0.62965022  0.11925206  1
  O  O7  1  0.49349325  0.37114438  0.38120933  1
  O  O8  1  0.23579395  0.11422800  0.63927205  1
  O  O9  1  0.51483839  0.11485359  0.63754362  1
  O  O10  1  0.37342260  0.11253213  0.36277137  1
  O  O11  1  0.37569329  0.86992822  0.62679425  1
  O  O12  1  0.48516161  0.88514641  0.36245638  1
  O  O13  1  0.37598920  0.62954698  0.88230586  1
  O  O14  1  0.12458724  0.61446470  0.87892115  1
  O  O15  1  0.50650675  0.62885562  0.61879067  1
  O  O16  1  0.24320116  0.62962321  0.61953779  1
  O  O17  1  0.50651322  0.37034978  0.88074794  1
  O  O18  1  0.24353963  0.37127644  0.88261952  1
  O  O19  1  0.37664672  0.37185330  0.61765352  1
  O  O20  1  0.26420605  0.11422800  0.13927205  1
  O  O21  1  0.98516161  0.11485359  0.13754362  1
  O  O22  1  0.36606719  0.14057687  0.86394314  1
  O  O23  1  0.12657740  0.11253213  0.86277137  1
  O  O24  1  0.36877698  0.87980026  0.15057962  1
  O  O25  1  0.12430671  0.86992822  0.12679425  1
  O  O26  1  0.51658323  0.87999807  0.85410835  1
  O  O27  1  0.23669591  0.88581563  0.86617765  1
  O  O28  1  0.12401080  0.62954698  0.38230586  1
  O  O29  1  0.87558739  0.61232768  0.38046059  1
  O  O30  1  0.25679884  0.62962321  0.11953779  1
  O  O31  1  0.99349325  0.62885562  0.11879067  1
  O  O32  1  0.25646037  0.37127644  0.38261952  1
  O  O33  1  0.99348678  0.37034978  0.38074794  1
  O  O34  1  0.37558739  0.38767232  0.11953941  1
  O  O35  1  0.12335328  0.37185330  0.11765352  1
  O  O36  1  0.73669591  0.11418437  0.63382235  1
  O  O37  1  0.01658323  0.12000193  0.64589165  1
  O  O38  1  0.13393281  0.14057687  0.36394314  1
  O  O39  1  0.86877698  0.12019974  0.34942038  1
  O  O40  1  0.13122302  0.87980026  0.65057962  1
  O  O41  1  0.86606719  0.85942313  0.63605686  1
  O  O42  1  0.26330409  0.88581563  0.36617765  1
  O  O43  1  0.98341677  0.87999807  0.35410835  1
  O  O44  1  0.87664672  0.62814670  0.88234648  1
  O  O45  1  0.00651322  0.62965022  0.61925206  1
  O  O46  1  0.74353963  0.62872356  0.61738048  1
  O  O47  1  0.00650675  0.37114438  0.88120933  1
  O  O48  1  0.74320116  0.37037679  0.88046221  1
  O  O49  1  0.12441261  0.38767232  0.61953941  1
  O  O50  1  0.87598920  0.37045302  0.61769414  1
  O  O51  1  0.76330409  0.11418437  0.13382235  1
  O  O52  1  0.87569329  0.13007178  0.87320575  1
  O  O53  1  0.87342260  0.88746787  0.13722863  1
  O  O54  1  0.01483839  0.88514641  0.86245638  1
  O  O55  1  0.73579395  0.88577200  0.86072795  1
  O  O56  1  0.75646037  0.62872356  0.11738048  1
  O  O57  1  0.75679884  0.37037679  0.38046221  1
  O  O58  1  0.87541276  0.38553530  0.12107885  1
  O  O59  1  0.62401080  0.37045302  0.11769414  1
  O  O60  1  0.62430671  0.13007178  0.37320575  1
  O  O61  1  0.62657740  0.88746787  0.63722863  1
  O  O62  1  0.76420605  0.88577200  0.36072795  1
  O  O63  1  0.62458724  0.38553530  0.62107885  1
loop_
_geom_bond_atom_site_label_1
_geom_bond_atom_site_label_2
_geom_bond_distance
_geom_bond_site_symmetry_2
Ni0 O3 2.041872 1_545
Ni0 O1 2.060368 1_555
Ni0 O51 2.102916 1_555
Ni0 O12 2.122156 1_545
Ni0 O62 2.161926 1_545
Ni0 O60 2.165273 1_555
Ni1 O6 2.007564 1_555
Ni1 O4 2.059917 1_555
Ni1 O3 2.062543 1_555
Ni1 O24 2.076042 1_555
Ni1 O5 2.100505 1_555
Ni1 O12 2.131975 1_555
Ni2 O6 2.006780 1_555
Ni2 O56 2.064212 1_555
Ni2 O3 2.065930 1_555
Ni2 O26 2.080006 1_554
Ni2 O0 2.103379 1_554
Ni2 O55 2.136694 1_554
Ni3 O7 2.021361 1_555
Ni3 O1 2.027727 1_555
Ni3 O59 2.031552 1_555
Ni3 O34 2.059464 1_555
Ni3 O60 2.107084 1_555
Ni3 O10 2.142208 1_555
Ni4 O22 2.041872 1_565
Ni4 O26 2.060368 1_555
Ni4 O27 2.102916 1_555
Ni4 O9 2.122156 1_565
Ni4 O8 2.161926 1_565
Ni4 O11 2.165273 1_555
Ni5 O38 2.063078 1_555
Ni5 O40 2.075072 1_545
Ni5 O42 2.088810 1_545
Ni5 O8 2.096778 1_555
Ni5 O10 2.123401 1_555
Ni5 O11 2.144808 1_545
Ni6 O11 2.087213 1_545
Ni6 O60 2.087213 1_555
Ni6 O61 2.096097 1_545
Ni6 O10 2.096097 1_555
Ni6 O12 2.106599 1_545
Ni6 O9 2.106599 1_555
Ni7 O15 2.021361 1_555
Ni7 O26 2.027727 1_555
Ni7 O13 2.031552 1_555
Ni7 O0 2.059464 1_555
Ni7 O11 2.107084 1_555
Ni7 O61 2.142208 1_555
Ni8 O13 2.015435 1_555
Ni8 O40 2.023472 1_555
Ni8 O16 2.044383 1_555
Ni8 O14 2.057095 1_555
Ni8 O11 2.114980 1_555
Ni8 O27 2.140005 1_555
Ni9 O16 2.015135 1_555
Ni9 O15 2.016240 1_555
Ni9 O5 2.052109 1_555
Ni9 O11 2.111679 1_555
Ni9 O42 2.122637 1_555
Ni9 O12 2.128999 1_555
Ni10 O17 2.006780 1_555
Ni10 O18 2.064212 1_555
Ni10 O22 2.065930 1_555
Ni10 O1 2.080006 1_556
Ni10 O34 2.103379 1_556
Ni10 O20 2.136694 1_556
Ni11 O17 2.007564 1_555
Ni11 O19 2.059917 1_555
Ni11 O22 2.062543 1_555
Ni11 O2 2.076042 1_555
Ni11 O63 2.100505 1_555
Ni11 O9 2.131975 1_555
Ni12 O22 1.975664 1_555
Ni12 O19 2.023457 1_555
Ni12 O18 2.031282 1_555
Ni12 O49 2.052551 1_555
Ni12 O8 2.139963 1_555
Ni12 O23 2.155068 1_555
Ni13 O25 2.087213 1_545
Ni13 O52 2.087213 1_454
Ni13 O53 2.096097 1_445
Ni13 O23 2.096097 1_554
Ni13 O54 2.106599 1_544
Ni13 O21 2.106599 1_455
Ni14 O22 2.063078 1_554
Ni14 O24 2.075072 1_545
Ni14 O27 2.088810 1_544
Ni14 O20 2.096778 1_555
Ni14 O23 2.123401 1_554
Ni14 O25 2.144808 1_545
Ni15 O28 2.015435 1_555
Ni15 O24 2.023472 1_555
Ni15 O30 2.044383 1_555
Ni15 O5 2.057095 1_555
Ni15 O25 2.114980 1_555
Ni15 O42 2.140005 1_555
Ni16 O31 2.021361 1_555
Ni16 O43 2.027727 1_555
Ni16 O28 2.031552 1_655
Ni16 O29 2.059464 1_555
Ni16 O25 2.107084 1_655
Ni16 O53 2.142208 1_555
Ni17 O30 2.015135 1_555
Ni17 O31 2.016240 1_455
Ni17 O14 2.052109 1_554
Ni17 O25 2.111679 1_555
Ni17 O27 2.122637 1_554
Ni17 O54 2.128999 1_554
Ni18 O33 2.006780 1_455
Ni18 O32 2.064212 1_555
Ni18 O38 2.065930 1_555
Ni18 O37 2.080006 1_555
Ni18 O49 2.103379 1_555
Ni18 O8 2.136694 1_555
Ni19 O38 1.975664 1_555
Ni19 O35 2.023457 1_555
Ni19 O32 2.031282 1_555
Ni19 O34 2.052551 1_555
Ni19 O20 2.139963 1_555
Ni19 O10 2.155068 1_555
Ni20 O33 2.007564 1_455
Ni20 O35 2.059917 1_555
Ni20 O38 2.062543 1_555
Ni20 O39 2.076042 1_455
Ni20 O58 2.100505 1_455
Ni20 O21 2.131975 1_455
Ni21 O41 2.063078 1_545
Ni21 O39 2.075072 1_555
Ni21 O36 2.088810 1_555
Ni21 O62 2.096778 1_545
Ni21 O61 2.123401 1_545
Ni21 O60 2.144808 1_555
Ni22 O38 2.041872 1_565
Ni22 O43 2.060368 1_455
Ni22 O42 2.102916 1_555
Ni22 O21 2.122156 1_465
Ni22 O20 2.161926 1_565
Ni22 O25 2.165273 1_555
Ni23 O45 2.007564 1_655
Ni23 O44 2.059917 1_555
Ni23 O41 2.062543 1_555
Ni23 O40 2.076042 1_655
Ni23 O14 2.100505 1_655
Ni23 O54 2.131975 1_655
Ni24 O41 1.975664 1_555
Ni24 O44 2.023457 1_555
Ni24 O46 2.031282 1_555
Ni24 O0 2.052551 1_555
Ni24 O55 2.139963 1_555
Ni24 O61 2.155068 1_555
Ni25 O45 2.006780 1_655
Ni25 O46 2.064212 1_555
Ni25 O41 2.065930 1_555
Ni25 O43 2.080006 1_555
Ni25 O29 2.103379 1_555
Ni25 O62 2.136694 1_555
Ni26 O48 2.015135 1_555
Ni26 O47 2.016240 1_655
Ni26 O58 2.052109 1_556
Ni26 O52 2.111679 1_555
Ni26 O51 2.122637 1_556
Ni26 O21 2.128999 1_556
Ni27 O47 2.021361 1_555
Ni27 O37 2.027727 1_555
Ni27 O50 2.031552 1_455
Ni27 O49 2.059464 1_555
Ni27 O52 2.107084 1_455
Ni27 O23 2.142208 1_555
Ni28 O50 2.015435 1_555
Ni28 O2 2.023472 1_555
Ni28 O48 2.044383 1_555
Ni28 O63 2.057095 1_555
Ni28 O52 2.114980 1_555
Ni28 O36 2.140005 1_555
Ni29 O3 2.063078 1_546
Ni29 O2 2.075072 1_555
Ni29 O51 2.088810 1_556
Ni29 O55 2.096778 1_545
Ni29 O53 2.123401 1_546
Ni29 O52 2.144808 1_555
Ni30 O41 2.041872 1_545
Ni30 O37 2.060368 1_655
Ni30 O36 2.102916 1_555
Ni30 O54 2.122156 1_645
Ni30 O55 2.161926 1_545
Ni30 O52 2.165273 1_555
Ni31 O3 1.975664 1_555
Ni31 O4 2.023457 1_555
Ni31 O56 2.031282 1_555
Ni31 O29 2.052551 1_555
Ni31 O62 2.139963 1_555
Ni31 O53 2.155068 1_555
Ni32 O57 2.015135 1_555
Ni32 O7 2.016240 1_555
Ni32 O63 2.052109 1_555
Ni32 O60 2.111679 1_555
Ni32 O36 2.122637 1_555
Ni32 O9 2.128999 1_555
Ni33 O59 2.015435 1_555
Ni33 O39 2.023472 1_555
Ni33 O57 2.044383 1_555
Ni33 O58 2.057095 1_555
Ni33 O60 2.114980 1_555
Ni33 O51 2.140005 1_555
As0 O2 1.813997 1_565
As0 O26 1.816202 1_555
As0 O55 1.840414 1_555
As0 O9 1.852214 1_565
As0 O61 1.867151 1_555
As0 O36 1.880438 1_565
As1 O59 1.695637 1_556
As1 O17 1.695746 1_555
As1 O48 1.699429 1_555
As1 O0 1.745329 1_555
As2 O24 1.813997 1_545
As2 O1 1.816202 1_555
As2 O20 1.840414 1_555
As2 O12 1.852214 1_545
As2 O10 1.867151 1_555
As2 O42 1.880438 1_545
As3 O19 1.693438 1_555
As3 O32 1.693606 1_555
As3 O7 1.698786 1_555
As3 O5 1.751914 1_555
As4 O40 1.813997 1_545
As4 O37 1.816202 1_555
As4 O8 1.840414 1_555
As4 O54 1.852214 1_545
As4 O23 1.867151 1_555
As4 O27 1.880438 1_545
As5 O35 1.693438 1_556
As5 O18 1.693606 1_555
As5 O47 1.698786 1_555
As5 O14 1.751914 1_555
As6 O39 1.813997 1_565
As6 O43 1.816202 1_555
As6 O62 1.840414 1_555
As6 O21 1.852214 1_565
As6 O53 1.867151 1_555
As6 O51 1.880438 1_565
As7 O13 1.695637 1_554
As7 O6 1.695746 1_555
As7 O30 1.699429 1_555
As7 O34 1.745329 1_555
As8 O50 1.695637 1_555
As8 O33 1.695746 1_555
As8 O57 1.699429 1_555
As8 O29 1.745329 1_555
As9 O28 1.695637 1_555
As9 O45 1.695746 1_555
As9 O16 1.699429 1_555
As9 O49 1.745329 1_555
As10 O44 1.693438 1_554
As10 O56 1.693606 1_555
As10 O31 1.698786 1_555
As10 O58 1.751914 1_555
As11 O4 1.693438 1_555
As11 O46 1.693606 1_555
As11 O15 1.698786 1_555
As11 O63 1.751914 1_555
