# generated using pymatgen
data_Mn3BiO8
_symmetry_space_group_name_H-M   'P 1'
_cell_length_a   8.60940300
_cell_length_b   8.60940300
_cell_length_c   8.60940300
_cell_angle_alpha   90.00000000
_cell_angle_beta   90.00000000
_cell_angle_gamma   90.00000000
_symmetry_Int_Tables_number   1
_chemical_formula_structural   Mn3BiO8
_chemical_formula_sum   'Mn12 Bi4 O32'
_cell_volume   638.14461961
_cell_formula_units_Z   4
loop_
 _symmetry_equiv_pos_site_id
 _symmetry_equiv_pos_as_xyz
  1  'x, y, z'
loop_
 _atom_site_type_symbol
 _atom_site_label
 _atom_site_symmetry_multiplicity
 _atom_site_fract_x
 _atom_site_fract_y
 _atom_site_fract_z
 _atom_site_occupancy
  Mn  Mn0  1  0.09889800  0.15110200  0.62500000  1
  Mn  Mn1  1  0.12500000  0.40110200  0.84889800  1
  Mn  Mn2  1  0.15110200  0.62500000  0.09889800  1
  Mn  Mn3  1  0.34889800  0.37500000  0.59889800  1
  Mn  Mn4  1  0.37500000  0.59889800  0.34889800  1
  Mn  Mn5  1  0.40110200  0.84889800  0.12500000  1
  Mn  Mn6  1  0.59889800  0.34889800  0.37500000  1
  Mn  Mn7  1  0.62500000  0.09889800  0.15110200  1
  Mn  Mn8  1  0.65110200  0.87500000  0.90110200  1
  Mn  Mn9  1  0.84889800  0.12500000  0.40110200  1
  Mn  Mn10  1  0.87500000  0.90110200  0.65110200  1
  Mn  Mn11  1  0.90110200  0.65110200  0.87500000  1
  Bi  Bi0  1  0.12500000  0.87500000  0.37500000  1
  Bi  Bi1  1  0.37500000  0.12500000  0.87500000  1
  Bi  Bi2  1  0.62500000  0.62500000  0.62500000  1
  Bi  Bi3  1  0.87500000  0.37500000  0.12500000  1
  O  O0  1  0.07158800  0.13839900  0.40261000  1
  O  O1  1  0.09739000  0.92841200  0.63839900  1
  O  O2  1  0.12569800  0.62569800  0.87430200  1
  O  O3  1  0.11160100  0.17841200  0.84739000  1
  O  O4  1  0.13839900  0.40261000  0.07158800  1
  O  O5  1  0.12430200  0.37569800  0.62430200  1
  O  O6  1  0.15261000  0.61160100  0.32158800  1
  O  O7  1  0.17841200  0.84739000  0.11160100  1
  O  O8  1  0.32158800  0.15261000  0.61160100  1
  O  O9  1  0.34739000  0.38839900  0.82158800  1
  O  O10  1  0.37569800  0.62430200  0.12430200  1
  O  O11  1  0.36160100  0.59739000  0.57158800  1
  O  O12  1  0.38839900  0.82158800  0.34739000  1
  O  O13  1  0.37430200  0.37430200  0.37430200  1
  O  O14  1  0.40261000  0.07158800  0.13839900  1
  O  O15  1  0.42841200  0.86160100  0.90261000  1
  O  O16  1  0.57158800  0.36160100  0.59739000  1
  O  O17  1  0.59739000  0.57158800  0.36160100  1
  O  O18  1  0.62569800  0.87430200  0.12569800  1
  O  O19  1  0.61160100  0.32158800  0.15261000  1
  O  O20  1  0.63839900  0.09739000  0.92841200  1
  O  O21  1  0.62430200  0.12430200  0.37569800  1
  O  O22  1  0.65261000  0.88839900  0.67841200  1
  O  O23  1  0.67841200  0.65261000  0.88839900  1
  O  O24  1  0.82158800  0.34739000  0.38839900  1
  O  O25  1  0.84739000  0.11160100  0.17841200  1
  O  O26  1  0.87569800  0.87569800  0.87569800  1
  O  O27  1  0.86160100  0.90261000  0.42841200  1
  O  O28  1  0.88839900  0.67841200  0.65261000  1
  O  O29  1  0.87430200  0.12569800  0.62569800  1
  O  O30  1  0.90261000  0.42841200  0.86160100  1
  O  O31  1  0.92841200  0.63839900  0.09739000  1
loop_
_geom_bond_atom_site_label_1
_geom_bond_atom_site_label_2
_geom_bond_distance
_geom_bond_site_symmetry_2
Mn0 O1 1.920739 1_545
Mn0 O8 1.920739 1_555
Mn0 O0 1.932126 1_555
Mn0 O3 1.932126 1_555
Mn0 O29 1.945977 1_455
Mn0 O5 1.945977 1_555
Mn1 O4 1.920739 1_556
Mn1 O3 1.920739 1_555
Mn1 O30 1.932126 1_455
Mn1 O9 1.932126 1_555
Mn1 O2 1.945977 1_555
Mn1 O5 1.945977 1_555
Mn2 O31 1.920739 1_455
Mn2 O6 1.920739 1_555
Mn2 O4 1.932126 1_555
Mn2 O7 1.932126 1_555
Mn2 O2 1.945977 1_554
Mn2 O10 1.945977 1_555
Mn3 O9 1.920739 1_555
Mn3 O16 1.920739 1_555
Mn3 O11 1.932126 1_555
Mn3 O8 1.932126 1_555
Mn3 O5 1.945977 1_555
Mn3 O13 1.945977 1_555
Mn4 O12 1.920739 1_555
Mn4 O11 1.920739 1_555
Mn4 O17 1.932126 1_555
Mn4 O6 1.932126 1_555
Mn4 O10 1.945977 1_555
Mn4 O13 1.945977 1_555
Mn5 O14 1.920739 1_565
Mn5 O7 1.920739 1_555
Mn5 O15 1.932126 1_554
Mn5 O12 1.932126 1_555
Mn5 O18 1.945977 1_555
Mn5 O10 1.945977 1_555
Mn6 O24 1.920739 1_555
Mn6 O17 1.920739 1_555
Mn6 O16 1.932126 1_555
Mn6 O19 1.932126 1_555
Mn6 O21 1.945977 1_555
Mn6 O13 1.945977 1_555
Mn7 O20 1.920739 1_554
Mn7 O19 1.920739 1_555
Mn7 O14 1.932126 1_555
Mn7 O25 1.932126 1_555
Mn7 O18 1.945977 1_545
Mn7 O21 1.945977 1_555
Mn8 O22 1.920739 1_555
Mn8 O15 1.920739 1_555
Mn8 O23 1.932126 1_555
Mn8 O20 1.932126 1_565
Mn8 O26 1.945977 1_555
Mn8 O18 1.945977 1_556
Mn9 O0 1.920739 1_655
Mn9 O25 1.920739 1_555
Mn9 O24 1.932126 1_555
Mn9 O27 1.932126 1_545
Mn9 O29 1.945977 1_555
Mn9 O21 1.945977 1_555
Mn10 O28 1.920739 1_555
Mn10 O27 1.920739 1_555
Mn10 O22 1.932126 1_555
Mn10 O1 1.932126 1_655
Mn10 O26 1.945977 1_555
Mn10 O29 1.945977 1_565
Mn11 O23 1.920739 1_555
Mn11 O30 1.920739 1_555
Mn11 O28 1.932126 1_555
Mn11 O31 1.932126 1_556
Mn11 O26 1.945977 1_555
Mn11 O2 1.945977 1_655
Bi0 O0 2.326040 1_565
Bi0 O7 2.326040 1_555
Bi0 O12 2.326040 1_555
Bi0 O27 2.326040 1_455
Bi0 O1 2.326040 1_555
Bi0 O6 2.326040 1_555
Bi1 O14 2.326040 1_556
Bi1 O3 2.326040 1_555
Bi1 O20 2.326040 1_555
Bi1 O15 2.326040 1_545
Bi1 O8 2.326040 1_555
Bi1 O9 2.326040 1_555
Bi2 O16 2.326040 1_555
Bi2 O17 2.326040 1_555
Bi2 O23 2.326040 1_555
Bi2 O11 2.326040 1_555
Bi2 O28 2.326040 1_555
Bi2 O22 2.326040 1_555
Bi3 O4 2.326040 1_655
Bi3 O24 2.326040 1_555
Bi3 O25 2.326040 1_555
Bi3 O19 2.326040 1_555
Bi3 O30 2.326040 1_554
Bi3 O31 2.326040 1_555
