# generated using pymatgen
data_Mn6O7F5
_symmetry_space_group_name_H-M   'P 1'
_cell_length_a   4.60104063
_cell_length_b   5.64094231
_cell_length_c   15.32511056
_cell_angle_alpha   89.87130938
_cell_angle_beta   89.68165270
_cell_angle_gamma   89.28746059
_symmetry_Int_Tables_number   1
_chemical_formula_structural   Mn6O7F5
_chemical_formula_sum   'Mn12 O14 F10'
_cell_volume   397.71321825
_cell_formula_units_Z   2
loop_
 _symmetry_equiv_pos_site_id
 _symmetry_equiv_pos_as_xyz
  1  'x, y, z'
loop_
 _atom_site_type_symbol
 _atom_site_label
 _atom_site_symmetry_multiplicity
 _atom_site_fract_x
 _atom_site_fract_y
 _atom_site_fract_z
 _atom_site_occupancy
  Mn  Mn0  1  0.00576900  0.14947900  0.40718100  1
  Mn  Mn1  1  0.02351300  0.83511500  0.24245000  1
  Mn  Mn2  1  0.99732900  0.15753000  0.07918600  1
  Mn  Mn3  1  0.05122100  0.15387700  0.74897300  1
  Mn  Mn4  1  0.01294500  0.83501300  0.57786300  1
  Mn  Mn5  1  0.04213700  0.84757800  0.91718900  1
  Mn  Mn6  1  0.48920300  0.35590900  0.58593100  1
  Mn  Mn7  1  0.48778700  0.35299700  0.92494500  1
  Mn  Mn8  1  0.50103800  0.36570300  0.25988500  1
  Mn  Mn9  1  0.50046900  0.64824800  0.08692200  1
  Mn  Mn10  1  0.49802900  0.65465600  0.41976300  1
  Mn  Mn11  1  0.47839100  0.64622400  0.75212800  1
  O  O0  1  0.23433100  0.11265400  0.30077500  1
  O  O1  1  0.22928500  0.10842800  0.63572400  1
  O  O2  1  0.22727900  0.11600700  0.97163400  1
  O  O3  1  0.21442000  0.88320500  0.13314600  1
  O  O4  1  0.21723200  0.89090600  0.46806400  1
  O  O5  1  0.23648200  0.88594700  0.80500600  1
  O  O6  1  0.27981100  0.60963600  0.31192000  1
  O  O7  1  0.27413600  0.60322000  0.64693900  1
  O  O8  1  0.29082600  0.39249200  0.81231700  1
  O  O9  1  0.27595200  0.60908900  0.97845900  1
  O  O10  1  0.72028600  0.38250300  0.02886400  1
  O  O11  1  0.72525000  0.61197600  0.19487500  1
  O  O12  1  0.72257300  0.38032400  0.36262100  1
  O  O13  1  0.71692900  0.61621500  0.52818800  1
  F  F0  1  0.25539800  0.38126800  0.15365200  1
  F  F1  1  0.23445500  0.39013100  0.47557100  1
  F  F2  1  0.74172600  0.62887600  0.85922900  1
  F  F3  1  0.75908200  0.38510500  0.70102600  1
  F  F4  1  0.74668400  0.12663600  0.19069000  1
  F  F5  1  0.74706600  0.12334000  0.52189000  1
  F  F6  1  0.77181100  0.87673900  0.34901000  1
  F  F7  1  0.75957300  0.88140700  0.01683100  1
  F  F8  1  0.77135700  0.12608200  0.85872000  1
  F  F9  1  0.76022600  0.87548300  0.69243600  1
loop_
_geom_bond_atom_site_label_1
_geom_bond_atom_site_label_2
_geom_bond_distance
_geom_bond_site_symmetry_2
Mn0 O0 1.945565 1_555
Mn0 O12 1.955379 1_455
Mn0 O4 1.978224 1_545
Mn1 O3 1.907513 1_555
Mn1 O11 2.014300 1_455
Mn1 O6 2.027900 1_555
Mn1 O0 2.060230 1_565
Mn2 O10 1.948426 1_555
Mn2 O2 1.966508 1_654
Mn2 O3 2.010253 1_645
Mn3 O5 1.928337 1_545
Mn3 O1 1.931338 1_555
Mn3 O8 2.006026 1_555
Mn4 O4 1.949798 1_555
Mn4 O13 2.003847 1_455
Mn4 O1 2.051820 1_565
Mn4 O7 2.059929 1_555
Mn5 O2 1.939138 1_565
Mn5 O5 1.946326 1_555
Mn5 O9 1.954069 1_555
Mn6 O7 1.939270 1_555
Mn6 O1 1.996983 1_555
Mn6 O13 2.014734 1_555
Mn7 O9 1.915942 1_555
Mn7 O10 1.932064 1_556
Mn7 O2 1.939538 1_555
Mn7 O8 1.964870 1_555
Mn8 O6 1.877888 1_555
Mn8 O12 1.882851 1_555
Mn8 O0 1.991759 1_555
Mn8 O11 2.001179 1_555
Mn9 O11 1.964874 1_555
Mn9 O9 1.976170 1_554
Mn9 O3 1.985219 1_555
Mn9 O10 2.004992 1_555
Mn10 O6 1.957210 1_555
Mn10 O13 1.958048 1_555
Mn10 O4 1.985970 1_555
Mn10 O12 2.045784 1_555
Mn11 O7 1.888109 1_555
Mn11 O8 1.913143 1_555
Mn11 O5 1.918752 1_555
F0 Mn8 1.988187 1_555
F0 Mn2 2.088995 1_455
F0 Mn9 2.146588 1_555
F1 Mn0 2.025483 1_555
F1 Mn6 2.070376 1_555
F1 Mn10 2.111036 1_555
F2 Mn11 2.046948 1_555
F2 Mn5 2.069401 1_655
F2 Mn7 2.196884 1_555
F3 Mn3 2.002753 1_655
F3 Mn11 2.097008 1_555
F3 Mn6 2.170455 1_555
F4 Mn8 2.043459 1_555
F4 Mn2 2.064486 1_555
F4 Mn1 2.215632 1_645
F5 Mn6 2.011489 1_555
F5 Mn0 2.123399 1_655
F5 Mn4 2.198527 1_645
F6 Mn1 2.009249 1_655
F6 Mn10 2.085634 1_555
F6 Mn0 2.092488 1_665
F7 Mn5 2.007866 1_654
F7 Mn9 2.079252 1_555
F7 Mn2 2.143973 1_565
F8 Mn7 2.078543 1_555
F8 Mn3 2.119239 1_655
F8 Mn5 2.186460 1_645
F9 Mn11 2.052810 1_555
F9 Mn4 2.111788 1_655
F9 Mn3 2.254058 1_665
