# generated using pymatgen
data_Li2CoCuO4
_symmetry_space_group_name_H-M   'P 1'
_cell_length_a   5.78658054
_cell_length_b   5.78658054
_cell_length_c   5.78658054
_cell_angle_alpha   120.73153485
_cell_angle_beta   119.66784315
_cell_angle_gamma   89.65695843
_symmetry_Int_Tables_number   1
_chemical_formula_structural   Li2CoCuO4
_chemical_formula_sum   'Li4 Co2 Cu2 O8'
_cell_volume   136.57859281
_cell_formula_units_Z   2
loop_
 _symmetry_equiv_pos_site_id
 _symmetry_equiv_pos_as_xyz
  1  'x, y, z'
loop_
 _atom_site_type_symbol
 _atom_site_label
 _atom_site_symmetry_multiplicity
 _atom_site_fract_x
 _atom_site_fract_y
 _atom_site_fract_z
 _atom_site_occupancy
  Li  Li0  1  0.00000000  0.00000000  0.50000000  1
  Li  Li1  1  0.00000000  0.50000000  0.50000000  1
  Li  Li2  1  0.00000000  0.50000000  0.00000000  1
  Li  Li3  1  0.50000000  0.50000000  0.00000000  1
  Co  Co0  1  0.50000000  0.00000000  0.00000000  1
  Co  Co1  1  0.50000000  0.50000000  0.50000000  1
  Cu  Cu0  1  0.50000000  0.00000000  0.50000000  1
  Cu  Cu1  1  0.00000000  0.00000000  0.00000000  1
  O  O0  1  0.26935800  0.24607500  0.02328200  1
  O  O1  1  0.26437100  0.25549400  0.49112400  1
  O  O2  1  0.72279300  0.24607500  0.47671800  1
  O  O3  1  0.26437100  0.77324700  0.00887600  1
  O  O4  1  0.73562900  0.22675300  0.99112400  1
  O  O5  1  0.27720700  0.75392500  0.52328200  1
  O  O6  1  0.73562900  0.74450600  0.50887600  1
  O  O7  1  0.73064200  0.75392500  0.97671800  1
loop_
_geom_bond_atom_site_label_1
_geom_bond_atom_site_label_2
_geom_bond_distance
_geom_bond_site_symmetry_2
Li0 O2 2.138595 1_455
Li0 O5 2.138595 1_545
Li0 O0 2.138595 1_556
Li0 O7 2.138595 1_444
Li0 O1 2.170527 1_555
Li0 O6 2.170527 1_445
Li1 O4 2.079021 1_454
Li1 O3 2.079021 1_556
Li1 O1 2.079025 1_555
Li1 O6 2.079025 1_455
Li1 O5 2.088590 1_555
Li1 O2 2.088590 1_455
Li2 O2 2.138595 1_454
Li2 O5 2.138595 1_555
Li2 O7 2.138599 1_454
Li2 O0 2.138599 1_555
Li2 O3 2.170531 1_555
Li2 O4 2.170531 1_454
Li3 O6 2.079021 1_555
Li3 O1 2.079021 1_554
Li3 O3 2.079021 1_555
Li3 O4 2.079021 1_554
Li3 O7 2.088586 1_554
Li3 O0 2.088586 1_555
Co0 O4 1.934691 1_554
Co0 O3 1.934691 1_545
Co0 O0 1.945802 1_555
Co0 O7 1.945802 1_544
Co0 O2 1.945806 1_555
Co0 O5 1.945806 1_544
Co1 O6 1.934695 1_555
Co1 O1 1.934695 1_555
Co1 O5 1.945806 1_555
Co1 O2 1.945806 1_555
Co1 O0 1.945806 1_555
Co1 O7 1.945806 1_555
Cu0 O6 2.007897 1_545
Cu0 O1 2.007897 1_555
Cu0 O3 2.007901 1_545
Cu0 O4 2.007901 1_555
Cu0 O5 2.024298 1_545
Cu0 O2 2.024298 1_555
Cu1 O6 2.007901 1_444
Cu1 O1 2.007901 1_555
Cu1 O3 2.007901 1_545
Cu1 O4 2.007901 1_454
Cu1 O7 2.024302 1_444
Cu1 O0 2.024302 1_555
