# generated using pymatgen
data_K2Pd(CO3)4
_symmetry_space_group_name_H-M   'P 1'
_cell_length_a   13.39666800
_cell_length_b   4.65134400
_cell_length_c   10.63707359
_cell_angle_alpha   75.66206830
_cell_angle_beta   90.00000000
_cell_angle_gamma   90.00000000
_symmetry_Int_Tables_number   1
_chemical_formula_structural   K2Pd(CO3)4
_chemical_formula_sum   'K4 Pd2 C8 O24'
_cell_volume   642.17716355
_cell_formula_units_Z   2
loop_
 _symmetry_equiv_pos_site_id
 _symmetry_equiv_pos_as_xyz
  1  'x, y, z'
loop_
 _atom_site_type_symbol
 _atom_site_label
 _atom_site_symmetry_multiplicity
 _atom_site_fract_x
 _atom_site_fract_y
 _atom_site_fract_z
 _atom_site_occupancy
  K  K0  1  0.64814800  0.73886600  0.99495400  1
  K  K1  1  0.85185200  0.73886600  0.49495400  1
  K  K2  1  0.35185200  0.26113400  0.00504600  1
  K  K3  1  0.14814800  0.26113400  0.50504600  1
  Pd  Pd0  1  0.00000000  0.00000000  0.00000000  1
  Pd  Pd1  1  0.50000000  0.00000000  0.50000000  1
  C  C0  1  0.88458900  0.84697500  0.80753600  1
  C  C1  1  0.61541100  0.84697500  0.30753600  1
  C  C2  1  0.11541100  0.15302500  0.19246400  1
  C  C3  1  0.38458900  0.15302500  0.69246400  1
  C  C4  1  0.96144400  0.07839900  0.73504500  1
  C  C5  1  0.53855600  0.07839900  0.23504500  1
  C  C6  1  0.03855600  0.92160100  0.26495500  1
  C  C7  1  0.46144400  0.92160100  0.76495500  1
  O  O0  1  0.88251200  0.80640000  0.93299900  1
  O  O1  1  0.61748800  0.80640000  0.43299900  1
  O  O2  1  0.11748800  0.19360000  0.06700100  1
  O  O3  1  0.38251200  0.19360000  0.56700100  1
  O  O4  1  0.82803400  0.71953300  0.74669300  1
  O  O5  1  0.67196600  0.71953300  0.24669300  1
  O  O6  1  0.17196600  0.28046700  0.25330700  1
  O  O7  1  0.32803400  0.28046700  0.75330700  1
  O  O8  1  0.96051400  0.15945300  0.61397400  1
  O  O9  1  0.53948600  0.15945300  0.11397400  1
  O  O10  1  0.03948600  0.84054700  0.38602600  1
  O  O11  1  0.46051400  0.84054700  0.88602600  1
  O  O12  1  0.02323000  0.17885700  0.80733500  1
  O  O13  1  0.47677000  0.17885700  0.30733500  1
  O  O14  1  0.97677000  0.82114300  0.19266500  1
  O  O15  1  0.52323000  0.82114300  0.69266500  1
  O  O16  1  0.67280600  0.27330100  0.75163700  1
  O  O17  1  0.82719400  0.27330100  0.25163700  1
  O  O18  1  0.32719400  0.72669900  0.24836300  1
  O  O19  1  0.17280600  0.72669900  0.74836300  1
  O  O20  1  0.69763100  0.27933000  0.63937000  1
  O  O21  1  0.80236900  0.27933000  0.13937000  1
  O  O22  1  0.30236900  0.72067000  0.36063000  1
  O  O23  1  0.19763100  0.72067000  0.86063000  1
loop_
_geom_bond_atom_site_label_1
_geom_bond_atom_site_label_2
_geom_bond_distance
_geom_bond_site_symmetry_2
K0 O5 2.676018 1_556
K0 O11 2.759228 1_555
K0 O9 2.962375 1_566
K0 O9 3.048819 1_556
K0 O21 3.093677 1_556
K0 O16 3.130601 1_565
K0 O0 3.207514 1_555
K1 O4 2.676018 1_555
K1 O10 2.759228 1_655
K1 O8 2.962375 1_565
K1 O8 3.048819 1_555
K1 O20 3.093677 1_555
K1 O17 3.130601 1_565
K1 O1 3.207514 1_555
K2 O7 2.676018 1_554
K2 O9 2.759228 1_555
K2 O11 2.962375 1_544
K2 O11 3.048819 1_554
K2 O23 3.093677 1_554
K2 O18 3.130601 1_545
K2 O2 3.207514 1_555
K3 O6 2.676018 1_555
K3 O8 2.759228 1_455
K3 O10 2.962375 1_545
K3 O10 3.048819 1_555
K3 O22 3.093677 1_555
K3 O19 3.130601 1_545
K3 O3 3.207514 1_555
C0 O4 1.238661 1_555
C0 O0 1.301036 1_555
C1 O5 1.238661 1_555
C1 O1 1.301036 1_555
C2 O6 1.238661 1_555
C2 O2 1.301036 1_555
C3 O7 1.238661 1_555
C3 O3 1.301036 1_555
C4 O8 1.249141 1_555
C4 O12 1.293335 1_655
C5 O9 1.249141 1_555
C5 O13 1.293335 1_555
C6 O10 1.249141 1_555
C6 O14 1.293335 1_455
C7 O11 1.249141 1_555
C7 O15 1.293335 1_555
O0 Pd0 2.028302 1_666
O1 Pd1 2.028302 1_565
O2 Pd0 2.028302 1_555
O3 Pd1 2.028302 1_555
O12 Pd0 2.035812 1_556
O13 Pd1 2.035812 1_555
O14 Pd0 2.035812 1_665
O15 Pd1 2.035812 1_565
O16 O20 1.233248 1_555
O17 O21 1.233248 1_555
O18 O22 1.233248 1_555
O19 O23 1.233248 1_555
