# generated using pymatgen
data_Li2BiPCO7
_symmetry_space_group_name_H-M   'P 1'
_cell_length_a   7.11007900
_cell_length_b   5.08395800
_cell_length_c   8.99035786
_cell_angle_alpha   83.69334281
_cell_angle_beta   90.00000000
_cell_angle_gamma   90.00000000
_symmetry_Int_Tables_number   1
_chemical_formula_structural   Li2BiPCO7
_chemical_formula_sum   'Li4 Bi2 P2 C2 O14'
_cell_volume   323.01084979
_cell_formula_units_Z   2
loop_
 _symmetry_equiv_pos_site_id
 _symmetry_equiv_pos_as_xyz
  1  'x, y, z'
loop_
 _atom_site_type_symbol
 _atom_site_label
 _atom_site_symmetry_multiplicity
 _atom_site_fract_x
 _atom_site_fract_y
 _atom_site_fract_z
 _atom_site_occupancy
  Li  Li0  1  0.25815700  0.76400600  0.09108800  1
  Li  Li1  1  0.07216100  0.24372900  0.27075300  1
  Li  Li2  1  0.57216100  0.75627100  0.72924800  1
  Li  Li3  1  0.75815700  0.23599400  0.90891200  1
  Bi  Bi0  1  0.73668300  0.78798200  0.33026400  1
  Bi  Bi1  1  0.23668300  0.21201800  0.66973600  1
  P  P0  1  0.24373900  0.71622100  0.40322800  1
  P  P1  1  0.74373900  0.28377900  0.59677200  1
  C  C0  1  0.74905000  0.68646600  0.02980000  1
  C  C1  1  0.24905000  0.31353400  0.97020000  1
  O  O0  1  0.74450800  0.93369000  0.05934400  1
  O  O1  1  0.21377100  0.38006800  0.10038100  1
  O  O2  1  0.78735300  0.50424400  0.14064100  1
  O  O3  1  0.07240300  0.85950400  0.32102900  1
  O  O4  1  0.41174000  0.78365500  0.29412600  1
  O  O5  1  0.77663300  0.20557700  0.43673400  1
  O  O6  1  0.20578900  0.41172400  0.42161300  1
  O  O7  1  0.70578900  0.58827600  0.57838700  1
  O  O8  1  0.27663300  0.79442300  0.56326600  1
  O  O9  1  0.91174000  0.21634500  0.70587400  1
  O  O10  1  0.57240300  0.14049600  0.67897100  1
  O  O11  1  0.28735300  0.49575600  0.85935900  1
  O  O12  1  0.71377100  0.61993200  0.89961900  1
  O  O13  1  0.24450800  0.06631000  0.94065600  1
loop_
_geom_bond_atom_site_label_1
_geom_bond_atom_site_label_2
_geom_bond_distance
_geom_bond_site_symmetry_2
Li0 O13 1.934919 1_564
Li0 O1 1.969964 1_555
Li0 O4 2.138809 1_555
Li0 O3 2.544419 1_555
Li1 O1 1.899231 1_555
Li1 O6 1.930326 1_555
Li1 O3 1.956025 1_545
Li2 O12 1.899224 1_555
Li2 O7 1.930332 1_555
Li2 O10 1.956027 1_565
Li3 O0 1.934919 1_546
Li3 O12 1.969964 1_555
Li3 O9 2.138809 1_555
Li3 O10 2.544419 1_555
Bi0 O4 2.333543 1_555
Bi0 O7 2.357452 1_555
Bi0 O2 2.378483 1_555
Bi0 O3 2.414586 1_655
Bi0 O5 2.439399 1_565
Bi0 O0 2.467371 1_555
Bi1 O9 2.333543 1_455
Bi1 O6 2.357452 1_555
Bi1 O11 2.378483 1_555
Bi1 O10 2.414586 1_555
Bi1 O8 2.439399 1_545
Bi1 O13 2.467371 1_555
C0 O12 1.278314 1_554
C0 O2 1.312477 1_555
C0 O0 1.313269 1_555
C1 O1 1.278314 1_556
C1 O11 1.312477 1_555
C1 O13 1.313269 1_555
O3 P0 1.562857 1_555
O4 P0 1.559674 1_555
O5 P1 1.551961 1_555
O6 P0 1.562168 1_555
O7 P1 1.562168 1_555
O8 P0 1.551961 1_555
O9 P1 1.559674 1_555
O10 P1 1.562857 1_555
