# generated using pymatgen
data_Li4V3CoO8
_symmetry_space_group_name_H-M   'P 1'
_cell_length_a   5.93702809
_cell_length_b   5.93702809
_cell_length_c   5.93702843
_cell_angle_alpha   59.39989959
_cell_angle_beta   59.39989959
_cell_angle_gamma   59.39991042
_symmetry_Int_Tables_number   1
_chemical_formula_structural   Li4V3CoO8
_chemical_formula_sum   'Li4 V3 Co1 O8'
_cell_volume   145.95558368
_cell_formula_units_Z   1
loop_
 _symmetry_equiv_pos_site_id
 _symmetry_equiv_pos_as_xyz
  1  'x, y, z'
loop_
 _atom_site_type_symbol
 _atom_site_label
 _atom_site_symmetry_multiplicity
 _atom_site_fract_x
 _atom_site_fract_y
 _atom_site_fract_z
 _atom_site_occupancy
  Li  Li0  1  0.50000000  0.50000000  0.50000000  1
  Li  Li1  1  0.00000000  0.00000000  0.50000000  1
  Li  Li2  1  0.50000000  0.00000000  0.00000000  1
  Li  Li3  1  0.00000000  0.50000000  0.00000000  1
  V  V0  1  0.50000000  0.50000000  0.00000000  1
  V  V1  1  0.00000000  0.50000000  0.50000000  1
  V  V2  1  0.50000000  0.00000000  0.50000000  1
  Co  Co0  1  0.00000000  0.00000000  0.00000000  1
  O  O0  1  0.25672100  0.25672100  0.25672100  1
  O  O1  1  0.76215700  0.76215700  0.24852200  1
  O  O2  1  0.24852200  0.76215700  0.76215700  1
  O  O3  1  0.74327900  0.74327900  0.74327900  1
  O  O4  1  0.76215700  0.24852200  0.76215700  1
  O  O5  1  0.23784300  0.23784300  0.75147800  1
  O  O6  1  0.75147800  0.23784300  0.23784300  1
  O  O7  1  0.23784300  0.75147800  0.23784300  1
loop_
_geom_bond_atom_site_label_1
_geom_bond_atom_site_label_2
_geom_bond_distance
_geom_bond_site_symmetry_2
Li0 O1 2.192885 1_555
Li0 O5 2.192885 1_555
Li0 O6 2.192886 1_555
Li0 O7 2.192886 1_555
Li0 O4 2.192886 1_555
Li0 O2 2.192886 1_555
Li1 O7 2.138408 1_545
Li1 O2 2.138408 1_545
Li1 O4 2.138408 1_455
Li1 O6 2.138408 1_455
Li1 O3 2.148227 1_445
Li1 O0 2.148227 1_555
Li2 O4 2.138408 1_554
Li2 O7 2.138408 1_545
Li2 O5 2.138408 1_554
Li2 O1 2.138408 1_545
Li2 O3 2.148227 1_544
Li2 O0 2.148227 1_555
Li3 O2 2.138408 1_554
Li3 O6 2.138408 1_455
Li3 O1 2.138408 1_455
Li3 O5 2.138408 1_554
Li3 O3 2.148227 1_454
Li3 O0 2.148227 1_555
Co0 O5 1.988130 1_554
Co0 O1 1.988130 1_445
Co0 O4 1.988130 1_454
Co0 O7 1.988130 1_545
Co0 O6 1.988130 1_455
Co0 O2 1.988130 1_544
O0 V0 2.033909 1_555
O0 V1 2.033910 1_555
O0 V2 2.033910 1_555
O1 V1 2.046612 1_655
O1 V2 2.046612 1_565
O2 V2 2.046612 1_565
O2 V0 2.046612 1_556
O3 V0 2.033909 1_556
O3 V1 2.033910 1_655
O3 V2 2.033910 1_565
O4 V1 2.046612 1_655
O4 V0 2.046612 1_556
O5 V2 2.046612 1_555
O5 V1 2.046612 1_555
O6 V2 2.046612 1_555
O6 V0 2.046612 1_555
O7 V1 2.046612 1_555
O7 V0 2.046612 1_555
