# generated using pymatgen
data_LiFeOF2
_symmetry_space_group_name_H-M   'P 1'
_cell_length_a   5.14642996
_cell_length_b   5.53072536
_cell_length_c   9.24271030
_cell_angle_alpha   85.87173538
_cell_angle_beta   72.06445186
_cell_angle_gamma   117.19117244
_symmetry_Int_Tables_number   1
_chemical_formula_structural   LiFeOF2
_chemical_formula_sum   'Li4 Fe4 O4 F8'
_cell_volume   215.48664630
_cell_formula_units_Z   4
loop_
 _symmetry_equiv_pos_site_id
 _symmetry_equiv_pos_as_xyz
  1  'x, y, z'
loop_
 _atom_site_type_symbol
 _atom_site_label
 _atom_site_symmetry_multiplicity
 _atom_site_fract_x
 _atom_site_fract_y
 _atom_site_fract_z
 _atom_site_occupancy
  Li  Li0  1  0.35140900  0.41343600  0.67399800  1
  Li  Li1  1  0.64921800  0.61078900  0.32548200  1
  Li  Li2  1  0.66871700  0.13866200  0.79034100  1
  Li  Li3  1  0.88011700  0.12731100  0.42896100  1
  Fe  Fe0  1  0.15112500  0.87436200  0.58349300  1
  Fe  Fe1  1  0.13389300  0.32993200  0.09630600  1
  Fe  Fe2  1  0.37549300  0.89443900  0.16365700  1
  Fe  Fe3  1  0.83889800  0.60096700  0.92927800  1
  O  O0  1  0.04195900  0.55176500  0.72604700  1
  O  O1  1  0.06724100  0.01006900  0.21977400  1
  O  O2  1  0.53386800  0.63202400  0.10631200  1
  O  O3  1  0.76472400  0.24137500  0.04325800  1
  F  F0  1  0.41965700  0.85887100  0.37643000  1
  F  F1  1  0.25043600  0.26290200  0.48140500  1
  F  F2  1  0.24474600  0.80292900  0.96370400  1
  F  F3  1  0.76745200  0.73120100  0.53649800  1
  F  F4  1  0.42485000  0.36835100  0.88076400  1
  F  F5  1  0.55170600  0.11722700  0.61277600  1
  F  F6  1  0.93314000  0.96459000  0.78228200  1
  F  F7  1  0.95135000  0.46879400  0.27923400  1
loop_
_geom_bond_atom_site_label_1
_geom_bond_atom_site_label_2
_geom_bond_distance
_geom_bond_site_symmetry_2
Li0 O0 2.011880 1_555
Li1 O1 2.124233 1_665
Li1 O2 2.289077 1_555
Li2 O0 2.086511 1_655
Li3 O1 2.165771 1_655
Fe0 O0 1.877375 1_555
Fe1 O1 1.860974 1_555
Fe1 O3 1.961576 1_455
Fe1 O2 2.008380 1_555
Fe2 O1 1.913857 1_565
Fe2 O3 1.933815 1_565
Fe2 O2 1.994358 1_555
Fe3 O0 1.954240 1_655
Fe3 O2 1.968782 1_556
Fe3 O3 1.991911 1_556
F0 Fe0 2.020592 1_555
F0 Fe2 2.053856 1_555
F0 Li1 2.175300 1_555
F0 Li3 2.377516 1_565
F1 Li3 1.935097 1_455
F1 Li1 2.039898 1_555
F1 Fe0 2.043681 1_545
F1 Li0 2.125931 1_555
F2 Fe3 2.009911 1_455
F2 Li2 2.119383 1_565
F2 Fe2 2.171118 1_556
F2 Fe1 2.532762 1_556
F3 Li0 1.962579 1_555
F3 Fe0 1.965537 1_655
F3 Li3 2.072250 1_565
F3 Li1 2.272718 1_555
F4 Fe1 2.016719 1_556
F4 Li0 2.078374 1_555
F4 Fe3 2.136098 1_555
F4 Li2 2.202578 1_555
F5 Li2 1.908303 1_555
F5 Li3 1.969217 1_555
F5 Fe0 1.998188 1_545
F5 Li0 2.320395 1_555
F6 Li2 1.982310 1_565
F6 Fe0 2.063389 1_655
F6 Fe3 2.105937 1_555
F6 Li0 2.286820 1_665
F7 Li1 1.993031 1_555
F7 Fe1 2.049175 1_655
F7 Li3 2.072432 1_555
F7 Fe2 2.225588 1_655
