# generated using pymatgen
data_K5NaV2(MoO5)6
_symmetry_space_group_name_H-M   'P 1'
_cell_length_a   9.22689736
_cell_length_b   10.10776981
_cell_length_c   10.10776981
_cell_angle_alpha   78.74565471
_cell_angle_beta   59.15230611
_cell_angle_gamma   59.15230611
_symmetry_Int_Tables_number   1
_chemical_formula_structural   K5NaV2(MoO5)6
_chemical_formula_sum   'K5 Na1 V2 Mo6 O30'
_cell_volume   691.89152854
_cell_formula_units_Z   1
loop_
 _symmetry_equiv_pos_site_id
 _symmetry_equiv_pos_as_xyz
  1  'x, y, z'
loop_
 _atom_site_type_symbol
 _atom_site_label
 _atom_site_symmetry_multiplicity
 _atom_site_fract_x
 _atom_site_fract_y
 _atom_site_fract_z
 _atom_site_occupancy
  K  K0  1  0.00000000  0.50000000  0.50000000  1
  K  K1  1  0.65572800  0.99741500  0.60565600  1
  K  K2  1  0.65572800  0.60565600  0.99741500  1
  K  K3  1  0.34427200  0.00258500  0.39434400  1
  K  K4  1  0.34427200  0.39434400  0.00258500  1
  Na  Na0  1  0.50000000  0.00000000  0.00000000  1
  V  V0  1  0.74911000  0.11959100  0.11959100  1
  V  V1  1  0.25089000  0.88040900  0.88040900  1
  Mo  Mo0  1  0.09141000  0.89234000  0.23922000  1
  Mo  Mo1  1  0.09141000  0.23922000  0.89234000  1
  Mo  Mo2  1  0.90859000  0.10766000  0.76078000  1
  Mo  Mo3  1  0.90859000  0.76078000  0.10766000  1
  Mo  Mo4  1  0.90018400  0.27569800  0.27569800  1
  Mo  Mo5  1  0.09981600  0.72430200  0.72430200  1
  O  O0  1  0.03868900  0.77229600  0.38478800  1
  O  O1  1  0.03868900  0.38478800  0.77229600  1
  O  O2  1  0.96131100  0.22770400  0.61521200  1
  O  O3  1  0.96131100  0.61521200  0.22770400  1
  O  O4  1  0.31286500  0.87031600  0.19712800  1
  O  O5  1  0.31286500  0.19712800  0.87031600  1
  O  O6  1  0.68713500  0.12968400  0.80287200  1
  O  O7  1  0.68713500  0.80287200  0.12968400  1
  O  O8  1  0.91345700  0.08508700  0.37143700  1
  O  O9  1  0.91345700  0.37143700  0.08508700  1
  O  O10  1  0.08654300  0.91491300  0.62856300  1
  O  O11  1  0.08654300  0.62856300  0.91491300  1
  O  O12  1  0.81209300  0.94341900  0.23675900  1
  O  O13  1  0.81209300  0.23675900  0.94341900  1
  O  O14  1  0.18790700  0.05658100  0.76324100  1
  O  O15  1  0.18790700  0.76324100  0.05658100  1
  O  O16  1  0.06054100  0.05916800  0.05916800  1
  O  O17  1  0.93945900  0.94083200  0.94083200  1
  O  O18  1  0.73924700  0.42263900  0.42263900  1
  O  O19  1  0.26075300  0.57736100  0.57736100  1
  O  O20  1  0.13280100  0.23191700  0.23191700  1
  O  O21  1  0.86719900  0.76808300  0.76808300  1
  O  O22  1  0.67713700  0.25791500  0.25791500  1
  O  O23  1  0.32286300  0.74208500  0.74208500  1
  O  O24  1  0.54433100  0.14444300  0.14444300  1
  O  O25  1  0.45566900  0.85555700  0.85555700  1
  O  O26  1  0.42971800  0.23542500  0.46998800  1
  O  O27  1  0.42971800  0.46998800  0.23542500  1
  O  O28  1  0.57028200  0.76457500  0.53001200  1
  O  O29  1  0.57028200  0.53001200  0.76457500  1
loop_
_geom_bond_atom_site_label_1
_geom_bond_atom_site_label_2
_geom_bond_distance
_geom_bond_site_symmetry_2
K0 O3 2.896370 1_455
K0 O1 2.896370 1_555
K0 O2 2.896370 1_455
K0 O0 2.896370 1_555
K0 O26 3.342741 1_555
K0 O27 3.342741 1_555
K0 O29 3.342741 1_455
K0 O28 3.342741 1_455
K1 O8 2.759317 1_565
K1 O6 2.806258 1_565
K1 O5 2.849433 1_565
K1 O0 2.880105 1_655
K1 O25 2.891842 1_555
K1 O26 2.918376 1_565
K1 O21 3.006210 1_555
K1 O28 3.157296 1_555
K1 O12 3.279135 1_555
K2 O9 2.759317 1_556
K2 O7 2.806258 1_556
K2 O4 2.849433 1_556
K2 O1 2.880105 1_655
K2 O25 2.891842 1_555
K2 O27 2.918376 1_556
K2 O21 3.006210 1_555
K2 O29 3.157296 1_555
K2 O13 3.279135 1_555
K3 O10 2.759317 1_545
K3 O4 2.806258 1_545
K3 O7 2.849433 1_545
K3 O2 2.880105 1_455
K3 O24 2.891842 1_555
K3 O28 2.918376 1_545
K3 O20 3.006210 1_555
K3 O26 3.157296 1_555
K3 O14 3.279135 1_555
K4 O11 2.759317 1_554
K4 O5 2.806258 1_554
K4 O6 2.849433 1_554
K4 O3 2.880105 1_455
K4 O24 2.891842 1_555
K4 O29 2.918376 1_554
K4 O20 3.006210 1_555
K4 O27 3.157296 1_555
K4 O15 3.279135 1_555
Na0 O5 2.538346 1_554
Na0 O7 2.538346 1_545
Na0 O6 2.538346 1_554
Na0 O4 2.538346 1_545
Na0 O25 2.547033 1_544
Na0 O24 2.547033 1_555
Na0 O20 2.885225 1_555
Na0 O21 2.885225 1_544
Mo0 O0 1.745931 1_555
Mo0 O4 1.756352 1_555
Mo0 O8 1.939869 1_465
Mo0 O15 1.991653 1_555
Mo0 O16 2.253418 1_565
Mo0 O12 2.367585 1_455
Mo1 O1 1.745931 1_555
Mo1 O5 1.756352 1_555
Mo1 O9 1.939869 1_456
Mo1 O14 1.991653 1_555
Mo1 O16 2.253418 1_556
Mo1 O13 2.367585 1_455
Mo2 O2 1.745931 1_555
Mo2 O6 1.756352 1_555
Mo2 O10 1.939869 1_645
Mo2 O13 1.991653 1_555
Mo2 O17 2.253418 1_545
Mo2 O14 2.367585 1_655
Mo3 O3 1.745931 1_555
Mo3 O7 1.756352 1_555
Mo3 O11 1.939869 1_654
Mo3 O12 1.991653 1_555
Mo3 O17 2.253418 1_554
Mo3 O15 2.367585 1_655
Mo4 O18 1.718853 1_555
Mo4 O20 1.768262 1_655
Mo4 O9 1.953270 1_555
Mo4 O8 1.953270 1_555
Mo4 O22 2.251988 1_555
Mo4 O16 2.645247 1_655
Mo5 O19 1.718853 1_555
Mo5 O21 1.768262 1_455
Mo5 O10 1.953270 1_555
Mo5 O11 1.953270 1_555
Mo5 O23 2.251988 1_555
Mo5 O17 2.645247 1_455
O12 V0 1.931999 1_565
O13 V0 1.931999 1_556
O14 V1 1.931999 1_545
O15 V1 1.931999 1_554
O16 V1 2.092762 1_544
O16 V0 2.355697 1_455
O17 V0 2.092762 1_566
O17 V1 2.355697 1_655
O22 V0 1.791452 1_555
O23 V1 1.791452 1_555
O24 V0 1.657546 1_555
O25 V1 1.657546 1_555
