# generated using pymatgen
data_Hf2N2O
_symmetry_space_group_name_H-M   'P 1'
_cell_length_a   8.65349583
_cell_length_b   8.67232991
_cell_length_c   8.67770966
_cell_angle_alpha   109.33686315
_cell_angle_beta   109.51104275
_cell_angle_gamma   109.39579688
_symmetry_Int_Tables_number   1
_chemical_formula_structural   Hf2N2O
_chemical_formula_sum   'Hf16 N16 O8'
_cell_volume   502.36275696
_cell_formula_units_Z   8
loop_
 _symmetry_equiv_pos_site_id
 _symmetry_equiv_pos_as_xyz
  1  'x, y, z'
loop_
 _atom_site_type_symbol
 _atom_site_label
 _atom_site_symmetry_multiplicity
 _atom_site_fract_x
 _atom_site_fract_y
 _atom_site_fract_z
 _atom_site_occupancy
  Hf  Hf0  1  0.48755912  0.49894732  0.49951041  1
  Hf  Hf1  1  0.78728195  0.53646834  0.25156718  1
  Hf  Hf2  1  0.03589457  0.75216252  0.78536467  1
  Hf  Hf3  1  0.52346232  0.75000850  0.28128182  1
  Hf  Hf4  1  0.71310499  0.96995350  0.76048334  1
  Hf  Hf5  1  0.99693625  0.49972134  0.98887827  1
  Hf  Hf6  1  0.49701544  0.99890714  0.00082751  1
  Hf  Hf7  1  0.01671989  0.00608204  0.50705108  1
  Hf  Hf8  1  0.75901908  0.21377942  0.46779637  1
  Hf  Hf9  1  0.24219244  0.28181802  0.02971769  1
  Hf  Hf10  1  0.25622701  0.79556506  0.53643339  1
  Hf  Hf11  1  0.74912994  0.71312621  0.96614441  1
  Hf  Hf12  1  0.28021602  0.02995838  0.24054145  1
  Hf  Hf13  1  0.96962447  0.24227193  0.21082147  1
  Hf  Hf14  1  0.46669992  0.25326049  0.71950003  1
  Hf  Hf15  1  0.21422593  0.45746900  0.74867751  1
  N  N0  1  0.23181017  0.26561861  0.27415366  1
  N  N1  1  0.45245751  0.72439753  0.48390964  1
  N  N2  1  0.49609642  0.96153418  0.23412449  1
  N  N3  1  0.98716869  0.75909501  0.53168364  1
  N  N4  1  0.26235556  0.03285014  0.98408668  1
  N  N5  1  0.96319354  0.22581534  0.94951855  1
  N  N6  1  0.00429231  0.23278065  0.46122550  1
  N  N7  1  0.23852112  0.22620420  0.77000515  1
  N  N8  1  0.03082393  0.77319847  0.04394775  1
  N  N9  1  0.73977943  0.96425799  0.01463227  1
  N  N10  1  0.51062460  0.04368804  0.77467704  1
  N  N11  1  0.27550526  0.54591718  0.03575666  1
  N  N12  1  0.23009817  0.98975861  0.45380142  1
  N  N13  1  0.95134082  0.46551547  0.72490713  1
  N  N14  1  0.72771685  0.45635114  0.97405670  1
  N  N15  1  0.46549712  0.51428176  0.73430941  1
  O  O0  1  0.72457958  0.27614823  0.23831570  1
  O  O1  1  0.77200002  0.73665554  0.72587436  1
  O  O2  1  0.54255151  0.48914239  0.26577249  1
  O  O3  1  0.75473476  0.76911092  0.22813031  1
  O  O4  1  0.77516307  0.01112268  0.54728571  1
  O  O5  1  0.55058972  0.27921230  0.51206597  1
  O  O6  1  0.04258129  0.52835963  0.27630907  1
  O  O7  1  0.27521320  0.72948377  0.76685409  1
loop_
_geom_bond_atom_site_label_1
_geom_bond_atom_site_label_2
_geom_bond_distance
_geom_bond_site_symmetry_2
Hf0 N15 2.074336 1_555
Hf0 N0 2.081067 1_555
Hf0 N1 2.115559 1_555
Hf0 O5 2.174600 1_555
Hf0 O1 2.210264 1_555
Hf0 O2 2.214754 1_555
Hf1 O2 2.073450 1_555
Hf1 N14 2.091071 1_554
Hf1 O0 2.092156 1_555
Hf1 N3 2.119804 1_555
Hf1 O6 2.174417 1_655
Hf1 O3 2.191369 1_555
Hf2 O1 2.112355 1_455
Hf2 N3 2.124123 1_455
Hf2 N4 2.129297 1_565
Hf2 N13 2.159192 1_455
Hf2 O7 2.196611 1_555
Hf2 N8 2.206881 1_556
Hf3 N11 2.050041 1_555
Hf3 N2 2.075949 1_555
Hf3 N1 2.099599 1_555
Hf3 O3 2.166202 1_555
Hf3 O4 2.259266 1_565
Hf3 O2 2.285805 1_555
Hf4 N5 2.080073 1_565
Hf4 N10 2.080939 1_565
Hf4 N9 2.158543 1_556
Hf4 O4 2.193707 1_565
Hf4 O1 2.197301 1_555
Hf4 N1 2.278497 1_555
Hf5 N13 2.087908 1_555
Hf5 N8 2.152472 1_656
Hf5 N11 2.175445 1_656
Hf5 N14 2.184327 1_555
Hf5 N5 2.186291 1_555
Hf5 O6 2.303356 1_656
Hf6 N4 2.111750 1_564
Hf6 O7 2.131258 1_554
Hf6 N10 2.155154 1_564
Hf6 N2 2.155742 1_555
Hf6 O0 2.183766 1_565
Hf6 N9 2.189253 1_555
Hf7 N7 2.071497 1_555
Hf7 N12 2.084042 1_545
Hf7 N6 2.159741 1_555
Hf7 N3 2.162167 1_445
Hf7 O4 2.243056 1_455
Hf7 O3 2.273208 1_445
Hf8 N6 2.095245 1_655
Hf8 N13 2.096329 1_555
Hf8 O4 2.117945 1_555
Hf8 O5 2.172777 1_555
Hf8 N2 2.179136 1_545
Hf8 O0 2.184228 1_555
Hf9 N5 2.103364 1_454
Hf9 N7 2.129552 1_554
Hf9 N4 2.139922 1_554
Hf9 N11 2.191682 1_555
Hf9 N0 2.200754 1_555
Hf9 O2 2.254996 1_555
Hf10 N12 2.084673 1_555
Hf10 N1 2.121066 1_555
Hf10 N10 2.149008 1_565
Hf10 O6 2.187698 1_555
Hf10 O7 2.226086 1_555
Hf10 N3 2.227297 1_455
Hf11 N9 2.111812 1_556
Hf11 N8 2.119805 1_656
Hf11 O3 2.141570 1_556
Hf11 N15 2.153655 1_555
Hf11 N14 2.198533 1_555
Hf11 O1 2.226783 1_555
Hf12 N8 2.087907 1_545
Hf12 N12 2.144140 1_545
Hf12 N2 2.151504 1_545
Hf12 N0 2.166281 1_555
Hf12 N4 2.187894 1_554
Hf12 O5 2.298683 1_555
Hf13 N0 2.068549 1_655
Hf13 N9 2.121838 1_545
Hf13 N6 2.125517 1_655
Hf13 O6 2.159489 1_655
Hf13 N5 2.204812 1_554
Hf13 O0 2.311931 1_555
Hf14 N7 2.117639 1_555
Hf14 N14 2.128801 1_555
Hf14 N10 2.142556 1_555
Hf14 O5 2.202379 1_555
Hf14 N15 2.228157 1_555
Hf14 N12 2.231583 1_545
Hf15 N15 2.120478 1_555
Hf15 N7 2.144944 1_555
Hf15 N11 2.158137 1_556
Hf15 N6 2.173102 1_555
Hf15 O7 2.177013 1_555
Hf15 N13 2.241428 1_455
