# generated using pymatgen
data_Na3SnPCO7
_symmetry_space_group_name_H-M   'P 1'
_cell_length_a   7.26567500
_cell_length_b   5.49610700
_cell_length_c   9.39423950
_cell_angle_alpha   83.62275559
_cell_angle_beta   90.00000000
_cell_angle_gamma   90.00000000
_symmetry_Int_Tables_number   1
_chemical_formula_structural   Na3SnPCO7
_chemical_formula_sum   'Na6 Sn2 P2 C2 O14'
_cell_volume   372.81816128
_cell_formula_units_Z   2
loop_
 _symmetry_equiv_pos_site_id
 _symmetry_equiv_pos_as_xyz
  1  'x, y, z'
loop_
 _atom_site_type_symbol
 _atom_site_label
 _atom_site_symmetry_multiplicity
 _atom_site_fract_x
 _atom_site_fract_y
 _atom_site_fract_z
 _atom_site_occupancy
  Na  Na0  1  0.25000000  0.77886200  0.09414300  1
  Na  Na1  1  0.02001600  0.24949200  0.27524500  1
  Na  Na2  1  0.47998400  0.24949200  0.27524500  1
  Na  Na3  1  0.97998400  0.75050800  0.72475500  1
  Na  Na4  1  0.52001600  0.75050800  0.72475500  1
  Na  Na5  1  0.75000000  0.22113800  0.90585700  1
  Sn  Sn0  1  0.75000000  0.74073400  0.34238200  1
  Sn  Sn1  1  0.25000000  0.25926600  0.65761800  1
  P  P0  1  0.25000000  0.71183400  0.40490700  1
  P  P1  1  0.75000000  0.28816600  0.59509300  1
  C  C0  1  0.75000000  0.68094400  0.03804200  1
  C  C1  1  0.25000000  0.31905600  0.96195800  1
  O  O0  1  0.75000000  0.90021200  0.07674100  1
  O  O1  1  0.25000000  0.35599900  0.09512300  1
  O  O2  1  0.75000000  0.49188200  0.13864300  1
  O  O3  1  0.07937800  0.82408100  0.31909400  1
  O  O4  1  0.42062200  0.82408100  0.31909400  1
  O  O5  1  0.25000000  0.42816000  0.40217000  1
  O  O6  1  0.75000000  0.23864800  0.43495600  1
  O  O7  1  0.25000000  0.76135200  0.56504400  1
  O  O8  1  0.75000000  0.57184000  0.59783000  1
  O  O9  1  0.57937800  0.17591900  0.68090600  1
  O  O10  1  0.92062200  0.17591900  0.68090600  1
  O  O11  1  0.25000000  0.50811800  0.86135700  1
  O  O12  1  0.75000000  0.64400100  0.90487700  1
  O  O13  1  0.25000000  0.09978800  0.92325800  1
loop_
_geom_bond_atom_site_label_1
_geom_bond_atom_site_label_2
_geom_bond_distance
_geom_bond_site_symmetry_2
Na0 O13 2.249270 1_564
Na0 O1 2.323096 1_555
Na0 O3 2.486173 1_555
Na0 O4 2.486173 1_555
Na0 O11 2.778391 1_554
Na1 O5 2.332022 1_555
Na1 O3 2.368224 1_545
Na1 O1 2.403759 1_555
Na1 O6 2.466501 1_455
Na1 O2 2.624998 1_455
Na2 O5 2.332022 1_555
Na2 O4 2.368224 1_545
Na2 O1 2.403759 1_555
Na2 O6 2.466501 1_555
Na2 O2 2.624998 1_555
Na3 O8 2.332022 1_555
Na3 O10 2.368224 1_565
Na3 O12 2.403759 1_555
Na3 O7 2.466501 1_655
Na3 O11 2.624998 1_655
Na4 O8 2.332022 1_555
Na4 O9 2.368224 1_565
Na4 O12 2.403759 1_555
Na4 O7 2.466501 1_555
Na4 O11 2.624998 1_555
Na5 O0 2.249264 1_546
Na5 O12 2.323096 1_555
Na5 O10 2.486173 1_555
Na5 O9 2.486173 1_555
Na5 O2 2.778391 1_556
C0 O12 1.289424 1_554
C0 O0 1.296846 1_555
C0 O2 1.324666 1_555
C1 O1 1.289424 1_556
C1 O13 1.296850 1_555
C1 O11 1.324666 1_555
O0 Sn0 2.551441 1_555
O2 Sn0 2.472949 1_555
O3 P0 1.567419 1_555
O3 Sn0 2.441848 1_455
O4 P0 1.567419 1_555
O4 Sn0 2.441848 1_555
O5 P0 1.562168 1_555
O5 Sn1 2.474987 1_555
O6 P1 1.558248 1_555
O7 P0 1.558248 1_555
O8 P1 1.562168 1_555
O8 Sn0 2.474987 1_555
O9 P1 1.567419 1_555
O9 Sn1 2.441848 1_555
O10 P1 1.567419 1_555
O10 Sn1 2.441848 1_655
O11 Sn1 2.472949 1_555
O13 Sn1 2.551432 1_555
