# generated using pymatgen
data_CeU5O12
_symmetry_space_group_name_H-M   'P 1'
_cell_length_a   6.63717326
_cell_length_b   6.63717326
_cell_length_c   6.72581555
_cell_angle_alpha   80.61835095
_cell_angle_beta   80.61835095
_cell_angle_gamma   119.70426007
_symmetry_Int_Tables_number   1
_chemical_formula_structural   CeU5O12
_chemical_formula_sum   'Ce1 U5 O12'
_cell_volume   243.41987177
_cell_formula_units_Z   1
loop_
 _symmetry_equiv_pos_site_id
 _symmetry_equiv_pos_as_xyz
  1  'x, y, z'
loop_
 _atom_site_type_symbol
 _atom_site_label
 _atom_site_symmetry_multiplicity
 _atom_site_fract_x
 _atom_site_fract_y
 _atom_site_fract_z
 _atom_site_occupancy
  Ce  Ce0  1  0.50000000  0.50000000  0.50000000  1
  U  U0  1  0.83295782  0.16704218  0.50000000  1
  U  U1  1  0.16704218  0.83295782  0.50000000  1
  U  U2  1  0.66747180  0.33252820  -0.00000000  1
  U  U3  1  0.00000000  0.00000000  -0.00000000  1
  U  U4  1  0.33252820  0.66747180  -0.00000000  1
  O  O0  1  0.10904925  0.10904925  0.63990412  1
  O  O1  1  0.70753267  0.04843061  0.88037236  1
  O  O2  1  0.95156939  0.29246733  0.11962764  1
  O  O3  1  0.37168695  0.37168695  0.88472294  1
  O  O4  1  0.04843061  0.70753267  0.88037236  1
  O  O5  1  0.53297346  0.19802000  0.37396917  1
  O  O6  1  0.89095075  0.89095075  0.36009588  1
  O  O7  1  0.46702654  0.80198000  0.62603083  1
  O  O8  1  0.62831305  0.62831305  0.11527706  1
  O  O9  1  0.29246733  0.95156939  0.11962764  1
  O  O10  1  0.80198000  0.46702654  0.62603083  1
  O  O11  1  0.19802000  0.53297346  0.37396917  1
loop_
_geom_bond_atom_site_label_1
_geom_bond_atom_site_label_2
_geom_bond_distance
_geom_bond_site_symmetry_2
Ce0 O5 2.389926 1_555
Ce0 O11 2.389926 1_555
Ce0 O10 2.389926 1_555
Ce0 O7 2.389926 1_555
Ce0 O8 2.447538 1_555
Ce0 O3 2.447538 1_555
Ce0 O0 2.467122 1_555
Ce0 O6 2.467122 1_555
O0 U3 2.291580 1_556
O0 U1 2.352574 1_545
O0 U0 2.352574 1_455
O1 U2 2.279325 1_556
O1 U3 2.358398 1_656
O1 U4 2.383792 1_546
O1 U0 2.420186 1_555
O2 U2 2.279325 1_555
O2 U3 2.358398 1_655
O2 U4 2.383792 1_655
O2 U0 2.420186 1_555
O3 U2 2.336441 1_556
O3 U4 2.336441 1_556
O3 U3 2.343995 1_556
O4 U4 2.279325 1_556
O4 U3 2.358398 1_566
O4 U2 2.383792 1_456
O4 U1 2.420186 1_555
O5 U1 2.305487 1_545
O5 U0 2.371538 1_555
O5 U2 2.380432 1_555
O6 U3 2.291580 1_665
O6 U0 2.352574 1_565
O6 U1 2.352574 1_655
O7 U0 2.305487 1_565
O7 U1 2.371538 1_555
O7 U4 2.380432 1_556
O8 U4 2.336441 1_555
O8 U2 2.336441 1_555
O8 U3 2.343995 1_665
O9 U4 2.279325 1_555
O9 U3 2.358398 1_565
O9 U2 2.383792 1_565
O9 U1 2.420186 1_555
O10 U1 2.305487 1_655
O10 U0 2.371538 1_555
O10 U2 2.380432 1_556
O11 U0 2.305487 1_455
O11 U1 2.371538 1_555
O11 U4 2.380432 1_555
