# generated using pymatgen
data_LiFe(SiO3)2
_symmetry_space_group_name_H-M   'P 1'
_cell_length_a   5.30970100
_cell_length_b   8.83854500
_cell_length_c   18.24426200
_cell_angle_alpha   90.00000000
_cell_angle_beta   90.00000000
_cell_angle_gamma   90.00000000
_symmetry_Int_Tables_number   1
_chemical_formula_structural   LiFe(SiO3)2
_chemical_formula_sum   'Li8 Fe8 Si16 O48'
_cell_volume   856.20378534
_cell_formula_units_Z   8
loop_
 _symmetry_equiv_pos_site_id
 _symmetry_equiv_pos_as_xyz
  1  'x, y, z'
loop_
 _atom_site_type_symbol
 _atom_site_label
 _atom_site_symmetry_multiplicity
 _atom_site_fract_x
 _atom_site_fract_y
 _atom_site_fract_z
 _atom_site_occupancy
  Li  Li0  1  0.61478900  0.99975600  0.12494800  1
  Li  Li1  1  0.11478900  0.50024400  0.12494800  1
  Li  Li2  1  0.11478900  0.00024400  0.37505200  1
  Li  Li3  1  0.61478900  0.49975600  0.37505200  1
  Li  Li4  1  0.38521100  0.50024400  0.62494800  1
  Li  Li5  1  0.88521100  0.99975600  0.62494800  1
  Li  Li6  1  0.38521100  0.00024400  0.87505200  1
  Li  Li7  1  0.88521100  0.49975600  0.87505200  1
  Fe  Fe0  1  0.61567000  0.64676600  0.12506900  1
  Fe  Fe1  1  0.11567000  0.85323400  0.12506900  1
  Fe  Fe2  1  0.11567000  0.35323400  0.37493100  1
  Fe  Fe3  1  0.61567000  0.14676600  0.37493100  1
  Fe  Fe4  1  0.38433000  0.85323400  0.62506900  1
  Fe  Fe5  1  0.88433000  0.64676600  0.62506900  1
  Fe  Fe6  1  0.38433000  0.35323400  0.87493100  1
  Fe  Fe7  1  0.88433000  0.14676600  0.87493100  1
  Si  Si0  1  0.71689600  0.33745800  0.02512100  1
  Si  Si1  1  0.21689600  0.16254200  0.02512100  1
  Si  Si2  1  0.44318700  0.33866800  0.22561500  1
  Si  Si3  1  0.94318700  0.16133200  0.22561500  1
  Si  Si4  1  0.44318700  0.83866800  0.27438500  1
  Si  Si5  1  0.94318700  0.66133200  0.27438500  1
  Si  Si6  1  0.71689600  0.83745800  0.47487900  1
  Si  Si7  1  0.21689600  0.66254200  0.47487900  1
  Si  Si8  1  0.78310400  0.33745800  0.52512100  1
  Si  Si9  1  0.28310400  0.16254200  0.52512100  1
  Si  Si10  1  0.05681300  0.33866800  0.72561500  1
  Si  Si11  1  0.55681300  0.16133200  0.72561500  1
  Si  Si12  1  0.05681300  0.83866800  0.77438500  1
  Si  Si13  1  0.55681300  0.66133200  0.77438500  1
  Si  Si14  1  0.78310400  0.83745800  0.97487900  1
  Si  Si15  1  0.28310400  0.66254200  0.97487900  1
  O  O0  1  0.43447200  0.28369100  0.05210500  1
  O  O1  1  0.93447200  0.21630900  0.05210500  1
  O  O2  1  0.78843700  0.83343600  0.06586600  1
  O  O3  1  0.28843700  0.66656400  0.06586600  1
  O  O4  1  0.78549100  0.49795900  0.06297800  1
  O  O5  1  0.28549100  0.00204100  0.06297800  1
  O  O6  1  0.44295800  0.83216000  0.18368300  1
  O  O7  1  0.94295800  0.66784000  0.18368300  1
  O  O8  1  0.94936300  0.99306300  0.19129600  1
  O  O9  1  0.44936300  0.50693700  0.19129600  1
  O  O10  1  0.17554500  0.26695100  0.19553500  1
  O  O11  1  0.67554500  0.23304900  0.19553500  1
  O  O12  1  0.17554500  0.76695100  0.30446500  1
  O  O13  1  0.67554500  0.73304900  0.30446500  1
  O  O14  1  0.94936300  0.49306300  0.30870400  1
  O  O15  1  0.44936300  0.00693700  0.30870400  1
  O  O16  1  0.44295800  0.33216000  0.31631700  1
  O  O17  1  0.94295800  0.16784000  0.31631700  1
  O  O18  1  0.78549100  0.99795900  0.43702200  1
  O  O19  1  0.28549100  0.50204100  0.43702200  1
  O  O20  1  0.78843700  0.33343600  0.43413400  1
  O  O21  1  0.28843700  0.16656400  0.43413400  1
  O  O22  1  0.43447200  0.78369100  0.44789500  1
  O  O23  1  0.93447200  0.71630900  0.44789500  1
  O  O24  1  0.06552800  0.28369100  0.55210500  1
  O  O25  1  0.56552800  0.21630900  0.55210500  1
  O  O26  1  0.71156300  0.83343600  0.56586600  1
  O  O27  1  0.21156300  0.66656400  0.56586600  1
  O  O28  1  0.71450900  0.49795900  0.56297800  1
  O  O29  1  0.21450900  0.00204100  0.56297800  1
  O  O30  1  0.05704200  0.83216000  0.68368300  1
  O  O31  1  0.55704200  0.66784000  0.68368300  1
  O  O32  1  0.55063700  0.99306300  0.69129600  1
  O  O33  1  0.05063700  0.50693700  0.69129600  1
  O  O34  1  0.32445500  0.26695100  0.69553500  1
  O  O35  1  0.82445500  0.23304900  0.69553500  1
  O  O36  1  0.32445500  0.76695100  0.80446500  1
  O  O37  1  0.82445500  0.73304900  0.80446500  1
  O  O38  1  0.55063700  0.49306300  0.80870400  1
  O  O39  1  0.05063700  0.00693700  0.80870400  1
  O  O40  1  0.05704200  0.33216000  0.81631700  1
  O  O41  1  0.55704200  0.16784000  0.81631700  1
  O  O42  1  0.71450900  0.99795900  0.93702200  1
  O  O43  1  0.21450900  0.50204100  0.93702200  1
  O  O44  1  0.71156300  0.33343600  0.93413400  1
  O  O45  1  0.21156300  0.16656400  0.93413400  1
  O  O46  1  0.06552800  0.78369100  0.94789500  1
  O  O47  1  0.56552800  0.71630900  0.94789500  1
loop_
_geom_bond_atom_site_label_1
_geom_bond_atom_site_label_2
_geom_bond_distance
_geom_bond_site_symmetry_2
Li0 O2 2.042788 1_555
Li0 O6 2.043272 1_555
Li0 O5 2.082263 1_565
Li0 O8 2.150499 1_555
Li0 O11 2.452395 1_565
Li1 O3 2.042788 1_555
Li1 O7 2.043272 1_455
Li1 O4 2.082263 1_455
Li1 O9 2.150499 1_555
Li1 O10 2.452395 1_555
Li2 O21 2.042788 1_555
Li2 O17 2.043272 1_455
Li2 O18 2.082263 1_445
Li2 O15 2.150499 1_555
Li2 O12 2.452395 1_545
Li3 O20 2.042788 1_555
Li3 O16 2.043272 1_555
Li3 O19 2.082263 1_555
Li3 O14 2.150499 1_555
Li3 O13 2.452395 1_555
Li4 O27 2.042788 1_555
Li4 O31 2.043272 1_555
Li4 O28 2.082263 1_555
Li4 O33 2.150499 1_555
Li4 O34 2.452395 1_555
Li5 O26 2.042788 1_555
Li5 O30 2.043272 1_655
Li5 O29 2.082263 1_665
Li5 O32 2.150499 1_555
Li5 O35 2.452395 1_565
Li6 O45 2.042788 1_555
Li6 O41 2.043272 1_555
Li6 O42 2.082263 1_545
Li6 O39 2.150499 1_555
Li6 O36 2.452395 1_545
Li7 O44 2.042788 1_555
Li7 O40 2.043272 1_655
Li7 O43 2.082263 1_655
Li7 O38 2.150499 1_555
Li7 O37 2.452395 1_555
Fe0 O9 1.940894 1_555
Fe0 O4 1.956056 1_555
Fe0 O7 2.048951 1_555
Fe0 O3 2.053341 1_555
Fe0 O6 2.160922 1_555
Fe0 O2 2.174926 1_555
Fe1 O8 1.940894 1_455
Fe1 O5 1.956056 1_565
Fe1 O6 2.048951 1_555
Fe1 O2 2.053341 1_455
Fe1 O7 2.160922 1_455
Fe1 O3 2.174926 1_555
Fe2 O14 1.940894 1_455
Fe2 O19 1.956056 1_555
Fe2 O16 2.048951 1_555
Fe2 O20 2.053341 1_455
Fe2 O17 2.160922 1_455
Fe2 O21 2.174926 1_555
Fe3 O15 1.940894 1_555
Fe3 O18 1.956056 1_545
Fe3 O17 2.048951 1_555
Fe3 O21 2.053341 1_555
Fe3 O16 2.160922 1_555
Fe3 O20 2.174926 1_555
Fe4 O32 1.940894 1_555
Fe4 O29 1.956056 1_565
Fe4 O30 2.048951 1_555
Fe4 O26 2.053341 1_555
Fe4 O31 2.160922 1_555
Fe4 O27 2.174926 1_555
Fe5 O33 1.940894 1_655
Fe5 O28 1.956056 1_555
Fe5 O31 2.048951 1_555
Fe5 O27 2.053341 1_655
Fe5 O30 2.160922 1_655
Fe5 O26 2.174926 1_555
Fe6 O38 1.940894 1_555
Fe6 O43 1.956056 1_555
Fe6 O40 2.048951 1_555
Fe6 O44 2.053341 1_555
Fe6 O41 2.160922 1_555
Fe6 O45 2.174926 1_555
Fe7 O39 1.940894 1_655
Fe7 O42 1.956056 1_545
Fe7 O41 2.048951 1_555
Fe7 O45 2.053341 1_655
Fe7 O40 2.160922 1_655
Fe7 O44 2.174926 1_555
O0 Si0 1.648320 1_555
O0 Si1 1.650324 1_555
O1 Si1 1.648320 1_655
O1 Si0 1.650324 1_555
O2 Si14 1.660613 1_554
O3 Si15 1.660613 1_554
O4 Si0 1.619289 1_555
O5 Si1 1.619289 1_555
O6 Si4 1.655791 1_555
O7 Si5 1.655791 1_555
O8 Si3 1.614010 1_565
O9 Si2 1.614010 1_555
O10 Si3 1.641574 1_455
O10 Si2 1.649996 1_555
O11 Si2 1.641574 1_555
O11 Si3 1.649996 1_555
O12 Si5 1.641574 1_455
O12 Si4 1.649996 1_555
O13 Si4 1.641574 1_555
O13 Si5 1.649996 1_555
O14 Si5 1.614010 1_555
O15 Si4 1.614010 1_545
O16 Si2 1.655791 1_555
O17 Si3 1.655791 1_555
O18 Si6 1.619289 1_555
O19 Si7 1.619289 1_555
O20 Si8 1.660613 1_555
O21 Si9 1.660613 1_555
O22 Si6 1.648320 1_555
O22 Si7 1.650324 1_555
O23 Si7 1.648320 1_655
O23 Si6 1.650324 1_555
O24 Si8 1.648320 1_455
O24 Si9 1.650324 1_555
O25 Si9 1.648320 1_555
O25 Si8 1.650324 1_555
O26 Si6 1.660613 1_555
O27 Si7 1.660613 1_555
O28 Si8 1.619289 1_555
O29 Si9 1.619289 1_555
O30 Si12 1.655791 1_555
O31 Si13 1.655791 1_555
O32 Si11 1.614010 1_565
O33 Si10 1.614010 1_555
O34 Si11 1.641574 1_555
O34 Si10 1.649996 1_555
O35 Si10 1.641574 1_655
O35 Si11 1.649996 1_555
O36 Si13 1.641574 1_555
O36 Si12 1.649996 1_555
O37 Si12 1.641574 1_655
O37 Si13 1.649996 1_555
O38 Si13 1.614010 1_555
O39 Si12 1.614010 1_545
O40 Si10 1.655791 1_555
O41 Si11 1.655791 1_555
O42 Si14 1.619289 1_555
O43 Si15 1.619289 1_555
O44 Si0 1.660613 1_556
O45 Si1 1.660613 1_556
O46 Si14 1.648320 1_455
O46 Si15 1.650324 1_555
O47 Si15 1.648320 1_555
O47 Si14 1.650324 1_555
