# generated using pymatgen
data_Li5Cu(PO4)2
_symmetry_space_group_name_H-M   'P 1'
_cell_length_a   6.20241800
_cell_length_b   5.35645300
_cell_length_c   9.95536394
_cell_angle_alpha   89.82783668
_cell_angle_beta   90.00000000
_cell_angle_gamma   90.00000000
_symmetry_Int_Tables_number   1
_chemical_formula_structural   Li5Cu(PO4)2
_chemical_formula_sum   'Li10 Cu2 P4 O16'
_cell_volume   330.74516994
_cell_formula_units_Z   2
loop_
 _symmetry_equiv_pos_site_id
 _symmetry_equiv_pos_as_xyz
  1  'x, y, z'
loop_
 _atom_site_type_symbol
 _atom_site_label
 _atom_site_symmetry_multiplicity
 _atom_site_fract_x
 _atom_site_fract_y
 _atom_site_fract_z
 _atom_site_occupancy
  Li  Li0  1  0.00040200  0.15507500  0.74543400  1
  Li  Li1  1  0.99959800  0.15507500  0.24543400  1
  Li  Li2  1  0.75179800  0.32719900  0.99530600  1
  Li  Li3  1  0.74710600  0.67252300  0.24469100  1
  Li  Li4  1  0.74766700  0.67438200  0.74560100  1
  Li  Li5  1  0.49920600  0.84485600  0.99604600  1
  Li  Li6  1  0.50079400  0.84485600  0.49604600  1
  Li  Li7  1  0.25289400  0.67252300  0.74469100  1
  Li  Li8  1  0.25233300  0.67438200  0.24560100  1
  Li  Li9  1  0.24820200  0.32719900  0.49530600  1
  Cu  Cu0  1  0.75812600  0.33476900  0.49847800  1
  Cu  Cu1  1  0.24187400  0.33476900  0.99847800  1
  P  P0  1  0.99570900  0.82479300  0.99915000  1
  P  P1  1  0.00429100  0.82479300  0.49915000  1
  P  P2  1  0.49869700  0.17148600  0.24963500  1
  P  P3  1  0.50130300  0.17148600  0.74963500  1
  O  O0  1  0.00002000  0.82005600  0.65549300  1
  O  O1  1  0.01513100  0.09906300  0.44613800  1
  O  O2  1  0.99998000  0.82005600  0.15549300  1
  O  O3  1  0.98486900  0.09906300  0.94613800  1
  O  O4  1  0.79280900  0.70348600  0.44305900  1
  O  O5  1  0.79289300  0.68158500  0.94782600  1
  O  O6  1  0.70297400  0.31088400  0.19699600  1
  O  O7  1  0.70990100  0.31365000  0.70417000  1
  O  O8  1  0.50486600  0.16891800  0.90607300  1
  O  O9  1  0.50164500  0.89727400  0.69720400  1
  O  O10  1  0.49513400  0.16891800  0.40607300  1
  O  O11  1  0.49835500  0.89727400  0.19720400  1
  O  O12  1  0.29702600  0.31088400  0.69699600  1
  O  O13  1  0.29009900  0.31365000  0.20417000  1
  O  O14  1  0.20710700  0.68158500  0.44782600  1
  O  O15  1  0.20719100  0.70348600  0.94305900  1
loop_
_geom_bond_atom_site_label_1
_geom_bond_atom_site_label_2
_geom_bond_distance
_geom_bond_site_symmetry_2
Li0 O0 2.007903 1_545
Li0 O3 2.021886 1_455
Li0 O7 2.033384 1_455
Li0 O12 2.076405 1_555
Li1 O2 2.007903 1_545
Li1 O1 2.021886 1_655
Li1 O13 2.033384 1_655
Li1 O6 2.076405 1_555
Li2 O3 1.956079 1_555
Li2 O8 1.964234 1_555
Li2 O5 1.971386 1_555
Li2 O6 2.032225 1_556
Li3 O2 1.966926 1_555
Li3 O4 2.002440 1_555
Li3 O11 2.012407 1_555
Li3 O6 2.014516 1_555
Li4 O0 1.964489 1_655
Li4 O7 1.990816 1_555
Li4 O9 1.995638 1_555
Li4 O5 2.033153 1_555
Li5 O8 1.951224 1_565
Li5 O11 2.023031 1_556
Li5 O15 2.033352 1_555
Li5 O5 2.077481 1_555
Li6 O10 1.951224 1_565
Li6 O9 2.023031 1_555
Li6 O4 2.033352 1_555
Li6 O14 2.077481 1_555
Li7 O0 1.966926 1_555
Li7 O15 2.002440 1_555
Li7 O9 2.012407 1_555
Li7 O12 2.014516 1_555
Li8 O2 1.964489 1_455
Li8 O13 1.990816 1_555
Li8 O11 1.995638 1_555
Li8 O14 2.033153 1_555
Li9 O1 1.956079 1_555
Li9 O10 1.964234 1_555
Li9 O14 1.971386 1_555
Li9 O12 2.032225 1_555
Cu0 O4 2.060292 1_555
Cu0 O7 2.072223 1_555
Cu0 O10 2.073921 1_555
Cu0 O1 2.100117 1_655
Cu1 O15 2.060292 1_555
Cu1 O13 2.072223 1_556
Cu1 O8 2.073921 1_555
Cu1 O3 2.100117 1_455
O0 P1 1.556807 1_555
O1 P1 1.560988 1_545
O2 P0 1.556807 1_554
O3 P0 1.560988 1_545
O4 P1 1.567406 1_655
O5 P0 1.560219 1_555
O6 P2 1.560485 1_555
O7 P3 1.567360 1_555
O8 P3 1.557573 1_555
O9 P3 1.560272 1_565
O10 P2 1.557573 1_555
O11 P2 1.560272 1_565
O12 P3 1.560485 1_555
O13 P2 1.567360 1_555
O14 P1 1.560219 1_555
O15 P0 1.567406 1_455
