# generated using pymatgen
data_Li2MnSi3O8
_symmetry_space_group_name_H-M   'P 1'
_cell_length_a   8.62356600
_cell_length_b   6.36199800
_cell_length_c   6.71192689
_cell_angle_alpha   74.69680173
_cell_angle_beta   90.00000000
_cell_angle_gamma   90.00000000
_symmetry_Int_Tables_number   1
_chemical_formula_structural   Li2MnSi3O8
_chemical_formula_sum   'Li4 Mn2 Si6 O16'
_cell_volume   355.18048005
_cell_formula_units_Z   2
loop_
 _symmetry_equiv_pos_site_id
 _symmetry_equiv_pos_as_xyz
  1  'x, y, z'
loop_
 _atom_site_type_symbol
 _atom_site_label
 _atom_site_symmetry_multiplicity
 _atom_site_fract_x
 _atom_site_fract_y
 _atom_site_fract_z
 _atom_site_occupancy
  Li  Li0  1  0.67871300  0.84627800  0.77844600  1
  Li  Li1  1  0.16407300  0.58077800  0.50496100  1
  Li  Li2  1  0.66407300  0.41922200  0.49503900  1
  Li  Li3  1  0.17871300  0.15372200  0.22155400  1
  Mn  Mn0  1  0.00226400  0.04562400  0.59861800  1
  Mn  Mn1  1  0.50226400  0.95437600  0.40138200  1
  Si  Si0  1  0.49286000  0.41912900  0.98950100  1
  Si  Si1  1  0.80704100  0.24796000  0.89656700  1
  Si  Si2  1  0.33672300  0.15913500  0.73274000  1
  Si  Si3  1  0.83672300  0.84086500  0.26726000  1
  Si  Si4  1  0.30704100  0.75204000  0.10343300  1
  Si  Si5  1  0.99286000  0.58087100  0.01049900  1
  O  O0  1  0.25947500  0.98951700  0.94656300  1
  O  O1  1  0.96586800  0.32897600  0.99298900  1
  O  O2  1  0.67093700  0.43211700  0.89483700  1
  O  O3  1  0.96874300  0.74840600  0.79203700  1
  O  O4  1  0.37590100  0.38450000  0.80572900  1
  O  O5  1  0.82324700  0.23154100  0.66239100  1
  O  O6  1  0.49602200  0.06001200  0.66717500  1
  O  O7  1  0.20298400  0.22916500  0.55566000  1
  O  O8  1  0.70298400  0.77083500  0.44434000  1
  O  O9  1  0.99602200  0.93998800  0.33282500  1
  O  O10  1  0.32324700  0.76845900  0.33760900  1
  O  O11  1  0.87590100  0.61550000  0.19427100  1
  O  O12  1  0.46874300  0.25159400  0.20796300  1
  O  O13  1  0.17093700  0.56788300  0.10516300  1
  O  O14  1  0.46586800  0.67102400  0.00701100  1
  O  O15  1  0.75947500  0.01048300  0.05343700  1
loop_
_geom_bond_atom_site_label_1
_geom_bond_atom_site_label_2
_geom_bond_distance
_geom_bond_site_symmetry_2
Li0 O6 2.086323 1_565
Li0 O8 2.423036 1_555
Li0 O15 2.449666 1_566
Li0 O14 2.462267 1_556
Li0 O2 2.543797 1_555
Li0 O3 2.573230 1_555
Li1 O10 1.965606 1_555
Li1 O7 2.197858 1_555
Li2 O5 1.965606 1_555
Li2 O8 2.197858 1_555
Li3 O9 2.086323 1_445
Li3 O7 2.423036 1_555
Li3 O0 2.449666 1_544
Li3 O1 2.462267 1_454
Li3 O13 2.543797 1_555
Li3 O12 2.573230 1_555
Mn0 O3 2.012127 1_445
Mn0 O5 2.057352 1_455
Mn0 O7 2.065188 1_555
Mn0 O9 2.066402 1_445
Mn1 O12 2.012127 1_565
Mn1 O10 2.057352 1_555
Mn1 O8 2.065188 1_555
Mn1 O6 2.066402 1_565
O0 Si4 1.649173 1_556
O0 Si2 1.688327 1_565
O1 Si5 1.653963 1_556
O1 Si1 1.654247 1_555
O2 Si0 1.655617 1_555
O2 Si1 1.656258 1_555
O3 Si5 1.582523 1_556
O4 Si0 1.652481 1_555
O4 Si2 1.667516 1_555
O5 Si1 1.608594 1_555
O6 Si2 1.620170 1_555
O7 Si2 1.631485 1_555
O8 Si3 1.631485 1_555
O9 Si3 1.620170 1_555
O10 Si4 1.608594 1_555
O11 Si5 1.652481 1_555
O11 Si3 1.667516 1_555
O12 Si0 1.582523 1_554
O13 Si5 1.655617 1_455
O13 Si4 1.656258 1_555
O14 Si0 1.653963 1_554
O14 Si4 1.654247 1_555
O15 Si1 1.649173 1_554
O15 Si3 1.688327 1_545
