# generated using pymatgen
data_BaFe15O23
_symmetry_space_group_name_H-M   'P 1'
_cell_length_a   28.14282561
_cell_length_b   28.14282543
_cell_length_c   28.14282597
_cell_angle_alpha   12.10308483
_cell_angle_beta   12.10308653
_cell_angle_gamma   12.10308543
_symmetry_Int_Tables_number   1
_chemical_formula_structural   BaFe15O23
_chemical_formula_sum   'Ba2 Fe30 O46'
_cell_volume   851.77176488
_cell_formula_units_Z   2
loop_
 _symmetry_equiv_pos_site_id
 _symmetry_equiv_pos_as_xyz
  1  'x, y, z'
loop_
 _atom_site_type_symbol
 _atom_site_label
 _atom_site_symmetry_multiplicity
 _atom_site_fract_x
 _atom_site_fract_y
 _atom_site_fract_z
 _atom_site_occupancy
  Ba  Ba0  1  0.09899370  0.09899370  0.09899370  1
  Ba  Ba1  1  0.90100630  0.90100630  0.90100630  1
  Fe  Fe0  1  0.30457636  0.80511397  0.30457636  1
  Fe  Fe1  1  0.77437814  0.27394989  0.77437814  1
  Fe  Fe2  1  0.77437814  0.77437814  0.27394989  1
  Fe  Fe3  1  0.72605011  0.22562186  0.22562186  1
  Fe  Fe4  1  0.22562186  0.22562186  0.72605011  1
  Fe  Fe5  1  0.74870007  0.74870007  0.74870007  1
  Fe  Fe6  1  0.19488603  0.69542364  0.69542364  1
  Fe  Fe7  1  0.21813248  0.21813248  0.21813248  1
  Fe  Fe8  1  0.63771482  0.63771482  0.63771482  1
  Fe  Fe9  1  0.97766524  0.97766524  0.97766524  1
  Fe  Fe10  1  0.69542364  0.19488603  0.69542364  1
  Fe  Fe11  1  0.17502715  0.17502715  0.17502715  1
  Fe  Fe12  1  0.43292897  0.43292897  0.43292897  1
  Fe  Fe13  1  0.29634017  0.29634017  0.29634017  1
  Fe  Fe14  1  0.82497285  0.82497285  0.82497285  1
  Fe  Fe15  1  0.30457636  0.30457636  0.80511397  1
  Fe  Fe16  1  0.80511397  0.30457636  0.30457636  1
  Fe  Fe17  1  0.50000000  0.00000000  0.50000000  1
  Fe  Fe18  1  0.78186752  0.78186752  0.78186752  1
  Fe  Fe19  1  0.36228518  0.36228518  0.36228518  1
  Fe  Fe20  1  0.22562186  0.72605011  0.22562186  1
  Fe  Fe21  1  0.25129993  0.25129993  0.25129993  1
  Fe  Fe22  1  0.27394989  0.77437814  0.77437814  1
  Fe  Fe23  1  0.70365983  0.70365983  0.70365983  1
  Fe  Fe24  1  0.50000000  0.50000000  0.00000000  1
  Fe  Fe25  1  0.69542364  0.69542364  0.19488603  1
  Fe  Fe26  1  0.56707103  0.56707103  0.56707103  1
  Fe  Fe27  1  0.50000000  0.50000000  0.50000000  1
  Fe  Fe28  1  0.02233476  0.02233476  0.02233476  1
  Fe  Fe29  1  0.00000000  0.50000000  0.50000000  1
  O  O0  1  0.96801074  0.96801074  0.44345792  1
  O  O1  1  0.38507786  0.38507786  0.93388740  1
  O  O2  1  0.04452226  0.04452226  0.04452226  1
  O  O3  1  0.90428854  0.90428854  0.40253827  1
  O  O4  1  0.80730354  0.34079557  0.80730354  1
  O  O5  1  0.45901102  0.45901102  0.45901102  1
  O  O6  1  0.03198926  0.55654208  0.03198926  1
  O  O7  1  0.47296318  0.47296319  0.92505840  1
  O  O8  1  0.09571146  0.09571146  0.59746173  1
  O  O9  1  0.59746173  0.09571146  0.09571146  1
  O  O10  1  0.15162540  0.15162540  0.15162540  1
  O  O11  1  0.52703682  0.52703681  0.07494160  1
  O  O12  1  0.80730354  0.80730354  0.34079557  1
  O  O13  1  0.52703681  0.07494160  0.52703681  1
  O  O14  1  0.19269646  0.65920443  0.19269646  1
  O  O15  1  0.36396148  0.36396148  0.81553653  1
  O  O16  1  0.36396148  0.81553653  0.36396148  1
  O  O17  1  0.81553653  0.36396148  0.36396148  1
  O  O18  1  0.44345792  0.96801074  0.96801074  1
  O  O19  1  0.93388740  0.38507786  0.38507786  1
  O  O20  1  0.03198926  0.03198926  0.55654208  1
  O  O21  1  0.54098898  0.54098898  0.54098898  1
  O  O22  1  0.07494160  0.52703681  0.52703681  1
  O  O23  1  0.19269646  0.19269646  0.65920443  1
  O  O24  1  0.18446347  0.63603852  0.63603852  1
  O  O25  1  0.84837460  0.84837460  0.84837460  1
  O  O26  1  0.90428854  0.40253827  0.90428854  1
  O  O27  1  0.55654208  0.03198926  0.03198926  1
  O  O28  1  0.47296319  0.92505840  0.47296319  1
  O  O29  1  0.68105299  0.68105299  0.68105299  1
  O  O30  1  0.59532616  0.59532616  0.59532616  1
  O  O31  1  0.61492214  0.61492214  0.06611260  1
  O  O32  1  0.06611260  0.61492214  0.61492214  1
  O  O33  1  0.92505840  0.47296319  0.47296319  1
  O  O34  1  0.65920443  0.19269646  0.19269646  1
  O  O35  1  0.34079557  0.80730354  0.80730354  1
  O  O36  1  0.40253827  0.90428854  0.90428854  1
  O  O37  1  0.38507786  0.93388740  0.38507786  1
  O  O38  1  0.95547774  0.95547774  0.95547774  1
  O  O39  1  0.09571146  0.59746173  0.09571146  1
  O  O40  1  0.40467384  0.40467384  0.40467384  1
  O  O41  1  0.63603852  0.63603852  0.18446347  1
  O  O42  1  0.61492214  0.06611260  0.61492214  1
  O  O43  1  0.96801074  0.44345792  0.96801074  1
  O  O44  1  0.63603852  0.18446347  0.63603852  1
  O  O45  1  0.31894701  0.31894701  0.31894701  1
loop_
_geom_bond_atom_site_label_1
_geom_bond_atom_site_label_2
_geom_bond_distance
_geom_bond_site_symmetry_2
Ba0 O43 2.821994 1_454
Ba0 O18 2.821995 1_544
Ba0 O0 2.821995 1_445
Ba0 O3 2.943914 1_445
Ba0 O26 2.943914 1_454
Ba0 O36 2.943914 1_544
Ba0 O32 2.971749 1_554
Ba0 O32 2.971749 1_545
Ba0 O31 2.971750 1_455
Ba0 O31 2.971750 1_545
Ba0 O42 2.971750 1_455
Ba0 O42 2.971750 1_554
Ba1 O6 2.821994 1_656
Ba1 O27 2.821995 1_566
Ba1 O20 2.821995 1_665
Ba1 O8 2.943914 1_665
Ba1 O39 2.943914 1_656
Ba1 O9 2.943914 1_566
Ba1 O19 2.971749 1_556
Ba1 O19 2.971749 1_565
Ba1 O1 2.971750 1_655
Ba1 O1 2.971750 1_565
Ba1 O37 2.971750 1_655
Ba1 O37 2.971750 1_556
Fe0 O0 1.933422 1_455
Fe0 O18 1.933422 1_554
Fe0 O5 2.005548 1_555
Fe0 O41 2.018764 1_555
Fe0 O24 2.018764 1_555
Fe0 O10 2.052962 1_565
Fe1 O9 1.952941 1_556
Fe1 O8 1.952941 1_655
Fe1 O30 1.997934 1_555
Fe1 O38 2.102639 1_545
Fe1 O33 2.121660 1_555
Fe1 O7 2.121660 1_555
Fe2 O9 1.952941 1_565
Fe2 O39 1.952941 1_655
Fe2 O30 1.997934 1_555
Fe2 O38 2.102639 1_554
Fe2 O33 2.121660 1_555
Fe2 O28 2.121660 1_555
Fe3 O3 1.952941 1_545
Fe3 O26 1.952941 1_554
Fe3 O40 1.997934 1_555
Fe3 O2 2.102639 1_655
Fe3 O11 2.121660 1_555
Fe3 O13 2.121660 1_555
Fe4 O36 1.952941 1_545
Fe4 O26 1.952941 1_455
Fe4 O40 1.997934 1_555
Fe4 O2 2.102639 1_556
Fe4 O22 2.121660 1_555
Fe4 O13 2.121660 1_555
Fe5 O26 1.977313 1_555
Fe5 O36 1.977314 1_555
Fe5 O3 1.977314 1_555
Fe5 O42 2.080579 1_565
Fe5 O32 2.080579 1_655
Fe5 O31 2.080579 1_556
Fe6 O20 1.933421 1_565
Fe6 O6 1.933422 1_556
Fe6 O21 2.005548 1_555
Fe6 O15 2.018764 1_555
Fe6 O16 2.018764 1_555
Fe6 O25 2.052962 1_455
Fe7 O6 2.030985 1_555
Fe7 O20 2.030985 1_555
Fe7 O27 2.030985 1_555
Fe7 O1 2.076638 1_554
Fe7 O37 2.076638 1_545
Fe7 O19 2.076638 1_455
Fe8 O28 1.945704 1_555
Fe8 O33 1.945705 1_555
Fe8 O7 1.945705 1_555
Fe8 O12 1.986868 1_555
Fe8 O4 1.986868 1_555
Fe8 O35 1.986868 1_555
Fe9 O38 1.859325 1_555
Fe9 O4 1.931885 1_565
Fe9 O12 1.931885 1_556
Fe9 O35 1.931885 1_655
Fe10 O20 1.933422 1_655
Fe10 O27 1.933422 1_556
Fe10 O21 2.005548 1_555
Fe10 O15 2.018764 1_555
Fe10 O17 2.018764 1_555
Fe10 O25 2.052962 1_545
Fe11 O16 1.947713 1_545
Fe11 O15 1.947713 1_554
Fe11 O17 1.947713 1_455
Fe11 O10 1.961080 1_555
Fe12 O42 1.881819 1_555
Fe12 O31 1.881820 1_555
Fe12 O32 1.881820 1_555
Fe12 O5 2.185691 1_555
Fe12 O40 2.367796 1_555
Fe13 O45 1.894466 1_555
Fe13 O28 1.943493 1_545
Fe13 O33 1.943493 1_455
Fe13 O7 1.943493 1_554
Fe14 O44 1.947713 1_565
Fe14 O41 1.947713 1_556
Fe14 O24 1.947713 1_655
Fe14 O25 1.961080 1_555
Fe15 O18 1.933421 1_545
Fe15 O43 1.933422 1_455
Fe15 O5 2.005548 1_555
Fe15 O24 2.018764 1_555
Fe15 O44 2.018764 1_555
Fe15 O10 2.052962 1_556
Fe16 O0 1.933421 1_545
Fe16 O43 1.933422 1_554
Fe16 O5 2.005548 1_555
Fe16 O41 2.018764 1_555
Fe16 O44 2.018764 1_555
Fe16 O10 2.052962 1_655
Fe17 O35 2.074299 1_545
Fe17 O34 2.074299 1_555
Fe17 O12 2.074299 1_545
Fe17 O23 2.074299 1_555
Fe17 O45 2.094660 1_555
Fe17 O29 2.094660 1_545
Fe18 O43 2.030985 1_555
Fe18 O0 2.030985 1_555
Fe18 O18 2.030985 1_555
Fe18 O31 2.076638 1_556
Fe18 O42 2.076638 1_565
Fe18 O32 2.076638 1_655
Fe19 O13 1.945704 1_555
Fe19 O22 1.945705 1_555
Fe19 O11 1.945705 1_555
Fe19 O23 1.986868 1_555
Fe19 O14 1.986868 1_555
Fe19 O34 1.986868 1_555
Fe20 O36 1.952941 1_554
Fe20 O3 1.952941 1_455
Fe20 O40 1.997934 1_555
Fe20 O2 2.102639 1_565
Fe20 O22 2.121660 1_555
Fe20 O11 2.121660 1_555
Fe21 O39 1.977313 1_555
Fe21 O9 1.977314 1_555
Fe21 O8 1.977314 1_555
Fe21 O37 2.080579 1_545
Fe21 O19 2.080579 1_455
Fe21 O1 2.080579 1_554
Fe22 O8 1.952941 1_565
Fe22 O39 1.952941 1_556
Fe22 O30 1.997934 1_555
Fe22 O38 2.102639 1_455
Fe22 O7 2.121660 1_555
Fe22 O28 2.121660 1_555
Fe23 O29 1.894466 1_555
Fe23 O13 1.943493 1_565
Fe23 O22 1.943493 1_655
Fe23 O11 1.943493 1_556
Fe24 O35 2.074299 1_554
Fe24 O34 2.074299 1_555
Fe24 O4 2.074299 1_554
Fe24 O14 2.074299 1_555
Fe24 O45 2.094660 1_555
Fe24 O29 2.094660 1_554
Fe25 O27 1.933421 1_565
Fe25 O6 1.933422 1_655
Fe25 O21 2.005548 1_555
Fe25 O17 2.018764 1_555
Fe25 O16 2.018764 1_555
Fe25 O25 2.052962 1_554
Fe26 O37 1.881819 1_555
Fe26 O1 1.881820 1_555
Fe26 O19 1.881820 1_555
Fe26 O21 2.185691 1_555
Fe26 O30 2.367796 1_555
Fe27 O44 1.966491 1_555
Fe27 O16 1.966491 1_555
Fe27 O24 1.966491 1_555
Fe27 O17 1.966491 1_555
Fe27 O41 1.966491 1_555
Fe27 O15 1.966491 1_555
Fe28 O2 1.859325 1_555
Fe28 O14 1.931885 1_545
Fe28 O23 1.931885 1_554
Fe28 O34 1.931885 1_455
Fe29 O12 2.074299 1_455
Fe29 O23 2.074299 1_555
Fe29 O4 2.074299 1_455
Fe29 O14 2.074299 1_555
Fe29 O29 2.094660 1_455
Fe29 O45 2.094660 1_555
