# generated using pymatgen
data_Li3Mn4(BO3)4
_symmetry_space_group_name_H-M   'P 1'
_cell_length_a   9.27216326
_cell_length_b   5.26094136
_cell_length_c   6.19685972
_cell_angle_alpha   64.61483636
_cell_angle_beta   82.14130768
_cell_angle_gamma   105.31789205
_symmetry_Int_Tables_number   1
_chemical_formula_structural   Li3Mn4(BO3)4
_chemical_formula_sum   'Li3 Mn4 B4 O12'
_cell_volume   252.32394120
_cell_formula_units_Z   1
loop_
 _symmetry_equiv_pos_site_id
 _symmetry_equiv_pos_as_xyz
  1  'x, y, z'
loop_
 _atom_site_type_symbol
 _atom_site_label
 _atom_site_symmetry_multiplicity
 _atom_site_fract_x
 _atom_site_fract_y
 _atom_site_fract_z
 _atom_site_occupancy
  Li  Li0  1  0.10579800  0.61752100  0.55211700  1
  Li  Li1  1  0.62053900  0.61575800  0.06330700  1
  Li  Li2  1  0.38438400  0.38470000  0.93017600  1
  Mn  Mn0  1  0.19050200  0.75166300  0.04460900  1
  Mn  Mn1  1  0.29871700  0.24521000  0.45712300  1
  Mn  Mn2  1  0.71537600  0.77124900  0.53366800  1
  Mn  Mn3  1  0.79821400  0.23473100  0.94973100  1
  B  B0  1  0.03773400  0.09240000  0.19928500  1
  B  B1  1  0.46411200  0.92434800  0.27494100  1
  B  B2  1  0.53430300  0.06894000  0.74836500  1
  B  B3  1  0.96441900  0.91526300  0.78104900  1
  O  O0  1  0.02884300  0.80541200  0.26528400  1
  O  O1  1  0.17961300  0.32075700  0.13448300  1
  O  O2  1  0.10149500  0.86598600  0.72151000  1
  O  O3  1  0.32183900  0.69127800  0.35730400  1
  O  O4  1  0.47257200  0.20798400  0.23083000  1
  O  O5  1  0.60344700  0.87078800  0.22447800  1
  O  O6  1  0.39635100  0.12611200  0.77649600  1
  O  O7  1  0.53574100  0.80017200  0.76694600  1
  O  O8  1  0.67176400  0.29694700  0.70994900  1
  O  O9  1  0.89651400  0.15073400  0.22012300  1
  O  O10  1  0.82200000  0.68461900  0.85320900  1
  O  O11  1  0.97261600  0.19143200  0.75664000  1
loop_
_geom_bond_atom_site_label_1
_geom_bond_atom_site_label_2
_geom_bond_distance
_geom_bond_site_symmetry_2
Li0 O11 1.956959 1_455
Li0 O0 1.964344 1_555
Li0 O2 2.001177 1_555
Li0 O3 2.036423 1_555
Li1 O4 1.925664 1_555
Li1 O10 1.971966 1_554
Li1 O5 2.010169 1_555
Li1 O7 2.049989 1_554
Li2 O7 1.966147 1_555
Li2 O6 1.982843 1_555
Li2 O1 1.990236 1_556
Li2 O4 2.082610 1_556
Mn0 O0 2.047373 1_555
Mn0 O1 2.059296 1_555
Mn0 O6 2.150377 1_564
Mn0 O2 2.175606 1_554
Mn0 O3 2.379198 1_555
Mn1 O4 2.094637 1_555
Mn1 O3 2.095009 1_555
Mn1 O2 2.111674 1_545
Mn1 O6 2.203499 1_555
Mn1 O1 2.351458 1_555
Mn2 O7 2.133353 1_555
Mn2 O9 2.142882 1_565
Mn2 O8 2.142941 1_555
Mn2 O5 2.234509 1_555
Mn2 O10 2.259587 1_555
Mn3 O9 1.956829 1_556
Mn3 O8 1.987930 1_555
Mn3 O11 1.999449 1_555
Mn3 O5 2.088860 1_546
Mn3 O10 2.117222 1_555
B0 O0 1.359859 1_545
B0 O1 1.393570 1_555
B0 O9 1.423194 1_455
B1 O4 1.374801 1_565
B1 O3 1.388845 1_555
B1 O5 1.415520 1_555
B2 O7 1.372422 1_545
B2 O6 1.394360 1_555
B2 O8 1.408709 1_555
B3 O11 1.374658 1_565
B3 O10 1.393851 1_555
B3 O2 1.395212 1_655
