# generated using pymatgen
data_BaLi4NiO4
_symmetry_space_group_name_H-M   'P 1'
_cell_length_a   15.30625200
_cell_length_b   5.73719000
_cell_length_c   11.26541817
_cell_angle_alpha   71.78737770
_cell_angle_beta   90.00000000
_cell_angle_gamma   90.00000000
_symmetry_Int_Tables_number   1
_chemical_formula_structural   BaLi4NiO4
_chemical_formula_sum   'Ba8 Li32 Ni8 O32'
_cell_volume   939.71199258
_cell_formula_units_Z   8
loop_
 _symmetry_equiv_pos_site_id
 _symmetry_equiv_pos_as_xyz
  1  'x, y, z'
loop_
 _atom_site_type_symbol
 _atom_site_label
 _atom_site_symmetry_multiplicity
 _atom_site_fract_x
 _atom_site_fract_y
 _atom_site_fract_z
 _atom_site_occupancy
  Ba  Ba0  1  0.79485700  0.62189800  0.76089800  1
  Ba  Ba1  1  0.56057600  0.07095400  0.33062800  1
  Ba  Ba2  1  0.29485700  0.37810200  0.73910200  1
  Ba  Ba3  1  0.06057600  0.92904600  0.16937200  1
  Ba  Ba4  1  0.93942400  0.07095400  0.83062800  1
  Ba  Ba5  1  0.70514300  0.62189800  0.26089800  1
  Ba  Ba6  1  0.43942400  0.92904600  0.66937200  1
  Ba  Ba7  1  0.20514300  0.37810200  0.23910200  1
  Li  Li0  1  0.92899300  0.92370400  0.54447000  1
  Li  Li1  1  0.15878500  0.80993500  0.61804500  1
  Li  Li2  1  0.65847600  0.44508600  0.00928400  1
  Li  Li3  1  0.61300200  0.67459900  0.62718900  1
  Li  Li4  1  0.92618100  0.38208100  0.02715400  1
  Li  Li5  1  0.47123100  0.33927800  0.07463500  1
  Li  Li6  1  0.37167100  0.09095300  0.22469600  1
  Li  Li7  1  0.11300200  0.32540100  0.87281100  1
  Li  Li8  1  0.73713900  0.89508800  0.48186600  1
  Li  Li9  1  0.84152400  0.44508600  0.50928400  1
  Li  Li10  1  0.65878500  0.19006500  0.88195500  1
  Li  Li11  1  0.23713900  0.10491200  0.01813400  1
  Li  Li12  1  0.87167100  0.90904700  0.27530400  1
  Li  Li13  1  0.57381900  0.38208100  0.52715400  1
  Li  Li14  1  0.42899300  0.07629600  0.95553000  1
  Li  Li15  1  0.02876900  0.33927800  0.57463500  1
  Li  Li16  1  0.97123100  0.66072200  0.42536500  1
  Li  Li17  1  0.57100700  0.92370400  0.04447000  1
  Li  Li18  1  0.42618100  0.61791900  0.47284600  1
  Li  Li19  1  0.12832900  0.09095300  0.72469600  1
  Li  Li20  1  0.76286100  0.89508800  0.98186600  1
  Li  Li21  1  0.34121500  0.80993500  0.11804500  1
  Li  Li22  1  0.15847600  0.55491400  0.49071600  1
  Li  Li23  1  0.26286100  0.10491200  0.51813400  1
  Li  Li24  1  0.88699800  0.67459900  0.12718900  1
  Li  Li25  1  0.62832900  0.90904700  0.77530400  1
  Li  Li26  1  0.52876900  0.66072200  0.92536500  1
  Li  Li27  1  0.07381900  0.61791900  0.97284600  1
  Li  Li28  1  0.38699800  0.32540100  0.37281100  1
  Li  Li29  1  0.34152400  0.55491400  0.99071600  1
  Li  Li30  1  0.84121500  0.19006500  0.38195500  1
  Li  Li31  1  0.07100700  0.07629600  0.45553000  1
  Ni  Ni0  1  0.02065500  0.63148900  0.70713000  1
  Ni  Ni1  1  0.77965200  0.19766700  0.12355700  1
  Ni  Ni2  1  0.52065500  0.36851100  0.79287000  1
  Ni  Ni3  1  0.27965200  0.80233300  0.37644300  1
  Ni  Ni4  1  0.72034800  0.19766700  0.62355700  1
  Ni  Ni5  1  0.47934500  0.63148900  0.20713000  1
  Ni  Ni6  1  0.22034800  0.80233300  0.87644300  1
  Ni  Ni7  1  0.97934500  0.36851100  0.29287000  1
  O  O0  1  0.20157100  0.44787100  0.96791000  1
  O  O1  1  0.62671500  0.54960600  0.82353500  1
  O  O2  1  0.99232600  0.46001200  0.87835500  1
  O  O3  1  0.43000500  0.45757500  0.89706800  1
  O  O4  1  0.93000500  0.54242500  0.60293200  1
  O  O5  1  0.96311700  0.01286300  0.36640700  1
  O  O6  1  0.75096200  0.05060300  0.30480800  1
  O  O7  1  0.49232600  0.53998800  0.62164500  1
  O  O8  1  0.38697400  0.96977000  0.41519700  1
  O  O9  1  0.12671500  0.45039400  0.67646500  1
  O  O10  1  0.70157100  0.55212900  0.53209000  1
  O  O11  1  0.17899800  0.93795800  0.43973900  1
  O  O12  1  0.67899800  0.06204200  0.06026100  1
  O  O13  1  0.88697400  0.03023000  0.08480300  1
  O  O14  1  0.25096200  0.94939700  0.19519200  1
  O  O15  1  0.46311700  0.98713700  0.13359300  1
  O  O16  1  0.53688300  0.01286300  0.86640700  1
  O  O17  1  0.74903800  0.05060300  0.80480800  1
  O  O18  1  0.11302600  0.96977000  0.91519700  1
  O  O19  1  0.32100200  0.93795800  0.93973900  1
  O  O20  1  0.82100200  0.06204200  0.56026100  1
  O  O21  1  0.29842900  0.44787100  0.46791000  1
  O  O22  1  0.87328500  0.54960600  0.32353500  1
  O  O23  1  0.61302600  0.03023000  0.58480300  1
  O  O24  1  0.50767400  0.46001200  0.37835500  1
  O  O25  1  0.24903800  0.94939700  0.69519200  1
  O  O26  1  0.03688300  0.98713700  0.63359300  1
  O  O27  1  0.06999500  0.45757500  0.39706800  1
  O  O28  1  0.56999500  0.54242500  0.10293200  1
  O  O29  1  0.00767400  0.53998800  0.12164500  1
  O  O30  1  0.37328500  0.45039400  0.17646500  1
  O  O31  1  0.79842900  0.55212900  0.03209000  1
loop_
_geom_bond_atom_site_label_1
_geom_bond_atom_site_label_2
_geom_bond_distance
_geom_bond_site_symmetry_2
Ba0 O1 2.666559 1_555
Ba0 O17 2.747090 1_565
Ba0 O20 2.842140 1_565
Ba0 O4 2.856753 1_555
Ba0 O31 2.955061 1_556
Ba0 O10 3.080270 1_555
Ba0 O17 3.235106 1_555
Ba0 O2 3.313736 1_555
Ba1 O24 2.584028 1_555
Ba1 O8 2.821280 1_545
Ba1 O15 2.837376 1_545
Ba1 O23 2.912026 1_555
Ba1 O6 2.934523 1_555
Ba1 O28 3.095153 1_555
Ba2 O9 2.666559 1_555
Ba2 O25 2.747090 1_545
Ba2 O19 2.842140 1_545
Ba2 O3 2.856753 1_555
Ba2 O21 2.955061 1_555
Ba2 O0 3.080270 1_555
Ba2 O25 3.235106 1_555
Ba2 O7 3.313736 1_555
Ba3 O29 2.584028 1_555
Ba3 O13 2.821280 1_465
Ba3 O5 2.837376 1_465
Ba3 O18 2.912026 1_554
Ba3 O14 2.934523 1_555
Ba3 O27 3.095153 1_555
Ba4 O2 2.584028 1_555
Ba4 O18 2.821280 1_645
Ba4 O26 2.837376 1_645
Ba4 O13 2.912026 1_556
Ba4 O17 2.934523 1_555
Ba4 O4 3.095153 1_555
Ba5 O22 2.666559 1_555
Ba5 O6 2.747090 1_565
Ba5 O12 2.842140 1_565
Ba5 O28 2.856753 1_555
Ba5 O10 2.955061 1_555
Ba5 O31 3.080270 1_555
Ba5 O6 3.235106 1_555
Ba5 O24 3.313736 1_555
Ba6 O7 2.584028 1_555
Ba6 O23 2.821280 1_565
Ba6 O16 2.837376 1_565
Ba6 O8 2.912026 1_555
Ba6 O25 2.934523 1_555
Ba6 O3 3.095153 1_555
Ba7 O30 2.666559 1_555
Ba7 O14 2.747090 1_545
Ba7 O11 2.842140 1_545
Ba7 O27 2.856753 1_555
Ba7 O0 2.955061 1_554
Ba7 O21 3.080270 1_555
Ba7 O14 3.235106 1_555
Ba7 O29 3.313736 1_555
Li0 O20 1.866016 1_565
Li0 O5 1.979121 1_565
Li0 O26 2.023850 1_655
Li0 O4 2.078094 1_555
Li1 O25 1.933533 1_555
Li1 O11 1.935925 1_555
Li1 O9 2.020013 1_555
Li1 O26 2.158007 1_555
Li2 O28 1.904547 1_555
Li2 O1 2.047018 1_554
Li2 O12 2.114004 1_555
Li2 O31 2.265087 1_555
Li3 O23 1.944718 1_565
Li3 O10 1.987408 1_555
Li3 O7 2.010535 1_555
Li3 O1 2.111725 1_555
Li4 O2 1.888480 1_554
Li4 O13 2.009308 1_555
Li4 O29 2.027942 1_655
Li4 O31 2.193718 1_555
Li5 O15 1.923383 1_545
Li5 O28 1.994365 1_555
Li5 O3 2.002905 1_554
Li5 O30 2.104058 1_555
Li6 O15 1.936318 1_545
Li6 O30 1.961640 1_555
Li6 O8 2.052121 1_545
Li6 O14 2.086241 1_545
Li7 O18 1.944718 1_545
Li7 O0 1.987408 1_555
Li7 O2 2.010535 1_455
Li7 O9 2.111725 1_555
Li8 O6 1.925342 1_565
Li8 O10 1.947344 1_555
Li8 O20 1.968225 1_565
Li8 O23 2.473212 1_565
Li9 O4 1.904547 1_555
Li9 O22 2.047018 1_555
Li9 O20 2.114004 1_555
Li9 O10 2.265087 1_555
Li10 O17 1.933533 1_555
Li10 O12 1.935925 1_556
Li10 O1 2.020013 1_555
Li10 O16 2.158007 1_555
Li11 O14 1.925342 1_545
Li11 O0 1.947344 1_554
Li11 O19 1.968225 1_544
Li11 O18 2.473212 1_544
Li12 O5 1.936318 1_565
Li12 O22 1.961640 1_555
Li12 O13 2.052121 1_565
Li12 O6 2.086241 1_565
Li13 O24 1.888480 1_555
Li13 O23 2.009308 1_555
Li13 O7 2.027942 1_555
Li13 O10 2.193718 1_555
Li14 O19 1.866016 1_545
Li14 O15 1.979121 1_546
Li14 O16 2.023850 1_555
Li14 O3 2.078094 1_555
Li15 O26 1.923383 1_545
Li15 O4 1.994365 1_455
Li15 O27 2.002905 1_555
Li15 O9 2.104058 1_555
Li16 O5 1.923383 1_565
Li16 O27 1.994365 1_655
Li16 O4 2.002905 1_555
Li16 O22 2.104058 1_555
Li17 O12 1.866016 1_565
Li17 O16 1.979121 1_564
Li17 O15 2.023850 1_555
Li17 O28 2.078094 1_555
Li18 O7 1.888480 1_555
Li18 O8 2.009308 1_555
Li18 O24 2.027942 1_555
Li18 O21 2.193718 1_555
Li19 O26 1.936318 1_545
Li19 O9 1.961640 1_555
Li19 O18 2.052121 1_545
Li19 O25 2.086241 1_545
Li20 O17 1.925342 1_565
Li20 O31 1.947344 1_556
Li20 O12 1.968225 1_566
Li20 O13 2.473212 1_566
Li21 O14 1.933533 1_555
Li21 O19 1.935925 1_554
Li21 O30 2.020013 1_555
Li21 O15 2.158007 1_555
Li22 O27 1.904547 1_555
Li22 O9 2.047018 1_555
Li22 O11 2.114004 1_555
Li22 O21 2.265087 1_555
Li23 O25 1.925342 1_545
Li23 O21 1.947344 1_555
Li23 O11 1.968225 1_545
Li23 O8 2.473212 1_545
Li24 O13 1.944718 1_565
Li24 O31 1.987408 1_555
Li24 O29 2.010535 1_655
Li24 O22 2.111725 1_555
Li25 O16 1.936318 1_565
Li25 O1 1.961640 1_555
Li25 O23 2.052121 1_565
Li25 O17 2.086241 1_565
Li26 O16 1.923383 1_565
Li26 O3 1.994365 1_555
Li26 O28 2.002905 1_556
Li26 O1 2.104058 1_555
Li27 O29 1.888480 1_556
Li27 O18 2.009308 1_555
Li27 O2 2.027942 1_455
Li27 O0 2.193718 1_555
Li28 O8 1.944718 1_545
Li28 O21 1.987408 1_555
Li28 O24 2.010535 1_555
Li28 O30 2.111725 1_555
Li29 O3 1.904547 1_555
Li29 O30 2.047018 1_556
Li29 O19 2.114004 1_555
Li29 O0 2.265087 1_555
Li30 O6 1.933533 1_555
Li30 O20 1.935925 1_555
Li30 O22 2.020013 1_555
Li30 O5 2.158007 1_555
Li31 O11 1.866016 1_545
Li31 O26 1.979121 1_545
Li31 O5 2.023850 1_455
Li31 O27 2.078094 1_555
Ni0 O2 1.921042 1_455
Ni0 O26 1.963337 1_555
Ni0 O4 1.984717 1_455
Ni0 O9 2.014580 1_555
Ni1 O12 1.958131 1_555
Ni1 O31 1.992510 1_555
Ni1 O6 1.999264 1_555
Ni1 O13 2.018415 1_555
Ni2 O7 1.921042 1_555
Ni2 O16 1.963337 1_555
Ni2 O3 1.984717 1_555
Ni2 O1 2.014580 1_555
Ni3 O11 1.958131 1_555
Ni3 O21 1.992510 1_555
Ni3 O14 1.999264 1_555
Ni3 O8 2.018415 1_555
Ni4 O20 1.958131 1_555
Ni4 O10 1.992510 1_555
Ni4 O17 1.999264 1_555
Ni4 O23 2.018415 1_555
Ni5 O24 1.921042 1_555
Ni5 O15 1.963337 1_555
Ni5 O28 1.984717 1_555
Ni5 O30 2.014580 1_555
Ni6 O19 1.958131 1_555
Ni6 O0 1.992510 1_555
Ni6 O25 1.999264 1_555
Ni6 O18 2.018415 1_555
Ni7 O29 1.921042 1_655
Ni7 O5 1.963337 1_555
Ni7 O27 1.984717 1_655
Ni7 O22 2.014580 1_555
