# generated using pymatgen
data_Li2V5O10
_symmetry_space_group_name_H-M   'P 1'
_cell_length_a   5.11503655
_cell_length_b   7.72526023
_cell_length_c   10.42342199
_cell_angle_alpha   104.02833530
_cell_angle_beta   102.83471078
_cell_angle_gamma   77.81407424
_symmetry_Int_Tables_number   1
_chemical_formula_structural   Li2V5O10
_chemical_formula_sum   'Li4 V10 O20'
_cell_volume   384.19314658
_cell_formula_units_Z   2
loop_
 _symmetry_equiv_pos_site_id
 _symmetry_equiv_pos_as_xyz
  1  'x, y, z'
loop_
 _atom_site_type_symbol
 _atom_site_label
 _atom_site_symmetry_multiplicity
 _atom_site_fract_x
 _atom_site_fract_y
 _atom_site_fract_z
 _atom_site_occupancy
  Li  Li0  1  0.54149200  0.40602900  0.10936700  1
  Li  Li1  1  0.53437600  0.39873500  0.60387000  1
  Li  Li2  1  0.46565300  0.60124400  0.39609300  1
  Li  Li3  1  0.45853300  0.59396800  0.89060700  1
  V  V0  1  0.49997800  0.00000000  0.49999600  1
  V  V1  1  0.02488800  0.68456200  0.06979300  1
  V  V2  1  0.01060800  0.68741800  0.56388300  1
  V  V3  1  0.98940800  0.31257500  0.43609700  1
  V  V4  1  0.97509700  0.31543800  0.93019800  1
  V  V5  1  0.49999100  0.00000800  0.00003500  1
  V  V6  1  0.96391100  0.89502400  0.34636700  1
  V  V7  1  0.96338600  0.88856900  0.84356800  1
  V  V8  1  0.03660000  0.11144700  0.15644300  1
  V  V9  1  0.03616300  0.10497000  0.65363400  1
  O  O0  1  0.22012200  0.86424100  0.02351400  1
  O  O1  1  0.22060800  0.86881300  0.53040100  1
  O  O2  1  0.77943700  0.13115700  0.46961400  1
  O  O3  1  0.77985800  0.13577600  0.97650800  1
  O  O4  1  0.77743900  0.51381400  0.03309600  1
  O  O5  1  0.78307500  0.50473600  0.53631500  1
  O  O6  1  0.21692000  0.49526500  0.46367500  1
  O  O7  1  0.22256600  0.48617700  0.96688800  1
  O  O8  1  0.79611200  0.93605400  0.15490900  1
  O  O9  1  0.78857700  0.93583100  0.66654200  1
  O  O10  1  0.21141400  0.06417500  0.33345300  1
  O  O11  1  0.20386900  0.06394500  0.84512100  1
  O  O12  1  0.26576400  0.21736800  0.10237500  1
  O  O13  1  0.26886700  0.22335400  0.58690800  1
  O  O14  1  0.73113500  0.77662500  0.41307400  1
  O  O15  1  0.73423600  0.78266300  0.89766300  1
  O  O16  1  0.18195100  0.68085300  0.23737700  1
  O  O17  1  0.16987300  0.68828300  0.74104700  1
  O  O18  1  0.83007500  0.31172600  0.25895600  1
  O  O19  1  0.81802000  0.31915500  0.76261400  1
loop_
_geom_bond_atom_site_label_1
_geom_bond_atom_site_label_2
_geom_bond_distance
_geom_bond_site_symmetry_2
Li0 O4 1.988309 1_555
Li0 O7 2.047722 1_554
Li0 O18 2.053046 1_555
Li0 O12 2.211158 1_555
Li0 O3 2.457030 1_554
Li1 O5 1.975335 1_555
Li1 O13 2.065263 1_555
Li1 O19 2.066603 1_555
Li1 O6 2.071505 1_555
Li1 O2 2.466895 1_555
Li2 O6 1.975536 1_555
Li2 O14 2.065113 1_555
Li2 O16 2.066608 1_555
Li2 O5 2.071521 1_555
Li2 O1 2.467075 1_555
Li3 O7 1.988485 1_555
Li3 O4 2.047743 1_556
Li3 O17 2.053062 1_555
Li3 O15 2.211087 1_555
Li3 O0 2.457460 1_556
O0 V5 2.030570 1_565
O0 V7 2.061629 1_454
O0 V1 2.068941 1_555
O0 V8 2.233001 1_565
O1 V0 2.034169 1_565
O1 V2 2.068438 1_555
O1 V6 2.098048 1_455
O1 V9 2.131680 1_565
O2 V0 2.034290 1_555
O2 V3 2.068645 1_555
O2 V9 2.097956 1_655
O2 V6 2.131696 1_545
O3 V5 2.030768 1_556
O3 V8 2.061553 1_656
O3 V4 2.069012 1_555
O3 V7 2.233076 1_545
O4 V4 1.884649 1_554
O4 V1 1.932207 1_655
O5 V3 1.866922 1_555
O5 V2 1.943448 1_655
O6 V2 1.866782 1_555
O6 V3 1.943404 1_455
O7 V1 1.884774 1_556
O7 V4 1.932238 1_455
O8 V8 2.008414 1_665
O8 V5 2.031932 1_565
O8 V6 2.061693 1_555
O8 V1 2.144041 1_655
O9 V7 1.947670 1_555
O9 V9 2.046639 1_665
O9 V0 2.099585 1_565
O9 V2 2.177584 1_655
O10 V8 1.947551 1_555
O10 V6 2.046408 1_445
O10 V0 2.099491 1_555
O10 V3 2.177400 1_455
O11 V7 2.008231 1_445
O11 V5 2.032185 1_556
O11 V9 2.061877 1_555
O11 V4 2.143909 1_455
O12 V8 1.811955 1_555
O12 V5 2.059856 1_555
O12 V4 2.236854 1_454
O13 V9 1.967908 1_555
O13 V0 2.013019 1_555
O13 V3 2.024965 1_455
O14 V6 1.968156 1_555
O14 V0 2.013278 1_565
O14 V2 2.024943 1_655
O15 V7 1.811978 1_555
O15 V5 2.059988 1_566
O15 V1 2.236555 1_656
O16 V1 1.757447 1_555
O16 V6 2.035821 1_455
O17 V2 1.844393 1_555
O17 V7 1.913489 1_455
O18 V3 1.844271 1_555
O18 V8 1.913517 1_655
O19 V4 1.757474 1_555
O19 V9 2.036095 1_655
