# generated using pymatgen
data_V2OF5
_symmetry_space_group_name_H-M   'P 1'
_cell_length_a   5.41998998
_cell_length_b   5.41998998
_cell_length_c   17.69602175
_cell_angle_alpha   79.06193356
_cell_angle_beta   79.06193356
_cell_angle_gamma   58.03047788
_symmetry_Int_Tables_number   1
_chemical_formula_structural   V2OF5
_chemical_formula_sum   'V8 O4 F20'
_cell_volume   430.49233385
_cell_formula_units_Z   4
loop_
 _symmetry_equiv_pos_site_id
 _symmetry_equiv_pos_as_xyz
  1  'x, y, z'
loop_
 _atom_site_type_symbol
 _atom_site_label
 _atom_site_symmetry_multiplicity
 _atom_site_fract_x
 _atom_site_fract_y
 _atom_site_fract_z
 _atom_site_occupancy
  V  V0  1  0.61602000  0.76145000  0.93536300  1
  V  V1  1  0.13206900  0.24846900  0.43583300  1
  V  V2  1  0.23855000  0.38398000  0.06463700  1
  V  V3  1  0.75153100  0.86793100  0.56416700  1
  V  V4  1  0.88612800  0.96312900  0.18616700  1
  V  V5  1  0.40930700  0.50167700  0.68372700  1
  V  V6  1  0.03687100  0.11387200  0.81383300  1
  V  V7  1  0.49832300  0.59069300  0.31627300  1
  O  O0  1  0.40082100  0.36077500  0.37144800  1
  O  O1  1  0.35793300  0.93779800  0.85208000  1
  O  O2  1  0.06220200  0.64206700  0.14792000  1
  O  O3  1  0.63922500  0.59917900  0.62855200  1
  F  F0  1  0.82497600  0.37413000  0.89678000  1
  F  F1  1  0.90735500  0.84831000  0.87270100  1
  F  F2  1  0.33067700  0.66932300  0.00000000  1
  F  F3  1  0.62587000  0.17502400  0.10322000  1
  F  F4  1  0.34818200  0.85823400  0.39833100  1
  F  F5  1  0.14176600  0.65181800  0.60166900  1
  F  F6  1  0.41451500  0.14112800  0.97677900  1
  F  F7  1  0.90809100  0.63473900  0.47432100  1
  F  F8  1  0.11374300  0.84215700  0.27403800  1
  F  F9  1  0.15169000  0.09264500  0.12729900  1
  F  F10  1  0.84345000  0.15655000  0.50000000  1
  F  F11  1  0.88988300  0.40472200  0.34729400  1
  F  F12  1  0.59527800  0.11011700  0.65270600  1
  F  F13  1  0.62965800  0.33445700  0.77442400  1
  F  F14  1  0.66554300  0.37034200  0.22557600  1
  F  F15  1  0.85887200  0.58548500  0.02322100  1
  F  F16  1  0.36526100  0.09190900  0.52567900  1
  F  F17  1  0.10708700  0.40869900  0.74709200  1
  F  F18  1  0.59130100  0.89291300  0.25290800  1
  F  F19  1  0.15784300  0.88625700  0.72596200  1
loop_
_geom_bond_atom_site_label_1
_geom_bond_atom_site_label_2
_geom_bond_distance
_geom_bond_site_symmetry_2
O0 V7 1.680859 1_555
O0 V1 1.958654 1_555
O1 V6 1.685304 1_565
O1 V0 1.968319 1_555
O2 V4 1.685304 1_455
O2 V2 1.968319 1_555
O3 V5 1.680859 1_555
O3 V3 1.958654 1_555
F0 V0 1.971956 1_555
F0 V6 1.973272 1_655
F1 V0 1.967021 1_555
F1 V6 1.968014 1_665
F2 V0 1.969561 1_554
F2 V2 1.969561 1_555
F3 V2 1.971956 1_555
F3 V4 1.973272 1_545
F4 V1 1.974885 1_565
F4 V7 1.993639 1_555
F5 V3 1.974885 1_455
F5 V5 1.993639 1_555
F6 V0 1.962991 1_545
F6 V2 1.985924 1_556
F7 V1 1.963847 1_655
F7 V3 1.990032 1_555
F8 V4 1.963237 1_455
F8 V7 1.989288 1_555
F9 V2 1.967021 1_555
F9 V4 1.968014 1_445
F10 V1 1.980186 1_655
F10 V3 1.980186 1_545
F11 V7 1.946328 1_555
F11 V1 1.998709 1_655
F12 V5 1.946328 1_555
F12 V3 1.998709 1_545
F13 V5 1.962883 1_555
F13 V6 2.064082 1_655
F14 V7 1.962883 1_555
F14 V4 2.064082 1_545
F15 V2 1.962991 1_655
F15 V0 1.985924 1_554
F16 V3 1.963847 1_545
F16 V1 1.990032 1_555
F17 V6 1.962239 1_555
F17 V5 2.038890 1_555
F18 V4 1.962239 1_555
F18 V7 2.038890 1_555
F19 V6 1.963237 1_565
F19 V5 1.989288 1_555
