# generated using pymatgen
data_Y2TeO6
_symmetry_space_group_name_H-M   'P 1'
_cell_length_a   5.45305400
_cell_length_b   7.71912900
_cell_length_c   11.54148521
_cell_angle_alpha   76.08389209
_cell_angle_beta   90.00000000
_cell_angle_gamma   90.00000000
_symmetry_Int_Tables_number   1
_chemical_formula_structural   Y2TeO6
_chemical_formula_sum   'Y8 Te4 O24'
_cell_volume   471.55457884
_cell_formula_units_Z   4
loop_
 _symmetry_equiv_pos_site_id
 _symmetry_equiv_pos_as_xyz
  1  'x, y, z'
loop_
 _atom_site_type_symbol
 _atom_site_label
 _atom_site_symmetry_multiplicity
 _atom_site_fract_x
 _atom_site_fract_y
 _atom_site_fract_z
 _atom_site_occupancy
  Y  Y0  1  0.74050400  0.00000000  0.75000000  1
  Y  Y1  1  0.25949600  0.00000000  0.25000000  1
  Y  Y2  1  0.19385500  0.78862100  0.57719700  1
  Y  Y3  1  0.80614500  0.78862100  0.07719700  1
  Y  Y4  1  0.68671500  0.50000000  0.75000000  1
  Y  Y5  1  0.31328500  0.50000000  0.25000000  1
  Y  Y6  1  0.19385500  0.21137900  0.92280300  1
  Y  Y7  1  0.80614500  0.21137900  0.42280300  1
  Te  Te0  1  0.25406500  0.72594800  0.88541500  1
  Te  Te1  1  0.74593500  0.72594800  0.38541500  1
  Te  Te2  1  0.25406500  0.27405200  0.61458500  1
  Te  Te3  1  0.74593500  0.27405200  0.11458500  1
  O  O0  1  0.05077000  0.94135300  0.89373500  1
  O  O1  1  0.53217400  0.84995600  0.93205100  1
  O  O2  1  0.94923000  0.94135300  0.39373500  1
  O  O3  1  0.45015200  0.79257500  0.73065600  1
  O  O4  1  0.46782600  0.84995600  0.43205100  1
  O  O5  1  0.97935800  0.70644600  0.77456800  1
  O  O6  1  0.54984800  0.79257500  0.23065600  1
  O  O7  1  0.85632900  0.64015200  0.54873100  1
  O  O8  1  0.37349000  0.49238600  0.88613500  1
  O  O9  1  0.02064200  0.70644600  0.27456800  1
  O  O10  1  0.37349000  0.50761400  0.61386500  1
  O  O11  1  0.85632900  0.35984800  0.95126900  1
  O  O12  1  0.14367100  0.64015200  0.04873100  1
  O  O13  1  0.62651000  0.49238600  0.38613500  1
  O  O14  1  0.97935800  0.29355400  0.72543200  1
  O  O15  1  0.62651000  0.50761400  0.11386500  1
  O  O16  1  0.14367100  0.35984800  0.45126900  1
  O  O17  1  0.45015200  0.20742500  0.76934400  1
  O  O18  1  0.02064200  0.29355400  0.22543200  1
  O  O19  1  0.53217400  0.15004400  0.56794900  1
  O  O20  1  0.54984800  0.20742500  0.26934400  1
  O  O21  1  0.05077000  0.05864700  0.60626500  1
  O  O22  1  0.46782600  0.15004400  0.06794900  1
  O  O23  1  0.94923000  0.05864700  0.10626500  1
loop_
_geom_bond_atom_site_label_1
_geom_bond_atom_site_label_2
_geom_bond_distance
_geom_bond_site_symmetry_2
O0 Te0 2.019819 1_555
O0 Y6 2.324280 1_565
O0 Y0 2.336285 1_465
O0 Y3 2.540100 1_456
O1 Te0 1.937457 1_555
O1 Y3 2.209283 1_556
O1 Y0 2.424100 1_565
O2 Te1 2.019819 1_555
O2 Y7 2.324280 1_565
O2 Y1 2.336285 1_665
O2 Y2 2.540100 1_655
O3 Te0 2.038706 1_555
O3 Y2 2.262118 1_555
O3 Y0 2.300498 1_565
O3 Y4 2.563567 1_555
O4 Te1 1.937457 1_555
O4 Y2 2.209283 1_555
O4 Y1 2.424100 1_565
O5 Te0 1.998996 1_655
O5 Y4 2.320308 1_555
O5 Y2 2.502904 1_655
O5 Y0 2.569530 1_565
O6 Te1 2.038706 1_555
O6 Y3 2.262118 1_555
O6 Y1 2.300498 1_565
O6 Y5 2.563567 1_555
O7 Te1 1.937376 1_555
O7 Y2 2.233852 1_655
O7 Y4 2.492617 1_555
O8 Te0 1.915045 1_555
O8 Y4 2.311943 1_555
O8 Y6 2.324265 1_555
O9 Te1 1.998996 1_455
O9 Y5 2.320308 1_555
O9 Y3 2.502904 1_455
O9 Y1 2.569530 1_565
O10 Te2 1.915045 1_555
O10 Y4 2.311943 1_555
O10 Y2 2.324265 1_555
O11 Te3 1.937376 1_556
O11 Y6 2.233852 1_655
O11 Y4 2.492617 1_555
O12 Te0 1.937376 1_554
O12 Y3 2.233852 1_455
O12 Y5 2.492617 1_555
O13 Te1 1.915045 1_555
O13 Y5 2.311943 1_555
O13 Y7 2.324265 1_555
O14 Te2 1.998996 1_655
O14 Y4 2.320308 1_555
O14 Y6 2.502904 1_655
O14 Y0 2.569530 1_555
O15 Te3 1.915045 1_555
O15 Y5 2.311943 1_555
O15 Y3 2.324265 1_555
O16 Te2 1.937376 1_555
O16 Y7 2.233852 1_455
O16 Y5 2.492617 1_555
O17 Te2 2.038706 1_555
O17 Y6 2.262118 1_555
O17 Y0 2.300498 1_555
O17 Y4 2.563567 1_555
O18 Te3 1.998996 1_455
O18 Y5 2.320308 1_555
O18 Y7 2.502904 1_455
O18 Y1 2.569530 1_555
O19 Te2 1.937457 1_555
O19 Y7 2.209283 1_555
O19 Y0 2.424100 1_555
O20 Te3 2.038706 1_555
O20 Y7 2.262118 1_555
O20 Y1 2.300498 1_555
O20 Y5 2.563567 1_555
O21 Te2 2.019819 1_555
O21 Y2 2.324280 1_545
O21 Y0 2.336285 1_455
O21 Y7 2.540100 1_455
O22 Te3 1.937457 1_555
O22 Y6 2.209283 1_554
O22 Y1 2.424100 1_555
O23 Te3 2.019819 1_555
O23 Y3 2.324280 1_545
O23 Y1 2.336285 1_655
O23 Y6 2.540100 1_654
