# generated using pymatgen
data_CaTm2O4
_symmetry_space_group_name_H-M   'P 1'
_cell_length_a   5.68786651
_cell_length_b   5.68786651
_cell_length_c   10.84274900
_cell_angle_alpha   90.00000000
_cell_angle_beta   90.00000000
_cell_angle_gamma   146.53258647
_symmetry_Int_Tables_number   1
_chemical_formula_structural   CaTm2O4
_chemical_formula_sum   'Ca2 Tm4 O8'
_cell_volume   193.44356318
_cell_formula_units_Z   2
loop_
 _symmetry_equiv_pos_site_id
 _symmetry_equiv_pos_as_xyz
  1  'x, y, z'
loop_
 _atom_site_type_symbol
 _atom_site_label
 _atom_site_symmetry_multiplicity
 _atom_site_fract_x
 _atom_site_fract_y
 _atom_site_fract_z
 _atom_site_occupancy
  Ca  Ca0  1  0.88851200  0.11148800  0.25000000  1
  Ca  Ca1  1  0.11148800  0.88851200  0.75000000  1
  Tm  Tm0  1  0.63254800  0.36745200  0.42616900  1
  Tm  Tm1  1  0.63254800  0.36745200  0.07383100  1
  Tm  Tm2  1  0.36745200  0.63254800  0.57383100  1
  Tm  Tm3  1  0.36745200  0.63254800  0.92616900  1
  O  O0  1  0.00000000  0.00000000  0.00000000  1
  O  O1  1  0.00000000  0.00000000  0.50000000  1
  O  O2  1  0.53624000  0.46376000  0.25000000  1
  O  O3  1  0.73478000  0.26522000  0.61203900  1
  O  O4  1  0.73478000  0.26522000  0.88796100  1
  O  O5  1  0.46376000  0.53624000  0.75000000  1
  O  O6  1  0.26522000  0.73478000  0.38796100  1
  O  O7  1  0.26522000  0.73478000  0.11203900  1
loop_
_geom_bond_atom_site_label_1
_geom_bond_atom_site_label_2
_geom_bond_distance
_geom_bond_site_symmetry_2
Ca0 O2 2.296079 1_545
Ca0 O2 2.296079 1_655
Ca0 O6 2.593001 1_545
Ca0 O7 2.593001 1_545
Ca0 O6 2.593001 1_655
Ca0 O7 2.593001 1_655
Ca0 O1 2.970347 1_655
Ca0 O0 2.970347 1_655
Ca1 O5 2.296079 1_455
Ca1 O5 2.296079 1_565
Ca1 O3 2.593001 1_455
Ca1 O4 2.593001 1_565
Ca1 O4 2.593001 1_455
Ca1 O3 2.593001 1_565
Ca1 O0 2.970347 1_566
Ca1 O1 2.970347 1_565
O0 Tm3 2.325489 1_444
O0 Tm1 2.325489 1_445
O0 Tm1 2.325489 1_555
O0 Tm3 2.325489 1_554
O1 Tm0 2.325489 1_445
O1 Tm2 2.325489 1_555
O1 Tm0 2.325489 1_555
O1 Tm2 2.325489 1_445
O2 Tm1 2.179329 1_555
O2 Tm0 2.179329 1_555
O3 Tm2 2.223191 1_545
O3 Tm2 2.223191 1_655
O3 Tm0 2.302600 1_555
O4 Tm3 2.223191 1_545
O4 Tm3 2.223191 1_655
O4 Tm1 2.302600 1_556
O5 Tm2 2.179329 1_555
O5 Tm3 2.179329 1_555
O6 Tm0 2.223191 1_455
O6 Tm0 2.223191 1_565
O6 Tm2 2.302600 1_555
O7 Tm1 2.223191 1_455
O7 Tm1 2.223191 1_565
O7 Tm3 2.302600 1_554
