# generated using pymatgen
data_Ce2UO6
_symmetry_space_group_name_H-M   'P 1'
_cell_length_a   6.64383851
_cell_length_b   6.64383851
_cell_length_c   6.64383851
_cell_angle_alpha   146.11808741
_cell_angle_beta   131.41474067
_cell_angle_gamma   60.54807222
_symmetry_Int_Tables_number   1
_chemical_formula_structural   Ce2UO6
_chemical_formula_sum   'Ce2 U1 O6'
_cell_volume   121.44285636
_cell_formula_units_Z   1
loop_
 _symmetry_equiv_pos_site_id
 _symmetry_equiv_pos_as_xyz
  1  'x, y, z'
loop_
 _atom_site_type_symbol
 _atom_site_label
 _atom_site_symmetry_multiplicity
 _atom_site_fract_x
 _atom_site_fract_y
 _atom_site_fract_z
 _atom_site_occupancy
  Ce  Ce0  1  0.16621900  0.66621900  0.50000000  1
  Ce  Ce1  1  0.83378100  0.33378100  0.50000000  1
  U  U0  1  0.50000000  0.00000000  0.50000000  1
  O  O0  1  0.41441300  0.16011500  0.25429800  1
  O  O1  1  0.26578400  0.50000000  0.76578400  1
  O  O2  1  0.90581600  0.16011500  0.74570200  1
  O  O3  1  0.09418400  0.83988500  0.25429800  1
  O  O4  1  0.73421600  0.50000000  0.23421600  1
  O  O5  1  0.58558700  0.83988500  0.74570200  1
loop_
_geom_bond_atom_site_label_1
_geom_bond_atom_site_label_2
_geom_bond_distance
_geom_bond_site_symmetry_2
Ce0 O0 2.384354 1_566
Ce0 O0 2.384354 1_555
Ce0 O2 2.384354 1_454
Ce0 O2 2.384357 1_465
Ce0 O1 2.397778 1_555
Ce0 O4 2.397778 1_455
Ce0 O5 2.403271 1_555
Ce0 O3 2.403275 1_555
Ce1 O5 2.384354 1_544
Ce1 O5 2.384354 1_555
Ce1 O3 2.384354 1_656
Ce1 O3 2.384357 1_645
Ce1 O4 2.397778 1_555
Ce1 O1 2.397778 1_655
Ce1 O0 2.403271 1_555
Ce1 O2 2.403275 1_555
O0 U0 2.275978 1_555
O1 U0 2.321008 1_566
O1 U0 2.321008 1_555
O2 U0 2.275972 1_555
O3 U0 2.275972 1_565
O4 U0 2.321008 1_565
O4 U0 2.321008 1_554
O5 U0 2.275978 1_565
