# generated using pymatgen
data_Tm2WO6
_symmetry_space_group_name_H-M   'P 1'
_cell_length_a   9.78324885
_cell_length_b   9.78324885
_cell_length_c   5.34113025
_cell_angle_alpha   75.83290949
_cell_angle_beta   75.83290949
_cell_angle_gamma   68.29995370
_symmetry_Int_Tables_number   1
_chemical_formula_structural   Tm2WO6
_chemical_formula_sum   'Tm8 W4 O24'
_cell_volume   453.73425233
_cell_formula_units_Z   4
loop_
 _symmetry_equiv_pos_site_id
 _symmetry_equiv_pos_as_xyz
  1  'x, y, z'
loop_
 _atom_site_type_symbol
 _atom_site_label
 _atom_site_symmetry_multiplicity
 _atom_site_fract_x
 _atom_site_fract_y
 _atom_site_fract_z
 _atom_site_occupancy
  Tm  Tm0  1  0.94488000  0.71650700  0.38153700  1
  Tm  Tm1  1  0.71650700  0.94488000  0.88153700  1
  Tm  Tm2  1  0.36516400  0.63483600  0.25000000  1
  Tm  Tm3  1  0.89591000  0.10409000  0.25000000  1
  Tm  Tm4  1  0.10409000  0.89591000  0.75000000  1
  Tm  Tm5  1  0.63483600  0.36516400  0.75000000  1
  Tm  Tm6  1  0.28349300  0.05512000  0.11846300  1
  Tm  Tm7  1  0.05512000  0.28349300  0.61846300  1
  W  W0  1  0.80064300  0.50641400  0.06763400  1
  W  W1  1  0.50641400  0.80064300  0.56763400  1
  W  W2  1  0.49358600  0.19935700  0.43236600  1
  W  W3  1  0.19935700  0.49358600  0.93236600  1
  O  O0  1  0.89223400  0.92572100  0.07800900  1
  O  O1  1  0.92572100  0.89223400  0.57800900  1
  O  O2  1  0.52620000  0.94134400  0.25758100  1
  O  O3  1  0.78504500  0.68669500  0.14749500  1
  O  O4  1  0.94134400  0.52620000  0.75758100  1
  O  O5  1  0.68669500  0.78504500  0.64749500  1
  O  O6  1  0.82314000  0.37899000  0.39084300  1
  O  O7  1  0.37899000  0.82314000  0.89084300  1
  O  O8  1  0.60996600  0.54497700  0.01881000  1
  O  O9  1  0.30984300  0.84122700  0.42210200  1
  O  O10  1  0.54497700  0.60996600  0.51881000  1
  O  O11  1  0.84122700  0.30984300  0.92210200  1
  O  O12  1  0.15877300  0.69015700  0.07789800  1
  O  O13  1  0.45502300  0.39003400  0.48119000  1
  O  O14  1  0.69015700  0.15877300  0.57789800  1
  O  O15  1  0.39003400  0.45502300  0.98119000  1
  O  O16  1  0.62101000  0.17686000  0.10915700  1
  O  O17  1  0.17686000  0.62101000  0.60915700  1
  O  O18  1  0.31330500  0.21495500  0.35250500  1
  O  O19  1  0.05865600  0.47380000  0.24241900  1
  O  O20  1  0.21495500  0.31330500  0.85250500  1
  O  O21  1  0.47380000  0.05865600  0.74241900  1
  O  O22  1  0.07427900  0.10776600  0.42199100  1
  O  O23  1  0.10776600  0.07427900  0.92199100  1
loop_
_geom_bond_atom_site_label_1
_geom_bond_atom_site_label_2
_geom_bond_distance
_geom_bond_site_symmetry_2
O0 Tm1 2.154169 1_554
O0 Tm3 2.176593 1_565
O0 Tm0 2.255604 1_555
O0 Tm4 2.340051 1_654
O1 Tm0 2.154169 1_555
O1 Tm4 2.176593 1_655
O1 Tm1 2.255604 1_555
O1 Tm3 2.340051 1_565
O2 W1 1.897100 1_555
O2 Tm1 2.384280 1_554
O2 Tm6 2.435873 1_565
O3 W0 1.858320 1_555
O3 Tm0 2.359114 1_555
O3 Tm1 2.510977 1_554
O4 W0 1.897100 1_556
O4 Tm0 2.384280 1_555
O4 Tm7 2.435873 1_655
O5 W1 1.858320 1_555
O5 Tm1 2.359114 1_555
O5 Tm0 2.510977 1_555
O6 W0 1.874108 1_555
O6 Tm5 2.327953 1_555
O6 Tm7 2.593887 1_655
O6 Tm3 2.760069 1_555
O7 W1 1.874108 1_555
O7 Tm2 2.327953 1_556
O7 Tm6 2.593887 1_566
O7 Tm4 2.760069 1_555
O8 W0 1.832957 1_555
O8 Tm2 2.358015 1_555
O8 Tm5 2.442135 1_554
O9 W1 2.115698 1_555
O9 Tm2 2.252073 1_555
O9 Tm6 2.284728 1_565
O9 Tm4 2.311264 1_555
O10 W1 1.832957 1_555
O10 Tm5 2.358015 1_555
O10 Tm2 2.442135 1_555
O11 W0 2.115698 1_556
O11 Tm5 2.252073 1_555
O11 Tm7 2.284728 1_655
O11 Tm3 2.311264 1_556
O12 W3 2.115698 1_554
O12 Tm2 2.252073 1_555
O12 Tm0 2.284728 1_455
O12 Tm4 2.311264 1_554
O13 W2 1.832957 1_555
O13 Tm2 2.358015 1_555
O13 Tm5 2.442135 1_555
O14 W2 2.115698 1_555
O14 Tm5 2.252073 1_555
O14 Tm1 2.284728 1_545
O14 Tm3 2.311264 1_555
O15 W3 1.832957 1_555
O15 Tm5 2.358015 1_555
O15 Tm2 2.442135 1_556
O16 W2 1.874108 1_555
O16 Tm5 2.327953 1_554
O16 Tm1 2.593887 1_544
O16 Tm3 2.760069 1_555
O17 W3 1.874108 1_555
O17 Tm2 2.327953 1_555
O17 Tm0 2.593887 1_455
O17 Tm4 2.760069 1_555
O18 W2 1.858320 1_555
O18 Tm6 2.359114 1_555
O18 Tm7 2.510977 1_555
O19 W3 1.897100 1_554
O19 Tm7 2.384280 1_555
O19 Tm0 2.435873 1_455
O20 W3 1.858320 1_555
O20 Tm7 2.359114 1_555
O20 Tm6 2.510977 1_556
O21 W2 1.897100 1_555
O21 Tm6 2.384280 1_556
O21 Tm1 2.435873 1_545
O22 Tm7 2.154169 1_555
O22 Tm3 2.176593 1_455
O22 Tm6 2.255604 1_555
O22 Tm4 2.340051 1_545
O23 Tm6 2.154169 1_556
O23 Tm4 2.176593 1_545
O23 Tm7 2.255604 1_555
O23 Tm3 2.340051 1_456
