# generated using pymatgen
data_LiFeO3
_symmetry_space_group_name_H-M   'P 1'
_cell_length_a   8.69735631
_cell_length_b   8.69735631
_cell_length_c   9.89540604
_cell_angle_alpha   82.35823657
_cell_angle_beta   82.35823657
_cell_angle_gamma   58.94605295
_symmetry_Int_Tables_number   1
_chemical_formula_structural   LiFeO3
_chemical_formula_sum   'Li12 Fe12 O36'
_cell_volume   633.72581038
_cell_formula_units_Z   12
loop_
 _symmetry_equiv_pos_site_id
 _symmetry_equiv_pos_as_xyz
  1  'x, y, z'
loop_
 _atom_site_type_symbol
 _atom_site_label
 _atom_site_symmetry_multiplicity
 _atom_site_fract_x
 _atom_site_fract_y
 _atom_site_fract_z
 _atom_site_occupancy
  Li  Li0  1  0.99478400  0.67549800  0.49457100  1
  Li  Li1  1  0.86871000  0.86871000  0.04231100  1
  Li  Li2  1  0.72201700  0.72201700  0.92645500  1
  Li  Li3  1  0.67549800  0.99478400  0.49457100  1
  Li  Li4  1  0.64851000  0.64851000  0.47913900  1
  Li  Li5  1  0.53633100  0.53633100  0.04095300  1
  Li  Li6  1  0.43650400  0.43650400  0.56052000  1
  Li  Li7  1  0.38738300  0.38738300  0.93067200  1
  Li  Li8  1  0.20122800  0.20122800  0.03981200  1
  Li  Li9  1  0.22780900  0.22780900  0.43256700  1
  Li  Li10  1  0.05399500  0.05399500  0.92918800  1
  Li  Li11  1  0.01353100  0.01353100  0.51396100  1
  Fe  Fe0  1  0.91860100  0.58030400  0.24816900  1
  Fe  Fe1  1  0.91148400  0.25206200  0.25172500  1
  Fe  Fe2  1  0.74373000  0.08157900  0.74984300  1
  Fe  Fe3  1  0.75044100  0.41019600  0.74675700  1
  Fe  Fe4  1  0.58030400  0.91860100  0.24816900  1
  Fe  Fe5  1  0.58520400  0.24852700  0.24984300  1
  Fe  Fe6  1  0.41019600  0.75044100  0.74675700  1
  Fe  Fe7  1  0.41347600  0.07777600  0.74751100  1
  Fe  Fe8  1  0.24852700  0.58520400  0.24984300  1
  Fe  Fe9  1  0.25206200  0.91148400  0.25172500  1
  Fe  Fe10  1  0.08157900  0.74373000  0.74984300  1
  Fe  Fe11  1  0.07777600  0.41347600  0.74751100  1
  O  O0  1  0.98226800  0.61299300  0.85447700  1
  O  O1  1  0.94009500  0.94009500  0.86102500  1
  O  O2  1  0.94729600  0.31515000  0.85466800  1
  O  O3  1  0.88179700  0.51013800  0.64042100  1
  O  O4  1  0.88854100  0.88854100  0.63090800  1
  O  O5  1  0.84194300  0.21221100  0.64367000  1
  O  O6  1  0.81953500  0.45098600  0.35561500  1
  O  O7  1  0.77481000  0.77481000  0.36675500  1
  O  O8  1  0.78137700  0.15045600  0.35954700  1
  O  O9  1  0.64814800  0.28099400  0.85458900  1
  O  O10  1  0.72956700  0.72956700  0.13113200  1
  O  O11  1  0.71982100  0.34085200  0.14393100  1
  O  O12  1  0.60788300  0.60788300  0.85832000  1
  O  O13  1  0.61299300  0.98226800  0.85447700  1
  O  O14  1  0.67400300  0.05363000  0.14370000  1
  O  O15  1  0.55167100  0.55167100  0.63701600  1
  O  O16  1  0.54901800  0.17493200  0.63961800  1
  O  O17  1  0.51013800  0.88179700  0.64042100  1
  O  O18  1  0.48662400  0.11466700  0.35878300  1
  O  O19  1  0.45098600  0.81953500  0.35561500  1
  O  O20  1  0.44392900  0.44392900  0.35897300  1
  O  O21  1  0.31515000  0.94729600  0.85466800  1
  O  O22  1  0.38511400  0.00805200  0.14440000  1
  O  O23  1  0.39517300  0.39517300  0.13250800  1
  O  O24  1  0.28099400  0.64814800  0.85458900  1
  O  O25  1  0.27504500  0.27504500  0.85929000  1
  O  O26  1  0.34085200  0.71982100  0.14393100  1
  O  O27  1  0.21221100  0.84194300  0.64367000  1
  O  O28  1  0.21941700  0.21941700  0.63787200  1
  O  O29  1  0.17493200  0.54901800  0.63961800  1
  O  O30  1  0.15045600  0.78137700  0.35954700  1
  O  O31  1  0.11169300  0.11169300  0.36047900  1
  O  O32  1  0.11466700  0.48662400  0.35878300  1
  O  O33  1  0.05363000  0.67400300  0.14370000  1
  O  O34  1  0.06163300  0.06163300  0.13412900  1
  O  O35  1  0.00805200  0.38511400  0.14440000  1
loop_
_geom_bond_atom_site_label_1
_geom_bond_atom_site_label_2
_geom_bond_distance
_geom_bond_site_symmetry_2
Li0 O32 2.009592 1_655
Li0 O29 2.031028 1_655
Li0 O7 2.157357 1_555
Li0 O4 2.161965 1_555
Li0 O30 2.223578 1_655
Li0 O3 2.376107 1_555
Li1 O14 1.904832 1_565
Li1 O33 1.904832 1_655
Li1 O1 1.947887 1_554
Li1 O10 2.155625 1_555
Li2 O12 1.948833 1_555
Li2 O13 2.016526 1_555
Li2 O0 2.016526 1_555
Li2 O10 2.045949 1_556
Li3 O18 2.009592 1_565
Li3 O16 2.031028 1_565
Li3 O7 2.157357 1_555
Li3 O4 2.161965 1_555
Li3 O8 2.223578 1_565
Li3 O17 2.376107 1_555
Li4 O15 1.972651 1_555
Li4 O19 2.023981 1_555
Li4 O6 2.023981 1_555
Li4 O7 2.060372 1_555
Li4 O3 2.437900 1_555
Li4 O17 2.437900 1_555
Li5 O11 1.910038 1_555
Li5 O26 1.910038 1_555
Li5 O12 1.960087 1_554
Li5 O23 2.190588 1_555
Li6 O20 1.980335 1_555
Li6 O15 2.004490 1_555
Li6 O16 2.044293 1_555
Li6 O29 2.044293 1_555
Li7 O25 1.939104 1_555
Li7 O23 2.018638 1_556
Li7 O9 2.032921 1_555
Li7 O24 2.032921 1_555
Li8 O22 1.912405 1_555
Li8 O35 1.912405 1_555
Li8 O25 1.957187 1_554
Li8 O34 2.176513 1_555
Li9 O31 1.996015 1_555
Li9 O18 2.009265 1_555
Li9 O32 2.009265 1_555
Li9 O28 2.016080 1_555
Li10 O1 1.945637 1_445
Li10 O2 2.031242 1_455
Li10 O21 2.031242 1_545
Li10 O34 2.048833 1_556
Li11 O31 1.956198 1_555
Li11 O4 2.062217 1_445
Li11 O5 2.068926 1_455
Li11 O27 2.068926 1_545
Li11 O8 2.384463 1_455
Li11 O30 2.384463 1_545
Fe0 O35 1.852076 1_655
Fe0 O33 1.884789 1_655
Fe0 O6 1.891012 1_555
Fe0 O32 1.896218 1_655
Fe0 O10 1.906350 1_555
Fe0 O7 1.938505 1_555
Fe1 O11 1.854353 1_555
Fe1 O6 1.875268 1_555
Fe1 O35 1.900276 1_655
Fe1 O31 1.906941 1_655
Fe1 O8 1.913009 1_555
Fe1 O34 1.918224 1_655
Fe2 O9 1.880146 1_555
Fe2 O16 1.885191 1_555
Fe2 O5 1.889287 1_555
Fe2 O13 1.890319 1_545
Fe2 O1 1.900763 1_545
Fe2 O4 1.933879 1_545
Fe3 O5 1.864531 1_555
Fe3 O2 1.883147 1_555
Fe3 O3 1.905128 1_555
Fe3 O15 1.905586 1_555
Fe3 O9 1.911254 1_555
Fe3 O12 1.911449 1_555
Fe4 O22 1.852076 1_565
Fe4 O14 1.884789 1_565
Fe4 O19 1.891012 1_555
Fe4 O18 1.896218 1_565
Fe4 O10 1.906350 1_555
Fe4 O7 1.938505 1_555
Fe5 O14 1.865509 1_555
Fe5 O11 1.879826 1_555
Fe5 O20 1.882813 1_555
Fe5 O8 1.887320 1_555
Fe5 O23 1.910025 1_555
Fe5 O18 1.924280 1_555
Fe6 O27 1.864531 1_555
Fe6 O21 1.883147 1_555
Fe6 O17 1.905128 1_555
Fe6 O15 1.905586 1_555
Fe6 O24 1.911254 1_555
Fe6 O12 1.911449 1_555
Fe7 O17 1.870861 1_545
Fe7 O28 1.878766 1_555
Fe7 O21 1.893031 1_545
Fe7 O13 1.894486 1_545
Fe7 O25 1.906857 1_555
Fe7 O16 1.922661 1_555
Fe8 O33 1.865509 1_555
Fe8 O26 1.879826 1_555
Fe8 O20 1.882813 1_555
Fe8 O30 1.887320 1_555
Fe8 O23 1.910025 1_555
Fe8 O32 1.924280 1_555
Fe9 O26 1.854353 1_555
Fe9 O19 1.875268 1_555
Fe9 O22 1.900276 1_565
Fe9 O31 1.906941 1_565
Fe9 O30 1.913009 1_555
Fe9 O34 1.918224 1_565
Fe10 O24 1.880146 1_555
Fe10 O29 1.885191 1_555
Fe10 O27 1.889287 1_555
Fe10 O0 1.890319 1_455
Fe10 O1 1.900763 1_455
Fe10 O4 1.933879 1_455
Fe11 O3 1.870861 1_455
Fe11 O28 1.878766 1_555
Fe11 O2 1.893031 1_455
Fe11 O0 1.894486 1_455
Fe11 O25 1.906857 1_555
Fe11 O29 1.922661 1_555
