# generated using pymatgen
data_LiNi4(PO4)3
_symmetry_space_group_name_H-M   'P 1'
_cell_length_a   8.04889283
_cell_length_b   8.04889283
_cell_length_c   9.92531200
_cell_angle_alpha   90.00000000
_cell_angle_beta   90.00000000
_cell_angle_gamma   133.29057626
_symmetry_Int_Tables_number   1
_chemical_formula_structural   LiNi4(PO4)3
_chemical_formula_sum   'Li2 Ni8 P6 O24'
_cell_volume   468.03631799
_cell_formula_units_Z   2
loop_
 _symmetry_equiv_pos_site_id
 _symmetry_equiv_pos_as_xyz
  1  'x, y, z'
loop_
 _atom_site_type_symbol
 _atom_site_label
 _atom_site_symmetry_multiplicity
 _atom_site_fract_x
 _atom_site_fract_y
 _atom_site_fract_z
 _atom_site_occupancy
  Li  Li0  1  0.02207600  0.97792400  0.25393900  1
  Li  Li1  1  0.97792400  0.02207600  0.75393900  1
  Ni  Ni0  1  0.62586800  0.37413200  0.43988000  1
  Ni  Ni1  1  0.05366000  0.45265300  0.25037200  1
  Ni  Ni2  1  0.54734700  0.94634000  0.25037200  1
  Ni  Ni3  1  0.63197200  0.36802800  0.06199700  1
  Ni  Ni4  1  0.37413200  0.62586800  0.93988000  1
  Ni  Ni5  1  0.45265300  0.05366000  0.75037200  1
  Ni  Ni6  1  0.94634000  0.54734700  0.75037200  1
  Ni  Ni7  1  0.36802800  0.63197200  0.56199700  1
  P  P0  1  0.18485400  0.81514600  0.46336500  1
  P  P1  1  0.47882500  0.52117500  0.20465100  1
  P  P2  1  0.18488400  0.81511600  0.03475900  1
  P  P3  1  0.81514600  0.18485400  0.96336500  1
  P  P4  1  0.52117500  0.47882500  0.70465100  1
  P  P5  1  0.81511600  0.18488400  0.53475900  1
  O  O0  1  0.32433100  0.06013300  0.42341900  1
  O  O1  1  0.93986700  0.67566900  0.42341900  1
  O  O2  1  0.28081500  0.71918500  0.38709700  1
  O  O3  1  0.78523600  0.21476400  0.38089300  1
  O  O4  1  0.22721000  0.36221100  0.25330100  1
  O  O5  1  0.63778900  0.77279000  0.25330100  1
  O  O6  1  0.57838900  0.42161100  0.25243600  1
  O  O7  1  0.78421700  0.21578300  0.11725500  1
  O  O8  1  0.28025900  0.71974100  0.11245600  1
  O  O9  1  0.32436700  0.06063000  0.07417400  1
  O  O10  1  0.93937000  0.67563300  0.07417400  1
  O  O11  1  0.48833500  0.51166500  0.04851300  1
  O  O12  1  0.06013300  0.32433100  0.92341900  1
  O  O13  1  0.67566900  0.93986700  0.92341900  1
  O  O14  1  0.71918500  0.28081500  0.88709700  1
  O  O15  1  0.21476400  0.78523600  0.88089300  1
  O  O16  1  0.42161100  0.57838900  0.75243600  1
  O  O17  1  0.77279000  0.63778900  0.75330100  1
  O  O18  1  0.36221100  0.22721000  0.75330100  1
  O  O19  1  0.21578300  0.78421700  0.61725500  1
  O  O20  1  0.71974100  0.28025900  0.61245600  1
  O  O21  1  0.67563300  0.93937000  0.57417400  1
  O  O22  1  0.06063000  0.32436700  0.57417400  1
  O  O23  1  0.51166500  0.48833400  0.54851300  1
loop_
_geom_bond_atom_site_label_1
_geom_bond_atom_site_label_2
_geom_bond_distance
_geom_bond_site_symmetry_2
Li0 O4 2.299919 1_565
Li0 O5 2.299919 1_455
Li1 O18 2.299919 1_655
Li1 O17 2.299919 1_545
Ni0 O0 1.972962 1_555
Ni0 O1 1.972962 1_555
Ni0 O6 1.988366 1_555
Ni0 O23 2.002789 1_555
Ni0 O20 2.204230 1_555
Ni0 O3 2.426954 1_555
Ni1 O4 1.968907 1_555
Ni1 O3 2.083039 1_455
Ni1 O2 2.099426 1_555
Ni1 O7 2.100832 1_455
Ni1 O8 2.108237 1_555
Ni2 O5 1.968907 1_555
Ni2 O3 2.083039 1_565
Ni2 O2 2.099426 1_555
Ni2 O7 2.100832 1_565
Ni2 O8 2.108237 1_555
Ni3 O9 1.966047 1_555
Ni3 O10 1.966047 1_555
Ni3 O6 2.049348 1_555
Ni3 O11 2.127007 1_555
Ni3 O14 2.162120 1_554
Ni3 O7 2.315888 1_555
Ni4 O12 1.972962 1_555
Ni4 O13 1.972962 1_555
Ni4 O16 1.988366 1_555
Ni4 O11 2.002795 1_556
Ni4 O8 2.204230 1_556
Ni4 O15 2.426954 1_555
Ni5 O18 1.968907 1_555
Ni5 O15 2.083039 1_545
Ni5 O14 2.099426 1_555
Ni5 O19 2.100832 1_545
Ni5 O20 2.108237 1_555
Ni6 O17 1.968907 1_555
Ni6 O15 2.083039 1_655
Ni6 O14 2.099426 1_555
Ni6 O19 2.100832 1_655
Ni6 O20 2.108237 1_555
Ni7 O22 1.966047 1_555
Ni7 O21 1.966047 1_555
Ni7 O16 2.049348 1_555
Ni7 O23 2.127014 1_555
Ni7 O2 2.162120 1_555
Ni7 O19 2.315888 1_555
O0 P0 1.506630 1_545
O1 P0 1.506630 1_655
O2 P0 1.607576 1_555
O3 P5 1.589731 1_555
O4 P1 1.555039 1_555
O5 P1 1.555039 1_555
O6 P1 1.545991 1_555
O7 P3 1.594336 1_554
O8 P2 1.606700 1_555
O9 P2 1.508634 1_545
O10 P2 1.508634 1_655
O11 P1 1.556079 1_555
O12 P3 1.506630 1_455
O13 P3 1.506630 1_565
O14 P3 1.607576 1_555
O15 P2 1.589731 1_556
O16 P4 1.545991 1_555
O17 P4 1.555039 1_555
O18 P4 1.555039 1_555
O19 P0 1.594336 1_555
O20 P5 1.606700 1_555
O21 P5 1.508634 1_565
O22 P5 1.508634 1_455
O23 P4 1.556078 1_555
