# generated using pymatgen
data_Li6CuO4
_symmetry_space_group_name_H-M   'P 1'
_cell_length_a   6.63328300
_cell_length_b   6.63328300
_cell_length_c   4.58955900
_cell_angle_alpha   90.00000000
_cell_angle_beta   90.00000000
_cell_angle_gamma   90.00000000
_symmetry_Int_Tables_number   1
_chemical_formula_structural   Li6CuO4
_chemical_formula_sum   'Li12 Cu2 O8'
_cell_volume   201.94263082
_cell_formula_units_Z   2
loop_
 _symmetry_equiv_pos_site_id
 _symmetry_equiv_pos_as_xyz
  1  'x, y, z'
loop_
 _atom_site_type_symbol
 _atom_site_label
 _atom_site_symmetry_multiplicity
 _atom_site_fract_x
 _atom_site_fract_y
 _atom_site_fract_z
 _atom_site_occupancy
  Li  Li0  1  0.78167800  0.78167800  0.50000000  1
  Li  Li1  1  0.21832200  0.78167800  0.50000000  1
  Li  Li2  1  0.50000000  0.00000000  0.43749100  1
  Li  Li3  1  0.50000000  0.00000000  0.93749100  1
  Li  Li4  1  0.78167800  0.21832200  0.50000000  1
  Li  Li5  1  0.21832200  0.21832200  0.50000000  1
  Li  Li6  1  0.28167800  0.28167800  0.00000000  1
  Li  Li7  1  0.71832200  0.28167800  0.00000000  1
  Li  Li8  1  0.00000000  0.50000000  0.06250900  1
  Li  Li9  1  0.00000000  0.50000000  0.56250900  1
  Li  Li10  1  0.28167800  0.71832200  0.00000000  1
  Li  Li11  1  0.71832200  0.71832200  0.00000000  1
  Cu  Cu0  1  0.00000000  0.00000000  0.00000000  1
  Cu  Cu1  1  0.50000000  0.50000000  0.50000000  1
  O  O0  1  0.50000000  0.76757800  0.69728900  1
  O  O1  1  0.26757800  0.00000000  0.19728900  1
  O  O2  1  0.73242200  0.00000000  0.19728900  1
  O  O3  1  0.50000000  0.23242200  0.69728900  1
  O  O4  1  0.00000000  0.26757800  0.80271100  1
  O  O5  1  0.76757800  0.50000000  0.30271100  1
  O  O6  1  0.23242200  0.50000000  0.30271100  1
  O  O7  1  0.00000000  0.73242200  0.80271100  1
loop_
_geom_bond_atom_site_label_1
_geom_bond_atom_site_label_2
_geom_bond_distance
_geom_bond_site_symmetry_2
Li0 O7 2.033272 1_655
Li0 O2 2.033272 1_565
Li0 O5 2.078395 1_555
Li0 O0 2.078395 1_555
Li1 O7 2.033272 1_555
Li1 O1 2.033272 1_565
Li1 O0 2.078395 1_555
Li1 O6 2.078395 1_555
Li2 O2 1.895319 1_555
Li2 O1 1.895319 1_555
Li2 O3 1.949005 1_555
Li2 O0 1.949005 1_545
Li3 O3 1.895319 1_555
Li3 O0 1.895319 1_545
Li3 O2 1.949005 1_556
Li3 O1 1.949005 1_556
Li4 O2 2.033272 1_555
Li4 O4 2.033272 1_655
Li4 O5 2.078395 1_555
Li4 O3 2.078395 1_555
Li5 O4 2.033272 1_555
Li5 O1 2.033272 1_555
Li5 O6 2.078395 1_555
Li5 O3 2.078395 1_555
Li6 O3 2.033272 1_554
Li6 O6 2.033272 1_555
Li6 O1 2.078395 1_555
Li6 O4 2.078395 1_554
Li7 O3 2.033272 1_554
Li7 O5 2.033272 1_555
Li7 O2 2.078395 1_555
Li7 O4 2.078395 1_654
Li8 O6 1.895319 1_555
Li8 O5 1.895319 1_455
Li8 O4 1.949005 1_554
Li8 O7 1.949005 1_554
Li9 O7 1.895319 1_555
Li9 O4 1.895319 1_555
Li9 O6 1.949005 1_555
Li9 O5 1.949005 1_455
Li10 O0 2.033272 1_554
Li10 O6 2.033272 1_555
Li10 O7 2.078395 1_554
Li10 O1 2.078395 1_565
Li11 O0 2.033272 1_554
Li11 O5 2.033272 1_555
Li11 O7 2.078395 1_654
Li11 O2 2.078395 1_565
Cu0 O1 1.992541 1_555
Cu0 O2 1.992541 1_455
Cu0 O4 1.992541 1_554
Cu0 O7 1.992541 1_544
Cu1 O6 1.992541 1_555
Cu1 O5 1.992541 1_555
Cu1 O3 1.992541 1_555
Cu1 O0 1.992541 1_555
