# generated using pymatgen
data_FeOF
_symmetry_space_group_name_H-M   'P 1'
_cell_length_a   3.10016000
_cell_length_b   14.19786400
_cell_length_c   14.23495679
_cell_angle_alpha   89.79090452
_cell_angle_beta   90.00000000
_cell_angle_gamma   90.00000000
_symmetry_Int_Tables_number   1
_chemical_formula_structural   FeOF
_chemical_formula_sum   'Fe18 O18 F18'
_cell_volume   626.55670442
_cell_formula_units_Z   18
loop_
 _symmetry_equiv_pos_site_id
 _symmetry_equiv_pos_as_xyz
  1  'x, y, z'
loop_
 _atom_site_type_symbol
 _atom_site_label
 _atom_site_symmetry_multiplicity
 _atom_site_fract_x
 _atom_site_fract_y
 _atom_site_fract_z
 _atom_site_occupancy
  Fe  Fe0  1  0.00000000  0.98613900  0.99945600  1
  Fe  Fe1  1  0.00000000  0.99721200  0.33950700  1
  Fe  Fe2  1  0.00000000  0.99188900  0.65918200  1
  Fe  Fe3  1  0.50000000  0.85481500  0.17281900  1
  Fe  Fe4  1  0.50000000  0.84653500  0.49570400  1
  Fe  Fe5  1  0.50000000  0.82741800  0.85062200  1
  Fe  Fe6  1  0.00000000  0.66647800  0.00249900  1
  Fe  Fe7  1  0.00000000  0.65489100  0.33057500  1
  Fe  Fe8  1  0.00000000  0.65419900  0.66390700  1
  Fe  Fe9  1  0.50000000  0.51251900  0.49688400  1
  Fe  Fe10  1  0.50000000  0.51402700  0.16301800  1
  Fe  Fe11  1  0.50000000  0.49988900  0.81698500  1
  Fe  Fe12  1  0.00000000  0.31982700  0.99812800  1
  Fe  Fe13  1  0.00000000  0.31978400  0.33160700  1
  Fe  Fe14  1  0.00000000  0.33236900  0.67653800  1
  Fe  Fe15  1  0.50000000  0.17925700  0.16533400  1
  Fe  Fe16  1  0.50000000  0.16694500  0.48079000  1
  Fe  Fe17  1  0.50000000  0.18011600  0.83164700  1
  O  O0  1  0.50000000  0.93789000  0.27231500  1
  O  O1  1  0.50000000  0.93422600  0.60600000  1
  O  O2  1  0.50000000  0.93537400  0.93237700  1
  O  O3  1  0.00000000  0.89941200  0.10283800  1
  O  O4  1  0.00000000  0.89523000  0.43763500  1
  O  O5  1  0.00000000  0.76100500  0.90342500  1
  O  O6  1  0.50000000  0.60194800  0.26666500  1
  O  O7  1  0.50000000  0.60039900  0.60330200  1
  O  O8  1  0.00000000  0.56820200  0.09650600  1
  O  O9  1  0.00000000  0.56552900  0.43536400  1
  O  O10  1  0.00000000  0.56824700  0.77226800  1
  O  O11  1  0.50000000  0.39644800  0.73008100  1
  O  O12  1  0.50000000  0.26975800  0.26809000  1
  O  O13  1  0.50000000  0.27015900  0.93374800  1
  O  O14  1  0.00000000  0.23194700  0.10139900  1
  O  O15  1  0.00000000  0.23505800  0.43679000  1
  O  O16  1  0.00000000  0.22640400  0.76457200  1
  O  O17  1  0.50000000  0.06441000  0.39894100  1
  F  F0  1  0.00000000  0.89506400  0.77086200  1
  F  F1  1  0.00000000  0.76834900  0.23508400  1
  F  F2  1  0.00000000  0.76642400  0.56698700  1
  F  F3  1  0.50000000  0.73135500  0.06835700  1
  F  F4  1  0.50000000  0.73638700  0.73104900  1
  F  F5  1  0.50000000  0.73078700  0.39884700  1
  F  F6  1  0.50000000  0.59865200  0.93693100  1
  F  F7  1  0.00000000  0.43690600  0.22927100  1
  F  F8  1  0.00000000  0.43099700  0.56231900  1
  F  F9  1  0.00000000  0.43724100  0.90139300  1
  F  F10  1  0.50000000  0.40056200  0.06606600  1
  F  F11  1  0.50000000  0.40092400  0.39773200  1
  F  F12  1  0.50000000  0.26743900  0.60088900  1
  F  F13  1  0.00000000  0.10285400  0.22770300  1
  F  F14  1  0.00000000  0.10269600  0.57025700  1
  F  F15  1  0.00000000  0.10130200  0.89964900  1
  F  F16  1  0.50000000  0.06566200  0.06399500  1
  F  F17  1  0.50000000  0.06044400  0.73509300  1
loop_
_geom_bond_atom_site_label_1
_geom_bond_atom_site_label_2
_geom_bond_distance
_geom_bond_site_symmetry_2
Fe0 O3 1.915382 1_556
Fe0 O2 1.959344 1_455
Fe0 O2 1.959344 1_555
Fe1 O0 2.008196 1_455
Fe1 O0 2.008196 1_555
Fe1 O4 2.008211 1_555
Fe1 O17 2.008649 1_465
Fe1 O17 2.008649 1_565
Fe2 O1 1.910665 1_555
Fe2 O1 1.910665 1_455
Fe3 O0 1.846442 1_555
Fe3 O3 1.947160 1_555
Fe3 O3 1.947160 1_655
Fe4 O4 1.886755 1_555
Fe4 O4 1.886755 1_655
Fe4 O1 2.007346 1_555
Fe5 O2 1.927876 1_555
Fe5 O5 1.962563 1_655
Fe5 O5 1.962563 1_555
Fe6 O8 1.929767 1_555
Fe6 O5 1.943284 1_554
Fe7 O6 1.949465 1_455
Fe7 O6 1.949465 1_555
Fe7 O9 1.954733 1_555
Fe8 O7 1.932688 1_455
Fe8 O7 1.932688 1_555
Fe8 O10 1.963372 1_555
Fe9 O9 1.931657 1_555
Fe9 O9 1.931657 1_655
Fe9 O7 1.966052 1_555
Fe10 O6 1.936106 1_555
Fe10 O8 1.971161 1_655
Fe10 O8 1.971161 1_555
Fe11 O11 1.923674 1_555
Fe11 O10 1.935296 1_655
Fe11 O10 1.935296 1_555
Fe12 O14 1.924697 1_556
Fe12 O13 1.935101 1_455
Fe12 O13 1.935101 1_555
Fe13 O15 1.917218 1_555
Fe13 O12 1.931170 1_555
Fe13 O12 1.931170 1_455
Fe14 O11 1.953571 1_555
Fe14 O11 1.953571 1_455
Fe14 O16 1.954508 1_555
Fe15 O14 1.945691 1_555
Fe15 O14 1.945691 1_655
Fe15 O12 1.950464 1_555
Fe16 O17 1.867931 1_555
Fe16 O15 1.930241 1_655
Fe16 O15 1.930241 1_555
Fe17 O16 1.934355 1_555
Fe17 O16 1.934355 1_655
Fe17 O13 1.939148 1_555
F0 Fe2 2.097906 1_555
F0 Fe5 2.146229 1_555
F0 Fe5 2.146229 1_455
F1 Fe7 2.103953 1_555
F1 Fe3 2.165060 1_555
F1 Fe3 2.165060 1_455
F2 Fe8 2.103848 1_555
F2 Fe4 2.172016 1_555
F2 Fe4 2.172016 1_455
F3 Fe6 2.033810 1_555
F3 Fe6 2.033810 1_655
F3 Fe3 2.302776 1_555
F4 Fe5 2.140951 1_555
F4 Fe8 2.164720 1_555
F4 Fe8 2.164720 1_655
F5 Fe7 2.125093 1_555
F5 Fe7 2.125093 1_655
F5 Fe4 2.148996 1_555
F6 Fe6 2.051293 1_556
F6 Fe6 2.051293 1_656
F6 Fe11 2.213371 1_555
F7 Fe10 2.117448 1_555
F7 Fe10 2.117448 1_455
F7 Fe13 2.206720 1_555
F8 Fe14 2.141915 1_555
F8 Fe9 2.145267 1_555
F8 Fe9 2.145267 1_455
F9 Fe11 2.151699 1_455
F9 Fe11 2.151699 1_555
F9 Fe12 2.158335 1_555
F10 Fe10 2.125116 1_555
F10 Fe12 2.158711 1_654
F10 Fe12 2.158711 1_554
F11 Fe9 2.125746 1_555
F11 Fe13 2.150307 1_555
F11 Fe13 2.150307 1_655
F12 Fe14 2.102251 1_555
F12 Fe14 2.102251 1_655
F12 Fe16 2.230764 1_555
F13 Fe15 2.088216 1_555
F13 Fe15 2.088216 1_455
F13 Fe1 2.182934 1_545
F14 Fe2 2.015652 1_545
F14 Fe16 2.201892 1_555
F14 Fe16 2.201892 1_455
F15 Fe17 2.141032 1_455
F15 Fe17 2.141032 1_555
F15 Fe0 2.162179 1_545
F16 Fe0 2.128172 1_644
F16 Fe0 2.128172 1_544
F16 Fe15 2.167739 1_555
F17 Fe2 2.127317 1_645
F17 Fe2 2.127317 1_545
F17 Fe17 2.189299 1_555
