# generated using pymatgen
data_CsFe3P3O14
_symmetry_space_group_name_H-M   'P 1'
_cell_length_a   8.62309831
_cell_length_b   8.62309831
_cell_length_c   9.14062365
_cell_angle_alpha   76.31267867
_cell_angle_beta   76.31267867
_cell_angle_gamma   78.02523106
_symmetry_Int_Tables_number   1
_chemical_formula_structural   CsFe3P3O14
_chemical_formula_sum   'Cs2 Fe6 P6 O28'
_cell_volume   633.30590018
_cell_formula_units_Z   2
loop_
 _symmetry_equiv_pos_site_id
 _symmetry_equiv_pos_as_xyz
  1  'x, y, z'
loop_
 _atom_site_type_symbol
 _atom_site_label
 _atom_site_symmetry_multiplicity
 _atom_site_fract_x
 _atom_site_fract_y
 _atom_site_fract_z
 _atom_site_occupancy
  Cs  Cs0  1  0.35574500  0.64425500  0.75000000  1
  Cs  Cs1  1  0.64425500  0.35574500  0.25000000  1
  Fe  Fe0  1  0.73356900  0.26643100  0.75000000  1
  Fe  Fe1  1  0.26643100  0.73356900  0.25000000  1
  Fe  Fe2  1  0.74581600  0.89532700  0.57297700  1
  Fe  Fe3  1  0.10467300  0.25418400  0.92702300  1
  Fe  Fe4  1  0.25418400  0.10467300  0.42702300  1
  Fe  Fe5  1  0.89532700  0.74581600  0.07297700  1
  P  P0  1  0.99090700  0.00909300  0.75000000  1
  P  P1  1  0.00909300  0.99090700  0.25000000  1
  P  P2  1  0.42489200  0.15892900  0.67582300  1
  P  P3  1  0.84107100  0.57510800  0.82417700  1
  P  P4  1  0.57510800  0.84107100  0.32417700  1
  P  P5  1  0.15892900  0.42489200  0.17582300  1
  O  O0  1  0.86405900  0.70743500  0.67778800  1
  O  O1  1  0.29256500  0.13594100  0.82221200  1
  O  O2  1  0.13594100  0.29256500  0.32221200  1
  O  O3  1  0.70743500  0.86405900  0.17778800  1
  O  O4  1  0.65191300  0.77235800  0.46794800  1
  O  O5  1  0.22764200  0.34808700  0.03205200  1
  O  O6  1  0.34808700  0.22764200  0.53205200  1
  O  O7  1  0.77235800  0.65191300  0.96794800  1
  O  O8  1  0.13632800  0.98871700  0.61740500  1
  O  O9  1  0.01128300  0.86367200  0.88259500  1
  O  O10  1  0.86367200  0.01128300  0.38259500  1
  O  O11  1  0.98871700  0.13632800  0.11740500  1
  O  O12  1  0.18163800  0.61155200  0.46388300  1
  O  O13  1  0.38844800  0.81836200  0.03611700  1
  O  O14  1  0.81836200  0.38844800  0.53611700  1
  O  O15  1  0.61155200  0.18163800  0.96388300  1
  O  O16  1  0.53205200  0.99283200  0.66151600  1
  O  O17  1  0.00716800  0.46794800  0.83848400  1
  O  O18  1  0.46794800  0.00716800  0.33848400  1
  O  O19  1  0.99283200  0.53205200  0.16151600  1
  O  O20  1  0.82630400  0.03303800  0.69492300  1
  O  O21  1  0.96696200  0.17369600  0.80507700  1
  O  O22  1  0.17369600  0.96696200  0.30507700  1
  O  O23  1  0.03303800  0.82630400  0.19492300  1
  O  O24  1  0.52597300  0.28488900  0.68679600  1
  O  O25  1  0.71511100  0.47402700  0.81320400  1
  O  O26  1  0.47402700  0.71511100  0.31320400  1
  O  O27  1  0.28488900  0.52597300  0.18679600  1
loop_
_geom_bond_atom_site_label_1
_geom_bond_atom_site_label_2
_geom_bond_distance
_geom_bond_site_symmetry_2
Cs0 O24 3.263385 1_555
Cs0 O25 3.263385 1_555
Cs0 O8 3.304710 1_555
Cs0 O9 3.304710 1_555
Cs0 O5 3.331104 1_556
Cs0 O4 3.331104 1_555
Cs0 O13 3.399436 1_556
Cs0 O12 3.399436 1_555
Cs0 O17 3.487733 1_555
Cs0 O16 3.487733 1_555
Cs1 O26 3.263385 1_555
Cs1 O27 3.263385 1_555
Cs1 O10 3.304710 1_555
Cs1 O11 3.304710 1_555
Cs1 O7 3.331104 1_554
Cs1 O6 3.331104 1_555
Cs1 O15 3.399436 1_554
Cs1 O14 3.399436 1_555
Cs1 O18 3.487733 1_555
Cs1 O19 3.487733 1_555
Fe0 O24 1.972640 1_555
Fe0 O25 1.972640 1_555
Fe0 O14 2.032994 1_555
Fe0 O15 2.032994 1_555
Fe0 O21 2.136468 1_555
Fe0 O20 2.136468 1_555
Fe1 O27 1.972640 1_555
Fe1 O26 1.972640 1_555
Fe1 O13 2.032994 1_555
Fe1 O12 2.032994 1_555
Fe1 O23 2.136468 1_555
Fe1 O22 2.136468 1_555
Fe2 O0 1.903872 1_555
Fe2 O16 1.931994 1_555
Fe2 O10 1.955049 1_565
Fe2 O4 1.976781 1_555
Fe2 O20 2.113971 1_565
Fe3 O1 1.903872 1_555
Fe3 O17 1.931994 1_555
Fe3 O11 1.955049 1_456
Fe3 O5 1.976781 1_556
Fe3 O21 2.113971 1_455
Fe4 O2 1.903872 1_555
Fe4 O18 1.931994 1_555
Fe4 O8 1.955049 1_545
Fe4 O6 1.976781 1_555
Fe4 O22 2.113971 1_545
Fe5 O3 1.903872 1_555
Fe5 O19 1.931994 1_555
Fe5 O9 1.955049 1_654
Fe5 O7 1.976781 1_554
Fe5 O23 2.113971 1_655
O0 P3 1.541936 1_555
O1 P2 1.541936 1_555
O2 P5 1.541936 1_555
O3 P4 1.541936 1_555
O4 P4 1.548315 1_555
O5 P5 1.548315 1_555
O6 P2 1.548315 1_555
O7 P3 1.548315 1_555
O8 P0 1.537005 1_465
O9 P0 1.537005 1_465
O10 P1 1.537005 1_645
O11 P1 1.537005 1_645
O16 P2 1.550686 1_565
O17 P3 1.550686 1_455
O18 P4 1.550686 1_545
O19 P5 1.550686 1_655
O20 P0 1.574200 1_555
O21 P0 1.574200 1_555
O22 P1 1.574200 1_555
O23 P1 1.574200 1_555
O24 P2 1.560560 1_555
O25 P3 1.560560 1_555
O26 P4 1.560560 1_555
O27 P5 1.560560 1_555
