# generated using pymatgen
data_La2(SiO3)3
_symmetry_space_group_name_H-M   'P 1'
_cell_length_a   5.56409100
_cell_length_b   7.59960412
_cell_length_c   8.68291263
_cell_angle_alpha   108.20773325
_cell_angle_beta   108.20598210
_cell_angle_gamma   91.72528525
_symmetry_Int_Tables_number   1
_chemical_formula_structural   La2(SiO3)3
_chemical_formula_sum   'La4 Si6 O18'
_cell_volume   327.97674568
_cell_formula_units_Z   2
loop_
 _symmetry_equiv_pos_site_id
 _symmetry_equiv_pos_as_xyz
  1  'x, y, z'
loop_
 _atom_site_type_symbol
 _atom_site_label
 _atom_site_symmetry_multiplicity
 _atom_site_fract_x
 _atom_site_fract_y
 _atom_site_fract_z
 _atom_site_occupancy
  La  La0  1  0.80709900  0.18344200  0.58360200  1
  La  La1  1  0.13224500  0.20395900  0.21777500  1
  La  La2  1  0.86775500  0.79604100  0.78222500  1
  La  La3  1  0.19290100  0.81655800  0.41639800  1
  Si  Si0  1  0.42991200  0.07699200  0.85950500  1
  Si  Si1  1  0.76293200  0.48745600  0.99783300  1
  Si  Si2  1  0.33973500  0.48123600  0.66792200  1
  Si  Si3  1  0.66026500  0.51876400  0.33207800  1
  Si  Si4  1  0.23706800  0.51254400  0.00216700  1
  Si  Si5  1  0.57008800  0.92300800  0.14049500  1
  O  O0  1  0.70072200  0.00614500  0.99897700  1
  O  O1  1  0.13184800  0.01554900  0.70983500  1
  O  O2  1  0.57420400  0.03076500  0.70585900  1
  O  O3  1  0.98676900  0.33373800  0.95599400  1
  O  O4  1  0.47087200  0.32313000  0.95244100  1
  O  O5  1  0.20415100  0.28681100  0.51463500  1
  O  O6  1  0.62265200  0.33776300  0.38504600  1
  O  O7  1  0.63927200  0.46957800  0.77843200  1
  O  O8  1  0.14903000  0.50966500  0.78622200  1
  O  O9  1  0.85097000  0.49033500  0.21377800  1
  O  O10  1  0.36072800  0.53042200  0.22156800  1
  O  O11  1  0.37734800  0.66223700  0.61495400  1
  O  O12  1  0.79584900  0.71318900  0.48536500  1
  O  O13  1  0.52912800  0.67687000  0.04755900  1
  O  O14  1  0.01323100  0.66626200  0.04400600  1
  O  O15  1  0.42579600  0.96923500  0.29414100  1
  O  O16  1  0.86815200  0.98445100  0.29016500  1
  O  O17  1  0.29927800  0.99385500  0.00102300  1
loop_
_geom_bond_atom_site_label_1
_geom_bond_atom_site_label_2
_geom_bond_distance
_geom_bond_site_symmetry_2
La0 O6 2.373058 1_555
La0 O2 2.385607 1_555
La0 O1 2.422719 1_655
La0 O5 2.621561 1_655
La0 O16 2.656679 1_545
La0 O7 2.696825 1_555
La0 O15 2.715026 1_545
La0 O8 2.785652 1_655
La0 O3 2.891810 1_555
La1 O5 2.350909 1_555
La1 O17 2.501939 1_545
La1 O16 2.534154 1_445
La1 O15 2.554861 1_545
La1 O0 2.604168 1_454
La1 O6 2.650029 1_555
La1 O3 2.663439 1_454
La1 O9 2.721284 1_455
La1 O10 2.739608 1_555
La2 O12 2.350909 1_555
La2 O0 2.501939 1_565
La2 O1 2.534154 1_665
La2 O2 2.554861 1_565
La2 O17 2.604168 1_656
La2 O11 2.650029 1_555
La2 O14 2.663439 1_656
La2 O8 2.721284 1_655
La2 O7 2.739608 1_555
La3 O11 2.373058 1_555
La3 O15 2.385607 1_555
La3 O16 2.422719 1_455
La3 O12 2.621561 1_455
La3 O1 2.656679 1_565
La3 O10 2.696825 1_555
La3 O2 2.715026 1_565
La3 O9 2.785652 1_455
La3 O14 2.891810 1_555
O0 Si0 1.828391 1_555
O0 Si5 1.858238 1_546
O1 Si0 1.698463 1_555
O2 Si0 1.714987 1_555
O3 Si4 1.772990 1_656
O3 Si1 1.775647 1_555
O4 Si0 1.765841 1_555
O4 Si1 1.877671 1_555
O4 Si4 2.006539 1_556
O5 Si2 1.612535 1_555
O6 Si3 1.607974 1_555
O7 Si2 1.664036 1_555
O7 Si1 1.770485 1_555
O8 Si2 1.668508 1_555
O8 Si4 1.776502 1_556
O9 Si3 1.668508 1_555
O9 Si1 1.776502 1_554
O10 Si3 1.664036 1_555
O10 Si4 1.770485 1_555
O11 Si2 1.607974 1_555
O12 Si3 1.612535 1_555
O13 Si5 1.765841 1_555
O13 Si4 1.877671 1_555
O13 Si1 2.006539 1_554
O14 Si1 1.772990 1_454
O14 Si4 1.775647 1_555
O15 Si5 1.714987 1_555
O16 Si5 1.698463 1_555
O17 Si5 1.828391 1_555
O17 Si0 1.858238 1_564
