# generated using pymatgen
data_Mg2Ti7O15
_symmetry_space_group_name_H-M   'P 1'
_cell_length_a   10.00079127
_cell_length_b   5.21596487
_cell_length_c   10.62031626
_cell_angle_alpha   83.86061436
_cell_angle_beta   90.00000000
_cell_angle_gamma   90.00000000
_symmetry_Int_Tables_number   1
_chemical_formula_structural   Mg2Ti7O15
_chemical_formula_sum   'Mg4 Ti14 O30'
_cell_volume   550.81844467
_cell_formula_units_Z   2
loop_
 _symmetry_equiv_pos_site_id
 _symmetry_equiv_pos_as_xyz
  1  'x, y, z'
loop_
 _atom_site_type_symbol
 _atom_site_label
 _atom_site_symmetry_multiplicity
 _atom_site_fract_x
 _atom_site_fract_y
 _atom_site_fract_z
 _atom_site_occupancy
  Mg  Mg0  1  0.75000000  0.49110090  0.89812867  1
  Mg  Mg1  1  0.25000000  0.50889910  0.10187133  1
  Mg  Mg2  1  0.25000000  0.17500045  0.43505666  1
  Mg  Mg3  1  0.75000000  0.82499955  0.56494334  1
  Ti  Ti0  1  0.06186247  0.39303913  0.87993992  1
  Ti  Ti1  1  0.43813753  0.39303913  0.87993992  1
  Ti  Ti2  1  0.56186247  0.60696087  0.12006008  1
  Ti  Ti3  1  0.93813753  0.60696087  0.12006008  1
  Ti  Ti4  1  0.56293621  0.27491645  0.45671954  1
  Ti  Ti5  1  0.93706379  0.27491645  0.45671954  1
  Ti  Ti6  1  0.06853282  0.06043704  0.21290099  1
  Ti  Ti7  1  0.43146718  0.06043704  0.21290099  1
  Ti  Ti8  1  0.06293621  0.72508355  0.54328046  1
  Ti  Ti9  1  0.43706379  0.72508355  0.54328046  1
  Ti  Ti10  1  0.75000000  0.15816058  0.23112913  1
  Ti  Ti11  1  0.25000000  0.84183942  0.76887087  1
  Ti  Ti12  1  0.93146718  0.93956296  0.78709901  1
  Ti  Ti13  1  0.56853282  0.93956296  0.78709901  1
  O  O0  1  0.88779353  0.24194787  0.84825826  1
  O  O1  1  0.61220647  0.24194787  0.84825826  1
  O  O2  1  0.43530471  0.31397411  0.06278656  1
  O  O3  1  0.06469529  0.31397411  0.06278656  1
  O  O4  1  0.25000000  0.20411189  0.24068196  1
  O  O5  1  0.25000000  0.54134625  0.90381686  1
  O  O6  1  0.75000000  0.45865375  0.09618314  1
  O  O7  1  0.93530471  0.68602589  0.93721344  1
  O  O8  1  0.56736302  0.35016647  0.27088070  1
  O  O9  1  0.93263698  0.35016647  0.27088070  1
  O  O10  1  0.56469529  0.68602589  0.93721344  1
  O  O11  1  0.38779353  0.75805213  0.15174174  1
  O  O12  1  0.38632882  0.42425514  0.48407554  1
  O  O13  1  0.11220647  0.75805213  0.15174174  1
  O  O14  1  0.11367118  0.42425514  0.48407554  1
  O  O15  1  0.88194546  0.91389277  0.18260888  1
  O  O16  1  0.61805454  0.91389277  0.18260888  1
  O  O17  1  0.61367118  0.57574486  0.51592446  1
  O  O18  1  0.88632882  0.57574486  0.51592446  1
  O  O19  1  0.06586295  0.97762709  0.39652875  1
  O  O20  1  0.43263698  0.64983353  0.72911930  1
  O  O21  1  0.43413705  0.97762709  0.39652875  1
  O  O22  1  0.06736302  0.64983353  0.72911930  1
  O  O23  1  0.25000000  0.87077488  0.57954292  1
  O  O24  1  0.75000000  0.12922512  0.42045708  1
  O  O25  1  0.75000000  0.79588811  0.75931804  1
  O  O26  1  0.93413705  0.02237291  0.60347125  1
  O  O27  1  0.56586295  0.02237291  0.60347125  1
  O  O28  1  0.38194546  0.08610723  0.81739112  1
  O  O29  1  0.11805454  0.08610723  0.81739112  1
loop_
_geom_bond_atom_site_label_1
_geom_bond_atom_site_label_2
_geom_bond_distance
_geom_bond_site_symmetry_2
Mg0 O0 2.003906 1_555
Mg0 O1 2.003906 1_555
Mg0 O25 2.049230 1_555
Mg0 O6 2.092079 1_556
Mg0 O10 2.175000 1_555
Mg0 O7 2.175000 1_555
Mg1 O13 2.003906 1_555
Mg1 O11 2.003906 1_555
Mg1 O4 2.049230 1_555
Mg1 O5 2.092079 1_554
Mg1 O2 2.175000 1_555
Mg1 O3 2.175000 1_555
Mg2 O12 1.991208 1_555
Mg2 O14 1.991208 1_555
Mg2 O4 2.053638 1_555
Mg2 O23 2.086111 1_545
Mg2 O21 2.169923 1_545
Mg2 O19 2.169923 1_545
Mg3 O18 1.991208 1_555
Mg3 O17 1.991208 1_555
Mg3 O25 2.053638 1_555
Mg3 O24 2.086111 1_565
Mg3 O27 2.169923 1_565
Mg3 O26 2.169923 1_565
O0 Ti12 1.821932 1_545
O0 Ti0 1.954863 1_655
O1 Ti13 1.821932 1_545
O1 Ti1 1.954863 1_555
O2 Ti1 1.941781 1_554
O2 Ti7 1.959856 1_555
O2 Ti2 2.122775 1_555
O3 Ti0 1.941781 1_554
O3 Ti6 1.959856 1_555
O3 Ti3 2.122775 1_455
O4 Ti7 1.997374 1_555
O4 Ti6 1.997374 1_555
O5 Ti11 2.007517 1_555
O5 Ti0 2.060290 1_555
O5 Ti1 2.060290 1_555
O6 Ti10 2.007517 1_555
O6 Ti2 2.060290 1_555
O6 Ti3 2.060290 1_555
O7 Ti3 1.941781 1_556
O7 Ti12 1.959856 1_555
O7 Ti0 2.122775 1_655
O8 Ti4 1.971213 1_555
O8 Ti2 1.975814 1_555
O8 Ti10 2.146582 1_555
O8 Ti7 2.170034 1_555
O9 Ti5 1.971213 1_555
O9 Ti3 1.975814 1_555
O9 Ti10 2.146582 1_555
O9 Ti6 2.170034 1_655
O10 Ti2 1.941781 1_556
O10 Ti13 1.959856 1_555
O10 Ti1 2.122775 1_555
O11 Ti7 1.821932 1_565
O11 Ti2 1.954863 1_555
O12 Ti9 1.823717 1_555
O12 Ti4 1.964454 1_555
O13 Ti6 1.821932 1_565
O13 Ti3 1.954863 1_455
O14 Ti8 1.823717 1_555
O14 Ti5 1.964454 1_455
O15 Ti3 1.883504 1_555
O15 Ti10 1.941781 1_565
O15 Ti6 2.054846 1_665
O16 Ti2 1.883504 1_555
O16 Ti10 1.941781 1_565
O16 Ti7 2.054846 1_565
O17 Ti4 1.823717 1_555
O17 Ti9 1.964454 1_555
O18 Ti5 1.823717 1_555
O18 Ti8 1.964454 1_655
O19 Ti8 1.930278 1_555
O19 Ti6 1.952006 1_565
O19 Ti5 2.164338 1_465
O20 Ti9 1.971213 1_555
O20 Ti1 1.975814 1_555
O20 Ti11 2.146582 1_555
O20 Ti13 2.170034 1_555
O21 Ti9 1.930278 1_555
O21 Ti7 1.952006 1_565
O21 Ti4 2.164338 1_565
O22 Ti8 1.971213 1_555
O22 Ti0 1.975814 1_555
O22 Ti11 2.146582 1_555
O22 Ti12 2.170034 1_455
O23 Ti11 2.000218 1_555
O23 Ti9 2.070805 1_555
O23 Ti8 2.070805 1_555
O24 Ti10 2.000218 1_555
O24 Ti4 2.070805 1_555
O24 Ti5 2.070805 1_555
O25 Ti13 1.997374 1_555
O25 Ti12 1.997374 1_555
O26 Ti5 1.930278 1_555
O26 Ti12 1.952006 1_545
O26 Ti8 2.164338 1_645
O27 Ti4 1.930278 1_555
O27 Ti13 1.952006 1_545
O27 Ti9 2.164338 1_545
O28 Ti1 1.883504 1_555
O28 Ti11 1.941781 1_545
O28 Ti13 2.054846 1_545
O29 Ti0 1.883504 1_555
O29 Ti11 1.941781 1_545
O29 Ti12 2.054846 1_445
