# generated using pymatgen
data_Ba3Fe3O8
_symmetry_space_group_name_H-M   'P 1'
_cell_length_a   5.85804066
_cell_length_b   5.85804066
_cell_length_c   14.15879200
_cell_angle_alpha   90.00000000
_cell_angle_beta   90.00000000
_cell_angle_gamma   120.77463341
_symmetry_Int_Tables_number   1
_chemical_formula_structural   Ba3Fe3O8
_chemical_formula_sum   'Ba6 Fe6 O16'
_cell_volume   417.46340876
_cell_formula_units_Z   2
loop_
 _symmetry_equiv_pos_site_id
 _symmetry_equiv_pos_as_xyz
  1  'x, y, z'
loop_
 _atom_site_type_symbol
 _atom_site_label
 _atom_site_symmetry_multiplicity
 _atom_site_fract_x
 _atom_site_fract_y
 _atom_site_fract_z
 _atom_site_occupancy
  Ba  Ba0  1  0.33168500  0.66831500  0.85255200  1
  Ba  Ba1  1  0.33168500  0.66831500  0.14744800  1
  Ba  Ba2  1  0.99962100  0.00037900  0.00000000  1
  Ba  Ba3  1  0.99262800  0.00737200  0.50000000  1
  Ba  Ba4  1  0.67176800  0.32823200  0.33932300  1
  Ba  Ba5  1  0.67176800  0.32823200  0.66067700  1
  Fe  Fe0  1  0.35866300  0.64133700  0.58975400  1
  Fe  Fe1  1  0.35866300  0.64133700  0.41024600  1
  Fe  Fe2  1  0.98032200  0.01967800  0.76071100  1
  Fe  Fe3  1  0.98032200  0.01967800  0.23928900  1
  Fe  Fe4  1  0.66154000  0.33846000  0.09366900  1
  Fe  Fe5  1  0.66154000  0.33846000  0.90633100  1
  O  O0  1  0.04421500  0.51928400  0.50000000  1
  O  O1  1  0.15980600  0.32811700  0.33178700  1
  O  O2  1  0.15980600  0.32811700  0.66821300  1
  O  O3  1  0.48071600  0.95578500  0.50000000  1
  O  O4  1  0.50575400  0.49424600  0.50000000  1
  O  O5  1  0.32648800  0.15298000  0.82013000  1
  O  O6  1  0.32648800  0.15298000  0.17987000  1
  O  O7  1  0.67188300  0.84019400  0.33178700  1
  O  O8  1  0.67188300  0.84019400  0.66821300  1
  O  O9  1  0.50934400  0.49065600  0.00000000  1
  O  O10  1  0.50249100  0.03467000  0.00000000  1
  O  O11  1  0.84702000  0.67351200  0.82013000  1
  O  O12  1  0.84702000  0.67351200  0.17987000  1
  O  O13  1  0.96533000  0.49750900  0.00000000  1
  O  O14  1  0.82692600  0.17307400  0.16550100  1
  O  O15  1  0.82692600  0.17307400  0.83449900  1
loop_
_geom_bond_atom_site_label_1
_geom_bond_atom_site_label_2
_geom_bond_distance
_geom_bond_site_symmetry_2
Ba0 O9 2.762802 1_556
Ba0 O10 2.787109 1_566
Ba0 O13 2.787109 1_456
Ba0 O5 2.891556 1_565
Ba0 O11 2.891556 1_455
Ba0 O15 2.906327 1_455
Ba0 O15 2.906327 1_565
Ba0 O11 3.038270 1_555
Ba0 O5 3.038270 1_555
Ba0 O2 3.121573 1_555
Ba0 O8 3.121573 1_555
Ba1 O9 2.762802 1_555
Ba1 O10 2.787109 1_565
Ba1 O13 2.787109 1_455
Ba1 O6 2.891556 1_565
Ba1 O12 2.891556 1_455
Ba1 O14 2.906327 1_455
Ba1 O14 2.906327 1_565
Ba1 O12 3.038270 1_555
Ba1 O6 3.038270 1_555
Ba1 O7 3.121573 1_555
Ba1 O1 3.121573 1_555
Ba2 O10 2.848285 1_655
Ba2 O13 2.848285 1_545
Ba2 O9 2.896353 1_655
Ba2 O9 2.896353 1_545
Ba2 O14 2.930057 1_555
Ba2 O15 2.930057 1_554
Ba2 O10 3.019925 1_555
Ba2 O13 3.019925 1_555
Ba2 O5 3.033124 1_654
Ba2 O6 3.033124 1_655
Ba2 O12 3.033124 1_545
Ba2 O11 3.033124 1_544
Ba3 O3 2.856004 1_545
Ba3 O0 2.856004 1_655
Ba3 O8 2.877314 1_545
Ba3 O2 2.877314 1_655
Ba3 O7 2.877314 1_545
Ba3 O1 2.877314 1_655
Ba3 O4 2.897745 1_545
Ba3 O4 2.897745 1_655
Ba3 O0 3.025027 1_645
Ba3 O3 3.025027 1_645
Ba4 O4 2.834611 1_555
Ba4 O6 2.849072 1_555
Ba4 O12 2.849072 1_555
Ba4 O7 2.861281 1_545
Ba4 O1 2.861281 1_655
Ba4 O14 2.924850 1_555
Ba4 O0 2.947822 1_655
Ba4 O3 2.947822 1_545
Ba4 O7 3.000647 1_555
Ba4 O1 3.000647 1_555
Ba5 O4 2.834611 1_555
Ba5 O11 2.849072 1_555
Ba5 O5 2.849072 1_555
Ba5 O8 2.861281 1_545
Ba5 O2 2.861281 1_655
Ba5 O15 2.924850 1_555
Ba5 O0 2.947822 1_655
Ba5 O3 2.947822 1_545
Ba5 O2 3.000647 1_555
Ba5 O8 3.000647 1_555
Fe0 O8 1.941772 1_555
Fe0 O2 1.941772 1_555
Fe0 O4 1.964605 1_555
Fe0 O3 2.042435 1_555
Fe0 O0 2.042435 1_555
Fe1 O7 1.941772 1_555
Fe1 O1 1.941772 1_555
Fe1 O4 1.964605 1_555
Fe1 O3 2.042435 1_555
Fe1 O0 2.042435 1_555
Fe2 O15 1.879569 1_555
Fe2 O5 1.951744 1_655
Fe2 O11 1.951744 1_545
Fe2 O8 2.035025 1_545
Fe2 O2 2.035025 1_655
Fe3 O14 1.879569 1_555
Fe3 O6 1.951744 1_655
Fe3 O12 1.951744 1_545
Fe3 O1 2.035025 1_655
Fe3 O7 2.035025 1_545
Fe4 O14 1.967799 1_555
Fe4 O10 2.024170 1_555
Fe4 O13 2.024170 1_555
Fe4 O9 2.040134 1_555
Fe4 O6 2.083322 1_555
Fe4 O12 2.083322 1_555
Fe5 O15 1.967799 1_555
Fe5 O10 2.024170 1_556
Fe5 O13 2.024170 1_556
Fe5 O9 2.040134 1_556
Fe5 O5 2.083322 1_555
Fe5 O11 2.083322 1_555
