# generated using pymatgen
data_Li3CuS2
_symmetry_space_group_name_H-M   'P 1'
_cell_length_a   5.29296600
_cell_length_b   5.33776300
_cell_length_c   12.07670300
_cell_angle_alpha   90.00000000
_cell_angle_beta   90.00000000
_cell_angle_gamma   90.00000000
_symmetry_Int_Tables_number   1
_chemical_formula_structural   Li3CuS2
_chemical_formula_sum   'Li12 Cu4 S8'
_cell_volume   341.19823593
_cell_formula_units_Z   4
loop_
 _symmetry_equiv_pos_site_id
 _symmetry_equiv_pos_as_xyz
  1  'x, y, z'
loop_
 _atom_site_type_symbol
 _atom_site_label
 _atom_site_symmetry_multiplicity
 _atom_site_fract_x
 _atom_site_fract_y
 _atom_site_fract_z
 _atom_site_occupancy
  Li  Li0  1  0.00000000  0.25000000  0.74873700  1
  Li  Li1  1  0.00000000  0.75000000  0.25126300  1
  Li  Li2  1  0.24109900  0.48411400  0.42777500  1
  Li  Li3  1  0.24109900  0.98411400  0.57222500  1
  Li  Li4  1  0.25890100  0.98411400  0.07222500  1
  Li  Li5  1  0.25890100  0.48411400  0.92777500  1
  Li  Li6  1  0.50000000  0.75000000  0.75126300  1
  Li  Li7  1  0.50000000  0.25000000  0.24873700  1
  Li  Li8  1  0.74109900  0.51588600  0.07222500  1
  Li  Li9  1  0.74109900  0.01588600  0.92777500  1
  Li  Li10  1  0.75890100  0.01588600  0.42777500  1
  Li  Li11  1  0.75890100  0.51588600  0.57222500  1
  Cu  Cu0  1  0.00000000  0.25000000  0.24462900  1
  Cu  Cu1  1  0.00000000  0.75000000  0.75537100  1
  Cu  Cu2  1  0.50000000  0.75000000  0.25537100  1
  Cu  Cu3  1  0.50000000  0.25000000  0.74462900  1
  S  S0  1  0.24751400  0.00444900  0.37169300  1
  S  S1  1  0.24751400  0.50444900  0.62830700  1
  S  S2  1  0.25248600  0.00444900  0.87169300  1
  S  S3  1  0.25248600  0.50444900  0.12830700  1
  S  S4  1  0.74751400  0.99555100  0.12830700  1
  S  S5  1  0.74751400  0.49555100  0.87169300  1
  S  S6  1  0.75248600  0.49555100  0.37169300  1
  S  S7  1  0.75248600  0.99555100  0.62830700  1
loop_
_geom_bond_atom_site_label_1
_geom_bond_atom_site_label_2
_geom_bond_distance
_geom_bond_site_symmetry_2
Li0 S1 2.382491 1_555
Li0 S7 2.382491 1_445
Li0 S5 2.389313 1_455
Li0 S2 2.389313 1_555
Li1 S0 2.382491 1_565
Li1 S6 2.382491 1_455
Li1 S4 2.389313 1_455
Li1 S3 2.389313 1_555
Li2 S1 2.424434 1_555
Li2 S0 2.648622 1_555
Li2 S6 2.674123 1_455
Li2 S6 2.790871 1_555
Li2 S0 2.859013 1_565
Li3 S0 2.424434 1_565
Li3 S1 2.648622 1_555
Li3 S7 2.674123 1_455
Li3 S7 2.790871 1_555
Li3 S1 2.859013 1_565
Li4 S2 2.424434 1_564
Li4 S3 2.648622 1_555
Li4 S4 2.674123 1_555
Li4 S4 2.790871 1_455
Li4 S3 2.859013 1_565
Li5 S3 2.424434 1_556
Li5 S2 2.648622 1_555
Li5 S5 2.674123 1_555
Li5 S5 2.790871 1_455
Li5 S2 2.859013 1_565
Li6 S2 2.382491 1_565
Li6 S5 2.382491 1_555
Li6 S7 2.389313 1_555
Li6 S1 2.389313 1_555
Li7 S3 2.382491 1_555
Li7 S4 2.382491 1_545
Li7 S6 2.389313 1_555
Li7 S0 2.389313 1_555
Li8 S5 2.424434 1_554
Li8 S4 2.648622 1_555
Li8 S3 2.674123 1_555
Li8 S3 2.790871 1_655
Li8 S4 2.859013 1_545
Li9 S4 2.424434 1_546
Li9 S5 2.648622 1_555
Li9 S2 2.674123 1_555
Li9 S2 2.790871 1_655
Li9 S5 2.859013 1_545
Li10 S7 2.424434 1_545
Li10 S6 2.648622 1_555
Li10 S0 2.674123 1_655
Li10 S0 2.790871 1_555
Li10 S6 2.859013 1_545
Li11 S6 2.424434 1_555
Li11 S7 2.648622 1_555
Li11 S1 2.674123 1_655
Li11 S1 2.790871 1_555
Li11 S7 2.859013 1_545
Cu0 S3 2.367291 1_555
Cu0 S4 2.367291 1_445
Cu0 S0 2.406027 1_555
Cu0 S6 2.406027 1_455
Cu0 Li7 2.646948 1_455
Cu0 Li7 2.646948 1_555
Cu0 Li1 2.670084 1_555
Cu0 Li1 2.670084 1_545
Cu0 Li2 2.842917 1_555
Cu0 Li10 2.842917 1_455
Cu0 Li8 2.868297 1_455
Cu0 Li4 2.868297 1_545
Cu1 S2 2.367291 1_565
Cu1 S5 2.367291 1_455
Cu1 S7 2.406027 1_455
Cu1 S1 2.406027 1_555
Cu1 Li6 2.646948 1_555
Cu1 Li6 2.646948 1_455
Cu1 Li0 2.670084 1_565
Cu1 Li0 2.670084 1_555
Cu1 Li3 2.842917 1_555
Cu1 Li11 2.842917 1_455
Cu1 Li5 2.868297 1_555
Cu1 Li9 2.868297 1_465
Cu2 S6 2.367291 1_555
Cu2 S0 2.367291 1_565
Cu2 S4 2.406027 1_555
Cu2 S3 2.406027 1_555
Cu2 Li1 2.646948 1_655
Cu2 Li1 2.646948 1_555
Cu2 Li7 2.670084 1_555
Cu2 Li7 2.670084 1_565
Cu2 Li4 2.842917 1_555
Cu2 Li8 2.842917 1_555
Cu2 Li10 2.868297 1_565
Cu2 Li2 2.868297 1_555
Cu3 S1 2.367291 1_555
Cu3 S7 2.367291 1_545
Cu3 S5 2.406027 1_555
Cu3 S2 2.406027 1_555
Cu3 Li0 2.646948 1_555
Cu3 Li0 2.646948 1_655
Cu3 Li6 2.670084 1_545
Cu3 Li6 2.670084 1_555
Cu3 Li9 2.842917 1_555
Cu3 Li5 2.842917 1_555
Cu3 Li11 2.868297 1_555
Cu3 Li3 2.868297 1_545
