# generated using pymatgen
data_Li8MnO5F
_symmetry_space_group_name_H-M   'P 1'
_cell_length_a   5.36828785
_cell_length_b   18.24055542
_cell_length_c   6.00576040
_cell_angle_alpha   96.64440769
_cell_angle_beta   112.04898689
_cell_angle_gamma   86.63900979
_symmetry_Int_Tables_number   1
_chemical_formula_structural   Li8MnO5F
_chemical_formula_sum   'Li32 Mn4 O20 F4'
_cell_volume   541.34179162
_cell_formula_units_Z   4
loop_
 _symmetry_equiv_pos_site_id
 _symmetry_equiv_pos_as_xyz
  1  'x, y, z'
loop_
 _atom_site_type_symbol
 _atom_site_label
 _atom_site_symmetry_multiplicity
 _atom_site_fract_x
 _atom_site_fract_y
 _atom_site_fract_z
 _atom_site_occupancy
  Li  Li0  1  0.50499300  0.02890300  0.33285800  1
  Li  Li1  1  0.75498200  0.27891800  0.08286500  1
  Li  Li2  1  0.00495600  0.52890500  0.83284000  1
  Li  Li3  1  0.25493300  0.77892100  0.58284300  1
  Li  Li4  1  0.36114800  0.13182900  0.52010300  1
  Li  Li5  1  0.61111200  0.38183400  0.27007000  1
  Li  Li6  1  0.86115100  0.63181300  0.02003700  1
  Li  Li7  1  0.11109300  0.88183200  0.77005300  1
  Li  Li8  1  0.95003100  0.05977500  0.58737600  1
  Li  Li9  1  0.20004900  0.30978900  0.33738800  1
  Li  Li10  1  0.45002200  0.55977300  0.08727500  1
  Li  Li11  1  0.70004500  0.80979300  0.83734500  1
  Li  Li12  1  0.43661200  0.07433800  0.93706300  1
  Li  Li13  1  0.68661100  0.32434800  0.68707800  1
  Li  Li14  1  0.93662400  0.57433900  0.43708900  1
  Li  Li15  1  0.18659300  0.82435100  0.18709200  1
  Li  Li16  1  0.82891700  0.16625100  0.79979700  1
  Li  Li17  1  0.07893400  0.41625000  0.54981100  1
  Li  Li18  1  0.32889600  0.66625900  0.29982300  1
  Li  Li19  1  0.57894600  0.91624600  0.04980400  1
  Li  Li20  1  0.28565400  0.19146300  0.15629800  1
  Li  Li21  1  0.53567500  0.44146400  0.90625600  1
  Li  Li22  1  0.78566200  0.69146700  0.65629200  1
  Li  Li23  1  0.03567200  0.94145000  0.40628100  1
  Li  Li24  1  0.91116400  0.11722000  0.25184200  1
  Li  Li25  1  0.16117700  0.36722000  0.00183800  1
  Li  Li26  1  0.41114300  0.61721800  0.75183200  1
  Li  Li27  1  0.66121100  0.86720400  0.50182300  1
  Li  Li28  1  0.74256100  0.22478200  0.42727800  1
  Li  Li29  1  0.99251400  0.47476000  0.17721500  1
  Li  Li30  1  0.24248400  0.72477600  0.92720100  1
  Li  Li31  1  0.49257700  0.97476800  0.67727800  1
  Mn  Mn0  1  0.47303300  0.50540700  0.47341300  1
  Mn  Mn1  1  0.72324600  0.75530200  0.22359600  1
  Mn  Mn2  1  0.97332700  0.00534700  0.97369000  1
  Mn  Mn3  1  0.22331300  0.25534300  0.72370700  1
  O  O0  1  0.64783600  0.06664400  0.69299100  1
  O  O1  1  0.89782600  0.31663900  0.44299500  1
  O  O2  1  0.14777700  0.56665800  0.19295400  1
  O  O3  1  0.39776500  0.81663400  0.94294700  1
  O  O4  1  0.20290700  0.09046800  0.14911900  1
  O  O5  1  0.45297300  0.34049100  0.89908200  1
  O  O6  1  0.70288100  0.59048000  0.64910200  1
  O  O7  1  0.95289800  0.84044900  0.39900900  1
  O  O8  1  0.79511800  0.01589600  0.21583400  1
  O  O9  1  0.04504100  0.26593200  0.96579600  1
  O  O10  1  0.29506600  0.51591500  0.71579400  1
  O  O11  1  0.54506500  0.76585800  0.46579500  1
  O  O12  1  0.44287900  0.23422900  0.52215200  1
  O  O13  1  0.69287300  0.48424500  0.27203400  1
  O  O14  1  0.94287300  0.73420100  0.02202000  1
  O  O15  1  0.19295500  0.98421700  0.77224800  1
  O  O16  1  0.04464800  0.16027200  0.59163500  1
  O  O17  1  0.29454500  0.41026500  0.34156400  1
  O  O18  1  0.54450800  0.66020800  0.09152200  1
  O  O19  1  0.79456100  0.91025200  0.84160100  1
  F  F0  1  0.62247500  0.18261400  0.09238400  1
  F  F1  1  0.87247100  0.43262300  0.84230100  1
  F  F2  1  0.12245900  0.68260800  0.59237100  1
  F  F3  1  0.37253900  0.93254800  0.34229100  1
loop_
_geom_bond_atom_site_label_1
_geom_bond_atom_site_label_2
_geom_bond_distance
_geom_bond_site_symmetry_2
Li0 O8 1.927666 1_555
Li0 O4 1.959160 1_555
Li0 O0 2.052329 1_555
Li1 O9 1.927497 1_654
Li1 O5 1.959090 1_554
Li1 O1 2.052228 1_555
Li2 O10 1.927666 1_555
Li2 O6 1.959232 1_455
Li2 O2 2.052281 1_556
Li3 O11 1.927830 1_555
Li3 O7 1.958785 1_455
Li3 O3 2.052057 1_555
Li4 O0 1.931790 1_555
Li4 O16 1.932261 1_555
Li4 O12 1.941179 1_555
Li4 O4 2.126055 1_555
Li5 O1 1.932052 1_555
Li5 O17 1.932441 1_555
Li5 O13 1.941517 1_555
Li5 O5 2.125976 1_554
Li6 O2 1.931313 1_655
Li6 O18 1.932674 1_555
Li6 O14 1.941028 1_555
Li6 O6 2.125676 1_554
Li7 O3 1.931903 1_555
Li7 O19 1.932394 1_455
Li7 O15 1.940943 1_555
Li7 O7 2.126460 1_455
Li8 O16 1.925500 1_655
Li8 O0 1.944259 1_555
Li8 O15 1.972097 1_645
Li8 O8 2.140753 1_555
Li9 O17 1.925024 1_555
Li9 O1 1.944379 1_455
Li9 O12 1.971661 1_555
Li9 O9 2.140908 1_554
Li10 O18 1.924201 1_555
Li10 O2 1.944751 1_555
Li10 O13 1.971272 1_555
Li10 O10 2.140339 1_554
Li11 O19 1.924664 1_555
Li11 O3 1.944656 1_555
Li11 O14 1.971869 1_556
Li11 O11 2.141083 1_555
Li12 O15 2.072790 1_545
Li12 O4 2.086182 1_556
Li12 O0 2.153089 1_555
Li12 O8 2.323068 1_556
Li13 O12 2.073061 1_555
Li13 O5 2.085639 1_555
Li13 O1 2.153096 1_555
Li13 O9 2.322470 1_655
Li14 O13 2.072875 1_555
Li14 O6 2.086145 1_555
Li14 O2 2.153132 1_655
Li14 O10 2.322540 1_655
Li15 O14 2.073598 1_455
Li15 O7 2.085433 1_455
Li15 O3 2.153235 1_554
Li15 O11 2.323242 1_555
Li16 O16 1.989145 1_655
Li16 O0 2.031437 1_555
Li16 O9 2.146027 1_655
Li16 O12 2.489045 1_555
Li17 O17 1.989044 1_555
Li17 O1 2.031563 1_455
Li17 O10 2.145789 1_555
Li17 O13 2.489606 1_455
Li18 O18 1.989259 1_555
Li18 O2 2.031437 1_555
Li18 O11 2.144867 1_555
Li18 O14 2.489049 1_455
Li19 O19 1.988831 1_554
Li19 O3 2.031749 1_554
Li19 O8 2.145698 1_565
Li19 O15 2.488617 1_554
Li20 O4 1.912091 1_555
Li20 O9 1.966449 1_554
Li20 O12 2.106397 1_555
Li21 O5 1.911637 1_555
Li21 O10 1.966104 1_555
Li21 O13 2.106079 1_556
Li22 O6 1.911988 1_555
Li22 O11 1.965379 1_555
Li22 O14 2.105592 1_556
Li23 O7 1.912140 1_455
Li23 O8 1.965884 1_465
Li23 O15 2.106988 1_555
Li24 O4 1.907284 1_655
Li24 O8 1.947327 1_555
Li24 O16 1.972789 1_655
Li25 O5 1.907595 1_554
Li25 O9 1.946837 1_554
Li25 O17 1.972409 1_555
Li26 O6 1.907241 1_555
Li26 O10 1.946996 1_555
Li26 O18 1.971925 1_556
Li27 O7 1.907343 1_555
Li27 O11 1.947876 1_555
Li27 O19 1.972692 1_555
Li28 O12 1.890907 1_555
Li28 O1 1.891851 1_555
Li28 O16 1.957560 1_655
Li29 O13 1.890499 1_555
Li29 O2 1.892495 1_655
Li29 O17 1.957199 1_655
Li30 O14 1.890338 1_456
Li30 O3 1.891871 1_555
Li30 O18 1.957945 1_556
Li31 O15 1.890951 1_555
Li31 O0 1.892155 1_565
Li31 O19 1.957239 1_555
Mn0 O17 1.965757 1_555
Mn0 O6 1.977864 1_555
Mn0 O13 1.978562 1_555
Mn0 O10 2.006642 1_555
Mn0 O2 2.265556 1_555
Mn1 O18 1.965680 1_555
Mn1 O7 1.978051 1_555
Mn1 O14 1.978493 1_555
Mn1 O11 2.006506 1_555
Mn1 O3 2.267487 1_554
Mn2 O19 1.965765 1_545
Mn2 O4 1.977529 1_656
Mn2 O15 1.977890 1_645
Mn2 O8 2.006324 1_556
Mn2 O0 2.267324 1_555
Mn3 O16 1.965164 1_555
Mn3 O5 1.978037 1_555
Mn3 O12 1.978145 1_555
Mn3 O9 2.006270 1_555
Mn3 O1 2.267345 1_455
F0 Li24 1.917034 1_555
F0 Li28 1.944006 1_555
F0 Li1 1.948161 1_555
F0 Li20 1.978725 1_555
F0 Li12 2.207328 1_554
F0 Li16 2.388936 1_554
F1 Li25 1.917318 1_656
F1 Li29 1.943950 1_556
F1 Li2 1.947645 1_655
F1 Li21 1.978722 1_555
F1 Li13 2.207218 1_555
F1 Li17 2.388499 1_655
F2 Li26 1.916977 1_555
F2 Li30 1.943685 1_555
F2 Li3 1.948252 1_555
F2 Li22 1.978622 1_455
F2 Li14 2.207129 1_455
F2 Li18 2.388703 1_555
F3 Li27 1.916523 1_555
F3 Li31 1.944778 1_555
F3 Li0 1.948761 1_565
F3 Li23 1.979214 1_555
F3 Li15 2.206116 1_555
F3 Li19 2.388246 1_555
