# generated using pymatgen
data_ZrTi2O6
_symmetry_space_group_name_H-M   'P 1'
_cell_length_a   4.74412400
_cell_length_b   5.67317420
_cell_length_c   15.18740747
_cell_angle_alpha   89.95774041
_cell_angle_beta   89.10532539
_cell_angle_gamma   89.93917117
_symmetry_Int_Tables_number   1
_chemical_formula_structural   ZrTi2O6
_chemical_formula_sum   'Zr4 Ti8 O24'
_cell_volume   408.70738905
_cell_formula_units_Z   4
loop_
 _symmetry_equiv_pos_site_id
 _symmetry_equiv_pos_as_xyz
  1  'x, y, z'
loop_
 _atom_site_type_symbol
 _atom_site_label
 _atom_site_symmetry_multiplicity
 _atom_site_fract_x
 _atom_site_fract_y
 _atom_site_fract_z
 _atom_site_occupancy
  Zr  Zr0  1  0.00451800  0.17861100  0.07935000  1
  Zr  Zr1  1  0.00172100  0.18937900  0.75171300  1
  Zr  Zr2  1  0.99597500  0.81039900  0.58273700  1
  Zr  Zr3  1  0.50127900  0.32138600  0.25308400  1
  Ti  Ti0  1  0.00107600  0.18430300  0.41873200  1
  Ti  Ti1  1  0.99420900  0.82143900  0.25136500  1
  Ti  Ti2  1  0.00095100  0.80959000  0.91557900  1
  Ti  Ti3  1  0.49930200  0.32554000  0.58115100  1
  Ti  Ti4  1  0.49762700  0.67826600  0.08213400  1
  Ti  Ti5  1  0.50646400  0.32198800  0.91750900  1
  Ti  Ti6  1  0.49555300  0.68402900  0.41487200  1
  Ti  Ti7  1  0.49848300  0.67429600  0.75166500  1
  O  O0  1  0.20041900  0.11210600  0.31065000  1
  O  O1  1  0.23759600  0.11558100  0.63531300  1
  O  O2  1  0.24545500  0.88007500  0.14226000  1
  O  O3  1  0.24166900  0.11101500  0.96547500  1
  O  O4  1  0.22812300  0.88700300  0.46761500  1
  O  O5  1  0.22891000  0.87381000  0.80663800  1
  O  O6  1  0.26807900  0.62593600  0.30848000  1
  O  O7  1  0.25443900  0.38435500  0.47469500  1
  O  O8  1  0.30089900  0.39192000  0.81170900  1
  O  O9  1  0.27666000  0.60356000  0.64777100  1
  O  O10  1  0.26606500  0.62203300  0.97493800  1
  O  O11  1  0.28687800  0.39903100  0.13809600  1
  O  O12  1  0.70942300  0.39279500  0.02331900  1
  O  O13  1  0.74421800  0.62167400  0.19131500  1
  O  O14  1  0.72220800  0.39526600  0.68518000  1
  O  O15  1  0.73412400  0.38709500  0.36634800  1
  O  O16  1  0.69268400  0.61367700  0.52228600  1
  O  O17  1  0.74575400  0.61373700  0.85738700  1
  O  O18  1  0.78627200  0.09855400  0.19496900  1
  O  O19  1  0.77512100  0.87128900  0.02431000  1
  O  O20  1  0.76580300  0.12237500  0.52619700  1
  O  O21  1  0.76046100  0.87808800  0.35911700  1
  O  O22  1  0.76030500  0.88588100  0.69855600  1
  O  O23  1  0.77127300  0.11391700  0.86748600  1
loop_
_geom_bond_atom_site_label_1
_geom_bond_atom_site_label_2
_geom_bond_distance
_geom_bond_site_symmetry_2
O0 Ti0 1.925692 1_555
O0 Zr3 2.043118 1_555
O0 Ti1 2.126047 1_445
O1 Ti3 1.899138 1_555
O1 Zr1 2.119192 1_555
O1 Zr2 2.232479 1_445
O2 Ti4 1.881591 1_555
O2 Ti1 2.053157 1_455
O2 Zr0 2.261734 1_565
O3 Ti5 1.874736 1_555
O3 Zr0 2.084035 1_556
O3 Ti2 2.199025 1_545
O4 Ti6 1.882496 1_555
O4 Zr2 2.097259 1_455
O4 Ti0 2.139019 1_565
O5 Ti7 1.891753 1_555
O5 Ti2 1.995958 1_555
O5 Zr1 2.254859 1_565
O6 Ti1 1.923906 1_455
O6 Ti6 1.984963 1_555
O6 Zr3 2.210425 1_555
O7 Ti0 1.868541 1_555
O7 Ti3 2.032692 1_555
O7 Ti6 2.234652 1_555
O8 Ti5 1.933270 1_555
O8 Zr1 2.051947 1_555
O8 Ti7 2.061765 1_555
O9 Ti7 1.952405 1_555
O9 Zr2 2.040027 1_455
O9 Ti3 2.143020 1_555
O10 Ti2 1.886254 1_555
O10 Ti4 2.004108 1_556
O10 Ti5 2.219447 1_555
O11 Zr0 2.048571 1_555
O11 Ti4 2.050943 1_555
O11 Zr3 2.081300 1_555
O12 Ti5 1.928975 1_554
O12 Zr0 2.047582 1_655
O12 Ti4 2.097857 1_555
O13 Ti1 1.887021 1_555
O13 Ti4 2.068862 1_555
O13 Zr3 2.253583 1_555
O14 Ti3 1.955744 1_555
O14 Zr1 2.044638 1_655
O14 Ti7 2.148780 1_555
O15 Ti0 1.894059 1_655
O15 Zr3 2.092704 1_555
O15 Ti6 2.152572 1_555
O16 Ti6 1.934188 1_555
O16 Zr2 2.050586 1_555
O16 Ti3 2.070851 1_555
O17 Ti2 1.875931 1_655
O17 Ti7 2.032093 1_555
O17 Ti5 2.198036 1_555
O18 Zr3 2.041052 1_555
O18 Ti1 2.049249 1_545
O18 Zr0 2.074781 1_655
O19 Ti4 1.915461 1_555
O19 Ti2 1.985468 1_654
O19 Zr0 2.226539 1_665
O20 Ti3 1.894439 1_555
O20 Ti0 1.994029 1_655
O20 Zr2 2.255040 1_545
O21 Ti6 1.864629 1_555
O21 Ti1 1.988568 1_555
O21 Ti0 2.275850 1_665
O22 Ti7 1.898617 1_555
O22 Zr2 2.113322 1_555
O22 Zr1 2.227821 1_665
O23 Ti5 1.875419 1_555
O23 Zr1 2.099992 1_655
O23 Ti2 2.172688 1_645
