# generated using pymatgen
data_Lu2Sb2O7
_symmetry_space_group_name_H-M   'P 1'
_cell_length_a   7.50030941
_cell_length_b   7.50030941
_cell_length_c   7.50030941
_cell_angle_alpha   119.77933187
_cell_angle_beta   118.88979676
_cell_angle_gamma   91.15817698
_symmetry_Int_Tables_number   1
_chemical_formula_structural   Lu2Sb2O7
_chemical_formula_sum   'Lu4 Sb4 O14'
_cell_volume   301.25962695
_cell_formula_units_Z   2
loop_
 _symmetry_equiv_pos_site_id
 _symmetry_equiv_pos_as_xyz
  1  'x, y, z'
loop_
 _atom_site_type_symbol
 _atom_site_label
 _atom_site_symmetry_multiplicity
 _atom_site_fract_x
 _atom_site_fract_y
 _atom_site_fract_z
 _atom_site_occupancy
  Lu  Lu0  1  0.74044000  0.00000000  0.74044000  1
  Lu  Lu1  1  0.73705800  0.54215500  0.77921300  1
  Lu  Lu2  1  0.24044000  0.50000000  0.74044000  1
  Lu  Lu3  1  0.23705800  0.45784500  0.19490200  1
  Sb  Sb0  1  0.26252100  0.00000000  0.26252100  1
  Sb  Sb1  1  0.73584800  0.99138600  0.22723400  1
  Sb  Sb2  1  0.76252100  0.50000000  0.26252100  1
  Sb  Sb3  1  0.23584800  0.00861400  0.74446300  1
  O  O0  1  0.10500300  0.08799700  0.93942800  1
  O  O1  1  0.35143100  0.33442500  0.93942800  1
  O  O2  1  0.36277500  0.37316000  0.49930400  1
  O  O3  1  0.60439900  0.04131100  0.41902200  1
  O  O4  1  0.98405700  0.01262500  0.49668300  1
  O  O5  1  0.87771200  0.31462300  0.41902200  1
  O  O6  1  0.62614400  0.63652800  0.49930400  1
  O  O7  1  0.86277500  0.36347200  0.98961600  1
  O  O8  1  0.10439900  0.68537700  0.56308900  1
  O  O9  1  0.48405700  0.98737500  0.97143200  1
  O  O10  1  0.37771200  0.95869000  0.56308900  1
  O  O11  1  0.12614400  0.62684000  0.98961600  1
  O  O12  1  0.60500300  0.66557500  0.01700600  1
  O  O13  1  0.85143100  0.91200300  0.01700600  1
loop_
_geom_bond_atom_site_label_1
_geom_bond_atom_site_label_2
_geom_bond_distance
_geom_bond_site_symmetry_2
Lu0 O6 2.224332 1_545
Lu0 O7 2.224332 1_555
Lu0 O0 2.268271 1_655
Lu0 O13 2.268271 1_546
Lu0 O10 2.307965 1_545
Lu0 O3 2.307970 1_555
Lu1 O13 2.263367 1_556
Lu1 O12 2.263367 1_556
Lu1 O6 2.326568 1_555
Lu1 O2 2.326573 1_555
Lu1 O7 2.426854 1_555
Lu1 O11 2.426854 1_655
Lu2 O2 2.224326 1_555
Lu2 O11 2.224332 1_555
Lu2 O12 2.268271 1_556
Lu2 O1 2.268271 1_555
Lu2 O5 2.307965 1_455
Lu2 O8 2.307965 1_555
Lu3 O1 2.263361 1_554
Lu3 O0 2.263367 1_554
Lu3 O11 2.326562 1_554
Lu3 O7 2.326575 1_454
Lu3 O6 2.426855 1_555
Lu3 O2 2.426861 1_555
O0 Sb3 2.000335 1_555
O0 Sb0 2.560789 1_556
O1 Sb3 2.000342 1_555
O1 Sb2 2.560789 1_556
O2 Sb0 2.289105 1_555
O3 Sb1 2.007896 1_545
O3 Sb0 2.178812 1_555
O4 Sb1 1.899536 1_545
O4 Sb3 1.920349 1_655
O5 Sb1 2.007897 1_545
O5 Sb2 2.178813 1_555
O6 Sb2 2.289104 1_555
O7 Sb2 2.289099 1_556
O8 Sb3 2.007896 1_565
O8 Sb2 2.178813 1_455
O9 Sb3 1.899529 1_565
O9 Sb1 1.920349 1_556
O10 Sb3 2.007903 1_565
O10 Sb0 2.178813 1_565
O11 Sb0 2.289104 1_566
O12 Sb1 2.000341 1_555
O12 Sb2 2.560789 1_555
O13 Sb1 2.000341 1_555
O13 Sb0 2.560789 1_665
