# generated using pymatgen
data_LiMn3(P3O10)2
_symmetry_space_group_name_H-M   'P 1'
_cell_length_a   8.39785220
_cell_length_b   8.39785220
_cell_length_c   12.01263800
_cell_angle_alpha   90.00000000
_cell_angle_beta   90.00000000
_cell_angle_gamma   105.12841714
_symmetry_Int_Tables_number   1
_chemical_formula_structural   LiMn3(P3O10)2
_chemical_formula_sum   'Li2 Mn6 P12 O40'
_cell_volume   817.81794213
_cell_formula_units_Z   2
loop_
 _symmetry_equiv_pos_site_id
 _symmetry_equiv_pos_as_xyz
  1  'x, y, z'
loop_
 _atom_site_type_symbol
 _atom_site_label
 _atom_site_symmetry_multiplicity
 _atom_site_fract_x
 _atom_site_fract_y
 _atom_site_fract_z
 _atom_site_occupancy
  Li  Li0  1  0.56904800  0.56904800  0.00000000  1
  Li  Li1  1  0.43095200  0.43095200  0.50000000  1
  Mn  Mn0  1  0.14135000  0.14135000  0.50000000  1
  Mn  Mn1  1  0.70636300  0.29363700  0.25000000  1
  Mn  Mn2  1  0.76173000  0.23827000  0.75000000  1
  Mn  Mn3  1  0.29363700  0.70636300  0.75000000  1
  Mn  Mn4  1  0.23827000  0.76173000  0.25000000  1
  Mn  Mn5  1  0.85865000  0.85865000  0.00000000  1
  P  P0  1  0.09454500  0.36824300  0.17970900  1
  P  P1  1  0.36824300  0.09454500  0.82029100  1
  P  P2  1  0.19012700  0.31563600  0.72310600  1
  P  P3  1  0.31563600  0.19012700  0.27689400  1
  P  P4  1  0.15164100  0.73586200  0.51266300  1
  P  P5  1  0.73586200  0.15164100  0.48733700  1
  P  P6  1  0.84835900  0.26413800  0.01266300  1
  P  P7  1  0.26413800  0.84835900  0.98733700  1
  P  P8  1  0.80987300  0.68436400  0.22310600  1
  P  P9  1  0.68436400  0.80987300  0.77689400  1
  P  P10  1  0.90545500  0.63175700  0.67970900  1
  P  P11  1  0.63175700  0.90545500  0.32029100  1
  O  O0  1  0.17565600  0.21465300  0.18748600  1
  O  O1  1  0.21465300  0.17565600  0.81251400  1
  O  O2  1  0.03460600  0.36560300  0.05293900  1
  O  O3  1  0.36560300  0.03460600  0.94706100  1
  O  O4  1  0.28617400  0.30022200  0.61661000  1
  O  O5  1  0.30022200  0.28617400  0.38339000  1
  O  O6  1  0.67120800  0.05534700  0.24309100  1
  O  O7  1  0.05534700  0.67120800  0.75690900  1
  O  O8  1  0.47792800  0.26895300  0.21576000  1
  O  O9  1  0.26895300  0.47792800  0.78424000  1
  O  O10  1  0.99331500  0.72526900  0.20199000  1
  O  O11  1  0.72526900  0.99331500  0.79801000  1
  O  O12  1  0.22863400  0.52239000  0.19844900  1
  O  O13  1  0.52239000  0.22863400  0.80155100  1
  O  O14  1  0.16550400  0.67234500  0.39527500  1
  O  O15  1  0.67234500  0.16550400  0.60472500  1
  O  O16  1  0.08522600  0.83814500  0.97368800  1
  O  O17  1  0.83814500  0.08522600  0.02631200  1
  O  O18  1  0.27115000  0.67228800  0.58903400  1
  O  O19  1  0.67228800  0.27115000  0.41096600  1
  O  O20  1  0.72885000  0.32771200  0.08903400  1
  O  O21  1  0.32771200  0.72885000  0.91096600  1
  O  O22  1  0.91477400  0.16185500  0.47368800  1
  O  O23  1  0.16185500  0.91477400  0.52631200  1
  O  O24  1  0.83449600  0.32765500  0.89527500  1
  O  O25  1  0.32765500  0.83449600  0.10472500  1
  O  O26  1  0.77136600  0.47761000  0.69844900  1
  O  O27  1  0.47761000  0.77136600  0.30155100  1
  O  O28  1  0.00668500  0.27473100  0.70199000  1
  O  O29  1  0.27473100  0.00668500  0.29801000  1
  O  O30  1  0.52207200  0.73104700  0.71576000  1
  O  O31  1  0.73104700  0.52207200  0.28424000  1
  O  O32  1  0.94465300  0.32879200  0.25690900  1
  O  O33  1  0.32879200  0.94465300  0.74309100  1
  O  O34  1  0.71382600  0.69977800  0.11661000  1
  O  O35  1  0.69977800  0.71382600  0.88339000  1
  O  O36  1  0.96539400  0.63439700  0.55293900  1
  O  O37  1  0.63439700  0.96539400  0.44706100  1
  O  O38  1  0.82434400  0.78534700  0.68748600  1
  O  O39  1  0.78534700  0.82434400  0.31251400  1
loop_
_geom_bond_atom_site_label_1
_geom_bond_atom_site_label_2
_geom_bond_distance
_geom_bond_site_symmetry_2
Li0 O34 1.987212 1_555
Li0 O35 1.987212 1_554
Li1 O5 1.987212 1_555
Li1 O4 1.987212 1_555
Mn0 O23 1.980162 1_545
Mn0 O22 1.980162 1_455
Mn0 O4 2.091523 1_555
Mn0 O5 2.091523 1_555
Mn1 O8 1.919557 1_555
Mn1 O31 1.919557 1_555
Mn1 O6 1.946837 1_555
Mn1 O32 1.946837 1_555
Mn1 O19 1.956592 1_555
Mn1 O20 1.956592 1_555
Mn2 O24 1.934671 1_555
Mn2 O15 1.934671 1_555
Mn2 O28 2.080683 1_655
Mn2 O11 2.080683 1_545
Mn2 O26 2.084468 1_555
Mn2 O13 2.084468 1_555
Mn3 O9 1.919557 1_555
Mn3 O30 1.919557 1_555
Mn3 O7 1.946837 1_555
Mn3 O33 1.946837 1_555
Mn3 O18 1.956592 1_555
Mn3 O21 1.956592 1_555
Mn4 O25 1.934671 1_555
Mn4 O14 1.934671 1_555
Mn4 O29 2.080683 1_565
Mn4 O10 2.080683 1_455
Mn4 O27 2.084468 1_555
Mn4 O12 2.084468 1_555
Mn5 O16 1.980162 1_654
Mn5 O17 1.980162 1_565
Mn5 O35 2.091523 1_554
Mn5 O34 2.091523 1_555
O0 P0 1.610883 1_555
O0 P3 1.644447 1_555
O1 P1 1.610883 1_555
O1 P2 1.644447 1_555
O2 P0 1.602212 1_555
O2 P6 1.646459 1_455
O3 P1 1.602212 1_555
O3 P7 1.646459 1_545
O4 P2 1.535722 1_555
O5 P3 1.535722 1_555
O6 P11 1.528598 1_545
O7 P10 1.528598 1_455
O8 P3 1.537565 1_555
O9 P2 1.537565 1_555
O10 P8 1.509743 1_555
O11 P9 1.509743 1_555
O12 P0 1.494511 1_555
O13 P1 1.494511 1_555
O14 P4 1.522821 1_555
O15 P5 1.522821 1_555
O16 P7 1.491445 1_555
O17 P6 1.491445 1_555
O18 P4 1.553582 1_555
O19 P5 1.553582 1_555
O20 P6 1.553582 1_555
O21 P7 1.553582 1_555
O22 P5 1.491445 1_555
O23 P4 1.491445 1_555
O24 P6 1.522821 1_556
O25 P7 1.522821 1_554
O26 P10 1.494511 1_555
O27 P11 1.494511 1_555
O28 P2 1.509743 1_555
O29 P3 1.509743 1_555
O30 P9 1.537565 1_555
O31 P8 1.537565 1_555
O32 P0 1.528598 1_655
O33 P1 1.528598 1_565
O34 P8 1.535722 1_555
O35 P9 1.535722 1_555
O36 P10 1.602212 1_555
O36 P4 1.646459 1_655
O37 P11 1.602212 1_555
O37 P5 1.646459 1_565
O38 P10 1.610883 1_555
O38 P9 1.644447 1_555
O39 P11 1.610883 1_555
O39 P8 1.644447 1_555
