# generated using pymatgen
data_Cr3P4O15
_symmetry_space_group_name_H-M   'P 1'
_cell_length_a   6.41838300
_cell_length_b   10.63778100
_cell_length_c   17.45242200
_cell_angle_alpha   90.00000000
_cell_angle_beta   90.00000000
_cell_angle_gamma   90.00000000
_symmetry_Int_Tables_number   1
_chemical_formula_structural   Cr3P4O15
_chemical_formula_sum   'Cr12 P16 O60'
_cell_volume   1191.60517285
_cell_formula_units_Z   4
loop_
 _symmetry_equiv_pos_site_id
 _symmetry_equiv_pos_as_xyz
  1  'x, y, z'
loop_
 _atom_site_type_symbol
 _atom_site_label
 _atom_site_symmetry_multiplicity
 _atom_site_fract_x
 _atom_site_fract_y
 _atom_site_fract_z
 _atom_site_occupancy
  Cr  Cr0  1  0.08189400  0.50643900  0.13308800  1
  Cr  Cr1  1  0.10476100  0.99768900  0.16586200  1
  Cr  Cr2  1  0.81626800  0.26081600  0.24800600  1
  Cr  Cr3  1  0.31626800  0.76081600  0.25199400  1
  Cr  Cr4  1  0.60476100  0.49768900  0.33413800  1
  Cr  Cr5  1  0.58189400  0.00643900  0.36691200  1
  Cr  Cr6  1  0.08189400  0.99356100  0.63308800  1
  Cr  Cr7  1  0.10476100  0.50231100  0.66586200  1
  Cr  Cr8  1  0.81626800  0.23918400  0.74800600  1
  Cr  Cr9  1  0.31626800  0.73918400  0.75199400  1
  Cr  Cr10  1  0.60476100  0.00231100  0.83413800  1
  Cr  Cr11  1  0.58189400  0.49356100  0.86691200  1
  P  P0  1  0.14579100  0.77159100  0.05289000  1
  P  P1  1  0.96235900  0.23640300  0.07429400  1
  P  P2  1  0.58284100  0.51881200  0.17784100  1
  P  P3  1  0.59798700  0.00050800  0.20764500  1
  P  P4  1  0.09798700  0.50050800  0.29235500  1
  P  P5  1  0.08284100  0.01881200  0.32215900  1
  P  P6  1  0.46235900  0.73640300  0.42570600  1
  P  P7  1  0.64579100  0.27159100  0.44711000  1
  P  P8  1  0.14579100  0.72840900  0.55289000  1
  P  P9  1  0.96235900  0.26359700  0.57429400  1
  P  P10  1  0.58284100  0.98118800  0.67784100  1
  P  P11  1  0.59798700  0.49949200  0.70764500  1
  P  P12  1  0.09798700  0.99949200  0.79235500  1
  P  P13  1  0.08284100  0.48118800  0.82215900  1
  P  P14  1  0.46235900  0.76359700  0.92570600  1
  P  P15  1  0.64579100  0.22840900  0.94711000  1
  O  O0  1  0.98241400  0.85478100  0.01735300  1
  O  O1  1  0.36370500  0.78756500  0.00813500  1
  O  O2  1  0.09855400  0.63096100  0.05120300  1
  O  O3  1  0.07973300  0.36123100  0.06582700  1
  O  O4  1  0.10645900  0.12415800  0.08525900  1
  O  O5  1  0.79098800  0.24173700  0.13631200  1
  O  O6  1  0.39216100  0.50214100  0.12836800  1
  O  O7  1  0.77891700  0.54133700  0.13175100  1
  O  O8  1  0.20173400  0.81580500  0.13647900  1
  O  O9  1  0.41028900  0.02350700  0.15751900  1
  O  O10  1  0.79524900  0.97029200  0.16380000  1
  O  O11  1  0.54950900  0.62534700  0.24209900  1
  O  O12  1  0.61147600  0.40264400  0.23498600  1
  O  O13  1  0.12305700  0.61454200  0.23298000  1
  O  O14  1  0.04696400  0.39307500  0.23071800  1
  O  O15  1  0.54696400  0.89307500  0.26928200  1
  O  O16  1  0.62305700  0.11454200  0.26702000  1
  O  O17  1  0.11147600  0.90264400  0.26501400  1
  O  O18  1  0.04950900  0.12534700  0.25790100  1
  O  O19  1  0.29524900  0.47029200  0.33620000  1
  O  O20  1  0.91028900  0.52350700  0.34248100  1
  O  O21  1  0.70173400  0.31580500  0.36352100  1
  O  O22  1  0.27891700  0.04133700  0.36824900  1
  O  O23  1  0.89216100  0.00214100  0.37163200  1
  O  O24  1  0.29098800  0.74173700  0.36368800  1
  O  O25  1  0.60645900  0.62415800  0.41474100  1
  O  O26  1  0.57973300  0.86123100  0.43417300  1
  O  O27  1  0.59855400  0.13096100  0.44879700  1
  O  O28  1  0.86370500  0.28756500  0.49186500  1
  O  O29  1  0.48241400  0.35478100  0.48264700  1
  O  O30  1  0.98241400  0.64521900  0.51735300  1
  O  O31  1  0.36370500  0.71243500  0.50813500  1
  O  O32  1  0.09855400  0.86903900  0.55120300  1
  O  O33  1  0.07973300  0.13876900  0.56582700  1
  O  O34  1  0.10645900  0.37584200  0.58525900  1
  O  O35  1  0.79098800  0.25826300  0.63631200  1
  O  O36  1  0.39216100  0.99785900  0.62836800  1
  O  O37  1  0.77891700  0.95866300  0.63175100  1
  O  O38  1  0.20173400  0.68419500  0.63647900  1
  O  O39  1  0.41028900  0.47649300  0.65751900  1
  O  O40  1  0.79524900  0.52970800  0.66380000  1
  O  O41  1  0.54950900  0.87465300  0.74209900  1
  O  O42  1  0.61147600  0.09735600  0.73498600  1
  O  O43  1  0.12305700  0.88545800  0.73298000  1
  O  O44  1  0.04696400  0.10692500  0.73071800  1
  O  O45  1  0.54696400  0.60692500  0.76928200  1
  O  O46  1  0.62305700  0.38545800  0.76702000  1
  O  O47  1  0.11147600  0.59735600  0.76501400  1
  O  O48  1  0.04950900  0.37465300  0.75790100  1
  O  O49  1  0.29524900  0.02970800  0.83620000  1
  O  O50  1  0.91028900  0.97649300  0.84248100  1
  O  O51  1  0.70173400  0.18419500  0.86352100  1
  O  O52  1  0.27891700  0.45866300  0.86824900  1
  O  O53  1  0.89216100  0.49785900  0.87163200  1
  O  O54  1  0.29098800  0.75826300  0.86368800  1
  O  O55  1  0.60645900  0.87584200  0.91474100  1
  O  O56  1  0.57973300  0.63876900  0.93417300  1
  O  O57  1  0.59855400  0.36903900  0.94879700  1
  O  O58  1  0.86370500  0.21243500  0.99186500  1
  O  O59  1  0.48241400  0.14521900  0.98264700  1
loop_
_geom_bond_atom_site_label_1
_geom_bond_atom_site_label_2
_geom_bond_distance
_geom_bond_site_symmetry_2
Cr0 O3 1.940162 1_555
Cr0 O2 1.951513 1_555
Cr0 O7 1.979878 1_455
Cr0 O6 1.993640 1_555
Cr0 O14 2.099468 1_555
Cr0 O13 2.105123 1_555
Cr1 O4 1.946520 1_565
Cr1 O9 1.985481 1_565
Cr1 O17 2.004631 1_555
Cr1 O10 2.008154 1_455
Cr1 O8 2.096181 1_555
Cr1 O18 2.133103 1_565
Cr2 O5 1.966573 1_555
Cr2 O12 2.013865 1_555
Cr2 O16 2.017227 1_555
Cr2 O14 2.064698 1_655
Cr2 O18 2.085104 1_655
Cr2 O21 2.224165 1_555
Cr3 O24 1.966573 1_555
Cr3 O17 2.013865 1_555
Cr3 O13 2.017227 1_555
Cr3 O15 2.064698 1_555
Cr3 O11 2.085104 1_555
Cr3 O8 2.224165 1_555
Cr4 O25 1.946520 1_555
Cr4 O20 1.985481 1_555
Cr4 O12 2.004631 1_555
Cr4 O19 2.008154 1_555
Cr4 O21 2.096181 1_555
Cr4 O11 2.133103 1_555
Cr5 O26 1.940162 1_545
Cr5 O27 1.951513 1_555
Cr5 O22 1.979878 1_555
Cr5 O23 1.993640 1_555
Cr5 O15 2.099468 1_545
Cr5 O16 2.105123 1_555
Cr6 O33 1.940162 1_565
Cr6 O32 1.951513 1_555
Cr6 O37 1.979878 1_455
Cr6 O36 1.993640 1_555
Cr6 O44 2.099468 1_565
Cr6 O43 2.105123 1_555
Cr7 O34 1.946520 1_555
Cr7 O39 1.985481 1_555
Cr7 O47 2.004631 1_555
Cr7 O40 2.008154 1_455
Cr7 O38 2.096181 1_555
Cr7 O48 2.133103 1_555
Cr8 O35 1.966573 1_555
Cr8 O42 2.013865 1_555
Cr8 O46 2.017227 1_555
Cr8 O44 2.064698 1_655
Cr8 O48 2.085104 1_655
Cr8 O51 2.224165 1_555
Cr9 O54 1.966573 1_555
Cr9 O47 2.013865 1_555
Cr9 O43 2.017227 1_555
Cr9 O45 2.064698 1_555
Cr9 O41 2.085104 1_555
Cr9 O38 2.224165 1_555
Cr10 O55 1.946520 1_545
Cr10 O50 1.985481 1_545
Cr10 O42 2.004631 1_555
Cr10 O49 2.008154 1_555
Cr10 O51 2.096181 1_555
Cr10 O41 2.133103 1_545
Cr11 O56 1.940162 1_555
Cr11 O57 1.951513 1_555
Cr11 O52 1.979878 1_555
Cr11 O53 1.993640 1_555
Cr11 O45 2.099468 1_555
Cr11 O46 2.105123 1_555
O0 P0 1.505789 1_655
O1 P14 1.592318 1_554
O1 P0 1.610964 1_555
O2 P0 1.526688 1_555
O3 P1 1.533843 1_455
O4 P1 1.522421 1_455
O5 P1 1.544204 1_555
O6 P2 1.508237 1_555
O7 P2 1.512695 1_555
O8 P0 1.574272 1_555
O9 P3 1.508812 1_555
O10 P3 1.513892 1_565
O11 P2 1.608663 1_555
O12 P2 1.598609 1_555
O13 P4 1.603501 1_555
O14 P4 1.603282 1_555
O15 P3 1.603282 1_565
O16 P3 1.603501 1_555
O17 P5 1.598609 1_565
O18 P5 1.608663 1_555
O19 P4 1.513892 1_555
O20 P4 1.508812 1_655
O21 P7 1.574272 1_555
O22 P5 1.512695 1_555
O23 P5 1.508237 1_655
O24 P6 1.544204 1_555
O25 P6 1.522421 1_555
O26 P6 1.533843 1_555
O27 P7 1.526688 1_555
O28 P9 1.592318 1_555
O28 P7 1.610964 1_555
O29 P7 1.505789 1_555
O30 P8 1.505789 1_655
O31 P6 1.592318 1_555
O31 P8 1.610964 1_555
O32 P8 1.526688 1_555
O33 P9 1.533843 1_455
O34 P9 1.522421 1_455
O35 P9 1.544204 1_555
O36 P10 1.508237 1_555
O37 P10 1.512695 1_555
O38 P8 1.574272 1_555
O39 P11 1.508812 1_555
O40 P11 1.513892 1_555
O41 P10 1.608663 1_555
O42 P10 1.598609 1_545
O43 P12 1.603501 1_555
O44 P12 1.603282 1_545
O45 P11 1.603282 1_555
O46 P11 1.603501 1_555
O47 P13 1.598609 1_555
O48 P13 1.608663 1_555
O49 P12 1.513892 1_545
O50 P12 1.508812 1_655
O51 P15 1.574272 1_555
O52 P13 1.512695 1_555
O53 P13 1.508237 1_655
O54 P14 1.544204 1_555
O55 P14 1.522421 1_555
O56 P14 1.533843 1_555
O57 P15 1.526688 1_555
O58 P1 1.592318 1_556
O58 P15 1.610964 1_555
O59 P15 1.505789 1_555
