# generated using pymatgen
data_Li4Mn2Fe3Sb3O16
_symmetry_space_group_name_H-M   'P 1'
_cell_length_a   6.15487060
_cell_length_b   6.15487060
_cell_length_c   9.92492290
_cell_angle_alpha   89.97889864
_cell_angle_beta   89.97889864
_cell_angle_gamma   60.15499204
_symmetry_Int_Tables_number   1
_chemical_formula_structural   Li4Mn2Fe3Sb3O16
_chemical_formula_sum   'Li4 Mn2 Fe3 Sb3 O16'
_cell_volume   326.11573403
_cell_formula_units_Z   1
loop_
 _symmetry_equiv_pos_site_id
 _symmetry_equiv_pos_as_xyz
  1  'x, y, z'
loop_
 _atom_site_type_symbol
 _atom_site_label
 _atom_site_symmetry_multiplicity
 _atom_site_fract_x
 _atom_site_fract_y
 _atom_site_fract_z
 _atom_site_occupancy
  Li  Li0  1  0.66139000  0.66139000  0.11877100  1
  Li  Li1  1  0.99031600  0.99031600  0.00545400  1
  Li  Li2  1  0.99427200  0.99427200  0.49807900  1
  Li  Li3  1  0.32527300  0.32527300  0.60377200  1
  Mn  Mn0  1  0.67449100  0.67449100  0.49806300  1
  Mn  Mn1  1  0.34578200  0.34578200  0.01708300  1
  Fe  Fe0  1  0.83347600  0.83347600  0.78368000  1
  Fe  Fe1  1  0.16440400  0.66447400  0.28613900  1
  Fe  Fe2  1  0.66447400  0.16440400  0.28613900  1
  Sb  Sb0  1  0.34094500  0.83281900  0.78546100  1
  Sb  Sb1  1  0.83281900  0.34094500  0.78546100  1
  Sb  Sb2  1  0.16868100  0.16868100  0.28360300  1
  O  O0  1  0.31269300  0.84877700  0.39390500  1
  O  O1  1  0.51414000  0.51414000  0.66815000  1
  O  O2  1  0.65832000  0.65832000  0.90103800  1
  O  O3  1  0.01108600  0.01108600  0.68138800  1
  O  O4  1  0.00239000  0.00239000  0.18510400  1
  O  O5  1  0.84877700  0.31269300  0.39390500  1
  O  O6  1  0.50242800  0.97021200  0.66998700  1
  O  O7  1  0.97021200  0.50242800  0.66998700  1
  O  O8  1  0.16039000  0.16039000  0.90164500  1
  O  O9  1  0.84365700  0.84365700  0.39311400  1
  O  O10  1  0.03190200  0.47819200  0.16586400  1
  O  O11  1  0.47819200  0.03190200  0.16586400  1
  O  O12  1  0.32956900  0.32956900  0.39517700  1
  O  O13  1  0.17331400  0.68814800  0.89686300  1
  O  O14  1  0.47581500  0.47581500  0.16223100  1
  O  O15  1  0.68814800  0.17331400  0.89686300  1
loop_
_geom_bond_atom_site_label_1
_geom_bond_atom_site_label_2
_geom_bond_distance
_geom_bond_site_symmetry_2
Li0 O14 2.023117 1_555
Li0 O10 2.032590 1_655
Li0 O11 2.032590 1_565
Li0 O2 2.161245 1_554
Li1 O4 1.787700 1_665
Li1 O13 1.950565 1_654
Li1 O15 1.950565 1_564
Li1 O8 2.083759 1_664
Li2 O3 1.828198 1_665
Li2 O9 1.913309 1_555
Li2 O0 1.991046 1_655
Li2 O5 1.991046 1_565
Li3 O6 2.006082 1_545
Li3 O7 2.006082 1_455
Li3 O12 2.070776 1_555
Li3 O1 2.111136 1_555
Mn0 O9 2.080993 1_555
Mn0 O5 2.191219 1_555
Mn0 O0 2.191219 1_555
Mn0 O6 2.329892 1_555
Mn0 O7 2.329892 1_555
Mn0 O1 2.401002 1_555
Mn1 O14 1.998897 1_555
Mn1 O15 2.182561 1_554
Mn1 O13 2.182561 1_554
Mn1 O10 2.237986 1_555
Mn1 O11 2.237986 1_555
Mn1 O8 2.283541 1_554
Fe0 O6 2.104147 1_555
Fe0 O7 2.104147 1_555
Fe0 O15 2.139118 1_565
Fe0 O13 2.139118 1_655
Fe0 O3 2.146745 1_665
Fe0 O2 2.199101 1_555
Fe1 O9 2.018204 1_455
Fe1 O4 2.064111 1_565
Fe1 O0 2.072646 1_555
Fe1 O14 2.078107 1_555
Fe1 O10 2.082547 1_555
Fe1 O12 2.089747 1_555
Fe2 O9 2.018204 1_545
Fe2 O4 2.064111 1_655
Fe2 O5 2.072646 1_555
Fe2 O14 2.078107 1_555
Fe2 O11 2.082547 1_555
Fe2 O12 2.089747 1_555
O0 Sb2 2.030521 1_565
O1 Sb0 2.063697 1_555
O1 Sb1 2.063697 1_555
O2 Sb0 2.048831 1_555
O2 Sb1 2.048831 1_555
O3 Sb1 2.043579 1_455
O3 Sb0 2.043579 1_545
O4 Sb2 2.023588 1_555
O5 Sb2 2.030521 1_655
O6 Sb0 1.962503 1_555
O7 Sb1 1.962503 1_555
O8 Sb1 2.097683 1_455
O8 Sb0 2.097683 1_545
O10 Sb2 2.026358 1_555
O11 Sb2 2.026358 1_555
O12 Sb2 2.040839 1_555
O13 Sb0 1.998167 1_555
O15 Sb1 1.998167 1_555
