# generated using pymatgen
data_Li6Ti2O7
_symmetry_space_group_name_H-M   'P 1'
_cell_length_a   5.73505745
_cell_length_b   5.73505745
_cell_length_c   9.63944599
_cell_angle_alpha   80.41563508
_cell_angle_beta   80.41563508
_cell_angle_gamma   59.75158106
_symmetry_Int_Tables_number   1
_chemical_formula_structural   Li6Ti2O7
_chemical_formula_sum   'Li12 Ti4 O14'
_cell_volume   268.78681494
_cell_formula_units_Z   2
loop_
 _symmetry_equiv_pos_site_id
 _symmetry_equiv_pos_as_xyz
  1  'x, y, z'
loop_
 _atom_site_type_symbol
 _atom_site_label
 _atom_site_symmetry_multiplicity
 _atom_site_fract_x
 _atom_site_fract_y
 _atom_site_fract_z
 _atom_site_occupancy
  Li  Li0  1  0.66758721  0.92417618  0.38689385  1
  Li  Li1  1  0.92417618  0.66758721  0.88689385  1
  Li  Li2  1  0.20694180  0.92299284  0.40315300  1
  Li  Li3  1  0.67022334  0.47045531  0.39002218  1
  Li  Li4  1  0.92299284  0.20694180  0.90315300  1
  Li  Li5  1  0.47045531  0.67022334  0.89002218  1
  Li  Li6  1  0.52954469  0.32977666  0.10997782  1
  Li  Li7  1  0.07700716  0.79305820  0.09684700  1
  Li  Li8  1  0.32977666  0.52954469  0.60997782  1
  Li  Li9  1  0.79305820  0.07700716  0.59684700  1
  Li  Li10  1  0.07582382  0.33241279  0.11310615  1
  Li  Li11  1  0.33241279  0.07582382  0.61310615  1
  Ti  Ti0  1  0.57012494  0.79744303  0.13078161  1
  Ti  Ti1  1  0.79744303  0.57012494  0.63078161  1
  Ti  Ti2  1  0.20255697  0.42987506  0.36921839  1
  Ti  Ti3  1  0.42987506  0.20255697  0.86921839  1
  O  O0  1  0.86312107  0.64027195  0.24952741  1
  O  O1  1  0.00085289  0.27026653  0.49855296  1
  O  O2  1  0.64027195  0.86312107  0.74952741  1
  O  O3  1  0.27026653  0.00085289  0.99855296  1
  O  O4  1  0.74032088  0.50430850  0.02459674  1
  O  O5  1  0.35158750  0.64841250  0.25000000  1
  O  O6  1  0.50430850  0.74032088  0.52459674  1
  O  O7  1  0.49569150  0.25967912  0.47540326  1
  O  O8  1  0.64841250  0.35158750  0.75000000  1
  O  O9  1  0.25967912  0.49569150  0.97540326  1
  O  O10  1  0.72973347  0.99914711  0.00144704  1
  O  O11  1  0.35972805  0.13687893  0.25047259  1
  O  O12  1  0.99914711  0.72973347  0.50144704  1
  O  O13  1  0.13687893  0.35972805  0.75047259  1
loop_
_geom_bond_atom_site_label_1
_geom_bond_atom_site_label_2
_geom_bond_distance
_geom_bond_site_symmetry_2
Li0 O7 1.938437 1_565
Li0 O6 1.966064 1_555
Li0 O0 2.011427 1_555
Li0 O12 2.057041 1_555
Li0 O11 2.098502 1_565
Li1 O9 1.938437 1_655
Li1 O4 1.966064 1_556
Li1 O2 2.011427 1_555
Li1 O10 2.057041 1_556
Li1 O13 2.098502 1_655
Li2 O6 1.957746 1_555
Li2 O1 2.021277 1_565
Li2 O12 2.037505 1_455
Li2 O5 2.097058 1_555
Li2 O11 2.119153 1_565
Li3 O7 1.937503 1_555
Li3 O6 1.938392 1_555
Li3 O1 2.018761 1_655
Li3 O0 2.038096 1_555
Li3 O5 2.164805 1_555
Li4 O4 1.957746 1_556
Li4 O3 2.021277 1_655
Li4 O10 2.037505 1_546
Li4 O8 2.097058 1_555
Li4 O13 2.119153 1_655
Li5 O9 1.937503 1_555
Li5 O4 1.938392 1_556
Li5 O3 2.018761 1_565
Li5 O2 2.038096 1_555
Li5 O8 2.164805 1_555
Li6 O4 1.937503 1_555
Li6 O9 1.938392 1_554
Li6 O10 2.018761 1_545
Li6 O11 2.038096 1_555
Li6 O5 2.164805 1_555
Li7 O9 1.957746 1_554
Li7 O10 2.021277 1_455
Li7 O3 2.037505 1_564
Li7 O5 2.097058 1_555
Li7 O0 2.119153 1_455
Li8 O6 1.937503 1_555
Li8 O7 1.938392 1_555
Li8 O12 2.018761 1_455
Li8 O13 2.038096 1_555
Li8 O8 2.164805 1_555
Li9 O7 1.957746 1_555
Li9 O12 2.021277 1_545
Li9 O1 2.037505 1_655
Li9 O8 2.097058 1_555
Li9 O2 2.119153 1_545
Li10 O4 1.938437 1_455
Li10 O9 1.966064 1_554
Li10 O11 2.011427 1_555
Li10 O3 2.057041 1_554
Li10 O0 2.098502 1_455
Li11 O6 1.938437 1_545
Li11 O7 1.966064 1_555
Li11 O13 2.011427 1_555
Li11 O1 2.057041 1_555
Li11 O2 2.098502 1_545
O0 Ti0 1.928002 1_555
O0 Ti2 2.120016 1_655
O1 Ti2 1.984161 1_555
O1 Ti1 2.038744 1_455
O2 Ti1 1.928002 1_555
O2 Ti3 2.120016 1_565
O3 Ti3 1.984161 1_555
O3 Ti0 2.038744 1_546
O4 Ti0 1.847630 1_555
O5 Ti2 1.973458 1_555
O5 Ti0 1.973458 1_555
O6 Ti1 1.847630 1_555
O7 Ti2 1.847630 1_555
O8 Ti3 1.973458 1_555
O8 Ti1 1.973458 1_555
O9 Ti3 1.847630 1_555
O10 Ti0 1.984161 1_555
O10 Ti3 2.038744 1_564
O11 Ti2 1.928002 1_555
O11 Ti0 2.120016 1_545
O12 Ti1 1.984161 1_555
O12 Ti2 2.038744 1_655
O13 Ti3 1.928002 1_555
O13 Ti1 2.120016 1_455
