# generated using pymatgen
data_Na3Cu5O4
_symmetry_space_group_name_H-M   'P 1'
_cell_length_a   7.02690200
_cell_length_b   8.50109400
_cell_length_c   13.34021188
_cell_angle_alpha   73.18816173
_cell_angle_beta   90.00000000
_cell_angle_gamma   90.00000000
_symmetry_Int_Tables_number   1
_chemical_formula_structural   Na3Cu5O4
_chemical_formula_sum   'Na12 Cu20 O16'
_cell_volume   762.83611343
_cell_formula_units_Z   4
loop_
 _symmetry_equiv_pos_site_id
 _symmetry_equiv_pos_as_xyz
  1  'x, y, z'
loop_
 _atom_site_type_symbol
 _atom_site_label
 _atom_site_symmetry_multiplicity
 _atom_site_fract_x
 _atom_site_fract_y
 _atom_site_fract_z
 _atom_site_occupancy
  Na  Na0  1  0.64154800  0.91030500  0.58194000  1
  Na  Na1  1  0.92085000  0.66299100  0.90747300  1
  Na  Na2  1  0.24896600  0.73863000  0.57318500  1
  Na  Na3  1  0.85845200  0.91030500  0.08194000  1
  Na  Na4  1  0.57915000  0.66299100  0.40747300  1
  Na  Na5  1  0.25103400  0.73863000  0.07318500  1
  Na  Na6  1  0.74896600  0.26137000  0.92681500  1
  Na  Na7  1  0.42085000  0.33700900  0.59252700  1
  Na  Na8  1  0.14154800  0.08969500  0.91806000  1
  Na  Na9  1  0.75103400  0.26137000  0.42681500  1
  Na  Na10  1  0.07915000  0.33700900  0.09252700  1
  Na  Na11  1  0.35845200  0.08969500  0.41806000  1
  Cu  Cu0  1  0.58274200  0.95041000  0.89860600  1
  Cu  Cu1  1  0.33545700  0.94003900  0.74530100  1
  Cu  Cu2  1  0.91725800  0.95041000  0.39860600  1
  Cu  Cu3  1  0.45801100  0.68588200  0.88564800  1
  Cu  Cu4  1  0.16454300  0.94003900  0.24530100  1
  Cu  Cu5  1  0.55074500  0.55785400  0.73246200  1
  Cu  Cu6  1  0.04198900  0.68588200  0.38564800  1
  Cu  Cu7  1  0.31271900  0.41807600  0.89866900  1
  Cu  Cu8  1  0.81271900  0.58192400  0.60133100  1
  Cu  Cu9  1  0.05074500  0.44214600  0.76753800  1
  Cu  Cu10  1  0.94925500  0.55785400  0.23246200  1
  Cu  Cu11  1  0.18728100  0.41807600  0.39866900  1
  Cu  Cu12  1  0.68728100  0.58192400  0.10133100  1
  Cu  Cu13  1  0.95801100  0.31411800  0.61435200  1
  Cu  Cu14  1  0.44925500  0.44214600  0.26753800  1
  Cu  Cu15  1  0.83545700  0.05996100  0.75469900  1
  Cu  Cu16  1  0.54198900  0.31411800  0.11435200  1
  Cu  Cu17  1  0.08274200  0.04959000  0.60139400  1
  Cu  Cu18  1  0.66454300  0.05996100  0.25469900  1
  Cu  Cu19  1  0.41725800  0.04959000  0.10139400  1
  O  O0  1  0.83465100  0.00612300  0.89868200  1
  O  O1  1  0.33211200  0.87892300  0.89248200  1
  O  O2  1  0.66534900  0.00612300  0.39868200  1
  O  O3  1  0.16788800  0.87892300  0.39248200  1
  O  O4  1  0.56565900  0.48916700  0.87724100  1
  O  O5  1  0.55407600  0.62439200  0.58742500  1
  O  O6  1  0.05407600  0.37560800  0.91257500  1
  O  O7  1  0.06565900  0.51083300  0.62275900  1
  O  O8  1  0.93434100  0.48916700  0.37724100  1
  O  O9  1  0.94592400  0.62439200  0.08742500  1
  O  O10  1  0.44592400  0.37560800  0.41257500  1
  O  O11  1  0.43434100  0.51083300  0.12275900  1
  O  O12  1  0.83211200  0.12107700  0.60751800  1
  O  O13  1  0.33465100  0.99387700  0.60131800  1
  O  O14  1  0.66788800  0.12107700  0.10751800  1
  O  O15  1  0.16534900  0.99387700  0.10131800  1
loop_
_geom_bond_atom_site_label_1
_geom_bond_atom_site_label_2
_geom_bond_distance
_geom_bond_site_symmetry_2
Na0 O13 2.308344 1_555
Na0 O12 2.339601 1_565
Na0 O2 2.348643 1_565
Na0 O5 2.487562 1_555
Na1 O9 2.333650 1_556
Na1 O6 2.598739 1_655
Na2 O7 2.259604 1_555
Na2 O5 2.338619 1_555
Na2 O13 2.383867 1_555
Na2 O3 2.427959 1_555
Na3 O15 2.308344 1_655
Na3 O14 2.339601 1_565
Na3 O0 2.348643 1_564
Na3 O9 2.487562 1_555
Na4 O5 2.333650 1_555
Na4 O10 2.598739 1_555
Na5 O11 2.259604 1_555
Na5 O9 2.338619 1_455
Na5 O15 2.383867 1_555
Na5 O1 2.427959 1_554
Na6 O4 2.259604 1_555
Na6 O6 2.338619 1_655
Na6 O0 2.383867 1_555
Na6 O14 2.427959 1_556
Na7 O10 2.333650 1_555
Na7 O5 2.598739 1_555
Na8 O0 2.308344 1_455
Na8 O1 2.339601 1_545
Na8 O15 2.348643 1_546
Na8 O6 2.487562 1_555
Na9 O8 2.259604 1_555
Na9 O10 2.338619 1_555
Na9 O2 2.383867 1_555
Na9 O12 2.427959 1_555
Na10 O6 2.333650 1_554
Na10 O9 2.598739 1_455
Na11 O2 2.308344 1_555
Na11 O3 2.339601 1_545
Na11 O13 2.348643 1_545
Na11 O10 2.487562 1_555
Cu0 O0 1.832482 1_565
Cu0 O1 1.872531 1_555
Cu1 O13 1.841281 1_555
Cu1 O1 1.880277 1_555
Cu2 O2 1.832482 1_565
Cu2 O3 1.872531 1_655
Cu3 O4 1.868106 1_555
Cu3 O1 1.889601 1_555
Cu4 O15 1.841281 1_555
Cu4 O3 1.880277 1_555
Cu5 O4 1.851975 1_555
Cu5 O5 1.852287 1_555
Cu6 O8 1.868106 1_455
Cu6 O3 1.889601 1_555
Cu7 O6 1.851801 1_555
Cu7 O4 1.872463 1_555
Cu8 O5 1.851801 1_555
Cu8 O7 1.872463 1_655
Cu9 O7 1.851975 1_555
Cu9 O6 1.852287 1_555
Cu10 O8 1.851975 1_555
Cu10 O9 1.852287 1_555
Cu11 O10 1.851801 1_555
Cu11 O8 1.872463 1_455
Cu12 O9 1.851801 1_555
Cu12 O11 1.872463 1_555
Cu13 O7 1.868106 1_655
Cu13 O12 1.889601 1_555
Cu14 O11 1.851975 1_555
Cu14 O10 1.852287 1_555
Cu15 O0 1.841281 1_555
Cu15 O12 1.880277 1_555
Cu16 O11 1.868106 1_555
Cu16 O14 1.889601 1_555
Cu17 O13 1.832482 1_545
Cu17 O12 1.872531 1_455
Cu18 O2 1.841281 1_555
Cu18 O14 1.880277 1_555
Cu19 O15 1.832482 1_545
Cu19 O14 1.872531 1_555
