# generated using pymatgen
data_Li2NbCr3O8
_symmetry_space_group_name_H-M   'P 1'
_cell_length_a   8.53033000
_cell_length_b   8.53033000
_cell_length_c   8.53033000
_cell_angle_alpha   90.00000000
_cell_angle_beta   90.00000000
_cell_angle_gamma   90.00000000
_symmetry_Int_Tables_number   1
_chemical_formula_structural   Li2NbCr3O8
_chemical_formula_sum   'Li8 Nb4 Cr12 O32'
_cell_volume   620.72251308
_cell_formula_units_Z   4
loop_
 _symmetry_equiv_pos_site_id
 _symmetry_equiv_pos_as_xyz
  1  'x, y, z'
loop_
 _atom_site_type_symbol
 _atom_site_label
 _atom_site_symmetry_multiplicity
 _atom_site_fract_x
 _atom_site_fract_y
 _atom_site_fract_z
 _atom_site_occupancy
  Li  Li0  1  0.99551300  0.99551300  0.99551300  1
  Li  Li1  1  0.25448700  0.25448700  0.25448700  1
  Li  Li2  1  0.24551300  0.74551300  0.75448700  1
  Li  Li3  1  0.50448700  0.00448700  0.49551300  1
  Li  Li4  1  0.49551300  0.50448700  0.00448700  1
  Li  Li5  1  0.75448700  0.24551300  0.74551300  1
  Li  Li6  1  0.74551300  0.75448700  0.24551300  1
  Li  Li7  1  0.00448700  0.49551300  0.50448700  1
  Nb  Nb0  1  0.12500000  0.87500000  0.37500000  1
  Nb  Nb1  1  0.37500000  0.12500000  0.87500000  1
  Nb  Nb2  1  0.62500000  0.62500000  0.62500000  1
  Nb  Nb3  1  0.87500000  0.37500000  0.12500000  1
  Cr  Cr0  1  0.12146600  0.12853400  0.62500000  1
  Cr  Cr1  1  0.12500000  0.37853400  0.87146600  1
  Cr  Cr2  1  0.12853400  0.62500000  0.12146600  1
  Cr  Cr3  1  0.37146600  0.37500000  0.62146600  1
  Cr  Cr4  1  0.37500000  0.62146600  0.37146600  1
  Cr  Cr5  1  0.37853400  0.87146600  0.12500000  1
  Cr  Cr6  1  0.62146600  0.37146600  0.37500000  1
  Cr  Cr7  1  0.62500000  0.12146600  0.12853400  1
  Cr  Cr8  1  0.62853400  0.87500000  0.87853400  1
  Cr  Cr9  1  0.87146600  0.12500000  0.37853400  1
  Cr  Cr10  1  0.87500000  0.87853400  0.62853400  1
  Cr  Cr11  1  0.87853400  0.62853400  0.87500000  1
  O  O0  1  0.11359500  0.11164100  0.38577400  1
  O  O1  1  0.11422600  0.88640500  0.61164100  1
  O  O2  1  0.11123900  0.61123900  0.88876100  1
  O  O3  1  0.13835900  0.13640500  0.86422600  1
  O  O4  1  0.11164100  0.38577400  0.11359500  1
  O  O5  1  0.13876100  0.36123900  0.63876100  1
  O  O6  1  0.13577400  0.63835900  0.36359500  1
  O  O7  1  0.13640500  0.86422600  0.13835900  1
  O  O8  1  0.36359500  0.13577400  0.63835900  1
  O  O9  1  0.36422600  0.36164100  0.86359500  1
  O  O10  1  0.36123900  0.63876100  0.13876100  1
  O  O11  1  0.38835900  0.61422600  0.61359500  1
  O  O12  1  0.36164100  0.86359500  0.36422600  1
  O  O13  1  0.38876100  0.38876100  0.38876100  1
  O  O14  1  0.38577400  0.11359500  0.11164100  1
  O  O15  1  0.38640500  0.88835900  0.88577400  1
  O  O16  1  0.61359500  0.38835900  0.61422600  1
  O  O17  1  0.61422600  0.61359500  0.38835900  1
  O  O18  1  0.61123900  0.88876100  0.11123900  1
  O  O19  1  0.63835900  0.36359500  0.13577400  1
  O  O20  1  0.61164100  0.11422600  0.88640500  1
  O  O21  1  0.63876100  0.13876100  0.36123900  1
  O  O22  1  0.63577400  0.86164100  0.63640500  1
  O  O23  1  0.63640500  0.63577400  0.86164100  1
  O  O24  1  0.86359500  0.36422600  0.36164100  1
  O  O25  1  0.86422600  0.13835900  0.13640500  1
  O  O26  1  0.86123900  0.86123900  0.86123900  1
  O  O27  1  0.88835900  0.88577400  0.38640500  1
  O  O28  1  0.86164100  0.63640500  0.63577400  1
  O  O29  1  0.88876100  0.11123900  0.61123900  1
  O  O30  1  0.88577400  0.38640500  0.88835900  1
  O  O31  1  0.88640500  0.61164100  0.11422600  1
loop_
_geom_bond_atom_site_label_1
_geom_bond_atom_site_label_2
_geom_bond_distance
_geom_bond_site_symmetry_2
Li0 O26 1.983894 1_555
Li0 O25 2.045356 1_566
Li0 O7 2.045356 1_656
Li0 O3 2.045356 1_665
Li1 O13 1.983894 1_555
Li1 O14 2.045356 1_555
Li1 O4 2.045356 1_555
Li1 O0 2.045356 1_555
Li2 O2 1.983894 1_555
Li2 O11 2.045356 1_555
Li2 O15 2.045356 1_555
Li2 O1 2.045356 1_555
Li3 O21 1.983894 1_555
Li3 O22 2.045356 1_545
Li3 O12 2.045356 1_545
Li3 O8 2.045356 1_555
Li4 O10 1.983894 1_555
Li4 O23 2.045356 1_554
Li4 O9 2.045356 1_554
Li4 O19 2.045356 1_555
Li5 O29 1.983894 1_555
Li5 O16 2.045356 1_555
Li5 O30 2.045356 1_555
Li5 O20 2.045356 1_555
Li6 O18 1.983894 1_555
Li6 O17 2.045356 1_555
Li6 O27 2.045356 1_555
Li6 O31 2.045356 1_555
Li7 O5 1.983894 1_555
Li7 O24 2.045356 1_455
Li7 O28 2.045356 1_455
Li7 O6 2.045356 1_555
Nb0 O7 2.023058 1_555
Nb0 O6 2.023058 1_555
Nb0 O27 2.023058 1_455
Nb0 O1 2.023058 1_555
Nb0 O12 2.023058 1_555
Nb0 O0 2.023058 1_565
Nb1 O15 2.023058 1_545
Nb1 O8 2.023058 1_555
Nb1 O9 2.023058 1_555
Nb1 O20 2.023058 1_555
Nb1 O3 2.023058 1_555
Nb1 O14 2.023058 1_556
Nb2 O16 2.023058 1_555
Nb2 O28 2.023058 1_555
Nb2 O17 2.023058 1_555
Nb2 O23 2.023058 1_555
Nb2 O11 2.023058 1_555
Nb2 O22 2.023058 1_555
Nb3 O19 2.023058 1_555
Nb3 O24 2.023058 1_555
Nb3 O30 2.023058 1_554
Nb3 O31 2.023058 1_555
Nb3 O25 2.023058 1_555
Nb3 O4 2.023058 1_655
Cr0 O5 1.993984 1_555
Cr0 O29 1.993984 1_455
Cr0 O0 2.046860 1_555
Cr0 O3 2.046860 1_555
Cr0 O8 2.069503 1_555
Cr0 O1 2.069503 1_545
Cr1 O5 1.993984 1_555
Cr1 O2 1.993984 1_555
Cr1 O9 2.046860 1_555
Cr1 O30 2.046860 1_455
Cr1 O3 2.069503 1_555
Cr1 O4 2.069503 1_556
Cr2 O10 1.993984 1_555
Cr2 O2 1.993984 1_554
Cr2 O4 2.046860 1_555
Cr2 O7 2.046860 1_555
Cr2 O6 2.069503 1_555
Cr2 O31 2.069503 1_455
Cr3 O13 1.993984 1_555
Cr3 O5 1.993984 1_555
Cr3 O8 2.046860 1_555
Cr3 O11 2.046860 1_555
Cr3 O16 2.069503 1_555
Cr3 O9 2.069503 1_555
Cr4 O13 1.993984 1_555
Cr4 O10 1.993984 1_555
Cr4 O6 2.046860 1_555
Cr4 O17 2.046860 1_555
Cr4 O11 2.069503 1_555
Cr4 O12 2.069503 1_555
Cr5 O10 1.993984 1_555
Cr5 O18 1.993984 1_555
Cr5 O12 2.046860 1_555
Cr5 O15 2.046860 1_554
Cr5 O7 2.069503 1_555
Cr5 O14 2.069503 1_565
Cr6 O13 1.993984 1_555
Cr6 O21 1.993984 1_555
Cr6 O19 2.046860 1_555
Cr6 O16 2.046860 1_555
Cr6 O17 2.069503 1_555
Cr6 O24 2.069503 1_555
Cr7 O21 1.993984 1_555
Cr7 O18 1.993984 1_545
Cr7 O14 2.046860 1_555
Cr7 O25 2.046860 1_555
Cr7 O19 2.069503 1_555
Cr7 O20 2.069503 1_554
Cr8 O26 1.993984 1_555
Cr8 O18 1.993984 1_556
Cr8 O20 2.046860 1_565
Cr8 O23 2.046860 1_555
Cr8 O15 2.069503 1_555
Cr8 O22 2.069503 1_555
Cr9 O21 1.993984 1_555
Cr9 O29 1.993984 1_555
Cr9 O24 2.046860 1_555
Cr9 O27 2.046860 1_545
Cr9 O25 2.069503 1_555
Cr9 O0 2.069503 1_655
Cr10 O26 1.993984 1_555
Cr10 O29 1.993984 1_565
Cr10 O1 2.046860 1_655
Cr10 O22 2.046860 1_555
Cr10 O28 2.069503 1_555
Cr10 O27 2.069503 1_555
Cr11 O26 1.993984 1_555
Cr11 O2 1.993984 1_655
Cr11 O31 2.046860 1_556
Cr11 O28 2.046860 1_555
Cr11 O23 2.069503 1_555
Cr11 O30 2.069503 1_555
