# generated using pymatgen
data_Rb2O
_symmetry_space_group_name_H-M   'P 1'
_cell_length_a   7.39279898
_cell_length_b   7.39279898
_cell_length_c   6.61218900
_cell_angle_alpha   90.00000000
_cell_angle_beta   90.00000000
_cell_angle_gamma   120.00000873
_symmetry_Int_Tables_number   1
_chemical_formula_structural   Rb2O
_chemical_formula_sum   'Rb6 O3'
_cell_volume   312.96346856
_cell_formula_units_Z   3
loop_
 _symmetry_equiv_pos_site_id
 _symmetry_equiv_pos_as_xyz
  1  'x, y, z'
loop_
 _atom_site_type_symbol
 _atom_site_label
 _atom_site_symmetry_multiplicity
 _atom_site_fract_x
 _atom_site_fract_y
 _atom_site_fract_z
 _atom_site_occupancy
  Rb  Rb0  1  0.66035900  0.00068300  0.85521600  1
  Rb  Rb1  1  0.00142900  0.32592900  0.45661000  1
  Rb  Rb2  1  0.67407100  0.67550000  0.45661000  1
  Rb  Rb3  1  0.34032400  0.33964100  0.85521600  1
  Rb  Rb4  1  0.32450000  0.99857100  0.45661000  1
  Rb  Rb5  1  0.99931700  0.65967600  0.85521600  1
  O  O0  1  0.33333300  0.66666700  0.64866800  1
  O  O1  1  0.00000000  0.00000000  0.67748500  1
  O  O2  1  0.66666700  0.33333300  0.63972100  1
loop_
_geom_bond_atom_site_label_1
_geom_bond_atom_site_label_2
_geom_bond_distance
_geom_bond_site_symmetry_2
O0 Rb4 2.792461 1_555
O0 Rb1 2.792464 1_555
O0 Rb2 2.792468 1_555
O0 Rb5 2.799605 1_455
O0 Rb0 2.799608 1_565
O0 Rb3 2.799611 1_555
O1 Rb3 2.774596 1_555
O1 Rb5 2.774596 1_445
O1 Rb0 2.774596 1_455
O1 Rb2 2.813084 1_445
O1 Rb1 2.813084 1_555
O1 Rb4 2.813084 1_545
O2 Rb1 2.780141 1_655
O2 Rb4 2.780144 1_545
O2 Rb2 2.780148 1_555
O2 Rb0 2.822331 1_555
O2 Rb5 2.822334 1_555
O2 Rb3 2.822337 1_555
