# generated using pymatgen
data_Ni2Mo
_symmetry_space_group_name_H-M   'P 1'
_cell_length_a   8.85234010
_cell_length_b   8.85234010
_cell_length_c   8.85234010
_cell_angle_alpha   145.83353219
_cell_angle_beta   131.54854537
_cell_angle_gamma   60.61578120
_symmetry_Int_Tables_number   1
_chemical_formula_structural   Ni2Mo
_chemical_formula_sum   'Ni16 Mo8'
_cell_volume   288.76109212
_cell_formula_units_Z   8
loop_
 _symmetry_equiv_pos_site_id
 _symmetry_equiv_pos_as_xyz
  1  'x, y, z'
loop_
 _atom_site_type_symbol
 _atom_site_label
 _atom_site_symmetry_multiplicity
 _atom_site_fract_x
 _atom_site_fract_y
 _atom_site_fract_z
 _atom_site_occupancy
  Ni  Ni0_0  1  0.33475901  0.33475901  0.00000000  1
  Ni  Ni0_1  1  0.33475901  0.33475901  0.50000000  1
  Ni  Ni0_2  1  0.33475901  0.83475901  0.00000000  1
  Ni  Ni0_3  1  0.33475901  0.83475901  0.50000000  1
  Ni  Ni0_4  1  0.83475901  0.33475901  0.00000000  1
  Ni  Ni0_5  1  0.83475901  0.33475901  0.50000000  1
  Ni  Ni0_6  1  0.83475901  0.83475901  0.00000000  1
  Ni  Ni0_7  1  0.83475901  0.83475901  0.50000000  1
  Ni  Ni1_0  1  0.16524099  0.16524099  0.00000000  1
  Ni  Ni1_1  1  0.16524099  0.16524099  0.50000000  1
  Ni  Ni1_2  1  0.16524099  0.66524099  0.00000000  1
  Ni  Ni1_3  1  0.16524099  0.66524099  0.50000000  1
  Ni  Ni1_4  1  0.66524099  0.16524099  0.00000000  1
  Ni  Ni1_5  1  0.66524099  0.16524099  0.50000000  1
  Ni  Ni1_6  1  0.66524099  0.66524099  0.00000000  1
  Ni  Ni1_7  1  0.66524099  0.66524099  0.50000000  1
  Mo  Mo0_0  1  0.00000000  0.00000000  0.00000000  1
  Mo  Mo0_1  1  0.00000000  0.00000000  0.50000000  1
  Mo  Mo0_2  1  0.00000000  0.50000000  0.00000000  1
  Mo  Mo0_3  1  0.00000000  0.50000000  0.50000000  1
  Mo  Mo0_4  1  0.50000000  0.00000000  0.00000000  1
  Mo  Mo0_5  1  0.50000000  0.00000000  0.50000000  1
  Mo  Mo0_6  1  0.50000000  0.50000000  0.00000000  1
  Mo  Mo0_7  1  0.50000000  0.50000000  0.50000000  1
loop_
_geom_bond_atom_site_label_1
_geom_bond_atom_site_label_2
_geom_bond_distance
_geom_bond_site_symmetry_2
Ni0_0 Ni1_4 2.549998 1_555
Ni0_0 Ni1_2 2.549998 1_555
Ni0_0 Ni1_1 2.549998 1_554
Ni0_0 Ni1_7 2.549998 1_555
Ni0_0 Ni1_0 2.591068 1_555
Ni0_0 Ni0_3 2.600469 1_544
Ni0_0 Ni0_3 2.600469 1_555
Ni0_1 Ni1_5 2.549998 1_555
Ni0_1 Ni1_3 2.549998 1_555
Ni0_1 Ni1_0 2.549998 1_555
Ni0_1 Ni1_6 2.549998 1_556
Ni0_1 Ni1_1 2.591068 1_555
Ni0_1 Ni0_2 2.600469 1_545
Ni0_1 Ni0_2 2.600469 1_556
Ni0_2 Ni1_0 2.549998 1_565
Ni0_2 Ni1_3 2.549998 1_554
Ni0_2 Ni1_5 2.549998 1_565
Ni0_2 Ni1_6 2.549998 1_555
Ni0_2 Ni1_2 2.591068 1_555
Ni0_3 Ni1_1 2.549998 1_565
Ni0_3 Ni1_2 2.549998 1_555
Ni0_3 Ni1_4 2.549998 1_566
Ni0_3 Ni1_7 2.549998 1_555
Ni0_3 Ni1_3 2.591068 1_555
Ni0_4 Ni1_0 2.549998 1_655
Ni0_4 Ni1_3 2.549998 1_655
Ni0_4 Ni1_5 2.549998 1_554
Ni0_4 Ni1_6 2.549998 1_555
Ni0_4 Ni1_4 2.591068 1_555
Ni0_4 Ni0_7 2.600469 1_544
Ni0_4 Ni0_7 2.600469 1_555
Ni0_5 Ni1_7 2.549998 1_555
Ni0_5 Ni1_1 2.549998 1_655
Ni0_5 Ni1_4 2.549998 1_555
Ni0_5 Ni1_2 2.549998 1_656
Ni0_5 Ni1_5 2.591068 1_555
Ni0_5 Ni0_6 2.600469 1_545
Ni0_5 Ni0_6 2.600469 1_556
Ni0_6 Ni1_2 2.549998 1_655
Ni0_6 Ni1_4 2.549998 1_565
Ni0_6 Ni1_7 2.549998 1_554
Ni0_6 Ni1_1 2.549998 1_665
Ni0_6 Ni1_6 2.591068 1_555
Ni0_7 Ni1_3 2.549998 1_655
Ni0_7 Ni1_5 2.549998 1_565
Ni0_7 Ni1_0 2.549998 1_666
Ni0_7 Ni1_6 2.549998 1_555
Ni0_7 Ni1_7 2.591068 1_555
Ni1_0 Ni1_3 2.600469 1_544
Ni1_0 Ni1_3 2.600469 1_555
Ni1_1 Ni1_2 2.600469 1_556
Ni1_1 Ni1_2 2.600469 1_545
Ni1_4 Ni1_7 2.600469 1_555
Ni1_4 Ni1_7 2.600469 1_544
Ni1_5 Ni1_6 2.600469 1_556
Ni1_5 Ni1_6 2.600469 1_545
Mo0_0 Ni0_6 2.525694 1_445
Mo0_0 Ni1_0 2.525694 1_555
Mo0_0 Ni1_7 2.582171 1_444
Mo0_0 Ni1_1 2.582171 1_555
Mo0_0 Ni0_4 2.582171 1_455
Mo0_0 Ni1_2 2.582171 1_545
Mo0_0 Ni1_4 2.582171 1_455
Mo0_0 Ni0_1 2.582171 1_555
Mo0_0 Ni0_2 2.582171 1_545
Mo0_0 Ni0_7 2.582171 1_444
Mo0_0 Mo0_3 2.600469 1_544
Mo0_0 Mo0_3 2.600469 1_555
Mo0_1 Ni0_7 2.525694 1_445
Mo0_1 Ni1_1 2.525694 1_555
Mo0_1 Ni1_6 2.582171 1_445
Mo0_1 Ni1_0 2.582171 1_556
Mo0_1 Ni1_3 2.582171 1_545
Mo0_1 Ni0_5 2.582171 1_455
Mo0_1 Ni0_3 2.582171 1_545
Mo0_1 Ni1_5 2.582171 1_455
Mo0_1 Ni0_0 2.582171 1_556
Mo0_1 Ni0_6 2.582171 1_445
Mo0_1 Mo0_2 2.600469 1_556
Mo0_1 Mo0_2 2.600469 1_545
Mo0_2 Ni0_4 2.525694 1_455
Mo0_2 Ni1_2 2.525694 1_555
Mo0_2 Ni1_6 2.582171 1_455
Mo0_2 Ni1_5 2.582171 1_454
Mo0_2 Ni1_3 2.582171 1_555
Mo0_2 Ni1_0 2.582171 1_555
Mo0_2 Ni0_6 2.582171 1_455
Mo0_2 Ni0_5 2.582171 1_454
Mo0_2 Ni0_0 2.582171 1_555
Mo0_2 Ni0_3 2.582171 1_555
Mo0_3 Ni0_5 2.525694 1_455
Mo0_3 Ni1_3 2.525694 1_555
Mo0_3 Ni1_7 2.582171 1_455
Mo0_3 Ni1_1 2.582171 1_555
Mo0_3 Ni1_4 2.582171 1_455
Mo0_3 Ni1_2 2.582171 1_556
Mo0_3 Ni0_1 2.582171 1_555
Mo0_3 Ni0_7 2.582171 1_455
Mo0_3 Ni0_4 2.582171 1_455
Mo0_3 Ni0_2 2.582171 1_556
Mo0_4 Ni0_2 2.525694 1_545
Mo0_4 Ni1_4 2.525694 1_555
Mo0_4 Ni1_6 2.582171 1_545
Mo0_4 Ni1_3 2.582171 1_544
Mo0_4 Ni1_0 2.582171 1_555
Mo0_4 Ni0_3 2.582171 1_544
Mo0_4 Ni1_5 2.582171 1_555
Mo0_4 Ni0_5 2.582171 1_555
Mo0_4 Ni0_0 2.582171 1_555
Mo0_4 Ni0_6 2.582171 1_545
Mo0_4 Mo0_7 2.600469 1_555
Mo0_4 Mo0_7 2.600469 1_544
Mo0_5 Ni0_3 2.525694 1_545
Mo0_5 Ni1_5 2.525694 1_555
Mo0_5 Ni1_1 2.582171 1_555
Mo0_5 Ni1_2 2.582171 1_545
Mo0_5 Ni1_4 2.582171 1_556
Mo0_5 Ni1_7 2.582171 1_545
Mo0_5 Ni0_1 2.582171 1_555
Mo0_5 Ni0_2 2.582171 1_545
Mo0_5 Ni0_4 2.582171 1_556
Mo0_5 Ni0_7 2.582171 1_545
Mo0_5 Mo0_6 2.600469 1_545
Mo0_5 Mo0_6 2.600469 1_556
Mo0_6 Ni0_0 2.525694 1_555
Mo0_6 Ni1_6 2.525694 1_555
Mo0_6 Ni1_2 2.582171 1_555
Mo0_6 Ni1_1 2.582171 1_554
Mo0_6 Ni1_7 2.582171 1_555
Mo0_6 Ni1_4 2.582171 1_555
Mo0_6 Ni0_1 2.582171 1_554
Mo0_6 Ni0_7 2.582171 1_555
Mo0_6 Ni0_4 2.582171 1_555
Mo0_6 Ni0_2 2.582171 1_555
Mo0_7 Ni0_1 2.525694 1_555
Mo0_7 Ni1_7 2.525694 1_555
Mo0_7 Ni1_6 2.582171 1_556
Mo0_7 Ni1_5 2.582171 1_555
Mo0_7 Ni0_5 2.582171 1_555
Mo0_7 Ni0_6 2.582171 1_556
Mo0_7 Ni0_3 2.582171 1_555
Mo0_7 Ni0_0 2.582171 1_555
Mo0_7 Ni1_3 2.582171 1_555
Mo0_7 Ni1_0 2.582171 1_555
