# generated using pymatgen
data_Li5V(P2O7)2
_symmetry_space_group_name_H-M   'P 1'
_cell_length_a   7.08615000
_cell_length_b   8.82705643
_cell_length_c   9.14088133
_cell_angle_alpha   76.96319214
_cell_angle_beta   77.47007229
_cell_angle_gamma   69.68297100
_symmetry_Int_Tables_number   1
_chemical_formula_structural   Li5V(P2O7)2
_chemical_formula_sum   'Li10 V2 P8 O28'
_cell_volume   516.32070457
_cell_formula_units_Z   2
loop_
 _symmetry_equiv_pos_site_id
 _symmetry_equiv_pos_as_xyz
  1  'x, y, z'
loop_
 _atom_site_type_symbol
 _atom_site_label
 _atom_site_symmetry_multiplicity
 _atom_site_fract_x
 _atom_site_fract_y
 _atom_site_fract_z
 _atom_site_occupancy
  Li  Li0  1  0.30581700  0.18363000  0.27754400  1
  Li  Li1  1  0.23348000  0.24426500  0.59254700  1
  Li  Li2  1  0.75797200  0.25900300  0.11610300  1
  Li  Li3  1  0.03630200  0.52518900  0.13454400  1
  Li  Li4  1  0.41728100  0.47800400  0.34953700  1
  Li  Li5  1  0.58271900  0.52199600  0.65046300  1
  Li  Li6  1  0.96369800  0.47481100  0.86545600  1
  Li  Li7  1  0.24202800  0.74099700  0.88389700  1
  Li  Li8  1  0.76652000  0.75573500  0.40745300  1
  Li  Li9  1  0.69418300  0.81637000  0.72245600  1
  V  V0  1  0.87061300  0.12545500  0.76390600  1
  V  V1  1  0.12938700  0.87454500  0.23609400  1
  P  P0  1  0.16877800  0.11871700  0.98339700  1
  P  P1  1  0.69444400  0.10861600  0.45093600  1
  P  P2  1  0.41397000  0.33793400  0.95116500  1
  P  P3  1  0.86816600  0.38253900  0.42893900  1
  P  P4  1  0.13183400  0.61746100  0.57106100  1
  P  P5  1  0.58603000  0.66206600  0.04883500  1
  P  P6  1  0.30555600  0.89138400  0.54906400  1
  P  P7  1  0.83122200  0.88128300  0.01660300  1
  O  O0  1  0.17541100  0.02053500  0.64953100  1
  O  O1  1  0.07927500  0.14133400  0.14940600  1
  O  O2  1  0.77743100  0.06563700  0.00988900  1
  O  O3  1  0.73237200  0.06075600  0.61710000  1
  O  O4  1  0.02953000  0.22898300  0.86625400  1
  O  O5  1  0.47107400  0.16940400  0.43297200  1
  O  O6  1  0.37001100  0.17074400  0.93331000  1
  O  O7  1  0.06839700  0.37841600  0.32706400  1
  O  O8  1  0.46056000  0.31221600  0.11160100  1
  O  O9  1  0.76561300  0.27067700  0.37219700  1
  O  O10  1  0.59512600  0.33815100  0.82253300  1
  O  O11  1  0.90393000  0.30793900  0.59433300  1
  O  O12  1  0.21913500  0.48384400  0.92837400  1
  O  O13  1  0.29621600  0.45086700  0.57499000  1
  O  O14  1  0.70378400  0.54913300  0.42501000  1
  O  O15  1  0.78086500  0.51615600  0.07162600  1
  O  O16  1  0.09607000  0.69206100  0.40566700  1
  O  O17  1  0.40487400  0.66184900  0.17746700  1
  O  O18  1  0.23438700  0.72932300  0.62780300  1
  O  O19  1  0.53944000  0.68778400  0.88839900  1
  O  O20  1  0.93160300  0.62158400  0.67293600  1
  O  O21  1  0.62998900  0.82925600  0.06669000  1
  O  O22  1  0.52892600  0.83059600  0.56702800  1
  O  O23  1  0.97047100  0.77101700  0.13374600  1
  O  O24  1  0.26762800  0.93924400  0.38290000  1
  O  O25  1  0.22256900  0.93436300  0.99011100  1
  O  O26  1  0.92072500  0.85866600  0.85059400  1
  O  O27  1  0.82458900  0.97946500  0.35046900  1
loop_
_geom_bond_atom_site_label_1
_geom_bond_atom_site_label_2
_geom_bond_distance
_geom_bond_site_symmetry_2
Li0 O5 1.986181 1_555
Li0 O7 2.000892 1_555
Li0 O8 2.038972 1_555
Li0 O24 2.238142 1_545
Li0 O1 2.348976 1_555
Li1 O13 1.987264 1_555
Li1 O5 1.998907 1_555
Li1 O0 2.085187 1_555
Li1 O11 2.201286 1_455
Li2 O8 2.001346 1_555
Li2 O2 2.097879 1_555
Li2 O1 2.207079 1_655
Li2 O15 2.270422 1_555
Li2 O9 2.379324 1_555
Li3 O7 1.941024 1_555
Li3 O15 2.045989 1_455
Li3 O23 2.053702 1_455
Li3 O12 2.070237 1_554
Li4 O17 1.981044 1_555
Li4 O13 2.047749 1_555
Li4 O16 2.440975 1_555
Li4 O9 2.529564 1_555
Li4 O5 2.571982 1_555
Li4 O14 2.584609 1_555
Li5 O10 1.981044 1_555
Li5 O14 2.047749 1_555
Li5 O11 2.440975 1_555
Li5 O18 2.529564 1_555
Li5 O22 2.571982 1_555
Li5 O13 2.584609 1_555
Li6 O20 1.941024 1_555
Li6 O12 2.045989 1_655
Li6 O4 2.053701 1_655
Li6 O15 2.070237 1_556
Li7 O19 2.001346 1_555
Li7 O25 2.097879 1_555
Li7 O26 2.207079 1_455
Li7 O12 2.270422 1_555
Li7 O18 2.379324 1_555
Li8 O14 1.987264 1_555
Li8 O22 1.998907 1_555
Li8 O27 2.085187 1_555
Li8 O16 2.201286 1_655
Li9 O22 1.986181 1_555
Li9 O20 2.000892 1_555
Li9 O19 2.038972 1_555
Li9 O3 2.238142 1_565
Li9 O26 2.348976 1_555
O0 P6 1.538925 1_545
O0 V0 2.164181 1_455
O1 P0 1.541418 1_554
O1 V1 2.235919 1_545
O2 P7 1.526933 1_545
O2 V0 2.198371 1_554
O3 P1 1.538346 1_555
O3 V0 2.095519 1_555
O4 P0 1.545607 1_555
O4 V0 2.129781 1_455
O5 P1 1.517721 1_555
O6 P0 1.590763 1_555
O6 P2 1.658796 1_555
O7 P3 1.512553 1_455
O8 P2 1.522847 1_554
O9 P3 1.632483 1_555
O9 P1 1.642477 1_555
O10 P2 1.541488 1_555
O10 V0 2.253403 1_555
O11 P3 1.544260 1_555
O11 V0 2.007960 1_555
O12 P2 1.541847 1_555
O13 P4 1.524933 1_555
O14 P3 1.524933 1_555
O15 P5 1.541847 1_555
O16 P4 1.544260 1_555
O16 V1 2.007960 1_555
O17 P5 1.541488 1_555
O17 V1 2.253403 1_555
O18 P4 1.632483 1_555
O18 P6 1.642477 1_555
O19 P5 1.522847 1_556
O20 P4 1.512553 1_655
O21 P7 1.590763 1_555
O21 P5 1.658796 1_555
O22 P6 1.517721 1_555
O23 P7 1.545611 1_555
O23 V1 2.129776 1_655
O24 P6 1.538346 1_555
O24 V1 2.095519 1_555
O25 P0 1.526933 1_565
O25 V1 2.198371 1_556
O26 P7 1.541418 1_556
O26 V0 2.235919 1_565
O27 P1 1.538925 1_565
O27 V1 2.164181 1_655
