# generated using pymatgen
data_LiFeAsCO7
_symmetry_space_group_name_H-M   'P 1'
_cell_length_a   8.82889325
_cell_length_b   6.64403300
_cell_length_c   5.26499910
_cell_angle_alpha   90.00000000
_cell_angle_beta   85.48905274
_cell_angle_gamma   90.00000000
_symmetry_Int_Tables_number   1
_chemical_formula_structural   LiFeAsCO7
_chemical_formula_sum   'Li2 Fe2 As2 C2 O14'
_cell_volume   307.88530170
_cell_formula_units_Z   2
loop_
 _symmetry_equiv_pos_site_id
 _symmetry_equiv_pos_as_xyz
  1  'x, y, z'
loop_
 _atom_site_type_symbol
 _atom_site_label
 _atom_site_symmetry_multiplicity
 _atom_site_fract_x
 _atom_site_fract_y
 _atom_site_fract_z
 _atom_site_occupancy
  Li  Li0  1  0.21726500  0.51240000  0.21157700  1
  Li  Li1  1  0.78273500  0.01240000  0.78842300  1
  Fe  Fe0  1  0.34621400  0.75455700  0.79792000  1
  Fe  Fe1  1  0.65378600  0.25455700  0.20208000  1
  As  As0  1  0.42227700  0.24591200  0.72660100  1
  As  As1  1  0.57772300  0.74591200  0.27339900  1
  C  C0  1  0.06404600  0.74854700  0.72676500  1
  C  C1  1  0.93595400  0.24854700  0.27323500  1
  O  O0  1  0.07345200  0.28478100  0.30340000  1
  O  O1  1  0.11639400  0.74485800  0.95137000  1
  O  O2  1  0.16537900  0.71981400  0.53897100  1
  O  O3  1  0.30993200  0.04225800  0.79413000  1
  O  O4  1  0.31876700  0.45044100  0.83191800  1
  O  O5  1  0.40321300  0.73070200  0.14813900  1
  O  O6  1  0.46290700  0.26357900  0.39918600  1
  O  O7  1  0.53709300  0.76357900  0.60081400  1
  O  O8  1  0.59678700  0.23070200  0.85186100  1
  O  O9  1  0.68123300  0.95044100  0.16808200  1
  O  O10  1  0.69006800  0.54225800  0.20587000  1
  O  O11  1  0.83462100  0.21981400  0.46102900  1
  O  O12  1  0.88360600  0.24485800  0.04863000  1
  O  O13  1  0.92654800  0.78478100  0.69660000  1
loop_
_geom_bond_atom_site_label_1
_geom_bond_atom_site_label_2
_geom_bond_distance
_geom_bond_site_symmetry_2
Li0 O0 2.009080 1_555
Li0 O4 2.164808 1_554
Li0 O5 2.196408 1_555
Li0 O2 2.226196 1_555
Li0 O1 2.290693 1_554
Li1 O13 2.009080 1_545
Li1 O9 2.164808 1_546
Li1 O8 2.196408 1_555
Li1 O11 2.226196 1_555
Li1 O12 2.290693 1_556
Fe0 O7 1.909323 1_555
Fe0 O3 1.938512 1_565
Fe0 O5 1.955584 1_556
Fe0 O4 2.041223 1_555
Fe0 O1 2.125108 1_555
Fe0 O2 2.191687 1_555
Fe1 O6 1.909323 1_555
Fe1 O10 1.938512 1_555
Fe1 O8 1.955584 1_554
Fe1 O9 2.041223 1_545
Fe1 O12 2.125108 1_555
Fe1 O11 2.191687 1_555
As0 O3 1.698706 1_555
As0 O4 1.705735 1_555
As0 O8 1.725927 1_555
As0 O6 1.736897 1_555
As1 O10 1.698706 1_555
As1 O9 1.705735 1_555
As1 O5 1.725927 1_555
As1 O7 1.736897 1_555
C0 O13 1.259839 1_455
C0 O2 1.294338 1_555
C0 O1 1.303300 1_555
C1 O0 1.259839 1_655
C1 O11 1.294338 1_555
C1 O12 1.303300 1_555
