# generated using pymatgen
data_CaEu2O3
_symmetry_space_group_name_H-M   'P 1'
_cell_length_a   6.00234216
_cell_length_b   6.00234216
_cell_length_c   5.99483700
_cell_angle_alpha   90.00000000
_cell_angle_beta   90.00000000
_cell_angle_gamma   120.04981624
_symmetry_Int_Tables_number   1
_chemical_formula_structural   CaEu2O3
_chemical_formula_sum   'Ca2 Eu4 O6'
_cell_volume   186.95250195
_cell_formula_units_Z   2
loop_
 _symmetry_equiv_pos_site_id
 _symmetry_equiv_pos_as_xyz
  1  'x, y, z'
loop_
 _atom_site_type_symbol
 _atom_site_label
 _atom_site_symmetry_multiplicity
 _atom_site_fract_x
 _atom_site_fract_y
 _atom_site_fract_z
 _atom_site_occupancy
  Ca  Ca0  1  0.83551400  0.83551400  0.25000000  1
  Ca  Ca1  1  0.16448600  0.16448600  0.75000000  1
  Eu  Eu0  1  0.83342300  0.50045500  0.75000000  1
  Eu  Eu1  1  0.49954500  0.16657700  0.25000000  1
  Eu  Eu2  1  0.16657700  0.49954500  0.25000000  1
  Eu  Eu3  1  0.50045500  0.83342300  0.75000000  1
  O  O0  1  0.83948000  0.16052000  0.00000000  1
  O  O1  1  0.83948000  0.16052000  0.50000000  1
  O  O2  1  0.50000000  0.50000000  0.00000000  1
  O  O3  1  0.50000000  0.50000000  0.50000000  1
  O  O4  1  0.16052000  0.83948000  0.50000000  1
  O  O5  1  0.16052000  0.83948000  0.00000000  1
loop_
_geom_bond_atom_site_label_1
_geom_bond_atom_site_label_2
_geom_bond_distance
_geom_bond_site_symmetry_2
Ca0 O0 2.450673 1_565
Ca0 O1 2.450673 1_565
Ca0 O4 2.450673 1_655
Ca0 O5 2.450673 1_655
Ca0 O3 2.509122 1_555
Ca0 O2 2.509122 1_555
Ca1 O4 2.450673 1_545
Ca1 O0 2.450673 1_456
Ca1 O5 2.450673 1_546
Ca1 O1 2.450673 1_455
Ca1 O2 2.509122 1_556
Ca1 O3 2.509122 1_555
Eu0 O5 2.498108 1_656
Eu0 O4 2.498108 1_655
Eu0 O3 2.499188 1_555
Eu0 O2 2.499188 1_556
Eu0 O0 2.546567 1_556
Eu0 O1 2.546567 1_555
Eu1 O5 2.498108 1_545
Eu1 O4 2.498108 1_545
Eu1 O3 2.499188 1_555
Eu1 O2 2.499188 1_555
Eu1 O1 2.546567 1_555
Eu1 O0 2.546567 1_555
Eu2 O0 2.498108 1_455
Eu2 O1 2.498108 1_455
Eu2 O3 2.499188 1_555
Eu2 O2 2.499188 1_555
Eu2 O4 2.546567 1_555
Eu2 O5 2.546567 1_555
Eu3 O0 2.498108 1_566
Eu3 O1 2.498108 1_565
Eu3 O3 2.499188 1_555
Eu3 O2 2.499188 1_556
Eu3 O4 2.546567 1_555
Eu3 O5 2.546567 1_556
