# generated using pymatgen
data_CaCuSiH2O5
_symmetry_space_group_name_H-M   'P 1'
_cell_length_a   16.30152800
_cell_length_b   5.08733700
_cell_length_c   5.39650859
_cell_angle_alpha   77.08283531
_cell_angle_beta   90.00000000
_cell_angle_gamma   90.00000000
_symmetry_Int_Tables_number   1
_chemical_formula_structural   CaCuSiH2O5
_chemical_formula_sum   'Ca4 Cu4 Si4 H8 O20'
_cell_volume   436.21450976
_cell_formula_units_Z   4
loop_
 _symmetry_equiv_pos_site_id
 _symmetry_equiv_pos_as_xyz
  1  'x, y, z'
loop_
 _atom_site_type_symbol
 _atom_site_label
 _atom_site_symmetry_multiplicity
 _atom_site_fract_x
 _atom_site_fract_y
 _atom_site_fract_z
 _atom_site_occupancy
  Ca  Ca0  1  0.17648600  0.65168500  0.65606700  1
  Ca  Ca1  1  0.32351400  0.65168500  0.15606700  1
  Ca  Ca2  1  0.67648600  0.34831500  0.84393300  1
  Ca  Ca3  1  0.82351400  0.34831500  0.34393300  1
  Cu  Cu0  1  0.00000000  0.00000000  0.50000000  1
  Cu  Cu1  1  0.50000000  0.00000000  0.00000000  1
  Cu  Cu2  1  0.50000000  0.50000000  0.50000000  1
  Cu  Cu3  1  0.00000000  0.50000000  0.00000000  1
  Si  Si0  1  0.38978700  0.98107800  0.53124800  1
  Si  Si1  1  0.11021300  0.98107800  0.03124800  1
  Si  Si2  1  0.88978700  0.01892200  0.96875200  1
  Si  Si3  1  0.61021300  0.01892200  0.46875200  1
  H  H0  1  0.75577400  0.83019600  0.57400800  1
  H  H1  1  0.82765900  0.66400400  0.75213500  1
  H  H2  1  0.74422600  0.83019600  0.07400800  1
  H  H3  1  0.67234100  0.66400400  0.25213500  1
  H  H4  1  0.32765900  0.33599600  0.74786500  1
  H  H5  1  0.25577400  0.16980400  0.92599200  1
  H  H6  1  0.17234100  0.33599600  0.24786500  1
  H  H7  1  0.24422600  0.16980400  0.42599200  1
  O  O0  1  0.20482000  0.90053500  0.97577100  1
  O  O1  1  0.41430200  0.84729900  0.82851800  1
  O  O2  1  0.05410400  0.84224800  0.83193500  1
  O  O3  1  0.29518000  0.90053500  0.47577100  1
  O  O4  1  0.08569800  0.84729900  0.32851800  1
  O  O5  1  0.44589600  0.84224800  0.33193500  1
  O  O6  1  0.60278100  0.68659900  0.53533800  1
  O  O7  1  0.78767600  0.64980600  0.61792900  1
  O  O8  1  0.89721900  0.68659900  0.03533800  1
  O  O9  1  0.71232400  0.64980600  0.11792900  1
  O  O10  1  0.28767600  0.35019400  0.88207100  1
  O  O11  1  0.10278100  0.31340100  0.96466200  1
  O  O12  1  0.21232400  0.35019400  0.38207100  1
  O  O13  1  0.39721900  0.31340100  0.46466200  1
  O  O14  1  0.55410400  0.15775200  0.66806500  1
  O  O15  1  0.91430200  0.15270100  0.67148200  1
  O  O16  1  0.70482000  0.09946500  0.52422900  1
  O  O17  1  0.94589600  0.15775200  0.16806500  1
  O  O18  1  0.58569800  0.15270100  0.17148200  1
  O  O19  1  0.79518000  0.09946500  0.02422900  1
loop_
_geom_bond_atom_site_label_1
_geom_bond_atom_site_label_2
_geom_bond_distance
_geom_bond_site_symmetry_2
Ca0 O4 2.349196 1_555
Ca0 O3 2.396350 1_555
Ca0 O0 2.401911 1_555
Ca0 O12 2.427770 1_555
Ca0 O11 2.428444 1_555
Ca0 O2 2.496402 1_555
Ca0 O10 2.507800 1_555
Ca1 O1 2.349196 1_554
Ca1 O0 2.396350 1_554
Ca1 O3 2.401911 1_555
Ca1 O10 2.427770 1_554
Ca1 O13 2.428444 1_555
Ca1 O5 2.496402 1_555
Ca1 O12 2.507800 1_555
Ca2 O18 2.349196 1_556
Ca2 O19 2.396350 1_556
Ca2 O16 2.401911 1_555
Ca2 O9 2.427770 1_556
Ca2 O6 2.428444 1_555
Ca2 O14 2.496402 1_555
Ca2 O7 2.507800 1_555
Ca3 O15 2.349196 1_555
Ca3 O16 2.396350 1_555
Ca3 O19 2.401911 1_555
Ca3 O7 2.427770 1_555
Ca3 O8 2.428444 1_555
Ca3 O17 2.496402 1_555
Ca3 O9 2.507800 1_555
Cu0 O15 1.932070 1_455
Cu0 O4 1.932070 1_545
Cu0 O2 1.996986 1_545
Cu0 O17 1.996986 1_455
Cu1 O18 1.932070 1_555
Cu1 O1 1.932070 1_544
Cu1 O14 1.996986 1_554
Cu1 O5 1.996986 1_545
Cu2 O6 1.955944 1_555
Cu2 O13 1.955944 1_555
Cu2 O14 1.981413 1_555
Cu2 O5 1.981413 1_555
Cu3 O8 1.955944 1_455
Cu3 O11 1.955944 1_554
Cu3 O2 1.981413 1_554
Cu3 O17 1.981413 1_455
H0 O7 1.035165 1_555
H0 O16 1.572929 1_565
H1 O7 0.988917 1_555
H2 O9 1.035165 1_555
H2 O19 1.572929 1_565
H3 O9 0.988917 1_555
H4 O10 0.988917 1_555
H5 O10 1.035165 1_555
H5 O0 1.572929 1_545
H6 O12 0.988917 1_555
H7 O12 1.035165 1_555
H7 O3 1.572929 1_545
O0 Si1 1.640387 1_556
O1 Si0 1.645688 1_555
O2 Si1 1.682846 1_556
O3 Si0 1.640387 1_555
O4 Si1 1.645688 1_555
O5 Si0 1.682846 1_555
O6 Si3 1.652409 1_565
O8 Si2 1.652409 1_564
O11 Si1 1.652409 1_546
O13 Si0 1.652409 1_545
O14 Si3 1.682846 1_555
O15 Si2 1.645688 1_555
O16 Si3 1.640387 1_555
O17 Si2 1.682846 1_554
O18 Si3 1.645688 1_555
O19 Si2 1.640387 1_554
