# generated using pymatgen
data_Cr12Fe7O48
_symmetry_space_group_name_H-M   'P 1'
_cell_length_a   4.97697193
_cell_length_b   10.38222797
_cell_length_c   17.26563016
_cell_angle_alpha   89.89751750
_cell_angle_beta   90.15856741
_cell_angle_gamma   89.92003281
_symmetry_Int_Tables_number   1
_chemical_formula_structural   Cr12Fe7O48
_chemical_formula_sum   'Cr12 Fe7 O48'
_cell_volume   892.14491070
_cell_formula_units_Z   1
loop_
 _symmetry_equiv_pos_site_id
 _symmetry_equiv_pos_as_xyz
  1  'x, y, z'
loop_
 _atom_site_type_symbol
 _atom_site_label
 _atom_site_symmetry_multiplicity
 _atom_site_fract_x
 _atom_site_fract_y
 _atom_site_fract_z
 _atom_site_occupancy
  Cr  Cr0  1  0.22218200  0.75085600  0.94739200  1
  Cr  Cr1  1  0.20231500  0.01616700  0.65540400  1
  Cr  Cr2  1  0.20266300  0.47660200  0.65054300  1
  Cr  Cr3  1  0.27153200  0.52522100  0.15109600  1
  Cr  Cr4  1  0.27740700  0.97402800  0.15558700  1
  Cr  Cr5  1  0.27161800  0.25307000  0.44690800  1
  Cr  Cr6  1  0.72805000  0.75275300  0.55256000  1
  Cr  Cr7  1  0.72507000  0.02310000  0.84458800  1
  Cr  Cr8  1  0.73275300  0.48520500  0.84441400  1
  Cr  Cr9  1  0.79062500  0.52411900  0.34507100  1
  Cr  Cr10  1  0.79223900  0.97582700  0.34946500  1
  Cr  Cr11  1  0.78092800  0.24399300  0.05588700  1
  Fe  Fe0  1  0.09526000  0.25496400  0.25707100  1
  Fe  Fe1  1  0.24720200  0.08379300  0.96800400  1
  Fe  Fe2  1  0.25688300  0.93782700  0.47743700  1
  Fe  Fe3  1  0.73960900  0.43739500  0.52097700  1
  Fe  Fe4  1  0.73760000  0.55694000  0.02571600  1
  Fe  Fe5  1  0.75207200  0.91468400  0.03243700  1
  Fe  Fe6  1  0.90114700  0.74652900  0.74107500  1
  O  O0  1  0.05043300  0.23446000  0.99581300  1
  O  O1  1  0.04868500  0.60626200  0.37001200  1
  O  O2  1  0.07822700  0.89758000  0.38775900  1
  O  O3  1  0.12920800  0.62606200  0.20641900  1
  O  O4  1  0.10792600  0.88028400  0.20922800  1
  O  O5  1  0.11395300  0.11533300  0.46820300  1
  O  O6  1  0.05580400  0.37093400  0.46561000  1
  O  O7  1  0.08278800  0.00012900  0.07199700  1
  O  O8  1  0.05928100  0.50258700  0.07508400  1
  O  O9  1  0.14081700  0.74840300  0.85609600  1
  O  O10  1  0.11752100  0.61678000  0.69898400  1
  O  O11  1  0.11485200  0.87445600  0.70574700  1
  O  O12  1  0.32328100  0.11276200  0.20095700  1
  O  O13  1  0.31354700  0.38427700  0.19752800  1
  O  O14  1  0.33359700  0.25414700  0.35173000  1
  O  O15  1  0.38996000  0.98358900  0.57136500  1
  O  O16  1  0.41826000  0.50612600  0.57880400  1
  O  O17  1  0.40842200  0.88642100  0.96862300  1
  O  O18  1  0.42882300  0.63017900  0.96922500  1
  O  O19  1  0.40480200  0.09841000  0.70781600  1
  O  O20  1  0.35099800  0.37865100  0.70708400  1
  O  O21  1  0.43574000  0.09859900  0.87535900  1
  O  O22  1  0.45141200  0.41741400  0.86238400  1
  O  O23  1  0.45355100  0.77170200  0.49629000  1
  O  O24  1  0.54757900  0.27285100  0.50371700  1
  O  O25  1  0.56952900  0.59564000  0.11603000  1
  O  O26  1  0.56490300  0.89655900  0.12444700  1
  O  O27  1  0.59322900  0.60999400  0.29269600  1
  O  O28  1  0.64405200  0.87982900  0.29153900  1
  O  O29  1  0.57712800  0.11369400  0.03396100  1
  O  O30  1  0.60364200  0.37423300  0.03457000  1
  O  O31  1  0.57587200  0.00481300  0.42207100  1
  O  O32  1  0.60252900  0.48850500  0.42994300  1
  O  O33  1  0.66095000  0.75503300  0.64771600  1
  O  O34  1  0.69156000  0.62867300  0.79053000  1
  O  O35  1  0.68910100  0.88122200  0.79926000  1
  O  O36  1  0.87890600  0.11190200  0.30241500  1
  O  O37  1  0.87589000  0.38537300  0.29632900  1
  O  O38  1  0.87217900  0.24255400  0.14717900  1
  O  O39  1  0.89254600  0.52060700  0.93301700  1
  O  O40  1  0.91063900  0.99398600  0.92939100  1
  O  O41  1  0.88518300  0.61415900  0.53301000  1
  O  O42  1  0.94437800  0.87084800  0.53413200  1
  O  O43  1  0.90476700  0.11830100  0.79478800  1
  O  O44  1  0.92301000  0.38730300  0.79891000  1
  O  O45  1  0.94851200  0.10169000  0.63115200  1
  O  O46  1  0.92110900  0.39873000  0.61241900  1
  O  O47  1  0.93857700  0.75349600  0.00757500  1
loop_
_geom_bond_atom_site_label_1
_geom_bond_atom_site_label_2
_geom_bond_distance
_geom_bond_site_symmetry_2
Cr0 O9 1.626635 1_555
Cr0 O18 1.661962 1_555
Cr0 O17 1.725719 1_555
Cr0 O47 1.755250 1_456
Cr1 O45 1.597480 1_455
Cr1 O19 1.601156 1_555
Cr1 O15 1.760771 1_545
Cr1 O11 1.763225 1_545
Cr2 O20 1.588261 1_555
Cr2 O16 1.669258 1_555
Cr2 O10 1.732552 1_555
Cr2 O46 1.746564 1_455
Cr3 O3 1.586031 1_555
Cr3 O13 1.679797 1_555
Cr3 O8 1.699305 1_555
Cr3 O25 1.762707 1_555
Cr4 O4 1.587416 1_555
Cr4 O12 1.656616 1_565
Cr4 O26 1.727982 1_555
Cr4 O7 1.756332 1_565
Cr5 O6 1.659832 1_555
Cr5 O14 1.672868 1_555
Cr5 O5 1.672939 1_555
Cr5 O24 1.698425 1_555
Cr6 O42 1.663703 1_555
Cr6 O41 1.672144 1_555
Cr6 O33 1.677633 1_555
Cr6 O23 1.685301 1_555
Cr7 O43 1.587380 1_555
Cr7 O35 1.678802 1_545
Cr7 O21 1.724185 1_555
Cr7 O40 1.754514 1_545
Cr8 O44 1.597285 1_555
Cr8 O22 1.598948 1_555
Cr8 O39 1.761793 1_555
Cr8 O34 1.766172 1_555
Cr9 O1 1.601135 1_655
Cr9 O27 1.602364 1_555
Cr9 O37 1.722769 1_555
Cr9 O32 1.779611 1_555
Cr10 O28 1.593452 1_555
Cr10 O31 1.682134 1_565
Cr10 O36 1.685643 1_565
Cr10 O2 1.764280 1_655
Cr11 O38 1.639166 1_555
Cr11 O30 1.653930 1_555
Cr11 O0 1.700719 1_654
Cr11 O29 1.733701 1_555
Fe0 O37 1.867579 1_455
Fe0 O36 1.995867 1_455
Fe0 O13 2.011204 1_555
Fe0 O14 2.016784 1_555
Fe0 O12 2.100656 1_555
Fe0 O38 2.199742 1_455
Fe1 O21 1.862954 1_555
Fe1 O0 1.907226 1_555
Fe1 O29 2.020352 1_556
Fe1 O40 2.029795 1_445
Fe1 O7 2.156956 1_556
Fe1 O17 2.199610 1_545
Fe2 O15 1.814410 1_555
Fe2 O2 1.832574 1_555
Fe2 O42 1.967187 1_455
Fe2 O5 1.980510 1_565
Fe2 O31 1.981677 1_565
Fe2 O23 2.007560 1_555
Fe3 O32 1.790957 1_555
Fe3 O46 1.859726 1_555
Fe3 O6 1.968278 1_655
Fe3 O24 1.981269 1_555
Fe3 O41 1.985020 1_555
Fe3 O16 2.017956 1_555
Fe4 O25 1.816912 1_555
Fe4 O39 1.818457 1_554
Fe4 O8 1.896410 1_655
Fe4 O18 1.969000 1_554
Fe4 O30 2.017219 1_555
Fe4 O47 2.295251 1_555
Fe5 O26 1.853230 1_555
Fe5 O47 1.961347 1_555
Fe5 O7 1.990656 1_665
Fe5 O17 2.053636 1_554
Fe5 O40 2.114337 1_554
Fe5 O29 2.241237 1_565
Fe6 O11 1.808858 1_655
Fe6 O34 1.821852 1_555
Fe6 O10 1.872495 1_655
Fe6 O33 2.005907 1_555
Fe6 O35 2.021216 1_555
Fe6 O9 2.313904 1_655
