# generated using pymatgen
data_Li4Co3WO8
_symmetry_space_group_name_H-M   'P 1'
_cell_length_a   6.00948516
_cell_length_b   6.00948516
_cell_length_c   6.00948489
_cell_angle_alpha   60.53831348
_cell_angle_beta   60.53831348
_cell_angle_gamma   60.53831916
_symmetry_Int_Tables_number   1
_chemical_formula_structural   Li4Co3WO8
_chemical_formula_sum   'Li4 Co3 W1 O8'
_cell_volume   155.32707542
_cell_formula_units_Z   1
loop_
 _symmetry_equiv_pos_site_id
 _symmetry_equiv_pos_as_xyz
  1  'x, y, z'
loop_
 _atom_site_type_symbol
 _atom_site_label
 _atom_site_symmetry_multiplicity
 _atom_site_fract_x
 _atom_site_fract_y
 _atom_site_fract_z
 _atom_site_occupancy
  Li  Li0  1  0.50000000  0.50000000  0.50000000  1
  Li  Li1  1  0.00000000  0.00000000  0.50000000  1
  Li  Li2  1  0.00000000  0.50000000  0.00000000  1
  Li  Li3  1  0.50000000  0.00000000  0.00000000  1
  Co  Co0  1  0.50000000  0.50000000  0.00000000  1
  Co  Co1  1  0.50000000  0.00000000  0.50000000  1
  Co  Co2  1  0.00000000  0.50000000  0.50000000  1
  W  W0  1  0.00000000  0.00000000  0.00000000  1
  O  O0  1  0.73852500  0.73852500  0.73852500  1
  O  O1  1  0.23130600  0.23130600  0.77472100  1
  O  O2  1  0.23130600  0.77472100  0.23130600  1
  O  O3  1  0.26147500  0.26147500  0.26147500  1
  O  O4  1  0.77472100  0.23130600  0.23130600  1
  O  O5  1  0.76869400  0.76869400  0.22527900  1
  O  O6  1  0.76869400  0.22527900  0.76869400  1
  O  O7  1  0.22527900  0.76869400  0.76869400  1
loop_
_geom_bond_atom_site_label_1
_geom_bond_atom_site_label_2
_geom_bond_distance
_geom_bond_site_symmetry_2
Li0 O5 2.293547 1_555
Li0 O1 2.293547 1_555
Li0 O6 2.293547 1_555
Li0 O7 2.293547 1_555
Li0 O2 2.293547 1_555
Li0 O4 2.293547 1_555
Li1 O7 2.112729 1_545
Li1 O6 2.112729 1_455
Li1 O2 2.112729 1_545
Li1 O4 2.112729 1_455
Li1 O3 2.233919 1_555
Li1 O0 2.233919 1_445
Li2 O7 2.112729 1_554
Li2 O4 2.112729 1_455
Li2 O5 2.112729 1_455
Li2 O1 2.112729 1_554
Li2 O3 2.233919 1_555
Li2 O0 2.233919 1_454
Li3 O6 2.112729 1_554
Li3 O2 2.112729 1_545
Li3 O5 2.112729 1_545
Li3 O1 2.112729 1_554
Li3 O0 2.233919 1_544
Li3 O3 2.233919 1_555
Co0 O3 2.041652 1_555
Co0 O0 2.041652 1_554
Co0 O4 2.166171 1_555
Co0 O2 2.166171 1_555
Co0 O6 2.166171 1_554
Co0 O7 2.166171 1_554
Co1 O3 2.041652 1_555
Co1 O0 2.041652 1_545
Co1 O4 2.166171 1_555
Co1 O7 2.166171 1_545
Co1 O1 2.166171 1_555
Co1 O5 2.166171 1_545
Co2 O0 2.041652 1_455
Co2 O3 2.041652 1_555
Co2 O2 2.166171 1_555
Co2 O6 2.166171 1_455
Co2 O1 2.166171 1_555
Co2 O5 2.166171 1_455
O1 W0 1.973718 1_556
O2 W0 1.973718 1_565
O4 W0 1.973718 1_655
O5 W0 1.973718 1_665
O6 W0 1.973718 1_656
O7 W0 1.973718 1_566
