# generated using pymatgen
data_MnNi(PO4)2
_symmetry_space_group_name_H-M   'P 1'
_cell_length_a   4.76782631
_cell_length_b   9.86687010
_cell_length_c   5.76498300
_cell_angle_alpha   89.99701230
_cell_angle_beta   89.99832610
_cell_angle_gamma   89.38302937
_symmetry_Int_Tables_number   1
_chemical_formula_structural   MnNi(PO4)2
_chemical_formula_sum   'Mn2 Ni2 P4 O16'
_cell_volume   271.18938557
_cell_formula_units_Z   2
loop_
 _symmetry_equiv_pos_site_id
 _symmetry_equiv_pos_as_xyz
  1  'x, y, z'
loop_
 _atom_site_type_symbol
 _atom_site_label
 _atom_site_symmetry_multiplicity
 _atom_site_fract_x
 _atom_site_fract_y
 _atom_site_fract_z
 _atom_site_occupancy
  Mn  Mn0  1  0.03769700  0.72265900  0.75000900  1
  Mn  Mn1  1  0.96225400  0.27730000  0.25000500  1
  Ni  Ni0  1  0.54360800  0.76653000  0.24996600  1
  Ni  Ni1  1  0.45657700  0.23346900  0.74997900  1
  P  P0  1  0.40059600  0.09696300  0.24998800  1
  P  P1  1  0.59934000  0.90306500  0.75002900  1
  P  P2  1  0.91406300  0.41266600  0.74999900  1
  P  P3  1  0.08599700  0.58732500  0.24997400  1
  O  O0  1  0.64977200  0.05325400  0.75000300  1
  O  O1  1  0.35020900  0.94674500  0.25000700  1
  O  O2  1  0.71743500  0.12508200  0.25000800  1
  O  O3  1  0.28249800  0.87495400  0.75000100  1
  O  O4  1  0.22845700  0.40055200  0.75000600  1
  O  O5  1  0.77157800  0.59942200  0.25002100  1
  O  O6  1  0.18302600  0.43644200  0.25001500  1
  O  O7  1  0.81700400  0.56356900  0.75001700  1
  O  O8  1  0.23865400  0.17385400  0.04687800  1
  O  O9  1  0.23862800  0.17385400  0.45309100  1
  O  O10  1  0.76129300  0.82615700  0.54690300  1
  O  O11  1  0.76130400  0.82614800  0.95308300  1
  O  O12  1  0.76681700  0.33695800  0.96041100  1
  O  O13  1  0.76682900  0.33695700  0.53959500  1
  O  O14  1  0.23317500  0.66304100  0.03957600  1
  O  O15  1  0.23318500  0.66303500  0.46043600  1
loop_
_geom_bond_atom_site_label_1
_geom_bond_atom_site_label_2
_geom_bond_distance
_geom_bond_site_symmetry_2
Mn0 O7 1.899150 1_455
Mn0 O3 1.912612 1_555
Mn0 O14 1.997391 1_556
Mn0 O15 1.997465 1_555
Mn0 O11 2.029997 1_455
Mn0 O10 2.030164 1_455
Mn1 O6 1.899790 1_655
Mn1 O2 1.912064 1_555
Mn1 O13 1.997502 1_555
Mn1 O12 1.997545 1_554
Mn1 O9 2.029751 1_655
Mn1 O8 2.029984 1_655
Ni0 O5 1.965058 1_555
Ni0 O1 1.994189 1_555
Ni0 O11 2.089402 1_554
Ni0 O10 2.089757 1_555
Ni0 O14 2.176519 1_555
Ni0 O15 2.176664 1_555
Ni1 O4 1.965242 1_555
Ni1 O0 1.993749 1_555
Ni1 O8 2.090010 1_556
Ni1 O9 2.090121 1_555
Ni1 O13 2.175796 1_555
Ni1 O12 2.176024 1_555
O0 P1 1.503830 1_545
O1 P0 1.504076 1_565
O2 P0 1.538836 1_555
O3 P1 1.538835 1_555
O4 P2 1.502450 1_455
O5 P3 1.502558 1_655
O6 P3 1.554200 1_555
O7 P2 1.554430 1_555
O8 P0 1.590646 1_555
O9 P0 1.590700 1_555
O10 P1 1.590843 1_555
O11 P1 1.590579 1_555
O12 P2 1.591680 1_555
O13 P2 1.591715 1_555
O14 P3 1.591512 1_555
O15 P3 1.591877 1_555
