# generated using pymatgen
data_Li4CoO4
_symmetry_space_group_name_H-M   'P 1'
_cell_length_a   9.35027300
_cell_length_b   9.14289300
_cell_length_c   9.19730447
_cell_angle_alpha   88.77458249
_cell_angle_beta   90.00000000
_cell_angle_gamma   90.00000000
_symmetry_Int_Tables_number   1
_chemical_formula_structural   Li4CoO4
_chemical_formula_sum   'Li32 Co8 O32'
_cell_volume   786.08435962
_cell_formula_units_Z   8
loop_
 _symmetry_equiv_pos_site_id
 _symmetry_equiv_pos_as_xyz
  1  'x, y, z'
loop_
 _atom_site_type_symbol
 _atom_site_label
 _atom_site_symmetry_multiplicity
 _atom_site_fract_x
 _atom_site_fract_y
 _atom_site_fract_z
 _atom_site_occupancy
  Li  Li0  1  0.11681800  0.12865800  0.88812300  1
  Li  Li1  1  0.88318200  0.62865800  0.88812300  1
  Li  Li2  1  0.63101400  0.40300800  0.84426500  1
  Li  Li3  1  0.36898600  0.90300800  0.84426500  1
  Li  Li4  1  0.87945100  0.91607700  0.68095400  1
  Li  Li5  1  0.12054900  0.41607700  0.68095400  1
  Li  Li6  1  0.39122600  0.34742700  0.64161600  1
  Li  Li7  1  0.60877400  0.84742700  0.64161600  1
  Li  Li8  1  0.14955600  0.82416700  0.64400200  1
  Li  Li9  1  0.85044400  0.32416700  0.64400200  1
  Li  Li10  1  0.62010800  0.12948200  0.60065500  1
  Li  Li11  1  0.37989200  0.62948200  0.60065500  1
  Li  Li12  1  0.13020800  0.36394000  0.39948800  1
  Li  Li13  1  0.86979200  0.86394000  0.39948800  1
  Li  Li14  1  0.63311200  0.65685300  0.39393000  1
  Li  Li15  1  0.36688800  0.15685300  0.39393000  1
  Li  Li16  1  0.10192600  0.63016200  0.38356500  1
  Li  Li17  1  0.89807400  0.13016200  0.38356500  1
  Li  Li18  1  0.13303600  0.89729100  0.36049700  1
  Li  Li19  1  0.86696400  0.39729100  0.36049700  1
  Li  Li20  1  0.63483000  0.10208500  0.32927800  1
  Li  Li21  1  0.36517000  0.60208500  0.32927800  1
  Li  Li22  1  0.13198300  0.10787600  0.16953700  1
  Li  Li23  1  0.86801700  0.60787600  0.16953700  1
  Li  Li24  1  0.36708200  0.40102100  0.12025700  1
  Li  Li25  1  0.63291800  0.90102100  0.12025700  1
  Li  Li26  1  0.60382500  0.63747700  0.11119600  1
  Li  Li27  1  0.39617500  0.13747700  0.11119600  1
  Li  Li28  1  0.13579000  0.66246800  0.09461800  1
  Li  Li29  1  0.86421000  0.16246800  0.09461800  1
  Li  Li30  1  0.62984100  0.36559500  0.10810200  1
  Li  Li31  1  0.37015900  0.86559500  0.10810200  1
  Co  Co0  1  0.61105000  0.11314400  0.87264700  1
  Co  Co1  1  0.38895000  0.61314400  0.87264700  1
  Co  Co2  1  0.12536900  0.11790900  0.61390300  1
  Co  Co3  1  0.87463100  0.61790900  0.61390300  1
  Co  Co4  1  0.59879000  0.37838700  0.37954600  1
  Co  Co5  1  0.40121000  0.87838700  0.37954600  1
  Co  Co6  1  0.09778900  0.38343600  0.12449200  1
  Co  Co7  1  0.90221100  0.88343600  0.12449200  1
  O  O0  1  0.50570100  0.50157800  0.99302800  1
  O  O1  1  0.49429900  0.00157800  0.99302800  1
  O  O2  1  0.71154800  0.23367800  0.98328400  1
  O  O3  1  0.28845200  0.73367800  0.98328400  1
  O  O4  1  0.70497200  0.00118800  0.74762200  1
  O  O5  1  0.29502800  0.50118800  0.74762200  1
  O  O6  1  0.53195200  0.24168500  0.74772700  1
  O  O7  1  0.46804800  0.74168500  0.74772700  1
  O  O8  1  0.01815000  0.23175000  0.72483800  1
  O  O9  1  0.98185000  0.73175000  0.72483800  1
  O  O10  1  0.21533800  0.00062400  0.73965100  1
  O  O11  1  0.78466200  0.50062400  0.73965100  1
  O  O12  1  0.24286600  0.24931500  0.52355600  1
  O  O13  1  0.75713400  0.74931500  0.52355600  1
  O  O14  1  0.98762800  0.49534100  0.50158900  1
  O  O15  1  0.01237200  0.99534100  0.50158900  1
  O  O16  1  0.48796300  0.49994300  0.47511000  1
  O  O17  1  0.51203700  0.99994300  0.47511000  1
  O  O18  1  0.73338400  0.25448900  0.46185000  1
  O  O19  1  0.26661600  0.75448900  0.46185000  1
  O  O20  1  0.70915100  0.50015000  0.26054500  1
  O  O21  1  0.29084900  0.00015000  0.26054500  1
  O  O22  1  0.49882300  0.26421400  0.25283500  1
  O  O23  1  0.50117700  0.76421400  0.25283500  1
  O  O24  1  0.99500800  0.26626900  0.25048100  1
  O  O25  1  0.00499200  0.76626900  0.25048100  1
  O  O26  1  0.21083800  0.49774900  0.24164800  1
  O  O27  1  0.78916200  0.99774900  0.24164800  1
  O  O28  1  0.22156100  0.25828600  0.04469700  1
  O  O29  1  0.77843900  0.75828600  0.04469700  1
  O  O30  1  0.99397000  0.51433400  0.03051900  1
  O  O31  1  0.00603000  0.01433400  0.03051900  1
loop_
_geom_bond_atom_site_label_1
_geom_bond_atom_site_label_2
_geom_bond_distance
_geom_bond_site_symmetry_2
Li0 O31 1.955069 1_556
Li0 O8 1.983523 1_555
Li0 O10 2.037639 1_555
Li0 O28 2.123814 1_556
Li1 O30 1.955069 1_556
Li1 O9 1.983523 1_555
Li1 O11 2.037639 1_555
Li1 O29 2.123814 1_556
Li2 O11 1.936374 1_555
Li2 O6 1.969217 1_555
Li2 O0 2.027278 1_555
Li2 O2 2.124618 1_555
Li3 O10 1.936374 1_565
Li3 O7 1.969217 1_555
Li3 O1 2.027278 1_565
Li3 O3 2.124618 1_555
Li4 O4 1.914018 1_565
Li4 O9 1.972489 1_555
Li4 O15 2.177190 1_655
Li4 O13 2.413042 1_555
Li5 O5 1.914018 1_555
Li5 O8 1.972489 1_555
Li5 O14 2.177190 1_455
Li5 O12 2.413042 1_555
Li6 O6 1.891605 1_555
Li6 O5 1.947968 1_555
Li6 O12 1.987384 1_555
Li6 O16 2.239749 1_555
Li7 O7 1.891605 1_555
Li7 O4 1.947968 1_565
Li7 O13 1.987384 1_555
Li7 O17 2.239749 1_555
Li8 O9 1.923218 1_455
Li8 O10 1.953394 1_565
Li8 O19 2.110965 1_555
Li8 O15 2.392192 1_555
Li9 O8 1.923218 1_655
Li9 O11 1.953394 1_555
Li9 O18 2.110965 1_555
Li9 O14 2.392192 1_555
Li10 O6 1.902863 1_555
Li10 O4 1.940310 1_555
Li10 O17 1.953350 1_545
Li10 O18 1.998870 1_555
Li11 O7 1.902863 1_555
Li11 O5 1.940310 1_555
Li11 O16 1.953350 1_555
Li11 O19 1.998870 1_555
Li12 O12 1.859803 1_555
Li12 O26 2.023999 1_555
Li12 O14 2.037332 1_455
Li12 O24 2.079915 1_455
Li13 O13 1.859803 1_555
Li13 O27 2.023999 1_555
Li13 O15 2.037332 1_655
Li13 O25 2.079915 1_655
Li14 O13 1.877202 1_555
Li14 O23 2.028518 1_555
Li14 O20 2.034295 1_555
Li14 O16 2.100406 1_555
Li15 O12 1.877202 1_555
Li15 O22 2.028518 1_555
Li15 O21 2.034295 1_555
Li15 O17 2.100406 1_545
Li16 O14 1.944911 1_455
Li16 O25 1.950156 1_555
Li16 O19 2.053487 1_555
Li16 O26 2.067358 1_555
Li17 O15 1.944911 1_645
Li17 O24 1.950156 1_555
Li17 O18 2.053487 1_555
Li17 O27 2.067358 1_545
Li18 O15 1.951990 1_555
Li18 O21 1.967206 1_565
Li18 O25 1.985975 1_555
Li18 O19 2.020290 1_555
Li19 O14 1.951990 1_555
Li19 O20 1.967206 1_555
Li19 O24 1.985975 1_555
Li19 O18 2.020290 1_555
Li20 O27 1.916984 1_545
Li20 O17 1.983878 1_545
Li20 O22 2.065007 1_555
Li20 O18 2.085701 1_555
Li21 O26 1.916984 1_555
Li21 O16 1.983878 1_555
Li21 O23 2.065007 1_555
Li21 O19 2.085701 1_555
Li22 O31 1.949352 1_555
Li22 O21 1.960094 1_555
Li22 O28 1.960478 1_555
Li22 O24 2.082756 1_455
Li23 O30 1.949352 1_555
Li23 O20 1.960094 1_555
Li23 O29 1.960478 1_555
Li23 O25 2.082756 1_655
Li24 O0 1.961752 1_554
Li24 O28 2.018959 1_555
Li24 O26 2.050647 1_555
Li24 O22 2.122145 1_555
Li25 O1 1.961752 1_564
Li25 O29 2.018959 1_555
Li25 O27 2.050647 1_555
Li25 O23 2.122145 1_555
Li26 O0 1.903829 1_554
Li26 O23 2.006355 1_555
Li26 O29 2.056906 1_555
Li26 O20 2.087909 1_555
Li27 O1 1.903829 1_554
Li27 O22 2.006355 1_555
Li27 O28 2.056906 1_555
Li27 O21 2.087909 1_555
Li28 O3 1.865865 1_554
Li28 O30 1.993604 1_455
Li28 O26 2.121797 1_555
Li28 O25 2.123575 1_555
Li29 O2 1.865865 1_554
Li29 O31 1.993604 1_655
Li29 O27 2.121797 1_545
Li29 O24 2.123575 1_555
Li30 O2 1.848095 1_554
Li30 O0 1.989204 1_554
Li30 O22 2.019684 1_555
Li30 O20 2.025570 1_555
Li31 O3 1.848095 1_554
Li31 O1 1.989204 1_564
Li31 O23 2.019684 1_555
Li31 O21 2.025570 1_565
Co0 O2 1.783500 1_555
Co0 O6 1.786184 1_555
Co0 O4 1.786501 1_555
Co0 O1 1.846544 1_555
Co1 O3 1.783500 1_555
Co1 O7 1.786184 1_555
Co1 O5 1.786501 1_555
Co1 O0 1.846544 1_555
Co2 O10 1.772597 1_555
Co2 O8 1.781808 1_555
Co2 O12 1.816094 1_555
Co2 O15 1.867801 1_545
Co3 O11 1.772597 1_555
Co3 O9 1.781808 1_555
Co3 O13 1.816094 1_555
Co3 O14 1.867801 1_555
Co4 O16 1.767284 1_555
Co4 O22 1.836724 1_555
Co4 O18 1.844814 1_555
Co4 O20 1.857412 1_555
Co5 O17 1.767284 1_555
Co5 O23 1.836724 1_555
Co5 O19 1.844814 1_555
Co5 O21 1.857412 1_565
Co6 O30 1.754251 1_455
Co6 O28 1.795311 1_555
Co6 O24 1.833242 1_455
Co6 O26 1.849024 1_555
Co7 O31 1.754251 1_665
Co7 O29 1.795311 1_555
Co7 O25 1.833242 1_655
Co7 O27 1.849024 1_555
