# generated using pymatgen
data_Ba2LaCl7
_symmetry_space_group_name_H-M   'P 1'
_cell_length_a   15.89627178
_cell_length_b   6.94792282
_cell_length_c   10.73670253
_cell_angle_alpha   89.11388802
_cell_angle_beta   90.00000000
_cell_angle_gamma   90.00000000
_symmetry_Int_Tables_number   1
_chemical_formula_structural   Ba2LaCl7
_chemical_formula_sum   'Ba8 La4 Cl28'
_cell_volume   1185.68478071
_cell_formula_units_Z   4
loop_
 _symmetry_equiv_pos_site_id
 _symmetry_equiv_pos_as_xyz
  1  'x, y, z'
loop_
 _atom_site_type_symbol
 _atom_site_label
 _atom_site_symmetry_multiplicity
 _atom_site_fract_x
 _atom_site_fract_y
 _atom_site_fract_z
 _atom_site_occupancy
  Ba  Ba0  1  0.22255864  0.73557111  0.05270128  1
  Ba  Ba1  1  0.56217589  0.73378882  0.17471885  1
  Ba  Ba2  1  0.06217589  0.26621118  0.32528115  1
  Ba  Ba3  1  0.72255864  0.26442889  0.44729872  1
  Ba  Ba4  1  0.27744136  0.73557111  0.55270128  1
  Ba  Ba5  1  0.93782411  0.73378882  0.67471885  1
  Ba  Ba6  1  0.43782411  0.26621118  0.82528115  1
  Ba  Ba7  1  0.77744136  0.26442889  0.94729872  1
  La  La0  1  0.87402553  0.77959840  0.21462477  1
  La  La1  1  0.37402553  0.22040160  0.28537523  1
  La  La2  1  0.62597447  0.77959840  0.71462477  1
  La  La3  1  0.12597447  0.22040160  0.78537523  1
  Cl  Cl0  1  0.14582170  0.28595873  0.04262301  1
  Cl  Cl1  1  0.39751848  0.99509816  0.06803726  1
  Cl  Cl2  1  0.39673071  0.49487667  0.08075716  1
  Cl  Cl3  1  0.92873792  0.14925663  0.12287141  1
  Cl  Cl4  1  0.74042031  0.50381305  0.19248338  1
  Cl  Cl5  1  0.72455447  0.00494849  0.20074208  1
  Cl  Cl6  1  0.04653768  0.70066384  0.21140900  1
  Cl  Cl7  1  0.54653768  0.29933616  0.28859100  1
  Cl  Cl8  1  0.22455447  0.99505151  0.29925792  1
  Cl  Cl9  1  0.24042031  0.49618695  0.30751662  1
  Cl  Cl10  1  0.42873792  0.85074337  0.37712859  1
  Cl  Cl11  1  0.89673071  0.50512333  0.41924284  1
  Cl  Cl12  1  0.89751848  0.00490184  0.43196274  1
  Cl  Cl13  1  0.64582170  0.71404127  0.45737699  1
  Cl  Cl14  1  0.35417830  0.28595873  0.54262301  1
  Cl  Cl15  1  0.10248152  0.99509816  0.56803726  1
  Cl  Cl16  1  0.10326929  0.49487667  0.58075716  1
  Cl  Cl17  1  0.57126208  0.14925663  0.62287141  1
  Cl  Cl18  1  0.75957969  0.50381305  0.69248338  1
  Cl  Cl19  1  0.77544553  0.00494849  0.70074208  1
  Cl  Cl20  1  0.45346232  0.70066384  0.71140900  1
  Cl  Cl21  1  0.95346232  0.29933616  0.78859100  1
  Cl  Cl22  1  0.27544553  0.99505151  0.79925792  1
  Cl  Cl23  1  0.25957969  0.49618695  0.80751662  1
  Cl  Cl24  1  0.07126208  0.85074337  0.87712859  1
  Cl  Cl25  1  0.60326929  0.50512333  0.91924284  1
  Cl  Cl26  1  0.60248152  0.00490184  0.93196274  1
  Cl  Cl27  1  0.85417830  0.71404127  0.95737699  1
loop_
_geom_bond_atom_site_label_1
_geom_bond_atom_site_label_2
_geom_bond_distance
_geom_bond_site_symmetry_2
Ba0 Cl24 3.151419 1_554
Ba0 Cl23 3.190295 1_554
Ba0 Cl9 3.192367 1_555
Ba0 Cl8 3.225924 1_555
Ba0 Cl2 3.246145 1_555
Ba0 Cl6 3.283121 1_555
Ba0 Cl1 3.320069 1_555
Ba0 Cl22 3.348126 1_554
Ba0 Cl0 3.356893 1_555
Ba1 Cl10 3.152321 1_555
Ba1 Cl5 3.210367 1_565
Ba1 Cl7 3.248697 1_555
Ba1 Cl26 3.255795 1_564
Ba1 Cl4 3.257049 1_555
Ba1 Cl25 3.257225 1_554
Ba1 Cl2 3.277447 1_555
Ba1 Cl13 3.314218 1_555
Ba1 Cl1 3.375629 1_555
Ba2 Cl3 3.152321 1_455
Ba2 Cl8 3.210367 1_545
Ba2 Cl6 3.248697 1_555
Ba2 Cl15 3.255795 1_545
Ba2 Cl9 3.257049 1_555
Ba2 Cl16 3.257225 1_555
Ba2 Cl11 3.277447 1_455
Ba2 Cl0 3.314218 1_555
Ba2 Cl12 3.375629 1_455
Ba3 Cl17 3.151419 1_555
Ba3 Cl18 3.190295 1_555
Ba3 Cl4 3.192367 1_555
Ba3 Cl5 3.225924 1_555
Ba3 Cl11 3.246145 1_555
Ba3 Cl7 3.283121 1_555
Ba3 Cl12 3.320069 1_555
Ba3 Cl19 3.348126 1_555
Ba3 Cl13 3.356893 1_555
Ba4 Cl10 3.151419 1_555
Ba4 Cl9 3.190295 1_555
Ba4 Cl23 3.192367 1_555
Ba4 Cl22 3.225924 1_555
Ba4 Cl16 3.246145 1_555
Ba4 Cl20 3.283121 1_555
Ba4 Cl15 3.320069 1_555
Ba4 Cl8 3.348126 1_555
Ba4 Cl14 3.356893 1_555
Ba5 Cl24 3.152321 1_655
Ba5 Cl19 3.210367 1_565
Ba5 Cl21 3.248697 1_555
Ba5 Cl12 3.255795 1_565
Ba5 Cl18 3.257049 1_555
Ba5 Cl11 3.257225 1_555
Ba5 Cl16 3.277447 1_655
Ba5 Cl27 3.314218 1_555
Ba5 Cl15 3.375629 1_655
Ba6 Cl17 3.152321 1_555
Ba6 Cl22 3.210367 1_545
Ba6 Cl20 3.248697 1_555
Ba6 Cl1 3.255795 1_546
Ba6 Cl23 3.257049 1_555
Ba6 Cl2 3.257225 1_556
Ba6 Cl25 3.277447 1_555
Ba6 Cl14 3.314218 1_555
Ba6 Cl26 3.375629 1_555
Ba7 Cl3 3.151419 1_556
Ba7 Cl4 3.190295 1_556
Ba7 Cl18 3.192367 1_555
Ba7 Cl19 3.225924 1_555
Ba7 Cl25 3.246145 1_555
Ba7 Cl21 3.283121 1_555
Ba7 Cl26 3.320069 1_555
Ba7 Cl5 3.348126 1_556
Ba7 Cl27 3.356893 1_555
Cl0 La3 2.823920 1_554
Cl1 La1 2.854485 1_565
Cl2 La1 2.909283 1_555
Cl3 La0 2.871427 1_545
Cl4 La0 2.872770 1_555
Cl5 La0 2.848156 1_545
Cl6 La0 2.796920 1_455
Cl7 La1 2.796920 1_555
Cl8 La1 2.848156 1_565
Cl9 La1 2.872770 1_555
Cl10 La1 2.871427 1_565
Cl11 La0 2.909283 1_555
Cl12 La0 2.854485 1_545
Cl13 La2 2.823920 1_555
Cl14 La1 2.823920 1_555
Cl15 La3 2.854485 1_565
Cl16 La3 2.909283 1_555
Cl17 La2 2.871427 1_545
Cl18 La2 2.872770 1_555
Cl19 La2 2.848156 1_545
Cl20 La2 2.796920 1_555
Cl21 La3 2.796920 1_655
Cl22 La3 2.848156 1_565
Cl23 La3 2.872770 1_555
Cl24 La3 2.871427 1_565
Cl25 La2 2.909283 1_555
Cl26 La2 2.854485 1_545
Cl27 La0 2.823920 1_556
