# generated using pymatgen
data_Li2Fe4O3F8
_symmetry_space_group_name_H-M   'P 1'
_cell_length_a   5.08146600
_cell_length_b   6.67797684
_cell_length_c   6.86098609
_cell_angle_alpha   108.63560333
_cell_angle_beta   105.74207700
_cell_angle_gamma   96.67447748
_symmetry_Int_Tables_number   1
_chemical_formula_structural   Li2Fe4O3F8
_chemical_formula_sum   'Li2 Fe4 O3 F8'
_cell_volume   207.01611899
_cell_formula_units_Z   1
loop_
 _symmetry_equiv_pos_site_id
 _symmetry_equiv_pos_as_xyz
  1  'x, y, z'
loop_
 _atom_site_type_symbol
 _atom_site_label
 _atom_site_symmetry_multiplicity
 _atom_site_fract_x
 _atom_site_fract_y
 _atom_site_fract_z
 _atom_site_occupancy
  Li  Li0  1  0.66336500  0.17920200  0.39106400  1
  Li  Li1  1  0.33663500  0.82079800  0.60893600  1
  Fe  Fe0  1  0.90928500  0.24976200  0.97179700  1
  Fe  Fe1  1  0.34459100  0.37782700  0.75907800  1
  Fe  Fe2  1  0.65540900  0.62217300  0.24092200  1
  Fe  Fe3  1  0.09071500  0.75023800  0.02820300  1
  O  O0  1  0.00000000  0.00000000  0.00000000  1
  O  O1  1  0.73567200  0.52815600  0.94980500  1
  O  O2  1  0.26432800  0.47184400  0.05019500  1
  F  F0  1  0.48636400  0.11627400  0.80125500  1
  F  F1  1  0.94621600  0.20379100  0.66173900  1
  F  F2  1  0.37218800  0.28870100  0.47803000  1
  F  F3  1  0.80388600  0.35789500  0.25458500  1
  F  F4  1  0.19611400  0.64210500  0.74541500  1
  F  F5  1  0.62781200  0.71129900  0.52197000  1
  F  F6  1  0.05378400  0.79620900  0.33826100  1
  F  F7  1  0.51363600  0.88372600  0.19874500  1
loop_
_geom_bond_atom_site_label_1
_geom_bond_atom_site_label_2
_geom_bond_distance
_geom_bond_site_symmetry_2
Fe0 O0 1.835327 1_656
Fe0 O2 2.021224 1_656
Fe0 O1 2.178451 1_555
Fe1 O1 1.988723 1_555
Fe1 O2 2.061565 1_556
Fe2 O2 1.988723 1_555
Fe2 O1 2.061565 1_554
Fe3 O0 1.835327 1_565
Fe3 O1 2.021224 1_454
Fe3 O2 2.178451 1_555
F0 Li1 1.911993 1_545
F0 Fe1 2.038605 1_555
F0 Fe0 2.075046 1_555
F1 Li0 1.960484 1_555
F1 Fe1 2.029316 1_655
F1 Fe0 2.113652 1_555
F2 Fe1 1.877439 1_555
F2 Li0 1.879270 1_555
F3 Li0 1.920811 1_555
F3 Fe2 2.017319 1_555
F3 Fe0 2.081114 1_554
F4 Li1 1.920811 1_555
F4 Fe1 2.017319 1_555
F4 Fe3 2.081114 1_556
F5 Fe2 1.877439 1_555
F5 Li1 1.879270 1_555
F6 Li1 1.960484 1_555
F6 Fe2 2.029316 1_455
F6 Fe3 2.113652 1_555
F7 Li0 1.911993 1_565
F7 Fe2 2.038605 1_555
F7 Fe3 2.075046 1_555
