# generated using pymatgen
data_Ti2Sn3O10
_symmetry_space_group_name_H-M   'P 1'
_cell_length_a   4.76039417
_cell_length_b   4.76039417
_cell_length_c   15.72266700
_cell_angle_alpha   90.00000000
_cell_angle_beta   90.00000000
_cell_angle_gamma   90.08813670
_symmetry_Int_Tables_number   1
_chemical_formula_structural   Ti2Sn3O10
_chemical_formula_sum   'Ti4 Sn6 O20'
_cell_volume   356.29647934
_cell_formula_units_Z   2
loop_
 _symmetry_equiv_pos_site_id
 _symmetry_equiv_pos_as_xyz
  1  'x, y, z'
loop_
 _atom_site_type_symbol
 _atom_site_label
 _atom_site_symmetry_multiplicity
 _atom_site_fract_x
 _atom_site_fract_y
 _atom_site_fract_z
 _atom_site_occupancy
  Ti  Ti0  1  0.00000000  0.00000000  0.99594000  1
  Ti  Ti1  1  0.00000000  0.00000000  0.59700800  1
  Ti  Ti2  1  0.00000000  0.00000000  0.40349000  1
  Ti  Ti3  1  0.50000000  0.50000000  0.90312700  1
  Sn  Sn0  1  0.00000000  0.00000000  0.80126300  1
  Sn  Sn1  1  0.00000000  0.00000000  0.19996100  1
  Sn  Sn2  1  0.50000000  0.50000000  0.30195600  1
  Sn  Sn3  1  0.50000000  0.50000000  0.50078300  1
  Sn  Sn4  1  0.50000000  0.50000000  0.70050400  1
  Sn  Sn5  1  0.50000000  0.50000000  0.09560600  1
  O  O0  1  0.81434300  0.18565700  0.50040400  1
  O  O1  1  0.80165500  0.19834500  0.90538100  1
  O  O2  1  0.80993900  0.19006100  0.69566200  1
  O  O3  1  0.80995100  0.19004900  0.30577800  1
  O  O4  1  0.80994800  0.19005200  0.09405700  1
  O  O5  1  0.30130000  0.30130000  0.99322100  1
  O  O6  1  0.30960900  0.30960900  0.80523300  1
  O  O7  1  0.30609100  0.30609100  0.19908100  1
  O  O8  1  0.29681200  0.29681200  0.59943300  1
  O  O9  1  0.29676500  0.29676500  0.40193100  1
  O  O10  1  0.69870000  0.69870000  0.99322100  1
  O  O11  1  0.69039100  0.69039100  0.80523300  1
  O  O12  1  0.70318800  0.70318800  0.59943300  1
  O  O13  1  0.70323500  0.70323500  0.40193100  1
  O  O14  1  0.69390900  0.69390900  0.19908100  1
  O  O15  1  0.18565700  0.81434300  0.50040400  1
  O  O16  1  0.19834500  0.80165500  0.90538100  1
  O  O17  1  0.19006100  0.80993900  0.69566200  1
  O  O18  1  0.19004900  0.80995100  0.30577800  1
  O  O19  1  0.19005200  0.80994800  0.09405700  1
loop_
_geom_bond_atom_site_label_1
_geom_bond_atom_site_label_2
_geom_bond_distance
_geom_bond_site_symmetry_2
O0 Ti1 1.967634 1_655
O0 Ti2 1.971399 1_655
O0 Sn3 2.117860 1_555
O1 Ti0 1.952706 1_655
O1 Ti3 2.032676 1_555
O1 Sn0 2.113192 1_655
O2 Ti1 2.011378 1_655
O2 Sn4 2.089567 1_555
O2 Sn0 2.096762 1_655
O3 Ti2 1.999927 1_655
O3 Sn2 2.089125 1_555
O3 Sn1 2.099403 1_655
O4 Ti0 2.004836 1_654
O4 Sn5 2.088383 1_555
O4 Sn1 2.100500 1_655
O5 Ti3 1.947611 1_555
O5 Ti0 2.027306 1_555
O5 Sn5 2.092369 1_556
O6 Ti3 2.002339 1_555
O6 Sn0 2.083685 1_555
O6 Sn4 2.086077 1_555
O7 Sn1 2.059131 1_555
O7 Sn2 2.077920 1_555
O7 Sn5 2.085272 1_555
O8 Ti1 1.997028 1_555
O8 Sn3 2.067369 1_555
O8 Sn4 2.096078 1_555
O9 Ti2 1.996499 1_555
O9 Sn3 2.069962 1_555
O9 Sn2 2.083252 1_555
O10 Ti3 1.947611 1_555
O10 Ti0 2.027306 1_665
O10 Sn5 2.092369 1_556
O11 Ti3 2.002339 1_555
O11 Sn0 2.083685 1_665
O11 Sn4 2.086077 1_555
O12 Ti1 1.997028 1_665
O12 Sn3 2.067369 1_555
O12 Sn4 2.096078 1_555
O13 Ti2 1.996499 1_665
O13 Sn3 2.069962 1_555
O13 Sn2 2.083252 1_555
O14 Sn1 2.059131 1_665
O14 Sn2 2.077920 1_555
O14 Sn5 2.085272 1_555
O15 Ti1 1.967634 1_565
O15 Ti2 1.971399 1_565
O15 Sn3 2.117860 1_555
O16 Ti0 1.952706 1_565
O16 Ti3 2.032676 1_555
O16 Sn0 2.113192 1_565
O17 Ti1 2.011378 1_565
O17 Sn4 2.089567 1_555
O17 Sn0 2.096762 1_565
O18 Ti2 1.999927 1_565
O18 Sn2 2.089125 1_555
O18 Sn1 2.099403 1_565
O19 Ti0 2.004836 1_564
O19 Sn5 2.088383 1_555
O19 Sn1 2.100500 1_565
