# generated using pymatgen
data_ZnH4(IO4)2
_symmetry_space_group_name_H-M   'P 1'
_cell_length_a   4.99005700
_cell_length_b   6.75596579
_cell_length_c   10.98951488
_cell_angle_alpha   99.10161488
_cell_angle_beta   91.49989067
_cell_angle_gamma   91.29920388
_symmetry_Int_Tables_number   1
_chemical_formula_structural   ZnH4(IO4)2
_chemical_formula_sum   'Zn2 H8 I4 O16'
_cell_volume   365.56076437
_cell_formula_units_Z   2
loop_
 _symmetry_equiv_pos_site_id
 _symmetry_equiv_pos_as_xyz
  1  'x, y, z'
loop_
 _atom_site_type_symbol
 _atom_site_label
 _atom_site_symmetry_multiplicity
 _atom_site_fract_x
 _atom_site_fract_y
 _atom_site_fract_z
 _atom_site_occupancy
  Zn  Zn0  1  0.00000000  0.00000000  0.50000000  1
  Zn  Zn1  1  0.00000000  0.00000000  0.00000000  1
  H  H0  1  0.21276700  0.36193200  0.00702800  1
  H  H1  1  0.29070700  0.34811200  0.55194700  1
  H  H2  1  0.44081900  0.22290800  0.04360600  1
  H  H3  1  0.44775200  0.20453800  0.44752700  1
  H  H4  1  0.55224800  0.79546200  0.55247300  1
  H  H5  1  0.55918100  0.77709200  0.95639400  1
  H  H6  1  0.70929300  0.65188800  0.44805300  1
  H  H7  1  0.78723300  0.63806800  0.99297200  1
  I  I0  1  0.10999600  0.71130500  0.72918700  1
  I  I1  1  0.35722600  0.77115300  0.22858900  1
  I  I2  1  0.64277400  0.22884700  0.77141100  1
  I  I3  1  0.89000400  0.28869500  0.27081300  1
  O  O0  1  0.15182000  0.56534600  0.14378500  1
  O  O1  1  0.20310000  0.98567600  0.16843300  1
  O  O2  1  0.20206500  0.79173500  0.37900700  1
  O  O3  1  0.24565400  0.79475700  0.88726900  1
  O  O4  1  0.25872200  0.90334300  0.64495300  1
  O  O5  1  0.26687800  0.23901700  0.47854500  1
  O  O6  1  0.29157000  0.22852800  0.98210000  1
  O  O7  1  0.34831900  0.51497000  0.67981500  1
  O  O8  1  0.65168100  0.48503000  0.32018500  1
  O  O9  1  0.70843000  0.77147200  0.01790000  1
  O  O10  1  0.73312200  0.76098300  0.52145500  1
  O  O11  1  0.74127800  0.09665700  0.35504700  1
  O  O12  1  0.75434600  0.20524300  0.11273100  1
  O  O13  1  0.79793500  0.20826500  0.62099300  1
  O  O14  1  0.79690000  0.01432400  0.83156700  1
  O  O15  1  0.84818000  0.43465400  0.85621500  1
loop_
_geom_bond_atom_site_label_1
_geom_bond_atom_site_label_2
_geom_bond_distance
_geom_bond_site_symmetry_2
H0 O6 0.992758 1_554
H1 O5 1.005469 1_555
H1 O7 1.670638 1_555
H2 O6 0.998012 1_554
H2 O12 1.736076 1_555
H3 O5 0.992779 1_555
H4 O10 0.992779 1_555
H5 O9 0.998012 1_556
H5 O3 1.736076 1_555
H6 O10 1.005469 1_555
H6 O8 1.670638 1_555
H7 O9 0.992758 1_556
I0 O7 1.829136 1_555
I0 O3 1.845371 1_555
I0 O4 1.860969 1_555
I1 O0 1.824234 1_555
I1 O2 1.830426 1_555
I1 O1 1.859058 1_555
I2 O15 1.824234 1_555
I2 O13 1.830426 1_555
I2 O14 1.859058 1_555
I3 O8 1.829136 1_555
I3 O12 1.845371 1_555
I3 O11 1.860969 1_555
O1 Zn1 2.103713 1_565
O2 Zn0 2.075344 1_565
O3 Zn1 2.138512 1_566
O4 Zn0 2.211425 1_565
O5 Zn0 2.115665 1_555
O6 Zn1 2.132720 1_556
O9 Zn1 2.132720 1_665
O10 Zn0 2.115665 1_665
O11 Zn0 2.211425 1_655
O12 Zn1 2.138512 1_655
O13 Zn0 2.075344 1_655
O14 Zn1 2.103713 1_656
