# generated using pymatgen
data_Li4Ti3Mn3(FeO8)2
_symmetry_space_group_name_H-M   'P 1'
_cell_length_a   5.88702800
_cell_length_b   5.93935415
_cell_length_c   9.59183375
_cell_angle_alpha   90.43019195
_cell_angle_beta   90.10129683
_cell_angle_gamma   119.08997511
_symmetry_Int_Tables_number   1
_chemical_formula_structural   Li4Ti3Mn3(FeO8)2
_chemical_formula_sum   'Li4 Ti3 Mn3 Fe2 O16'
_cell_volume   293.06023662
_cell_formula_units_Z   1
loop_
 _symmetry_equiv_pos_site_id
 _symmetry_equiv_pos_as_xyz
  1  'x, y, z'
loop_
 _atom_site_type_symbol
 _atom_site_label
 _atom_site_symmetry_multiplicity
 _atom_site_fract_x
 _atom_site_fract_y
 _atom_site_fract_z
 _atom_site_occupancy
  Li  Li0  1  0.32647700  0.66772000  0.89025100  1
  Li  Li1  1  0.00196600  0.00238100  0.99544700  1
  Li  Li2  1  0.00585600  0.99497000  0.49671900  1
  Li  Li3  1  0.66731100  0.32888900  0.39528600  1
  Ti  Ti0  1  0.16871500  0.33986400  0.21632800  1
  Ti  Ti1  1  0.65925700  0.83257200  0.21566900  1
  Ti  Ti2  1  0.83190400  0.17190000  0.71406600  1
  Mn  Mn0  1  0.16697300  0.82913900  0.21215100  1
  Mn  Mn1  1  0.34100300  0.16894500  0.71379200  1
  Mn  Mn2  1  0.82707100  0.66006400  0.71559600  1
  Fe  Fe0  1  0.33583600  0.66929100  0.49259900  1
  Fe  Fe1  1  0.65797500  0.33830700  0.98966900  1
  O  O0  1  0.16462400  0.32330200  0.60203200  1
  O  O1  1  0.48776300  0.51952400  0.33178500  1
  O  O2  1  0.32779700  0.66864800  0.10606000  1
  O  O3  1  0.00484200  0.99696200  0.30877000  1
  O  O4  1  0.01667600  0.02018000  0.81027300  1
  O  O5  1  0.67974600  0.83481000  0.60353200  1
  O  O6  1  0.04081100  0.50216800  0.34558700  1
  O  O7  1  0.49318000  0.95837800  0.34104600  1
  O  O8  1  0.83203500  0.16498100  0.10458200  1
  O  O9  1  0.17949200  0.84921800  0.60155100  1
  O  O10  1  0.52088900  0.03924900  0.83583700  1
  O  O11  1  0.95610100  0.48122000  0.83508200  1
  O  O12  1  0.65461600  0.30981300  0.60301200  1
  O  O13  1  0.32678900  0.18348000  0.09835800  1
  O  O14  1  0.50094500  0.46710100  0.83672200  1
  O  O15  1  0.82304900  0.67662000  0.09603700  1
loop_
_geom_bond_atom_site_label_1
_geom_bond_atom_site_label_2
_geom_bond_distance
_geom_bond_site_symmetry_2
Li0 O11 1.974803 1_455
Li0 O14 1.980159 1_555
Li0 O10 2.003811 1_565
Li0 O2 2.069961 1_556
Li1 O4 1.779852 1_555
Li1 O13 1.940459 1_556
Li1 O15 1.958024 1_446
Li1 O8 1.989263 1_456
Li2 O3 1.802922 1_555
Li2 O9 1.917094 1_555
Li2 O5 1.971314 1_455
Li2 O0 1.972709 1_565
Li3 O6 1.982889 1_655
Li3 O1 1.985456 1_555
Li3 O7 1.987852 1_545
Li3 O12 1.996010 1_555
Mn0 O3 1.917748 1_555
Mn0 O2 1.925332 1_555
Mn0 O7 2.085580 1_555
Mn0 O15 2.086590 1_455
Mn0 O6 2.144599 1_555
Mn0 O13 2.149062 1_565
Mn1 O4 1.913310 1_555
Mn1 O12 1.938042 1_555
Mn1 O14 1.938099 1_555
Mn1 O9 1.969571 1_545
Mn1 O10 1.971700 1_555
Mn1 O0 2.001063 1_555
Mn2 O11 1.954123 1_555
Mn2 O5 1.968136 1_555
Mn2 O14 2.058569 1_555
Mn2 O4 2.071506 1_665
Mn2 O12 2.105506 1_555
Mn2 O9 2.126793 1_655
Fe0 O9 2.006070 1_555
Fe0 O5 2.058887 1_555
Fe0 O6 2.069836 1_555
Fe0 O0 2.088699 1_555
Fe0 O7 2.101188 1_555
Fe0 O1 2.174483 1_555
Fe1 O13 2.003010 1_556
Fe1 O15 2.022335 1_556
Fe1 O14 2.071623 1_555
Fe1 O8 2.088881 1_556
Fe1 O10 2.132137 1_555
Fe1 O11 2.139843 1_555
O0 Ti2 2.027144 1_455
O1 Ti0 1.979631 1_555
O1 Ti1 1.981556 1_555
O2 Ti1 1.997734 1_555
O2 Ti0 2.016255 1_555
O3 Ti1 1.984643 1_455
O3 Ti0 1.996091 1_565
O4 Ti2 1.951626 1_455
O5 Ti2 2.038574 1_565
O6 Ti0 1.929911 1_555
O7 Ti1 1.913497 1_555
O8 Ti0 2.032282 1_655
O8 Ti1 2.037289 1_545
O10 Ti2 1.988986 1_555
O11 Ti2 1.978882 1_555
O12 Ti2 1.932715 1_555
O13 Ti0 1.958954 1_555
O15 Ti1 1.990192 1_555
