# generated using pymatgen
data_Co3(SeO3)4
_symmetry_space_group_name_H-M   'P 1'
_cell_length_a   9.19228600
_cell_length_b   7.66919700
_cell_length_c   8.02604981
_cell_angle_alpha   63.38821329
_cell_angle_beta   90.00000000
_cell_angle_gamma   90.00000000
_symmetry_Int_Tables_number   1
_chemical_formula_structural   Co3(SeO3)4
_chemical_formula_sum   'Co6 Se8 O24'
_cell_volume   505.87470113
_cell_formula_units_Z   2
loop_
 _symmetry_equiv_pos_site_id
 _symmetry_equiv_pos_as_xyz
  1  'x, y, z'
loop_
 _atom_site_type_symbol
 _atom_site_label
 _atom_site_symmetry_multiplicity
 _atom_site_fract_x
 _atom_site_fract_y
 _atom_site_fract_z
 _atom_site_occupancy
  Co  Co0  1  0.50000000  0.50000000  0.00000000  1
  Co  Co1  1  0.98849900  0.18117800  0.28064900  1
  Co  Co2  1  0.00000000  0.00000000  0.00000000  1
  Co  Co3  1  0.51150100  0.68117800  0.28064900  1
  Co  Co4  1  0.48849900  0.31882200  0.71935100  1
  Co  Co5  1  0.01150100  0.81882200  0.71935100  1
  Se  Se0  1  0.31735600  0.11835000  0.16735700  1
  Se  Se1  1  0.18264400  0.61835000  0.16735700  1
  Se  Se2  1  0.66771400  0.23785800  0.40149300  1
  Se  Se3  1  0.16771400  0.26214200  0.59850700  1
  Se  Se4  1  0.83228600  0.73785800  0.40149300  1
  Se  Se5  1  0.33228600  0.76214200  0.59850700  1
  Se  Se6  1  0.81735600  0.38165000  0.83264300  1
  Se  Se7  1  0.68264400  0.88165000  0.83264300  1
  O  O0  1  0.87346600  0.18374600  0.04736400  1
  O  O1  1  0.12899300  0.06163800  0.15982300  1
  O  O2  1  0.62653400  0.68374600  0.04736400  1
  O  O3  1  0.57048600  0.27563100  0.20595300  1
  O  O4  1  0.11511500  0.42196900  0.15021100  1
  O  O5  1  0.37100700  0.56163800  0.15982300  1
  O  O6  1  0.83853100  0.33174800  0.33618300  1
  O  O7  1  0.92951400  0.77563100  0.20595300  1
  O  O8  1  0.38488500  0.92196900  0.15021100  1
  O  O9  1  0.10109600  0.08440300  0.53572800  1
  O  O10  1  0.60109600  0.41559700  0.46427200  1
  O  O11  1  0.66146900  0.83174800  0.33618300  1
  O  O12  1  0.33853100  0.16825200  0.66381700  1
  O  O13  1  0.39890400  0.58440300  0.53572800  1
  O  O14  1  0.89890400  0.91559700  0.46427200  1
  O  O15  1  0.61511500  0.07803100  0.84978900  1
  O  O16  1  0.07048600  0.22436900  0.79404700  1
  O  O17  1  0.16146900  0.66825200  0.66381700  1
  O  O18  1  0.62899300  0.43836200  0.84017700  1
  O  O19  1  0.88488500  0.57803100  0.84978900  1
  O  O20  1  0.42951400  0.72436900  0.79404700  1
  O  O21  1  0.37346600  0.31625400  0.95263600  1
  O  O22  1  0.87100700  0.93836200  0.84017700  1
  O  O23  1  0.12653400  0.81625400  0.95263600  1
loop_
_geom_bond_atom_site_label_1
_geom_bond_atom_site_label_2
_geom_bond_distance
_geom_bond_site_symmetry_2
Co0 O3 1.888090 1_555
Co0 O20 1.888090 1_554
Co0 O5 1.954001 1_555
Co0 O18 1.954001 1_554
Co0 O21 1.990759 1_554
Co0 O2 1.990759 1_555
Co1 O6 1.973225 1_555
Co1 O4 2.031956 1_655
Co1 O1 2.060403 1_655
Co1 O14 2.075951 1_545
Co1 O9 2.110022 1_655
Co1 O0 2.142709 1_555
Co2 O7 1.888090 1_445
Co2 O16 1.888090 1_554
Co2 O1 1.954001 1_555
Co2 O22 1.954001 1_444
Co2 O23 1.990759 1_544
Co2 O0 1.990759 1_455
Co3 O11 1.973225 1_555
Co3 O8 2.031956 1_555
Co3 O5 2.060403 1_555
Co3 O10 2.075951 1_555
Co3 O13 2.110022 1_555
Co3 O2 2.142709 1_555
Co4 O12 1.973225 1_555
Co4 O15 2.031956 1_555
Co4 O18 2.060403 1_555
Co4 O13 2.075951 1_555
Co4 O10 2.110022 1_555
Co4 O21 2.142709 1_555
Co5 O17 1.973225 1_555
Co5 O19 2.031956 1_455
Co5 O22 2.060403 1_455
Co5 O9 2.075951 1_565
Co5 O14 2.110022 1_455
Co5 O23 2.142709 1_555
O0 Se6 1.787815 1_554
O1 Se0 1.792884 1_555
O2 Se7 1.787815 1_554
O3 Se2 1.714193 1_555
O4 Se1 1.690631 1_555
O5 Se1 1.792884 1_555
O6 Se2 1.708986 1_555
O7 Se4 1.714193 1_555
O8 Se0 1.690631 1_565
O9 Se3 1.761331 1_555
O10 Se2 1.761331 1_555
O11 Se4 1.708986 1_555
O12 Se3 1.708986 1_555
O13 Se5 1.761331 1_555
O14 Se4 1.761331 1_555
O15 Se7 1.690631 1_545
O16 Se3 1.714193 1_555
O17 Se5 1.708986 1_555
O18 Se6 1.792884 1_555
O19 Se6 1.690631 1_555
O20 Se5 1.714193 1_555
O21 Se0 1.787815 1_556
O22 Se7 1.792884 1_555
O23 Se1 1.787815 1_556
