# generated using pymatgen
data_K2TiPCO7
_symmetry_space_group_name_H-M   'P 1'
_cell_length_a   6.83681600
_cell_length_b   5.73155000
_cell_length_c   9.68983904
_cell_angle_alpha   89.09003171
_cell_angle_beta   90.00000000
_cell_angle_gamma   90.00000000
_symmetry_Int_Tables_number   1
_chemical_formula_structural   K2TiPCO7
_chemical_formula_sum   'K4 Ti2 P2 C2 O14'
_cell_volume   379.65381248
_cell_formula_units_Z   2
loop_
 _symmetry_equiv_pos_site_id
 _symmetry_equiv_pos_as_xyz
  1  'x, y, z'
loop_
 _atom_site_type_symbol
 _atom_site_label
 _atom_site_symmetry_multiplicity
 _atom_site_fract_x
 _atom_site_fract_y
 _atom_site_fract_z
 _atom_site_occupancy
  K  K0  1  0.01713500  0.24743700  0.76391000  1
  K  K1  1  0.48286500  0.24743700  0.76391000  1
  K  K2  1  0.51713500  0.75256300  0.23609000  1
  K  K3  1  0.98286500  0.75256300  0.23609000  1
  Ti  Ti0  1  0.75000000  0.77334300  0.63634600  1
  Ti  Ti1  1  0.25000000  0.22665700  0.36365400  1
  P  P0  1  0.25000000  0.72338600  0.56437400  1
  P  P1  1  0.75000000  0.27661400  0.43562600  1
  C  C0  1  0.75000000  0.72836800  0.89823400  1
  C  C1  1  0.25000000  0.27163200  0.10176600  1
  O  O0  1  0.25000000  0.29056600  0.97255400  1
  O  O1  1  0.75000000  0.93009700  0.83032700  1
  O  O2  1  0.75000000  0.55042100  0.81347000  1
  O  O3  1  0.06336100  0.75853300  0.65145600  1
  O  O4  1  0.43663900  0.75853300  0.65145600  1
  O  O5  1  0.75000000  0.10539200  0.56301400  1
  O  O6  1  0.25000000  0.46705100  0.50802800  1
  O  O7  1  0.75000000  0.53294900  0.49197200  1
  O  O8  1  0.25000000  0.89460800  0.43698600  1
  O  O9  1  0.56336100  0.24146700  0.34854400  1
  O  O10  1  0.93663900  0.24146700  0.34854400  1
  O  O11  1  0.25000000  0.44957900  0.18653000  1
  O  O12  1  0.25000000  0.06990300  0.16967300  1
  O  O13  1  0.75000000  0.70943400  0.02744600  1
loop_
_geom_bond_atom_site_label_1
_geom_bond_atom_site_label_2
_geom_bond_distance
_geom_bond_site_symmetry_2
K0 O2 2.570669 1_455
K0 O0 2.588242 1_555
K0 O1 2.649676 1_445
K0 O5 2.799673 1_455
K0 O3 3.039149 1_545
K0 O3 3.125232 1_555
K0 O6 3.188668 1_555
K1 O2 2.570669 1_555
K1 O0 2.588242 1_555
K1 O1 2.649676 1_545
K1 O5 2.799673 1_555
K1 O4 3.039149 1_545
K1 O4 3.125232 1_555
K1 O6 3.188668 1_555
K2 O11 2.570669 1_555
K2 O13 2.588242 1_555
K2 O12 2.649676 1_565
K2 O8 2.799673 1_555
K2 O9 3.039149 1_565
K2 O9 3.125232 1_555
K2 O7 3.188668 1_555
K3 O11 2.570669 1_655
K3 O13 2.588242 1_555
K3 O12 2.649676 1_665
K3 O8 2.799673 1_655
K3 O10 3.039149 1_565
K3 O10 3.125232 1_555
K3 O7 3.188668 1_555
C0 O13 1.255020 1_556
C0 O2 1.319638 1_555
C0 O1 1.321232 1_555
C1 O0 1.255020 1_554
C1 O11 1.319638 1_555
C1 O12 1.321232 1_555
O1 Ti0 2.096164 1_555
O2 Ti0 2.123330 1_555
O3 P0 1.544738 1_555
O3 Ti0 2.148974 1_455
O4 P0 1.544738 1_555
O4 Ti0 2.148974 1_555
O5 P1 1.564696 1_555
O5 Ti0 2.020882 1_545
O6 P0 1.575473 1_555
O6 Ti1 1.979073 1_555
O7 P1 1.575473 1_555
O7 Ti0 1.979073 1_555
O8 P0 1.564696 1_555
O8 Ti1 2.020882 1_565
O9 P1 1.544738 1_555
O9 Ti1 2.148974 1_555
O10 P1 1.544738 1_555
O10 Ti1 2.148974 1_655
O11 Ti1 2.123330 1_555
O12 Ti1 2.096164 1_555
