# generated using pymatgen
data_MnOF
_symmetry_space_group_name_H-M   'P 1'
_cell_length_a   4.81745938
_cell_length_b   19.09254204
_cell_length_c   3.06123000
_cell_angle_alpha   90.00000000
_cell_angle_beta   90.00000000
_cell_angle_gamma   97.10459686
_symmetry_Int_Tables_number   1
_chemical_formula_structural   MnOF
_chemical_formula_sum   'Mn8 O8 F8'
_cell_volume   279.40257555
_cell_formula_units_Z   8
loop_
 _symmetry_equiv_pos_site_id
 _symmetry_equiv_pos_as_xyz
  1  'x, y, z'
loop_
 _atom_site_type_symbol
 _atom_site_label
 _atom_site_symmetry_multiplicity
 _atom_site_fract_x
 _atom_site_fract_y
 _atom_site_fract_z
 _atom_site_occupancy
  Mn  Mn0  1  0.05323700  0.99872900  0.00000000  1
  Mn  Mn1  1  0.01166300  0.25126200  0.00000000  1
  Mn  Mn2  1  0.99675000  0.49937300  0.00000000  1
  Mn  Mn3  1  0.97103700  0.74915600  0.00000000  1
  Mn  Mn4  1  0.52384200  0.12740400  0.50000000  1
  Mn  Mn5  1  0.50349600  0.37544200  0.50000000  1
  Mn  Mn6  1  0.48862200  0.62320900  0.50000000  1
  Mn  Mn7  1  0.45084100  0.87423800  0.50000000  1
  O  O0  1  0.20022100  0.95232000  0.50000000  1
  O  O1  1  0.33232200  0.07765900  0.00000000  1
  O  O2  1  0.29387600  0.57520600  0.00000000  1
  O  O3  1  0.31051700  0.32615100  0.00000000  1
  O  O4  1  0.26984100  0.82565000  0.00000000  1
  O  O5  1  0.71557800  0.17543800  0.00000000  1
  O  O6  1  0.69774600  0.42430100  0.00000000  1
  O  O7  1  0.67789600  0.67356500  0.00000000  1
  F  F0  1  0.19895900  0.20270300  0.50000000  1
  F  F1  1  0.18724500  0.45252000  0.50000000  1
  F  F2  1  0.16788700  0.70436500  0.50000000  1
  F  F3  1  0.69436800  0.92417800  0.00000000  1
  F  F4  1  0.84635100  0.04166000  0.50000000  1
  F  F5  1  0.81979000  0.29772900  0.50000000  1
  F  F6  1  0.80818900  0.54711500  0.50000000  1
  F  F7  1  0.77972300  0.80062800  0.50000000  1
loop_
_geom_bond_atom_site_label_1
_geom_bond_atom_site_label_2
_geom_bond_distance
_geom_bond_site_symmetry_2
Mn0 O1 1.891407 1_565
Mn0 O0 1.945375 1_554
Mn0 O0 1.945375 1_555
Mn1 O3 1.899466 1_555
Mn1 O5 1.902505 1_455
Mn2 O6 1.902250 1_555
Mn2 O2 1.905911 1_655
Mn3 O7 1.890248 1_555
Mn3 O4 1.919640 1_655
Mn4 O5 1.956396 1_555
Mn4 O5 1.956396 1_556
Mn4 O1 1.969601 1_555
Mn4 O1 1.969601 1_556
Mn5 O6 1.967930 1_556
Mn5 O6 1.967930 1_555
Mn5 O3 1.968832 1_555
Mn5 O3 1.968832 1_556
Mn6 O2 1.962204 1_556
Mn6 O2 1.962204 1_555
Mn6 O7 1.970199 1_555
Mn6 O7 1.970199 1_556
Mn7 O4 1.939994 1_555
Mn7 O4 1.939994 1_556
Mn7 O0 2.031099 1_555
F0 Mn1 2.055086 1_555
F0 Mn1 2.055086 1_556
F0 Mn4 2.252330 1_555
F1 Mn2 2.046517 1_456
F1 Mn2 2.046517 1_455
F1 Mn5 2.245302 1_555
F2 Mn3 2.043041 1_455
F2 Mn3 2.043041 1_456
F2 Mn6 2.319593 1_555
F3 Mn7 2.086040 1_554
F3 Mn7 2.086040 1_555
F3 Mn0 2.099084 1_655
F4 Mn0 2.051840 1_645
F4 Mn0 2.051840 1_646
F4 Mn4 2.392293 1_555
F5 Mn1 2.046244 1_656
F5 Mn1 2.046244 1_655
F5 Mn5 2.254437 1_555
F6 Mn2 2.050274 1_555
F6 Mn2 2.050274 1_556
F6 Mn6 2.243664 1_555
F7 Mn3 2.093328 1_556
F7 Mn3 2.093328 1_555
F7 Mn7 2.244148 1_555
