# generated using pymatgen
data_Li4Ti2Mn7O18
_symmetry_space_group_name_H-M   'P 1'
_cell_length_a   2.94834800
_cell_length_b   9.04583400
_cell_length_c   25.01948300
_cell_angle_alpha   90.00000000
_cell_angle_beta   90.00000000
_cell_angle_gamma   90.00000000
_symmetry_Int_Tables_number   1
_chemical_formula_structural   Li4Ti2Mn7O18
_chemical_formula_sum   'Li8 Ti4 Mn14 O36'
_cell_volume   667.27628136
_cell_formula_units_Z   2
loop_
 _symmetry_equiv_pos_site_id
 _symmetry_equiv_pos_as_xyz
  1  'x, y, z'
loop_
 _atom_site_type_symbol
 _atom_site_label
 _atom_site_symmetry_multiplicity
 _atom_site_fract_x
 _atom_site_fract_y
 _atom_site_fract_z
 _atom_site_occupancy
  Li  Li0  1  0.50000000  0.69009100  0.48924500  1
  Li  Li1  1  0.50000000  0.69353200  0.70650800  1
  Li  Li2  1  0.50000000  0.80646800  0.20650800  1
  Li  Li3  1  0.50000000  0.80990900  0.98924500  1
  Li  Li4  1  0.50000000  0.19009100  0.01075500  1
  Li  Li5  1  0.50000000  0.19353200  0.79349200  1
  Li  Li6  1  0.50000000  0.30646800  0.29349200  1
  Li  Li7  1  0.50000000  0.30990900  0.51075500  1
  Ti  Ti0  1  0.50000000  0.50321000  0.60402300  1
  Ti  Ti1  1  0.50000000  0.99679000  0.10402300  1
  Ti  Ti2  1  0.50000000  0.00321000  0.89597700  1
  Ti  Ti3  1  0.50000000  0.49679000  0.39597700  1
  Mn  Mn0  1  0.50000000  0.50000000  0.00000000  1
  Mn  Mn1  1  0.50000000  0.52391600  0.81014800  1
  Mn  Mn2  1  0.00000000  0.64336100  0.08611800  1
  Mn  Mn3  1  0.00000000  0.64730800  0.30596900  1
  Mn  Mn4  1  0.00000000  0.85269200  0.80596900  1
  Mn  Mn5  1  0.00000000  0.85663900  0.58611800  1
  Mn  Mn6  1  0.50000000  0.97608400  0.31014800  1
  Mn  Mn7  1  0.50000000  0.00000000  0.50000000  1
  Mn  Mn8  1  0.50000000  0.02391600  0.68985200  1
  Mn  Mn9  1  0.00000000  0.14336100  0.41388200  1
  Mn  Mn10  1  0.00000000  0.14730800  0.19403100  1
  Mn  Mn11  1  0.00000000  0.35269200  0.69403100  1
  Mn  Mn12  1  0.00000000  0.35663900  0.91388200  1
  Mn  Mn13  1  0.50000000  0.47608400  0.18985200  1
  O  O0  1  0.50000000  0.49849400  0.92371100  1
  O  O1  1  0.50000000  0.50150600  0.07628900  1
  O  O2  1  0.00000000  0.55401000  0.44072800  1
  O  O3  1  0.00000000  0.54905300  0.66061900  1
  O  O4  1  0.00000000  0.60103200  0.16175700  1
  O  O5  1  0.50000000  0.60542600  0.25855600  1
  O  O6  1  0.00000000  0.66033700  0.00872200  1
  O  O7  1  0.00000000  0.64884200  0.78140600  1
  O  O8  1  0.50000000  0.68802400  0.35496300  1
  O  O9  1  0.50000000  0.71005800  0.58781300  1
  O  O10  1  0.50000000  0.78994200  0.08781300  1
  O  O11  1  0.50000000  0.81197600  0.85496300  1
  O  O12  1  0.00000000  0.85115800  0.28140600  1
  O  O13  1  0.00000000  0.83966300  0.50872200  1
  O  O14  1  0.50000000  0.89457400  0.75855600  1
  O  O15  1  0.00000000  0.89896800  0.66175700  1
  O  O16  1  0.00000000  0.95094700  0.16061900  1
  O  O17  1  0.00000000  0.94599000  0.94072800  1
  O  O18  1  0.50000000  0.99849400  0.57628900  1
  O  O19  1  0.50000000  0.00150600  0.42371100  1
  O  O20  1  0.00000000  0.05401000  0.05927200  1
  O  O21  1  0.00000000  0.04905300  0.83938100  1
  O  O22  1  0.00000000  0.10103200  0.33824300  1
  O  O23  1  0.50000000  0.10542600  0.24144400  1
  O  O24  1  0.00000000  0.16033700  0.49127800  1
  O  O25  1  0.00000000  0.14884200  0.71859400  1
  O  O26  1  0.50000000  0.18802400  0.14503700  1
  O  O27  1  0.50000000  0.21005800  0.91218700  1
  O  O28  1  0.50000000  0.28994200  0.41218700  1
  O  O29  1  0.50000000  0.31197600  0.64503700  1
  O  O30  1  0.00000000  0.35115800  0.21859400  1
  O  O31  1  0.00000000  0.33966300  0.99127800  1
  O  O32  1  0.50000000  0.39457400  0.74144400  1
  O  O33  1  0.00000000  0.39896800  0.83824300  1
  O  O34  1  0.00000000  0.45094700  0.33938100  1
  O  O35  1  0.00000000  0.44599000  0.55927200  1
loop_
_geom_bond_atom_site_label_1
_geom_bond_atom_site_label_2
_geom_bond_distance
_geom_bond_site_symmetry_2
Li0 O13 2.059435 1_555
Li0 O13 2.059435 1_655
Li0 O2 2.271992 1_655
Li0 O2 2.271992 1_555
Li0 O9 2.472726 1_555
Li1 O14 2.236748 1_555
Li1 O3 2.280228 1_555
Li1 O3 2.280228 1_655
Li1 O7 2.418295 1_655
Li1 O7 2.418295 1_555
Li1 O15 2.623018 1_555
Li1 O15 2.623018 1_655
Li2 O5 2.236748 1_555
Li2 O16 2.280228 1_555
Li2 O16 2.280228 1_655
Li2 O12 2.418295 1_555
Li2 O12 2.418295 1_655
Li2 O4 2.623018 1_655
Li2 O4 2.623018 1_555
Li3 O6 2.059435 1_556
Li3 O6 2.059435 1_656
Li3 O17 2.271992 1_555
Li3 O17 2.271992 1_655
Li3 O10 2.472726 1_556
Li4 O31 2.059435 1_654
Li4 O31 2.059435 1_554
Li4 O20 2.271992 1_555
Li4 O20 2.271992 1_655
Li4 O27 2.472726 1_554
Li5 O32 2.236748 1_555
Li5 O21 2.280228 1_655
Li5 O21 2.280228 1_555
Li5 O25 2.418295 1_655
Li5 O25 2.418295 1_555
Li5 O33 2.623018 1_655
Li5 O33 2.623018 1_555
Li6 O23 2.236748 1_555
Li6 O34 2.280228 1_555
Li6 O34 2.280228 1_655
Li6 O30 2.418295 1_555
Li6 O30 2.418295 1_655
Li6 O22 2.623018 1_655
Li6 O22 2.623018 1_555
Li7 O24 2.059435 1_655
Li7 O24 2.059435 1_555
Li7 O35 2.271992 1_655
Li7 O35 2.271992 1_555
Li7 O28 2.472726 1_555
Mn0 O1 1.908760 1_555
Mn0 O0 1.908760 1_554
Mn0 O6 2.079523 1_655
Mn0 O6 2.079523 1_555
Mn0 O31 2.079523 1_554
Mn0 O31 2.079523 1_654
Mn1 O33 1.986146 1_655
Mn1 O33 1.986146 1_555
Mn1 O7 1.991819 1_655
Mn1 O7 1.991819 1_555
Mn1 O32 2.079342 1_555
Mn2 O4 1.930797 1_555
Mn2 O6 1.942487 1_555
Mn2 O1 1.969837 1_455
Mn2 O1 1.969837 1_555
Mn2 O10 1.983211 1_455
Mn2 O10 1.983211 1_555
Mn3 O5 1.929743 1_455
Mn3 O5 1.929743 1_555
Mn3 O12 1.943705 1_555
Mn3 O8 1.952290 1_555
Mn3 O8 1.952290 1_455
Mn3 O34 1.963129 1_555
Mn4 O14 1.929743 1_455
Mn4 O14 1.929743 1_555
Mn4 O7 1.943705 1_555
Mn4 O11 1.952290 1_555
Mn4 O11 1.952290 1_455
Mn4 O21 1.963129 1_565
Mn5 O15 1.930797 1_555
Mn5 O13 1.942487 1_555
Mn5 O18 1.969837 1_555
Mn5 O18 1.969837 1_455
Mn5 O9 1.983211 1_555
Mn5 O9 1.983211 1_455
Mn6 O22 1.986146 1_565
Mn6 O22 1.986146 1_665
Mn6 O12 1.991819 1_555
Mn6 O12 1.991819 1_655
Mn6 O23 2.079342 1_565
Mn7 O19 1.908760 1_555
Mn7 O18 1.908760 1_545
Mn7 O13 2.079523 1_545
Mn7 O13 2.079523 1_645
Mn7 O24 2.079523 1_655
Mn7 O24 2.079523 1_555
Mn8 O15 1.986146 1_545
Mn8 O15 1.986146 1_645
Mn8 O25 1.991819 1_555
Mn8 O25 1.991819 1_655
Mn8 O14 2.079342 1_545
Mn9 O22 1.930797 1_555
Mn9 O24 1.942487 1_555
Mn9 O19 1.969837 1_455
Mn9 O19 1.969837 1_555
Mn9 O28 1.983211 1_455
Mn9 O28 1.983211 1_555
Mn10 O23 1.929743 1_455
Mn10 O23 1.929743 1_555
Mn10 O30 1.943705 1_555
Mn10 O26 1.952290 1_555
Mn10 O26 1.952290 1_455
Mn10 O16 1.963129 1_545
Mn11 O32 1.929743 1_555
Mn11 O32 1.929743 1_455
Mn11 O25 1.943705 1_555
Mn11 O29 1.952290 1_455
Mn11 O29 1.952290 1_555
Mn11 O3 1.963129 1_555
Mn12 O33 1.930797 1_555
Mn12 O31 1.942487 1_555
Mn12 O0 1.969837 1_455
Mn12 O0 1.969837 1_555
Mn12 O27 1.983211 1_455
Mn12 O27 1.983211 1_555
Mn13 O4 1.986146 1_555
Mn13 O4 1.986146 1_655
Mn13 O30 1.991819 1_555
Mn13 O30 1.991819 1_655
Mn13 O5 2.079342 1_555
O2 Ti3 1.922163 1_555
O2 Ti3 1.922163 1_455
O3 Ti0 2.085718 1_455
O3 Ti0 2.085718 1_555
O8 Ti3 2.011327 1_555
O9 Ti0 1.914562 1_555
O10 Ti1 1.914562 1_555
O11 Ti2 2.011327 1_565
O16 Ti1 2.085718 1_455
O16 Ti1 2.085718 1_555
O17 Ti2 1.922163 1_465
O17 Ti2 1.922163 1_565
O20 Ti1 1.922163 1_445
O20 Ti1 1.922163 1_545
O21 Ti2 2.085718 1_555
O21 Ti2 2.085718 1_455
O26 Ti1 2.011327 1_545
O27 Ti2 1.914562 1_555
O28 Ti3 1.914562 1_555
O29 Ti0 2.011327 1_555
O34 Ti3 2.085718 1_455
O34 Ti3 2.085718 1_555
O35 Ti0 1.922163 1_555
O35 Ti0 1.922163 1_455
