# generated using pymatgen
data_Mn12O7F17
_symmetry_space_group_name_H-M   'P 1'
_cell_length_a   4.81704300
_cell_length_b   5.87091141
_cell_length_c   15.71437074
_cell_angle_alpha   89.37090013
_cell_angle_beta   89.91654495
_cell_angle_gamma   86.34148885
_symmetry_Int_Tables_number   1
_chemical_formula_structural   Mn12O7F17
_chemical_formula_sum   'Mn12 O7 F17'
_cell_volume   443.47667600
_cell_formula_units_Z   1
loop_
 _symmetry_equiv_pos_site_id
 _symmetry_equiv_pos_as_xyz
  1  'x, y, z'
loop_
 _atom_site_type_symbol
 _atom_site_label
 _atom_site_symmetry_multiplicity
 _atom_site_fract_x
 _atom_site_fract_y
 _atom_site_fract_z
 _atom_site_occupancy
  Mn  Mn0  1  0.96188700  0.16240400  0.58927300  1
  Mn  Mn1  1  0.00027700  0.84139500  0.75551900  1
  Mn  Mn2  1  0.03366700  0.19026000  0.92686700  1
  Mn  Mn3  1  0.96788400  0.17524700  0.25063500  1
  Mn  Mn4  1  0.99157200  0.85586600  0.41283400  1
  Mn  Mn5  1  0.98008200  0.85768900  0.07994500  1
  Mn  Mn6  1  0.52513900  0.32912400  0.42048700  1
  Mn  Mn7  1  0.51910500  0.33622500  0.08012200  1
  Mn  Mn8  1  0.50489700  0.34330600  0.74908200  1
  Mn  Mn9  1  0.48297200  0.63581500  0.91179200  1
  Mn  Mn10  1  0.50624700  0.65003500  0.58096000  1
  Mn  Mn11  1  0.49992300  0.64241900  0.24589900  1
  O  O0  1  0.76610300  0.12165500  0.69537200  1
  O  O1  1  0.78088800  0.12641100  0.35850300  1
  O  O2  1  0.79902400  0.13152700  0.02859300  1
  O  O3  1  0.71437200  0.37249600  0.52752100  1
  O  O4  1  0.70610000  0.37573700  0.18880300  1
  O  O5  1  0.31115200  0.39343100  0.97409700  1
  O  O6  1  0.28895400  0.59680500  0.80656600  1
  F  F0  1  0.75037700  0.85919600  0.86509000  1
  F  F1  1  0.76241500  0.87958100  0.52448600  1
  F  F2  1  0.76319100  0.87646700  0.18991900  1
  F  F3  1  0.75300200  0.36568800  0.85186100  1
  F  F4  1  0.74160200  0.61460500  0.69274400  1
  F  F5  1  0.73336400  0.62089300  0.35800200  1
  F  F6  1  0.72916500  0.63049800  0.01737500  1
  F  F7  1  0.26529300  0.39095500  0.64419500  1
  F  F8  1  0.26973300  0.61062300  0.46620100  1
  F  F9  1  0.25540800  0.61491100  0.13218600  1
  F  F10  1  0.27738600  0.38034400  0.31556200  1
  F  F11  1  0.23844600  0.10654700  0.81360100  1
  F  F12  1  0.21319100  0.11675900  0.48415800  1
  F  F13  1  0.22060700  0.89279900  0.63682100  1
  F  F14  1  0.24012800  0.88915400  0.97759800  1
  F  F15  1  0.21858500  0.12129900  0.14790100  1
  F  F16  1  0.22786200  0.89183100  0.29942900  1
loop_
_geom_bond_atom_site_label_1
_geom_bond_atom_site_label_2
_geom_bond_distance
_geom_bond_site_symmetry_2
Mn0 O3 1.916764 1_555
Mn0 O0 1.934410 1_555
Mn1 O6 2.088608 1_555
Mn1 O0 2.145965 1_465
Mn2 O2 1.996048 1_456
Mn2 O5 1.996514 1_555
Mn3 O4 1.925821 1_555
Mn3 O1 1.945434 1_555
Mn4 O1 2.012156 1_565
Mn5 O2 1.947078 1_565
Mn6 O1 1.928127 1_555
Mn6 O3 1.941204 1_555
Mn7 O2 1.931178 1_555
Mn7 O4 1.954941 1_555
Mn7 O5 1.960056 1_554
Mn8 O0 1.949608 1_555
Mn8 O6 1.985495 1_555
Mn9 O6 1.923620 1_555
Mn9 O5 1.945754 1_555
Mn10 O3 2.045577 1_555
Mn11 O4 2.018046 1_555
F0 Mn9 2.027166 1_555
F0 Mn1 2.099189 1_655
F0 Mn2 2.639349 1_665
F1 Mn4 2.072779 1_555
F1 Mn10 2.075856 1_555
F1 Mn0 2.227188 1_565
F2 Mn5 2.018541 1_555
F2 Mn11 2.112532 1_555
F2 Mn3 2.284663 1_565
F3 Mn2 2.019438 1_655
F3 Mn8 2.021016 1_555
F3 Mn9 2.204520 1_555
F4 Mn10 2.093312 1_555
F4 Mn1 2.131363 1_655
F4 Mn8 2.195147 1_555
F5 Mn11 2.089627 1_555
F5 Mn4 2.107299 1_555
F5 Mn6 2.254746 1_555
F6 Mn9 2.039633 1_554
F6 Mn5 2.108259 1_555
F6 Mn7 2.272376 1_555
F7 Mn8 2.020217 1_555
F7 Mn10 2.199303 1_555
F7 Mn0 2.227270 1_455
F8 Mn4 2.074185 1_455
F8 Mn6 2.127199 1_555
F8 Mn10 2.156955 1_555
F9 Mn5 2.049557 1_455
F9 Mn11 2.154819 1_555
F9 Mn7 2.172781 1_555
F10 Mn6 2.045093 1_555
F10 Mn11 2.210191 1_555
F10 Mn3 2.230270 1_455
F11 Mn2 2.082035 1_555
F11 Mn8 2.190970 1_555
F11 Mn1 2.198801 1_545
F12 Mn0 2.056263 1_455
F12 Mn4 2.234229 1_445
F12 Mn6 2.240732 1_555
F13 Mn0 2.083700 1_465
F13 Mn10 2.113952 1_555
F13 Mn1 2.172436 1_555
F14 Mn5 2.051119 1_456
F14 Mn9 2.111429 1_555
F14 Mn2 2.120525 1_565
F15 Mn3 2.030203 1_455
F15 Mn7 2.240830 1_555
F15 Mn5 2.263237 1_445
F16 Mn11 2.085217 1_555
F16 Mn4 2.128958 1_455
F16 Mn3 2.152603 1_465
