# generated using pymatgen
data_Ba(CO2)2
_symmetry_space_group_name_H-M   'P 1'
_cell_length_a   6.86059600
_cell_length_b   8.48190800
_cell_length_c   8.74169000
_cell_angle_alpha   90.00000000
_cell_angle_beta   90.00000000
_cell_angle_gamma   90.00000000
_symmetry_Int_Tables_number   1
_chemical_formula_structural   Ba(CO2)2
_chemical_formula_sum   'Ba4 C8 O16'
_cell_volume   508.68719410
_cell_formula_units_Z   4
loop_
 _symmetry_equiv_pos_site_id
 _symmetry_equiv_pos_as_xyz
  1  'x, y, z'
loop_
 _atom_site_type_symbol
 _atom_site_label
 _atom_site_symmetry_multiplicity
 _atom_site_fract_x
 _atom_site_fract_y
 _atom_site_fract_z
 _atom_site_occupancy
  Ba  Ba0  1  0.45944500  0.91065300  0.59712600  1
  Ba  Ba1  1  0.95944500  0.58934700  0.40287400  1
  Ba  Ba2  1  0.54055500  0.41065300  0.90287400  1
  Ba  Ba3  1  0.04055500  0.08934700  0.09712600  1
  C  C0  1  0.15019500  0.73883400  0.86979100  1
  C  C1  1  0.65019500  0.76116600  0.13020900  1
  C  C2  1  0.84980500  0.23883400  0.63020900  1
  C  C3  1  0.34980500  0.26116600  0.36979100  1
  C  C4  1  0.59983900  0.57404600  0.55663500  1
  C  C5  1  0.09983900  0.92595400  0.44336500  1
  C  C6  1  0.40016100  0.07404600  0.94336500  1
  C  C7  1  0.90016100  0.42595400  0.05663500  1
  O  O0  1  0.01054100  0.80291500  0.82418600  1
  O  O1  1  0.51054100  0.69708500  0.17581400  1
  O  O2  1  0.98945900  0.30291500  0.67581400  1
  O  O3  1  0.48945900  0.19708500  0.32418600  1
  O  O4  1  0.29732000  0.68168200  0.91109400  1
  O  O5  1  0.79732000  0.81831800  0.08890600  1
  O  O6  1  0.70268000  0.18168200  0.58890600  1
  O  O7  1  0.20268000  0.31831800  0.41109400  1
  O  O8  1  0.72830000  0.59636300  0.66667000  1
  O  O9  1  0.22830000  0.90363700  0.33333000  1
  O  O10  1  0.27170000  0.09636300  0.83333000  1
  O  O11  1  0.77170000  0.40363700  0.16667000  1
  O  O12  1  0.41718400  0.57561700  0.59932200  1
  O  O13  1  0.91718400  0.92438300  0.40067800  1
  O  O14  1  0.58281600  0.07561700  0.90067800  1
  O  O15  1  0.08281600  0.42438300  0.09932200  1
loop_
_geom_bond_atom_site_label_1
_geom_bond_atom_site_label_2
_geom_bond_distance
_geom_bond_site_symmetry_2
Ba0 O9 2.799289 1_555
Ba0 C5 2.812503 1_555
Ba0 O6 2.841571 1_565
Ba0 O12 2.856561 1_555
Ba0 O10 2.898917 1_565
Ba0 O14 3.116977 1_565
Ba1 O8 2.799289 1_555
Ba1 C4 2.812503 1_555
Ba1 O7 2.841571 1_655
Ba1 O13 2.856561 1_555
Ba1 O11 2.898917 1_555
Ba1 O15 3.116977 1_655
Ba2 O11 2.799289 1_556
Ba2 C7 2.812503 1_556
Ba2 O4 2.841571 1_555
Ba2 O14 2.856561 1_555
Ba2 O8 2.898917 1_555
Ba2 O12 3.116977 1_555
Ba3 O10 2.799289 1_554
Ba3 C6 2.812503 1_554
Ba3 O5 2.841571 1_445
Ba3 O15 2.856561 1_555
Ba3 O9 2.898917 1_545
Ba3 O13 3.116977 1_445
C0 O0 1.171466 1_555
C0 O4 1.176508 1_555
C1 O1 1.171466 1_555
C1 O5 1.176508 1_555
C2 O2 1.171466 1_555
C2 O6 1.176508 1_555
C3 O3 1.171466 1_555
C3 O7 1.176508 1_555
C4 O12 1.307570 1_555
C4 O8 1.318253 1_555
C5 O13 1.307570 1_455
C5 O9 1.318253 1_555
C6 O14 1.307570 1_555
C6 O10 1.318253 1_555
C7 O15 1.307570 1_655
C7 O11 1.318253 1_555
