# generated using pymatgen
data_MnOF
_symmetry_space_group_name_H-M   'P 1'
_cell_length_a   5.69216500
_cell_length_b   6.90689001
_cell_length_c   6.93492748
_cell_angle_alpha   96.53797126
_cell_angle_beta   90.79871343
_cell_angle_gamma   91.33721565
_symmetry_Int_Tables_number   1
_chemical_formula_structural   MnOF
_chemical_formula_sum   'Mn8 O8 F8'
_cell_volume   270.76305377
_cell_formula_units_Z   8
loop_
 _symmetry_equiv_pos_site_id
 _symmetry_equiv_pos_as_xyz
  1  'x, y, z'
loop_
 _atom_site_type_symbol
 _atom_site_label
 _atom_site_symmetry_multiplicity
 _atom_site_fract_x
 _atom_site_fract_y
 _atom_site_fract_z
 _atom_site_occupancy
  Mn  Mn0  1  0.34625700  0.14149400  0.37714200  1
  Mn  Mn1  1  0.61150800  0.40181900  0.12173100  1
  Mn  Mn2  1  0.19415300  0.11347900  0.90056100  1
  Mn  Mn3  1  0.14499300  0.62227300  0.38835100  1
  Mn  Mn4  1  0.85047600  0.87692800  0.14818600  1
  Mn  Mn5  1  0.84735600  0.36511400  0.62741600  1
  Mn  Mn6  1  0.66267300  0.88581000  0.62050200  1
  Mn  Mn7  1  0.35010500  0.62833800  0.86403500  1
  O  O0  1  0.12122700  0.06698300  0.16907500  1
  O  O1  1  0.38188500  0.41490900  0.32124100  1
  O  O2  1  0.61463700  0.16020000  0.56624700  1
  O  O3  1  0.61154700  0.66164400  0.06859600  1
  O  O4  1  0.89009100  0.81588000  0.41320500  1
  O  O5  1  0.11294400  0.55380300  0.64896900  1
  O  O6  1  0.38675800  0.35976100  0.92332800  1
  O  O7  1  0.40103400  0.89140300  0.80374200  1
  F  F0  1  0.61064200  0.11375700  0.14977900  1
  F  F1  1  0.86050900  0.40995400  0.32796600  1
  F  F2  1  0.11747200  0.65880800  0.10742300  1
  F  F3  1  0.10456300  0.16041800  0.61349900  1
  F  F4  1  0.86572200  0.32996300  0.92249800  1
  F  F5  1  0.38755400  0.85770000  0.40318600  1
  F  F6  1  0.63029200  0.59423500  0.65143400  1
  F  F7  1  0.89560100  0.91532300  0.86188600  1
loop_
_geom_bond_atom_site_label_1
_geom_bond_atom_site_label_2
_geom_bond_distance
_geom_bond_site_symmetry_2
Mn0 O0 1.932931 1_555
Mn0 O1 1.977038 1_555
Mn0 O2 1.991643 1_555
Mn1 O6 1.859226 1_554
Mn1 O3 1.872667 1_555
Mn1 O1 1.912674 1_555
Mn2 O0 1.973440 1_556
Mn2 O6 1.991835 1_555
Mn2 O7 2.015464 1_545
Mn3 O5 1.929588 1_555
Mn3 O4 1.992023 1_455
Mn3 O1 2.010476 1_555
Mn4 O4 1.943149 1_555
Mn4 O0 1.993830 1_665
Mn4 O3 2.015713 1_555
Mn5 O2 1.923004 1_555
Mn5 O5 1.965616 1_655
Mn6 O7 1.969410 1_555
Mn6 O4 1.974494 1_555
Mn6 O2 1.997935 1_565
Mn7 O7 1.926660 1_555
Mn7 O6 1.960389 1_555
Mn7 O5 2.012081 1_555
Mn7 O3 2.032459 1_556
F0 Mn1 2.020919 1_555
F0 Mn4 2.154075 1_545
F0 Mn0 2.190535 1_555
F1 Mn1 1.994759 1_555
F1 Mn5 2.136298 1_555
F1 Mn3 2.162990 1_655
F2 Mn3 1.997261 1_555
F2 Mn7 2.154325 1_554
F2 Mn4 2.163597 1_455
F3 Mn5 2.054542 1_455
F3 Mn2 2.110606 1_555
F3 Mn0 2.149183 1_555
F4 Mn1 2.045070 1_556
F4 Mn5 2.089467 1_555
F4 Mn2 2.416697 1_655
F5 Mn0 2.007722 1_565
F5 Mn3 2.100991 1_555
F5 Mn6 2.148200 1_555
F6 Mn5 2.023780 1_555
F6 Mn6 2.053738 1_555
F6 Mn7 2.185606 1_555
F7 Mn4 2.051666 1_556
F7 Mn6 2.109380 1_555
F7 Mn2 2.151335 1_665
