# generated using pymatgen
data_LiZn2Fe9O16
_symmetry_space_group_name_H-M   'P 1'
_cell_length_a   6.04503359
_cell_length_b   6.04983404
_cell_length_c   20.01459596
_cell_angle_alpha   98.87053323
_cell_angle_beta   89.74758090
_cell_angle_gamma   119.97586987
_symmetry_Int_Tables_number   1
_chemical_formula_structural   LiZn2Fe9O16
_chemical_formula_sum   'Li2 Zn4 Fe18 O32'
_cell_volume   624.20838555
_cell_formula_units_Z   2
loop_
 _symmetry_equiv_pos_site_id
 _symmetry_equiv_pos_as_xyz
  1  'x, y, z'
loop_
 _atom_site_type_symbol
 _atom_site_label
 _atom_site_symmetry_multiplicity
 _atom_site_fract_x
 _atom_site_fract_y
 _atom_site_fract_z
 _atom_site_occupancy
  Li  Li0  1  0.18200300  0.36968600  0.56016800  1
  Li  Li1  1  0.93885400  0.87683900  0.81310100  1
  Zn  Zn0  1  0.34418300  0.68854400  0.03079500  1
  Zn  Zn1  1  0.22041200  0.93873500  0.15627800  1
  Zn  Zn2  1  0.09738600  0.18829200  0.28279200  1
  Zn  Zn3  1  0.97280700  0.43617300  0.40870200  1
  Fe  Fe0  1  0.99586600  0.99724300  0.99619800  1
  Fe  Fe1  1  0.72053300  0.93905100  0.15634600  1
  Fe  Fe2  1  0.21914400  0.43761300  0.15639100  1
  Fe  Fe3  1  0.69324000  0.37525200  0.06535700  1
  Fe  Fe4  1  0.44604500  0.87128000  0.31358100  1
  Fe  Fe5  1  0.74711400  0.50604500  0.25064300  1
  Fe  Fe6  1  0.97197000  0.94358000  0.40809500  1
  Fe  Fe7  1  0.46315200  0.43391500  0.40765700  1
  Fe  Fe8  1  0.20492700  0.92763000  0.65480800  1
  Fe  Fe9  1  0.83855200  0.68505800  0.53414700  1
  Fe  Fe10  1  0.72094000  0.92707100  0.65475600  1
  Fe  Fe11  1  0.49004300  0.00373400  0.50135500  1
  Fe  Fe12  1  0.25104500  0.49714300  0.74767100  1
  Fe  Fe13  1  0.46854900  0.93851100  0.90392800  1
  Fe  Fe14  1  0.72432100  0.44506800  0.65486600  1
  Fe  Fe15  1  0.46971800  0.43178400  0.90365400  1
  Fe  Fe16  1  0.59775900  0.19010100  0.78313900  1
  Fe  Fe17  1  0.96282200  0.43238400  0.90429200  1
  O  O0  1  0.04941300  0.56385800  0.09568100  1
  O  O1  1  0.52704900  0.57246600  0.09712900  1
  O  O2  1  0.41066200  0.80431000  0.21341900  1
  O  O3  1  0.02759800  0.06897000  0.09572700  1
  O  O4  1  0.90506800  0.82615400  0.21574500  1
  O  O5  1  0.39196300  0.31260400  0.21556500  1
  O  O6  1  0.13062500  0.80934700  0.47177500  1
  O  O7  1  0.28673300  0.55217700  0.34652000  1
  O  O8  1  0.53474400  0.04829200  0.09530900  1
  O  O9  1  0.28338200  0.06810000  0.34867100  1
  O  O10  1  0.01864600  0.57513000  0.59741600  1
  O  O11  1  0.15898600  0.29811000  0.45947000  1
  O  O12  1  0.91026500  0.30523100  0.21437900  1
  O  O13  1  0.78131200  0.57073000  0.34993300  1
  O  O14  1  0.65718300  0.80408000  0.46816000  1
  O  O15  1  0.65693800  0.33344900  0.47166000  1
  O  O16  1  0.41568500  0.83133000  0.71783100  1
  O  O17  1  0.79780300  0.06191500  0.34663400  1
  O  O18  1  0.55839800  0.57511300  0.59708500  1
  O  O19  1  0.01238400  0.02890600  0.59623400  1
  O  O20  1  0.90124500  0.80571800  0.71103500  1
  O  O21  1  0.16290200  0.80529400  0.96288600  1
  O  O22  1  0.41599400  0.29930900  0.71714500  1
  O  O23  1  0.53094900  0.06464600  0.60095800  1
  O  O24  1  0.28468200  0.56626600  0.84744100  1
  O  O25  1  0.63958900  0.80375100  0.96185200  1
  O  O26  1  0.88781900  0.30036800  0.71700700  1
  O  O27  1  0.16202500  0.32516600  0.96280500  1
  O  O28  1  0.31730000  0.08111500  0.84763000  1
  O  O29  1  0.76913200  0.53329300  0.84721100  1
  O  O30  1  0.76630400  0.08177900  0.84762900  1
  O  O31  1  0.65494500  0.31138300  0.96577200  1
loop_
_geom_bond_atom_site_label_1
_geom_bond_atom_site_label_2
_geom_bond_distance
_geom_bond_site_symmetry_2
Li0 O11 1.985431 1_555
Li0 O10 2.002487 1_555
Li0 O19 2.040324 1_555
Li0 O18 2.042910 1_555
Li1 O20 2.011258 1_555
Li1 O30 2.030890 1_565
Li1 O29 2.034462 1_555
Li1 O28 2.040562 1_665
Fe0 O25 1.930515 1_555
Fe0 O21 1.933810 1_655
Fe0 O27 1.950163 1_665
Fe0 O3 1.961349 1_666
Fe1 O4 2.036591 1_555
Fe1 O8 2.047755 1_565
Fe1 O2 2.054414 1_555
Fe1 O12 2.061900 1_565
Fe1 O1 2.073828 1_555
Fe1 O3 2.086070 1_665
Fe2 O5 2.035357 1_555
Fe2 O0 2.047625 1_555
Fe2 O2 2.056426 1_555
Fe2 O12 2.061083 1_455
Fe2 O1 2.073266 1_555
Fe2 O3 2.094188 1_555
Fe3 O0 1.910249 1_655
Fe3 O8 1.912297 1_555
Fe3 O1 1.948157 1_555
Fe3 O31 1.962834 1_554
Fe4 O17 1.901523 1_565
Fe4 O7 1.902126 1_555
Fe4 O9 1.945241 1_565
Fe4 O2 1.973682 1_555
Fe5 O4 1.927048 1_555
Fe5 O5 1.928960 1_555
Fe5 O13 1.956522 1_555
Fe5 O12 1.973454 1_555
Fe6 O11 1.960305 1_665
Fe6 O17 2.042154 1_565
Fe6 O6 2.076535 1_655
Fe6 O9 2.089338 1_665
Fe6 O13 2.091815 1_555
Fe6 O14 2.113402 1_555
Fe7 O11 1.966626 1_555
Fe7 O7 2.047060 1_555
Fe7 O9 2.067573 1_555
Fe7 O15 2.085061 1_555
Fe7 O13 2.098449 1_555
Fe7 O14 2.099670 1_555
Fe8 O10 1.997896 1_555
Fe8 O19 2.012629 1_565
Fe8 O20 2.016247 1_455
Fe8 O23 2.087390 1_565
Fe8 O22 2.126654 1_565
Fe8 O16 2.129833 1_555
Fe9 O19 2.001415 1_665
Fe9 O18 2.002814 1_555
Fe9 O15 2.037719 1_555
Fe9 O6 2.045612 1_655
Fe9 O10 2.055817 1_655
Fe9 O14 2.135354 1_555
Fe10 O19 1.993775 1_665
Fe10 O18 1.998247 1_555
Fe10 O20 2.015254 1_555
Fe10 O23 2.100871 1_565
Fe10 O16 2.114520 1_555
Fe10 O26 2.130027 1_565
Fe11 O6 1.922880 1_545
Fe11 O15 1.923371 1_555
Fe11 O23 1.964120 1_555
Fe11 O14 1.971625 1_545
Fe12 O22 1.939504 1_555
Fe12 O26 1.946679 1_455
Fe12 O16 1.947111 1_555
Fe12 O24 1.965892 1_555
Fe13 O28 1.986706 1_565
Fe13 O30 1.996270 1_565
Fe13 O25 2.054784 1_555
Fe13 O21 2.059580 1_555
Fe13 O24 2.075998 1_555
Fe13 O31 2.121707 1_565
Fe14 O10 1.992207 1_655
Fe14 O18 2.010417 1_555
Fe14 O20 2.022507 1_555
Fe14 O23 2.093884 1_555
Fe14 O22 2.116934 1_555
Fe14 O26 2.121611 1_555
Fe15 O28 1.982211 1_555
Fe15 O29 2.003629 1_555
Fe15 O27 2.072322 1_555
Fe15 O25 2.090046 1_555
Fe15 O24 2.093242 1_555
Fe15 O31 2.106320 1_555
Fe16 O29 2.017363 1_555
Fe16 O30 2.018218 1_555
Fe16 O28 2.025164 1_555
Fe16 O26 2.086733 1_555
Fe16 O16 2.093214 1_545
Fe16 O22 2.096614 1_555
Fe17 O30 1.987091 1_555
Fe17 O29 1.997488 1_555
Fe17 O27 2.066291 1_655
Fe17 O21 2.097087 1_655
Fe17 O31 2.100000 1_555
Fe17 O24 2.103872 1_655
O0 Zn0 2.090281 1_555
O0 Zn1 2.122058 1_555
O1 Zn0 2.134006 1_555
O2 Zn1 2.127207 1_555
O3 Zn1 2.161632 1_545
O4 Zn1 2.108779 1_655
O4 Zn2 2.124642 1_665
O5 Zn1 2.106805 1_545
O5 Zn2 2.121260 1_555
O6 Zn3 2.140116 1_455
O7 Zn2 2.100546 1_555
O7 Zn3 2.135507 1_455
O8 Zn0 2.090969 1_545
O8 Zn1 2.123542 1_545
O9 Zn2 2.158048 1_555
O11 Zn3 2.051331 1_455
O12 Zn2 2.183332 1_655
O13 Zn3 2.152947 1_555
O15 Zn3 2.157429 1_555
O17 Zn2 2.096243 1_655
O17 Zn3 2.130620 1_555
O21 Zn0 2.151689 1_556
O25 Zn0 2.147057 1_556
O27 Zn0 2.137468 1_556
