# generated using pymatgen
data_Li4Co2(PO4)3
_symmetry_space_group_name_H-M   'P 1'
_cell_length_a   9.10950444
_cell_length_b   8.51903407
_cell_length_c   8.38508374
_cell_angle_alpha   59.11149171
_cell_angle_beta   63.44315895
_cell_angle_gamma   62.54398810
_symmetry_Int_Tables_number   1
_chemical_formula_structural   Li4Co2(PO4)3
_chemical_formula_sum   'Li8 Co4 P6 O24'
_cell_volume   476.23980525
_cell_formula_units_Z   2
loop_
 _symmetry_equiv_pos_site_id
 _symmetry_equiv_pos_as_xyz
  1  'x, y, z'
loop_
 _atom_site_type_symbol
 _atom_site_label
 _atom_site_symmetry_multiplicity
 _atom_site_fract_x
 _atom_site_fract_y
 _atom_site_fract_z
 _atom_site_occupancy
  Li  Li0  1  0.14524200  0.66431900  0.27398800  1
  Li  Li1  1  0.13859400  0.27056000  0.91922600  1
  Li  Li2  1  0.10267200  0.92887300  0.69091800  1
  Li  Li3  1  0.58353800  0.21299800  0.46579000  1
  Li  Li4  1  0.41646200  0.78700200  0.53421000  1
  Li  Li5  1  0.89732800  0.07112700  0.30908200  1
  Li  Li6  1  0.86140600  0.72944000  0.08077400  1
  Li  Li7  1  0.85475800  0.33568100  0.72601200  1
  Co  Co0  1  0.04016700  0.64789200  0.66060300  1
  Co  Co1  1  0.55935300  0.14477400  0.14174500  1
  Co  Co2  1  0.44064700  0.85522600  0.85825500  1
  Co  Co3  1  0.95983300  0.35210800  0.33939700  1
  P  P0  1  0.23923800  0.24477900  0.55313700  1
  P  P1  1  0.25325800  0.95250800  0.25576800  1
  P  P2  1  0.25196700  0.54454800  0.95394700  1
  P  P3  1  0.74803300  0.45545200  0.04605300  1
  P  P4  1  0.74674200  0.04749200  0.74423200  1
  P  P5  1  0.76076200  0.75522100  0.44686300  1
  O  O0  1  0.10645200  0.14858400  0.20258500  1
  O  O1  1  0.10377100  0.55601100  0.14243200  1
  O  O2  1  0.08988800  0.20469400  0.54754700  1
  O  O3  1  0.19261200  0.45858600  0.51204700  1
  O  O4  1  0.25768200  0.11889300  0.76186800  1
  O  O5  1  0.41072900  0.18475700  0.41065900  1
  O  O6  1  0.27184100  0.84919400  0.13845400  1
  O  O7  1  0.20013000  0.83014100  0.47828800  1
  O  O8  1  0.19930600  0.49300400  0.83857900  1
  O  O9  1  0.57777900  0.59873300  0.00049700  1
  O  O10  1  0.71687100  0.25443200  0.17482900  1
  O  O11  1  0.57630400  0.02432400  0.77993800  1
  O  O12  1  0.42369600  0.97567600  0.22006200  1
  O  O13  1  0.28312900  0.74556800  0.82517100  1
  O  O14  1  0.42222100  0.40126700  0.99950300  1
  O  O15  1  0.80069400  0.50699600  0.16142100  1
  O  O16  1  0.79987000  0.16985900  0.52171200  1
  O  O17  1  0.72815900  0.15080600  0.86154600  1
  O  O18  1  0.58927100  0.81524300  0.58934100  1
  O  O19  1  0.74231800  0.88110700  0.23813200  1
  O  O20  1  0.80738800  0.54141400  0.48795300  1
  O  O21  1  0.91011200  0.79530600  0.45245300  1
  O  O22  1  0.89622900  0.44398900  0.85756800  1
  O  O23  1  0.89354800  0.85141600  0.79741500  1
loop_
_geom_bond_atom_site_label_1
_geom_bond_atom_site_label_2
_geom_bond_distance
_geom_bond_site_symmetry_2
Li0 O3 1.929584 1_555
Li0 O6 1.940944 1_555
Li0 O1 1.987459 1_555
Li0 O21 2.171816 1_455
Li1 O8 1.915858 1_555
Li1 O4 1.940416 1_555
Li1 O0 1.983525 1_556
Li1 O22 2.133793 1_455
Li2 O13 1.972497 1_555
Li2 O23 1.973566 1_455
Li2 O2 1.988102 1_565
Li2 O7 2.027366 1_555
Li3 O5 1.965666 1_555
Li3 O16 2.054267 1_555
Li3 O10 2.100855 1_555
Li3 O11 2.263166 1_555
Li4 O18 1.965666 1_555
Li4 O7 2.054267 1_555
Li4 O13 2.100855 1_555
Li4 O12 2.263166 1_555
Li5 O10 1.972497 1_555
Li5 O0 1.973566 1_655
Li5 O21 1.988102 1_545
Li5 O16 2.027366 1_555
Li6 O15 1.915858 1_555
Li6 O19 1.940416 1_555
Li6 O23 1.983525 1_554
Li6 O1 2.133793 1_655
Li7 O20 1.929584 1_555
Li7 O17 1.940944 1_555
Li7 O22 1.987459 1_555
Li7 O2 2.171816 1_655
Co0 O8 2.053898 1_555
Co0 O21 2.062396 1_455
Co0 O7 2.127986 1_555
Co0 O3 2.128754 1_555
Co0 O23 2.154714 1_455
Co0 O22 2.163942 1_455
Co1 O14 1.974074 1_554
Co1 O12 1.994542 1_545
Co1 O19 2.089219 1_545
Co1 O17 2.146100 1_554
Co1 O5 2.160331 1_555
Co1 O10 2.206066 1_555
Co2 O9 1.974074 1_556
Co2 O11 1.994542 1_565
Co2 O4 2.089219 1_565
Co2 O6 2.146100 1_556
Co2 O18 2.160331 1_555
Co2 O13 2.206066 1_555
Co3 O15 2.053898 1_555
Co3 O2 2.062396 1_655
Co3 O16 2.127986 1_555
Co3 O20 2.128754 1_555
Co3 O0 2.154714 1_655
Co3 O1 2.163942 1_655
O0 P1 1.576712 1_545
O1 P2 1.568108 1_554
O2 P0 1.572150 1_555
O3 P0 1.545910 1_555
O4 P0 1.552815 1_555
O5 P0 1.533294 1_555
O6 P1 1.540642 1_555
O7 P1 1.569407 1_555
O8 P2 1.550508 1_555
O9 P3 1.531839 1_555
O10 P3 1.566776 1_555
O11 P4 1.531479 1_555
O12 P1 1.531479 1_555
O13 P2 1.566776 1_555
O14 P2 1.531839 1_555
O15 P3 1.550508 1_555
O16 P4 1.569407 1_555
O17 P4 1.540642 1_555
O18 P5 1.533294 1_555
O19 P5 1.552815 1_555
O20 P5 1.545910 1_555
O21 P5 1.572150 1_555
O22 P3 1.568108 1_556
O23 P4 1.576712 1_565
