# generated using pymatgen
data_Li4TiMn2Ni3(PO4)6
_symmetry_space_group_name_H-M   'P 1'
_cell_length_a   8.50646900
_cell_length_b   8.58803530
_cell_length_c   8.59847189
_cell_angle_alpha   61.75785907
_cell_angle_beta   62.09886416
_cell_angle_gamma   61.98712640
_symmetry_Int_Tables_number   1
_chemical_formula_structural   Li4TiMn2Ni3(PO4)6
_chemical_formula_sum   'Li4 Ti1 Mn2 Ni3 P6 O24'
_cell_volume   463.52234548
_cell_formula_units_Z   1
loop_
 _symmetry_equiv_pos_site_id
 _symmetry_equiv_pos_as_xyz
  1  'x, y, z'
loop_
 _atom_site_type_symbol
 _atom_site_label
 _atom_site_symmetry_multiplicity
 _atom_site_fract_x
 _atom_site_fract_y
 _atom_site_fract_z
 _atom_site_occupancy
  Li  Li0  1  0.25211000  0.64685800  0.84820000  1
  Li  Li1  1  0.70802200  0.35006000  0.15034400  1
  Li  Li2  1  0.35177800  0.14838200  0.70840900  1
  Li  Li3  1  0.14868600  0.70605900  0.35171000  1
  Ti  Ti0  1  0.14792100  0.14903900  0.15462700  1
  Mn  Mn0  1  0.98321400  0.00287800  0.99775800  1
  Mn  Mn1  1  0.51213500  0.49927900  0.49500900  1
  Ni  Ni0  1  0.85567500  0.85330200  0.85101100  1
  Ni  Ni1  1  0.64374000  0.64789800  0.64385500  1
  Ni  Ni2  1  0.35523300  0.34999100  0.35345700  1
  P  P0  1  0.75452200  0.04204100  0.45525900  1
  P  P1  1  0.44722500  0.75238300  0.04090700  1
  P  P2  1  0.05062000  0.45677500  0.75555600  1
  P  P3  1  0.95344700  0.55256800  0.25522800  1
  P  P4  1  0.55247000  0.25161100  0.95411100  1
  P  P5  1  0.25257800  0.95346800  0.55423600  1
  O  O0  1  0.88235300  0.49624800  0.70954600  1
  O  O1  1  0.69846100  0.88818400  0.47782900  1
  O  O2  1  0.94931700  0.73344500  0.08635900  1
  O  O3  1  0.44903900  0.70104000  0.89204700  1
  O  O4  1  0.01188100  0.38207000  0.19131100  1
  O  O5  1  0.76195700  0.55812100  0.40587000  1
  O  O6  1  0.74065200  0.09654800  0.92499700  1
  O  O7  1  0.53231200  0.41634600  0.77273500  1
  O  O8  1  0.82532700  0.00694500  0.60283500  1
  O  O9  1  0.40164500  0.75845500  0.56168800  1
  O  O10  1  0.90772100  0.08078900  0.25076200  1
  O  O11  1  0.60875800  0.81331700  0.98904800  1
  O  O12  1  0.38327400  0.18099000  0.01896000  1
  O  O13  1  0.09927900  0.92599200  0.74672600  1
  O  O14  1  0.59632600  0.23965900  0.43350600  1
  O  O15  1  0.18467400  0.01130600  0.38776600  1
  O  O16  1  0.43487200  0.59273500  0.23651400  1
  O  O17  1  0.24691800  0.90860100  0.08507800  1
  O  O18  1  0.24472900  0.42815800  0.59513700  1
  O  O19  1  0.03992500  0.60249500  0.81642300  1
  O  O20  1  0.52977700  0.31193700  0.10651500  1
  O  O21  1  0.07871900  0.25417000  0.91167200  1
  O  O22  1  0.31730000  0.10461000  0.52690600  1
  O  O23  1  0.10541300  0.52224600  0.32309500  1
loop_
_geom_bond_atom_site_label_1
_geom_bond_atom_site_label_2
_geom_bond_distance
_geom_bond_site_symmetry_2
Li0 O13 2.086314 1_555
Li0 O9 2.140917 1_555
Li0 O3 2.157352 1_555
Li0 O19 2.164178 1_555
Li0 O7 2.314554 1_555
Li0 O2 2.467042 1_456
Li1 O20 1.914692 1_555
Li1 O14 2.055770 1_555
Li1 O10 2.184473 1_555
Li1 O16 2.364897 1_555
Li2 O22 1.936521 1_555
Li2 O18 2.027560 1_555
Li2 O21 2.235260 1_555
Li2 O14 2.388598 1_555
Li3 O23 1.919941 1_555
Li3 O16 2.069970 1_555
Li3 O17 2.185931 1_555
Li3 O18 2.405345 1_555
Mn0 O6 2.113912 1_555
Mn0 O2 2.184145 1_546
Mn0 O13 2.193596 1_645
Mn0 O10 2.293284 1_556
Mn0 O21 2.331871 1_655
Mn0 O17 2.355011 1_646
Mn1 O5 2.115819 1_555
Mn1 O7 2.213251 1_555
Mn1 O9 2.214644 1_555
Mn1 O14 2.241719 1_555
Mn1 O16 2.280291 1_555
Mn1 O18 2.294130 1_555
Ni0 O8 1.972865 1_565
Ni0 O11 1.974066 1_555
Ni0 O19 2.045305 1_655
Ni0 O13 2.105746 1_655
Ni0 O6 2.116882 1_565
Ni0 O2 2.134529 1_556
Ni1 O1 2.001348 1_555
Ni1 O0 2.007180 1_555
Ni1 O3 2.099864 1_555
Ni1 O9 2.128805 1_555
Ni1 O5 2.152221 1_555
Ni1 O7 2.186974 1_555
Ni2 O23 1.993309 1_555
Ni2 O22 1.995797 1_555
Ni2 O20 2.017478 1_555
Ni2 O14 2.110940 1_555
Ni2 O16 2.126309 1_555
Ni2 O18 2.133537 1_555
O0 P2 1.505812 1_655
O1 P0 1.507842 1_565
O2 P3 1.544156 1_555
O3 P1 1.530437 1_556
O4 P3 1.585995 1_455
O4 Ti0 1.877267 1_555
O5 P3 1.531086 1_555
O6 P4 1.528580 1_555
O7 P4 1.548362 1_555
O8 P0 1.498861 1_555
O9 P5 1.548072 1_555
O10 P0 1.615510 1_555
O10 Ti0 2.070617 1_655
O11 P1 1.497309 1_556
O12 P4 1.580835 1_554
O12 Ti0 1.863214 1_555
O13 P5 1.547597 1_555
O14 P0 1.586199 1_555
O15 P5 1.568647 1_545
O15 Ti0 1.873646 1_555
O16 P1 1.583423 1_555
O17 P1 1.605216 1_555
O17 Ti0 2.096303 1_565
O18 P2 1.580350 1_555
O19 P2 1.522056 1_555
O20 P4 1.527993 1_554
O21 P2 1.608020 1_555
O21 Ti0 2.095812 1_556
O22 P5 1.518120 1_545
O23 P3 1.524919 1_455
