# generated using pymatgen
data_LiFeBO3
_symmetry_space_group_name_H-M   'P 1'
_cell_length_a   3.12563702
_cell_length_b   8.35246410
_cell_length_c   14.45422397
_cell_angle_alpha   89.94134414
_cell_angle_beta   89.98881058
_cell_angle_gamma   90.00396418
_symmetry_Int_Tables_number   1
_chemical_formula_structural   LiFeBO3
_chemical_formula_sum   'Li6 Fe6 B6 O18'
_cell_volume   377.35290869
_cell_formula_units_Z   6
loop_
 _symmetry_equiv_pos_site_id
 _symmetry_equiv_pos_as_xyz
  1  'x, y, z'
loop_
 _atom_site_type_symbol
 _atom_site_label
 _atom_site_symmetry_multiplicity
 _atom_site_fract_x
 _atom_site_fract_y
 _atom_site_fract_z
 _atom_site_occupancy
  Li  Li0  1  0.00007700  0.18909500  0.17905700  1
  Li  Li1  1  0.99999400  0.68913200  0.67907200  1
  Li  Li2  1  0.99986300  0.63664100  0.00525800  1
  Li  Li3  1  0.00010300  0.13669300  0.50526800  1
  Li  Li4  1  0.00003300  0.67354900  0.31592200  1
  Li  Li5  1  0.99992500  0.17353700  0.81589800  1
  Fe  Fe0  1  0.50002200  0.31204800  0.99457200  1
  Fe  Fe1  1  0.49991200  0.35174600  0.65875900  1
  Fe  Fe2  1  0.50009000  0.33575900  0.34674000  1
  Fe  Fe3  1  0.50004100  0.81201800  0.49462800  1
  Fe  Fe4  1  0.49980600  0.85181100  0.15875100  1
  Fe  Fe5  1  0.49996000  0.83570400  0.84669500  1
  B  B0  1  0.49991300  0.00024600  0.33338000  1
  B  B1  1  0.49995800  0.50025900  0.83340500  1
  B  B2  1  0.99998300  0.99969000  0.99985700  1
  B  B3  1  0.00003000  0.49977400  0.49986900  1
  B  B4  1  0.49964000  0.50025100  0.16666300  1
  B  B5  1  0.50060700  0.00027700  0.66669400  1
  O  O0  1  0.00000800  0.64986300  0.45745800  1
  O  O1  1  0.99999300  0.14974200  0.95743100  1
  O  O2  1  0.99992200  0.98795900  0.09606400  1
  O  O3  1  0.00005400  0.48820900  0.59606100  1
  O  O4  1  0.00004700  0.36125400  0.44611700  1
  O  O5  1  0.99999200  0.86121700  0.94608300  1
  O  O6  1  0.50006700  0.84761100  0.29628900  1
  O  O7  1  0.50005800  0.34762900  0.79631600  1
  O  O8  1  0.49999800  0.02092100  0.42840200  1
  O  O9  1  0.49997400  0.52093600  0.92841300  1
  O  O10  1  0.49965700  0.13233600  0.27549300  1
  O  O11  1  0.49966900  0.63233800  0.77550000  1
  O  O12  1  0.50034200  0.34667700  0.12938500  1
  O  O13  1  0.49999900  0.84669900  0.62943700  1
  O  O14  1  0.50021100  0.52106000  0.26219400  1
  O  O15  1  0.49996200  0.02124200  0.76222300  1
  O  O16  1  0.49796700  0.63301700  0.10830200  1
  O  O17  1  0.50212200  0.13306300  0.60834100  1
loop_
_geom_bond_atom_site_label_1
_geom_bond_atom_site_label_2
_geom_bond_distance
_geom_bond_site_symmetry_2
Li0 O2 2.065309 1_445
Li0 O10 2.146073 1_555
Li0 O10 2.147540 1_455
Li0 O12 2.164823 1_455
Li0 O12 2.165685 1_555
Li1 O3 2.064013 1_655
Li1 O11 2.146278 1_655
Li1 O11 2.147313 1_555
Li1 O13 2.164845 1_655
Li1 O13 2.165157 1_555
Li2 O5 2.060774 1_554
Li2 O9 2.147484 1_554
Li2 O9 2.147770 1_654
Li2 O16 2.155000 1_655
Li2 O16 2.163155 1_555
Li3 O4 2.060516 1_555
Li3 O8 2.147689 1_555
Li3 O8 2.148384 1_455
Li3 O17 2.154589 1_455
Li3 O17 2.164148 1_555
Li4 O0 2.055135 1_555
Li4 O6 2.153045 1_555
Li4 O6 2.153117 1_455
Li4 O14 2.160601 1_455
Li4 O14 2.161314 1_555
Li5 O1 2.055179 1_555
Li5 O7 2.152965 1_555
Li5 O7 2.153342 1_655
Li5 O15 2.159688 1_555
Li5 O15 2.159764 1_655
Fe0 O12 1.970260 1_556
Fe0 O9 1.988751 1_555
Fe0 O1 2.137657 1_555
Fe0 O1 2.137805 1_455
Fe1 O17 1.967259 1_555
Fe1 O7 1.988542 1_555
Fe1 O3 2.135448 1_555
Fe1 O3 2.135723 1_655
Fe2 O14 1.971031 1_555
Fe2 O10 1.987712 1_555
Fe2 O4 2.133368 1_555
Fe2 O4 2.133560 1_655
Fe3 O13 1.970266 1_555
Fe3 O8 1.989326 1_565
Fe3 O0 2.136953 1_655
Fe3 O0 2.137120 1_555
Fe4 O16 1.968283 1_555
Fe4 O6 1.988279 1_555
Fe4 O2 2.134038 1_455
Fe4 O2 2.134195 1_555
Fe5 O15 1.971923 1_565
Fe5 O11 1.986914 1_555
Fe5 O5 2.133318 1_455
Fe5 O5 2.133854 1_555
B0 O6 1.383525 1_545
B0 O10 1.383986 1_555
B0 O8 1.384458 1_555
B1 O7 1.383475 1_555
B1 O11 1.384070 1_555
B1 O9 1.384259 1_555
B2 O2 1.393945 1_556
B2 O5 1.394159 1_555
B2 O1 1.394724 1_565
B3 O3 1.393634 1_555
B3 O4 1.394307 1_555
B3 O0 1.394906 1_555
B4 O12 1.391807 1_555
B4 O14 1.391900 1_555
B4 O16 1.392632 1_555
B5 O13 1.391719 1_545
B5 O15 1.392036 1_555
B5 O17 1.392691 1_555
