# generated using pymatgen
data_FeCu(PO4)2
_symmetry_space_group_name_H-M   'P 1'
_cell_length_a   8.50202198
_cell_length_b   8.58714781
_cell_length_c   8.58714827
_cell_angle_alpha   59.99999500
_cell_angle_beta   59.66823832
_cell_angle_gamma   59.66822738
_symmetry_Int_Tables_number   1
_chemical_formula_structural   FeCu(PO4)2
_chemical_formula_sum   'Fe3 Cu3 P6 O24'
_cell_volume   441.07147370
_cell_formula_units_Z   3
loop_
 _symmetry_equiv_pos_site_id
 _symmetry_equiv_pos_as_xyz
  1  'x, y, z'
loop_
 _atom_site_type_symbol
 _atom_site_label
 _atom_site_symmetry_multiplicity
 _atom_site_fract_x
 _atom_site_fract_y
 _atom_site_fract_z
 _atom_site_occupancy
  Fe  Fe0  1  0.06636200  0.64454600  0.64454600  1
  Fe  Fe1  1  0.42995300  0.85668200  0.85668200  1
  Fe  Fe2  1  0.93149600  0.35616800  0.35616800  1
  Cu  Cu0  1  0.99757300  0.00080900  0.00080900  1
  Cu  Cu1  1  0.56941900  0.14352700  0.14352700  1
  Cu  Cu2  1  0.49848700  0.50050400  0.50050400  1
  P  P0  1  0.25039500  0.24963600  0.54390800  1
  P  P1  1  0.25039500  0.95606100  0.24963600  1
  P  P2  1  0.25039500  0.54390800  0.95606100  1
  P  P3  1  0.74824700  0.45641100  0.04507200  1
  P  P4  1  0.74824700  0.04507200  0.75027100  1
  P  P5  1  0.74824700  0.75027100  0.45641100  1
  O  O0  1  0.06777500  0.11365200  0.31466300  1
  O  O1  1  0.06777500  0.50391000  0.11365200  1
  O  O2  1  0.06777500  0.31466300  0.50391000  1
  O  O3  1  0.22625200  0.08744200  0.74277000  1
  O  O4  1  0.44027900  0.18794700  0.38816000  1
  O  O5  1  0.26975700  0.41182200  0.56194600  1
  O  O6  1  0.22625200  0.94353600  0.08744200  1
  O  O7  1  0.26975700  0.75647500  0.41182200  1
  O  O8  1  0.56509400  0.61380900  0.00617800  1
  O  O9  1  0.26975700  0.56194600  0.75647500  1
  O  O10  1  0.77576400  0.25824000  0.05240100  1
  O  O11  1  0.56509400  0.00617800  0.81491900  1
  O  O12  1  0.44027900  0.98361500  0.18794700  1
  O  O13  1  0.22625200  0.74277000  0.94353600  1
  O  O14  1  0.72641800  0.44096500  0.24392600  1
  O  O15  1  0.44027900  0.38816000  0.98361500  1
  O  O16  1  0.72641800  0.24392600  0.58868900  1
  O  O17  1  0.77576400  0.05240100  0.91359500  1
  O  O18  1  0.72641800  0.58868900  0.44096500  1
  O  O19  1  0.56509400  0.81491900  0.61380900  1
  O  O20  1  0.77576400  0.91359500  0.25824000  1
  O  O21  1  0.93225700  0.68230200  0.49666800  1
  O  O22  1  0.93225700  0.49666800  0.88877200  1
  O  O23  1  0.93225700  0.88877200  0.68230200  1
loop_
_geom_bond_atom_site_label_1
_geom_bond_atom_site_label_2
_geom_bond_distance
_geom_bond_site_symmetry_2
Fe0 O23 1.922198 1_455
Fe0 O22 1.922202 1_455
Fe0 O21 1.922206 1_455
Fe0 O5 2.043385 1_555
Fe0 O9 2.043385 1_555
Fe0 O7 2.043386 1_555
Fe1 O19 1.926114 1_555
Fe1 O8 1.926117 1_556
Fe1 O11 1.926121 1_565
Fe1 O13 2.046789 1_555
Fe1 O3 2.046792 1_565
Fe1 O6 2.046796 1_556
Fe2 O0 1.922098 1_655
Fe2 O2 1.922098 1_655
Fe2 O1 1.922098 1_655
Fe2 O18 2.052418 1_555
Fe2 O16 2.052425 1_555
Fe2 O14 2.052430 1_555
Cu0 O10 2.136429 1_555
Cu0 O17 2.136429 1_554
Cu0 O20 2.136430 1_545
Cu0 O13 2.169002 1_644
Cu0 O6 2.169002 1_645
Cu0 O3 2.169002 1_654
Cu1 O12 1.952599 1_545
Cu1 O15 1.952602 1_554
Cu1 O4 1.952606 1_555
Cu1 O20 2.061184 1_545
Cu1 O10 2.061184 1_555
Cu1 O17 2.061184 1_554
Cu2 O18 2.164370 1_555
Cu2 O16 2.164373 1_555
Cu2 O14 2.164376 1_555
Cu2 O5 2.167412 1_555
Cu2 O7 2.167415 1_555
Cu2 O9 2.167418 1_555
O0 P1 1.520404 1_545
O1 P2 1.520404 1_554
O2 P0 1.520404 1_555
O3 P0 1.566651 1_555
O4 P0 1.529567 1_555
O5 P0 1.569644 1_555
O6 P1 1.566652 1_555
O7 P1 1.569644 1_555
O8 P3 1.520287 1_555
O9 P2 1.569644 1_555
O10 P3 1.568510 1_555
O11 P4 1.520289 1_555
O12 P1 1.529571 1_555
O13 P2 1.566651 1_555
O14 P3 1.564028 1_555
O15 P2 1.529569 1_555
O16 P4 1.564038 1_555
O17 P4 1.568502 1_555
O18 P5 1.564053 1_555
O19 P5 1.520284 1_555
O20 P5 1.568507 1_555
O21 P5 1.526402 1_555
O22 P3 1.526407 1_556
O23 P4 1.526412 1_565
