# generated using pymatgen
data_Fe3Cu2Sb(PO4)6
_symmetry_space_group_name_H-M   'P 1'
_cell_length_a   8.62893180
_cell_length_b   8.62893117
_cell_length_c   8.62893122
_cell_angle_alpha   60.11517011
_cell_angle_beta   60.11517252
_cell_angle_gamma   60.11517279
_symmetry_Int_Tables_number   1
_chemical_formula_structural   Fe3Cu2Sb(PO4)6
_chemical_formula_sum   'Fe3 Cu2 Sb1 P6 O24'
_cell_volume   455.49938294
_cell_formula_units_Z   1
loop_
 _symmetry_equiv_pos_site_id
 _symmetry_equiv_pos_as_xyz
  1  'x, y, z'
loop_
 _atom_site_type_symbol
 _atom_site_label
 _atom_site_symmetry_multiplicity
 _atom_site_fract_x
 _atom_site_fract_y
 _atom_site_fract_z
 _atom_site_occupancy
  Fe  Fe0  1  0.14499800  0.14499800  0.14499800  1
  Fe  Fe1  1  0.35502800  0.35502800  0.35502800  1
  Fe  Fe2  1  0.64358600  0.64358600  0.64358600  1
  Cu  Cu0  1  0.00709400  0.00709400  0.00709400  1
  Cu  Cu1  1  0.49995500  0.49995500  0.49995500  1
  Sb  Sb0  1  0.85703800  0.85703800  0.85703800  1
  P  P0  1  0.04587000  0.74669900  0.45372400  1
  P  P1  1  0.45372400  0.04587000  0.74669900  1
  P  P2  1  0.74669900  0.45372400  0.04587000  1
  P  P3  1  0.25267700  0.53910400  0.95502700  1
  P  P4  1  0.53910400  0.95502700  0.25267700  1
  P  P5  1  0.95502700  0.25267700  0.53910400  1
  O  O0  1  0.11389800  0.30542100  0.50904600  1
  O  O1  1  0.30542100  0.50904600  0.11389800  1
  O  O2  1  0.05963000  0.91325000  0.26353100  1
  O  O3  1  0.50904600  0.11389800  0.30542100  1
  O  O4  1  0.01198000  0.80754100  0.61537800  1
  O  O5  1  0.23884800  0.58422400  0.44390800  1
  O  O6  1  0.26353100  0.05963000  0.91325000  1
  O  O7  1  0.44390800  0.23884800  0.58422400  1
  O  O8  1  0.18645400  0.38612200  0.99336900  1
  O  O9  1  0.58422400  0.44390800  0.23884800  1
  O  O10  1  0.08324600  0.73928200  0.94063000  1
  O  O11  1  0.38612200  0.99336900  0.18645400  1
  O  O12  1  0.61537800  0.01198000  0.80754100  1
  O  O13  1  0.91325000  0.26353100  0.05963000  1
  O  O14  1  0.41152300  0.56072400  0.75905700  1
  O  O15  1  0.80754100  0.61537800  0.01198000  1
  O  O16  1  0.56072400  0.75905700  0.41152300  1
  O  O17  1  0.73928200  0.94063000  0.08324600  1
  O  O18  1  0.75905700  0.41152300  0.56072400  1
  O  O19  1  0.99336900  0.18645400  0.38612200  1
  O  O20  1  0.49884800  0.88427200  0.68902000  1
  O  O21  1  0.94063000  0.08324600  0.73928200  1
  O  O22  1  0.68902000  0.49884800  0.88427200  1
  O  O23  1  0.88427200  0.68902000  0.49884800  1
loop_
_geom_bond_atom_site_label_1
_geom_bond_atom_site_label_2
_geom_bond_distance
_geom_bond_site_symmetry_2
Fe0 O8 1.931684 1_554
Fe0 O19 1.931684 1_455
Fe0 O11 1.931684 1_545
Fe0 O2 2.065581 1_545
Fe0 O6 2.065581 1_554
Fe0 O13 2.065581 1_455
Fe1 O1 1.960561 1_555
Fe1 O3 1.960561 1_555
Fe1 O0 1.960561 1_555
Fe1 O7 2.067397 1_555
Fe1 O5 2.067397 1_555
Fe1 O9 2.067397 1_555
Fe2 O22 1.940496 1_555
Fe2 O20 1.940496 1_555
Fe2 O23 1.940496 1_555
Fe2 O16 2.059715 1_555
Fe2 O18 2.059715 1_555
Fe2 O14 2.059715 1_555
Cu0 O2 2.146119 1_545
Cu0 O13 2.146119 1_455
Cu0 O6 2.146119 1_554
Cu0 O10 2.352244 1_544
Cu0 O21 2.352244 1_454
Cu0 O17 2.352244 1_445
Cu1 O16 2.219316 1_555
Cu1 O14 2.219316 1_555
Cu1 O18 2.219316 1_555
Cu1 O7 2.223010 1_555
Cu1 O9 2.223010 1_555
Cu1 O5 2.223010 1_555
O0 P5 1.517739 1_455
O1 P3 1.517739 1_554
O2 P0 1.548678 1_555
O3 P4 1.517739 1_545
O4 P0 1.573905 1_555
O4 Sb0 1.964310 1_455
O5 P0 1.548208 1_555
O6 P1 1.548678 1_555
O7 P1 1.548208 1_555
O8 P3 1.518771 1_555
O9 P2 1.548208 1_555
O10 P3 1.608458 1_555
O10 Sb0 2.014698 1_455
O11 P4 1.518771 1_555
O12 P1 1.573905 1_555
O12 Sb0 1.964310 1_545
O13 P2 1.548678 1_555
O14 P3 1.550408 1_555
O15 P2 1.573905 1_555
O15 Sb0 1.964310 1_554
O16 P4 1.550407 1_555
O17 P4 1.608458 1_555
O17 Sb0 2.014698 1_554
O18 P5 1.550408 1_555
O19 P5 1.518771 1_555
O20 P1 1.516953 1_565
O21 P5 1.608458 1_555
O21 Sb0 2.014698 1_545
O22 P2 1.516953 1_556
O23 P0 1.516953 1_655
