# generated using pymatgen
data_Na4FeO5
_symmetry_space_group_name_H-M   'P 1'
_cell_length_a   4.57103400
_cell_length_b   7.45686071
_cell_length_c   14.89018041
_cell_angle_alpha   89.95002851
_cell_angle_beta   89.99996438
_cell_angle_gamma   89.99999231
_symmetry_Int_Tables_number   1
_chemical_formula_structural   Na4FeO5
_chemical_formula_sum   'Na16 Fe4 O20'
_cell_volume   507.54000203
_cell_formula_units_Z   4
loop_
 _symmetry_equiv_pos_site_id
 _symmetry_equiv_pos_as_xyz
  1  'x, y, z'
loop_
 _atom_site_type_symbol
 _atom_site_label
 _atom_site_symmetry_multiplicity
 _atom_site_fract_x
 _atom_site_fract_y
 _atom_site_fract_z
 _atom_site_occupancy
  Na  Na0  1  0.50000100  0.29173100  0.05283400  1
  Na  Na1  1  0.50000200  0.29155100  0.55225300  1
  Na  Na2  1  0.00000200  0.79103300  0.30224200  1
  Na  Na3  1  0.99999200  0.79141600  0.80273600  1
  Na  Na4  1  0.99999400  0.39411700  0.89561400  1
  Na  Na5  1  0.99999800  0.39446400  0.39535500  1
  Na  Na6  1  0.50000200  0.89392800  0.14595800  1
  Na  Na7  1  0.49999900  0.89427200  0.64580600  1
  Na  Na8  1  0.99999800  0.60550000  0.10442300  1
  Na  Na9  1  0.99999300  0.60602600  0.60408400  1
  Na  Na10  1  0.49999900  0.10558400  0.35430400  1
  Na  Na11  1  0.50000300  0.10483900  0.85440300  1
  Na  Na12  1  0.50000000  0.70848700  0.94770800  1
  Na  Na13  1  0.50000100  0.70870800  0.44730300  1
  Na  Na14  1  0.99999900  0.20923900  0.19716900  1
  Na  Na15  1  0.99999700  0.20826400  0.69734000  1
  Fe  Fe0  1  0.00008900  0.00021400  0.50029000  1
  Fe  Fe1  1  0.49967100  0.50068200  0.74981800  1
  Fe  Fe2  1  0.00020400  0.00022200  0.00015600  1
  Fe  Fe3  1  0.49993500  0.50000200  0.24984900  1
  O  O0  1  0.49979500  0.00015000  0.00034200  1
  O  O1  1  0.49991300  0.00011300  0.50030000  1
  O  O2  1  0.00008300  0.49997400  0.24978600  1
  O  O3  1  0.00030000  0.50020100  0.74980100  1
  O  O4  1  0.99999400  0.23830300  0.03299300  1
  O  O5  1  0.99999800  0.23846800  0.53327400  1
  O  O6  1  0.50000400  0.73811500  0.28315600  1
  O  O7  1  0.50001300  0.73898300  0.78385800  1
  O  O8  1  0.50001300  0.43309800  0.86944500  1
  O  O9  1  0.50000500  0.43343600  0.36923700  1
  O  O10  1  0.99999300  0.93340800  0.11920600  1
  O  O11  1  0.99999500  0.93311400  0.61950400  1
  O  O12  1  0.50000600  0.56627600  0.13054600  1
  O  O13  1  0.50001100  0.56661800  0.63011600  1
  O  O14  1  0.99999600  0.06608400  0.38087400  1
  O  O15  1  0.99999400  0.06605400  0.88074500  1
  O  O16  1  0.99999400  0.76223500  0.96671800  1
  O  O17  1  0.99999500  0.76220000  0.46667000  1
  O  O18  1  0.50000500  0.26172100  0.21672500  1
  O  O19  1  0.50001300  0.26117400  0.71706200  1
loop_
_geom_bond_atom_site_label_1
_geom_bond_atom_site_label_2
_geom_bond_distance
_geom_bond_site_symmetry_2
Na0 O0 2.311142 1_555
Na0 O4 2.338729 1_555
Na0 O4 2.338792 1_455
Na0 O12 2.352515 1_555
Na0 O18 2.450411 1_555
Na0 O8 2.926246 1_554
Na1 O1 2.307429 1_555
Na1 O5 2.336717 1_555
Na1 O5 2.336753 1_455
Na1 O13 2.357011 1_555
Na1 O19 2.464271 1_555
Na1 O9 2.922459 1_555
Na2 O2 2.307297 1_555
Na2 O6 2.336711 1_455
Na2 O6 2.336729 1_555
Na2 O14 2.362570 1_465
Na2 O17 2.457598 1_455
Na2 O10 2.924058 1_455
Na3 O3 2.310821 1_655
Na3 O7 2.335643 1_555
Na3 O7 2.335830 1_655
Na3 O15 2.355300 1_565
Na3 O16 2.451209 1_555
Na3 O11 2.924954 1_555
Na4 O3 2.310152 1_655
Na4 O8 2.336519 1_555
Na4 O8 2.336689 1_655
Na4 O4 2.351659 1_556
Na4 O15 2.456511 1_555
Na4 O16 2.942970 1_555
Na5 O2 2.305278 1_655
Na5 O9 2.336438 1_555
Na5 O9 2.336500 1_655
Na5 O5 2.359321 1_555
Na5 O14 2.458347 1_555
Na5 O17 2.941448 1_555
Na6 O0 2.307748 1_565
Na6 O10 2.338491 1_555
Na6 O10 2.338572 1_455
Na6 O6 2.349312 1_555
Na6 O12 2.454208 1_555
Na6 O18 2.938902 1_565
Na7 O1 2.305238 1_565
Na7 O11 2.336788 1_555
Na7 O11 2.336824 1_455
Na7 O7 2.358455 1_555
Na7 O13 2.454617 1_555
Na7 O19 2.935331 1_565
Na8 O2 2.302435 1_655
Na8 O12 2.336680 1_555
Na8 O12 2.336752 1_655
Na8 O16 2.359270 1_554
Na8 O10 2.455244 1_555
Na8 O4 2.938321 1_555
Na9 O3 2.308150 1_655
Na9 O13 2.336582 1_555
Na9 O13 2.336743 1_655
Na9 O17 2.353437 1_555
Na9 O11 2.450033 1_555
Na9 O5 2.937497 1_555
Na10 O1 2.311156 1_555
Na10 O14 2.338077 1_555
Na10 O14 2.338104 1_455
Na10 O18 2.355436 1_555
Na10 O9 2.455031 1_555
Na10 O6 2.938692 1_545
Na11 O0 2.308385 1_556
Na11 O15 2.336814 1_555
Na11 O15 2.336894 1_455
Na11 O19 2.353086 1_555
Na11 O8 2.458202 1_555
Na11 O7 2.924232 1_545
Na12 O0 2.312435 1_566
Na12 O16 2.337610 1_555
Na12 O16 2.337663 1_455
Na12 O8 2.362040 1_555
Na12 O7 2.450134 1_555
Na12 O12 2.920868 1_556
Na13 O1 2.312468 1_565
Na13 O17 2.337934 1_555
Na13 O17 2.337987 1_455
Na13 O9 2.359832 1_555
Na13 O6 2.453805 1_555
Na13 O13 2.920194 1_555
Na14 O2 2.305839 1_655
Na14 O18 2.337009 1_555
Na14 O18 2.337063 1_655
Na14 O10 2.362706 1_545
Na14 O4 2.454010 1_555
Na14 O14 2.935447 1_555
Na15 O3 2.313484 1_655
Na15 O19 2.337810 1_555
Na15 O19 2.337954 1_655
Na15 O11 2.357352 1_545
Na15 O5 2.453137 1_555
Na15 O15 2.928733 1_555
Fe0 O5 1.843676 1_455
Fe0 O11 1.843868 1_445
Fe0 O14 1.844307 1_455
Fe0 O17 1.844507 1_445
Fe0 O1 2.284713 1_555
Fe0 O1 2.286322 1_455
Fe1 O7 1.848278 1_555
Fe1 O13 1.848543 1_555
Fe1 O8 1.850765 1_555
Fe1 O19 1.851791 1_555
Fe1 O3 2.282645 1_555
Fe1 O3 2.288395 1_655
Fe2 O10 1.840942 1_445
Fe2 O4 1.841849 1_455
Fe2 O16 1.843577 1_444
Fe2 O15 1.844160 1_454
Fe2 O0 2.283649 1_555
Fe2 O0 2.287388 1_455
Fe3 O12 1.843488 1_555
Fe3 O6 1.843954 1_555
Fe3 O18 1.844428 1_555
Fe3 O9 1.845290 1_555
Fe3 O2 2.284841 1_555
Fe3 O2 2.286194 1_655
