# generated using pymatgen
data_Li9Cr5(SiO8)2
_symmetry_space_group_name_H-M   'P 1'
_cell_length_a   11.54926400
_cell_length_b   5.05063000
_cell_length_c   5.06861850
_cell_angle_alpha   70.71546612
_cell_angle_beta   90.00000000
_cell_angle_gamma   90.00000000
_symmetry_Int_Tables_number   1
_chemical_formula_structural   Li9Cr5(SiO8)2
_chemical_formula_sum   'Li9 Cr5 Si2 O16'
_cell_volume   279.06856189
_cell_formula_units_Z   1
loop_
 _symmetry_equiv_pos_site_id
 _symmetry_equiv_pos_as_xyz
  1  'x, y, z'
loop_
 _atom_site_type_symbol
 _atom_site_label
 _atom_site_symmetry_multiplicity
 _atom_site_fract_x
 _atom_site_fract_y
 _atom_site_fract_z
 _atom_site_occupancy
  Li  Li0  1  0.38251500  0.00000000  0.00000000  1
  Li  Li1  1  0.12392000  0.00000000  0.00000000  1
  Li  Li2  1  0.25738700  0.50000000  0.00000000  1
  Li  Li3  1  0.87608000  0.00000000  0.00000000  1
  Li  Li4  1  0.00000000  0.50000000  0.00000000  1
  Li  Li5  1  0.61748500  0.00000000  0.00000000  1
  Li  Li6  1  0.74261300  0.50000000  0.00000000  1
  Li  Li7  1  0.50000000  0.00000000  0.50000000  1
  Li  Li8  1  0.50000000  0.50000000  0.00000000  1
  Cr  Cr0  1  0.25926700  0.00000000  0.50000000  1
  Cr  Cr1  1  0.00000000  0.00000000  0.50000000  1
  Cr  Cr2  1  0.12993200  0.50000000  0.50000000  1
  Cr  Cr3  1  0.74073300  0.00000000  0.50000000  1
  Cr  Cr4  1  0.87006800  0.50000000  0.50000000  1
  Si  Si0  1  0.38298400  0.50000000  0.50000000  1
  Si  Si1  1  0.61701600  0.50000000  0.50000000  1
  O  O0  1  0.37458800  0.72229200  0.71229400  1
  O  O1  1  0.12774000  0.75892200  0.72843700  1
  O  O2  1  0.26516700  0.73033100  0.28136300  1
  O  O3  1  0.00000000  0.73905100  0.27239700  1
  O  O4  1  0.26516700  0.26966900  0.71863700  1
  O  O5  1  0.87226000  0.75892200  0.72843700  1
  O  O6  1  0.37458800  0.27770800  0.28770600  1
  O  O7  1  0.00000000  0.26094900  0.72760300  1
  O  O8  1  0.62541200  0.72229200  0.71229400  1
  O  O9  1  0.73483300  0.73033100  0.28136300  1
  O  O10  1  0.12774000  0.24107800  0.27156300  1
  O  O11  1  0.87226000  0.24107800  0.27156300  1
  O  O12  1  0.73483300  0.26966900  0.71863700  1
  O  O13  1  0.50000000  0.70655000  0.28595200  1
  O  O14  1  0.62541200  0.27770800  0.28770600  1
  O  O15  1  0.50000000  0.29345000  0.71404800  1
loop_
_geom_bond_atom_site_label_1
_geom_bond_atom_site_label_2
_geom_bond_distance
_geom_bond_site_symmetry_2
Li0 O4 2.107766 1_554
Li0 O2 2.107766 1_545
Li0 O15 2.172451 1_554
Li0 O13 2.172451 1_545
Li0 O6 2.335216 1_555
Li0 O0 2.335216 1_544
Li1 O10 2.118042 1_555
Li1 O1 2.118042 1_544
Li1 O3 2.118877 1_545
Li1 O7 2.118877 1_554
Li1 O4 2.294999 1_554
Li1 O2 2.294999 1_545
Li2 O6 2.034163 1_555
Li2 O0 2.034163 1_554
Li2 O2 2.119204 1_555
Li2 O4 2.119204 1_554
Li2 O1 2.158192 1_554
Li2 O10 2.158192 1_555
Li3 O5 2.118042 1_544
Li3 O11 2.118042 1_555
Li3 O7 2.118877 1_654
Li3 O3 2.118877 1_645
Li3 O12 2.294999 1_554
Li3 O9 2.294999 1_545
Li4 O3 2.113066 1_555
Li4 O7 2.113066 1_554
Li4 O5 2.142970 1_454
Li4 O11 2.142970 1_455
Li4 O1 2.142970 1_554
Li4 O10 2.142970 1_555
Li5 O12 2.107766 1_554
Li5 O9 2.107766 1_545
Li5 O13 2.172451 1_545
Li5 O15 2.172451 1_554
Li5 O14 2.335216 1_555
Li5 O8 2.335216 1_544
Li6 O14 2.034163 1_555
Li6 O8 2.034163 1_554
Li6 O9 2.119204 1_555
Li6 O12 2.119204 1_554
Li6 O11 2.158192 1_555
Li6 O5 2.158192 1_554
Li7 O14 2.055764 1_555
Li7 O6 2.055764 1_555
Li7 O8 2.055764 1_545
Li7 O0 2.055764 1_545
Li7 O13 2.106137 1_545
Li7 O15 2.106137 1_555
Li8 O15 2.046387 1_554
Li8 O13 2.046387 1_555
Li8 O14 2.098461 1_555
Li8 O6 2.098461 1_555
Li8 O8 2.098461 1_554
Li8 O0 2.098461 1_554
Cr0 O6 1.975384 1_555
Cr0 O0 1.975384 1_545
Cr0 O4 2.021068 1_555
Cr0 O2 2.021068 1_545
Cr0 O1 2.049258 1_545
Cr0 O10 2.049258 1_555
Cr1 O11 2.017051 1_455
Cr1 O5 2.017051 1_445
Cr1 O1 2.017051 1_545
Cr1 O10 2.017051 1_555
Cr1 O7 2.017959 1_555
Cr1 O3 2.017959 1_545
Cr2 O10 2.012844 1_555
Cr2 O1 2.012844 1_555
Cr2 O7 2.029886 1_555
Cr2 O3 2.029886 1_555
Cr2 O2 2.041882 1_555
Cr2 O4 2.041882 1_555
Cr3 O14 1.975384 1_555
Cr3 O8 1.975384 1_545
Cr3 O12 2.021068 1_555
Cr3 O9 2.021068 1_545
Cr3 O5 2.049258 1_545
Cr3 O11 2.049258 1_555
Cr4 O11 2.012844 1_555
Cr4 O5 2.012844 1_555
Cr4 O3 2.029886 1_655
Cr4 O7 2.029886 1_655
Cr4 O12 2.041882 1_555
Cr4 O9 2.041882 1_555
O0 Si0 1.796026 1_555
O2 Si0 1.892450 1_555
O4 Si0 1.892450 1_555
O6 Si0 1.796026 1_555
O8 Si1 1.796026 1_555
O9 Si1 1.892450 1_555
O12 Si1 1.892450 1_555
O13 Si1 1.828711 1_555
O13 Si0 1.828711 1_555
O14 Si1 1.796026 1_555
O15 Si1 1.828711 1_555
O15 Si0 1.828711 1_555
