# generated using pymatgen
data_Fe3Co2Ni(PO4)6
_symmetry_space_group_name_H-M   'P 1'
_cell_length_a   8.40153030
_cell_length_b   8.40153030
_cell_length_c   8.40152992
_cell_angle_alpha   61.80936037
_cell_angle_beta   61.80936037
_cell_angle_gamma   61.80935646
_symmetry_Int_Tables_number   1
_chemical_formula_structural   Fe3Co2Ni(PO4)6
_chemical_formula_sum   'Fe3 Co2 Ni1 P6 O24'
_cell_volume   436.32827289
_cell_formula_units_Z   1
loop_
 _symmetry_equiv_pos_site_id
 _symmetry_equiv_pos_as_xyz
  1  'x, y, z'
loop_
 _atom_site_type_symbol
 _atom_site_label
 _atom_site_symmetry_multiplicity
 _atom_site_fract_x
 _atom_site_fract_y
 _atom_site_fract_z
 _atom_site_occupancy
  Fe  Fe0  1  0.64521800  0.64521800  0.64521800  1
  Fe  Fe1  1  0.85558800  0.85558800  0.85558800  1
  Fe  Fe2  1  0.35560000  0.35560000  0.35560000  1
  Co  Co0  1  0.00067000  0.00067000  0.00067000  1
  Co  Co1  1  0.50053600  0.50053600  0.50053600  1
  Ni  Ni0  1  0.14251600  0.14251600  0.14251600  1
  P  P0  1  0.95367100  0.24880400  0.54795100  1
  P  P1  1  0.54795100  0.95367100  0.24880400  1
  P  P2  1  0.24880400  0.54795100  0.95367100  1
  P  P3  1  0.75204300  0.44980700  0.04692300  1
  P  P4  1  0.44980700  0.04692300  0.75204300  1
  P  P5  1  0.04692300  0.75204300  0.44980700  1
  O  O0  1  0.50505100  0.10842300  0.32323700  1
  O  O1  1  0.32323700  0.50505100  0.10842300  1
  O  O2  1  0.10842300  0.32323700  0.50505100  1
  O  O3  1  0.94034000  0.09306200  0.75308700  1
  O  O4  1  0.98916200  0.17857900  0.39487300  1
  O  O5  1  0.74874600  0.40356100  0.56615300  1
  O  O6  1  0.75308700  0.94034000  0.09306200  1
  O  O7  1  0.56615300  0.74874600  0.40356100  1
  O  O8  1  0.82634900  0.60528600  0.00316100  1
  O  O9  1  0.40356100  0.56615300  0.74874600  1
  O  O10  1  0.90552900  0.24641700  0.06043900  1
  O  O11  1  0.60528600  0.00316100  0.82634900  1
  O  O12  1  0.39487300  0.98916200  0.17857900  1
  O  O13  1  0.09306200  0.75308700  0.94034000  1
  O  O14  1  0.59682700  0.43841200  0.25030100  1
  O  O15  1  0.17857900  0.39487300  0.98916200  1
  O  O16  1  0.43841200  0.25030100  0.59682700  1
  O  O17  1  0.24641700  0.06043900  0.90552900  1
  O  O18  1  0.25030100  0.59682700  0.43841200  1
  O  O19  1  0.00316100  0.82634900  0.60528600  1
  O  O20  1  0.06043900  0.90552900  0.24641700  1
  O  O21  1  0.89294500  0.67543800  0.49529300  1
  O  O22  1  0.67543800  0.49529300  0.89294500  1
  O  O23  1  0.49529300  0.89294500  0.67543800  1
loop_
_geom_bond_atom_site_label_1
_geom_bond_atom_site_label_2
_geom_bond_distance
_geom_bond_site_symmetry_2
Fe0 O22 1.924318 1_555
Fe0 O23 1.924318 1_555
Fe0 O21 1.924319 1_555
Fe0 O7 2.092779 1_555
Fe0 O5 2.092779 1_555
Fe0 O9 2.092779 1_555
Fe1 O19 1.938231 1_655
Fe1 O11 1.938231 1_565
Fe1 O8 1.938231 1_556
Fe1 O6 2.090161 1_556
Fe1 O13 2.090161 1_655
Fe1 O3 2.090161 1_565
Fe2 O1 1.926231 1_555
Fe2 O0 1.926231 1_555
Fe2 O2 1.926231 1_555
Fe2 O16 2.104952 1_555
Fe2 O18 2.104952 1_555
Fe2 O14 2.104953 1_555
Co0 O20 2.048151 1_545
Co0 O10 2.048151 1_455
Co0 O17 2.048151 1_554
Co0 O3 2.070035 1_454
Co0 O13 2.070035 1_544
Co0 O6 2.070035 1_445
Co1 O9 2.091155 1_555
Co1 O5 2.091155 1_555
Co1 O7 2.091155 1_555
Co1 O14 2.092286 1_555
Co1 O18 2.092286 1_555
Co1 O16 2.092286 1_555
Ni0 O4 1.975898 1_455
Ni0 O12 1.975898 1_545
Ni0 O15 1.975898 1_554
Ni0 O17 2.070786 1_554
Ni0 O10 2.070786 1_455
Ni0 O20 2.070786 1_545
O0 P1 1.524418 1_545
O1 P2 1.524418 1_554
O2 P0 1.524418 1_455
O3 P0 1.587572 1_555
O4 P0 1.509772 1_555
O5 P0 1.581835 1_555
O6 P1 1.587573 1_555
O7 P1 1.581835 1_555
O8 P3 1.526786 1_555
O9 P2 1.581835 1_555
O10 P3 1.571246 1_555
O11 P4 1.526786 1_555
O12 P1 1.509772 1_555
O13 P2 1.587572 1_555
O14 P3 1.577174 1_555
O15 P2 1.509772 1_555
O16 P4 1.577174 1_555
O17 P4 1.571246 1_555
O18 P5 1.577174 1_555
O19 P5 1.526786 1_555
O20 P5 1.571246 1_555
O21 P5 1.523473 1_655
O22 P3 1.523473 1_556
O23 P4 1.523473 1_565
