# generated using pymatgen
data_LiBi(PO3)4
_symmetry_space_group_name_H-M   'P 1'
_cell_length_a   8.11394200
_cell_length_b   9.94378200
_cell_length_c   13.50592800
_cell_angle_alpha   90.00000000
_cell_angle_beta   90.00000000
_cell_angle_gamma   90.00000000
_symmetry_Int_Tables_number   1
_chemical_formula_structural   LiBi(PO3)4
_chemical_formula_sum   'Li4 Bi4 P16 O48'
_cell_volume   1089.70244094
_cell_formula_units_Z   4
loop_
 _symmetry_equiv_pos_site_id
 _symmetry_equiv_pos_as_xyz
  1  'x, y, z'
loop_
 _atom_site_type_symbol
 _atom_site_label
 _atom_site_symmetry_multiplicity
 _atom_site_fract_x
 _atom_site_fract_y
 _atom_site_fract_z
 _atom_site_occupancy
  Li  Li0  1  0.55830700  0.25000000  0.00000000  1
  Li  Li1  1  0.44169300  0.75000000  0.00000000  1
  Li  Li2  1  0.05830700  0.25000000  0.50000000  1
  Li  Li3  1  0.94169300  0.75000000  0.50000000  1
  Bi  Bi0  1  0.98691600  0.75000000  0.00000000  1
  Bi  Bi1  1  0.01308400  0.25000000  0.00000000  1
  Bi  Bi2  1  0.51308400  0.25000000  0.50000000  1
  Bi  Bi3  1  0.48691600  0.75000000  0.50000000  1
  P  P0  1  0.18503600  0.51596000  0.15083500  1
  P  P1  1  0.81496400  0.01596000  0.15083500  1
  P  P2  1  0.56186900  0.51054900  0.14262700  1
  P  P3  1  0.43813100  0.01054900  0.14262700  1
  P  P4  1  0.06186900  0.51054900  0.35737300  1
  P  P5  1  0.93813100  0.01054900  0.35737300  1
  P  P6  1  0.31496400  0.01596000  0.34916500  1
  P  P7  1  0.68503600  0.51596000  0.34916500  1
  P  P8  1  0.31496400  0.48404000  0.65083500  1
  P  P9  1  0.68503600  0.98404000  0.65083500  1
  P  P10  1  0.06186900  0.98945100  0.64262700  1
  P  P11  1  0.93813100  0.48945100  0.64262700  1
  P  P12  1  0.43813100  0.48945100  0.85737300  1
  P  P13  1  0.56186900  0.98945100  0.85737300  1
  P  P14  1  0.18503600  0.98404000  0.84916500  1
  P  P15  1  0.81496400  0.48404000  0.84916500  1
  O  O0  1  0.17811500  0.62730100  0.07178100  1
  O  O1  1  0.82188500  0.12730100  0.07178100  1
  O  O2  1  0.57526100  0.62354800  0.07047200  1
  O  O3  1  0.42473900  0.12354800  0.07047200  1
  O  O4  1  0.08963200  0.39020400  0.12458500  1
  O  O5  1  0.91036800  0.89020400  0.12458500  1
  O  O6  1  0.35767800  0.87869000  0.12665800  1
  O  O7  1  0.64232200  0.37869000  0.12665800  1
  O  O8  1  0.36851500  0.47893500  0.17196300  1
  O  O9  1  0.63148500  0.97893500  0.17196300  1
  O  O10  1  0.11550900  0.57875100  0.24972100  1
  O  O11  1  0.88449100  0.07875100  0.24972100  1
  O  O12  1  0.38449100  0.07875100  0.25027900  1
  O  O13  1  0.61550900  0.57875100  0.25027900  1
  O  O14  1  0.13148500  0.97893500  0.32803700  1
  O  O15  1  0.86851500  0.47893500  0.32803700  1
  O  O16  1  0.14232200  0.37869000  0.37334200  1
  O  O17  1  0.85767800  0.87869000  0.37334200  1
  O  O18  1  0.58963200  0.39020400  0.37541500  1
  O  O19  1  0.41036800  0.89020400  0.37541500  1
  O  O20  1  0.07526100  0.62354800  0.42952800  1
  O  O21  1  0.92473900  0.12354800  0.42952800  1
  O  O22  1  0.67811500  0.62730100  0.42821900  1
  O  O23  1  0.32188500  0.12730100  0.42821900  1
  O  O24  1  0.32188500  0.37269900  0.57178100  1
  O  O25  1  0.67811500  0.87269900  0.57178100  1
  O  O26  1  0.07526100  0.87645200  0.57047200  1
  O  O27  1  0.92473900  0.37645200  0.57047200  1
  O  O28  1  0.41036800  0.60979600  0.62458500  1
  O  O29  1  0.58963200  0.10979600  0.62458500  1
  O  O30  1  0.14232200  0.12131000  0.62665800  1
  O  O31  1  0.85767800  0.62131000  0.62665800  1
  O  O32  1  0.13148500  0.52106500  0.67196300  1
  O  O33  1  0.86851500  0.02106500  0.67196300  1
  O  O34  1  0.38449100  0.42124900  0.74972100  1
  O  O35  1  0.61550900  0.92124900  0.74972100  1
  O  O36  1  0.11550900  0.92124900  0.75027900  1
  O  O37  1  0.88449100  0.42124900  0.75027900  1
  O  O38  1  0.36851500  0.02106500  0.82803700  1
  O  O39  1  0.63148500  0.52106500  0.82803700  1
  O  O40  1  0.35767800  0.62131000  0.87334200  1
  O  O41  1  0.64232200  0.12131000  0.87334200  1
  O  O42  1  0.08963200  0.10979600  0.87541500  1
  O  O43  1  0.91036800  0.60979600  0.87541500  1
  O  O44  1  0.42473900  0.37645200  0.92952800  1
  O  O45  1  0.57526100  0.87645200  0.92952800  1
  O  O46  1  0.17811500  0.87269900  0.92821900  1
  O  O47  1  0.82188500  0.37269900  0.92821900  1
loop_
_geom_bond_atom_site_label_1
_geom_bond_atom_site_label_2
_geom_bond_distance
_geom_bond_site_symmetry_2
Li0 O3 1.913512 1_555
Li0 O44 1.913512 1_554
Li0 O7 2.242435 1_555
Li0 O41 2.242435 1_554
Li1 O2 1.913512 1_555
Li1 O45 1.913512 1_554
Li1 O6 2.242435 1_555
Li1 O40 2.242435 1_554
Li2 O27 1.913512 1_455
Li2 O21 1.913512 1_455
Li2 O30 2.242435 1_555
Li2 O16 2.242435 1_555
Li3 O26 1.913512 1_655
Li3 O20 1.913512 1_655
Li3 O31 2.242435 1_555
Li3 O17 2.242435 1_555
Bi0 O0 2.198924 1_655
Bi0 O46 2.198924 1_654
Bi0 O5 2.271720 1_555
Bi0 O43 2.271720 1_554
Bi1 O1 2.198924 1_455
Bi1 O47 2.198924 1_454
Bi1 O4 2.271720 1_555
Bi1 O42 2.271720 1_554
Bi2 O24 2.198924 1_555
Bi2 O23 2.198924 1_555
Bi2 O18 2.271720 1_555
Bi2 O29 2.271720 1_555
Bi3 O25 2.198924 1_555
Bi3 O22 2.198924 1_555
Bi3 O28 2.271720 1_555
Bi3 O19 2.271720 1_555
O0 P0 1.539128 1_555
O1 P1 1.539128 1_555
O2 P2 1.491328 1_555
O3 P3 1.491328 1_555
O4 P0 1.512829 1_555
O5 P1 1.512829 1_565
O6 P3 1.480486 1_565
O7 P2 1.480486 1_555
O8 P0 1.559909 1_555
O8 P2 1.648374 1_555
O9 P1 1.559909 1_565
O9 P3 1.648374 1_565
O10 P0 1.578540 1_555
O10 P4 1.662319 1_555
O11 P1 1.578540 1_555
O11 P5 1.662319 1_555
O12 P6 1.578540 1_555
O12 P3 1.662319 1_555
O13 P7 1.578540 1_555
O13 P2 1.662319 1_555
O14 P6 1.559909 1_565
O14 P5 1.648374 1_465
O15 P7 1.559909 1_555
O15 P4 1.648374 1_655
O16 P4 1.480486 1_555
O17 P5 1.480486 1_565
O18 P7 1.512829 1_555
O19 P6 1.512829 1_565
O20 P4 1.491328 1_555
O21 P5 1.491328 1_555
O22 P7 1.539128 1_555
O23 P6 1.539128 1_555
O24 P8 1.539128 1_555
O25 P9 1.539128 1_555
O26 P10 1.491328 1_555
O27 P11 1.491328 1_555
O28 P8 1.512829 1_555
O29 P9 1.512829 1_545
O30 P10 1.480486 1_545
O31 P11 1.480486 1_555
O32 P8 1.559909 1_555
O32 P11 1.648374 1_455
O33 P9 1.559909 1_545
O33 P10 1.648374 1_645
O34 P8 1.578540 1_555
O34 P12 1.662319 1_555
O35 P9 1.578540 1_555
O35 P13 1.662319 1_555
O36 P14 1.578540 1_555
O36 P10 1.662319 1_555
O37 P15 1.578540 1_555
O37 P11 1.662319 1_555
O38 P14 1.559909 1_545
O38 P13 1.648374 1_545
O39 P15 1.559909 1_555
O39 P12 1.648374 1_555
O40 P12 1.480486 1_555
O41 P13 1.480486 1_545
O42 P14 1.512829 1_545
O43 P15 1.512829 1_555
O44 P12 1.491328 1_555
O45 P13 1.491328 1_555
O46 P14 1.539128 1_555
O47 P15 1.539128 1_555
