# generated using pymatgen
data_Na5Ni2P2(CO7)2
_symmetry_space_group_name_H-M   'P 1'
_cell_length_a   8.40690100
_cell_length_b   8.41764743
_cell_length_c   10.18118159
_cell_angle_alpha   107.40831387
_cell_angle_beta   107.75332799
_cell_angle_gamma   103.35538251
_symmetry_Int_Tables_number   1
_chemical_formula_structural   Na5Ni2P2(CO7)2
_chemical_formula_sum   'Na10 Ni4 P4 C4 O28'
_cell_volume   612.20644913
_cell_formula_units_Z   2
loop_
 _symmetry_equiv_pos_site_id
 _symmetry_equiv_pos_as_xyz
  1  'x, y, z'
loop_
 _atom_site_type_symbol
 _atom_site_label
 _atom_site_symmetry_multiplicity
 _atom_site_fract_x
 _atom_site_fract_y
 _atom_site_fract_z
 _atom_site_occupancy
  Na  Na0  1  0.48579900  0.97389200  0.73089100  1
  Na  Na1  1  0.72545700  0.73771800  0.73047800  1
  Na  Na2  1  0.77410500  0.75079000  0.27105500  1
  Na  Na3  1  0.05613600  0.79653700  0.08475300  1
  Na  Na4  1  0.56855600  0.30921900  0.08554200  1
  Na  Na5  1  0.94151600  0.20134600  0.92110600  1
  Na  Na6  1  0.24074300  0.25219700  0.73267300  1
  Na  Na7  1  0.00412800  0.49143800  0.73202500  1
  Na  Na8  1  0.26314800  0.25682700  0.27054200  1
  Na  Na9  1  0.50982300  0.01399700  0.26455800  1
  Ni  Ni0  1  0.06218500  0.81427900  0.65350400  1
  Ni  Ni1  1  0.42965200  0.68435400  0.34454600  1
  Ni  Ni2  1  0.56332700  0.31187600  0.65305400  1
  Ni  Ni3  1  0.93752800  0.19219000  0.34482000  1
  P  P0  1  0.19474100  0.94591400  0.42174200  1
  P  P1  1  0.69093900  0.44103900  0.41990400  1
  P  P2  1  0.30099800  0.55400000  0.57608500  1
  P  P3  1  0.80810500  0.05685300  0.58167200  1
  C  C0  1  0.23718400  0.98744300  0.93612100  1
  C  C1  1  0.26396700  0.51303000  0.06711700  1
  C  C2  1  0.73347100  0.48803400  0.93170700  1
  C  C3  1  0.76682300  0.01250200  0.06542800  1
  O  O0  1  0.68303200  0.93212600  0.92347500  1
  O  O1  1  0.91516900  0.97867000  0.68224500  1
  O  O2  1  0.83747100  0.58806700  0.56632700  1
  O  O3  1  0.43358200  0.68446400  0.53856600  1
  O  O4  1  0.06571100  0.82312300  0.45967100  1
  O  O5  1  0.65984300  0.90659500  0.43098500  1
  O  O6  1  0.27868800  0.83851200  0.32256400  1
  O  O7  1  0.57985900  0.52125700  0.31870200  1
  O  O8  1  0.75826900  0.32349300  0.31823400  1
  O  O9  1  0.71778400  0.96452100  0.16077200  1
  O  O10  1  0.21367900  0.45844800  0.16023600  1
  O  O11  1  0.40359400  0.65862400  0.13182200  1
  O  O12  1  0.91033800  0.15322900  0.12297100  1
  O  O13  1  0.81163200  0.57314100  0.07336000  1
  O  O14  1  0.18035100  0.42991600  0.92482100  1
  O  O15  1  0.09464900  0.84461800  0.87666500  1
  O  O16  1  0.59248500  0.34116300  0.87013400  1
  O  O17  1  0.78989000  0.53680200  0.83832800  1
  O  O18  1  0.29032800  0.04118100  0.84387500  1
  O  O19  1  0.22483200  0.66544300  0.67320700  1
  O  O20  1  0.41408200  0.47855200  0.67457500  1
  O  O21  1  0.72736800  0.16222600  0.67979700  1
  O  O22  1  0.34240300  0.09190200  0.56980000  1
  O  O23  1  0.93566100  0.18568100  0.54504400  1
  O  O24  1  0.55871600  0.31439400  0.45669800  1
  O  O25  1  0.15738900  0.40637400  0.43020500  1
  O  O26  1  0.08865800  0.02191500  0.31860400  1
  O  O27  1  0.31926200  0.07329700  0.07932100  1
loop_
_geom_bond_atom_site_label_1
_geom_bond_atom_site_label_2
_geom_bond_distance
_geom_bond_site_symmetry_2
Na0 O0 2.327348 1_555
Na0 O22 2.335016 1_565
Na0 O18 2.353173 1_565
Na0 O3 2.467722 1_555
Na0 O21 2.560967 1_565
Na0 O19 2.751330 1_555
Na0 O16 2.773634 1_565
Na1 O0 2.332202 1_555
Na1 O2 2.348362 1_555
Na1 O17 2.351827 1_555
Na1 O3 2.466484 1_555
Na1 O1 2.545149 1_555
Na1 O20 2.765095 1_555
Na1 O15 2.783785 1_655
Na2 O13 2.278414 1_555
Na2 O5 2.356300 1_555
Na2 O4 2.410006 1_655
Na2 O9 2.449438 1_555
Na2 O7 2.494284 1_555
Na2 O11 2.801153 1_555
Na2 O26 2.864605 1_665
Na3 O15 2.372312 1_554
Na3 O13 2.390220 1_455
Na3 O6 2.430580 1_555
Na3 O26 2.450143 1_565
Na3 O17 2.667781 1_454
Na3 O27 2.845103 1_565
Na4 O16 2.349344 1_554
Na4 O8 2.368033 1_555
Na4 O7 2.465511 1_555
Na4 O27 2.502235 1_555
Na4 O18 2.710369 1_554
Na4 O13 2.710896 1_555
Na5 O12 2.287851 1_556
Na5 O14 2.420792 1_655
Na5 O21 2.435199 1_555
Na5 O1 2.495740 1_545
Na5 O10 2.647412 1_656
Na5 O0 2.765502 1_545
Na6 O22 2.314953 1_555
Na6 O14 2.351224 1_555
Na6 O18 2.422444 1_555
Na6 O20 2.453814 1_555
Na6 O23 2.499907 1_455
Na6 O16 2.662650 1_555
Na6 O1 2.929289 1_445
Na7 O2 2.318769 1_455
Na7 O14 2.346319 1_555
Na7 O17 2.412517 1_455
Na7 O19 2.427663 1_555
Na7 O23 2.509021 1_455
Na7 O15 2.690331 1_555
Na8 O25 2.278518 1_555
Na8 O10 2.344421 1_555
Na8 O27 2.344480 1_555
Na8 O26 2.445012 1_555
Na8 O24 2.454265 1_555
Na8 O12 2.668082 1_455
Na8 O7 2.845526 1_555
Na9 O5 2.327915 1_545
Na9 O27 2.337222 1_555
Na9 O9 2.355043 1_545
Na9 O6 2.490448 1_545
Na9 O24 2.541532 1_555
Na9 O11 2.680157 1_545
Na9 O8 2.717820 1_555
Ni0 O4 2.005863 1_555
Ni0 O19 2.062537 1_555
Ni0 O2 2.070470 1_455
Ni0 O1 2.072787 1_455
Ni0 O15 2.131745 1_555
Ni0 O18 2.215581 1_565
Ni1 O3 1.965249 1_555
Ni1 O6 2.026347 1_555
Ni1 O11 2.047822 1_555
Ni1 O5 2.079173 1_555
Ni1 O7 2.082322 1_555
Ni1 O10 2.150804 1_555
Ni2 O24 1.994235 1_555
Ni2 O22 2.026984 1_555
Ni2 O16 2.078753 1_555
Ni2 O21 2.083659 1_555
Ni2 O20 2.094677 1_555
Ni2 O17 2.185569 1_555
Ni3 O25 1.991336 1_655
Ni3 O23 2.060278 1_555
Ni3 O8 2.065358 1_555
Ni3 O12 2.113938 1_555
Ni3 O26 2.135203 1_655
Ni3 O9 2.168259 1_545
C0 O27 1.284397 1_566
C0 O18 1.304990 1_565
C0 O15 1.305506 1_555
C1 O14 1.275823 1_554
C1 O11 1.301758 1_555
C1 O10 1.305366 1_555
C2 O13 1.269377 1_556
C2 O17 1.309925 1_555
C2 O16 1.316226 1_555
C3 O0 1.271452 1_544
C3 O9 1.295027 1_545
C3 O12 1.302139 1_555
O1 P3 1.551310 1_565
O2 P1 1.530807 1_555
O3 P2 1.593581 1_555
O4 P0 1.539626 1_555
O5 P3 1.565718 1_565
O6 P0 1.586855 1_555
O7 P1 1.584451 1_555
O8 P1 1.540817 1_555
O19 P2 1.541547 1_555
O20 P2 1.546376 1_555
O21 P3 1.551434 1_555
O22 P0 1.539188 1_545
O23 P3 1.553579 1_555
O24 P1 1.567758 1_555
O25 P2 1.522083 1_555
O26 P0 1.549750 1_545
