# generated using pymatgen
data_Li3FePCO7
_symmetry_space_group_name_H-M   'P 1'
_cell_length_a   6.44768300
_cell_length_b   9.53876400
_cell_length_c   9.72039875
_cell_angle_alpha   64.51090245
_cell_angle_beta   90.00000000
_cell_angle_gamma   90.00000000
_symmetry_Int_Tables_number   1
_chemical_formula_structural   Li3FePCO7
_chemical_formula_sum   'Li12 Fe4 P4 C4 O28'
_cell_volume   539.64420530
_cell_formula_units_Z   4
loop_
 _symmetry_equiv_pos_site_id
 _symmetry_equiv_pos_as_xyz
  1  'x, y, z'
loop_
 _atom_site_type_symbol
 _atom_site_label
 _atom_site_symmetry_multiplicity
 _atom_site_fract_x
 _atom_site_fract_y
 _atom_site_fract_z
 _atom_site_occupancy
  Li  Li0  1  0.25066900  0.10773100  0.30535400  1
  Li  Li1  1  0.24933100  0.10773100  0.80535400  1
  Li  Li2  1  0.01133300  0.28748500  0.48919700  1
  Li  Li3  1  0.48866700  0.28748500  0.98919700  1
  Li  Li4  1  0.75449800  0.35953300  0.67961100  1
  Li  Li5  1  0.74550200  0.35953300  0.17961100  1
  Li  Li6  1  0.24550200  0.64046700  0.32038900  1
  Li  Li7  1  0.25449800  0.64046700  0.82038900  1
  Li  Li8  1  0.98866700  0.71251500  0.51080300  1
  Li  Li9  1  0.51133300  0.71251500  0.01080300  1
  Li  Li10  1  0.74933100  0.89226900  0.69464600  1
  Li  Li11  1  0.75066900  0.89226900  0.19464600  1
  Fe  Fe0  1  0.50294900  0.26503200  0.48642900  1
  Fe  Fe1  1  0.99705100  0.26503200  0.98642900  1
  Fe  Fe2  1  0.49705100  0.73496800  0.51357100  1
  Fe  Fe3  1  0.00294900  0.73496800  0.01357100  1
  P  P0  1  0.24865000  0.40706300  0.68594800  1
  P  P1  1  0.25135000  0.40706300  0.18594800  1
  P  P2  1  0.75135000  0.59293700  0.31405200  1
  P  P3  1  0.74865000  0.59293700  0.81405200  1
  C  C0  1  0.74260200  0.04304200  0.37833300  1
  C  C1  1  0.75739800  0.04304200  0.87833300  1
  C  C2  1  0.25739800  0.95695800  0.62166700  1
  C  C3  1  0.24260200  0.95695800  0.12166700  1
  O  O0  1  0.74035400  0.06833900  0.73854900  1
  O  O1  1  0.75964600  0.06833900  0.23854900  1
  O  O2  1  0.26155500  0.10063400  0.51301000  1
  O  O3  1  0.73443800  0.15738600  0.41768600  1
  O  O4  1  0.23844500  0.10063400  0.01301000  1
  O  O5  1  0.76556200  0.15738600  0.91768600  1
  O  O6  1  0.05976200  0.30753600  0.68505800  1
  O  O7  1  0.44142600  0.31360300  0.67265300  1
  O  O8  1  0.05857400  0.31360300  0.17265300  1
  O  O9  1  0.44023800  0.30753600  0.18505800  1
  O  O10  1  0.75552100  0.42637900  0.44434000  1
  O  O11  1  0.24602600  0.41686200  0.34243900  1
  O  O12  1  0.74447900  0.42637900  0.94434000  1
  O  O13  1  0.25397400  0.41686200  0.84243900  1
  O  O14  1  0.75397400  0.58313800  0.65756100  1
  O  O15  1  0.24447900  0.57362100  0.55566000  1
  O  O16  1  0.74602600  0.58313800  0.15756100  1
  O  O17  1  0.25552100  0.57362100  0.05566000  1
  O  O18  1  0.94023800  0.69246400  0.31494200  1
  O  O19  1  0.55857400  0.68639700  0.32734700  1
  O  O20  1  0.94142600  0.68639700  0.82734700  1
  O  O21  1  0.55976200  0.69246400  0.81494200  1
  O  O22  1  0.26556200  0.84261400  0.58231400  1
  O  O23  1  0.73844500  0.89936600  0.48699000  1
  O  O24  1  0.23443800  0.84261400  0.08231400  1
  O  O25  1  0.76155500  0.89936600  0.98699000  1
  O  O26  1  0.25964600  0.93166100  0.26145100  1
  O  O27  1  0.24035400  0.93166100  0.76145100  1
loop_
_geom_bond_atom_site_label_1
_geom_bond_atom_site_label_2
_geom_bond_distance
_geom_bond_site_symmetry_2
Li0 O26 1.903426 1_545
Li0 O2 1.991542 1_555
Li0 O9 2.139066 1_555
Li0 O8 2.207740 1_555
Li1 O27 1.903426 1_545
Li1 O4 1.991542 1_556
Li1 O6 2.139066 1_555
Li1 O7 2.207740 1_555
Li2 O6 2.017949 1_555
Li2 O10 2.041745 1_455
Li2 O11 2.081504 1_555
Li2 O2 2.340533 1_555
Li2 O3 2.439893 1_455
Li3 O9 2.017949 1_556
Li3 O12 2.041745 1_555
Li3 O13 2.081504 1_555
Li3 O4 2.340533 1_556
Li3 O5 2.439893 1_555
Li4 O6 2.024894 1_655
Li4 O14 2.049832 1_555
Li4 O7 2.072854 1_555
Li4 O10 2.093228 1_555
Li4 O5 2.288673 1_555
Li5 O9 2.024894 1_555
Li5 O16 2.049832 1_555
Li5 O8 2.072854 1_655
Li5 O12 2.093228 1_554
Li5 O3 2.288673 1_555
Li6 O18 2.024894 1_455
Li6 O11 2.049832 1_555
Li6 O19 2.072854 1_555
Li6 O15 2.093228 1_555
Li6 O24 2.288673 1_555
Li7 O21 2.024894 1_555
Li7 O13 2.049832 1_555
Li7 O20 2.072854 1_455
Li7 O17 2.093228 1_556
Li7 O22 2.288673 1_555
Li8 O18 2.017949 1_555
Li8 O15 2.041745 1_655
Li8 O14 2.081504 1_555
Li8 O23 2.340533 1_555
Li8 O22 2.439893 1_655
Li9 O21 2.017949 1_554
Li9 O17 2.041745 1_555
Li9 O16 2.081504 1_555
Li9 O25 2.340533 1_554
Li9 O24 2.439893 1_555
Li10 O0 1.903426 1_565
Li10 O23 1.991542 1_555
Li10 O21 2.139066 1_555
Li10 O20 2.207740 1_555
Li11 O1 1.903426 1_565
Li11 O25 1.991542 1_554
Li11 O18 2.139066 1_555
Li11 O19 2.207740 1_555
Fe0 O3 2.078252 1_555
Fe0 O7 2.090587 1_555
Fe0 O2 2.144672 1_555
Fe0 O10 2.155493 1_555
Fe0 O11 2.248559 1_555
Fe1 O5 2.078252 1_555
Fe1 O8 2.090587 1_656
Fe1 O4 2.144672 1_656
Fe1 O12 2.155493 1_555
Fe1 O13 2.248559 1_655
Fe2 O22 2.078252 1_555
Fe2 O19 2.090587 1_555
Fe2 O23 2.144672 1_555
Fe2 O15 2.155493 1_555
Fe2 O14 2.248559 1_555
Fe3 O24 2.078252 1_555
Fe3 O20 2.090587 1_454
Fe3 O25 2.144672 1_454
Fe3 O17 2.155493 1_555
Fe3 O16 2.248559 1_455
C0 O1 1.278409 1_555
C0 O3 1.303004 1_555
C0 O23 1.322373 1_545
C1 O0 1.278409 1_555
C1 O5 1.303004 1_555
C1 O25 1.322373 1_545
C2 O27 1.278409 1_555
C2 O22 1.303004 1_555
C2 O2 1.322373 1_565
C3 O26 1.278409 1_555
C3 O24 1.303004 1_555
C3 O4 1.322373 1_565
O6 P0 1.546510 1_555
O7 P0 1.567024 1_555
O8 P1 1.567024 1_555
O9 P1 1.546510 1_555
O10 P2 1.548230 1_555
O11 P1 1.564034 1_555
O12 P3 1.548230 1_555
O13 P0 1.564034 1_555
O14 P3 1.564034 1_555
O15 P0 1.548230 1_555
O16 P2 1.564034 1_555
O17 P1 1.548230 1_555
O18 P2 1.546510 1_555
O19 P2 1.567024 1_555
O20 P3 1.567024 1_555
O21 P3 1.546510 1_555
