# generated using pymatgen
data_K3GdH6(C2O5)3
_symmetry_space_group_name_H-M   'P 1'
_cell_length_a   8.64478400
_cell_length_b   9.46818984
_cell_length_c   9.80886831
_cell_angle_alpha   97.95087457
_cell_angle_beta   91.84519304
_cell_angle_gamma   96.70882466
_symmetry_Int_Tables_number   1
_chemical_formula_structural   K3GdH6(C2O5)3
_chemical_formula_sum   'K6 Gd2 H12 C12 O30'
_cell_volume   788.74287633
_cell_formula_units_Z   2
loop_
 _symmetry_equiv_pos_site_id
 _symmetry_equiv_pos_as_xyz
  1  'x, y, z'
loop_
 _atom_site_type_symbol
 _atom_site_label
 _atom_site_symmetry_multiplicity
 _atom_site_fract_x
 _atom_site_fract_y
 _atom_site_fract_z
 _atom_site_occupancy
  K  K0  1  0.71197200  0.85687400  0.88706600  1
  K  K1  1  0.28802800  0.14312600  0.11293400  1
  K  K2  1  0.94982800  0.68080300  0.61204600  1
  K  K3  1  0.05017200  0.31919700  0.38795400  1
  K  K4  1  0.65094400  0.21140000  0.69954900  1
  K  K5  1  0.34905600  0.78860000  0.30045100  1
  Gd  Gd0  1  0.77398000  0.63886400  0.21685100  1
  Gd  Gd1  1  0.22602000  0.36113600  0.78314900  1
  H  H0  1  0.74064400  0.88269800  0.46691100  1
  H  H1  1  0.25935600  0.11730200  0.53308900  1
  H  H2  1  0.63541100  0.74551900  0.49386400  1
  H  H3  1  0.36458900  0.25448100  0.50613600  1
  H  H4  1  0.61264700  0.00066400  0.21240200  1
  H  H5  1  0.38735300  0.99933600  0.78759800  1
  H  H6  1  0.57526300  0.12367500  0.32480300  1
  H  H7  1  0.42473700  0.87632500  0.67519700  1
  H  H8  1  0.85659100  0.14075500  0.04235500  1
  H  H9  1  0.14340900  0.85924500  0.95764500  1
  H  H10  1  0.72539700  0.23404900  0.01703200  1
  H  H11  1  0.27460300  0.76595100  0.98296800  1
  C  C0  1  0.52625200  0.42384700  0.99842500  1
  C  C1  1  0.47374800  0.57615300  0.00157500  1
  C  C2  1  0.03320400  0.46014200  0.05630200  1
  C  C3  1  0.96679600  0.53985800  0.94369800  1
  C  C4  1  0.93204400  0.96927000  0.21217400  1
  C  C5  1  0.06795600  0.03073000  0.78782600  1
  C  C6  1  0.03588000  0.91484500  0.32263500  1
  C  C7  1  0.96412000  0.08515500  0.67736500  1
  C  C8  1  0.67803100  0.38624300  0.39592900  1
  C  C9  1  0.32196900  0.61375700  0.60407100  1
  C  C10  1  0.51412100  0.42284100  0.34923500  1
  C  C11  1  0.48587900  0.57715900  0.65076500  1
  O  O0  1  0.64911100  0.41390400  0.06795600  1
  O  O1  1  0.35088900  0.58609600  0.93204400  1
  O  O2  1  0.55822300  0.68073100  0.07331300  1
  O  O3  1  0.44177700  0.31926900  0.92668700  1
  O  O4  1  0.98379400  0.48792800  0.17673800  1
  O  O5  1  0.01620600  0.51207200  0.82326200  1
  O  O6  1  0.86941100  0.62558800  0.97953100  1
  O  O7  1  0.13058900  0.37441200  0.02046900  1
  O  O8  1  0.81184200  0.88286900  0.16412800  1
  O  O9  1  0.18815800  0.11713100  0.83587200  1
  O  O10  1  0.00207000  0.78271000  0.33815500  1
  O  O11  1  0.99793000  0.21729000  0.66184500  1
  O  O12  1  0.79122300  0.48664000  0.39458300  1
  O  O13  1  0.20877700  0.51336000  0.60541700  1
  O  O14  1  0.51563200  0.54059800  0.30115700  1
  O  O15  1  0.48436800  0.45940200  0.69884300  1
  O  O16  1  0.97263800  0.09098600  0.17818200  1
  O  O17  1  0.02736200  0.90901400  0.82181800  1
  O  O18  1  0.14549800  0.00185800  0.38333800  1
  O  O19  1  0.85450200  0.99814200  0.61666200  1
  O  O20  1  0.69124700  0.26525100  0.43058000  1
  O  O21  1  0.30875300  0.73474900  0.56942000  1
  O  O22  1  0.39455700  0.33587500  0.36206800  1
  O  O23  1  0.60544300  0.66412500  0.63793200  1
  O  O24  1  0.67777400  0.79645400  0.41765800  1
  O  O25  1  0.32222600  0.20354600  0.58234200  1
  O  O26  1  0.52535600  0.04440200  0.25429800  1
  O  O27  1  0.47464400  0.95559800  0.74570200  1
  O  O28  1  0.77721700  0.15452500  0.97116200  1
  O  O29  1  0.22278300  0.84547500  0.02883800  1
loop_
_geom_bond_atom_site_label_1
_geom_bond_atom_site_label_2
_geom_bond_distance
_geom_bond_site_symmetry_2
K0 O27 2.762094 1_555
K0 O8 2.793898 1_556
K0 O28 2.810058 1_565
K0 O17 2.823527 1_655
K0 O2 2.892540 1_556
K0 O23 2.894659 1_555
K0 O6 2.938849 1_555
K1 O26 2.762094 1_555
K1 O9 2.793898 1_554
K1 O29 2.810058 1_545
K1 O16 2.823527 1_455
K1 O3 2.892540 1_554
K1 O22 2.894659 1_555
K1 O7 2.938849 1_555
K2 O17 2.773936 1_655
K2 O12 2.819113 1_555
K2 O5 2.868298 1_655
K2 O13 2.887710 1_655
K2 O23 2.983733 1_555
K2 O10 3.007657 1_655
K2 O21 3.136174 1_655
K2 O19 3.201907 1_555
K3 O16 2.773936 1_455
K3 O13 2.819113 1_555
K3 O4 2.868298 1_455
K3 O12 2.887710 1_455
K3 O22 2.983733 1_555
K3 O11 3.007657 1_455
K3 O20 3.136174 1_455
K3 O18 3.201907 1_555
K4 O20 2.780597 1_555
K4 O27 2.806965 1_545
K4 O19 2.881460 1_545
K4 O15 2.895047 1_555
K4 O28 2.987740 1_555
K4 O25 3.019783 1_555
K4 O11 3.029136 1_555
K4 O3 3.055808 1_555
K5 O21 2.780597 1_555
K5 O26 2.806965 1_565
K5 O18 2.881460 1_565
K5 O14 2.895047 1_555
K5 O29 2.987740 1_555
K5 O24 3.019783 1_555
K5 O10 3.029136 1_555
K5 O2 3.055808 1_555
Gd0 O2 2.403405 1_555
Gd0 O12 2.422267 1_555
Gd0 O8 2.424201 1_555
Gd0 O10 2.435524 1_655
Gd0 O4 2.446018 1_555
Gd0 O6 2.486400 1_554
Gd0 O0 2.517081 1_555
Gd0 O24 2.525883 1_555
Gd0 O14 2.526595 1_555
Gd1 O3 2.403405 1_555
Gd1 O13 2.422267 1_555
Gd1 O9 2.424201 1_555
Gd1 O11 2.435524 1_455
Gd1 O5 2.446018 1_555
Gd1 O7 2.486400 1_556
Gd1 O1 2.517081 1_555
Gd1 O25 2.525883 1_555
Gd1 O15 2.526595 1_555
H0 O24 0.982773 1_555
H1 O25 0.982773 1_555
H2 O24 1.000766 1_555
H3 O25 1.000766 1_555
H4 O26 0.977609 1_555
H5 O27 0.977609 1_555
H6 O26 0.994632 1_555
H7 O27 0.994632 1_555
H8 O28 0.995347 1_554
H9 O29 0.995347 1_556
H10 O28 0.983930 1_554
H11 O29 0.983930 1_556
C0 O0 1.263537 1_556
C0 O3 1.270462 1_555
C1 O1 1.263537 1_554
C1 O2 1.270462 1_555
C2 O7 1.261329 1_555
C2 O4 1.272791 1_455
C3 O6 1.261329 1_555
C3 O5 1.272791 1_655
C4 O16 1.257681 1_565
C4 O8 1.278393 1_555
C5 O17 1.257681 1_545
C5 O9 1.278393 1_555
C6 O18 1.255710 1_565
C6 O10 1.282154 1_555
C7 O19 1.255710 1_545
C7 O11 1.282154 1_555
C8 O20 1.255673 1_555
C8 O12 1.283842 1_555
C9 O21 1.255673 1_555
C9 O13 1.283842 1_555
C10 O22 1.265065 1_555
C10 O14 1.268120 1_555
C11 O23 1.265065 1_555
C11 O15 1.268120 1_555
