# generated using pymatgen
data_Ca7Al3Si10N21
_symmetry_space_group_name_H-M   'P 1'
_cell_length_a   5.05277800
_cell_length_b   5.65911145
_cell_length_c   34.38679619
_cell_angle_alpha   94.58515766
_cell_angle_beta   90.13392211
_cell_angle_gamma   90.07948762
_symmetry_Int_Tables_number   1
_chemical_formula_structural   Ca7Al3Si10N21
_chemical_formula_sum   'Ca14 Al6 Si20 N42'
_cell_volume   980.11337250
_cell_formula_units_Z   2
loop_
 _symmetry_equiv_pos_site_id
 _symmetry_equiv_pos_as_xyz
  1  'x, y, z'
loop_
 _atom_site_type_symbol
 _atom_site_label
 _atom_site_symmetry_multiplicity
 _atom_site_fract_x
 _atom_site_fract_y
 _atom_site_fract_z
 _atom_site_occupancy
  Ca  Ca0  1  0.49696600  0.69632700  0.99424700  1
  Ca  Ca1  1  0.49341800  0.53390600  0.72008000  1
  Ca  Ca2  1  0.54484100  0.13395500  0.86671600  1
  Ca  Ca3  1  0.49331400  0.95073200  0.56528600  1
  Ca  Ca4  1  0.49407600  0.84165900  0.29015200  1
  Ca  Ca5  1  0.54225800  0.41315200  0.41729800  1
  Ca  Ca6  1  0.48466100  0.24553100  0.14360100  1
  Ca  Ca7  1  0.01670700  0.71533300  0.86655900  1
  Ca  Ca8  1  0.99183100  0.35772800  0.98316100  1
  Ca  Ca9  1  0.01614300  0.99860600  0.41339700  1
  Ca  Ca10  1  0.99690000  0.17301300  0.71225900  1
  Ca  Ca11  1  0.99076500  0.88726500  0.14269300  1
  Ca  Ca12  1  0.98389000  0.52717400  0.31009300  1
  Ca  Ca13  1  0.99691800  0.60295300  0.57097000  1
  Al  Al0  1  0.47537900  0.03952900  0.76495400  1
  Al  Al1  1  0.49918700  0.33458900  0.33397900  1
  Al  Al2  1  0.48394300  0.89316400  0.47544400  1
  Al  Al3  1  0.46519000  0.45018600  0.62286700  1
  Al  Al4  1  0.46343400  0.75231200  0.19192700  1
  Al  Al5  1  0.46200000  0.18363800  0.04880500  1
  Si  Si0  1  0.01181900  0.84821400  0.95107500  1
  Si  Si1  1  0.98340400  0.22710400  0.80690000  1
  Si  Si2  1  0.96004700  0.66131000  0.66714100  1
  Si  Si3  1  0.97408400  0.72566400  0.76608900  1
  Si  Si4  1  0.98244300  0.10303000  0.52193900  1
  Si  Si5  1  0.95935900  0.13769100  0.62152000  1
  Si  Si6  1  0.98625900  0.56845900  0.48107700  1
  Si  Si7  1  0.96302600  0.97010400  0.23466800  1
  Si  Si8  1  0.01619900  0.03431000  0.33251900  1
  Si  Si9  1  0.95798600  0.39084200  0.09251200  1
  Si  Si10  1  0.96386000  0.44139500  0.19244400  1
  Si  Si11  1  0.95579900  0.87348800  0.04910900  1
  Si  Si12  1  0.49478500  0.15450200  0.95076500  1
  Si  Si13  1  0.48594100  0.55528700  0.81048100  1
  Si  Si14  1  0.49453300  0.61634200  0.91164000  1
  Si  Si15  1  0.49055800  0.41795700  0.52353400  1
  Si  Si16  1  0.47160900  0.97199400  0.66522600  1
  Si  Si17  1  0.50691900  0.84054700  0.37234900  1
  Si  Si18  1  0.46409800  0.69893800  0.09215200  1
  Si  Si19  1  0.47488100  0.27955600  0.23499000  1
  N  N0  1  0.67449800  0.87196100  0.93460200  1
  N  N1  1  0.61821000  0.68809500  0.65814500  1
  N  N2  1  0.64178100  0.28484900  0.79512700  1
  N  N3  1  0.64508800  0.14164100  0.51205400  1
  N  N4  1  0.66267700  0.58347800  0.36032700  1
  N  N5  1  0.61480200  0.41847300  0.08447100  1
  N  N6  1  0.62626100  0.99871100  0.22191600  1
  N  N7  1  0.63503000  0.75217500  0.77855000  1
  N  N8  1  0.64270900  0.36816300  0.92552900  1
  N  N9  1  0.65187800  0.62847700  0.49834500  1
  N  N10  1  0.68750700  0.05956300  0.34897100  1
  N  N11  1  0.61796100  0.15163300  0.63215400  1
  N  N12  1  0.61438700  0.88602900  0.06059400  1
  N  N13  1  0.62210100  0.46072600  0.20076200  1
  N  N14  1  0.53201500  0.25546600  0.99961700  1
  N  N15  1  0.50754700  0.10046500  0.71173500  1
  N  N16  1  0.51389000  0.64352500  0.85941300  1
  N  N17  1  0.51218100  0.52719400  0.57307700  1
  N  N18  1  0.51787100  0.39577400  0.28066200  1
  N  N19  1  0.50432600  0.92608600  0.42357600  1
  N  N20  1  0.48946500  0.81835400  0.13944800  1
  N  N21  1  0.13472200  0.85990700  0.49736100  1
  N  N22  1  0.14311000  0.51847000  0.79419400  1
  N  N23  1  0.17662100  0.09116200  0.94089500  1
  N  N24  1  0.17791800  0.61536600  0.92847100  1
  N  N25  1  0.14442800  0.37493200  0.51678000  1
  N  N26  1  0.11987400  0.92806600  0.65238200  1
  N  N27  1  0.09581200  0.42129200  0.63723000  1
  N  N28  1  0.10447300  0.01199700  0.76956600  1
  N  N29  1  0.11416000  0.66218000  0.07966100  1
  N  N30  1  0.13394300  0.22540000  0.21743800  1
  N  N31  1  0.09701500  0.15327700  0.06360100  1
  N  N32  1  0.19770500  0.81562300  0.35131800  1
  N  N33  1  0.09596100  0.72732600  0.20298200  1
  N  N34  1  0.16814600  0.28123700  0.34851500  1
  N  N35  1  0.04015800  0.13172700  0.85031900  1
  N  N36  1  0.99594200  0.78244700  0.00111800  1
  N  N37  1  0.02694900  0.43301700  0.43751400  1
  N  N38  1  0.00827400  0.04589300  0.57345700  1
  N  N39  1  0.00478700  0.61193800  0.71603000  1
  N  N40  1  0.00611800  0.34401700  0.14184900  1
  N  N41  1  0.99947300  0.92614400  0.28191300  1
loop_
_geom_bond_atom_site_label_1
_geom_bond_atom_site_label_2
_geom_bond_distance
_geom_bond_site_symmetry_2
Ca0 N12 2.511948 1_556
Ca0 N0 2.516192 1_555
Ca0 N14 2.522821 1_555
Ca0 N36 2.573959 1_556
Ca0 N36 2.586497 1_456
Ca0 N24 2.782048 1_555
Ca1 N7 2.382012 1_555
Ca1 N15 2.447889 1_555
Ca1 N1 2.448808 1_555
Ca1 N39 2.514226 1_555
Ca1 N39 2.626584 1_655
Ca2 N8 2.378288 1_555
Ca2 N35 2.566567 1_655
Ca2 N35 2.610151 1_555
Ca2 N2 2.714723 1_555
Ca2 N16 2.770836 1_545
Ca2 N16 2.918934 1_555
Ca2 N0 2.936954 1_545
Ca3 N3 2.329466 1_565
Ca3 N17 2.434939 1_555
Ca3 N38 2.521520 1_565
Ca3 N11 2.559232 1_565
Ca3 N38 2.666037 1_665
Ca3 N9 2.933921 1_555
Ca3 N21 2.964525 1_555
Ca4 N10 2.481013 1_565
Ca4 N18 2.521394 1_555
Ca4 N41 2.564393 1_455
Ca4 N32 2.598413 1_555
Ca4 N41 2.617571 1_555
Ca4 N6 2.660975 1_555
Ca5 N4 2.333031 1_555
Ca5 N37 2.544101 1_655
Ca5 N37 2.696691 1_555
Ca5 N19 2.788320 1_545
Ca5 N19 2.900146 1_555
Ca6 N13 2.331826 1_555
Ca6 N20 2.410393 1_545
Ca6 N5 2.418088 1_555
Ca6 N40 2.483802 1_555
Ca6 N40 2.694161 1_655
Ca7 N24 2.387832 1_555
Ca7 N35 2.467497 1_565
Ca7 N16 2.554642 1_555
Ca7 N16 2.580413 1_455
Ca7 N22 2.721650 1_555
Ca8 N23 2.217999 1_655
Ca8 N36 2.433351 1_556
Ca8 N14 2.471403 1_555
Ca8 N24 2.643749 1_655
Ca8 N8 2.654321 1_555
Ca8 N14 2.855595 1_655
Ca8 N31 3.127110 1_656
Ca9 N32 2.475726 1_555
Ca9 N19 2.529268 1_555
Ca9 N37 2.531367 1_565
Ca9 N19 2.646337 1_455
Ca10 N28 2.300538 1_655
Ca10 N26 2.469622 1_645
Ca10 N39 2.477195 1_655
Ca10 N15 2.505671 1_555
Ca10 N15 2.613085 1_655
Ca11 N33 2.386604 1_655
Ca11 N29 2.505251 1_655
Ca11 N20 2.551688 1_655
Ca11 N20 2.563081 1_555
Ca11 N40 2.588350 1_665
Ca12 N34 2.200289 1_655
Ca12 N32 2.336524 1_655
Ca12 N4 2.376156 1_555
Ca12 N41 2.528358 1_555
Ca12 N18 2.642995 1_555
Ca12 N18 2.958861 1_655
Ca13 N25 2.306014 1_655
Ca13 N17 2.488143 1_555
Ca13 N38 2.501837 1_665
Ca13 N27 2.620797 1_655
Ca13 N17 2.640928 1_655
Al0 N2 1.863650 1_555
Al0 N28 1.888446 1_555
Al0 N15 1.896439 1_555
Al0 N7 1.907135 1_545
Al1 N34 1.779182 1_555
Al1 N4 1.810076 1_555
Al1 N18 1.895357 1_555
Al1 N10 1.929685 1_555
Al2 N19 1.811184 1_555
Al2 N21 1.935195 1_555
Al2 N9 1.942380 1_555
Al2 N3 1.983454 1_565
Al3 N17 1.816191 1_555
Al3 N1 1.900967 1_555
Al3 N11 1.908176 1_555
Al3 N27 1.941762 1_555
Al4 N6 1.856774 1_555
Al4 N20 1.876782 1_555
Al4 N13 1.881650 1_555
Al4 N33 1.903477 1_555
Al5 N14 1.806543 1_554
Al5 N5 1.896976 1_555
Al5 N12 1.924848 1_545
Al5 N31 1.925331 1_555
N0 Si0 1.803394 1_655
N0 Si14 1.831197 1_555
N0 Si12 1.885298 1_565
N1 Si2 1.762869 1_555
N1 Si16 1.769407 1_555
N2 Si13 1.765541 1_555
N2 Si1 1.808233 1_555
N3 Si4 1.754730 1_555
N3 Si15 1.765445 1_555
N4 Si17 1.677861 1_555
N5 Si18 1.762391 1_555
N5 Si9 1.764426 1_555
N6 Si7 1.767075 1_555
N6 Si19 1.789942 1_565
N7 Si3 1.770569 1_555
N7 Si13 1.792122 1_555
N8 Si14 1.694015 1_555
N8 Si12 1.715220 1_555
N9 Si15 1.731929 1_555
N9 Si6 1.815647 1_555
N10 Si8 1.758091 1_655
N10 Si17 1.781753 1_545
N11 Si16 1.749374 1_545
N11 Si5 1.764740 1_555
N12 Si18 1.749450 1_555
N12 Si11 1.770861 1_555
N13 Si10 1.753157 1_555
N13 Si19 1.784579 1_555
N14 Si12 1.740275 1_555
N15 Si16 1.712212 1_545
N16 Si13 1.721872 1_555
N16 Si14 1.817555 1_555
N17 Si15 1.768330 1_555
N18 Si19 1.667069 1_555
N19 Si17 1.789215 1_555
N20 Si18 1.714999 1_555
N21 Si4 1.737635 1_465
N21 Si6 1.855675 1_455
N22 Si3 1.793974 1_455
N22 Si13 1.825806 1_555
N22 Si1 1.916768 1_455
N23 Si0 1.667736 1_545
N23 Si12 1.674662 1_555
N24 Si0 1.699192 1_555
N24 Si14 1.702682 1_555
N25 Si4 1.763482 1_455
N25 Si15 1.777587 1_555
N25 Si6 1.886331 1_455
N26 Si2 1.819248 1_455
N26 Si5 1.841536 1_465
N26 Si16 1.842008 1_555
N27 Si2 1.776500 1_455
N27 Si5 1.788733 1_455
N28 Si3 1.743476 1_445
N28 Si1 1.805571 1_455
N29 Si9 1.811793 1_455
N29 Si18 1.826279 1_555
N29 Si11 1.836723 1_455
N30 Si10 1.771658 1_455
N30 Si7 1.822070 1_445
N30 Si19 1.841181 1_555
N31 Si9 1.755407 1_455
N31 Si11 1.770180 1_445
N32 Si8 1.708463 1_565
N32 Si17 1.720975 1_555
N33 Si10 1.759903 1_455
N33 Si7 1.814557 1_455
N34 Si8 1.648288 1_555
N35 Si1 1.652272 1_455
N36 Si11 1.701720 1_555
N36 Si0 1.791405 1_654
N37 Si6 1.640746 1_455
N38 Si5 1.710988 1_455
N38 Si4 1.830452 1_455
N39 Si2 1.740369 1_455
N39 Si3 1.796046 1_455
N40 Si9 1.754350 1_455
N40 Si10 1.795815 1_455
N41 Si7 1.672868 1_555
N41 Si8 1.799700 1_665
