# generated using pymatgen
data_Li2V(Si2O5)3
_symmetry_space_group_name_H-M   'P 1'
_cell_length_a   7.77735287
_cell_length_b   7.97770186
_cell_length_c   9.93530129
_cell_angle_alpha   97.75585529
_cell_angle_beta   96.99760436
_cell_angle_gamma   87.70858254
_symmetry_Int_Tables_number   1
_chemical_formula_structural   Li2V(Si2O5)3
_chemical_formula_sum   'Li4 V2 Si12 O30'
_cell_volume   606.07723345
_cell_formula_units_Z   2
loop_
 _symmetry_equiv_pos_site_id
 _symmetry_equiv_pos_as_xyz
  1  'x, y, z'
loop_
 _atom_site_type_symbol
 _atom_site_label
 _atom_site_symmetry_multiplicity
 _atom_site_fract_x
 _atom_site_fract_y
 _atom_site_fract_z
 _atom_site_occupancy
  Li  Li0  1  0.39052100  0.34682100  0.20720100  1
  Li  Li1  1  0.89045500  0.84678700  0.70710500  1
  Li  Li2  1  0.10961000  0.15314600  0.29292400  1
  Li  Li3  1  0.60968900  0.65322400  0.79294300  1
  V  V0  1  0.49986700  0.49995000  0.50007300  1
  V  V1  1  0.99997900  0.99997200  0.99997200  1
  Si  Si0  1  0.22180000  0.64812100  0.04692500  1
  Si  Si1  1  0.72184100  0.14817800  0.54688300  1
  Si  Si2  1  0.27826300  0.85182700  0.45309400  1
  Si  Si3  1  0.77817100  0.35183100  0.95315800  1
  Si  Si4  1  0.87720300  0.46442000  0.68893400  1
  Si  Si5  1  0.37720700  0.96436800  0.18880700  1
  Si  Si6  1  0.62285800  0.03565300  0.81127300  1
  Si  Si7  1  0.12276400  0.53555800  0.31114900  1
  Si  Si8  1  0.26251700  0.45413400  0.75709900  1
  Si  Si9  1  0.76253700  0.95411900  0.25704200  1
  Si  Si10  1  0.23747300  0.04597500  0.74288900  1
  Si  Si11  1  0.73746300  0.54602300  0.24287100  1
  O  O0  1  0.25011800  0.25003100  0.74967900  1
  O  O1  1  0.75020600  0.75000900  0.24968000  1
  O  O2  1  0.06144600  0.77467100  0.00786600  1
  O  O3  1  0.56146600  0.27475800  0.50776600  1
  O  O4  1  0.43846700  0.72508800  0.49232400  1
  O  O5  1  0.93845400  0.22518400  0.99223700  1
  O  O6  1  0.32341500  0.98218600  0.34787500  1
  O  O7  1  0.82331700  0.48211800  0.84789500  1
  O  O8  1  0.17665600  0.51766900  0.15214100  1
  O  O9  1  0.67681300  0.01801600  0.65230300  1
  O  O10  1  0.73486500  0.58497900  0.61271700  1
  O  O11  1  0.23486300  0.08495400  0.11267100  1
  O  O12  1  0.76500700  0.91475200  0.88731000  1
  O  O13  1  0.26500400  0.41484200  0.38735800  1
  O  O14  1  0.29432200  0.53105700  0.91956200  1
  O  O15  1  0.79427600  0.03113100  0.41952300  1
  O  O16  1  0.20572300  0.96884200  0.58042900  1
  O  O17  1  0.70567000  0.46881800  0.08048200  1
  O  O18  1  0.07335100  0.53395700  0.69484900  1
  O  O19  1  0.57336000  0.03370200  0.19464800  1
  O  O20  1  0.42663600  0.96622100  0.80514200  1
  O  O21  1  0.92657200  0.46614700  0.30522100  1
  O  O22  1  0.88153700  0.26525600  0.62479800  1
  O  O23  1  0.38155900  0.76512200  0.12487000  1
  O  O24  1  0.61837400  0.23491200  0.87519000  1
  O  O25  1  0.11850400  0.73481800  0.37513300  1
  O  O26  1  0.08144900  0.98202500  0.81447300  1
  O  O27  1  0.58133800  0.48204500  0.31433200  1
  O  O28  1  0.41851000  0.51824500  0.68554500  1
  O  O29  1  0.91850400  0.01833800  0.18563400  1
loop_
_geom_bond_atom_site_label_1
_geom_bond_atom_site_label_2
_geom_bond_distance
_geom_bond_site_symmetry_2
Li0 O27 1.983003 1_555
Li0 O13 2.138324 1_555
Li0 O8 2.172967 1_555
Li0 O11 2.471356 1_555
Li1 O26 1.984906 1_655
Li1 O12 2.138385 1_555
Li1 O9 2.173034 1_565
Li1 O10 2.470430 1_555
Li2 O29 1.983515 1_455
Li2 O11 2.138186 1_555
Li2 O6 2.172937 1_545
Li2 O13 2.469069 1_555
Li3 O28 1.984998 1_555
Li3 O10 2.137680 1_555
Li3 O7 2.172698 1_555
Li3 O12 2.467559 1_555
O0 Si8 1.626171 1_555
O0 Si10 1.626597 1_555
O1 Si11 1.626094 1_555
O1 Si9 1.626233 1_555
O2 Si0 1.616266 1_555
O2 V1 1.850804 1_454
O3 Si1 1.616666 1_555
O3 V0 1.849902 1_555
O4 Si2 1.616767 1_555
O4 V0 1.849232 1_555
O5 Si3 1.616400 1_555
O5 V1 1.849991 1_545
O6 Si2 1.646131 1_555
O6 Si5 1.669900 1_555
O7 Si3 1.646025 1_555
O7 Si4 1.669190 1_555
O8 Si0 1.646627 1_555
O8 Si7 1.669577 1_555
O9 Si1 1.646177 1_555
O9 Si6 1.669497 1_555
O10 Si4 1.622066 1_555
O10 V0 2.109229 1_555
O11 Si5 1.621857 1_545
O11 V1 2.108608 1_444
O12 Si6 1.622071 1_565
O12 V1 2.109567 1_555
O13 Si7 1.622359 1_555
O13 V0 2.108822 1_555
O14 Si0 1.613795 1_556
O14 Si8 1.640323 1_555
O15 Si1 1.613425 1_555
O15 Si9 1.640639 1_545
O16 Si2 1.613466 1_555
O16 Si10 1.640692 1_565
O17 Si3 1.613154 1_554
O17 Si11 1.640204 1_555
O18 Si4 1.635669 1_455
O18 Si8 1.661978 1_555
O19 Si5 1.635195 1_545
O19 Si9 1.661740 1_545
O20 Si6 1.635636 1_565
O20 Si10 1.661749 1_565
O21 Si7 1.635602 1_655
O21 Si11 1.662095 1_555
O22 Si4 1.630758 1_555
O22 Si1 1.636329 1_555
O23 Si5 1.630848 1_555
O23 Si0 1.636444 1_555
O24 Si6 1.630922 1_555
O24 Si3 1.636376 1_555
O25 Si7 1.631052 1_555
O25 Si2 1.636527 1_555
O26 Si10 1.611298 1_565
O26 V1 2.006150 1_455
O27 Si11 1.611329 1_555
O27 V0 2.008453 1_555
O28 Si8 1.611451 1_555
O28 V0 2.005343 1_555
O29 Si9 1.610801 1_545
O29 V1 2.007485 1_544
