# generated using pymatgen
data_Li32Mn13Cr3O48
_symmetry_space_group_name_H-M   'P 1'
_cell_length_a   5.00638000
_cell_length_b   8.66911006
_cell_length_c   19.45740596
_cell_angle_alpha   98.23337948
_cell_angle_beta   94.77973532
_cell_angle_gamma   89.94456873
_symmetry_Int_Tables_number   1
_chemical_formula_structural   Li32Mn13Cr3O48
_chemical_formula_sum   'Li32 Mn13 Cr3 O48'
_cell_volume   832.80624154
_cell_formula_units_Z   1
loop_
 _symmetry_equiv_pos_site_id
 _symmetry_equiv_pos_as_xyz
  1  'x, y, z'
loop_
 _atom_site_type_symbol
 _atom_site_label
 _atom_site_symmetry_multiplicity
 _atom_site_fract_x
 _atom_site_fract_y
 _atom_site_fract_z
 _atom_site_occupancy
  Li  Li0  1  0.99269400  0.16813800  0.24973900  1
  Li  Li1  1  0.87571800  0.37566200  0.37524200  1
  Li  Li2  1  0.74978200  0.25008700  0.00026600  1
  Li  Li3  1  0.74570500  0.92056300  0.00066200  1
  Li  Li4  1  0.99250700  0.16820900  0.74965500  1
  Li  Li5  1  0.75586500  0.58050200  0.49907700  1
  Li  Li6  1  0.87434000  0.37451500  0.87476900  1
  Li  Li7  1  0.74646600  0.24935300  0.49959900  1
  Li  Li8  1  0.74271200  0.91991400  0.50072700  1
  Li  Li9  1  0.62480500  0.12506700  0.12505400  1
  Li  Li10  1  0.75658800  0.57982400  0.00042800  1
  Li  Li11  1  0.50775800  0.33269800  0.25057400  1
  Li  Li12  1  0.62441700  0.12566100  0.62504000  1
  Li  Li13  1  0.50171200  0.99906300  0.25044200  1
  Li  Li14  1  0.49364600  0.66820700  0.24990800  1
  Li  Li15  1  0.51105400  0.33162200  0.75078900  1
  Li  Li16  1  0.37927600  0.87573500  0.37466900  1
  Li  Li17  1  0.49922600  0.00100900  0.74965800  1
  Li  Li18  1  0.25005700  0.75056700  0.00020800  1
  Li  Li19  1  0.49172600  0.66720100  0.74985200  1
  Li  Li20  1  0.24473000  0.41995500  0.00033200  1
  Li  Li21  1  0.37194800  0.87557900  0.87528200  1
  Li  Li22  1  0.25628900  0.08130600  0.49980600  1
  Li  Li23  1  0.25209200  0.74810500  0.49973800  1
  Li  Li24  1  0.12492400  0.62510000  0.12505500  1
  Li  Li25  1  0.24545700  0.41973800  0.49932600  1
  Li  Li26  1  0.00523200  0.83274200  0.24996000  1
  Li  Li27  1  0.25436900  0.07951900  0.99962600  1
  Li  Li28  1  0.12457900  0.62713400  0.62480400  1
  Li  Li29  1  0.99852300  0.49893000  0.24959500  1
  Li  Li30  1  0.00926000  0.83135300  0.74994800  1
  Li  Li31  1  0.99721600  0.49997300  0.75041600  1
  Mn  Mn0  1  0.87378300  0.04157900  0.37436500  1
  Mn  Mn1  1  0.87742900  0.04278100  0.87588200  1
  Mn  Mn2  1  0.62578300  0.79151100  0.12517100  1
  Mn  Mn3  1  0.62446700  0.45854300  0.12520700  1
  Mn  Mn4  1  0.62597200  0.79128300  0.62487100  1
  Mn  Mn5  1  0.62416600  0.45907500  0.62470700  1
  Mn  Mn6  1  0.37706500  0.54128900  0.37537000  1
  Mn  Mn7  1  0.37332800  0.20857700  0.37492000  1
  Mn  Mn8  1  0.37288600  0.53990900  0.87425300  1
  Mn  Mn9  1  0.37501500  0.20839900  0.87503900  1
  Mn  Mn10  1  0.12476500  0.95856800  0.12508800  1
  Mn  Mn11  1  0.12587000  0.29150600  0.12514200  1
  Mn  Mn12  1  0.12525400  0.95760600  0.62499600  1
  Cr  Cr0  1  0.88164700  0.71029500  0.37484300  1
  Cr  Cr1  1  0.86755700  0.70928400  0.87535200  1
  Cr  Cr2  1  0.12576800  0.29545000  0.62484900  1
  O  O0  1  0.96366100  0.10677700  0.06903900  1
  O  O1  1  0.92787200  0.78499300  0.06893300  1
  O  O2  1  0.92741100  0.42755500  0.06800100  1
  O  O3  1  0.96770800  0.10602900  0.56919300  1
  O  O4  1  0.82245600  0.96496500  0.18074800  1
  O  O5  1  0.82270600  0.32243700  0.18181100  1
  O  O6  1  0.92777900  0.78481000  0.56918400  1
  O  O7  1  0.92751700  0.42541800  0.56844000  1
  O  O8  1  0.78624700  0.64336400  0.18092100  1
  O  O9  1  0.71094600  0.86115600  0.31785100  1
  O  O10  1  0.82238200  0.96484500  0.68093900  1
  O  O11  1  0.81738300  0.32383300  0.68259600  1
  O  O12  1  0.67512600  0.53532900  0.31891900  1
  O  O13  1  0.67660000  0.17879800  0.31808100  1
  O  O14  1  0.78704600  0.64326100  0.68094600  1
  O  O15  1  0.72065800  0.85585900  0.81918200  1
  O  O16  1  0.46383800  0.60651900  0.06897000  1
  O  O17  1  0.56928400  0.71388900  0.43126000  1
  O  O18  1  0.57166700  0.07231000  0.43203900  1
  O  O19  1  0.67342400  0.53259800  0.81841900  1
  O  O20  1  0.67714200  0.17738900  0.81808100  1
  O  O21  1  0.42788900  0.92744300  0.06808900  1
  O  O22  1  0.42811400  0.28519200  0.06903200  1
  O  O23  1  0.53854600  0.39222800  0.43118800  1
  O  O24  1  0.46293800  0.60663500  0.56933100  1
  O  O25  1  0.57251600  0.71293200  0.93073000  1
  O  O26  1  0.57259300  0.07230800  0.93173300  1
  O  O27  1  0.32251000  0.82256200  0.18174900  1
  O  O28  1  0.32209200  0.46473100  0.18084500  1
  O  O29  1  0.42770900  0.92737200  0.56833100  1
  O  O30  1  0.43366600  0.28609500  0.56835400  1
  O  O31  1  0.53595000  0.39306000  0.93074000  1
  O  O32  1  0.28611600  0.14330800  0.18087800  1
  O  O33  1  0.21323900  0.35561900  0.31911600  1
  O  O34  1  0.32293700  0.82164900  0.68197500  1
  O  O35  1  0.32103200  0.46167600  0.68067000  1
  O  O36  1  0.17568500  0.67523200  0.31799700  1
  O  O37  1  0.17758400  0.03504500  0.31908500  1
  O  O38  1  0.28418900  0.14223300  0.68092000  1
  O  O39  1  0.21162700  0.35561700  0.81871500  1
  O  O40  1  0.07759000  0.56963200  0.43324500  1
  O  O41  1  0.07216000  0.21508700  0.43119300  1
  O  O42  1  0.17912900  0.67675700  0.81772200  1
  O  O43  1  0.17865100  0.03490800  0.81913400  1
  O  O44  1  0.03170400  0.89374900  0.43098200  1
  O  O45  1  0.07336200  0.57468800  0.93166200  1
  O  O46  1  0.07227800  0.21609300  0.93085800  1
  O  O47  1  0.03791200  0.89732400  0.93186700  1
loop_
_geom_bond_atom_site_label_1
_geom_bond_atom_site_label_2
_geom_bond_distance
_geom_bond_site_symmetry_2
Li0 O32 2.060157 1_655
Li0 O37 2.060174 1_655
Li0 O5 2.139420 1_555
Li0 O13 2.143891 1_555
Li0 O4 2.183051 1_545
Li0 O33 2.193083 1_655
Li1 O23 2.077488 1_555
Li1 O33 2.081032 1_655
Li1 O41 2.084019 1_655
Li1 O12 2.091360 1_555
Li1 O40 2.095801 1_655
Li1 O13 2.101955 1_555
Li2 O2 2.030108 1_555
Li2 O26 2.038925 1_554
Li2 O0 2.171505 1_555
Li2 O22 2.172040 1_555
Li2 O31 2.179135 1_554
Li2 O46 2.183092 1_654
Li3 O1 2.054450 1_555
Li3 O47 2.054499 1_654
Li3 O21 2.140488 1_555
Li3 O26 2.142382 1_564
Li3 O0 2.170957 1_565
Li3 O25 2.224433 1_554
Li4 O38 2.051907 1_655
Li4 O43 2.065637 1_655
Li4 O20 2.142752 1_555
Li4 O11 2.145351 1_555
Li4 O10 2.181559 1_545
Li4 O39 2.186564 1_655
Li5 O17 2.044599 1_555
Li5 O24 2.077324 1_555
Li5 O40 2.133748 1_655
Li5 O7 2.166026 1_555
Li5 O23 2.176924 1_555
Li5 O6 2.203149 1_555
Li6 O46 2.074997 1_655
Li6 O39 2.079164 1_655
Li6 O19 2.082284 1_555
Li6 O31 2.082949 1_555
Li6 O20 2.096083 1_555
Li6 O45 2.121057 1_655
Li7 O18 2.020520 1_555
Li7 O7 2.039660 1_555
Li7 O30 2.137665 1_555
Li7 O23 2.151346 1_555
Li7 O41 2.183116 1_655
Li7 O3 2.198526 1_555
Li8 O44 2.055407 1_655
Li8 O6 2.059972 1_555
Li8 O29 2.131339 1_555
Li8 O18 2.139553 1_565
Li8 O3 2.187362 1_565
Li8 O17 2.210608 1_555
Li9 O4 2.080689 1_545
Li9 O22 2.082459 1_555
Li9 O32 2.082573 1_555
Li9 O0 2.085442 1_555
Li9 O5 2.099653 1_555
Li9 O21 2.100676 1_545
Li10 O16 2.053509 1_555
Li10 O25 2.063437 1_554
Li10 O2 2.123694 1_555
Li10 O45 2.154929 1_654
Li10 O31 2.192080 1_554
Li10 O1 2.192946 1_555
Li11 O33 2.059956 1_555
Li11 O28 2.060932 1_555
Li11 O13 2.129450 1_555
Li11 O5 2.145080 1_555
Li11 O12 2.168952 1_555
Li11 O32 2.209296 1_555
Li12 O30 2.079456 1_555
Li12 O10 2.088257 1_545
Li12 O38 2.089858 1_555
Li12 O11 2.100177 1_555
Li12 O3 2.102661 1_555
Li12 O29 2.102664 1_545
Li13 O27 2.037070 1_555
Li13 O13 2.037094 1_565
Li13 O9 2.112958 1_555
Li13 O4 2.179893 1_555
Li13 O37 2.180649 1_565
Li13 O32 2.190763 1_565
Li14 O12 2.047719 1_555
Li14 O8 2.058714 1_555
Li14 O27 2.144788 1_555
Li14 O36 2.149648 1_555
Li14 O28 2.187840 1_555
Li14 O9 2.204447 1_555
Li15 O35 2.063918 1_555
Li15 O39 2.070756 1_555
Li15 O11 2.104826 1_555
Li15 O20 2.123980 1_555
Li15 O19 2.143774 1_555
Li15 O38 2.222784 1_555
Li16 O9 2.064174 1_555
Li16 O37 2.083208 1_565
Li16 O17 2.085967 1_555
Li16 O18 2.087345 1_565
Li16 O44 2.126272 1_555
Li16 O36 2.131490 1_555
Li17 O20 2.031210 1_555
Li17 O34 2.037993 1_545
Li17 O38 2.161744 1_555
Li17 O43 2.176332 1_555
Li17 O10 2.177838 1_545
Li17 O15 2.208432 1_545
Li18 O45 2.027231 1_554
Li18 O21 2.028526 1_555
Li18 O1 2.173274 1_455
Li18 O16 2.175376 1_555
Li18 O47 2.182065 1_554
Li18 O25 2.185512 1_554
Li19 O19 2.051972 1_555
Li19 O14 2.067995 1_555
Li19 O42 2.124328 1_555
Li19 O34 2.137605 1_555
Li19 O35 2.200252 1_555
Li19 O15 2.218618 1_555
Li20 O22 2.057977 1_555
Li20 O31 2.061906 1_554
Li20 O2 2.141305 1_455
Li20 O45 2.154237 1_554
Li20 O16 2.177918 1_555
Li20 O46 2.195515 1_554
Li21 O47 2.071507 1_555
Li21 O43 2.071538 1_565
Li21 O26 2.099291 1_565
Li21 O25 2.100656 1_555
Li21 O42 2.104085 1_555
Li21 O15 2.128851 1_555
Li22 O3 2.048794 1_455
Li22 O41 2.052658 1_555
Li22 O18 2.134221 1_555
Li22 O29 2.147498 1_545
Li22 O44 2.197767 1_545
Li22 O30 2.201548 1_555
Li23 O40 2.017884 1_555
Li23 O29 2.045113 1_555
Li23 O17 2.150227 1_555
Li23 O24 2.164916 1_555
Li23 O6 2.191976 1_455
Li23 O44 2.199179 1_555
Li24 O28 2.082442 1_555
Li24 O1 2.082873 1_455
Li24 O8 2.082994 1_455
Li24 O16 2.086482 1_555
Li24 O27 2.099114 1_555
Li24 O2 2.102088 1_455
Li25 O23 2.049528 1_555
Li25 O30 2.065599 1_555
Li25 O40 2.084317 1_555
Li25 O7 2.163806 1_455
Li25 O24 2.188640 1_555
Li25 O41 2.189846 1_555
Li26 O4 2.049269 1_455
Li26 O9 2.051036 1_455
Li26 O27 2.147054 1_555
Li26 O36 2.161583 1_555
Li26 O37 2.182482 1_565
Li26 O8 2.197304 1_455
Li27 O0 2.057578 1_456
Li27 O46 2.066780 1_555
Li27 O21 2.138969 1_546
Li27 O47 2.139173 1_545
Li27 O26 2.148027 1_555
Li27 O22 2.208404 1_556
Li28 O6 2.062465 1_455
Li28 O24 2.077321 1_555
Li28 O14 2.081285 1_455
Li28 O34 2.085425 1_555
Li28 O35 2.114708 1_555
Li28 O7 2.123148 1_455
Li29 O5 2.021497 1_555
Li29 O36 2.029105 1_655
Li29 O8 2.173164 1_555
Li29 O28 2.179000 1_655
Li29 O33 2.182943 1_655
Li29 O12 2.186636 1_555
Li30 O15 2.046765 1_455
Li30 O10 2.061820 1_455
Li30 O34 2.129884 1_555
Li30 O42 2.139034 1_555
Li30 O43 2.185770 1_565
Li30 O14 2.196953 1_455
Li31 O11 2.027590 1_555
Li31 O42 2.030348 1_655
Li31 O19 2.169758 1_555
Li31 O14 2.172229 1_555
Li31 O39 2.172639 1_655
Li31 O35 2.194663 1_655
Mn0 O9 1.918501 1_545
Mn0 O37 1.930911 1_655
Mn0 O44 1.933459 1_645
Mn0 O13 1.944118 1_555
Mn0 O18 1.953051 1_555
Mn0 O41 1.953203 1_655
Mn1 O47 1.915156 1_645
Mn1 O46 1.929205 1_655
Mn1 O43 1.937451 1_655
Mn1 O26 1.942032 1_555
Mn1 O15 1.950669 1_545
Mn1 O20 1.953895 1_555
Mn2 O8 1.929578 1_555
Mn2 O1 1.935395 1_555
Mn2 O4 1.938983 1_555
Mn2 O16 1.943584 1_555
Mn2 O27 1.944858 1_555
Mn2 O21 1.947564 1_555
Mn3 O28 1.929445 1_555
Mn3 O16 1.934694 1_555
Mn3 O8 1.938306 1_555
Mn3 O22 1.942360 1_555
Mn3 O5 1.943699 1_555
Mn3 O2 1.950962 1_555
Mn4 O6 1.927546 1_555
Mn4 O14 1.933842 1_555
Mn4 O24 1.938161 1_555
Mn4 O29 1.942892 1_555
Mn4 O10 1.942910 1_555
Mn4 O34 1.949826 1_555
Mn5 O24 1.922678 1_555
Mn5 O30 1.928252 1_555
Mn5 O35 1.938457 1_555
Mn5 O14 1.940434 1_555
Mn5 O11 1.942540 1_555
Mn5 O7 1.942910 1_555
Mn6 O12 1.921601 1_555
Mn6 O17 1.926107 1_555
Mn6 O23 1.938193 1_555
Mn6 O40 1.943638 1_555
Mn6 O36 1.947401 1_555
Mn6 O33 1.951893 1_555
Mn7 O33 1.922407 1_555
Mn7 O41 1.932007 1_555
Mn7 O37 1.939348 1_555
Mn7 O23 1.941641 1_555
Mn7 O13 1.947374 1_555
Mn7 O18 1.951026 1_555
Mn8 O19 1.923692 1_555
Mn8 O39 1.932519 1_555
Mn8 O31 1.935021 1_555
Mn8 O42 1.936997 1_555
Mn8 O45 1.941407 1_555
Mn8 O25 1.950403 1_555
Mn9 O46 1.932491 1_555
Mn9 O31 1.935596 1_555
Mn9 O39 1.936008 1_555
Mn9 O43 1.941082 1_555
Mn9 O26 1.943151 1_555
Mn9 O20 1.944629 1_555
Mn10 O4 1.929341 1_455
Mn10 O0 1.934788 1_465
Mn10 O32 1.937585 1_565
Mn10 O27 1.942637 1_555
Mn10 O1 1.944793 1_455
Mn10 O21 1.949296 1_555
Mn11 O32 1.929336 1_555
Mn11 O22 1.934573 1_555
Mn11 O28 1.937553 1_555
Mn11 O0 1.941596 1_455
Mn11 O5 1.945431 1_455
Mn11 O2 1.950269 1_455
Mn12 O3 1.926672 1_465
Mn12 O38 1.933464 1_565
Mn12 O10 1.934743 1_455
Mn12 O6 1.938736 1_455
Mn12 O29 1.942119 1_555
Mn12 O34 1.945995 1_555
Cr0 O44 1.911766 1_655
Cr0 O36 1.912318 1_655
Cr0 O12 1.973967 1_555
Cr0 O9 1.981345 1_555
Cr0 O17 1.981833 1_555
Cr0 O40 1.987303 1_655
Cr1 O25 1.897158 1_555
Cr1 O15 1.900513 1_555
Cr1 O45 1.949160 1_655
Cr1 O19 1.963508 1_555
Cr1 O47 1.981645 1_655
Cr1 O42 1.992510 1_655
Cr2 O35 1.894570 1_555
Cr2 O7 1.905180 1_455
Cr2 O3 1.961073 1_455
Cr2 O30 1.961531 1_555
Cr2 O38 1.962746 1_555
Cr2 O11 1.978842 1_455
