# generated using pymatgen
data_HgBiO3
_symmetry_space_group_name_H-M   'P 1'
_cell_length_a   6.12275912
_cell_length_b   6.12275912
_cell_length_c   6.12275911
_cell_angle_alpha   57.98285020
_cell_angle_beta   57.98285020
_cell_angle_gamma   57.98284921
_symmetry_Int_Tables_number   1
_chemical_formula_structural   HgBiO3
_chemical_formula_sum   'Hg2 Bi2 O6'
_cell_volume   154.79235641
_cell_formula_units_Z   2
loop_
 _symmetry_equiv_pos_site_id
 _symmetry_equiv_pos_as_xyz
  1  'x, y, z'
loop_
 _atom_site_type_symbol
 _atom_site_label
 _atom_site_symmetry_multiplicity
 _atom_site_fract_x
 _atom_site_fract_y
 _atom_site_fract_z
 _atom_site_occupancy
  Hg  Hg0  1  0.75000000  0.75000000  0.75000000  1
  Hg  Hg1  1  0.25000000  0.25000000  0.25000000  1
  Bi  Bi0  1  0.50000000  0.50000000  0.50000000  1
  Bi  Bi1  1  0.00000000  0.00000000  0.00000000  1
  O  O0  1  0.25000000  0.62684100  0.87315900  1
  O  O1  1  0.12684100  0.75000000  0.37315900  1
  O  O2  1  0.37315900  0.12684100  0.75000000  1
  O  O3  1  0.62684100  0.87315900  0.25000000  1
  O  O4  1  0.87315900  0.25000000  0.62684100  1
  O  O5  1  0.75000000  0.37315900  0.12684100  1
loop_
_geom_bond_atom_site_label_1
_geom_bond_atom_site_label_2
_geom_bond_distance
_geom_bond_site_symmetry_2
Hg0 O2 2.236605 1_565
Hg0 O5 2.236605 1_556
Hg0 O1 2.236605 1_655
Hg1 O3 2.236605 1_545
Hg1 O4 2.236605 1_455
Hg1 O0 2.236605 1_554
Bi0 O4 2.253651 1_555
Bi0 O1 2.253651 1_555
Bi0 O5 2.253651 1_555
Bi0 O0 2.253651 1_555
Bi0 O2 2.253651 1_555
Bi0 O3 2.253651 1_555
Bi1 O0 2.253651 1_544
Bi1 O5 2.253651 1_455
Bi1 O4 2.253651 1_454
Bi1 O1 2.253651 1_545
Bi1 O3 2.253651 1_445
Bi1 O2 2.253651 1_554
