# generated using pymatgen
data_Li2VO2F
_symmetry_space_group_name_H-M   'P 1'
_cell_length_a   5.19696600
_cell_length_b   6.03039516
_cell_length_c   7.35928439
_cell_angle_alpha   89.98357476
_cell_angle_beta   89.73945702
_cell_angle_gamma   89.98678388
_symmetry_Int_Tables_number   1
_chemical_formula_structural   Li2VO2F
_chemical_formula_sum   'Li8 V4 O8 F4'
_cell_volume   230.63579618
_cell_formula_units_Z   4
loop_
 _symmetry_equiv_pos_site_id
 _symmetry_equiv_pos_as_xyz
  1  'x, y, z'
loop_
 _atom_site_type_symbol
 _atom_site_label
 _atom_site_symmetry_multiplicity
 _atom_site_fract_x
 _atom_site_fract_y
 _atom_site_fract_z
 _atom_site_occupancy
  Li  Li0  1  0.35199800  0.98119500  0.85726400  1
  Li  Li1  1  0.64950400  0.98000600  0.14747200  1
  Li  Li2  1  0.16123300  0.24099400  0.14551000  1
  Li  Li3  1  0.83048900  0.24578300  0.84883900  1
  Li  Li4  1  0.66916200  0.51915300  0.13577600  1
  Li  Li5  1  0.34636000  0.51944200  0.85676300  1
  Li  Li6  1  0.80562200  0.75524300  0.85722000  1
  Li  Li7  1  0.18395000  0.75945200  0.13475500  1
  V  V0  1  0.00462300  0.00007000  0.50040300  1
  V  V1  1  0.50507100  0.24559500  0.50641100  1
  V  V2  1  0.98739200  0.49980100  0.50512500  1
  V  V3  1  0.50524100  0.75581400  0.50643000  1
  O  O0  1  0.67688400  0.00217300  0.65423100  1
  O  O1  1  0.34178100  0.00169600  0.35386900  1
  O  O2  1  0.16639100  0.25487900  0.64390800  1
  O  O3  1  0.83085400  0.25464300  0.35216200  1
  O  O4  1  0.65284000  0.49925200  0.65127600  1
  O  O5  1  0.16933700  0.74327700  0.64359800  1
  O  O6  1  0.83264700  0.74818600  0.35458700  1
  O  O7  1  0.49878500  0.74904100  0.00326100  1
  F  F0  1  0.00076500  0.00655900  0.99948900  1
  F  F1  1  0.49847100  0.24986800  0.00292800  1
  F  F2  1  0.32869800  0.49765600  0.33884800  1
  F  F3  1  0.00190300  0.49018400  0.99987900  1
loop_
_geom_bond_atom_site_label_1
_geom_bond_atom_site_label_2
_geom_bond_distance
_geom_bond_site_symmetry_2
Li0 O7 1.924159 1_556
Li0 O0 2.253083 1_565
Li0 O5 2.334019 1_555
Li0 O2 2.476137 1_565
Li1 O7 1.920598 1_555
Li1 O1 2.204477 1_565
Li1 O6 2.279212 1_555
Li1 O3 2.432152 1_565
Li2 O3 2.289952 1_455
Li2 O1 2.307653 1_555
Li3 O0 2.204240 1_555
Li3 O2 2.302375 1_655
Li3 O4 2.304974 1_555
Li4 O7 1.914011 1_555
Li4 O6 2.288398 1_555
Li4 O3 2.407580 1_555
Li5 O7 1.927696 1_556
Li5 O4 2.194698 1_555
Li5 O5 2.267301 1_555
Li5 O2 2.426804 1_555
Li6 O7 1.919306 1_556
Li6 O0 2.214487 1_565
Li6 O4 2.307256 1_555
Li6 O5 2.454100 1_655
Li7 O7 1.898179 1_555
Li7 O1 2.328298 1_565
Li7 O6 2.434802 1_455
O0 V1 2.035395 1_555
O0 V0 2.040894 1_655
O0 V3 2.048490 1_545
O1 V1 2.038096 1_555
O1 V3 2.046441 1_545
O1 V0 2.053297 1_555
O2 V2 2.024133 1_455
O2 V1 2.027019 1_555
O2 V0 2.047646 1_555
O3 V2 2.030891 1_555
O3 V1 2.034854 1_555
O3 V0 2.090414 1_655
O4 V1 2.018683 1_555
O4 V3 2.030849 1_555
O4 V2 2.040287 1_555
O5 V3 2.013980 1_555
O5 V2 2.024503 1_455
O5 V0 2.061064 1_565
O6 V2 2.030827 1_555
O6 V3 2.031917 1_555
O6 V0 2.065881 1_665
F0 Li2 1.964298 1_556
F0 Li3 2.025043 1_455
F0 Li7 2.030992 1_546
F0 Li6 2.105429 1_445
F0 Li0 2.105563 1_545
F0 Li1 2.127449 1_446
F1 Li2 2.039324 1_555
F1 Li3 2.060590 1_554
F1 Li0 2.088694 1_544
F1 Li4 2.095049 1_555
F1 Li1 2.098092 1_545
F1 Li5 2.104951 1_554
F2 V2 2.150355 1_455
F2 V1 2.163297 1_555
F2 V3 2.190533 1_555
F2 Li2 2.278296 1_555
F2 Li7 2.307073 1_555
F2 Li4 2.314494 1_555
F3 Li4 2.001310 1_456
F3 Li2 2.024596 1_556
F3 Li3 2.052281 1_455
F3 Li5 2.080358 1_555
F3 Li7 2.127722 1_556
F3 Li6 2.169262 1_455
