# generated using pymatgen
data_Li11Mn12(BO3)12
_symmetry_space_group_name_H-M   'P 1'
_cell_length_a   8.85187000
_cell_length_b   8.88994591
_cell_length_c   10.43594806
_cell_angle_alpha   98.72590974
_cell_angle_beta   98.41556243
_cell_angle_gamma   107.88069363
_symmetry_Int_Tables_number   1
_chemical_formula_structural   Li11Mn12(BO3)12
_chemical_formula_sum   'Li11 Mn12 B12 O36'
_cell_volume   756.09627770
_cell_formula_units_Z   1
loop_
 _symmetry_equiv_pos_site_id
 _symmetry_equiv_pos_as_xyz
  1  'x, y, z'
loop_
 _atom_site_type_symbol
 _atom_site_label
 _atom_site_symmetry_multiplicity
 _atom_site_fract_x
 _atom_site_fract_y
 _atom_site_fract_z
 _atom_site_occupancy
  Li  Li0  1  0.72118000  0.73907900  0.02165500  1
  Li  Li1  1  0.97104600  0.98833000  0.27082200  1
  Li  Li2  1  0.06285600  0.34531800  0.04576000  1
  Li  Li3  1  0.56332500  0.84571500  0.54547700  1
  Li  Li4  1  0.34089700  0.04096400  0.06117900  1
  Li  Li5  1  0.59123200  0.29109800  0.30908400  1
  Li  Li6  1  0.84030300  0.54114300  0.55649800  1
  Li  Li7  1  0.47036400  0.48781900  0.77071800  1
  Li  Li8  1  0.22131500  0.23760400  0.51927900  1
  Li  Li9  1  0.81309700  0.09585500  0.79618400  1
  Li  Li10  1  0.09139700  0.79127800  0.80846900  1
  Mn  Mn0  1  0.93688100  0.92856000  0.56674100  1
  Mn  Mn1  1  0.43385800  0.43001500  0.07067000  1
  Mn  Mn2  1  0.68088000  0.67844800  0.31749100  1
  Mn  Mn3  1  0.98488000  0.35274500  0.33518300  1
  Mn  Mn4  1  0.72829900  0.10107800  0.08705400  1
  Mn  Mn5  1  0.08650200  0.71983000  0.09841900  1
  Mn  Mn6  1  0.33498700  0.96422600  0.34860100  1
  Mn  Mn7  1  0.47691600  0.84908600  0.83557800  1
  Mn  Mn8  1  0.23117200  0.59775800  0.58059500  1
  Mn  Mn9  1  0.83440500  0.47468000  0.84500700  1
  Mn  Mn10  1  0.58491500  0.22315100  0.59656000  1
  Mn  Mn11  1  0.18891600  0.17819900  0.81831500  1
  B  B0  1  0.79089800  0.45947400  0.12530800  1
  B  B1  1  0.45915600  0.79709400  0.12353800  1
  B  B2  1  0.29119200  0.95745600  0.62436200  1
  B  B3  1  0.03693700  0.70828600  0.37646300  1
  B  B4  1  0.99907300  0.99850300  0.99992100  1
  B  B5  1  0.50568400  0.50069900  0.50415400  1
  B  B6  1  0.24807500  0.24139700  0.24813800  1
  B  B7  1  0.75011200  0.75096700  0.75033000  1
  B  B8  1  0.95918200  0.29152900  0.62468300  1
  B  B9  1  0.70907400  0.04323500  0.37343400  1
  B  B10  1  0.54127500  0.20884400  0.87573400  1
  B  B11  1  0.20942900  0.54277900  0.87352000  1
  O  O0  1  0.88263000  0.96329300  0.07776400  1
  O  O1  1  0.83067700  0.57820300  0.04992900  1
  O  O2  1  0.49716400  0.91106100  0.04494400  1
  O  O3  1  0.54622300  0.69205800  0.13221400  1
  O  O4  1  0.79908800  0.94131300  0.37959300  1
  O  O5  1  0.87840400  0.35353200  0.13088000  1
  O  O6  1  0.90905500  0.69987200  0.44270300  1
  O  O7  1  0.66543400  0.44800000  0.19326200  1
  O  O8  1  0.33432000  0.79455200  0.18967300  1
  O  O9  1  0.07873900  0.82670000  0.29964200  1
  O  O10  1  0.99132300  0.40886200  0.54983500  1
  O  O11  1  0.74232400  0.16167600  0.29901300  1
  O  O12  1  0.76271700  0.87832900  0.68480800  1
  O  O13  1  0.25119500  0.35120200  0.16882300  1
  O  O14  1  0.52925000  0.63262500  0.44780300  1
  O  O15  1  0.35763500  0.15561700  0.24750000  1
  O  O16  1  0.85522400  0.66207500  0.74043000  1
  O  O17  1  0.60604800  0.40600100  0.49184400  1
  O  O18  1  0.38279900  0.85604800  0.63383000  1
  O  O19  1  0.12173700  0.60467300  0.38629400  1
  O  O20  1  0.16694000  0.94671600  0.69335800  1
  O  O21  1  0.58345700  0.02624600  0.44313700  1
  O  O22  1  0.83503500  0.27530700  0.69543300  1
  O  O23  1  0.38430500  0.45938700  0.57822700  1
  O  O24  1  0.63285400  0.71225000  0.82716200  1
  O  O25  1  0.13288700  0.20955500  0.32837400  1
  O  O26  1  0.32574800  0.07086700  0.54390400  1
  O  O27  1  0.57762100  0.32551200  0.79864800  1
  O  O28  1  0.24155300  0.65978700  0.79765700  1
  O  O29  1  0.10416000  0.90961100  0.99210400  1
  O  O30  1  0.29960800  0.44047500  0.88023500  1
  O  O31  1  0.04980900  0.18889400  0.63047300  1
  O  O32  1  0.63094500  0.10470500  0.88251200  1
  O  O33  1  0.41652300  0.19632800  0.94440400  1
  O  O34  1  0.08499500  0.52770300  0.94420200  1
  O  O35  1  0.00865100  0.12165600  0.92960800  1
loop_
_geom_bond_atom_site_label_1
_geom_bond_atom_site_label_2
_geom_bond_distance
_geom_bond_site_symmetry_2
Li0 O1 1.991855 1_555
Li0 O0 2.002500 1_555
Li0 O24 2.015450 1_554
Li0 O3 2.043587 1_555
Li1 O25 1.985074 1_665
Li1 O9 1.988007 1_655
Li1 O0 2.004168 1_555
Li1 O4 2.009770 1_555
Li2 O13 1.931545 1_555
Li2 O5 1.984526 1_455
Li2 O35 2.041000 1_554
Li2 O34 2.043939 1_554
Li3 O14 1.921415 1_555
Li3 O18 1.976843 1_555
Li3 O12 2.029822 1_555
Li3 O21 2.036740 1_565
Li4 O33 2.005651 1_554
Li4 O15 2.015758 1_555
Li4 O29 2.018511 1_544
Li4 O2 2.065406 1_545
Li5 O17 1.987891 1_555
Li5 O15 1.996541 1_555
Li5 O7 2.004831 1_555
Li5 O11 2.018162 1_555
Li6 O6 1.991106 1_555
Li6 O17 2.003286 1_555
Li6 O16 2.017474 1_555
Li6 O10 2.035326 1_555
Li7 O27 1.989012 1_555
Li7 O23 1.989815 1_555
Li7 O30 2.007239 1_555
Li7 O24 2.007418 1_555
Li8 O25 1.979139 1_555
Li8 O23 1.993182 1_555
Li8 O26 2.001313 1_555
Li8 O31 2.025654 1_555
Li9 O32 1.974640 1_555
Li9 O12 1.981450 1_545
Li9 O35 1.985350 1_655
Li9 O22 2.016613 1_555
Li10 O20 1.992763 1_555
Li10 O16 2.009348 1_455
Li10 O29 2.010965 1_555
Li10 O28 2.025788 1_555
Mn0 O12 2.096318 1_555
Mn0 O6 2.161054 1_555
Mn0 O31 2.171533 1_665
Mn0 O4 2.184004 1_555
Mn0 O20 2.205678 1_655
Mn1 O13 2.039951 1_555
Mn1 O3 2.182845 1_555
Mn1 O30 2.191607 1_554
Mn1 O7 2.198498 1_555
Mn1 O33 2.233880 1_554
Mn2 O14 2.045357 1_555
Mn2 O3 2.158460 1_555
Mn2 O6 2.176923 1_555
Mn2 O4 2.194595 1_555
Mn2 O7 2.206073 1_555
Mn3 O25 2.089458 1_655
Mn3 O19 2.133153 1_655
Mn3 O5 2.203313 1_555
Mn3 O10 2.208217 1_555
Mn3 O11 2.228529 1_555
Mn4 O0 2.099133 1_545
Mn4 O2 2.149870 1_545
Mn4 O5 2.165882 1_555
Mn4 O11 2.171527 1_555
Mn4 O32 2.190814 1_554
Mn5 O8 2.112358 1_555
Mn5 O29 2.135099 1_554
Mn5 O34 2.157148 1_554
Mn5 O1 2.165602 1_455
Mn5 O9 2.189552 1_555
Mn6 O8 2.063664 1_555
Mn6 O15 2.108431 1_565
Mn6 O26 2.137691 1_565
Mn6 O21 2.137743 1_565
Mn6 O9 2.160827 1_555
Mn7 O24 2.104050 1_555
Mn7 O2 2.137543 1_556
Mn7 O18 2.165301 1_555
Mn7 O28 2.175502 1_555
Mn7 O32 2.197060 1_565
Mn8 O23 2.091818 1_555
Mn8 O19 2.133832 1_555
Mn8 O10 2.208670 1_455
Mn8 O18 2.210145 1_555
Mn8 O28 2.229982 1_555
Mn9 O16 2.102938 1_555
Mn9 O22 2.178810 1_555
Mn9 O34 2.179894 1_655
Mn9 O27 2.188996 1_555
Mn9 O1 2.205363 1_556
Mn10 O17 2.069701 1_555
Mn10 O22 2.176548 1_555
Mn10 O21 2.181190 1_555
Mn10 O27 2.184874 1_555
Mn10 O26 2.212647 1_555
Mn11 O35 2.091626 1_555
Mn11 O30 2.183736 1_555
Mn11 O33 2.185619 1_555
Mn11 O31 2.188606 1_555
Mn11 O20 2.199750 1_545
B0 O7 1.389117 1_555
B0 O5 1.393488 1_555
B0 O1 1.400591 1_555
B1 O8 1.382242 1_555
B1 O3 1.386092 1_555
B1 O2 1.391406 1_555
B2 O20 1.387605 1_555
B2 O18 1.390149 1_555
B2 O26 1.399195 1_565
B3 O19 1.361305 1_555
B3 O6 1.399147 1_455
B3 O9 1.411208 1_555
B4 O0 1.394439 1_556
B4 O35 1.396147 1_665
B4 O29 1.396603 1_655
B5 O14 1.363739 1_555
B5 O23 1.404914 1_555
B5 O17 1.405122 1_555
B6 O13 1.368970 1_555
B6 O25 1.401960 1_555
B6 O15 1.405915 1_555
B7 O12 1.393428 1_555
B7 O24 1.395234 1_555
B7 O16 1.398482 1_555
B8 O10 1.381711 1_555
B8 O31 1.389867 1_655
B8 O22 1.395023 1_555
B9 O4 1.380582 1_545
B9 O11 1.386801 1_555
B9 O21 1.398331 1_555
B10 O33 1.387725 1_555
B10 O32 1.395280 1_555
B10 O27 1.396571 1_555
B11 O30 1.384934 1_555
B11 O28 1.387007 1_555
B11 O34 1.397308 1_555
