# generated using pymatgen
data_Li(H3N)4
_symmetry_space_group_name_H-M   'P 1'
_cell_length_a   12.65756057
_cell_length_b   12.65756057
_cell_length_c   12.65756057
_cell_angle_alpha   109.47122063
_cell_angle_beta   109.47122063
_cell_angle_gamma   109.47122063
_symmetry_Int_Tables_number   1
_chemical_formula_structural   Li(H3N)4
_chemical_formula_sum   'Li8 H96 N32'
_cell_volume   1561.09075464
_cell_formula_units_Z   8
loop_
 _symmetry_equiv_pos_site_id
 _symmetry_equiv_pos_as_xyz
  1  'x, y, z'
loop_
 _atom_site_type_symbol
 _atom_site_label
 _atom_site_symmetry_multiplicity
 _atom_site_fract_x
 _atom_site_fract_y
 _atom_site_fract_z
 _atom_site_occupancy
  Li  Li0  1  0.50000000  0.00000000  0.75635000  1
  Li  Li1  1  0.75635000  0.50000000  0.00000000  1
  Li  Li2  1  0.00000000  0.75635000  0.50000000  1
  Li  Li3  1  0.74365000  0.74365000  0.74365000  1
  Li  Li4  1  0.25635000  0.50000000  0.00000000  1
  Li  Li5  1  0.50000000  0.00000000  0.25635000  1
  Li  Li6  1  0.00000000  0.25635000  0.50000000  1
  Li  Li7  1  0.24365000  0.24365000  0.24365000  1
  H  H0  1  0.45887000  0.05082500  0.56337200  1
  H  H1  1  0.51254700  0.44917500  0.90804500  1
  H  H2  1  0.04113000  0.60450200  0.59195500  1
  H  H3  1  0.98745300  0.89549800  0.93662800  1
  H  H4  1  0.06337200  0.55082500  0.95887000  1
  H  H5  1  0.40804500  0.94917500  0.01254700  1
  H  H6  1  0.09195500  0.10450200  0.54113000  1
  H  H7  1  0.43662800  0.39549800  0.48745300  1
  H  H8  1  0.56337200  0.45887000  0.05082500  1
  H  H9  1  0.90804500  0.51254700  0.44917500  1
  H  H10  1  0.59195500  0.04113000  0.60450200  1
  H  H11  1  0.93662800  0.98745300  0.89549800  1
  H  H12  1  0.95887000  0.06337200  0.55082500  1
  H  H13  1  0.01254700  0.40804500  0.94917500  1
  H  H14  1  0.54113000  0.09195500  0.10450200  1
  H  H15  1  0.48745300  0.43662800  0.39549800  1
  H  H16  1  0.05082500  0.56337200  0.45887000  1
  H  H17  1  0.44917500  0.90804500  0.51254700  1
  H  H18  1  0.60450200  0.59195500  0.04113000  1
  H  H19  1  0.89549800  0.93662800  0.98745300  1
  H  H20  1  0.55082500  0.95887000  0.06337200  1
  H  H21  1  0.94917500  0.01254700  0.40804500  1
  H  H22  1  0.10450200  0.54113000  0.09195500  1
  H  H23  1  0.39549800  0.48745300  0.43662800  1
  H  H24  1  0.42300800  0.16971200  0.77560700  1
  H  H25  1  0.60589600  0.33028800  0.75329700  1
  H  H26  1  0.07699200  0.85259900  0.74670300  1
  H  H27  1  0.89410400  0.64740100  0.72439300  1
  H  H28  1  0.27560700  0.66971200  0.92300800  1
  H  H29  1  0.25329700  0.83028800  0.10589600  1
  H  H30  1  0.24670300  0.35259900  0.57699200  1
  H  H31  1  0.22439300  0.14740100  0.39410400  1
  H  H32  1  0.77560700  0.42300800  0.16971200  1
  H  H33  1  0.75329700  0.60589600  0.33028800  1
  H  H34  1  0.74670300  0.07699200  0.85259900  1
  H  H35  1  0.72439300  0.89410400  0.64740100  1
  H  H36  1  0.92300800  0.27560700  0.66971200  1
  H  H37  1  0.10589600  0.25329700  0.83028800  1
  H  H38  1  0.57699200  0.24670300  0.35259900  1
  H  H39  1  0.39410400  0.22439300  0.14740100  1
  H  H40  1  0.16971200  0.77560700  0.42300800  1
  H  H41  1  0.33028800  0.75329700  0.60589600  1
  H  H42  1  0.85259900  0.74670300  0.07699200  1
  H  H43  1  0.64740100  0.72439300  0.89410400  1
  H  H44  1  0.66971200  0.92300800  0.27560700  1
  H  H45  1  0.83028800  0.10589600  0.25329700  1
  H  H46  1  0.35259900  0.57699200  0.24670300  1
  H  H47  1  0.14740100  0.39410400  0.22439300  1
  H  H48  1  0.53836400  0.22183500  0.92151300  1
  H  H49  1  0.69967800  0.27816500  0.81652800  1
  H  H50  1  0.96163600  0.88315000  0.68347200  1
  H  H51  1  0.80032200  0.61685000  0.57848700  1
  H  H52  1  0.42151300  0.72183500  0.03836400  1
  H  H53  1  0.31652800  0.77816500  0.19967800  1
  H  H54  1  0.18347200  0.38315000  0.46163600  1
  H  H55  1  0.07848700  0.11685000  0.30032200  1
  H  H56  1  0.92151300  0.53836400  0.22183500  1
  H  H57  1  0.81652800  0.69967800  0.27816500  1
  H  H58  1  0.68347200  0.96163600  0.88315000  1
  H  H59  1  0.57848700  0.80032200  0.61685000  1
  H  H60  1  0.03836400  0.42151300  0.72183500  1
  H  H61  1  0.19967800  0.31652800  0.77816500  1
  H  H62  1  0.46163600  0.18347200  0.38315000  1
  H  H63  1  0.30032200  0.07848700  0.11685000  1
  H  H64  1  0.22183500  0.92151300  0.53836400  1
  H  H65  1  0.27816500  0.81652800  0.69967800  1
  H  H66  1  0.88315000  0.68347200  0.96163600  1
  H  H67  1  0.61685000  0.57848700  0.80032200  1
  H  H68  1  0.72183500  0.03836400  0.42151300  1
  H  H69  1  0.77816500  0.19967800  0.31652800  1
  H  H70  1  0.38315000  0.46163600  0.18347200  1
  H  H71  1  0.11685000  0.30032200  0.07848700  1
  H  H72  1  0.39073200  0.11111900  0.86606100  1
  H  H73  1  0.75494200  0.38888100  0.77961200  1
  H  H74  1  0.10926800  0.97532900  0.72038800  1
  H  H75  1  0.74505800  0.52467100  0.63393900  1
  H  H76  1  0.36606100  0.61111900  0.89073200  1
  H  H77  1  0.27961200  0.88888100  0.25494200  1
  H  H78  1  0.22038800  0.47532900  0.60926800  1
  H  H79  1  0.13393900  0.02467100  0.24505800  1
  H  H80  1  0.86606100  0.39073200  0.11111900  1
  H  H81  1  0.77961200  0.75494200  0.38888100  1
  H  H82  1  0.72038800  0.10926800  0.97532900  1
  H  H83  1  0.63393900  0.74505800  0.52467100  1
  H  H84  1  0.89073200  0.36606100  0.61111900  1
  H  H85  1  0.25494200  0.27961200  0.88888100  1
  H  H86  1  0.60926800  0.22038800  0.47532900  1
  H  H87  1  0.24505800  0.13393900  0.02467100  1
  H  H88  1  0.11111900  0.86606100  0.39073200  1
  H  H89  1  0.38888100  0.77961200  0.75494200  1
  H  H90  1  0.97532900  0.72038800  0.10926800  1
  H  H91  1  0.52467100  0.63393900  0.74505800  1
  H  H92  1  0.61111900  0.89073200  0.36606100  1
  H  H93  1  0.88888100  0.25494200  0.27961200  1
  H  H94  1  0.47532900  0.60926800  0.22038800  1
  H  H95  1  0.02467100  0.24505800  0.13393900  1
  N  N0  1  0.50000000  0.00000000  0.59114000  1
  N  N1  1  0.59114000  0.50000000  0.00000000  1
  N  N2  1  0.00000000  0.59114000  0.50000000  1
  N  N3  1  0.90886000  0.90886000  0.90886000  1
  N  N4  1  0.09114000  0.50000000  0.00000000  1
  N  N5  1  0.50000000  0.00000000  0.09114000  1
  N  N6  1  0.00000000  0.09114000  0.50000000  1
  N  N7  1  0.40886000  0.40886000  0.40886000  1
  N  N8  1  0.45849700  0.14005500  0.83914900  1
  N  N9  1  0.69909400  0.35994500  0.81844200  1
  N  N10  1  0.04150300  0.88065200  0.68155800  1
  N  N11  1  0.80090600  0.61934800  0.66085100  1
  N  N12  1  0.33914900  0.64005500  0.95849700  1
  N  N13  1  0.31844200  0.85994500  0.19909400  1
  N  N14  1  0.18155800  0.38065200  0.54150300  1
  N  N15  1  0.16085100  0.11934800  0.30090600  1
  N  N16  1  0.83914900  0.45849700  0.14005500  1
  N  N17  1  0.81844200  0.69909400  0.35994500  1
  N  N18  1  0.68155800  0.04150300  0.88065200  1
  N  N19  1  0.66085100  0.80090600  0.61934800  1
  N  N20  1  0.95849700  0.33914900  0.64005500  1
  N  N21  1  0.19909400  0.31844200  0.85994500  1
  N  N22  1  0.54150300  0.18155800  0.38065200  1
  N  N23  1  0.30090600  0.16085100  0.11934800  1
  N  N24  1  0.14005500  0.83914900  0.45849700  1
  N  N25  1  0.35994500  0.81844200  0.69909400  1
  N  N26  1  0.88065200  0.68155800  0.04150300  1
  N  N27  1  0.61934800  0.66085100  0.80090600  1
  N  N28  1  0.64005500  0.95849700  0.33914900  1
  N  N29  1  0.85994500  0.19909400  0.31844200  1
  N  N30  1  0.38065200  0.54150300  0.18155800  1
  N  N31  1  0.11934800  0.30090600  0.16085100  1
loop_
_geom_bond_atom_site_label_1
_geom_bond_atom_site_label_2
_geom_bond_distance
_geom_bond_site_symmetry_2
Li0 N8 2.065499 1_555
Li0 N18 2.065499 1_555
Li0 N25 2.065499 1_545
Li0 N0 2.091156 1_555
Li1 N16 2.065499 1_555
Li1 N26 2.065499 1_555
Li1 N9 2.065499 1_554
Li1 N1 2.091156 1_555
Li2 N24 2.065499 1_555
Li2 N10 2.065499 1_555
Li2 N17 2.065499 1_455
Li2 N2 2.091156 1_555
Li3 N19 2.065499 1_555
Li3 N27 2.065499 1_555
Li3 N11 2.065499 1_555
Li3 N3 2.091156 1_555
Li4 N12 2.065499 1_554
Li4 N30 2.065499 1_555
Li4 N21 2.065499 1_554
Li4 N4 2.091156 1_555
Li5 N28 2.065499 1_545
Li5 N13 2.065499 1_545
Li5 N22 2.065499 1_555
Li5 N5 2.091156 1_555
Li6 N20 2.065499 1_455
Li6 N29 2.065499 1_455
Li6 N14 2.065499 1_555
Li6 N6 2.091156 1_555
Li7 N23 2.065499 1_555
Li7 N15 2.065499 1_555
Li7 N31 2.065499 1_555
Li7 N7 2.091156 1_555
H0 N0 1.029785 1_555
H1 N1 1.029785 1_556
H2 N2 1.029785 1_555
H3 N3 1.029785 1_555
H4 N4 1.029785 1_556
H5 N5 1.029785 1_565
H6 N6 1.029785 1_555
H7 N7 1.029785 1_555
H8 N1 1.029785 1_555
H9 N2 1.029785 1_655
H10 N0 1.029785 1_555
H11 N3 1.029785 1_555
H12 N6 1.029785 1_655
H13 N4 1.029785 1_556
H14 N5 1.029785 1_555
H15 N7 1.029785 1_555
H16 N2 1.029785 1_555
H17 N0 1.029785 1_565
H18 N1 1.029785 1_555
H19 N3 1.029785 1_555
H20 N5 1.029785 1_565
H21 N6 1.029785 1_655
H22 N4 1.029785 1_555
H23 N7 1.029785 1_555
H24 N8 1.030733 1_555
H25 N9 1.030720 1_555
H26 N10 1.030723 1_555
H27 N11 1.030723 1_555
H28 N12 1.030733 1_555
H29 N13 1.030720 1_555
H30 N14 1.030723 1_555
H31 N15 1.030723 1_555
H32 N16 1.030733 1_555
H33 N17 1.030720 1_555
H34 N18 1.030723 1_555
H35 N19 1.030723 1_555
H36 N20 1.030733 1_555
H37 N21 1.030720 1_555
H38 N22 1.030723 1_555
H39 N23 1.030723 1_555
H40 N24 1.030733 1_555
H41 N25 1.030720 1_555
H42 N26 1.030723 1_555
H43 N27 1.030723 1_555
H44 N28 1.030733 1_555
H45 N29 1.030720 1_555
H46 N30 1.030723 1_555
H47 N31 1.030723 1_555
H48 N8 1.029882 1_555
H49 N9 1.029878 1_555
H50 N10 1.029891 1_655
H51 N11 1.029878 1_555
H52 N12 1.029882 1_554
H53 N13 1.029878 1_555
H54 N14 1.029891 1_555
H55 N15 1.029878 1_555
H56 N16 1.029882 1_555
H57 N17 1.029878 1_555
H58 N18 1.029891 1_565
H59 N19 1.029878 1_555
H60 N20 1.029882 1_455
H61 N21 1.029878 1_555
H62 N22 1.029891 1_555
H63 N23 1.029878 1_555
H64 N24 1.029882 1_555
H65 N25 1.029878 1_555
H66 N26 1.029891 1_556
H67 N27 1.029878 1_555
H68 N28 1.029882 1_545
H69 N29 1.029878 1_555
H70 N30 1.029891 1_555
H71 N31 1.029878 1_555
H72 N8 1.026852 1_555
H73 N9 1.026862 1_555
H74 N10 1.026849 1_555
H75 N11 1.026852 1_555
H76 N12 1.026852 1_555
H77 N13 1.026862 1_555
H78 N14 1.026849 1_555
H79 N15 1.026852 1_555
H80 N16 1.026852 1_555
H81 N17 1.026862 1_555
H82 N18 1.026849 1_555
H83 N19 1.026852 1_555
H84 N20 1.026852 1_555
H85 N21 1.026862 1_555
H86 N22 1.026849 1_555
H87 N23 1.026852 1_555
H88 N24 1.026852 1_555
H89 N25 1.026862 1_555
H90 N26 1.026849 1_555
H91 N27 1.026852 1_555
H92 N28 1.026852 1_555
H93 N29 1.026862 1_555
H94 N30 1.026849 1_555
H95 N31 1.026852 1_555
