# generated using pymatgen
data_Co3C10O9
_symmetry_space_group_name_H-M   'P 1'
_cell_length_a   18.95361780
_cell_length_b   18.95361780
_cell_length_c   18.95361774
_cell_angle_alpha   28.85071922
_cell_angle_beta   28.85071922
_cell_angle_gamma   28.85071866
_symmetry_Int_Tables_number   1
_chemical_formula_structural   Co3C10O9
_chemical_formula_sum   'Co12 C40 O36'
_cell_volume   1401.92181697
_cell_formula_units_Z   4
loop_
 _symmetry_equiv_pos_site_id
 _symmetry_equiv_pos_as_xyz
  1  'x, y, z'
loop_
 _atom_site_type_symbol
 _atom_site_label
 _atom_site_symmetry_multiplicity
 _atom_site_fract_x
 _atom_site_fract_y
 _atom_site_fract_z
 _atom_site_occupancy
  Co  Co0  1  0.75574000  0.54549600  0.83691800  1
  Co  Co1  1  0.66308200  0.95450400  0.74426000  1
  Co  Co2  1  0.04549600  0.25574000  0.33691800  1
  Co  Co3  1  0.24426000  0.45450400  0.16308200  1
  Co  Co4  1  0.16308200  0.24426000  0.45450400  1
  Co  Co5  1  0.95450400  0.74426000  0.66308200  1
  Co  Co6  1  0.33691800  0.04549600  0.25574000  1
  Co  Co7  1  0.25574000  0.33691800  0.04549600  1
  Co  Co8  1  0.54549600  0.83691800  0.75574000  1
  Co  Co9  1  0.74426000  0.66308200  0.95450400  1
  Co  Co10  1  0.45450400  0.16308200  0.24426000  1
  Co  Co11  1  0.83691800  0.75574000  0.54549600  1
  C  C0  1  0.66907200  0.12106300  0.54829200  1
  C  C1  1  0.95170800  0.37893700  0.83092800  1
  C  C2  1  0.04829200  0.62106300  0.16907200  1
  C  C3  1  0.45021800  0.01958900  0.86518900  1
  C  C4  1  0.01958900  0.86518900  0.45021800  1
  C  C5  1  0.47790900  0.83393500  0.72846900  1
  C  C6  1  0.04978200  0.63481100  0.48041100  1
  C  C7  1  0.22846900  0.33393500  0.97790900  1
  C  C8  1  0.16606500  0.27153100  0.52209100  1
  C  C9  1  0.48041100  0.04978200  0.63481100  1
  C  C10  1  0.97790900  0.22846900  0.33393500  1
  C  C11  1  0.37893700  0.83092800  0.95170800  1
  C  C12  1  0.66606500  0.02209100  0.77153100  1
  C  C13  1  0.77153100  0.66606500  0.02209100  1
  C  C14  1  0.62106300  0.16907200  0.04829200  1
  C  C15  1  0.83092800  0.95170800  0.37893700  1
  C  C16  1  0.52209100  0.16606500  0.27153100  1
  C  C17  1  0.26325300  0.26325300  0.26325300  1
  C  C18  1  0.36518900  0.51958900  0.95021800  1
  C  C19  1  0.87893700  0.45170800  0.33092800  1
  C  C20  1  0.76325300  0.76325300  0.76325300  1
  C  C21  1  0.86518900  0.45021800  0.01958900  1
  C  C22  1  0.27153100  0.52209100  0.16606500  1
  C  C23  1  0.72846900  0.47790900  0.83393500  1
  C  C24  1  0.51958900  0.95021800  0.36518900  1
  C  C25  1  0.73674700  0.73674700  0.73674700  1
  C  C26  1  0.23674700  0.23674700  0.23674700  1
  C  C27  1  0.98041100  0.13481100  0.54978200  1
  C  C28  1  0.45170800  0.33092800  0.87893700  1
  C  C29  1  0.63481100  0.48041100  0.04978200  1
  C  C30  1  0.95021800  0.36518900  0.51958900  1
  C  C31  1  0.54978200  0.98041100  0.13481100  1
  C  C32  1  0.02209100  0.77153100  0.66606500  1
  C  C33  1  0.54829200  0.66907200  0.12106300  1
  C  C34  1  0.12106300  0.54829200  0.66907200  1
  C  C35  1  0.13481100  0.54978200  0.98041100  1
  C  C36  1  0.33092800  0.87893700  0.45170800  1
  C  C37  1  0.83393500  0.72846900  0.47790900  1
  C  C38  1  0.33393500  0.97790900  0.22846900  1
  C  C39  1  0.16907200  0.04829200  0.62106300  1
  O  O0  1  0.92695700  0.21606900  0.33537700  1
  O  O1  1  0.94240300  0.31045800  0.06399600  1
  O  O2  1  0.56399600  0.81045800  0.44240300  1
  O  O3  1  0.55759700  0.43600400  0.18954200  1
  O  O4  1  0.92315000  0.73649600  0.16591700  1
  O  O5  1  0.66462300  0.07304300  0.78393100  1
  O  O6  1  0.26350400  0.83408300  0.07685000  1
  O  O7  1  0.68954200  0.93600400  0.05759700  1
  O  O8  1  0.33537700  0.92695700  0.21606900  1
  O  O9  1  0.73649600  0.16591700  0.92315000  1
  O  O10  1  0.42695700  0.83537700  0.71606900  1
  O  O11  1  0.21606900  0.33537700  0.92695700  1
  O  O12  1  0.43600400  0.18954200  0.55759700  1
  O  O13  1  0.83408300  0.07685000  0.26350400  1
  O  O14  1  0.18954200  0.55759700  0.43600400  1
  O  O15  1  0.07685000  0.26350400  0.83408300  1
  O  O16  1  0.16591700  0.92315000  0.73649600  1
  O  O17  1  0.93600400  0.05759700  0.68954200  1
  O  O18  1  0.76350400  0.57685000  0.33408300  1
  O  O19  1  0.57304300  0.16462300  0.28393100  1
  O  O20  1  0.78393100  0.66462300  0.07304300  1
  O  O21  1  0.44240300  0.56399600  0.81045800  1
  O  O22  1  0.71606900  0.42695700  0.83537700  1
  O  O23  1  0.66591700  0.23649600  0.42315000  1
  O  O24  1  0.31045800  0.06399600  0.94240300  1
  O  O25  1  0.07304300  0.78393100  0.66462300  1
  O  O26  1  0.05759700  0.68954200  0.93600400  1
  O  O27  1  0.28393100  0.57304300  0.16462300  1
  O  O28  1  0.16462300  0.28393100  0.57304300  1
  O  O29  1  0.23649600  0.42315000  0.66591700  1
  O  O30  1  0.57685000  0.33408300  0.76350400  1
  O  O31  1  0.81045800  0.44240300  0.56399600  1
  O  O32  1  0.42315000  0.66591700  0.23649600  1
  O  O33  1  0.83537700  0.71606900  0.42695700  1
  O  O34  1  0.06399600  0.94240300  0.31045800  1
  O  O35  1  0.33408300  0.76350400  0.57685000  1
loop_
_geom_bond_atom_site_label_1
_geom_bond_atom_site_label_2
_geom_bond_distance
_geom_bond_site_symmetry_2
C0 O23 1.159713 1_555
C0 Co1 1.767347 1_545
C1 O15 1.159713 1_655
C1 Co0 1.767347 1_555
C2 O4 1.159713 1_455
C2 Co3 1.767347 1_555
C3 O24 1.152494 1_555
C3 Co1 1.757313 1_545
C4 O34 1.152494 1_555
C4 Co5 1.757313 1_455
C5 O10 1.152699 1_555
C5 Co8 1.802595 1_555
C6 O14 1.152494 1_555
C6 Co11 1.757313 1_455
C7 O11 1.152699 1_555
C7 Co7 1.802595 1_556
C8 O28 1.152699 1_555
C8 Co4 1.802595 1_555
C9 O12 1.152494 1_555
C9 Co8 1.757313 1_545
C10 O0 1.152699 1_555
C10 Co2 1.802595 1_655
C11 O6 1.159713 1_556
C11 Co8 1.767347 1_555
C12 O5 1.152699 1_555
C12 Co1 1.802595 1_545
C13 O20 1.152699 1_555
C13 Co9 1.802595 1_554
C14 O9 1.159713 1_554
C14 Co10 1.767347 1_555
C15 O13 1.159713 1_565
C15 Co11 1.767347 1_555
C16 O19 1.152699 1_555
C16 Co10 1.802595 1_555
C17 C26 1.443452 1_555
C17 Co10 1.931196 1_555
C17 Co4 1.931196 1_555
C17 Co3 1.931196 1_555
C18 O21 1.152494 1_555
C18 Co3 1.757313 1_556
C19 O18 1.159713 1_555
C19 Co2 1.767347 1_655
C20 C25 1.443452 1_555
C20 Co1 1.931196 1_555
C20 Co9 1.931196 1_555
C20 Co5 1.931196 1_555
C21 O1 1.152494 1_555
C21 Co9 1.757313 1_554
C22 O27 1.152699 1_555
C22 Co3 1.802595 1_555
C23 O22 1.152699 1_555
C23 Co0 1.802595 1_555
C24 O2 1.152494 1_555
C24 Co10 1.757313 1_565
C25 Co8 1.931196 1_555
C25 Co11 1.931196 1_555
C25 Co0 1.931196 1_555
C26 Co6 1.931196 1_555
C26 Co7 1.931196 1_555
C26 Co2 1.931196 1_555
C27 O17 1.152494 1_555
C27 Co2 1.757313 1_655
C28 O30 1.159713 1_555
C28 Co7 1.767347 1_556
C29 O3 1.152494 1_555
C29 Co0 1.757313 1_554
C30 O31 1.152494 1_555
C30 Co4 1.757313 1_655
C31 O7 1.152494 1_555
C31 Co6 1.757313 1_565
C32 O25 1.152699 1_555
C32 Co5 1.802595 1_455
C33 O32 1.159713 1_555
C33 Co9 1.767347 1_554
C34 O29 1.159713 1_555
C34 Co5 1.767347 1_455
C35 O26 1.152494 1_555
C35 Co7 1.757313 1_556
C36 O35 1.159713 1_555
C36 Co6 1.767347 1_565
C37 O33 1.152699 1_555
C37 Co11 1.802595 1_555
C38 O8 1.152699 1_555
C38 Co6 1.802595 1_565
C39 O16 1.159713 1_545
C39 Co4 1.767347 1_555
