# generated using pymatgen
data_LiFe(PO3)3
_symmetry_space_group_name_H-M   'P 1'
_cell_length_a   5.20853700
_cell_length_b   12.08291700
_cell_length_c   12.53166900
_cell_angle_alpha   90.00000000
_cell_angle_beta   90.00000000
_cell_angle_gamma   90.00000000
_symmetry_Int_Tables_number   1
_chemical_formula_structural   LiFe(PO3)3
_chemical_formula_sum   'Li4 Fe4 P12 O36'
_cell_volume   788.67207027
_cell_formula_units_Z   4
loop_
 _symmetry_equiv_pos_site_id
 _symmetry_equiv_pos_as_xyz
  1  'x, y, z'
loop_
 _atom_site_type_symbol
 _atom_site_label
 _atom_site_symmetry_multiplicity
 _atom_site_fract_x
 _atom_site_fract_y
 _atom_site_fract_z
 _atom_site_occupancy
  Li  Li0  1  0.05067700  0.09828500  0.25000000  1
  Li  Li1  1  0.05067700  0.40171500  0.75000000  1
  Li  Li2  1  0.94932300  0.59828500  0.25000000  1
  Li  Li3  1  0.94932300  0.90171500  0.75000000  1
  Fe  Fe0  1  0.00000000  0.00000000  0.00000000  1
  Fe  Fe1  1  0.00000000  0.50000000  0.00000000  1
  Fe  Fe2  1  0.00000000  0.00000000  0.50000000  1
  Fe  Fe3  1  0.00000000  0.50000000  0.50000000  1
  P  P0  1  0.22713100  0.75000000  0.00000000  1
  P  P1  1  0.22713100  0.75000000  0.50000000  1
  P  P2  1  0.49735100  0.07640900  0.63427800  1
  P  P3  1  0.49735100  0.42359100  0.13427800  1
  P  P4  1  0.49735100  0.07640900  0.86572200  1
  P  P5  1  0.49735100  0.42359100  0.36572200  1
  P  P6  1  0.50264900  0.57640900  0.63427800  1
  P  P7  1  0.50264900  0.92359100  0.13427800  1
  P  P8  1  0.50264900  0.92359100  0.36572200  1
  P  P9  1  0.50264900  0.57640900  0.86572200  1
  P  P10  1  0.77286900  0.25000000  0.00000000  1
  P  P11  1  0.77286900  0.25000000  0.50000000  1
  O  O0  1  0.08400600  0.67052200  0.07113500  1
  O  O1  1  0.08400600  0.67052200  0.42886500  1
  O  O2  1  0.08400600  0.82947800  0.57113500  1
  O  O3  1  0.08400600  0.82947800  0.92886500  1
  O  O4  1  0.21414800  0.44613800  0.12603100  1
  O  O5  1  0.21414800  0.05386200  0.62603100  1
  O  O6  1  0.21414800  0.44613800  0.37396900  1
  O  O7  1  0.21414800  0.05386200  0.87396900  1
  O  O8  1  0.31598200  0.01723700  0.38687100  1
  O  O9  1  0.31598200  0.01723700  0.11312900  1
  O  O10  1  0.31598200  0.48276300  0.88687100  1
  O  O11  1  0.31598200  0.48276300  0.61312900  1
  O  O12  1  0.44554800  0.87291100  0.25000000  1
  O  O13  1  0.44554800  0.62708900  0.75000000  1
  O  O14  1  0.43956300  0.68378700  0.56770700  1
  O  O15  1  0.43956300  0.81621300  0.06770700  1
  O  O16  1  0.43956300  0.68378700  0.93229300  1
  O  O17  1  0.43956300  0.81621300  0.43229300  1
  O  O18  1  0.56043700  0.18378700  0.56770700  1
  O  O19  1  0.56043700  0.31621300  0.06770700  1
  O  O20  1  0.56043700  0.31621300  0.43229300  1
  O  O21  1  0.56043700  0.18378700  0.93229300  1
  O  O22  1  0.55445200  0.12708900  0.75000000  1
  O  O23  1  0.55445200  0.37291100  0.25000000  1
  O  O24  1  0.68401800  0.51723700  0.38687100  1
  O  O25  1  0.68401800  0.98276300  0.61312900  1
  O  O26  1  0.68401800  0.51723700  0.11312900  1
  O  O27  1  0.68401800  0.98276300  0.88687100  1
  O  O28  1  0.78585200  0.55386200  0.87396900  1
  O  O29  1  0.78585200  0.55386200  0.62603100  1
  O  O30  1  0.78585200  0.94613800  0.37396900  1
  O  O31  1  0.78585200  0.94613800  0.12603100  1
  O  O32  1  0.91599400  0.17052200  0.42886500  1
  O  O33  1  0.91599400  0.32947800  0.57113500  1
  O  O34  1  0.91599400  0.17052200  0.07113500  1
  O  O35  1  0.91599400  0.32947800  0.92886500  1
loop_
_geom_bond_atom_site_label_1
_geom_bond_atom_site_label_2
_geom_bond_distance
_geom_bond_site_symmetry_2
Li0 O8 2.410502 1_555
Li0 O9 2.410502 1_555
Li0 O32 2.505626 1_455
Li0 O34 2.505626 1_455
Li1 O10 2.410502 1_555
Li1 O11 2.410502 1_555
Li1 O35 2.505626 1_455
Li1 O33 2.505626 1_455
Li2 O24 2.410502 1_555
Li2 O26 2.410502 1_555
Li2 O1 2.505626 1_655
Li2 O0 2.505626 1_655
Li3 O27 2.410502 1_555
Li3 O25 2.410502 1_555
Li3 O3 2.505626 1_655
Li3 O2 2.505626 1_655
Fe0 O7 2.040123 1_554
Fe0 O31 2.040123 1_445
Fe0 O9 2.182180 1_555
Fe0 O27 2.182180 1_444
Fe0 O34 2.287220 1_455
Fe0 O3 2.287220 1_544
Fe1 O4 2.040123 1_555
Fe1 O28 2.040123 1_454
Fe1 O26 2.182180 1_455
Fe1 O10 2.182180 1_554
Fe1 O0 2.287220 1_555
Fe1 O35 2.287220 1_454
Fe2 O5 2.040123 1_555
Fe2 O30 2.040123 1_445
Fe2 O25 2.182180 1_445
Fe2 O8 2.182180 1_555
Fe2 O32 2.287220 1_455
Fe2 O2 2.287220 1_545
Fe3 O6 2.040123 1_555
Fe3 O29 2.040123 1_455
Fe3 O11 2.182180 1_555
Fe3 O24 2.182180 1_455
Fe3 O1 2.287220 1_555
Fe3 O33 2.287220 1_455
O0 P0 1.507521 1_555
O1 P1 1.507521 1_555
O2 P1 1.507521 1_555
O3 P0 1.507521 1_556
O4 P3 1.503576 1_555
O5 P2 1.503576 1_555
O6 P5 1.503576 1_555
O7 P4 1.503576 1_555
O8 P8 1.515211 1_545
O9 P7 1.515211 1_545
O10 P9 1.515211 1_555
O11 P6 1.515211 1_555
O12 P8 1.602028 1_555
O12 P7 1.602028 1_555
O13 P6 1.602028 1_555
O13 P9 1.602028 1_555
O14 P6 1.577112 1_555
O14 P1 1.607560 1_555
O15 P7 1.577112 1_555
O15 P0 1.607560 1_555
O16 P9 1.577112 1_555
O16 P0 1.607560 1_556
O17 P8 1.577112 1_555
O17 P1 1.607560 1_555
O18 P2 1.577112 1_555
O18 P11 1.607560 1_555
O19 P3 1.577112 1_555
O19 P10 1.607560 1_555
O20 P5 1.577112 1_555
O20 P11 1.607560 1_555
O21 P4 1.577112 1_555
O21 P10 1.607560 1_556
O22 P4 1.602028 1_555
O22 P2 1.602028 1_555
O23 P5 1.602028 1_555
O23 P3 1.602028 1_555
O24 P5 1.515211 1_555
O25 P2 1.515211 1_565
O26 P3 1.515211 1_555
O27 P4 1.515211 1_565
O28 P9 1.503576 1_555
O29 P6 1.503576 1_555
O30 P8 1.503576 1_555
O31 P7 1.503576 1_555
O32 P11 1.507521 1_555
O33 P11 1.507521 1_555
O34 P10 1.507521 1_555
O35 P10 1.507521 1_556
