# generated using pymatgen
data_Li4Mn3Fe3(CuO8)2
_symmetry_space_group_name_H-M   'P 1'
_cell_length_a   5.87602398
_cell_length_b   5.83580560
_cell_length_c   9.57540278
_cell_angle_alpha   90.00443342
_cell_angle_beta   89.31212353
_cell_angle_gamma   119.77195287
_symmetry_Int_Tables_number   1
_chemical_formula_structural   Li4Mn3Fe3(CuO8)2
_chemical_formula_sum   'Li4 Mn3 Fe3 Cu2 O16'
_cell_volume   284.98643501
_cell_formula_units_Z   1
loop_
 _symmetry_equiv_pos_site_id
 _symmetry_equiv_pos_as_xyz
  1  'x, y, z'
loop_
 _atom_site_type_symbol
 _atom_site_label
 _atom_site_symmetry_multiplicity
 _atom_site_fract_x
 _atom_site_fract_y
 _atom_site_fract_z
 _atom_site_occupancy
  Li  Li0  1  0.33882300  0.66946300  0.89569700  1
  Li  Li1  1  0.99598700  0.99793300  0.99660900  1
  Li  Li2  1  0.00044600  0.00015600  0.49539700  1
  Li  Li3  1  0.67009800  0.33505200  0.39617900  1
  Mn  Mn0  1  0.65767700  0.82887100  0.21391500  1
  Mn  Mn1  1  0.82931200  0.66036500  0.71396300  1
  Mn  Mn2  1  0.82932600  0.16896000  0.71395500  1
  Fe  Fe0  1  0.16679200  0.83020000  0.21255300  1
  Fe  Fe1  1  0.16678300  0.33667600  0.21252800  1
  Fe  Fe2  1  0.33584100  0.16792600  0.71284900  1
  Cu  Cu0  1  0.32641300  0.66319500  0.48793500  1
  Cu  Cu1  1  0.66101100  0.33053200  0.98811900  1
  O  O0  1  0.15765400  0.83367200  0.60337900  1
  O  O1  1  0.04134200  0.52071400  0.34008600  1
  O  O2  1  0.34465100  0.67235000  0.10347600  1
  O  O3  1  0.98605900  0.99310100  0.30958600  1
  O  O4  1  0.98671900  0.99337800  0.81050900  1
  O  O5  1  0.15764700  0.32391500  0.60335700  1
  O  O6  1  0.48763900  0.96175000  0.33751600  1
  O  O7  1  0.48767600  0.52595900  0.33750300  1
  O  O8  1  0.32687200  0.16346200  0.10142200  1
  O  O9  1  0.68370900  0.84183800  0.60534300  1
  O  O10  1  0.52741300  0.48832000  0.83588000  1
  O  O11  1  0.52742600  0.03916000  0.83588100  1
  O  O12  1  0.68090600  0.34045100  0.60649900  1
  O  O13  1  0.83133200  0.67315000  0.10310300  1
  O  O14  1  0.96311200  0.48156600  0.83151600  1
  O  O15  1  0.83133100  0.15818700  0.10308000  1
loop_
_geom_bond_atom_site_label_1
_geom_bond_atom_site_label_2
_geom_bond_distance
_geom_bond_site_symmetry_2
Li0 O11 1.954845 1_565
Li0 O10 1.954894 1_555
Li0 O2 1.990199 1_556
Li0 O14 2.020477 1_455
Li1 O4 1.783261 1_555
Li1 O13 1.929719 1_556
Li1 O15 1.929991 1_566
Li1 O8 1.975389 1_666
Li2 O3 1.781738 1_445
Li2 O9 1.916058 1_445
Li2 O0 1.944417 1_545
Li2 O5 1.944513 1_555
Li3 O1 1.961076 1_655
Li3 O6 1.976277 1_545
Li3 O7 1.976466 1_555
Li3 O12 2.015413 1_555
Mn0 O3 1.920102 1_555
Mn0 O2 1.927146 1_555
Mn0 O6 1.934239 1_555
Mn0 O7 1.934291 1_555
Mn0 O13 1.971719 1_555
Mn0 O15 1.971745 1_565
Mn1 O10 1.923407 1_555
Mn1 O12 1.925946 1_555
Mn1 O4 1.929271 1_555
Mn1 O14 1.951931 1_555
Mn1 O9 1.963846 1_555
Mn1 O0 1.969716 1_655
Mn2 O11 1.923465 1_555
Mn2 O12 1.925971 1_555
Mn2 O4 1.929208 1_545
Mn2 O14 1.951915 1_555
Mn2 O9 1.963920 1_545
Mn2 O5 1.969700 1_655
Fe0 O3 1.968160 1_455
Fe0 O1 1.988270 1_555
Fe0 O8 1.989754 1_565
Fe0 O2 1.990335 1_555
Fe0 O13 2.019701 1_455
Fe0 O6 2.047482 1_555
Fe1 O3 1.968165 1_445
Fe1 O1 1.988224 1_555
Fe1 O8 1.989642 1_555
Fe1 O2 1.990225 1_555
Fe1 O15 2.019670 1_455
Fe1 O7 2.047716 1_555
Fe2 O5 1.999338 1_555
Fe2 O0 1.999447 1_545
Fe2 O4 1.999842 1_445
Fe2 O12 2.021174 1_555
Fe2 O11 2.022866 1_555
Fe2 O10 2.022938 1_555
Cu0 O0 2.036739 1_555
Cu0 O5 2.036980 1_555
Cu0 O1 2.043302 1_555
Cu0 O7 2.082050 1_555
Cu0 O6 2.082327 1_555
Cu0 O9 2.154391 1_555
Cu1 O8 2.007626 1_556
Cu1 O13 2.061680 1_556
Cu1 O15 2.061844 1_556
Cu1 O11 2.081841 1_555
Cu1 O10 2.082011 1_555
Cu1 O14 2.135208 1_555
