# generated using pymatgen
data_CN
_symmetry_space_group_name_H-M   'P 1'
_cell_length_a   4.42982500
_cell_length_b   9.56206600
_cell_length_c   18.58444721
_cell_angle_alpha   75.86542616
_cell_angle_beta   90.00000000
_cell_angle_gamma   90.00000000
_symmetry_Int_Tables_number   1
_chemical_formula_structural   CN
_chemical_formula_sum   'C16 N16'
_cell_volume   763.37243281
_cell_formula_units_Z   16
loop_
 _symmetry_equiv_pos_site_id
 _symmetry_equiv_pos_as_xyz
  1  'x, y, z'
loop_
 _atom_site_type_symbol
 _atom_site_label
 _atom_site_symmetry_multiplicity
 _atom_site_fract_x
 _atom_site_fract_y
 _atom_site_fract_z
 _atom_site_occupancy
  C  C0  1  0.13737200  0.70365400  0.35847800  1
  C  C1  1  0.63737200  0.29634600  0.14152200  1
  C  C2  1  0.86262800  0.29634600  0.64152200  1
  C  C3  1  0.36262800  0.70365400  0.85847800  1
  C  C4  1  0.31363400  0.74982500  0.29386100  1
  C  C5  1  0.81363400  0.25017500  0.20613900  1
  C  C6  1  0.68636600  0.25017500  0.70613900  1
  C  C7  1  0.18636600  0.74982500  0.79386100  1
  C  C8  1  0.04151800  0.80230200  0.39896500  1
  C  C9  1  0.54151800  0.19769800  0.10103500  1
  C  C10  1  0.95848200  0.19769800  0.60103500  1
  C  C11  1  0.45848200  0.80230200  0.89896500  1
  C  C12  1  0.03682700  0.55945600  0.38107500  1
  C  C13  1  0.53682700  0.44054400  0.11892500  1
  C  C14  1  0.96317300  0.44054400  0.61892500  1
  C  C15  1  0.46317300  0.55945600  0.88107500  1
  N  N0  1  0.54069200  0.82833800  0.59442300  1
  N  N1  1  0.04069200  0.17166200  0.90557700  1
  N  N2  1  0.45930800  0.17166200  0.40557700  1
  N  N3  1  0.95930800  0.82833800  0.09442300  1
  N  N4  1  0.45901300  0.78842700  0.23989600  1
  N  N5  1  0.95901300  0.21157300  0.26010400  1
  N  N6  1  0.54098700  0.21157300  0.76010400  1
  N  N7  1  0.04098700  0.78842700  0.73989600  1
  N  N8  1  0.94993400  0.88235200  0.43275200  1
  N  N9  1  0.44993400  0.11764800  0.06724800  1
  N  N10  1  0.05006600  0.11764800  0.56724800  1
  N  N11  1  0.55006600  0.88235200  0.93275200  1
  N  N12  1  0.94184300  0.44184000  0.40050200  1
  N  N13  1  0.44184300  0.55816000  0.09949800  1
  N  N14  1  0.05815700  0.55816000  0.59949800  1
  N  N15  1  0.55815700  0.44184000  0.90050200  1
loop_
_geom_bond_atom_site_label_1
_geom_bond_atom_site_label_2
_geom_bond_distance
_geom_bond_site_symmetry_2
C0 C8 1.408142 1_555
C0 C4 1.409870 1_555
C0 C12 1.411775 1_555
C1 C9 1.408142 1_555
C1 C5 1.409870 1_555
C1 C13 1.411775 1_555
C2 C6 1.409870 1_555
C3 C7 1.409870 1_555
C4 N4 1.173036 1_555
C5 N5 1.173036 1_555
C6 N6 1.173036 1_555
C7 N7 1.173036 1_555
C8 N8 1.174526 1_455
C9 N9 1.174526 1_555
C10 N10 1.174526 1_655
C10 C2 1.408142 1_555
C11 N11 1.174526 1_555
C11 C3 1.408142 1_555
C12 N12 1.172144 1_455
C13 N13 1.172144 1_555
C14 N14 1.172144 1_655
C14 C2 1.411775 1_555
C15 N15 1.172144 1_555
C15 C3 1.411775 1_555
