# generated using pymatgen
data_LiFe2(SO4)3
_symmetry_space_group_name_H-M   'P 1'
_cell_length_a   8.70426708
_cell_length_b   8.70426708
_cell_length_c   8.70426715
_cell_angle_alpha   59.72724735
_cell_angle_beta   59.72724735
_cell_angle_gamma   59.72724911
_symmetry_Int_Tables_number   1
_chemical_formula_structural   LiFe2(SO4)3
_chemical_formula_sum   'Li2 Fe4 S6 O24'
_cell_volume   463.42881046
_cell_formula_units_Z   2
loop_
 _symmetry_equiv_pos_site_id
 _symmetry_equiv_pos_as_xyz
  1  'x, y, z'
loop_
 _atom_site_type_symbol
 _atom_site_label
 _atom_site_symmetry_multiplicity
 _atom_site_fract_x
 _atom_site_fract_y
 _atom_site_fract_z
 _atom_site_occupancy
  Li  Li0  1  0.00000000  0.00000000  0.00000000  1
  Li  Li1  1  0.50000000  0.50000000  0.50000000  1
  Fe  Fe0  1  0.35565800  0.35565800  0.35565800  1
  Fe  Fe1  1  0.14434200  0.14434200  0.14434200  1
  Fe  Fe2  1  0.64434200  0.64434200  0.64434200  1
  Fe  Fe3  1  0.85565800  0.85565800  0.85565800  1
  S  S0  1  0.75000000  0.04506700  0.45493300  1
  S  S1  1  0.95493300  0.54506700  0.25000000  1
  S  S2  1  0.54506700  0.25000000  0.95493300  1
  S  S3  1  0.45493300  0.75000000  0.04506700  1
  S  S4  1  0.04506700  0.45493300  0.75000000  1
  S  S5  1  0.25000000  0.95493300  0.54506700  1
  O  O0  1  0.90824800  0.05975300  0.27023400  1
  O  O1  1  0.72976600  0.09175200  0.94024700  1
  O  O2  1  0.89391700  0.49447200  0.69028000  1
  O  O3  1  0.00552800  0.60608300  0.80972000  1
  O  O4  1  0.59175200  0.22976600  0.44024700  1
  O  O5  1  0.77023400  0.55975300  0.40824800  1
  O  O6  1  0.94024700  0.72976600  0.09175200  1
  O  O7  1  0.19028000  0.99447200  0.39391700  1
  O  O8  1  0.50552800  0.30972000  0.10608300  1
  O  O9  1  0.30972000  0.10608300  0.50552800  1
  O  O10  1  0.39391700  0.19028000  0.99447200  1
  O  O11  1  0.55975300  0.40824800  0.77023400  1
  O  O12  1  0.44024700  0.59175200  0.22976600  1
  O  O13  1  0.69028000  0.89391700  0.49447200  1
  O  O14  1  0.60608300  0.80972000  0.00552800  1
  O  O15  1  0.80972000  0.00552800  0.60608300  1
  O  O16  1  0.49447200  0.69028000  0.89391700  1
  O  O17  1  0.05975300  0.27023400  0.90824800  1
  O  O18  1  0.22976600  0.44024700  0.59175200  1
  O  O19  1  0.40824800  0.77023400  0.55975300  1
  O  O20  1  0.10608300  0.50552800  0.30972000  1
  O  O21  1  0.99447200  0.39391700  0.19028000  1
  O  O22  1  0.27023400  0.90824800  0.05975300  1
  O  O23  1  0.09175200  0.94024700  0.72976600  1
loop_
_geom_bond_atom_site_label_1
_geom_bond_atom_site_label_2
_geom_bond_distance
_geom_bond_site_symmetry_2
Li0 O6 2.315552 1_445
Li0 O17 2.315552 1_554
Li0 O23 2.315552 1_544
Li0 O0 2.315552 1_455
Li0 O1 2.315552 1_454
Li0 O22 2.315552 1_545
Li1 O18 2.315552 1_555
Li1 O5 2.315552 1_555
Li1 O12 2.315552 1_555
Li1 O11 2.315552 1_555
Li1 O19 2.315552 1_555
Li1 O4 2.315552 1_555
Fe0 O9 2.018286 1_555
Fe0 O8 2.018286 1_555
Fe0 O20 2.018286 1_555
Fe0 O12 2.099444 1_555
Fe0 O18 2.099444 1_555
Fe0 O4 2.099444 1_555
Fe1 O10 2.018286 1_554
Fe1 O7 2.018286 1_545
Fe1 O21 2.018286 1_455
Fe1 O0 2.099444 1_455
Fe1 O17 2.099444 1_554
Fe1 O22 2.099444 1_545
Fe2 O13 2.018286 1_555
Fe2 O16 2.018286 1_555
Fe2 O2 2.018286 1_555
Fe2 O11 2.099444 1_555
Fe2 O5 2.099444 1_555
Fe2 O19 2.099444 1_555
Fe3 O14 2.018286 1_556
Fe3 O15 2.018286 1_565
Fe3 O3 2.018286 1_655
Fe3 O23 2.099444 1_655
Fe3 O6 2.099444 1_556
Fe3 O1 2.099444 1_565
O0 S0 1.495292 1_555
O1 S2 1.495292 1_555
O2 S4 1.473849 1_655
O3 S4 1.473849 1_555
O4 S0 1.495292 1_555
O5 S1 1.495292 1_555
O6 S1 1.495292 1_555
O7 S5 1.473849 1_555
O8 S2 1.473849 1_554
O9 S5 1.473848 1_545
O10 S2 1.473848 1_555
O11 S2 1.495292 1_555
O12 S3 1.495292 1_555
O13 S0 1.473848 1_565
O14 S3 1.473848 1_555
O15 S0 1.473849 1_555
O16 S3 1.473849 1_556
O17 S4 1.495292 1_555
O18 S4 1.495292 1_555
O19 S5 1.495292 1_555
O20 S1 1.473849 1_455
O21 S1 1.473849 1_555
O22 S3 1.495292 1_555
O23 S5 1.495292 1_555
