# generated using pymatgen
data_Li3V3P8O29
_symmetry_space_group_name_H-M   'P 1'
_cell_length_a   9.73966100
_cell_length_b   9.75071855
_cell_length_c   14.40838449
_cell_angle_alpha   89.56407724
_cell_angle_beta   91.01957971
_cell_angle_gamma   119.59382930
_symmetry_Int_Tables_number   1
_chemical_formula_structural   Li3V3P8O29
_chemical_formula_sum   'Li6 V6 P16 O58'
_cell_volume   1189.65273363
_cell_formula_units_Z   2
loop_
 _symmetry_equiv_pos_site_id
 _symmetry_equiv_pos_as_xyz
  1  'x, y, z'
loop_
 _atom_site_type_symbol
 _atom_site_label
 _atom_site_symmetry_multiplicity
 _atom_site_fract_x
 _atom_site_fract_y
 _atom_site_fract_z
 _atom_site_occupancy
  Li  Li0  1  0.30035200  0.08088400  0.55665900  1
  Li  Li1  1  0.91288000  0.67893500  0.06095300  1
  Li  Li2  1  0.77749800  0.69341800  0.54997300  1
  Li  Li3  1  0.67960700  0.77560300  0.94824800  1
  Li  Li4  1  0.69647400  0.92129700  0.43577100  1
  Li  Li5  1  0.07661500  0.08502000  0.01398400  1
  V  V0  1  0.42961300  0.42702300  0.24844700  1
  V  V1  1  0.56010100  0.56109700  0.75158600  1
  V  V2  1  0.99979800  0.43147700  0.75001200  1
  V  V3  1  0.00140400  0.56181700  0.25395700  1
  V  V4  1  0.56680700  0.00780600  0.24076400  1
  V  V5  1  0.43229900  0.99296200  0.75500500  1
  P  P0  1  0.78135800  0.08256200  0.83339900  1
  P  P1  1  0.91358500  0.22310900  0.34243000  1
  P  P2  1  0.31831400  0.08712900  0.34168500  1
  P  P3  1  0.66824800  0.34125400  0.13127400  1
  P  P4  1  0.66252600  0.33051500  0.63488300  1
  P  P5  1  0.30804500  0.22266500  0.84025500  1
  P  P6  1  0.22340600  0.31301200  0.65968500  1
  P  P7  1  0.91207000  0.68231700  0.84503600  1
  P  P8  1  0.07877900  0.30329800  0.16093000  1
  P  P9  1  0.77139900  0.67890400  0.33809800  1
  P  P10  1  0.68144700  0.76959400  0.15995300  1
  P  P11  1  0.34448200  0.67157300  0.36442900  1
  P  P12  1  0.33431200  0.66421600  0.86757600  1
  P  P13  1  0.67587800  0.90608700  0.65459400  1
  P  P14  1  0.08322800  0.77355000  0.66610200  1
  P  P15  1  0.21412300  0.91332800  0.16230500  1
  O  O0  1  0.73701900  0.97383400  0.56227200  1
  O  O1  1  0.74058600  0.08154000  0.33225800  1
  O  O2  1  0.00381800  0.20707000  0.07696100  1
  O  O3  1  0.91676600  0.25536300  0.83145400  1
  O  O4  1  0.61925000  0.08046800  0.82555100  1
  O  O5  1  0.67249100  0.19108300  0.17332200  1
  O  O6  1  0.47804100  0.09705000  0.31624200  1
  O  O7  1  0.18847200  0.99494300  0.08250100  1
  O  O8  1  0.34936100  0.08849100  0.82795700  1
  O  O9  1  0.81464400  0.33737100  0.67928100  1
  O  O10  1  0.90666000  0.37906700  0.32152400  1
  O  O11  1  0.51773200  0.17738800  0.67180000  1
  O  O12  1  0.66868000  0.34580600  0.02846500  1
  O  O13  1  0.66643200  0.34962300  0.53260600  1
  O  O14  1  0.51763600  0.33167400  0.17623300  1
  O  O15  1  0.91171200  0.52583400  0.82612700  1
  O  O16  1  0.81479900  0.49191000  0.17367200  1
  O  O17  1  0.34007500  0.25512700  0.32947500  1
  O  O18  1  0.20170600  0.20556100  0.75016500  1
  O  O19  1  0.23447900  0.23266100  0.57638200  1
  O  O20  1  0.21991900  0.20788400  0.92482500  1
  O  O21  1  0.46389500  0.38312200  0.82855000  1
  O  O22  1  0.65736200  0.47563300  0.68241100  1
  O  O23  1  0.25539400  0.34524200  0.17041300  1
  O  O24  1  0.62051700  0.51986000  0.32172700  1
  O  O25  1  0.91822500  0.65703800  0.33349500  1
  O  O26  1  0.99863500  0.20214500  0.25278000  1
  O  O27  1  0.99191000  0.22340600  0.43039800  1
  O  O28  1  0.98796800  0.77090100  0.58406900  1
  O  O29  1  0.08202400  0.34328800  0.66578500  1
  O  O30  1  0.37674000  0.47513400  0.68034000  1
  O  O31  1  0.74065900  0.65734300  0.83451500  1
  O  O32  1  0.34811400  0.52641800  0.32075200  1
  O  O33  1  0.52639900  0.61385000  0.17179800  1
  O  O34  1  0.76802200  0.77293800  0.07375300  1
  O  O35  1  0.76597100  0.76009100  0.42483000  1
  O  O36  1  0.79110700  0.79163300  0.25033000  1
  O  O37  1  0.65801300  0.73815400  0.66504200  1
  O  O38  1  0.18832600  0.51699600  0.82437400  1
  O  O39  1  0.07285200  0.45873200  0.17168800  1
  O  O40  1  0.48876900  0.67426900  0.82542700  1
  O  O41  1  0.34785700  0.67335100  0.97020000  1
  O  O42  1  0.34834600  0.67445900  0.46711400  1
  O  O43  1  0.48516100  0.82282600  0.32094500  1
  O  O44  1  0.09118100  0.61941700  0.68030300  1
  O  O45  1  0.18758100  0.65864600  0.31930900  1
  O  O46  1  0.65225700  0.91214000  0.16447300  1
  O  O47  1  0.79778100  0.01016100  0.73601200  1
  O  O48  1  0.79191100  0.99035600  0.91296000  1
  O  O49  1  0.51778100  0.89865100  0.67975700  1
  O  O50  1  0.32824600  0.81202100  0.82349100  1
  O  O51  1  0.37930400  0.92229800  0.16874400  1
  O  O52  1  0.08201300  0.73688700  0.16494500  1
  O  O53  1  0.97906900  0.75519100  0.93689500  1
  O  O54  1  0.00948500  0.79794000  0.76115600  1
  O  O55  1  0.25359000  0.91749200  0.66479300  1
  O  O56  1  0.25803400  0.01579200  0.43326700  1
  O  O57  1  0.19695600  0.98390700  0.25998800  1
loop_
_geom_bond_atom_site_label_1
_geom_bond_atom_site_label_2
_geom_bond_distance
_geom_bond_site_symmetry_2
Li0 O56 1.861796 1_555
Li0 O19 1.906120 1_555
Li0 O55 2.108070 1_545
Li0 O11 2.459937 1_555
Li1 O53 1.926361 1_554
Li1 O34 2.038095 1_555
Li1 O52 2.069692 1_655
Li1 O16 2.272747 1_555
Li2 O28 1.858600 1_555
Li2 O35 1.932225 1_555
Li2 O37 2.207818 1_555
Li3 O48 1.892377 1_555
Li3 O34 1.994550 1_556
Li3 O31 2.260376 1_555
Li3 O40 2.378724 1_555
Li4 O0 1.878643 1_555
Li4 O35 2.003059 1_555
Li4 O1 2.043205 1_565
Li4 O43 2.417884 1_555
Li5 O20 1.849988 1_554
Li5 O2 1.901338 1_555
Li5 O7 1.956164 1_545
O0 P13 1.478759 1_555
O1 P1 1.569409 1_555
O1 V4 1.962804 1_555
O2 P8 1.478652 1_555
O3 P0 1.544310 1_555
O3 V2 1.900354 1_555
O4 P0 1.570954 1_555
O4 V5 1.868016 1_545
O5 P3 1.599448 1_555
O5 V4 1.841127 1_555
O6 P2 1.560457 1_555
O6 V4 1.865022 1_555
O7 P15 1.479896 1_555
O8 P5 1.559169 1_555
O8 V5 1.847517 1_545
O9 P4 1.574121 1_555
O9 V2 1.856626 1_555
O10 P1 1.581592 1_555
O10 V3 1.831959 1_655
O11 P4 1.560753 1_555
O11 V5 1.971856 1_545
O12 P3 1.481657 1_555
O13 P4 1.482771 1_555
O14 P3 1.574082 1_555
O14 V0 1.875021 1_555
O15 P7 1.550293 1_555
O15 V2 1.900981 1_555
O16 P3 1.574844 1_555
O16 V3 1.954359 1_655
O17 P2 1.553471 1_555
O17 V0 1.869658 1_555
O18 P5 1.603210 1_555
O18 P6 1.616249 1_555
O19 P6 1.472573 1_555
O20 P5 1.467866 1_555
O21 P5 1.561998 1_555
O21 V1 1.876405 1_555
O22 P4 1.599995 1_555
O22 V1 1.846930 1_555
O23 P8 1.562863 1_555
O23 V0 1.840809 1_555
O24 P9 1.537030 1_555
O24 V0 1.916678 1_555
O25 P9 1.549062 1_555
O25 V3 1.903653 1_655
O26 P8 1.609351 1_655
O26 P1 1.614256 1_555
O27 P1 1.466943 1_555
O28 P14 1.481987 1_655
O29 P6 1.548306 1_555
O29 V2 1.893204 1_455
O30 P6 1.573976 1_555
O30 V1 1.847987 1_555
O31 P7 1.568271 1_555
O31 V1 1.926979 1_555
O32 P11 1.569824 1_555
O32 V0 1.859932 1_555
O33 P10 1.534903 1_555
O33 V0 1.933180 1_555
O34 P10 1.504705 1_555
O35 P9 1.499962 1_555
O36 P10 1.615757 1_555
O36 P9 1.619678 1_555
O37 P13 1.565250 1_555
O37 V1 1.956611 1_555
O38 P12 1.560750 1_555
O38 V2 1.909505 1_455
O39 P8 1.553927 1_555
O39 V3 1.907357 1_555
O40 P12 1.589803 1_555
O40 V1 1.906241 1_555
O41 P12 1.481617 1_555
O42 P11 1.479462 1_555
O43 P11 1.570225 1_555
O43 V4 1.950549 1_565
O44 P14 1.554457 1_555
O44 V2 1.884688 1_455
O45 P11 1.596699 1_555
O45 V3 1.824259 1_555
O46 P10 1.552190 1_555
O46 V4 1.893684 1_565
O47 P13 1.610638 1_545
O47 P0 1.620957 1_555
O48 P0 1.484724 1_565
O49 P13 1.554644 1_555
O49 V5 1.875587 1_555
O50 P12 1.597770 1_555
O50 V5 1.832111 1_555
O51 P15 1.568549 1_555
O51 V4 1.883841 1_565
O52 P15 1.559239 1_555
O52 V3 1.963182 1_555
O53 P7 1.485963 1_555
O54 P7 1.611045 1_455
O54 P14 1.629976 1_555
O55 P14 1.556908 1_555
O55 V5 1.982307 1_555
O56 P2 1.476479 1_555
O57 P2 1.609105 1_565
O57 P15 1.618413 1_555
