# generated using pymatgen
data_LiFeB2O5
_symmetry_space_group_name_H-M   'P 1'
_cell_length_a   11.85084000
_cell_length_b   4.36834000
_cell_length_c   6.21350197
_cell_angle_alpha   88.78327615
_cell_angle_beta   90.00000000
_cell_angle_gamma   90.00000000
_symmetry_Int_Tables_number   1
_chemical_formula_structural   LiFeB2O5
_chemical_formula_sum   'Li4 Fe4 B8 O20'
_cell_volume   321.59114071
_cell_formula_units_Z   4
loop_
 _symmetry_equiv_pos_site_id
 _symmetry_equiv_pos_as_xyz
  1  'x, y, z'
loop_
 _atom_site_type_symbol
 _atom_site_label
 _atom_site_symmetry_multiplicity
 _atom_site_fract_x
 _atom_site_fract_y
 _atom_site_fract_z
 _atom_site_occupancy
  Li  Li0  1  0.72248100  0.62203100  0.74600400  1
  Li  Li1  1  0.77751900  0.62203100  0.24600400  1
  Li  Li2  1  0.22248100  0.37796900  0.75399600  1
  Li  Li3  1  0.27751900  0.37796900  0.25399600  1
  Fe  Fe0  1  0.39984600  0.79365700  0.50696800  1
  Fe  Fe1  1  0.10015400  0.79365700  0.00696800  1
  Fe  Fe2  1  0.89984600  0.20634300  0.99303200  1
  Fe  Fe3  1  0.60015400  0.20634300  0.49303200  1
  B  B0  1  0.36663900  0.81457200  0.98149500  1
  B  B1  1  0.13336100  0.81457200  0.48149500  1
  B  B2  1  0.94286100  0.69308200  0.70850200  1
  B  B3  1  0.55713900  0.69308200  0.20850200  1
  B  B4  1  0.44286100  0.30691800  0.79149800  1
  B  B5  1  0.05713900  0.30691800  0.29149800  1
  B  B6  1  0.86663900  0.18542800  0.51850500  1
  B  B7  1  0.63336100  0.18542800  0.01850500  1
  O  O0  1  0.86280100  0.85795000  0.57543200  1
  O  O1  1  0.63719900  0.85795000  0.07543200  1
  O  O2  1  0.92403600  0.75783100  0.94854300  1
  O  O3  1  0.57596400  0.75783100  0.44854300  1
  O  O4  1  0.06671000  0.76317200  0.68767800  1
  O  O5  1  0.25357400  0.69368000  0.01328000  1
  O  O6  1  0.43329000  0.76317200  0.18767800  1
  O  O7  1  0.24642600  0.69368000  0.51328000  1
  O  O8  1  0.42591200  0.64323600  0.80817100  1
  O  O9  1  0.07408800  0.64323600  0.30817100  1
  O  O10  1  0.92591200  0.35676400  0.69182900  1
  O  O11  1  0.57408800  0.35676400  0.19182900  1
  O  O12  1  0.75357400  0.30632000  0.48672000  1
  O  O13  1  0.56671000  0.23682800  0.81232200  1
  O  O14  1  0.74642600  0.30632000  0.98672000  1
  O  O15  1  0.93329000  0.23682800  0.31232200  1
  O  O16  1  0.42403600  0.24216900  0.55145700  1
  O  O17  1  0.07596400  0.24216900  0.05145700  1
  O  O18  1  0.36280100  0.14205000  0.92456800  1
  O  O19  1  0.13719900  0.14205000  0.42456800  1
loop_
_geom_bond_atom_site_label_1
_geom_bond_atom_site_label_2
_geom_bond_distance
_geom_bond_site_symmetry_2
Li0 O14 2.032736 1_555
Li0 O12 2.174319 1_555
Li0 O0 2.214554 1_555
Li0 O1 2.522482 1_556
Li0 O13 2.525788 1_555
Li0 O3 2.595453 1_555
Li1 O12 2.032736 1_555
Li1 O14 2.174319 1_554
Li1 O1 2.214554 1_555
Li1 O0 2.522482 1_555
Li1 O15 2.525788 1_555
Li1 O2 2.595453 1_554
Li2 O7 2.032736 1_555
Li2 O5 2.174319 1_556
Li2 O18 2.214554 1_555
Li2 O19 2.522482 1_555
Li2 O4 2.525788 1_555
Li2 O17 2.595453 1_556
Li3 O5 2.032736 1_555
Li3 O7 2.174319 1_555
Li3 O19 2.214554 1_555
Li3 O18 2.522482 1_554
Li3 O6 2.525788 1_555
Li3 O16 2.595453 1_555
Fe0 O7 1.870090 1_555
Fe0 O8 1.994385 1_555
Fe0 O16 2.005061 1_565
Fe0 O6 2.030255 1_555
Fe0 O3 2.124823 1_555
Fe0 O16 2.435983 1_555
Fe1 O5 1.870090 1_555
Fe1 O9 1.994385 1_555
Fe1 O17 2.005061 1_565
Fe1 O4 2.030255 1_554
Fe1 O2 2.124823 1_454
Fe1 O17 2.435983 1_555
Fe2 O14 1.870090 1_555
Fe2 O10 1.994385 1_555
Fe2 O2 2.005061 1_545
Fe2 O15 2.030255 1_556
Fe2 O17 2.124823 1_656
Fe2 O2 2.435983 1_555
Fe3 O12 1.870090 1_555
Fe3 O11 1.994385 1_555
Fe3 O3 2.005061 1_545
Fe3 O13 2.030255 1_555
Fe3 O16 2.124823 1_555
Fe3 O3 2.435983 1_555
B0 O5 1.452183 1_556
B0 O18 1.467013 1_565
B0 O8 1.499216 1_555
B0 O6 1.517682 1_556
B1 O7 1.452183 1_555
B1 O19 1.467013 1_565
B1 O9 1.499216 1_555
B1 O4 1.517682 1_555
B2 O0 1.441259 1_555
B2 O10 1.488606 1_555
B2 O4 1.504324 1_655
B2 O2 1.540210 1_555
B3 O1 1.441259 1_555
B3 O11 1.488606 1_555
B3 O6 1.504324 1_555
B3 O3 1.540210 1_555
B4 O18 1.441259 1_555
B4 O8 1.488606 1_555
B4 O13 1.504324 1_555
B4 O16 1.540210 1_555
B5 O19 1.441259 1_555
B5 O9 1.488606 1_555
B5 O15 1.504324 1_455
B5 O17 1.540210 1_555
B6 O12 1.452183 1_555
B6 O0 1.467013 1_545
B6 O10 1.499216 1_555
B6 O15 1.517682 1_555
B7 O14 1.452183 1_554
B7 O1 1.467013 1_545
B7 O11 1.499216 1_555
B7 O13 1.517682 1_554
