# generated using pymatgen
data_ZrCuH8(O2F3)2
_symmetry_space_group_name_H-M   'P 1'
_cell_length_a   10.03206100
_cell_length_b   5.80205900
_cell_length_c   7.63414194
_cell_angle_alpha   77.89638365
_cell_angle_beta   90.00000000
_cell_angle_gamma   90.00000000
_symmetry_Int_Tables_number   1
_chemical_formula_structural   ZrCuH8(O2F3)2
_chemical_formula_sum   'Zr2 Cu2 H16 O8 F12'
_cell_volume   434.47945552
_cell_formula_units_Z   2
loop_
 _symmetry_equiv_pos_site_id
 _symmetry_equiv_pos_as_xyz
  1  'x, y, z'
loop_
 _atom_site_type_symbol
 _atom_site_label
 _atom_site_symmetry_multiplicity
 _atom_site_fract_x
 _atom_site_fract_y
 _atom_site_fract_z
 _atom_site_occupancy
  Zr  Zr0  1  0.00000000  0.50000000  0.50000000  1
  Zr  Zr1  1  0.50000000  0.50000000  0.00000000  1
  Cu  Cu0  1  0.00000000  0.00000000  0.00000000  1
  Cu  Cu1  1  0.50000000  0.00000000  0.50000000  1
  H  H0  1  0.14415000  0.78400000  0.79301500  1
  H  H1  1  0.64415000  0.21600000  0.70698500  1
  H  H2  1  0.85585000  0.21600000  0.20698500  1
  H  H3  1  0.35585000  0.78400000  0.29301500  1
  H  H4  1  0.22090000  0.78572100  0.97359600  1
  H  H5  1  0.72090000  0.21427900  0.52640400  1
  H  H6  1  0.77910000  0.21427900  0.02640400  1
  H  H7  1  0.27910000  0.78572100  0.47359600  1
  H  H8  1  0.86352000  0.75788000  0.81490200  1
  H  H9  1  0.36352000  0.24212000  0.68509800  1
  H  H10  1  0.13648000  0.24212000  0.18509800  1
  H  H11  1  0.63648000  0.75788000  0.31490200  1
  H  H12  1  0.79009600  0.75810700  0.00081600  1
  H  H13  1  0.29009600  0.24189300  0.49918400  1
  H  H14  1  0.20990400  0.24189300  0.99918400  1
  H  H15  1  0.70990400  0.75810700  0.50081600  1
  O  O0  1  0.87874800  0.75701200  0.94279500  1
  O  O1  1  0.37874800  0.24298800  0.55720500  1
  O  O2  1  0.12125200  0.24298800  0.05720500  1
  O  O3  1  0.62125200  0.75701200  0.44279500  1
  O  O4  1  0.15665400  0.87541200  0.88770700  1
  O  O5  1  0.65665400  0.12458800  0.61229300  1
  O  O6  1  0.84334600  0.12458800  0.11229300  1
  O  O7  1  0.34334600  0.87541200  0.38770700  1
  F  F0  1  0.46490200  0.75011900  0.77931100  1
  F  F1  1  0.96490200  0.24988100  0.72068900  1
  F  F2  1  0.53509800  0.24988100  0.22068900  1
  F  F3  1  0.03509800  0.75011900  0.27931100  1
  F  F4  1  0.86384200  0.71157700  0.59262200  1
  F  F5  1  0.36384200  0.28842300  0.90737800  1
  F  F6  1  0.13615800  0.28842300  0.40737800  1
  F  F7  1  0.63615800  0.71157700  0.09262200  1
  F  F8  1  0.15101200  0.64600200  0.62220300  1
  F  F9  1  0.65101200  0.35399800  0.87779700  1
  F  F10  1  0.84898800  0.35399800  0.37779700  1
  F  F11  1  0.34898800  0.64600200  0.12220300  1
loop_
_geom_bond_atom_site_label_1
_geom_bond_atom_site_label_2
_geom_bond_distance
_geom_bond_site_symmetry_2
Cu0 O2 1.978935 1_555
Cu0 O0 1.978935 1_444
Cu0 O4 1.996776 1_544
Cu0 O6 1.996776 1_455
Cu0 F3 2.340136 1_545
Cu0 F1 2.340136 1_454
Cu1 O1 1.978935 1_555
Cu1 O3 1.978935 1_545
Cu1 O5 1.996776 1_555
Cu1 O7 1.996776 1_545
Cu1 F0 2.340136 1_545
Cu1 F2 2.340136 1_555
H0 O4 0.990149 1_555
H1 O5 0.990149 1_555
H2 O6 0.990149 1_555
H3 O7 0.990149 1_555
H4 O4 0.986433 1_555
H5 O5 0.986433 1_555
H6 O6 0.986433 1_555
H7 O7 0.986433 1_555
H8 O0 0.987202 1_555
H9 O1 0.987202 1_555
H10 O2 0.987202 1_555
H11 O3 0.987202 1_555
H12 O0 0.994174 1_554
H13 O1 0.994174 1_555
H14 O2 0.994174 1_556
H15 O3 0.994174 1_555
F0 Zr1 2.010749 1_556
F1 Zr0 2.010749 1_655
F2 Zr1 2.010749 1_555
F3 Zr0 2.010749 1_555
F4 Zr0 2.058337 1_655
F5 Zr1 2.058337 1_556
F6 Zr0 2.058337 1_555
F7 Zr1 2.058337 1_555
F8 Zr0 2.052913 1_555
F9 Zr1 2.052913 1_556
F10 Zr0 2.052913 1_655
F11 Zr1 2.052913 1_555
