# generated using pymatgen
data_Li3Fe4(BO3)4
_symmetry_space_group_name_H-M   'P 1'
_cell_length_a   5.22355800
_cell_length_b   5.24776806
_cell_length_c   20.41596908
_cell_angle_alpha   90.63207833
_cell_angle_beta   90.80816625
_cell_angle_gamma   119.66937096
_symmetry_Int_Tables_number   1
_chemical_formula_structural   Li3Fe4(BO3)4
_chemical_formula_sum   'Li6 Fe8 B8 O24'
_cell_volume   486.11878805
_cell_formula_units_Z   2
loop_
 _symmetry_equiv_pos_site_id
 _symmetry_equiv_pos_as_xyz
  1  'x, y, z'
loop_
 _atom_site_type_symbol
 _atom_site_label
 _atom_site_symmetry_multiplicity
 _atom_site_fract_x
 _atom_site_fract_y
 _atom_site_fract_z
 _atom_site_occupancy
  Li  Li0  1  0.67691100  0.65368700  0.33006100  1
  Li  Li1  1  0.67423300  0.65076900  0.83118500  1
  Li  Li2  1  0.64925400  0.67500600  0.58413500  1
  Li  Li3  1  0.34214800  0.33608100  0.20488100  1
  Li  Li4  1  0.33401800  0.34570100  0.45660500  1
  Li  Li5  1  0.34139600  0.34950300  0.95859200  1
  Fe  Fe0  1  0.98827700  0.67441300  0.18807800  1
  Fe  Fe1  1  0.01012900  0.67262300  0.69250600  1
  Fe  Fe2  1  0.32941300  0.99525900  0.06723800  1
  Fe  Fe3  1  0.31581600  0.00601300  0.56667600  1
  Fe  Fe4  1  0.67476300  0.00091800  0.44166300  1
  Fe  Fe5  1  0.67957600  0.00537400  0.94058400  1
  Fe  Fe6  1  0.99187400  0.31989400  0.31503000  1
  Fe  Fe7  1  0.00762000  0.31912900  0.81366200  1
  B  B0  1  0.00026000  0.33733200  0.06320000  1
  B  B1  1  0.99519200  0.33659600  0.56473000  1
  B  B2  1  0.66675400  0.00425700  0.18778300  1
  B  B3  1  0.66899700  0.00659800  0.68769600  1
  B  B4  1  0.33936900  0.99804200  0.31280700  1
  B  B5  1  0.34269700  0.00024600  0.81337600  1
  B  B6  1  0.00502800  0.66795500  0.43860200  1
  B  B7  1  0.00466600  0.66668700  0.93951400  1
  O  O0  1  0.92811000  0.25798600  0.20508300  1
  O  O1  1  0.90063500  0.27225500  0.70984000  1
  O  O2  1  0.72689400  0.10161800  0.04489300  1
  O  O3  1  0.01961000  0.60015900  0.08305400  1
  O  O4  1  0.74074300  0.07170000  0.54970300  1
  O  O5  1  0.97270800  0.57890700  0.58700400  1
  O  O6  1  0.41869000  0.03111400  0.16751200  1
  O  O7  1  0.73182200  0.65122600  0.43233000  1
  O  O8  1  0.39872300  0.98441500  0.67145500  1
  O  O9  1  0.73708000  0.65677900  0.93092900  1
  O  O10  1  0.64141300  0.73290000  0.19088500  1
  O  O11  1  0.70297200  0.76434600  0.67967000  1
  O  O12  1  0.36030100  0.26928600  0.30585800  1
  O  O13  1  0.35434300  0.26517300  0.81585500  1
  O  O14  1  0.24946800  0.31180400  0.05834000  1
  O  O15  1  0.58722200  0.97922600  0.33349300  1
  O  O16  1  0.26992000  0.36220600  0.55661400  1
  O  O17  1  0.58629300  0.97327300  0.83141400  1
  O  O18  1  0.02819400  0.42008000  0.42370200  1
  O  O19  1  0.02854200  0.42043400  0.92323800  1
  O  O20  1  0.25229500  0.92949900  0.45947700  1
  O  O21  1  0.25402200  0.92332400  0.96272500  1
  O  O22  1  0.07604500  0.74176800  0.29739300  1
  O  O23  1  0.07726800  0.74508200  0.79245100  1
loop_
_geom_bond_atom_site_label_1
_geom_bond_atom_site_label_2
_geom_bond_distance
_geom_bond_site_symmetry_2
Li0 O12 1.923740 1_555
Li0 O15 1.983304 1_555
Li0 O22 2.024168 1_655
Li0 O7 2.104571 1_555
Li1 O13 1.899632 1_555
Li1 O17 1.960835 1_555
Li1 O9 2.055491 1_555
Li1 O23 2.080039 1_655
Li2 O16 1.914334 1_555
Li2 O11 1.984164 1_555
Li2 O5 1.988424 1_555
Li2 O4 2.028082 1_565
Li3 O10 1.914369 1_555
Li3 O6 1.979472 1_555
Li3 O0 1.992055 1_455
Li3 O12 2.103605 1_555
Li4 O18 1.936073 1_555
Li4 O7 1.970395 1_555
Li4 O20 2.009127 1_545
Li4 O16 2.081482 1_555
Li5 O19 1.976118 1_555
Li5 O9 1.986119 1_555
Li5 O21 2.052324 1_545
Li5 O14 2.087890 1_556
Fe0 O10 1.983286 1_555
Fe0 O0 2.082012 1_555
Fe0 O6 2.147699 1_665
Fe0 O3 2.197882 1_655
Fe0 O22 2.260361 1_655
Fe1 O11 1.905285 1_455
Fe1 O1 1.923327 1_455
Fe1 O8 1.932429 1_555
Fe1 O23 2.064411 1_555
Fe1 O5 2.188390 1_455
Fe2 O14 1.912613 1_565
Fe2 O2 1.927588 1_565
Fe2 O3 1.931274 1_555
Fe2 O6 2.078839 1_565
Fe2 O21 2.159112 1_554
Fe3 O16 2.011063 1_555
Fe3 O4 2.105356 1_555
Fe3 O5 2.114879 1_445
Fe3 O8 2.191856 1_545
Fe3 O20 2.211198 1_545
Fe4 O7 2.007015 1_545
Fe4 O20 2.085543 1_545
Fe4 O18 2.097122 1_655
Fe4 O4 2.226161 1_555
Fe4 O15 2.239085 1_545
Fe5 O9 2.003320 1_545
Fe5 O19 2.072928 1_655
Fe5 O21 2.101458 1_545
Fe5 O2 2.165429 1_556
Fe5 O17 2.261244 1_545
Fe6 O15 2.025419 1_545
Fe6 O22 2.069473 1_655
Fe6 O12 2.079508 1_655
Fe6 O18 2.257971 1_655
Fe6 O0 2.260695 1_555
Fe7 O13 1.966733 1_555
Fe7 O17 2.086067 1_445
Fe7 O23 2.130065 1_555
Fe7 O1 2.164399 1_455
Fe7 O19 2.282221 1_555
B0 O14 1.377804 1_555
B0 O3 1.387572 1_555
B0 O2 1.391013 1_455
B1 O16 1.386064 1_655
B1 O4 1.393938 1_555
B1 O5 1.405037 1_555
B2 O10 1.365642 1_545
B2 O0 1.392082 1_555
B2 O6 1.427281 1_555
B3 O11 1.376257 1_545
B3 O1 1.382995 1_555
B3 O8 1.392800 1_545
B4 O12 1.381679 1_565
B4 O22 1.395274 1_555
B4 O15 1.405825 1_555
B5 O13 1.361529 1_555
B5 O17 1.393195 1_545
B5 O23 1.424981 1_545
B6 O7 1.389714 1_455
B6 O18 1.395484 1_555
B6 O20 1.396517 1_555
B7 O9 1.381329 1_455
B7 O19 1.395423 1_555
B7 O21 1.402423 1_555
