# generated using pymatgen
data_KHgBr3O
_symmetry_space_group_name_H-M   'P 1'
_cell_length_a   9.06878669
_cell_length_b   9.06878669
_cell_length_c   9.78875800
_cell_angle_alpha   90.00000000
_cell_angle_beta   90.00000000
_cell_angle_gamma   154.00020915
_symmetry_Int_Tables_number   1
_chemical_formula_structural   KHgBr3O
_chemical_formula_sum   'K2 Hg2 Br6 O2'
_cell_volume   352.91057876
_cell_formula_units_Z   2
loop_
 _symmetry_equiv_pos_site_id
 _symmetry_equiv_pos_as_xyz
  1  'x, y, z'
loop_
 _atom_site_type_symbol
 _atom_site_label
 _atom_site_symmetry_multiplicity
 _atom_site_fract_x
 _atom_site_fract_y
 _atom_site_fract_z
 _atom_site_occupancy
  K  K0  1  0.71697000  0.28303000  0.14441300  1
  K  K1  1  0.28303000  0.71697000  0.64441300  1
  Hg  Hg0  1  0.99149300  0.00850700  0.32584700  1
  Hg  Hg1  1  0.00850700  0.99149300  0.82584700  1
  Br  Br0  1  0.84976700  0.15023300  0.39444900  1
  Br  Br1  1  0.15023300  0.84976700  0.89444900  1
  Br  Br2  1  0.14073200  0.85926800  0.41714100  1
  Br  Br3  1  0.85926800  0.14073200  0.91714100  1
  Br  Br4  1  0.48377100  0.51622900  0.64002900  1
  Br  Br5  1  0.51622900  0.48377100  0.14002900  1
  O  O0  1  0.66587900  0.33412100  0.40012100  1
  O  O1  1  0.33412100  0.66587900  0.90012100  1
loop_
_geom_bond_atom_site_label_1
_geom_bond_atom_site_label_2
_geom_bond_distance
_geom_bond_site_symmetry_2
K0 O0 2.660937 1_555
K1 O1 2.660937 1_555
Br0 Hg0 2.593143 1_555
Br0 K0 3.390918 1_555
Br0 K1 3.397017 1_545
Br0 K1 3.397017 1_655
Br1 Hg1 2.593143 1_555
Br1 K1 3.390918 1_555
Br1 K0 3.397017 1_456
Br1 K0 3.397017 1_566
Br2 O0 2.094500 1_455
Br2 O0 2.094500 1_565
Br2 Hg0 2.784745 1_465
Br2 K1 3.357606 1_555
Br3 O1 2.094500 1_545
Br3 O1 2.094500 1_655
Br3 Hg1 2.784745 1_645
Br3 K0 3.357606 1_556
Br4 Hg1 2.767900 1_545
Br4 Hg1 2.767900 1_655
Br4 K1 3.547898 1_555
Br5 Hg0 2.767900 1_455
Br5 Hg0 2.767900 1_565
Br5 K0 3.547898 1_555
