# generated using pymatgen
data_Li4NbFe(WO6)2
_symmetry_space_group_name_H-M   'P 1'
_cell_length_a   5.18059717
_cell_length_b   7.57568538
_cell_length_c   10.97773743
_cell_angle_alpha   85.44700634
_cell_angle_beta   89.89018078
_cell_angle_gamma   90.08095200
_symmetry_Int_Tables_number   1
_chemical_formula_structural   Li4NbFe(WO6)2
_chemical_formula_sum   'Li8 Nb2 Fe2 W4 O24'
_cell_volume   429.47768827
_cell_formula_units_Z   2
loop_
 _symmetry_equiv_pos_site_id
 _symmetry_equiv_pos_as_xyz
  1  'x, y, z'
loop_
 _atom_site_type_symbol
 _atom_site_label
 _atom_site_symmetry_multiplicity
 _atom_site_fract_x
 _atom_site_fract_y
 _atom_site_fract_z
 _atom_site_occupancy
  Li  Li0  1  0.00093300  0.27135700  0.29476900  1
  Li  Li1  1  0.00095200  0.27135200  0.79476700  1
  Li  Li2  1  0.49819500  0.80620800  0.53174800  1
  Li  Li3  1  0.49804900  0.80620600  0.03177100  1
  Li  Li4  1  0.99505500  0.80768500  0.29338100  1
  Li  Li5  1  0.99509600  0.80766600  0.79334300  1
  Li  Li6  1  0.50429200  0.25135100  0.01286300  1
  Li  Li7  1  0.50437200  0.25138500  0.51286600  1
  Nb  Nb0  1  0.50139800  0.51332700  0.25839200  1
  Nb  Nb1  1  0.50143200  0.51334300  0.75839700  1
  Fe  Fe0  1  0.99966200  0.00085700  0.50444300  1
  Fe  Fe1  1  0.99959700  0.00075200  0.00436300  1
  W  W0  1  0.99699900  0.49837300  0.00920700  1
  W  W1  1  0.99703400  0.49842800  0.50919600  1
  W  W2  1  0.50561700  0.01041900  0.24854700  1
  W  W3  1  0.50562800  0.01042700  0.74855800  1
  O  O0  1  0.30668600  0.42929900  0.40226600  1
  O  O1  1  0.30670700  0.42932400  0.90222900  1
  O  O2  1  0.11935500  0.73336100  0.49069600  1
  O  O3  1  0.11931400  0.73333400  0.99071600  1
  O  O4  1  0.32132400  0.04578100  0.59267400  1
  O  O5  1  0.32135800  0.04566900  0.09263100  1
  O  O6  1  0.18286100  0.42889900  0.65160600  1
  O  O7  1  0.18296400  0.42893700  0.15159500  1
  O  O8  1  0.79288700  0.92902800  0.65143500  1
  O  O9  1  0.79287100  0.92902500  0.15144600  1
  O  O10  1  0.37250100  0.74745700  0.74378600  1
  O  O11  1  0.37247700  0.74742000  0.24374600  1
  O  O12  1  0.62406700  0.24720000  0.74199000  1
  O  O13  1  0.62405600  0.24719000  0.24197500  1
  O  O14  1  0.19722700  0.04831200  0.83777100  1
  O  O15  1  0.19723000  0.04831200  0.33776800  1
  O  O16  1  0.81906500  0.55525100  0.83989000  1
  O  O17  1  0.81901600  0.55520200  0.33990500  1
  O  O18  1  0.69300500  0.93441400  0.89325500  1
  O  O19  1  0.69299700  0.93441000  0.39323900  1
  O  O20  1  0.88447200  0.25773900  0.98612900  1
  O  O21  1  0.88446900  0.25774600  0.48612300  1
  O  O22  1  0.68439400  0.55496900  0.08646000  1
  O  O23  1  0.68437700  0.55498400  0.58645700  1
loop_
_geom_bond_atom_site_label_1
_geom_bond_atom_site_label_2
_geom_bond_distance
_geom_bond_site_symmetry_2
Li0 O15 1.998046 1_555
Li0 O13 2.049789 1_455
Li0 O7 2.116125 1_555
Li0 O21 2.178969 1_455
Li0 O0 2.357798 1_555
Li0 O17 2.435297 1_455
Li1 O14 1.997966 1_555
Li1 O12 2.049761 1_455
Li1 O6 2.115619 1_555
Li1 O20 2.179076 1_455
Li1 O1 2.357721 1_555
Li1 O16 2.435566 1_455
Li2 O19 2.007634 1_555
Li2 O2 2.097458 1_555
Li2 O23 2.176950 1_555
Li2 O4 2.185400 1_565
Li2 O8 2.262865 1_555
Li2 O10 2.422640 1_555
Li3 O18 2.008108 1_554
Li3 O3 2.097010 1_554
Li3 O22 2.177364 1_555
Li3 O5 2.184027 1_565
Li3 O9 2.263236 1_555
Li3 O11 2.421846 1_555
Li4 O9 2.037510 1_555
Li4 O11 2.089581 1_655
Li4 O17 2.142265 1_555
Li4 O19 2.176424 1_555
Li4 O15 2.189760 1_665
Li4 O2 2.288299 1_655
Li5 O8 2.037426 1_555
Li5 O10 2.089160 1_655
Li5 O16 2.141840 1_555
Li5 O18 2.176949 1_555
Li5 O14 2.189904 1_665
Li5 O3 2.288779 1_655
Li6 O5 1.966953 1_555
Li6 O20 1.990702 1_554
Li6 O1 2.022209 1_554
Li6 O13 2.589457 1_555
Li7 O4 1.966957 1_555
Li7 O21 1.990289 1_555
Li7 O0 2.021994 1_555
Li7 O12 2.589487 1_555
Nb0 O11 1.890877 1_555
Nb0 O17 1.912616 1_555
Nb0 O0 1.936425 1_555
Nb0 O22 2.111496 1_555
Nb0 O13 2.135902 1_555
Nb0 O7 2.151298 1_555
Nb1 O10 1.891039 1_555
Nb1 O16 1.912627 1_555
Nb1 O1 1.936079 1_555
Nb1 O23 2.111454 1_555
Nb1 O12 2.135892 1_555
Nb1 O6 2.151945 1_555
Fe0 O4 1.971745 1_655
Fe0 O8 1.974783 1_545
Fe0 O21 2.031140 1_555
Fe0 O19 2.090549 1_545
Fe0 O15 2.100486 1_655
Fe0 O2 2.136722 1_645
Fe1 O5 1.972373 1_655
Fe1 O9 1.975277 1_545
Fe1 O20 2.031720 1_554
Fe1 O18 2.089389 1_544
Fe1 O14 2.099942 1_654
Fe1 O3 2.136035 1_644
O0 W1 2.078061 1_455
O1 W0 2.078412 1_456
O2 W1 1.883975 1_455
O3 W0 1.884160 1_456
O4 W3 1.961121 1_555
O5 W2 1.961257 1_555
O6 W1 1.877425 1_455
O7 W0 1.877446 1_455
O8 W3 1.957696 1_565
O9 W2 1.957526 1_565
O10 W3 2.111870 1_565
O11 W2 2.112132 1_565
O12 W3 1.890845 1_555
O13 W2 1.890829 1_555
O14 W3 1.906327 1_555
O15 W2 1.906324 1_555
O16 W0 2.090636 1_556
O17 W1 2.090472 1_555
O18 W3 1.912940 1_565
O19 W2 1.912896 1_565
O20 W0 1.948876 1_556
O21 W1 1.949267 1_555
O22 W0 1.892137 1_555
O23 W1 1.892329 1_555
