# generated using pymatgen
data_NaV6O15
_symmetry_space_group_name_H-M   'P 1'
_cell_length_a   7.30390900
_cell_length_b   8.03549031
_cell_length_c   10.27724234
_cell_angle_alpha   109.21909381
_cell_angle_beta   89.99931427
_cell_angle_gamma   103.14066060
_symmetry_Int_Tables_number   1
_chemical_formula_structural   NaV6O15
_chemical_formula_sum   'Na2 V12 O30'
_cell_volume   552.80609230
_cell_formula_units_Z   2
loop_
 _symmetry_equiv_pos_site_id
 _symmetry_equiv_pos_as_xyz
  1  'x, y, z'
loop_
 _atom_site_type_symbol
 _atom_site_label
 _atom_site_symmetry_multiplicity
 _atom_site_fract_x
 _atom_site_fract_y
 _atom_site_fract_z
 _atom_site_occupancy
  Na  Na0  1  0.75221500  0.00925300  0.39536700  1
  Na  Na1  1  0.24778500  0.99074700  0.60463300  1
  V  V0  1  0.58121600  0.32620200  0.89816200  1
  V  V1  1  0.08186600  0.32595200  0.89792700  1
  V  V2  1  0.69157900  0.76618100  0.88191600  1
  V  V3  1  0.19211600  0.76832700  0.88453000  1
  V  V4  1  0.10688700  0.42707300  0.59165300  1
  V  V5  1  0.60661400  0.42727900  0.59129600  1
  V  V6  1  0.89311300  0.57292700  0.40834700  1
  V  V7  1  0.39338600  0.57272100  0.40870400  1
  V  V8  1  0.80788400  0.23167300  0.11547000  1
  V  V9  1  0.30842100  0.23381900  0.11808400  1
  V  V10  1  0.91813400  0.67404800  0.10207300  1
  V  V11  1  0.41878400  0.67379800  0.10183800  1
  O  O0  1  0.34279800  0.37278500  0.94531800  1
  O  O1  1  0.84277600  0.36960400  0.94550200  1
  O  O2  1  0.03845500  0.12695600  0.77882300  1
  O  O3  1  0.52494400  0.12729700  0.77881500  1
  O  O4  1  0.93313800  0.73305100  0.92541900  1
  O  O5  1  0.43346900  0.73320800  0.92545300  1
  O  O6  1  0.61892800  0.47543100  0.77873000  1
  O  O7  1  0.11860700  0.47435400  0.77859600  1
  O  O8  1  0.69606100  0.78399900  0.72871500  1
  O  O9  1  0.19564900  0.78309900  0.72850300  1
  O  O10  1  0.55126500  0.20616000  0.53077300  1
  O  O11  1  0.05151200  0.20591500  0.53061100  1
  O  O12  1  0.87226800  0.48884000  0.57463800  1
  O  O13  1  0.37238500  0.48992300  0.57546500  1
  O  O14  1  0.12773200  0.51116000  0.42536200  1
  O  O15  1  0.62761500  0.51007700  0.42453500  1
  O  O16  1  0.94848800  0.79408500  0.46938900  1
  O  O17  1  0.44873500  0.79384000  0.46922700  1
  O  O18  1  0.30393900  0.21600100  0.27128500  1
  O  O19  1  0.80435100  0.21690100  0.27149700  1
  O  O20  1  0.88139300  0.52564600  0.22140400  1
  O  O21  1  0.38107200  0.52456900  0.22127000  1
  O  O22  1  0.06686200  0.26694900  0.07458100  1
  O  O23  1  0.56653100  0.26679200  0.07454700  1
  O  O24  1  0.75017500  0.00056300  0.00067400  1
  O  O25  1  0.24982500  0.99943700  0.99932600  1
  O  O26  1  0.96154500  0.87304400  0.22117700  1
  O  O27  1  0.47505600  0.87270300  0.22118500  1
  O  O28  1  0.65720200  0.62721500  0.05468200  1
  O  O29  1  0.15722400  0.63039600  0.05449800  1
loop_
_geom_bond_atom_site_label_1
_geom_bond_atom_site_label_2
_geom_bond_distance
_geom_bond_site_symmetry_2
Na0 O19 2.378919 1_555
Na0 O11 2.488216 1_655
Na0 O10 2.490080 1_555
Na0 O27 2.490663 1_545
Na0 O26 2.492225 1_545
Na0 O17 2.757919 1_545
Na0 O16 2.759738 1_545
Na1 O9 2.378919 1_555
Na1 O16 2.488216 1_455
Na1 O17 2.490080 1_555
Na1 O3 2.490663 1_565
Na1 O2 2.492225 1_565
Na1 O10 2.757919 1_565
Na1 O11 2.759738 1_565
O0 V1 1.887922 1_555
O0 V0 1.893231 1_555
O0 V11 2.360971 1_556
O0 V9 2.374956 1_556
O1 V1 1.891352 1_655
O1 V0 1.895620 1_555
O1 V8 2.343262 1_556
O1 V10 2.381813 1_556
O2 V1 1.623767 1_555
O3 V0 1.624376 1_555
O4 V3 1.915599 1_655
O4 V2 1.917171 1_555
O4 V10 2.018902 1_556
O5 V3 1.915307 1_555
O5 V2 1.917119 1_555
O5 V11 2.017901 1_556
O6 V5 1.833557 1_555
O6 V0 1.959385 1_555
O6 V2 2.160954 1_555
O7 V4 1.829634 1_555
O7 V1 1.953301 1_555
O7 V3 2.187193 1_555
O8 V2 1.626915 1_555
O9 V3 1.646200 1_555
O10 V5 1.628845 1_555
O11 V4 1.629260 1_555
O12 V4 1.912416 1_655
O12 V5 1.912630 1_555
O12 V6 2.028278 1_555
O13 V5 1.911056 1_555
O13 V4 1.911320 1_555
O13 V7 2.026755 1_555
O14 V6 1.912416 1_455
O14 V7 1.912630 1_555
O14 V4 2.028278 1_555
O15 V7 1.911056 1_555
O15 V6 1.911320 1_555
O15 V5 2.026755 1_555
O16 V6 1.629260 1_555
O17 V7 1.628845 1_555
O18 V9 1.626915 1_555
O19 V8 1.646200 1_555
O20 V6 1.829634 1_555
O20 V10 1.953301 1_555
O20 V8 2.187193 1_555
O21 V7 1.833557 1_555
O21 V11 1.959385 1_555
O21 V9 2.160954 1_555
O22 V8 1.915599 1_455
O22 V9 1.917171 1_555
O22 V1 2.018902 1_554
O23 V8 1.915307 1_555
O23 V9 1.917119 1_555
O23 V0 2.017901 1_554
O24 V8 1.794427 1_555
O24 V2 1.827582 1_544
O25 V3 1.794427 1_555
O25 V9 1.827582 1_566
O26 V10 1.623767 1_555
O27 V11 1.624376 1_555
O28 V10 1.887922 1_555
O28 V11 1.893231 1_555
O28 V0 2.360971 1_554
O28 V2 2.374956 1_554
O29 V10 1.891352 1_455
O29 V11 1.895620 1_555
O29 V3 2.343262 1_554
O29 V1 2.381813 1_554
