# generated using pymatgen
data_Li2VO2F
_symmetry_space_group_name_H-M   'P 1'
_cell_length_a   2.94359573
_cell_length_b   5.93166688
_cell_length_c   6.70037085
_cell_angle_alpha   77.16960915
_cell_angle_beta   77.31128874
_cell_angle_gamma   90.00013055
_symmetry_Int_Tables_number   1
_chemical_formula_structural   Li2VO2F
_chemical_formula_sum   'Li4 V2 O4 F2'
_cell_volume   111.13801053
_cell_formula_units_Z   2
loop_
 _symmetry_equiv_pos_site_id
 _symmetry_equiv_pos_as_xyz
  1  'x, y, z'
loop_
 _atom_site_type_symbol
 _atom_site_label
 _atom_site_symmetry_multiplicity
 _atom_site_fract_x
 _atom_site_fract_y
 _atom_site_fract_z
 _atom_site_occupancy
  Li  Li0  1  0.66667100  0.33330800  0.66663200  1
  Li  Li1  1  0.66670800  0.83337500  0.66657300  1
  Li  Li2  1  0.99912800  0.48896200  0.00154200  1
  Li  Li3  1  0.33414700  0.17771100  0.33175900  1
  V  V0  1  0.33704000  0.66190100  0.32589100  1
  V  V1  1  0.99623500  0.00475700  0.00749800  1
  O  O0  1  0.50431000  0.23528300  0.99133000  1
  O  O1  1  0.82895300  0.43138800  0.34210600  1
  O  O2  1  0.49956700  0.76438000  0.00084600  1
  O  O3  1  0.83370400  0.90230200  0.33254100  1
  F  F0  1  0.16471000  0.07872500  0.67090200  1
  F  F1  1  0.16882400  0.58791000  0.66238000  1
loop_
_geom_bond_atom_site_label_1
_geom_bond_atom_site_label_2
_geom_bond_distance
_geom_bond_site_symmetry_2
Li0 O1 2.068019 1_555
Li0 O0 2.069085 1_555
Li1 O3 2.127986 1_555
Li1 O2 2.129517 1_556
Li2 O0 2.116588 1_554
Li2 O0 2.116904 1_654
Li2 O1 2.174024 1_555
Li2 O2 2.197950 1_555
Li2 O2 2.198304 1_655
Li3 O1 2.116864 1_555
Li3 O1 2.116953 1_455
Li3 O0 2.173153 1_554
Li3 O3 2.197893 1_545
Li3 O3 2.198093 1_445
O0 V1 1.995313 1_456
O0 V1 1.995356 1_556
O1 V0 1.995205 1_655
O1 V0 1.995297 1_555
O2 V1 2.056514 1_565
O2 V1 2.056545 1_465
O2 V0 2.072682 1_555
O3 V0 2.056601 1_555
O3 V0 2.056652 1_655
O3 V1 2.072661 1_565
F0 Li1 2.074200 1_545
F0 Li1 2.074890 1_445
F0 Li0 2.103965 1_555
F0 Li0 2.104686 1_455
F0 V1 2.143379 1_456
F0 Li3 2.160269 1_555
F1 Li1 2.074828 1_555
F1 Li1 2.074915 1_455
F1 Li0 2.104370 1_555
F1 Li0 2.104477 1_455
F1 V0 2.142689 1_555
F1 Li2 2.160380 1_456
