# generated using pymatgen
data_HoSO
_symmetry_space_group_name_H-M   'P 1'
_cell_length_a   6.77508817
_cell_length_b   6.77508817
_cell_length_c   5.61679974
_cell_angle_alpha   90.00000000
_cell_angle_beta   90.00000000
_cell_angle_gamma   130.94105006
_symmetry_Int_Tables_number   1
_chemical_formula_structural   HoSO
_chemical_formula_sum   'Ho4 S4 O4'
_cell_volume   194.75415349
_cell_formula_units_Z   4
loop_
 _symmetry_equiv_pos_site_id
 _symmetry_equiv_pos_as_xyz
  1  'x, y, z'
loop_
 _atom_site_type_symbol
 _atom_site_label
 _atom_site_symmetry_multiplicity
 _atom_site_fract_x
 _atom_site_fract_y
 _atom_site_fract_z
 _atom_site_occupancy
  Ho  Ho0  1  0.33540291  0.66459709  0.00000000  1
  Ho  Ho1  1  0.16459709  0.83540291  0.50000000  1
  Ho  Ho2  1  0.83540291  0.16459709  0.50000000  1
  Ho  Ho3  1  0.66459709  0.33540291  0.00000000  1
  S  S0  1  0.86947204  0.86947204  0.86891163  1
  S  S1  1  0.36947204  0.36947204  0.63108837  1
  S  S2  1  0.13052796  0.13052796  0.13108837  1
  S  S3  1  0.63052796  0.63052796  0.36891163  1
  O  O0  1  0.49265125  0.99265125  0.75000000  1
  O  O1  1  0.00734875  0.50734875  0.25000000  1
  O  O2  1  0.50734875  0.00734875  0.25000000  1
  O  O3  1  0.99265125  0.49265125  0.75000000  1
loop_
_geom_bond_atom_site_label_1
_geom_bond_atom_site_label_2
_geom_bond_distance
_geom_bond_site_symmetry_2
Ho0 O0 2.223388 1_554
Ho0 O1 2.223388 1_555
Ho0 O2 2.275086 1_565
Ho0 O3 2.275086 1_454
Ho0 S1 2.991612 1_554
Ho0 S3 2.991612 1_555
Ho0 S2 2.996518 1_555
Ho0 S0 2.996518 1_554
Ho1 O0 2.223388 1_555
Ho1 O1 2.223388 1_555
Ho1 O3 2.275086 1_455
Ho1 O2 2.275086 1_565
Ho1 S2 2.991612 1_565
Ho1 S0 2.991612 1_455
Ho1 S3 2.996518 1_455
Ho1 S1 2.996518 1_565
Ho2 O3 2.223388 1_555
Ho2 O2 2.223388 1_555
Ho2 O0 2.275086 1_545
Ho2 O1 2.275086 1_655
Ho2 S0 2.991612 1_545
Ho2 S2 2.991612 1_655
Ho2 S1 2.996518 1_655
Ho2 S3 2.996518 1_545
Ho3 O3 2.223388 1_554
Ho3 O2 2.223388 1_555
Ho3 O0 2.275086 1_544
Ho3 O1 2.275086 1_655
Ho3 S3 2.991612 1_555
Ho3 S1 2.991612 1_554
Ho3 S0 2.996518 1_554
Ho3 S2 2.996518 1_555
S0 S2 2.079721 1_666
S1 S3 2.079721 1_555
