# generated using pymatgen
data_Li4Ti3V2(Fe2O9)2
_symmetry_space_group_name_H-M   'P 1'
_cell_length_a   2.95529800
_cell_length_b   9.17778000
_cell_length_c   25.50941800
_cell_angle_alpha   90.00000000
_cell_angle_beta   90.00000000
_cell_angle_gamma   90.00000000
_symmetry_Int_Tables_number   1
_chemical_formula_structural   Li4Ti3V2(Fe2O9)2
_chemical_formula_sum   'Li8 Ti6 V4 Fe8 O36'
_cell_volume   691.89385452
_cell_formula_units_Z   2
loop_
 _symmetry_equiv_pos_site_id
 _symmetry_equiv_pos_as_xyz
  1  'x, y, z'
loop_
 _atom_site_type_symbol
 _atom_site_label
 _atom_site_symmetry_multiplicity
 _atom_site_fract_x
 _atom_site_fract_y
 _atom_site_fract_z
 _atom_site_occupancy
  Li  Li0  1  0.50000000  0.94980500  0.98937400  1
  Li  Li1  1  0.50000000  0.94803500  0.18309800  1
  Li  Li2  1  0.50000000  0.05196500  0.68309800  1
  Li  Li3  1  0.50000000  0.05019500  0.48937400  1
  Li  Li4  1  0.50000000  0.44449400  0.50935100  1
  Li  Li5  1  0.50000000  0.43823200  0.31129800  1
  Li  Li6  1  0.50000000  0.56176800  0.81129800  1
  Li  Li7  1  0.50000000  0.55550600  0.00935100  1
  Ti  Ti0  1  0.50000000  0.75063600  0.09915600  1
  Ti  Ti1  1  0.50000000  0.24936400  0.59915600  1
  Ti  Ti2  1  0.50000000  0.24421000  0.40032200  1
  Ti  Ti3  1  0.00000000  0.40357700  0.69031500  1
  Ti  Ti4  1  0.00000000  0.59642300  0.19031500  1
  Ti  Ti5  1  0.50000000  0.75579000  0.90032200  1
  V  V0  1  0.50000000  0.74801900  0.49992200  1
  V  V1  1  0.00000000  0.90442700  0.80935600  1
  V  V2  1  0.00000000  0.09557300  0.30935600  1
  V  V3  1  0.50000000  0.25198100  0.99992200  1
  Fe  Fe0  1  0.50000000  0.75339200  0.30599000  1
  Fe  Fe1  1  0.00000000  0.89644600  0.58724800  1
  Fe  Fe2  1  0.00000000  0.10355400  0.08724800  1
  Fe  Fe3  1  0.50000000  0.24660800  0.80599000  1
  Fe  Fe4  1  0.50000000  0.25369000  0.19624700  1
  Fe  Fe5  1  0.00000000  0.40339900  0.91308700  1
  Fe  Fe6  1  0.00000000  0.59660100  0.41308700  1
  Fe  Fe7  1  0.50000000  0.74631000  0.69624700  1
  O  O0  1  0.50000000  0.74277700  0.42572100  1
  O  O1  1  0.50000000  0.75279600  0.57453200  1
  O  O2  1  0.00000000  0.81223600  0.94357500  1
  O  O3  1  0.00000000  0.79566400  0.15525100  1
  O  O4  1  0.00000000  0.87348900  0.66607600  1
  O  O5  1  0.50000000  0.84549400  0.76329100  1
  O  O6  1  0.00000000  0.89677500  0.50393600  1
  O  O7  1  0.00000000  0.89685800  0.29129700  1
  O  O8  1  0.50000000  0.93767000  0.85931100  1
  O  O9  1  0.50000000  0.95267100  0.08398500  1
  O  O10  1  0.50000000  0.04732900  0.58398500  1
  O  O11  1  0.50000000  0.06233000  0.35931100  1
  O  O12  1  0.00000000  0.10314200  0.79129700  1
  O  O13  1  0.00000000  0.10322500  0.00393600  1
  O  O14  1  0.50000000  0.15450600  0.26329100  1
  O  O15  1  0.00000000  0.12651100  0.16607600  1
  O  O16  1  0.00000000  0.20433600  0.65525100  1
  O  O17  1  0.00000000  0.18776400  0.44357500  1
  O  O18  1  0.50000000  0.24720400  0.07453200  1
  O  O19  1  0.50000000  0.25722300  0.92572100  1
  O  O20  1  0.00000000  0.30852500  0.55629600  1
  O  O21  1  0.00000000  0.29136100  0.34310700  1
  O  O22  1  0.00000000  0.37284300  0.83454300  1
  O  O23  1  0.50000000  0.34485800  0.73827100  1
  O  O24  1  0.00000000  0.40081400  0.99618600  1
  O  O25  1  0.00000000  0.39446300  0.21154400  1
  O  O26  1  0.50000000  0.43567800  0.64178900  1
  O  O27  1  0.50000000  0.44815800  0.41591000  1
  O  O28  1  0.50000000  0.55184200  0.91591000  1
  O  O29  1  0.50000000  0.56432200  0.14178900  1
  O  O30  1  0.00000000  0.60553700  0.71154400  1
  O  O31  1  0.00000000  0.59918600  0.49618600  1
  O  O32  1  0.50000000  0.65514200  0.23827100  1
  O  O33  1  0.00000000  0.62715700  0.33454300  1
  O  O34  1  0.00000000  0.70863900  0.84310700  1
  O  O35  1  0.00000000  0.69147500  0.05629600  1
loop_
_geom_bond_atom_site_label_1
_geom_bond_atom_site_label_2
_geom_bond_distance
_geom_bond_site_symmetry_2
Li0 O13 2.074621 1_666
Li0 O13 2.074621 1_566
Li0 O2 2.267706 1_655
Li0 O2 2.267706 1_555
Li0 O9 2.413615 1_556
Li1 O3 2.154915 1_555
Li1 O3 2.154915 1_655
Li1 O15 2.248351 1_665
Li1 O15 2.248351 1_565
Li1 O9 2.528673 1_555
Li2 O16 2.154915 1_655
Li2 O16 2.154915 1_555
Li2 O4 2.248351 1_545
Li2 O4 2.248351 1_645
Li2 O10 2.528673 1_555
Li3 O6 2.074621 1_545
Li3 O6 2.074621 1_645
Li3 O17 2.267706 1_555
Li3 O17 2.267706 1_655
Li3 O10 2.413615 1_555
Li4 O31 2.076502 1_655
Li4 O31 2.076502 1_555
Li4 O20 2.274816 1_555
Li4 O20 2.274816 1_655
Li4 O27 2.383863 1_555
Li5 O21 2.158433 1_555
Li5 O21 2.158433 1_655
Li5 O33 2.354041 1_555
Li5 O33 2.354041 1_655
Li6 O34 2.158433 1_555
Li6 O34 2.158433 1_655
Li6 O22 2.354041 1_555
Li6 O22 2.354041 1_655
Li7 O24 2.076502 1_554
Li7 O24 2.076502 1_654
Li7 O35 2.274816 1_655
Li7 O35 2.274816 1_555
Li7 O28 2.383863 1_554
Fe0 O32 1.948654 1_555
Fe0 O33 2.014007 1_555
Fe0 O33 2.014007 1_655
Fe0 O7 2.014355 1_655
Fe0 O7 2.014355 1_555
Fe1 O1 2.006692 1_455
Fe1 O1 2.006692 1_555
Fe1 O4 2.021864 1_555
Fe1 O10 2.026812 1_465
Fe1 O10 2.026812 1_565
Fe1 O6 2.125243 1_555
Fe2 O18 2.006692 1_555
Fe2 O18 2.006692 1_455
Fe2 O15 2.021864 1_555
Fe2 O9 2.026812 1_545
Fe2 O9 2.026812 1_445
Fe2 O13 2.125243 1_555
Fe3 O23 1.948654 1_555
Fe3 O22 2.014007 1_655
Fe3 O22 2.014007 1_555
Fe3 O12 2.014355 1_555
Fe3 O12 2.014355 1_655
Fe4 O14 1.937419 1_555
Fe4 O25 2.001234 1_555
Fe4 O25 2.001234 1_655
Fe4 O15 2.034258 1_555
Fe4 O15 2.034258 1_655
Fe5 O28 2.011145 1_455
Fe5 O28 2.011145 1_555
Fe5 O19 2.021665 1_555
Fe5 O19 2.021665 1_455
Fe5 O22 2.023142 1_555
Fe5 O24 2.119940 1_555
Fe6 O27 2.011145 1_455
Fe6 O27 2.011145 1_555
Fe6 O0 2.021665 1_455
Fe6 O0 2.021665 1_555
Fe6 O33 2.023142 1_555
Fe6 O31 2.119940 1_555
Fe7 O5 1.937419 1_555
Fe7 O30 2.001234 1_555
Fe7 O30 2.001234 1_655
Fe7 O4 2.034258 1_655
Fe7 O4 2.034258 1_555
O0 V0 1.893436 1_555
O1 V0 1.903763 1_555
O2 Ti5 1.915521 1_555
O2 Ti5 1.915521 1_455
O3 Ti4 2.035634 1_555
O3 Ti0 2.098058 1_555
O3 Ti0 2.098058 1_455
O5 V1 1.963882 1_555
O5 V1 1.963882 1_655
O6 V0 2.014408 1_555
O6 V0 2.014408 1_455
O7 V2 1.881045 1_565
O8 Ti5 1.969994 1_555
O8 V1 1.974951 1_555
O8 V1 1.974951 1_655
O9 Ti0 1.894189 1_555
O10 Ti1 1.894189 1_555
O11 Ti2 1.969994 1_555
O11 V2 1.974951 1_655
O11 V2 1.974951 1_555
O12 V1 1.881045 1_545
O13 V3 2.014408 1_454
O13 V3 2.014408 1_554
O14 V2 1.963882 1_655
O14 V2 1.963882 1_555
O16 Ti3 2.035634 1_555
O16 Ti1 2.098058 1_455
O16 Ti1 2.098058 1_555
O17 Ti2 1.915521 1_455
O17 Ti2 1.915521 1_555
O18 V3 1.903763 1_554
O19 V3 1.893436 1_555
O20 Ti1 1.916674 1_555
O20 Ti1 1.916674 1_455
O21 V2 1.992514 1_555
O21 Ti2 2.121536 1_455
O21 Ti2 2.121536 1_555
O23 Ti3 1.992588 1_655
O23 Ti3 1.992588 1_555
O24 V3 2.014539 1_455
O24 V3 2.014539 1_555
O25 Ti4 1.931034 1_555
O26 Ti3 1.950017 1_655
O26 Ti3 1.950017 1_555
O26 Ti1 2.026493 1_555
O27 Ti2 1.913561 1_555
O28 Ti5 1.913561 1_555
O29 Ti4 1.950017 1_555
O29 Ti4 1.950017 1_655
O29 Ti0 2.026493 1_555
O30 Ti3 1.931034 1_555
O31 V0 2.014539 1_555
O31 V0 2.014539 1_455
O32 Ti4 1.992588 1_655
O32 Ti4 1.992588 1_555
O34 V1 1.992514 1_555
O34 Ti5 2.121536 1_455
O34 Ti5 2.121536 1_555
O35 Ti0 1.916674 1_455
O35 Ti0 1.916674 1_555
