# generated using pymatgen
data_CaMg2H24(ClO2)6
_symmetry_space_group_name_H-M   'P 1'
_cell_length_a   8.27782400
_cell_length_b   8.95491690
_cell_length_c   13.06118851
_cell_angle_alpha   106.75466694
_cell_angle_beta   90.48826980
_cell_angle_gamma   107.10080547
_symmetry_Int_Tables_number   1
_chemical_formula_structural   CaMg2H24(ClO2)6
_chemical_formula_sum   'Ca1 Mg2 H24 Cl6 O12'
_cell_volume   881.48496569
_cell_formula_units_Z   1
loop_
 _symmetry_equiv_pos_site_id
 _symmetry_equiv_pos_as_xyz
  1  'x, y, z'
loop_
 _atom_site_type_symbol
 _atom_site_label
 _atom_site_symmetry_multiplicity
 _atom_site_fract_x
 _atom_site_fract_y
 _atom_site_fract_z
 _atom_site_occupancy
  Ca  Ca0  1  0.00000000  0.00000000  0.00000000  1
  Mg  Mg0  1  0.81099700  0.37431600  0.48778600  1
  Mg  Mg1  1  0.18900300  0.62568400  0.51221400  1
  H  H0  1  0.90026400  0.69053500  0.97508800  1
  H  H1  1  0.43281300  0.62851000  0.02516000  1
  H  H2  1  0.64200300  0.37769200  0.59761200  1
  H  H3  1  0.09973600  0.30946500  0.02491200  1
  H  H4  1  0.56718700  0.37149000  0.97484000  1
  H  H5  1  0.35799700  0.62230800  0.40238800  1
  H  H6  1  0.18975500  0.89281100  0.43400300  1
  H  H7  1  0.80270000  0.50008200  0.09712300  1
  H  H8  1  0.02942400  0.29298400  0.98161700  1
  H  H9  1  0.81024500  0.10718900  0.56599700  1
  H  H10  1  0.19730000  0.49991800  0.90287700  1
  H  H11  1  0.97057600  0.70701600  0.01838300  1
  H  H12  1  0.41409700  0.63628300  0.79227500  1
  H  H13  1  0.83586600  0.87908900  0.42157100  1
  H  H14  1  0.23528400  0.50294500  0.63494800  1
  H  H15  1  0.58590300  0.36371700  0.20772500  1
  H  H16  1  0.16413400  0.12091100  0.57842900  1
  H  H17  1  0.76471600  0.49705500  0.36505200  1
  H  H18  1  0.53204100  0.37176700  0.92188000  1
  H  H19  1  0.27131900  0.87799800  0.41564200  1
  H  H20  1  0.84772700  0.91862400  0.37759500  1
  H  H21  1  0.46795900  0.62823300  0.07812000  1
  H  H22  1  0.72868100  0.12200200  0.58435800  1
  H  H23  1  0.15227300  0.08137600  0.62240500  1
  Cl  Cl0  1  0.65578500  0.94208400  0.98808000  1
  Cl  Cl1  1  0.46833400  0.76170700  0.56650600  1
  Cl  Cl2  1  0.93122300  0.66786000  0.56416000  1
  Cl  Cl3  1  0.34421500  0.05791600  0.01192000  1
  Cl  Cl4  1  0.53166600  0.23829300  0.43349400  1
  Cl  Cl5  1  0.06877700  0.33214000  0.43584000  1
  O  O0  1  0.69959300  0.37076200  0.18545900  1
  O  O1  1  0.74163900  0.52745000  0.16043000  1
  O  O2  1  0.76048900  0.84249300  0.89694500  1
  O  O3  1  0.30040700  0.62923800  0.81454100  1
  O  O4  1  0.25836100  0.47255000  0.83957000  1
  O  O5  1  0.23951100  0.15750700  0.10305500  1
  O  O6  1  0.84121100  0.99279000  0.75801000  1
  O  O7  1  0.78974200  0.23393100  0.80252800  1
  O  O8  1  0.89923000  0.15235900  0.79409800  1
  O  O9  1  0.15878900  0.00721000  0.24199000  1
  O  O10  1  0.21025800  0.76606900  0.19747200  1
  O  O11  1  0.10077000  0.84764100  0.20590200  1
loop_
_geom_bond_atom_site_label_1
_geom_bond_atom_site_label_2
_geom_bond_distance
_geom_bond_site_symmetry_2
Ca0 O5 2.224260 1_555
Ca0 O2 2.224260 1_444
H0 H11 0.758992 1_556
H1 H21 0.749072 1_555
H2 Mg0 2.012357 1_555
H3 H8 0.758992 1_554
H5 Mg1 2.012357 1_555
H7 O1 0.981015 1_555
H10 O4 0.981015 1_555
H12 O3 0.977017 1_555
H13 H20 0.750099 1_555
H14 Mg1 2.275439 1_555
H15 O0 0.977017 1_555
H16 H23 0.750099 1_555
H17 Mg0 2.275439 1_555
H18 H4 0.749072 1_555
H19 H6 0.753695 1_555
H22 H9 0.753695 1_555
Cl0 O2 1.680350 1_555
Cl1 Mg1 2.269520 1_555
Cl2 Mg1 2.346748 1_655
Cl2 Mg0 2.414149 1_555
Cl3 O5 1.680350 1_555
Cl4 Mg0 2.269520 1_555
Cl5 Mg0 2.346748 1_455
Cl5 Mg1 2.414149 1_555
O6 O8 1.303413 1_565
O7 O8 1.308362 1_555
O10 O11 1.308362 1_555
O11 O9 1.303413 1_565
