# generated using pymatgen
data_LiCo2C2O7
_symmetry_space_group_name_H-M   'P 1'
_cell_length_a   6.31060400
_cell_length_b   9.68430600
_cell_length_c   9.95513738
_cell_angle_alpha   73.21754968
_cell_angle_beta   90.00000000
_cell_angle_gamma   90.00000000
_symmetry_Int_Tables_number   1
_chemical_formula_structural   LiCo2C2O7
_chemical_formula_sum   'Li4 Co8 C8 O28'
_cell_volume   582.48364271
_cell_formula_units_Z   4
loop_
 _symmetry_equiv_pos_site_id
 _symmetry_equiv_pos_as_xyz
  1  'x, y, z'
loop_
 _atom_site_type_symbol
 _atom_site_label
 _atom_site_symmetry_multiplicity
 _atom_site_fract_x
 _atom_site_fract_y
 _atom_site_fract_z
 _atom_site_occupancy
  Li  Li0  1  0.40093200  0.49288700  0.77250300  1
  Li  Li1  1  0.90093200  0.50711300  0.72749700  1
  Li  Li2  1  0.09906800  0.49288700  0.27250300  1
  Li  Li3  1  0.59906800  0.50711300  0.22749700  1
  Co  Co0  1  0.40065900  0.01967200  0.72841000  1
  Co  Co1  1  0.09934100  0.01967200  0.22841000  1
  Co  Co2  1  0.65935000  0.79758700  0.63862700  1
  Co  Co3  1  0.84065000  0.79758700  0.13862700  1
  Co  Co4  1  0.15935000  0.20241300  0.86137300  1
  Co  Co5  1  0.34065000  0.20241300  0.36137300  1
  Co  Co6  1  0.90065900  0.98032800  0.77159000  1
  Co  Co7  1  0.59934100  0.98032800  0.27159000  1
  C  C0  1  0.16530700  0.77588600  0.67311200  1
  C  C1  1  0.75453100  0.67601300  0.93740100  1
  C  C2  1  0.33469300  0.77588600  0.17311200  1
  C  C3  1  0.74546900  0.67601300  0.43740100  1
  C  C4  1  0.25453100  0.32398700  0.56259900  1
  C  C5  1  0.66530700  0.22411400  0.82688800  1
  C  C6  1  0.24546900  0.32398700  0.06259900  1
  C  C7  1  0.83469300  0.22411400  0.32688800  1
  O  O0  1  0.16374100  0.00344400  0.83657700  1
  O  O1  1  0.78978700  0.81337600  0.93254100  1
  O  O2  1  0.33625900  0.00344400  0.33657700  1
  O  O3  1  0.98824100  0.84792900  0.66547300  1
  O  O4  1  0.34500700  0.84679900  0.67143500  1
  O  O5  1  0.69718800  0.64437700  0.82559200  1
  O  O6  1  0.71021300  0.81337600  0.43254100  1
  O  O7  1  0.16940500  0.64524700  0.67757600  1
  O  O8  1  0.51175900  0.84792900  0.16547300  1
  O  O9  1  0.15499300  0.84679900  0.17143500  1
  O  O10  1  0.22198000  0.41558500  0.94288700  1
  O  O11  1  0.72198000  0.58441500  0.55711300  1
  O  O12  1  0.80281200  0.64437700  0.32559200  1
  O  O13  1  0.33059500  0.64524700  0.17757600  1
  O  O14  1  0.66940500  0.35475300  0.82242400  1
  O  O15  1  0.19718800  0.35562300  0.67440800  1
  O  O16  1  0.27802000  0.41558500  0.44288700  1
  O  O17  1  0.77802000  0.58441500  0.05711300  1
  O  O18  1  0.84500700  0.15320100  0.82856500  1
  O  O19  1  0.48824100  0.15207100  0.83452700  1
  O  O20  1  0.83059500  0.35475300  0.32242400  1
  O  O21  1  0.28978700  0.18662400  0.56745900  1
  O  O22  1  0.30281200  0.35562300  0.17440800  1
  O  O23  1  0.65499300  0.15320100  0.32856500  1
  O  O24  1  0.01175900  0.15207100  0.33452700  1
  O  O25  1  0.66374100  0.99655600  0.66342300  1
  O  O26  1  0.21021300  0.18662400  0.06745900  1
  O  O27  1  0.83625900  0.99655600  0.16342300  1
loop_
_geom_bond_atom_site_label_1
_geom_bond_atom_site_label_2
_geom_bond_distance
_geom_bond_site_symmetry_2
Li0 O10 1.994877 1_555
Li0 O7 2.097540 1_555
Li0 O14 2.126734 1_555
Li0 O15 2.263514 1_555
Li0 O5 2.524801 1_555
Li1 O11 1.994877 1_555
Li1 O14 2.097540 1_555
Li1 O7 2.126734 1_655
Li1 O5 2.263514 1_555
Li1 O15 2.524801 1_655
Li2 O16 1.994877 1_555
Li2 O13 2.097540 1_555
Li2 O20 2.126734 1_455
Li2 O22 2.263514 1_555
Li2 O12 2.524801 1_455
Li3 O17 1.994877 1_555
Li3 O20 2.097540 1_555
Li3 O13 2.126734 1_555
Li3 O12 2.263514 1_555
Li3 O22 2.524801 1_555
Co0 O25 1.818952 1_545
Co0 O0 1.822586 1_555
Co0 O4 1.948384 1_545
Co0 O19 1.961554 1_555
Co0 O21 2.043267 1_555
Co1 O27 1.818952 1_445
Co1 O2 1.822586 1_555
Co1 O9 1.948384 1_545
Co1 O24 1.961554 1_555
Co1 O26 2.043267 1_555
Co2 O25 2.012270 1_555
Co2 O5 2.031749 1_555
Co2 O6 2.038227 1_555
Co2 O4 2.087759 1_555
Co2 O3 2.166115 1_555
Co2 O11 2.458449 1_555
Co3 O27 2.012270 1_555
Co3 O12 2.031749 1_555
Co3 O1 2.038227 1_554
Co3 O9 2.087759 1_655
Co3 O8 2.166115 1_555
Co3 O17 2.458449 1_555
Co4 O0 2.012270 1_555
Co4 O15 2.031749 1_555
Co4 O26 2.038227 1_556
Co4 O18 2.087759 1_455
Co4 O19 2.166115 1_555
Co4 O10 2.458449 1_555
Co5 O2 2.012270 1_555
Co5 O22 2.031749 1_555
Co5 O21 2.038227 1_555
Co5 O23 2.087759 1_555
Co5 O24 2.166115 1_555
Co5 O16 2.458449 1_555
Co6 O0 1.818952 1_665
Co6 O25 1.822586 1_555
Co6 O18 1.948384 1_565
Co6 O3 1.961554 1_555
Co6 O1 2.043267 1_555
Co7 O2 1.818952 1_565
Co7 O27 1.822586 1_555
Co7 O23 1.948384 1_565
Co7 O8 1.961554 1_555
Co7 O6 2.043267 1_555
C0 O7 1.253306 1_555
C0 O3 1.307853 1_455
C0 O4 1.323354 1_555
C1 O17 1.272256 1_556
C1 O5 1.288672 1_555
C1 O1 1.335769 1_555
C2 O13 1.253306 1_555
C2 O8 1.307853 1_555
C2 O9 1.323354 1_555
C3 O11 1.272256 1_555
C3 O12 1.288672 1_555
C3 O6 1.335769 1_555
C4 O16 1.272256 1_555
C4 O15 1.288672 1_555
C4 O21 1.335769 1_555
C5 O14 1.253306 1_555
C5 O19 1.307853 1_555
C5 O18 1.323354 1_555
C6 O10 1.272256 1_554
C6 O22 1.288672 1_555
C6 O26 1.335769 1_555
C7 O20 1.253306 1_555
C7 O24 1.307853 1_655
C7 O23 1.323354 1_555
