# generated using pymatgen
data_CoOF
_symmetry_space_group_name_H-M   'P 1'
_cell_length_a   2.90599600
_cell_length_b   4.72720600
_cell_length_c   18.48666645
_cell_angle_alpha   88.40971085
_cell_angle_beta   90.00000000
_cell_angle_gamma   90.00000000
_symmetry_Int_Tables_number   1
_chemical_formula_structural   CoOF
_chemical_formula_sum   'Co8 O8 F8'
_cell_volume   253.85799041
_cell_formula_units_Z   8
loop_
 _symmetry_equiv_pos_site_id
 _symmetry_equiv_pos_as_xyz
  1  'x, y, z'
loop_
 _atom_site_type_symbol
 _atom_site_label
 _atom_site_symmetry_multiplicity
 _atom_site_fract_x
 _atom_site_fract_y
 _atom_site_fract_z
 _atom_site_occupancy
  Co  Co0  1  0.00000000  0.05733900  0.62692600  1
  Co  Co1  1  0.00000000  0.94266100  0.37307400  1
  Co  Co2  1  0.00000000  0.92941100  0.12677300  1
  Co  Co3  1  0.00000000  0.07058900  0.87322700  1
  Co  Co4  1  0.50000000  0.50000000  0.50000000  1
  Co  Co5  1  0.50000000  0.36982200  0.24953100  1
  Co  Co6  1  0.50000000  0.50000000  0.00000000  1
  Co  Co7  1  0.50000000  0.63017800  0.75046900  1
  O  O0  1  0.50000000  0.77019700  0.42169800  1
  O  O1  1  0.50000000  0.89897500  0.67734900  1
  O  O2  1  0.00000000  0.65671500  0.04825300  1
  O  O3  1  0.00000000  0.78991600  0.79634800  1
  O  O4  1  0.00000000  0.21008400  0.20365200  1
  O  O5  1  0.00000000  0.34328500  0.95174700  1
  O  O6  1  0.50000000  0.22980300  0.57830200  1
  O  O7  1  0.50000000  0.10102500  0.32265100  1
  F  F0  1  0.50000000  0.69261100  0.17874900  1
  F  F1  1  0.50000000  0.85028900  0.92352900  1
  F  F2  1  0.00000000  0.71572800  0.54954000  1
  F  F3  1  0.00000000  0.57041800  0.29666500  1
  F  F4  1  0.00000000  0.28427200  0.45046000  1
  F  F5  1  0.00000000  0.42958200  0.70333500  1
  F  F6  1  0.50000000  0.14971100  0.07647100  1
  F  F7  1  0.50000000  0.30738900  0.82125100  1
loop_
_geom_bond_atom_site_label_1
_geom_bond_atom_site_label_2
_geom_bond_distance
_geom_bond_site_symmetry_2
Co0 O1 1.871313 1_445
Co0 O1 1.871313 1_545
Co0 O6 1.882342 1_455
Co0 O6 1.882342 1_555
Co0 F2 2.186930 1_545
Co0 F5 2.286852 1_555
Co1 O7 1.871313 1_565
Co1 O7 1.871313 1_465
Co1 O0 1.882342 1_455
Co1 O0 1.882342 1_555
Co1 F4 2.186930 1_565
Co1 F3 2.286852 1_555
Co2 O2 1.967912 1_555
Co2 O4 1.971034 1_565
Co2 F6 2.001679 1_565
Co2 F6 2.001679 1_465
Co2 F0 2.056167 1_455
Co2 F0 2.056167 1_555
Co3 O5 1.967912 1_555
Co3 O3 1.971034 1_545
Co3 F1 2.001679 1_445
Co3 F1 2.001679 1_545
Co3 F7 2.056167 1_555
Co3 F7 2.056167 1_455
Co4 O0 1.903732 1_555
Co4 O6 1.903732 1_555
Co4 F4 2.010413 1_555
Co4 F4 2.010413 1_655
Co4 F2 2.010413 1_555
Co4 F2 2.010413 1_655
Co5 O7 1.829331 1_555
Co5 O4 1.853728 1_655
Co5 O4 1.853728 1_555
Co5 F3 1.953333 1_555
Co5 F3 1.953333 1_655
Co5 F0 1.982360 1_555
Co6 O5 1.868805 1_654
Co6 O5 1.868805 1_554
Co6 O2 1.868805 1_555
Co6 O2 1.868805 1_655
Co6 F1 2.147223 1_554
Co6 F6 2.147223 1_555
Co7 O1 1.829331 1_555
Co7 O3 1.853728 1_555
Co7 O3 1.853728 1_655
Co7 F5 1.953333 1_555
Co7 F5 1.953333 1_655
Co7 F7 1.982360 1_555
