# generated using pymatgen
data_TiMn(PO4)2
_symmetry_space_group_name_H-M   'P 1'
_cell_length_a   8.68042178
_cell_length_b   8.68042178
_cell_length_c   8.68042139
_cell_angle_alpha   60.12512861
_cell_angle_beta   60.12512861
_cell_angle_gamma   60.12512830
_symmetry_Int_Tables_number   1
_chemical_formula_structural   TiMn(PO4)2
_chemical_formula_sum   'Ti3 Mn3 P6 O24'
_cell_volume   463.80650181
_cell_formula_units_Z   3
loop_
 _symmetry_equiv_pos_site_id
 _symmetry_equiv_pos_as_xyz
  1  'x, y, z'
loop_
 _atom_site_type_symbol
 _atom_site_label
 _atom_site_symmetry_multiplicity
 _atom_site_fract_x
 _atom_site_fract_y
 _atom_site_fract_z
 _atom_site_occupancy
  Ti  Ti0  1  0.64628700  0.64628700  0.64628700  1
  Ti  Ti1  1  0.85539600  0.85539600  0.85539600  1
  Ti  Ti2  1  0.35259800  0.35259800  0.35259800  1
  Mn  Mn0  1  0.00299900  0.00299900  0.00299900  1
  Mn  Mn1  1  0.14578600  0.14578600  0.14578600  1
  Mn  Mn2  1  0.50078200  0.50078200  0.50078200  1
  P  P0  1  0.54764600  0.95219700  0.24807700  1
  P  P1  1  0.24807700  0.54764600  0.95219700  1
  P  P2  1  0.95219700  0.24807700  0.54764600  1
  P  P3  1  0.04395700  0.74500600  0.45938900  1
  P  P4  1  0.74500600  0.45938900  0.04395700  1
  P  P5  1  0.45938900  0.04395700  0.74500600  1
  O  O0  1  0.30563200  0.49871900  0.12145300  1
  O  O1  1  0.12145300  0.30563200  0.49871900  1
  O  O2  1  0.49871900  0.12145300  0.30563200  1
  O  O3  1  0.74279600  0.93899300  0.08679400  1
  O  O4  1  0.39662100  0.97796000  0.19234900  1
  O  O5  1  0.57336200  0.76096500  0.41442000  1
  O  O6  1  0.08679400  0.74279600  0.93899300  1
  O  O7  1  0.41442000  0.57336200  0.76096500  1
  O  O8  1  0.99858200  0.80805700  0.62190100  1
  O  O9  1  0.76096500  0.41442000  0.57336200  1
  O  O10  1  0.05041900  0.90143600  0.26935300  1
  O  O11  1  0.80805700  0.62190100  0.99858200  1
  O  O12  1  0.19234900  0.39662100  0.97796000  1
  O  O13  1  0.93899300  0.08679400  0.74279600  1
  O  O14  1  0.23603400  0.58019600  0.44905200  1
  O  O15  1  0.97796000  0.19234900  0.39662100  1
  O  O16  1  0.58019600  0.44905200  0.23603400  1
  O  O17  1  0.90143600  0.26935300  0.05041900  1
  O  O18  1  0.44905200  0.23603400  0.58019600  1
  O  O19  1  0.62190100  0.99858200  0.80805700  1
  O  O20  1  0.26935300  0.05041900  0.90143600  1
  O  O21  1  0.51652200  0.88625400  0.67199900  1
  O  O22  1  0.88625400  0.67199900  0.51652200  1
  O  O23  1  0.67199900  0.51652200  0.88625400  1
loop_
_geom_bond_atom_site_label_1
_geom_bond_atom_site_label_2
_geom_bond_distance
_geom_bond_site_symmetry_2
Mn0 O10 2.201880 1_545
Mn0 O17 2.201880 1_455
Mn0 O20 2.201880 1_554
Mn0 O13 2.269415 1_454
Mn0 O6 2.269415 1_544
Mn0 O3 2.269415 1_445
Mn1 O15 2.038792 1_455
Mn1 O4 2.038792 1_545
Mn1 O12 2.038792 1_554
Mn1 O20 2.221007 1_554
Mn1 O17 2.221007 1_455
Mn1 O10 2.221008 1_545
Mn2 O16 2.258245 1_555
Mn2 O14 2.258245 1_555
Mn2 O18 2.258245 1_555
Mn2 O7 2.306523 1_555
Mn2 O9 2.306523 1_555
Mn2 O5 2.306523 1_555
O0 P1 1.576961 1_554
O0 Ti2 1.888186 1_555
O1 P2 1.576961 1_455
O1 Ti2 1.888186 1_555
O2 P0 1.576961 1_545
O2 Ti2 1.888186 1_555
O3 P0 1.564147 1_555
O3 Ti1 2.075130 1_554
O4 P0 1.494847 1_555
O5 P0 1.566658 1_555
O5 Ti0 2.021917 1_555
O6 P1 1.564147 1_555
O6 Ti1 2.075130 1_455
O7 P1 1.566658 1_555
O7 Ti0 2.021917 1_555
O8 P3 1.563827 1_655
O8 Ti1 1.906048 1_555
O9 P2 1.566658 1_555
O9 Ti0 2.021917 1_555
O10 P3 1.523275 1_555
O11 P4 1.563827 1_556
O11 Ti1 1.906048 1_555
O12 P1 1.494847 1_555
O13 P2 1.564147 1_555
O13 Ti1 2.075130 1_545
O14 P3 1.561163 1_555
O14 Ti2 2.107238 1_555
O15 P2 1.494847 1_555
O16 P4 1.561163 1_555
O16 Ti2 2.107238 1_555
O17 P4 1.523275 1_555
O18 P5 1.561163 1_555
O18 Ti2 2.107238 1_555
O19 P5 1.563827 1_565
O19 Ti1 1.906048 1_555
O20 P5 1.523275 1_555
O21 P5 1.548014 1_565
O21 Ti0 1.879578 1_555
O22 P3 1.548014 1_655
O22 Ti0 1.879578 1_555
O23 P4 1.548014 1_556
O23 Ti0 1.879578 1_555
