# generated using pymatgen
data_Ti5Fe11O24
_symmetry_space_group_name_H-M   'P 1'
_cell_length_a   5.53915800
_cell_length_b   9.14850058
_cell_length_c   9.16015664
_cell_angle_alpha   68.49942817
_cell_angle_beta   85.28037202
_cell_angle_gamma   85.01354387
_symmetry_Int_Tables_number   1
_chemical_formula_structural   Ti5Fe11O24
_chemical_formula_sum   'Ti5 Fe11 O24'
_cell_volume   429.61793136
_cell_formula_units_Z   1
loop_
 _symmetry_equiv_pos_site_id
 _symmetry_equiv_pos_as_xyz
  1  'x, y, z'
loop_
 _atom_site_type_symbol
 _atom_site_label
 _atom_site_symmetry_multiplicity
 _atom_site_fract_x
 _atom_site_fract_y
 _atom_site_fract_z
 _atom_site_occupancy
  Ti  Ti0  1  0.70894400  0.42633500  0.42413000  1
  Ti  Ti1  1  0.28933700  0.57002200  0.57092200  1
  Ti  Ti2  1  0.20523500  0.92988500  0.42600400  1
  Ti  Ti3  1  0.70520000  0.92990400  0.92688600  1
  Ti  Ti4  1  0.20834500  0.42203000  0.92821300  1
  Fe  Fe0  1  0.28770600  0.07373800  0.06902000  1
  Fe  Fe1  1  0.70912200  0.17819800  0.17830400  1
  Fe  Fe2  1  0.79366800  0.57257900  0.07502400  1
  Fe  Fe3  1  0.21252800  0.67584400  0.17483900  1
  Fe  Fe4  1  0.78928500  0.07273500  0.57559400  1
  Fe  Fe5  1  0.29202300  0.31960500  0.32477400  1
  Fe  Fe6  1  0.78932000  0.82316100  0.31991200  1
  Fe  Fe7  1  0.70969000  0.67923600  0.67661200  1
  Fe  Fe8  1  0.78672500  0.32163300  0.82231900  1
  Fe  Fe9  1  0.19451400  0.17380900  0.67549400  1
  Fe  Fe10  1  0.29308300  0.82401000  0.82476300  1
  O  O0  1  0.85968700  0.37488400  0.03320400  1
  O  O1  1  0.84543600  0.78282600  0.11004900  1
  O  O2  1  0.35954900  0.28411000  0.10653900  1
  O  O3  1  0.97832800  0.47661700  0.28523900  1
  O  O4  1  0.35500200  0.88201600  0.01709800  1
  O  O5  1  0.00420200  0.03167800  0.22517700  1
  O  O6  1  0.50989500  0.52235900  0.22683100  1
  O  O7  1  0.66380200  0.22166300  0.37545800  1
  O  O8  1  0.84306700  0.28074600  0.60941700  1
  O  O9  1  0.47533200  0.98039200  0.28222400  1
  O  O10  1  0.15899000  0.10997100  0.47733600  1
  O  O11  1  0.64697600  0.61132200  0.48384000  1
  O  O12  1  0.85209700  0.87405400  0.53012900  1
  O  O13  1  0.34618400  0.38638900  0.53129700  1
  O  O14  1  0.50783600  0.02366400  0.72626700  1
  O  O15  1  0.16414500  0.71965800  0.38941700  1
  O  O16  1  0.34940300  0.78477600  0.61867000  1
  O  O17  1  0.48425300  0.48004700  0.78057600  1
  O  O18  1  0.99109900  0.96841600  0.78631200  1
  O  O19  1  0.65902500  0.10690600  0.98357100  1
  O  O20  1  0.01028000  0.53558100  0.71551400  1
  O  O21  1  0.64998800  0.72233100  0.87407200  1
  O  O22  1  0.15579000  0.22954100  0.87633000  1
  O  O23  1  0.15491000  0.61732900  0.96262100  1
loop_
_geom_bond_atom_site_label_1
_geom_bond_atom_site_label_2
_geom_bond_distance
_geom_bond_site_symmetry_2
Fe0 O22 1.966739 1_554
Fe0 O4 1.977429 1_545
Fe0 O5 1.998043 1_555
Fe0 O9 2.140263 1_545
Fe0 O19 2.145835 1_554
Fe0 O2 2.149656 1_555
Fe1 O7 1.979160 1_555
Fe1 O5 1.991340 1_655
Fe1 O0 2.006315 1_555
Fe1 O2 2.129978 1_555
Fe1 O19 2.156386 1_554
Fe1 O9 2.190832 1_545
Fe2 O6 1.978149 1_555
Fe2 O0 1.980251 1_555
Fe2 O21 2.025255 1_554
Fe2 O1 2.109070 1_555
Fe2 O3 2.110392 1_555
Fe2 O23 2.173944 1_654
Fe3 O6 2.036773 1_555
Fe3 O4 2.083655 1_555
Fe3 O15 2.137314 1_555
Fe3 O1 2.207172 1_455
Fe3 O3 2.207176 1_455
Fe3 O23 2.249886 1_554
Fe4 O14 1.962220 1_555
Fe4 O7 1.978505 1_555
Fe4 O12 2.004842 1_545
Fe4 O8 2.086152 1_555
Fe4 O18 2.169210 1_545
Fe4 O10 2.170960 1_655
Fe5 O10 2.070191 1_555
Fe5 O3 2.121811 1_455
Fe5 O2 2.138527 1_555
Fe5 O6 2.166356 1_555
Fe5 O7 2.188818 1_555
Fe5 O13 2.239340 1_555
Fe6 O1 2.080872 1_555
Fe6 O9 2.124398 1_555
Fe6 O11 2.137756 1_555
Fe6 O5 2.195470 1_665
Fe6 O12 2.200282 1_555
Fe6 O15 2.246439 1_655
Fe7 O12 1.979003 1_555
Fe7 O21 1.984454 1_555
Fe7 O20 2.000101 1_655
Fe7 O11 2.137173 1_555
Fe7 O16 2.158798 1_555
Fe7 O17 2.171350 1_555
Fe8 O17 2.081044 1_555
Fe8 O8 2.110672 1_555
Fe8 O19 2.117496 1_555
Fe8 O22 2.166858 1_655
Fe8 O0 2.232670 1_556
Fe8 O20 2.267136 1_655
Fe9 O22 2.072208 1_555
Fe9 O14 2.089331 1_555
Fe9 O13 2.109770 1_555
Fe9 O10 2.128480 1_555
Fe9 O8 2.131183 1_455
Fe9 O18 2.147660 1_445
Fe10 O18 2.009755 1_455
Fe10 O23 2.024332 1_555
Fe10 O16 2.042163 1_555
Fe10 O4 2.078379 1_556
Fe10 O21 2.120594 1_555
Fe10 O14 2.135040 1_565
O0 Ti4 2.091858 1_654
O1 Ti3 1.899169 1_554
O2 Ti4 1.868806 1_554
O3 Ti0 1.853301 1_555
O4 Ti3 2.063058 1_554
O5 Ti2 2.095817 1_545
O6 Ti0 2.061409 1_555
O7 Ti0 2.116368 1_555
O8 Ti0 1.893421 1_555
O9 Ti2 1.880503 1_555
O10 Ti2 1.864321 1_545
O11 Ti0 1.956444 1_555
O11 Ti1 2.086299 1_555
O12 Ti2 2.122841 1_655
O13 Ti1 1.841032 1_555
O13 Ti0 2.162159 1_555
O14 Ti3 2.078503 1_545
O15 Ti1 1.864271 1_555
O15 Ti2 2.103376 1_555
O16 Ti2 1.960864 1_555
O16 Ti1 2.220232 1_555
O17 Ti4 1.929008 1_555
O17 Ti1 2.135269 1_555
O18 Ti3 1.928479 1_555
O19 Ti3 1.865383 1_545
O20 Ti1 1.919559 1_555
O20 Ti4 2.179197 1_555
O21 Ti3 2.175418 1_555
O22 Ti4 2.033974 1_555
O23 Ti4 1.919564 1_555
