# generated using pymatgen
data_LiFe2(BO3)2
_symmetry_space_group_name_H-M   'P 1'
_cell_length_a   5.28479600
_cell_length_b   9.07932081
_cell_length_c   11.35869894
_cell_angle_alpha   113.35446625
_cell_angle_beta   102.43510202
_cell_angle_gamma   90.16092631
_symmetry_Int_Tables_number   1
_chemical_formula_structural   LiFe2(BO3)2
_chemical_formula_sum   'Li4 Fe8 B8 O24'
_cell_volume   486.25686709
_cell_formula_units_Z   4
loop_
 _symmetry_equiv_pos_site_id
 _symmetry_equiv_pos_as_xyz
  1  'x, y, z'
loop_
 _atom_site_type_symbol
 _atom_site_label
 _atom_site_symmetry_multiplicity
 _atom_site_fract_x
 _atom_site_fract_y
 _atom_site_fract_z
 _atom_site_occupancy
  Li  Li0  1  0.17113000  0.83818200  0.65874700  1
  Li  Li1  1  0.60867100  0.95096600  0.91512800  1
  Li  Li2  1  0.93451600  0.56917200  0.16654700  1
  Li  Li3  1  0.67142700  0.34360900  0.65799600  1
  Fe  Fe0  1  0.40622000  0.72993600  0.13135000  1
  Fe  Fe1  1  0.09675400  0.76802200  0.88293600  1
  Fe  Fe2  1  0.84091300  0.85869500  0.37673600  1
  Fe  Fe3  1  0.65021500  0.65527600  0.62204700  1
  Fe  Fe4  1  0.34991700  0.35066700  0.36851000  1
  Fe  Fe5  1  0.15524600  0.15546400  0.63274400  1
  Fe  Fe6  1  0.90317000  0.21811700  0.13450100  1
  Fe  Fe7  1  0.60231500  0.28465900  0.88804000  1
  B  B0  1  0.64119000  0.98888100  0.62855800  1
  B  B1  1  0.89011600  0.88872700  0.12318900  1
  B  B2  1  0.15433000  0.48108400  0.62787900  1
  B  B3  1  0.40365400  0.40257800  0.13312400  1
  B  B4  1  0.85043200  0.51819000  0.37619500  1
  B  B5  1  0.59954600  0.61098700  0.87037100  1
  B  B6  1  0.35425100  0.02543400  0.38502400  1
  B  B7  1  0.09081100  0.09569300  0.87029600  1
  O  O0  1  0.11359000  0.85401800  0.07461500  1
  O  O1  1  0.47436500  0.88353600  0.34508600  1
  O  O2  1  0.21456600  0.95598700  0.86016300  1
  O  O3  1  0.51585400  0.86364300  0.63629400  1
  O  O4  1  0.88221500  0.97178800  0.58998400  1
  O  O5  1  0.81630100  0.78766100  0.18098200  1
  O  O6  1  0.26811100  0.52826500  0.12979400  1
  O  O7  1  0.05654600  0.63331900  0.67125700  1
  O  O8  1  0.71740300  0.72703200  0.83915900  1
  O  O9  1  0.62675800  0.51939600  0.42069200  1
  O  O10  1  0.94096600  0.65317700  0.36484900  1
  O  O11  1  0.38129000  0.65272500  0.92085600  1
  O  O12  1  0.64394800  0.38059800  0.09622300  1
  O  O13  1  0.38418500  0.46285200  0.58542000  1
  O  O14  1  0.30316900  0.29167500  0.17377700  1
  O  O15  1  0.98243000  0.38108200  0.34392600  1
  O  O16  1  0.69839000  0.46875300  0.85123500  1
  O  O17  1  0.20137500  0.19777300  0.82532300  1
  O  O18  1  0.12925600  0.02548400  0.43351300  1
  O  O19  1  0.45348500  0.16032700  0.38147800  1
  O  O20  1  0.02374700  0.35116600  0.63148000  1
  O  O21  1  0.74596600  0.00592500  0.10907300  1
  O  O22  1  0.53912500  0.13829100  0.65863300  1
  O  O23  1  0.86588400  0.12315300  0.91515000  1
loop_
_geom_bond_atom_site_label_1
_geom_bond_atom_site_label_2
_geom_bond_distance
_geom_bond_site_symmetry_2
Li0 O3 1.918828 1_555
Li0 O7 2.021591 1_555
Li0 O2 2.064752 1_555
Li0 O4 2.158895 1_455
Li1 O8 2.009405 1_555
Li1 O21 2.016568 1_566
Li1 O2 2.047648 1_555
Li1 O23 2.068668 1_565
Li2 O6 1.902114 1_655
Li2 O5 2.036069 1_555
Li2 O10 2.064256 1_555
Li2 O12 2.073678 1_555
Li3 O20 1.954334 1_655
Li3 O22 1.992365 1_555
Li3 O16 2.004042 1_555
Li3 O13 2.081820 1_555
Fe0 O6 1.961378 1_555
Fe0 O0 2.057254 1_555
Fe0 O5 2.126599 1_555
Fe0 O11 2.181815 1_554
Fe0 O1 2.214703 1_555
Fe1 O11 1.905228 1_555
Fe1 O2 1.944327 1_555
Fe1 O8 1.955689 1_455
Fe1 O0 1.981477 1_556
Fe1 O7 2.183833 1_555
Fe2 O10 1.901625 1_555
Fe2 O1 1.923385 1_555
Fe2 O18 1.954659 1_665
Fe2 O5 2.028519 1_555
Fe2 O4 2.183635 1_555
Fe3 O3 1.980838 1_555
Fe3 O13 2.088060 1_555
Fe3 O9 2.099593 1_555
Fe3 O7 2.130077 1_655
Fe3 O8 2.231589 1_555
Fe4 O19 1.865534 1_555
Fe4 O9 1.932025 1_555
Fe4 O15 1.938183 1_455
Fe4 O14 2.016209 1_555
Fe4 O13 2.226610 1_555
Fe5 O20 1.913945 1_555
Fe5 O22 2.001924 1_555
Fe5 O17 2.023741 1_555
Fe5 O4 2.035056 1_445
Fe5 O18 2.068963 1_555
Fe6 O21 1.982867 1_555
Fe6 O14 2.112673 1_655
Fe6 O12 2.122591 1_555
Fe6 O15 2.190942 1_555
Fe6 O23 2.252649 1_554
Fe7 O16 1.966458 1_555
Fe7 O23 2.090453 1_555
Fe7 O17 2.124726 1_555
Fe7 O12 2.130888 1_556
Fe7 O22 2.354746 1_555
B0 O3 1.356266 1_555
B0 O22 1.401394 1_565
B0 O4 1.423412 1_555
B1 O21 1.351123 1_565
B1 O0 1.394053 1_655
B1 O5 1.418087 1_555
B2 O20 1.383883 1_555
B2 O13 1.387702 1_555
B2 O7 1.412089 1_555
B3 O6 1.357908 1_555
B3 O14 1.407257 1_555
B3 O12 1.411562 1_555
B4 O10 1.376985 1_555
B4 O9 1.380528 1_555
B4 O15 1.387030 1_555
B5 O16 1.348311 1_555
B5 O11 1.384878 1_555
B5 O8 1.418200 1_555
B6 O19 1.349530 1_555
B6 O1 1.390607 1_545
B6 O18 1.413875 1_555
B7 O23 1.377135 1_455
B7 O17 1.400797 1_555
B7 O2 1.404011 1_545
