# generated using pymatgen
data_Li2MnF4
_symmetry_space_group_name_H-M   'P 1'
_cell_length_a   5.48273700
_cell_length_b   6.00991700
_cell_length_c   10.64964588
_cell_angle_alpha   72.97173970
_cell_angle_beta   90.00000000
_cell_angle_gamma   90.00000000
_symmetry_Int_Tables_number   1
_chemical_formula_structural   Li2MnF4
_chemical_formula_sum   'Li8 Mn4 F16'
_cell_volume   335.53035970
_cell_formula_units_Z   4
loop_
 _symmetry_equiv_pos_site_id
 _symmetry_equiv_pos_as_xyz
  1  'x, y, z'
loop_
 _atom_site_type_symbol
 _atom_site_label
 _atom_site_symmetry_multiplicity
 _atom_site_fract_x
 _atom_site_fract_y
 _atom_site_fract_z
 _atom_site_occupancy
  Li  Li0  1  0.75382200  0.88596500  0.79548200  1
  Li  Li1  1  0.35366000  0.82678400  0.57306500  1
  Li  Li2  1  0.85366000  0.17321600  0.92693500  1
  Li  Li3  1  0.25382200  0.11403500  0.70451800  1
  Li  Li4  1  0.74617800  0.88596500  0.29548200  1
  Li  Li5  1  0.14634000  0.82678400  0.07306500  1
  Li  Li6  1  0.64634000  0.17321600  0.42693500  1
  Li  Li7  1  0.24617800  0.11403500  0.20451800  1
  Mn  Mn0  1  0.35997100  0.41020900  0.88260900  1
  Mn  Mn1  1  0.85997100  0.58979100  0.61739100  1
  Mn  Mn2  1  0.14002900  0.41020900  0.38260900  1
  Mn  Mn3  1  0.64002900  0.58979100  0.11739100  1
  F  F0  1  0.68116300  0.35671300  0.00421900  1
  F  F1  1  0.04706100  0.83415100  0.70422000  1
  F  F2  1  0.65956800  0.84392600  0.47176600  1
  F  F3  1  0.55437300  0.67670300  0.73130700  1
  F  F4  1  0.05437300  0.32329700  0.76869300  1
  F  F5  1  0.15956800  0.15607400  0.02823400  1
  F  F6  1  0.54706100  0.16584900  0.79578000  1
  F  F7  1  0.18116300  0.64328700  0.49578100  1
  F  F8  1  0.81883700  0.35671300  0.50421900  1
  F  F9  1  0.45293900  0.83415100  0.20422000  1
  F  F10  1  0.84043200  0.84392600  0.97176600  1
  F  F11  1  0.94562700  0.67670300  0.23130700  1
  F  F12  1  0.44562700  0.32329700  0.26869300  1
  F  F13  1  0.34043200  0.15607400  0.52823400  1
  F  F14  1  0.95293900  0.16584900  0.29578000  1
  F  F15  1  0.31883700  0.64328700  0.99578100  1
loop_
_geom_bond_atom_site_label_1
_geom_bond_atom_site_label_2
_geom_bond_distance
_geom_bond_site_symmetry_2
F0 Li2 1.821987 1_554
F0 Mn3 2.110558 1_555
F0 Mn0 2.153590 1_554
F1 Li0 1.950308 1_455
F1 Li3 2.029190 1_565
F1 Li1 2.194281 1_555
F1 Mn1 2.204395 1_455
F2 Li4 1.880429 1_555
F2 Li6 1.896387 1_565
F2 Li1 1.980497 1_555
F2 Mn1 2.134914 1_555
F3 Li0 1.935971 1_555
F3 Li1 1.993558 1_555
F3 Mn0 2.187703 1_555
F3 Mn1 2.218802 1_555
F4 Li3 1.935971 1_555
F4 Li2 1.993558 1_455
F4 Mn1 2.187703 1_455
F4 Mn0 2.218802 1_555
F5 Li7 1.880429 1_555
F5 Li5 1.896387 1_545
F5 Li2 1.980497 1_454
F5 Mn0 2.134914 1_554
F6 Li3 1.950308 1_555
F6 Li0 2.029190 1_545
F6 Li2 2.194281 1_555
F6 Mn0 2.204395 1_555
F7 Li1 1.821987 1_555
F7 Mn2 2.110558 1_555
F7 Mn1 2.153590 1_455
F8 Li6 1.821987 1_555
F8 Mn1 2.110558 1_555
F8 Mn2 2.153590 1_655
F9 Li4 1.950308 1_555
F9 Li7 2.029190 1_565
F9 Li5 2.194281 1_555
F9 Mn3 2.204395 1_555
F10 Li0 1.880429 1_555
F10 Li2 1.896387 1_565
F10 Li5 1.980497 1_656
F10 Mn3 2.134914 1_556
F11 Li4 1.935971 1_555
F11 Li5 1.993558 1_655
F11 Mn2 2.187703 1_655
F11 Mn3 2.218802 1_555
F12 Li7 1.935971 1_555
F12 Li6 1.993558 1_555
F12 Mn3 2.187703 1_555
F12 Mn2 2.218802 1_555
F13 Li3 1.880429 1_555
F13 Li1 1.896387 1_545
F13 Li6 1.980497 1_555
F13 Mn2 2.134914 1_555
F14 Li7 1.950308 1_655
F14 Li4 2.029190 1_545
F14 Li6 2.194281 1_555
F14 Mn2 2.204395 1_655
F15 Li5 1.821987 1_556
F15 Mn0 2.110558 1_555
F15 Mn3 2.153590 1_556
