# generated using pymatgen
data_LiAlNiO3
_symmetry_space_group_name_H-M   'P 1'
_cell_length_a   5.74150995
_cell_length_b   5.93384009
_cell_length_c   8.80336918
_cell_angle_alpha   109.08410427
_cell_angle_beta   107.48135024
_cell_angle_gamma   61.91735074
_symmetry_Int_Tables_number   1
_chemical_formula_structural   LiAlNiO3
_chemical_formula_sum   'Li4 Al4 Ni4 O12'
_cell_volume   246.18083255
_cell_formula_units_Z   4
loop_
 _symmetry_equiv_pos_site_id
 _symmetry_equiv_pos_as_xyz
  1  'x, y, z'
loop_
 _atom_site_type_symbol
 _atom_site_label
 _atom_site_symmetry_multiplicity
 _atom_site_fract_x
 _atom_site_fract_y
 _atom_site_fract_z
 _atom_site_occupancy
  Li  Li0  1  0.94253700  0.12930800  0.37444900  1
  Li  Li1  1  0.44271100  0.62905400  0.87441200  1
  Li  Li2  1  0.55746400  0.37069300  0.12555100  1
  Li  Li3  1  0.05729000  0.87094600  0.62558800  1
  Al  Al0  1  0.62824300  0.78783900  0.37498200  1
  Al  Al1  1  0.12813700  0.28773800  0.87492100  1
  Al  Al2  1  0.87175800  0.71216100  0.12501800  1
  Al  Al3  1  0.37186400  0.21226200  0.62507900  1
  Ni  Ni0  1  0.78805900  0.96399700  0.87308200  1
  Ni  Ni1  1  0.71193400  0.53600700  0.62691700  1
  Ni  Ni2  1  0.28797300  0.46388500  0.37295400  1
  Ni  Ni3  1  0.21202900  0.03611000  0.12704400  1
  O  O0  1  0.93849500  0.78616800  0.36192200  1
  O  O1  1  0.43888100  0.28596000  0.86197100  1
  O  O2  1  0.56150400  0.71383300  0.13807800  1
  O  O3  1  0.06112000  0.21404000  0.63803000  1
  O  O4  1  0.32749900  0.09900100  0.38308500  1
  O  O5  1  0.82730400  0.59865200  0.88317600  1
  O  O6  1  0.17250000  0.40100000  0.11691500  1
  O  O7  1  0.67269600  0.90134700  0.61682500  1
  O  O8  1  0.63160900  0.48589700  0.38075400  1
  O  O9  1  0.13107200  0.98645600  0.88083700  1
  O  O10  1  0.86839200  0.01410200  0.11924600  1
  O  O11  1  0.36892800  0.51354600  0.61916300  1
loop_
_geom_bond_atom_site_label_1
_geom_bond_atom_site_label_2
_geom_bond_distance
_geom_bond_site_symmetry_2
Li0 O0 2.013623 1_545
Li0 O8 2.023263 1_555
Li0 O10 2.095485 1_555
Li0 O4 2.111194 1_655
Li0 O3 2.170449 1_655
Li1 O1 2.012988 1_555
Li1 O9 2.027835 1_555
Li1 O11 2.095908 1_555
Li1 O5 2.108579 1_555
Li1 O2 2.171253 1_556
Li2 O2 2.013617 1_555
Li2 O10 2.023270 1_555
Li2 O8 2.095484 1_555
Li2 O6 2.111205 1_555
Li2 O1 2.170441 1_554
Li3 O3 2.012986 1_565
Li3 O11 2.027825 1_555
Li3 O9 2.095909 1_555
Li3 O7 2.108589 1_455
Li3 O0 2.171254 1_455
Al0 O8 1.799833 1_555
Al0 O0 1.814406 1_555
Al0 O4 1.839028 1_565
Al0 O2 1.941295 1_555
Al0 O7 1.987275 1_555
Al1 O9 1.797519 1_545
Al1 O1 1.816578 1_555
Al1 O5 1.838456 1_455
Al1 O3 1.941217 1_555
Al1 O6 1.988448 1_556
Al2 O10 1.799827 1_565
Al2 O2 1.814414 1_555
Al2 O6 1.839020 1_655
Al2 O0 1.941295 1_555
Al2 O5 1.987267 1_554
Al3 O11 1.797528 1_555
Al3 O3 1.816581 1_555
Al3 O7 1.838457 1_545
Al3 O1 1.941225 1_555
Al3 O4 1.988447 1_555
Ni0 O9 2.015287 1_655
Ni0 O1 2.019182 1_565
Ni0 O10 2.025986 1_566
Ni0 O5 2.100593 1_555
Ni0 O7 2.109934 1_555
Ni1 O11 2.015256 1_555
Ni1 O3 2.019219 1_655
Ni1 O8 2.025976 1_555
Ni1 O7 2.100574 1_555
Ni1 O5 2.109954 1_555
Ni2 O8 2.017382 1_555
Ni2 O0 2.020997 1_455
Ni2 O11 2.026531 1_555
Ni2 O4 2.097353 1_555
Ni2 O6 2.108187 1_555
Ni3 O10 2.017380 1_455
Ni3 O2 2.020972 1_545
Ni3 O9 2.026518 1_544
Ni3 O6 2.097376 1_555
Ni3 O4 2.108201 1_555
