# generated using pymatgen
data_MnFe3(PO4)4
_symmetry_space_group_name_H-M   'P 1'
_cell_length_a   5.96167100
_cell_length_b   4.90049300
_cell_length_c   9.91954823
_cell_angle_alpha   89.57552018
_cell_angle_beta   90.00000000
_cell_angle_gamma   90.00000000
_symmetry_Int_Tables_number   1
_chemical_formula_structural   MnFe3(PO4)4
_chemical_formula_sum   'Mn1 Fe3 P4 O16'
_cell_volume   289.79290813
_cell_formula_units_Z   1
loop_
 _symmetry_equiv_pos_site_id
 _symmetry_equiv_pos_as_xyz
  1  'x, y, z'
loop_
 _atom_site_type_symbol
 _atom_site_label
 _atom_site_symmetry_multiplicity
 _atom_site_fract_x
 _atom_site_fract_y
 _atom_site_fract_z
 _atom_site_occupancy
  Mn  Mn0  1  0.00000000  0.06033300  0.28151100  1
  Fe  Fe0  1  0.00000000  0.46809200  0.77320800  1
  Fe  Fe1  1  0.50000000  0.53660900  0.22378900  1
  Fe  Fe2  1  0.50000000  0.96833600  0.72731800  1
  P  P0  1  0.50000000  0.08064300  0.40321100  1
  P  P1  1  0.50000000  0.41484900  0.90271600  1
  P  P2  1  0.00000000  0.58100100  0.09968300  1
  P  P3  1  0.00000000  0.92129700  0.59641400  1
  O  O0  1  0.50000000  0.14838700  0.55295600  1
  O  O1  1  0.30096900  0.23010300  0.32850100  1
  O  O2  1  0.69903100  0.23010300  0.32850100  1
  O  O3  1  0.00000000  0.22925000  0.61743400  1
  O  O4  1  0.00000000  0.26737100  0.11926100  1
  O  O5  1  0.29872100  0.27195000  0.82737100  1
  O  O6  1  0.70127900  0.27195000  0.82737100  1
  O  O7  1  0.50000000  0.34370500  0.05287800  1
  O  O8  1  0.00000000  0.64013300  0.94790200  1
  O  O9  1  0.79592500  0.71861700  0.17124300  1
  O  O10  1  0.20407500  0.71861700  0.17124300  1
  O  O11  1  0.50000000  0.72335500  0.88035900  1
  O  O12  1  0.50000000  0.77371100  0.38057200  1
  O  O13  1  0.79903500  0.77481200  0.67051600  1
  O  O14  1  0.20096500  0.77481200  0.67051600  1
  O  O15  1  0.00000000  0.85196700  0.44553000  1
loop_
_geom_bond_atom_site_label_1
_geom_bond_atom_site_label_2
_geom_bond_distance
_geom_bond_site_symmetry_2
Mn0 O4 1.896184 1_555
Mn0 O15 1.914454 1_545
Mn0 O1 2.033371 1_555
Mn0 O2 2.033371 1_455
Mn0 O10 2.346902 1_545
Mn0 O9 2.346902 1_445
Fe0 O8 1.932701 1_555
Fe0 O3 1.945354 1_555
Fe0 O5 2.091990 1_555
Fe0 O6 2.091990 1_455
Fe0 O14 2.170170 1_555
Fe0 O13 2.170170 1_455
Fe1 O7 1.947211 1_555
Fe1 O12 1.948210 1_555
Fe1 O9 2.042734 1_555
Fe1 O10 2.042734 1_555
Fe1 O2 2.172507 1_555
Fe1 O1 2.172507 1_555
Fe2 O11 1.928440 1_555
Fe2 O0 1.935820 1_565
Fe2 O13 2.098327 1_555
Fe2 O14 2.098327 1_555
Fe2 O6 2.158824 1_565
Fe2 O5 2.158824 1_565
O0 P0 1.524447 1_555
O1 P0 1.576559 1_555
O2 P0 1.576559 1_555
O3 P3 1.524987 1_545
O4 P2 1.547735 1_555
O5 P1 1.580073 1_555
O6 P1 1.580073 1_555
O7 P1 1.527280 1_554
O8 P2 1.531122 1_556
O9 P2 1.563953 1_655
O10 P2 1.563953 1_555
O11 P1 1.526384 1_555
O12 P0 1.522435 1_565
O13 P3 1.575821 1_655
O14 P3 1.575821 1_555
O15 P3 1.537231 1_555
