# generated using pymatgen
data_Co3Ni2Te3O16
_symmetry_space_group_name_H-M   'P 1'
_cell_length_a   5.89248476
_cell_length_b   5.89248476
_cell_length_c   9.17317096
_cell_angle_alpha   89.90798981
_cell_angle_beta   89.90798981
_cell_angle_gamma   61.18507127
_symmetry_Int_Tables_number   1
_chemical_formula_structural   Co3Ni2Te3O16
_chemical_formula_sum   'Co3 Ni2 Te3 O16'
_cell_volume   279.06769242
_cell_formula_units_Z   1
loop_
 _symmetry_equiv_pos_site_id
 _symmetry_equiv_pos_as_xyz
  1  'x, y, z'
loop_
 _atom_site_type_symbol
 _atom_site_label
 _atom_site_symmetry_multiplicity
 _atom_site_fract_x
 _atom_site_fract_y
 _atom_site_fract_z
 _atom_site_occupancy
  Co  Co0  1  0.83106100  0.83106100  0.78784200  1
  Co  Co1  1  0.66126000  0.16884200  0.28902200  1
  Co  Co2  1  0.16884200  0.66126000  0.28902200  1
  Ni  Ni0  1  0.67895100  0.67895100  0.49172600  1
  Ni  Ni1  1  0.34588900  0.34588900  0.02535200  1
  Te  Te0  1  0.82874900  0.33590800  0.78587700  1
  Te  Te1  1  0.33590800  0.82874900  0.78587700  1
  Te  Te2  1  0.16501600  0.16501600  0.28933000  1
  O  O0  1  0.83680700  0.32270600  0.39960800  1
  O  O1  1  0.51154000  0.51154000  0.66218700  1
  O  O2  1  0.67017900  0.67017900  0.90462100  1
  O  O3  1  0.99471400  0.99471400  0.67291800  1
  O  O4  1  0.99501500  0.99501500  0.18312700  1
  O  O5  1  0.32270600  0.83680700  0.39960800  1
  O  O6  1  0.95938900  0.52459900  0.66924800  1
  O  O7  1  0.52459900  0.95938900  0.66924800  1
  O  O8  1  0.16700500  0.16700500  0.89969700  1
  O  O9  1  0.84007800  0.84007800  0.38466000  1
  O  O10  1  0.48346700  0.04550100  0.16397100  1
  O  O11  1  0.04550100  0.48346700  0.16397100  1
  O  O12  1  0.33748400  0.33748400  0.39657200  1
  O  O13  1  0.67857500  0.16084900  0.89673100  1
  O  O14  1  0.47946400  0.47946400  0.17711300  1
  O  O15  1  0.16084900  0.67857500  0.89673100  1
loop_
_geom_bond_atom_site_label_1
_geom_bond_atom_site_label_2
_geom_bond_distance
_geom_bond_site_symmetry_2
Co0 O6 1.924485 1_555
Co0 O7 1.924485 1_555
Co0 O2 1.950568 1_555
Co0 O3 1.964965 1_555
Co0 O15 1.975237 1_655
Co0 O13 1.975237 1_565
Co1 O14 1.912833 1_555
Co1 O9 1.913800 1_545
Co1 O10 1.918894 1_555
Co1 O12 1.941711 1_555
Co1 O0 1.957401 1_555
Co1 O4 1.978814 1_545
Co2 O14 1.912833 1_555
Co2 O9 1.913800 1_455
Co2 O11 1.918894 1_555
Co2 O12 1.941711 1_555
Co2 O5 1.957401 1_555
Co2 O4 1.978814 1_455
Ni0 O9 1.905365 1_555
Ni0 O0 2.026506 1_555
Ni0 O5 2.026506 1_555
Ni0 O7 2.182844 1_555
Ni0 O6 2.182844 1_555
Ni0 O1 2.306389 1_555
Ni1 O14 1.944547 1_555
Ni1 O11 2.004989 1_555
Ni1 O10 2.004989 1_555
Ni1 O13 2.088100 1_554
Ni1 O15 2.088100 1_554
Ni1 O8 2.151645 1_554
O0 Te2 1.972669 1_655
O1 Te1 1.997621 1_555
O1 Te0 1.997621 1_555
O2 Te1 2.041746 1_555
O2 Te0 2.041746 1_555
O3 Te1 2.044566 1_655
O3 Te0 2.044566 1_565
O4 Te2 1.982319 1_665
O5 Te2 1.972669 1_565
O6 Te0 1.947306 1_555
O7 Te1 1.947306 1_555
O8 Te1 2.035804 1_545
O8 Te0 2.035804 1_455
O10 Te2 2.015255 1_555
O11 Te2 2.015255 1_555
O12 Te2 2.008818 1_555
O13 Te0 1.937731 1_555
O15 Te1 1.937731 1_555
