# generated using pymatgen
data_LiFePO4
_symmetry_space_group_name_H-M   'P 1'
_cell_length_a   5.80452600
_cell_length_b   7.68489000
_cell_length_c   13.98183900
_cell_angle_alpha   90.00000000
_cell_angle_beta   90.00000000
_cell_angle_gamma   90.00000000
_symmetry_Int_Tables_number   1
_chemical_formula_structural   LiFePO4
_chemical_formula_sum   'Li8 Fe8 P8 O32'
_cell_volume   623.68990303
_cell_formula_units_Z   8
loop_
 _symmetry_equiv_pos_site_id
 _symmetry_equiv_pos_as_xyz
  1  'x, y, z'
loop_
 _atom_site_type_symbol
 _atom_site_label
 _atom_site_symmetry_multiplicity
 _atom_site_fract_x
 _atom_site_fract_y
 _atom_site_fract_z
 _atom_site_occupancy
  Li  Li0  1  0.41500100  0.17175600  0.52706100  1
  Li  Li1  1  0.91500100  0.17175600  0.97293900  1
  Li  Li2  1  0.41500100  0.32824400  0.02706100  1
  Li  Li3  1  0.91500100  0.32824400  0.47293900  1
  Li  Li4  1  0.08499900  0.67175600  0.52706100  1
  Li  Li5  1  0.58499900  0.67175600  0.97293900  1
  Li  Li6  1  0.08499900  0.82824400  0.02706100  1
  Li  Li7  1  0.58499900  0.82824400  0.47293900  1
  Fe  Fe0  1  0.15964700  0.18411500  0.21843300  1
  Fe  Fe1  1  0.65964700  0.18411500  0.28156700  1
  Fe  Fe2  1  0.65964700  0.31588500  0.78156700  1
  Fe  Fe3  1  0.15964700  0.31588500  0.71843300  1
  Fe  Fe4  1  0.34035300  0.68411500  0.21843300  1
  Fe  Fe5  1  0.84035300  0.68411500  0.28156700  1
  Fe  Fe6  1  0.34035300  0.81588500  0.71843300  1
  Fe  Fe7  1  0.84035300  0.81588500  0.78156700  1
  P  P0  1  0.89492800  0.04056600  0.62651300  1
  P  P1  1  0.39492800  0.04056600  0.87348700  1
  P  P2  1  0.89492800  0.45943400  0.12651300  1
  P  P3  1  0.39492800  0.45943400  0.37348700  1
  P  P4  1  0.60507200  0.54056600  0.62651300  1
  P  P5  1  0.10507200  0.54056600  0.87348700  1
  P  P6  1  0.60507200  0.95943400  0.12651300  1
  P  P7  1  0.10507200  0.95943400  0.37348700  1
  O  O0  1  0.81321800  0.97638500  0.06147500  1
  O  O1  1  0.31321800  0.97638500  0.43852500  1
  O  O2  1  0.32368600  0.08548300  0.76685800  1
  O  O3  1  0.82368600  0.08548300  0.73314200  1
  O  O4  1  0.48143600  0.14005600  0.14231400  1
  O  O5  1  0.98143600  0.14005600  0.35768600  1
  O  O6  1  0.06705600  0.18350300  0.59296900  1
  O  O7  1  0.56705600  0.18350300  0.90703100  1
  O  O8  1  0.06705600  0.31649700  0.09296900  1
  O  O9  1  0.56705600  0.31649700  0.40703100  1
  O  O10  1  0.48143600  0.35994400  0.64231400  1
  O  O11  1  0.98143600  0.35994400  0.85768600  1
  O  O12  1  0.82368600  0.41451700  0.23314200  1
  O  O13  1  0.32368600  0.41451700  0.26685800  1
  O  O14  1  0.81321800  0.52361500  0.56147500  1
  O  O15  1  0.31321800  0.52361500  0.93852500  1
  O  O16  1  0.18678200  0.47638500  0.43852500  1
  O  O17  1  0.68678200  0.47638500  0.06147500  1
  O  O18  1  0.67631400  0.58548300  0.73314200  1
  O  O19  1  0.17631400  0.58548300  0.76685800  1
  O  O20  1  0.01856400  0.64005600  0.14231400  1
  O  O21  1  0.51856400  0.64005600  0.35768600  1
  O  O22  1  0.43294400  0.68350300  0.59296900  1
  O  O23  1  0.93294400  0.68350300  0.90703100  1
  O  O24  1  0.43294400  0.81649700  0.09296900  1
  O  O25  1  0.93294400  0.81649700  0.40703100  1
  O  O26  1  0.01856400  0.85994400  0.64231400  1
  O  O27  1  0.51856400  0.85994400  0.85768600  1
  O  O28  1  0.67631400  0.91451700  0.23314200  1
  O  O29  1  0.17631400  0.91451700  0.26685800  1
  O  O30  1  0.68678200  0.02361500  0.56147500  1
  O  O31  1  0.18678200  0.02361500  0.93852500  1
loop_
_geom_bond_atom_site_label_1
_geom_bond_atom_site_label_2
_geom_bond_distance
_geom_bond_site_symmetry_2
Li0 O30 2.004067 1_555
Li0 O1 2.033630 1_545
Li0 O9 2.198349 1_555
Li0 O10 2.199313 1_555
Li0 O6 2.221790 1_555
Li1 O31 2.004067 1_655
Li1 O0 2.033630 1_546
Li1 O8 2.198349 1_656
Li1 O11 2.199313 1_555
Li1 O7 2.221790 1_555
Li2 O17 2.004067 1_555
Li2 O15 2.033630 1_554
Li2 O7 2.198349 1_554
Li2 O4 2.199313 1_555
Li2 O8 2.221790 1_555
Li3 O16 2.004067 1_655
Li3 O14 2.033630 1_555
Li3 O6 2.198349 1_655
Li3 O5 2.199313 1_555
Li3 O9 2.221790 1_555
Li4 O14 2.004067 1_455
Li4 O16 2.033630 1_555
Li4 O25 2.198349 1_455
Li4 O26 2.199313 1_555
Li4 O22 2.221790 1_555
Li5 O15 2.004067 1_555
Li5 O17 2.033630 1_556
Li5 O24 2.198349 1_556
Li5 O27 2.199313 1_555
Li5 O23 2.221790 1_555
Li6 O0 2.004067 1_455
Li6 O31 2.033630 1_564
Li6 O23 2.198349 1_454
Li6 O20 2.199313 1_555
Li6 O24 2.221790 1_555
Li7 O1 2.004067 1_555
Li7 O30 2.033630 1_565
Li7 O22 2.198349 1_555
Li7 O21 2.199313 1_555
Li7 O25 2.221790 1_555
Fe0 O8 2.097882 1_555
Fe0 O13 2.121349 1_555
Fe0 O4 2.176268 1_555
Fe0 O29 2.181804 1_545
Fe0 O5 2.230594 1_455
Fe0 O12 2.642014 1_455
Fe1 O9 2.097882 1_555
Fe1 O12 2.121349 1_555
Fe1 O5 2.176268 1_555
Fe1 O28 2.181804 1_545
Fe1 O4 2.230594 1_555
Fe1 O13 2.642014 1_555
Fe2 O7 2.097882 1_555
Fe2 O3 2.121349 1_555
Fe2 O11 2.176268 1_555
Fe2 O18 2.181804 1_555
Fe2 O10 2.230594 1_555
Fe2 O2 2.642014 1_555
Fe3 O6 2.097882 1_555
Fe3 O2 2.121349 1_555
Fe3 O10 2.176268 1_555
Fe3 O19 2.181804 1_555
Fe3 O11 2.230594 1_455
Fe3 O3 2.642014 1_455
Fe4 O24 2.097882 1_555
Fe4 O29 2.121349 1_555
Fe4 O20 2.176268 1_555
Fe4 O13 2.181804 1_555
Fe4 O21 2.230594 1_555
Fe4 O28 2.642014 1_555
Fe5 O25 2.097882 1_555
Fe5 O28 2.121349 1_555
Fe5 O21 2.176268 1_555
Fe5 O12 2.181804 1_555
Fe5 O20 2.230594 1_655
Fe5 O29 2.642014 1_655
Fe6 O22 2.097882 1_555
Fe6 O19 2.121349 1_555
Fe6 O26 2.176268 1_555
Fe6 O2 2.181804 1_565
Fe6 O27 2.230594 1_555
Fe6 O18 2.642014 1_555
Fe7 O23 2.097882 1_555
Fe7 O18 2.121349 1_555
Fe7 O27 2.176268 1_555
Fe7 O3 2.181804 1_565
Fe7 O26 2.230594 1_655
Fe7 O19 2.642014 1_655
O0 P6 1.517764 1_555
O1 P7 1.517764 1_555
O2 P1 1.585196 1_555
O3 P0 1.585196 1_555
O4 P6 1.578144 1_545
O5 P7 1.578144 1_645
O6 P0 1.557182 1_455
O7 P1 1.557182 1_555
O8 P2 1.557182 1_455
O9 P3 1.557182 1_555
O10 P4 1.578144 1_555
O11 P5 1.578144 1_655
O12 P2 1.585196 1_555
O13 P3 1.585196 1_555
O14 P4 1.517764 1_555
O15 P5 1.517764 1_555
O16 P3 1.517764 1_555
O17 P2 1.517764 1_555
O18 P4 1.585196 1_555
O19 P5 1.585196 1_555
O20 P2 1.578144 1_455
O21 P3 1.578144 1_555
O22 P4 1.557182 1_555
O23 P5 1.557182 1_655
O24 P6 1.557182 1_555
O25 P7 1.557182 1_655
O26 P0 1.578144 1_465
O27 P1 1.578144 1_565
O28 P6 1.585196 1_555
O29 P7 1.585196 1_555
O30 P0 1.517764 1_555
O31 P1 1.517764 1_555
