# generated using pymatgen
data_BaO
_symmetry_space_group_name_H-M   'P 1'
_cell_length_a   3.89362794
_cell_length_b   52.34937190
_cell_length_c   3.89332281
_cell_angle_alpha   90.00000000
_cell_angle_beta   120.00475992
_cell_angle_gamma   90.00000000
_symmetry_Int_Tables_number   1
_chemical_formula_structural   BaO
_chemical_formula_sum   'Ba16 O16'
_cell_volume   687.22055007
_cell_formula_units_Z   16
loop_
 _symmetry_equiv_pos_site_id
 _symmetry_equiv_pos_as_xyz
  1  'x, y, z'
loop_
 _atom_site_type_symbol
 _atom_site_label
 _atom_site_symmetry_multiplicity
 _atom_site_fract_x
 _atom_site_fract_y
 _atom_site_fract_z
 _atom_site_occupancy
  Ba  Ba0  1  0.85921455  0.25000000  0.67916426  1
  Ba  Ba1  1  0.15496329  0.56276452  0.32650626  1
  Ba  Ba2  1  0.15496329  0.93723548  0.32650626  1
  Ba  Ba3  1  0.47874283  0.62530118  0.98810568  1
  Ba  Ba4  1  0.47874283  0.87469882  0.98810568  1
  Ba  Ba5  1  0.19053842  0.18729358  0.34368244  1
  Ba  Ba6  1  0.19053842  0.31270642  0.34368244  1
  Ba  Ba7  1  0.50008226  -0.00024607  -0.00139147  1
  Ba  Ba8  1  0.50008226  0.50024607  -0.00139147  1
  Ba  Ba9  1  0.80915900  0.68747651  0.65293159  1
  Ba  Ba10  1  0.80915900  0.81252349  0.65293159  1
  Ba  Ba11  1  0.52153130  0.12492885  0.00919289  1
  Ba  Ba12  1  0.52153130  0.37507115  0.00919289  1
  Ba  Ba13  1  0.84562906  0.06228645  0.67199719  1
  Ba  Ba14  1  0.84562906  0.43771355  0.67199719  1
  Ba  Ba15  1  0.14128129  0.75000000  0.32066795  1
  O  O0  1  0.16971988  0.03067266  0.33394053  1
  O  O1  1  0.18780652  0.09392012  0.34271843  1
  O  O2  1  0.85579985  0.15612294  0.67800588  1
  O  O3  1  0.18780652  0.40607988  0.34271843  1
  O  O4  1  0.85579985  0.34387706  0.67800588  1
  O  O5  1  0.16971988  0.46932734  0.33394053  1
  O  O6  1  0.47402782  0.71839086  0.98740320  1
  O  O7  1  0.47402782  0.78160914  0.98740320  1
  O  O8  1  0.52564035  0.21830452  0.01271383  1
  O  O9  1  0.82986479  0.53119522  0.66466202  1
  O  O10  1  0.82986479  0.96880478  0.66466202  1
  O  O11  1  0.14395446  0.65639627  0.32208529  1
  O  O12  1  0.52564035  0.28169548  0.01271383  1
  O  O13  1  0.81229125  0.59436922  0.65575513  1
  O  O14  1  0.81229125  0.90563078  0.65575513  1
  O  O15  1  0.14395446  0.84360373  0.32208529  1
loop_
_geom_bond_atom_site_label_1
_geom_bond_atom_site_label_2
_geom_bond_distance
_geom_bond_site_symmetry_2
Ba0 O8 2.793200 1_555
Ba0 O12 2.793200 1_555
Ba0 O8 2.793275 1_656
Ba0 O12 2.793275 1_656
Ba0 O12 2.795228 1_556
Ba0 O8 2.795228 1_556
Ba1 O13 2.765812 1_555
Ba1 O9 2.776879 1_454
Ba1 O9 2.780922 1_455
Ba1 O13 2.802212 1_454
Ba1 O13 2.805580 1_455
Ba1 O9 2.812430 1_555
Ba2 O14 2.765812 1_555
Ba2 O10 2.776879 1_454
Ba2 O10 2.780922 1_455
Ba2 O14 2.802212 1_454
Ba2 O14 2.805580 1_455
Ba2 O10 2.812430 1_555
Ba3 O13 2.768339 1_555
Ba3 O13 2.769792 1_455
Ba3 O11 2.771410 1_656
Ba3 O13 2.772924 1_556
Ba3 O11 2.773479 1_555
Ba3 O11 2.781180 1_556
Ba4 O14 2.768339 1_555
Ba4 O14 2.769792 1_455
Ba4 O15 2.771410 1_656
Ba4 O14 2.772924 1_556
Ba4 O15 2.773479 1_555
Ba4 O15 2.781180 1_556
Ba5 O8 2.767971 1_455
Ba5 O8 2.771239 1_555
Ba5 O2 2.773873 1_555
Ba5 O2 2.774866 1_454
Ba5 O8 2.779122 1_556
Ba5 O2 2.784300 1_455
Ba6 O12 2.767971 1_455
Ba6 O12 2.771239 1_555
Ba6 O4 2.773873 1_555
Ba6 O4 2.774866 1_454
Ba6 O12 2.779122 1_556
Ba6 O4 2.784300 1_455
Ba7 O10 2.762945 1_544
Ba7 O0 2.764375 1_554
Ba7 O0 2.767389 1_555
Ba7 O10 2.769113 1_545
Ba7 O0 2.778109 1_655
Ba7 O10 2.780629 1_444
Ba8 O9 2.762945 1_554
Ba8 O5 2.764375 1_554
Ba8 O5 2.767389 1_555
Ba8 O9 2.769113 1_555
Ba8 O5 2.778109 1_655
Ba8 O9 2.780629 1_454
Ba9 O6 2.764932 1_655
Ba9 O6 2.766597 1_554
Ba9 O11 2.770939 1_555
Ba9 O11 2.772194 1_655
Ba9 O6 2.777940 1_555
Ba9 O11 2.781576 1_656
Ba10 O7 2.764932 1_655
Ba10 O7 2.766597 1_554
Ba10 O15 2.770939 1_555
Ba10 O15 2.772194 1_655
Ba10 O7 2.777940 1_555
Ba10 O15 2.781576 1_656
Ba11 O1 2.771659 1_655
Ba11 O1 2.772061 1_554
Ba11 O1 2.774384 1_555
Ba11 O2 2.775184 1_554
Ba11 O2 2.775878 1_454
Ba11 O2 2.784136 1_555
Ba12 O3 2.771659 1_655
Ba12 O3 2.772061 1_554
Ba12 O3 2.774384 1_555
Ba12 O4 2.775184 1_554
Ba12 O4 2.775878 1_454
Ba12 O4 2.784136 1_555
Ba13 O1 2.768055 1_555
Ba13 O0 2.778571 1_656
Ba13 O0 2.779324 1_655
Ba13 O1 2.803008 1_656
Ba13 O1 2.805200 1_655
Ba13 O0 2.816547 1_555
Ba14 O3 2.768055 1_555
Ba14 O5 2.778571 1_656
Ba14 O5 2.779324 1_655
Ba14 O3 2.803008 1_656
Ba14 O3 2.805200 1_655
Ba14 O5 2.816547 1_555
Ba15 O6 2.789526 1_554
Ba15 O7 2.789526 1_554
Ba15 O6 2.791292 1_555
Ba15 O7 2.791292 1_555
Ba15 O6 2.792840 1_454
Ba15 O7 2.792840 1_454
