# generated using pymatgen
data_FeCo3O8
_symmetry_space_group_name_H-M   'P 1'
_cell_length_a   5.61348062
_cell_length_b   5.61348062
_cell_length_c   8.90632000
_cell_angle_alpha   90.00000000
_cell_angle_beta   90.00000000
_cell_angle_gamma   120.00000731
_symmetry_Int_Tables_number   1
_chemical_formula_structural   FeCo3O8
_chemical_formula_sum   'Fe2 Co6 O16'
_cell_volume   243.04872663
_cell_formula_units_Z   2
loop_
 _symmetry_equiv_pos_site_id
 _symmetry_equiv_pos_as_xyz
  1  'x, y, z'
loop_
 _atom_site_type_symbol
 _atom_site_label
 _atom_site_symmetry_multiplicity
 _atom_site_fract_x
 _atom_site_fract_y
 _atom_site_fract_z
 _atom_site_occupancy
  Fe  Fe0  1  0.33333300  0.66666700  0.49571100  1
  Fe  Fe1  1  0.66666700  0.33333300  0.99571100  1
  Co  Co0  1  0.16779600  0.83220400  0.21214500  1
  Co  Co1  1  0.16779600  0.33559200  0.21214500  1
  Co  Co2  1  0.66440800  0.83220400  0.21214500  1
  Co  Co3  1  0.33559200  0.16779600  0.71214500  1
  Co  Co4  1  0.83220400  0.66440800  0.71214500  1
  Co  Co5  1  0.83220400  0.16779600  0.71214500  1
  O  O0  1  0.16012800  0.83987200  0.60557100  1
  O  O1  1  0.03913100  0.51956500  0.32977800  1
  O  O2  1  0.33333300  0.66666700  0.10046400  1
  O  O3  1  0.00000000  0.00000000  0.31907100  1
  O  O4  1  0.00000000  0.00000000  0.81907100  1
  O  O5  1  0.16012800  0.32025700  0.60557100  1
  O  O6  1  0.48043500  0.96086900  0.32977800  1
  O  O7  1  0.48043500  0.51956500  0.32977800  1
  O  O8  1  0.32025700  0.16012800  0.10557100  1
  O  O9  1  0.67974300  0.83987200  0.60557100  1
  O  O10  1  0.51956500  0.48043500  0.82977800  1
  O  O11  1  0.51956500  0.03913100  0.82977800  1
  O  O12  1  0.66666700  0.33333300  0.60046400  1
  O  O13  1  0.83987200  0.67974300  0.10557100  1
  O  O14  1  0.96086900  0.48043500  0.82977800  1
  O  O15  1  0.83987200  0.16012800  0.10557100  1
loop_
_geom_bond_atom_site_label_1
_geom_bond_atom_site_label_2
_geom_bond_distance
_geom_bond_site_symmetry_2
Fe0 O9 1.947656 1_555
Fe0 O5 1.947656 1_555
Fe0 O0 1.947656 1_555
Fe0 O1 2.056606 1_555
Fe0 O6 2.056606 1_555
Fe0 O7 2.056613 1_555
Fe1 O13 1.947656 1_556
Fe1 O8 1.947656 1_556
Fe1 O15 1.947656 1_556
Fe1 O11 2.056606 1_555
Fe1 O14 2.056606 1_555
Fe1 O10 2.056613 1_555
Co0 O6 1.852492 1_555
Co0 O1 1.852492 1_555
Co0 O13 1.856478 1_455
Co0 O8 1.856478 1_565
Co0 O3 1.889059 1_565
Co0 O2 1.892040 1_555
Co1 O1 1.852488 1_555
Co1 O7 1.852491 1_555
Co1 O15 1.856478 1_455
Co1 O8 1.856482 1_555
Co1 O3 1.889059 1_555
Co1 O2 1.892044 1_555
Co2 O6 1.852488 1_555
Co2 O7 1.852491 1_555
Co2 O15 1.856478 1_565
Co2 O13 1.856482 1_555
Co2 O3 1.889059 1_665
Co2 O2 1.892044 1_555
Co3 O11 1.852488 1_555
Co3 O10 1.852491 1_555
Co3 O0 1.856478 1_545
Co3 O5 1.856482 1_555
Co3 O4 1.889059 1_555
Co3 O12 1.892044 1_555
Co4 O14 1.852488 1_555
Co4 O10 1.852491 1_555
Co4 O0 1.856478 1_655
Co4 O9 1.856482 1_555
Co4 O4 1.889059 1_665
Co4 O12 1.892044 1_555
Co5 O14 1.852492 1_555
Co5 O11 1.852492 1_555
Co5 O9 1.856478 1_545
Co5 O5 1.856478 1_655
Co5 O4 1.889059 1_655
Co5 O12 1.892040 1_555
