# generated using pymatgen
data_Ga2WO6
_symmetry_space_group_name_H-M   'P 1'
_cell_length_a   4.65269700
_cell_length_b   4.65269700
_cell_length_c   9.03835200
_cell_angle_alpha   90.00000000
_cell_angle_beta   90.00000000
_cell_angle_gamma   90.00000000
_symmetry_Int_Tables_number   1
_chemical_formula_structural   Ga2WO6
_chemical_formula_sum   'Ga4 W2 O12'
_cell_volume   195.65853271
_cell_formula_units_Z   2
loop_
 _symmetry_equiv_pos_site_id
 _symmetry_equiv_pos_as_xyz
  1  'x, y, z'
loop_
 _atom_site_type_symbol
 _atom_site_label
 _atom_site_symmetry_multiplicity
 _atom_site_fract_x
 _atom_site_fract_y
 _atom_site_fract_z
 _atom_site_occupancy
  Ga  Ga0  1  0.50000000  0.50000000  0.33648500  1
  Ga  Ga1  1  0.50000000  0.50000000  0.66351500  1
  Ga  Ga2  1  0.00000000  0.00000000  0.16351500  1
  Ga  Ga3  1  0.00000000  0.00000000  0.83648500  1
  W  W0  1  0.50000000  0.50000000  0.00000000  1
  W  W1  1  0.00000000  0.00000000  0.50000000  1
  O  O0  1  0.69564100  0.69564100  0.16132000  1
  O  O1  1  0.69564100  0.69564100  0.83868000  1
  O  O2  1  0.70044900  0.70044900  0.50000000  1
  O  O3  1  0.79955100  0.20044900  0.00000000  1
  O  O4  1  0.80435900  0.19564100  0.33868000  1
  O  O5  1  0.80435900  0.19564100  0.66132000  1
  O  O6  1  0.19564100  0.80435900  0.33868000  1
  O  O7  1  0.19564100  0.80435900  0.66132000  1
  O  O8  1  0.20044900  0.79955100  0.00000000  1
  O  O9  1  0.29955100  0.29955100  0.50000000  1
  O  O10  1  0.30435900  0.30435900  0.16132000  1
  O  O11  1  0.30435900  0.30435900  0.83868000  1
loop_
_geom_bond_atom_site_label_1
_geom_bond_atom_site_label_2
_geom_bond_distance
_geom_bond_site_symmetry_2
Ga0 O2 1.980858 1_555
Ga0 O9 1.980858 1_555
Ga0 O4 2.002752 1_555
Ga0 O6 2.002752 1_555
Ga0 O10 2.040508 1_555
Ga0 O0 2.040508 1_555
Ga1 O2 1.980858 1_555
Ga1 O9 1.980858 1_555
Ga1 O7 2.002752 1_555
Ga1 O5 2.002752 1_555
Ga1 O1 2.040508 1_555
Ga1 O11 2.040508 1_555
Ga2 O8 1.980858 1_545
Ga2 O3 1.980858 1_455
Ga2 O0 2.002752 1_445
Ga2 O10 2.002752 1_555
Ga2 O4 2.040508 1_455
Ga2 O6 2.040508 1_545
Ga3 O8 1.980858 1_546
Ga3 O3 1.980858 1_456
Ga3 O1 2.002752 1_445
Ga3 O11 2.002752 1_555
Ga3 O7 2.040508 1_545
Ga3 O5 2.040508 1_455
O0 W0 1.945019 1_555
O1 W0 1.945019 1_556
O2 W1 1.971018 1_665
O3 W0 1.971018 1_555
O4 W1 1.945019 1_655
O5 W1 1.945019 1_655
O6 W1 1.945019 1_565
O7 W1 1.945019 1_565
O8 W0 1.971018 1_555
O9 W1 1.971018 1_555
O10 W0 1.945019 1_555
O11 W0 1.945019 1_556
