# generated using pymatgen
data_Li2TiCo2O5
_symmetry_space_group_name_H-M   'P 1'
_cell_length_a   7.85039242
_cell_length_b   7.85039242
_cell_length_c   5.15055315
_cell_angle_alpha   83.64519550
_cell_angle_beta   83.64519550
_cell_angle_gamma   141.82357044
_symmetry_Int_Tables_number   1
_chemical_formula_structural   Li2TiCo2O5
_chemical_formula_sum   'Li4 Ti2 Co4 O10'
_cell_volume   184.61427839
_cell_formula_units_Z   2
loop_
 _symmetry_equiv_pos_site_id
 _symmetry_equiv_pos_as_xyz
  1  'x, y, z'
loop_
 _atom_site_type_symbol
 _atom_site_label
 _atom_site_symmetry_multiplicity
 _atom_site_fract_x
 _atom_site_fract_y
 _atom_site_fract_z
 _atom_site_occupancy
  Li  Li0  1  0.09972800  0.90027200  0.00000000  1
  Li  Li1  1  0.49993100  0.50006900  0.00000000  1
  Li  Li2  1  0.59962400  0.40037600  0.50000000  1
  Li  Li3  1  0.79597300  0.20402700  0.50000000  1
  Ti  Ti0  1  0.69076800  0.30923200  0.00000000  1
  Ti  Ti1  1  0.99642400  0.00357600  0.50000000  1
  Co  Co0  1  0.30108300  0.69891700  0.00000000  1
  Co  Co1  1  0.19932400  0.80067600  0.50000000  1
  Co  Co2  1  0.39983000  0.60017000  0.50000000  1
  Co  Co3  1  0.90307600  0.09692400  0.00000000  1
  O  O0  1  0.14697100  0.33280200  0.25730700  1
  O  O1  1  0.03910300  0.44684800  0.75938600  1
  O  O2  1  0.35512600  0.15243200  0.24714700  1
  O  O3  1  0.55315200  0.96089700  0.24061400  1
  O  O4  1  0.66719800  0.85302900  0.74269300  1
  O  O5  1  0.23441900  0.23550600  0.72925700  1
  O  O6  1  0.46557800  0.06435100  0.77019200  1
  O  O7  1  0.76449400  0.76558100  0.27074300  1
  O  O8  1  0.93564900  0.53442200  0.22980800  1
  O  O9  1  0.84756800  0.64487400  0.75285300  1
loop_
_geom_bond_atom_site_label_1
_geom_bond_atom_site_label_2
_geom_bond_distance
_geom_bond_site_symmetry_2
Li0 O8 2.098212 1_455
Li0 O6 2.098212 1_564
Li0 O2 2.107527 1_565
Li0 O9 2.107527 1_454
Li0 O7 2.115347 1_455
Li0 O5 2.115347 1_564
Li1 O4 2.059062 1_554
Li1 O0 2.059062 1_555
Li1 O9 2.096090 1_554
Li1 O2 2.096090 1_555
Li1 O7 2.254124 1_555
Li1 O5 2.254124 1_554
Li2 O5 2.089818 1_555
Li2 O7 2.089818 1_555
Li2 O2 2.099885 1_555
Li2 O9 2.099885 1_555
Li2 O8 2.121666 1_555
Li2 O6 2.121666 1_555
Li3 O6 2.063517 1_555
Li3 O8 2.063517 1_555
Li3 O3 2.114122 1_545
Li3 O1 2.114122 1_655
Li3 O0 2.180670 1_655
Li3 O4 2.180670 1_545
Co0 O6 2.093813 1_564
Co0 O8 2.093813 1_455
Co0 O3 2.095226 1_555
Co0 O1 2.095226 1_554
Co0 O0 2.194451 1_555
Co0 O4 2.194451 1_554
Co1 O2 2.087722 1_565
Co1 O9 2.087722 1_455
Co1 O3 2.096662 1_555
Co1 O1 2.096662 1_555
Co1 O6 2.251555 1_565
Co1 O8 2.251555 1_455
Co2 O5 2.084116 1_555
Co2 O7 2.084116 1_555
Co2 O4 2.118468 1_555
Co2 O0 2.118468 1_555
Co2 O1 2.168069 1_555
Co2 O3 2.168069 1_555
Co3 O7 2.075148 1_545
Co3 O5 2.075148 1_654
Co3 O0 2.093311 1_655
Co3 O4 2.093311 1_544
Co3 O1 2.136297 1_654
Co3 O3 2.136297 1_545
O0 Ti1 1.947957 1_455
O1 Ti0 2.118842 1_456
O2 Ti0 1.972219 1_555
O2 Ti1 2.160752 1_455
O3 Ti0 2.118842 1_565
O4 Ti1 1.947957 1_565
O5 Ti1 1.953477 1_455
O6 Ti0 1.961025 1_556
O7 Ti1 1.953477 1_565
O8 Ti0 1.961025 1_555
O9 Ti0 1.972219 1_556
O9 Ti1 2.160752 1_565
