# generated using pymatgen
data_V4OF11
_symmetry_space_group_name_H-M   'P 1'
_cell_length_a   5.04899799
_cell_length_b   7.25827473
_cell_length_c   5.34888711
_cell_angle_alpha   94.52135538
_cell_angle_beta   89.97478461
_cell_angle_gamma   89.86696606
_symmetry_Int_Tables_number   1
_chemical_formula_structural   V4OF11
_chemical_formula_sum   'V4 O1 F11'
_cell_volume   195.41016629
_cell_formula_units_Z   1
loop_
 _symmetry_equiv_pos_site_id
 _symmetry_equiv_pos_as_xyz
  1  'x, y, z'
loop_
 _atom_site_type_symbol
 _atom_site_label
 _atom_site_symmetry_multiplicity
 _atom_site_fract_x
 _atom_site_fract_y
 _atom_site_fract_z
 _atom_site_occupancy
  V  V0  1  0.50987486  0.48333139  0.49897334  1
  V  V1  1  0.50439671  0.00936622  0.49976010  1
  V  V2  1  0.00114707  0.50130912  0.99884046  1
  V  V3  1  -0.00117995  -0.00057530  0.00013409  1
  O  O0  1  0.59076158  0.25120194  0.50366264  1
  F  F0  1  0.87568081  0.25007380  0.00153219  1
  F  F1  1  0.81578288  0.55936885  0.31297367  1
  F  F2  1  0.81181769  0.94295320  0.68190366  1
  F  F3  1  0.68895447  0.93853583  0.18178962  1
  F  F4  1  0.68876840  0.56227881  0.80946415  1
  F  F5  1  0.39981580  0.74828503  0.50130937  1
  F  F6  1  0.31477138  0.44327936  0.18692151  1
  F  F7  1  0.30817959  0.05969531  0.81923198  1
  F  F8  1  0.18418981  0.05301916  0.31948016  1
  F  F9  1  0.18261659  0.44649704  0.68418433  1
  F  F10  1  0.12441932  0.75138023  0.99983873  1
loop_
_geom_bond_atom_site_label_1
_geom_bond_atom_site_label_2
_geom_bond_distance
_geom_bond_site_symmetry_2
O0 V0 1.734833 1_555
O0 V1 1.808170 1_555
F0 V3 1.920672 1_655
F0 V2 1.932945 1_654
F1 V2 1.939571 1_654
F1 V0 1.941429 1_555
F2 V1 1.913814 1_565
F2 V3 1.962166 1_666
F3 V3 1.912250 1_665
F3 V1 1.970741 1_565
F4 V0 1.938055 1_555
F4 V2 1.943787 1_655
F5 V1 1.969016 1_565
F5 V0 1.999631 1_555
F6 V2 1.939597 1_554
F6 V0 1.940917 1_555
F7 V3 1.906818 1_556
F7 V1 1.983282 1_555
F8 V1 1.921255 1_555
F8 V3 1.960457 1_555
F9 V2 1.929208 1_555
F9 V0 1.955879 1_555
F10 V3 1.907288 1_566
F10 V2 1.919809 1_555
