# generated using pymatgen
data_BaTi8O16
_symmetry_space_group_name_H-M   'P 1'
_cell_length_a   10.47242178
_cell_length_b   10.47242178
_cell_length_c   14.32088778
_cell_angle_alpha   48.75949055
_cell_angle_beta   48.75949055
_cell_angle_gamma   33.05080486
_symmetry_Int_Tables_number   1
_chemical_formula_structural   BaTi8O16
_chemical_formula_sum   'Ba2 Ti16 O32'
_cell_volume   621.93039094
_cell_formula_units_Z   2
loop_
 _symmetry_equiv_pos_site_id
 _symmetry_equiv_pos_as_xyz
  1  'x, y, z'
loop_
 _atom_site_type_symbol
 _atom_site_label
 _atom_site_symmetry_multiplicity
 _atom_site_fract_x
 _atom_site_fract_y
 _atom_site_fract_z
 _atom_site_occupancy
  Ba  Ba0  1  0.98065400  0.01934600  0.50000000  1
  Ba  Ba1  1  0.72933700  0.27066300  0.00000000  1
  Ti  Ti0  1  0.33804300  0.84075200  0.67059200  1
  Ti  Ti1  1  0.84401800  0.34142700  0.65942500  1
  Ti  Ti2  1  0.41174000  0.41018200  0.82808300  1
  Ti  Ti3  1  0.90630700  0.90851800  0.84159700  1
  Ti  Ti4  1  0.48423900  0.98183300  0.85576600  1
  Ti  Ti5  1  0.99267800  0.49429500  0.85041300  1
  Ti  Ti6  1  0.73232000  0.73409500  0.35529700  1
  Ti  Ti7  1  0.24423400  0.24182400  0.35094500  1
  Ti  Ti8  1  0.75817600  0.75576600  0.64905500  1
  Ti  Ti9  1  0.26590500  0.26768000  0.64470300  1
  Ti  Ti10  1  0.01816700  0.51576100  0.14423400  1
  Ti  Ti11  1  0.50570500  0.00732200  0.14958700  1
  Ti  Ti12  1  0.09148200  0.09369300  0.15840300  1
  Ti  Ti13  1  0.58981800  0.58826000  0.17191700  1
  Ti  Ti14  1  0.15924800  0.66195700  0.32940800  1
  Ti  Ti15  1  0.65857300  0.15598200  0.34057500  1
  O  O0  1  0.53193500  0.52464000  0.79316000  1
  O  O1  1  0.02208300  0.03275800  0.79571500  1
  O  O2  1  0.11373300  0.60292300  0.95887100  1
  O  O3  1  0.60738000  0.11561100  0.96030800  1
  O  O4  1  0.14175700  0.13505800  0.53965800  1
  O  O5  1  0.63721100  0.64596400  0.54109600  1
  O  O6  1  0.72678000  0.21810800  0.70415300  1
  O  O7  1  0.21749200  0.72593700  0.70721000  1
  O  O8  1  0.31104200  0.29982600  0.84839900  1
  O  O9  1  0.80385600  0.81258800  0.84379700  1
  O  O10  1  0.05090100  0.56037600  0.34799100  1
  O  O11  1  0.56296100  0.05301900  0.34405500  1
  O  O12  1  0.17513600  0.18254900  0.84002600  1
  O  O13  1  0.68112600  0.67164200  0.84110600  1
  O  O14  1  0.93244400  0.42414900  0.34039600  1
  O  O15  1  0.42157100  0.93170800  0.34082500  1
  O  O16  1  0.57585100  0.06755600  0.65960400  1
  O  O17  1  0.06829200  0.57842900  0.65917500  1
  O  O18  1  0.32835800  0.31887400  0.15889400  1
  O  O19  1  0.81745100  0.82486400  0.15997400  1
  O  O20  1  0.43962400  0.94909900  0.65200900  1
  O  O21  1  0.94698100  0.43703900  0.65594500  1
  O  O22  1  0.18741200  0.19614400  0.15620300  1
  O  O23  1  0.70017400  0.68895800  0.15160100  1
  O  O24  1  0.27406300  0.78250800  0.29279000  1
  O  O25  1  0.78189200  0.27322000  0.29584700  1
  O  O26  1  0.86494200  0.85824300  0.46034200  1
  O  O27  1  0.35403600  0.36278900  0.45890400  1
  O  O28  1  0.88438900  0.39262000  0.03969200  1
  O  O29  1  0.39707700  0.88626700  0.04112900  1
  O  O30  1  0.96724200  0.97791700  0.20428500  1
  O  O31  1  0.47536000  0.46806500  0.20684000  1
loop_
_geom_bond_atom_site_label_1
_geom_bond_atom_site_label_2
_geom_bond_distance
_geom_bond_site_symmetry_2
Ba0 O25 2.906386 1_555
Ba0 O6 2.906386 1_555
Ba0 O16 2.934101 1_555
Ba0 O14 2.934101 1_555
Ba0 O15 3.022625 1_645
Ba0 O17 3.022625 1_645
Ba0 O7 3.050439 1_645
Ba0 O24 3.050439 1_645
Ba0 O4 3.199276 1_655
Ba0 O26 3.199276 1_545
Ba1 O13 2.903223 1_554
Ba1 O18 2.903223 1_555
Ba1 O0 2.931012 1_554
Ba1 O31 2.931012 1_555
Ba1 O1 3.024121 1_654
Ba1 O30 3.024121 1_545
Ba1 O19 3.059353 1_545
Ba1 O12 3.059353 1_654
Ba1 O3 3.200246 1_554
Ba1 O28 3.200246 1_555
O0 Ti0 1.983071 1_555
O0 Ti1 2.027547 1_555
O0 Ti2 2.044557 1_555
O1 Ti0 1.995578 1_545
O1 Ti3 2.015349 1_445
O1 Ti1 2.027646 1_455
O2 Ti10 1.927574 1_556
O2 Ti3 1.962375 1_455
O2 Ti2 2.009908 1_555
O3 Ti3 1.963833 1_545
O3 Ti11 1.983285 1_556
O3 Ti2 2.029260 1_555
O4 Ti1 1.968348 1_455
O4 Ti7 1.977183 1_555
O4 Ti0 2.020468 1_545
O5 Ti6 1.932061 1_555
O5 Ti1 1.966666 1_555
O5 Ti0 2.007398 1_555
O6 Ti2 1.985594 1_555
O6 Ti1 2.028810 1_555
O6 Ti3 2.041434 1_545
O7 Ti2 1.971908 1_555
O7 Ti3 2.029020 1_455
O7 Ti0 2.038395 1_555
O8 Ti2 1.930697 1_555
O8 Ti5 1.957641 1_455
O8 Ti4 2.013538 1_545
O9 Ti5 1.952211 1_555
O9 Ti3 1.970279 1_555
O9 Ti4 2.018238 1_555
O10 Ti14 1.934431 1_555
O10 Ti7 1.958097 1_555
O10 Ti6 2.016784 1_455
O11 Ti7 1.954431 1_555
O11 Ti15 1.959850 1_555
O11 Ti6 2.015891 1_545
O12 Ti4 1.969407 1_545
O12 Ti5 2.034626 1_455
O12 Ti9 2.037113 1_555
O13 Ti4 1.986977 1_555
O13 Ti8 2.015620 1_555
O13 Ti5 2.049658 1_555
O14 Ti6 1.973163 1_555
O14 Ti7 2.036847 1_655
O14 Ti10 2.045353 1_655
O15 Ti6 1.987460 1_555
O15 Ti11 2.008164 1_565
O15 Ti7 2.042585 1_565
O16 Ti9 1.973163 1_555
O16 Ti8 2.036847 1_545
O16 Ti4 2.045353 1_545
O17 Ti9 1.987460 1_555
O17 Ti5 2.008164 1_455
O17 Ti8 2.042585 1_455
O18 Ti10 1.986977 1_555
O18 Ti7 2.015620 1_555
O18 Ti11 2.049658 1_555
O19 Ti10 1.969407 1_655
O19 Ti11 2.034626 1_565
O19 Ti6 2.037113 1_555
O20 Ti0 1.934431 1_555
O20 Ti8 1.958097 1_555
O20 Ti9 2.016784 1_565
O21 Ti8 1.954431 1_555
O21 Ti1 1.959850 1_555
O21 Ti9 2.015891 1_655
O22 Ti11 1.952211 1_555
O22 Ti12 1.970279 1_555
O22 Ti10 2.018238 1_555
O23 Ti13 1.930697 1_555
O23 Ti11 1.957641 1_565
O23 Ti10 2.013538 1_655
O24 Ti13 1.971908 1_555
O24 Ti12 2.029020 1_565
O24 Ti14 2.038395 1_555
O25 Ti13 1.985594 1_555
O25 Ti15 2.028810 1_555
O25 Ti12 2.041434 1_655
O26 Ti15 1.968348 1_565
O26 Ti8 1.977183 1_555
O26 Ti14 2.020468 1_655
O27 Ti9 1.932061 1_555
O27 Ti15 1.966666 1_555
O27 Ti14 2.007398 1_555
O28 Ti12 1.963833 1_655
O28 Ti5 1.983285 1_554
O28 Ti13 2.029260 1_555
O29 Ti4 1.927574 1_554
O29 Ti12 1.962375 1_565
O29 Ti13 2.009908 1_555
O30 Ti14 1.995578 1_655
O30 Ti12 2.015349 1_665
O30 Ti15 2.027646 1_565
O31 Ti14 1.983071 1_555
O31 Ti15 2.027547 1_555
O31 Ti13 2.044557 1_555
