# generated using pymatgen
data_Fe4O3F5
_symmetry_space_group_name_H-M   'P 1'
_cell_length_a   4.82158800
_cell_length_b   6.15176186
_cell_length_c   9.66321091
_cell_angle_alpha   90.10699611
_cell_angle_beta   90.70595666
_cell_angle_gamma   90.14559221
_symmetry_Int_Tables_number   1
_chemical_formula_structural   Fe4O3F5
_chemical_formula_sum   'Fe8 O6 F10'
_cell_volume   286.59982429
_cell_formula_units_Z   2
loop_
 _symmetry_equiv_pos_site_id
 _symmetry_equiv_pos_as_xyz
  1  'x, y, z'
loop_
 _atom_site_type_symbol
 _atom_site_label
 _atom_site_symmetry_multiplicity
 _atom_site_fract_x
 _atom_site_fract_y
 _atom_site_fract_z
 _atom_site_occupancy
  Fe  Fe0  1  0.00837200  0.00026800  0.00572500  1
  Fe  Fe1  1  0.95935000  0.49988400  0.98330700  1
  Fe  Fe2  1  0.00807700  0.99960800  0.50299500  1
  Fe  Fe3  1  0.98536300  0.49950300  0.49002600  1
  Fe  Fe4  1  0.45974600  0.75131500  0.76260400  1
  Fe  Fe5  1  0.49598100  0.24739200  0.74417400  1
  Fe  Fe6  1  0.52819000  0.75102500  0.26740200  1
  Fe  Fe7  1  0.55951300  0.25010200  0.24893300  1
  O  O0  1  0.82160200  0.24642800  0.08724600  1
  O  O1  1  0.66659000  0.49658600  0.84355900  1
  O  O2  1  0.70676700  0.99932100  0.34195500  1
  O  O3  1  0.69936100  0.50167900  0.33947700  1
  O  O4  1  0.31453900  0.00247400  0.66486100  1
  O  O5  1  0.17149000  0.75240000  0.90994400  1
  F  F0  1  0.78613700  0.74701200  0.60961600  1
  F  F1  1  0.80219700  0.25331600  0.60732300  1
  F  F2  1  0.79343100  0.75253800  0.09684900  1
  F  F3  1  0.69311500  0.00075900  0.85621600  1
  F  F4  1  0.29212500  0.49785800  0.65024500  1
  F  F5  1  0.31303000  0.99791900  0.15012500  1
  F  F6  1  0.31035400  0.50388300  0.14869800  1
  F  F7  1  0.22213900  0.25085400  0.39383200  1
  F  F8  1  0.19399600  0.24933700  0.89861900  1
  F  F9  1  0.20853400  0.74854000  0.39626700  1
loop_
_geom_bond_atom_site_label_1
_geom_bond_atom_site_label_2
_geom_bond_distance
_geom_bond_site_symmetry_2
Fe0 O0 1.935103 1_455
Fe0 O5 1.954242 1_544
Fe1 O1 1.941477 1_555
Fe1 O0 1.974344 1_556
Fe1 O5 1.993944 1_655
Fe2 O2 2.115779 1_455
Fe2 O4 2.138475 1_565
Fe3 O3 1.992213 1_555
Fe4 O4 1.940149 1_565
Fe4 O5 2.001911 1_555
Fe4 O1 2.013826 1_555
Fe5 O4 1.896123 1_555
Fe5 O1 1.979310 1_555
Fe6 O3 1.874936 1_555
Fe6 O2 1.888761 1_555
Fe7 O3 1.894860 1_555
Fe7 O2 1.920204 1_545
Fe7 O0 2.021687 1_555
F0 Fe3 2.145872 1_555
F0 Fe2 2.155453 1_655
F0 Fe4 2.172610 1_555
F1 Fe5 1.994502 1_555
F1 Fe3 2.093476 1_555
F1 Fe2 2.112900 1_645
F2 Fe0 2.047286 1_665
F2 Fe1 2.069087 1_554
F2 Fe6 2.098514 1_555
F3 Fe0 2.084159 1_656
F3 Fe5 2.089436 1_555
F3 Fe4 2.097640 1_545
F4 Fe5 2.038375 1_555
F4 Fe4 2.056408 1_555
F4 Fe3 2.128028 1_455
F5 Fe0 2.013630 1_565
F5 Fe6 2.157047 1_555
F5 Fe7 2.165161 1_565
F6 Fe6 2.164737 1_555
F6 Fe7 2.192087 1_555
F6 Fe1 2.313454 1_454
F7 Fe3 2.129992 1_455
F7 Fe2 2.142829 1_545
F7 Fe7 2.159346 1_555
F8 Fe0 2.059535 1_556
F8 Fe1 2.086214 1_455
F8 Fe5 2.097891 1_555
F9 Fe6 1.993383 1_555
F9 Fe3 2.084855 1_455
F9 Fe2 2.099888 1_555
