# generated using pymatgen
data_Na6Fe2B4AsO16
_symmetry_space_group_name_H-M   'P 1'
_cell_length_a   10.06416031
_cell_length_b   10.06416031
_cell_length_c   10.06416031
_cell_angle_alpha   60.00000000
_cell_angle_beta   60.00000000
_cell_angle_gamma   60.00000000
_symmetry_Int_Tables_number   1
_chemical_formula_structural   Na6Fe2B4AsO16
_chemical_formula_sum   'Na12 Fe4 B8 As2 O32'
_cell_volume   720.80474949
_cell_formula_units_Z   2
loop_
 _symmetry_equiv_pos_site_id
 _symmetry_equiv_pos_as_xyz
  1  'x, y, z'
loop_
 _atom_site_type_symbol
 _atom_site_label
 _atom_site_symmetry_multiplicity
 _atom_site_fract_x
 _atom_site_fract_y
 _atom_site_fract_z
 _atom_site_occupancy
  Na  Na0  1  0.28490500  0.28490500  0.71509500  1
  Na  Na1  1  0.96509500  0.53490500  0.53490500  1
  Na  Na2  1  0.71509500  0.28490500  0.71509500  1
  Na  Na3  1  0.28490500  0.71509500  0.28490500  1
  Na  Na4  1  0.53490500  0.53490500  0.96509500  1
  Na  Na5  1  0.53490500  0.96509500  0.96509500  1
  Na  Na6  1  0.71509500  0.28490500  0.28490500  1
  Na  Na7  1  0.71509500  0.71509500  0.28490500  1
  Na  Na8  1  0.53490500  0.96509500  0.53490500  1
  Na  Na9  1  0.96509500  0.53490500  0.96509500  1
  Na  Na10  1  0.28490500  0.71509500  0.71509500  1
  Na  Na11  1  0.96509500  0.96509500  0.53490500  1
  Fe  Fe0  1  0.62500000  0.12500000  0.12500000  1
  Fe  Fe1  1  0.12500000  0.12500000  0.12500000  1
  Fe  Fe2  1  0.12500000  0.12500000  0.62500000  1
  Fe  Fe3  1  0.12500000  0.62500000  0.12500000  1
  B  B0  1  0.26040200  0.91319900  0.91319900  1
  B  B1  1  0.91319900  0.26040200  0.91319900  1
  B  B2  1  0.91319900  0.91319900  0.91319900  1
  B  B3  1  0.91319900  0.91319900  0.26040200  1
  B  B4  1  0.33680100  0.33680100  0.98959800  1
  B  B5  1  0.33680100  0.98959800  0.33680100  1
  B  B6  1  0.33680100  0.33680100  0.33680100  1
  B  B7  1  0.98959800  0.33680100  0.33680100  1
  As  As0  1  0.50000000  0.50000000  0.50000000  1
  As  As1  1  0.75000000  0.75000000  0.75000000  1
  O  O0  1  0.21841000  0.48773700  0.30830800  1
  O  O1  1  0.98554600  0.30830800  0.48773700  1
  O  O2  1  0.26445400  0.03159000  0.94169200  1
  O  O3  1  0.03159000  0.26445400  0.76226300  1
  O  O4  1  0.26445400  0.76226300  0.03159000  1
  O  O5  1  0.57012600  0.57012600  0.28962200  1
  O  O6  1  0.94169200  0.03159000  0.76226300  1
  O  O7  1  0.57012600  0.28962200  0.57012600  1
  O  O8  1  0.57012600  0.57012600  0.57012600  1
  O  O9  1  0.94169200  0.26445400  0.03159000  1
  O  O10  1  0.76226300  0.26445400  0.94169200  1
  O  O11  1  0.28962200  0.57012600  0.57012600  1
  O  O12  1  0.03159000  0.94169200  0.26445400  1
  O  O13  1  0.76226300  0.94169200  0.03159000  1
  O  O14  1  0.94169200  0.76226300  0.26445400  1
  O  O15  1  0.48773700  0.21841000  0.98554600  1
  O  O16  1  0.76226300  0.03159000  0.26445400  1
  O  O17  1  0.30830800  0.48773700  0.98554600  1
  O  O18  1  0.48773700  0.30830800  0.21841000  1
  O  O19  1  0.21841000  0.30830800  0.98554600  1
  O  O20  1  0.96037800  0.67987400  0.67987400  1
  O  O21  1  0.48773700  0.98554600  0.30830800  1
  O  O22  1  0.30830800  0.98554600  0.21841000  1
  O  O23  1  0.67987400  0.96037800  0.67987400  1
  O  O24  1  0.67987400  0.67987400  0.67987400  1
  O  O25  1  0.30830800  0.21841000  0.48773700  1
  O  O26  1  0.67987400  0.67987400  0.96037800  1
  O  O27  1  0.98554600  0.48773700  0.21841000  1
  O  O28  1  0.21841000  0.98554600  0.48773700  1
  O  O29  1  0.98554600  0.21841000  0.30830800  1
  O  O30  1  0.26445400  0.94169200  0.76226300  1
  O  O31  1  0.03159000  0.76226300  0.94169200  1
loop_
_geom_bond_atom_site_label_1
_geom_bond_atom_site_label_2
_geom_bond_distance
_geom_bond_site_symmetry_2
Na0 O2 2.446211 1_555
Na0 O3 2.446214 1_555
Na0 O7 2.499939 1_555
Na0 O11 2.499939 1_555
Na0 O25 2.563934 1_555
Na0 O19 2.563944 1_555
Na1 O1 2.446204 1_555
Na1 O0 2.446209 1_655
Na1 O24 2.499939 1_555
Na1 O20 2.499939 1_555
Na1 O3 2.563939 1_655
Na1 O14 2.563941 1_555
Na2 O10 2.446204 1_555
Na2 O6 2.446209 1_555
Na2 O7 2.499939 1_555
Na2 O8 2.499939 1_555
Na2 O15 2.563939 1_555
Na2 O1 2.563941 1_555
Na3 O12 2.446211 1_555
Na3 O4 2.446214 1_555
Na3 O5 2.499939 1_555
Na3 O11 2.499939 1_555
Na3 O0 2.563934 1_555
Na3 O22 2.563944 1_555
Na4 O17 2.446204 1_555
Na4 O18 2.446209 1_556
Na4 O24 2.499939 1_555
Na4 O26 2.499939 1_555
Na4 O4 2.563939 1_556
Na4 O10 2.563941 1_555
Na5 O22 2.446211 1_556
Na5 O15 2.446214 1_565
Na5 O23 2.499939 1_555
Na5 O26 2.499939 1_555
Na5 O13 2.563934 1_556
Na5 O2 2.563944 1_565
Na6 O9 2.446211 1_555
Na6 O16 2.446214 1_555
Na6 O5 2.499939 1_555
Na6 O7 2.499939 1_555
Na6 O18 2.563934 1_555
Na6 O29 2.563944 1_555
Na7 O14 2.446204 1_555
Na7 O13 2.446209 1_555
Na7 O5 2.499939 1_555
Na7 O8 2.499939 1_555
Na7 O27 2.563939 1_555
Na7 O21 2.563941 1_555
Na8 O21 2.446204 1_555
Na8 O25 2.446209 1_565
Na8 O24 2.499939 1_555
Na8 O23 2.499939 1_555
Na8 O16 2.563939 1_565
Na8 O30 2.563941 1_555
Na9 O19 2.446211 1_655
Na9 O27 2.446214 1_556
Na9 O26 2.499939 1_555
Na9 O20 2.499939 1_555
Na9 O31 2.563934 1_655
Na9 O9 2.563944 1_556
Na10 O30 2.446204 1_555
Na10 O31 2.446209 1_555
Na10 O11 2.499939 1_555
Na10 O8 2.499939 1_555
Na10 O28 2.563939 1_555
Na10 O17 2.563941 1_555
Na11 O29 2.446211 1_565
Na11 O28 2.446214 1_655
Na11 O23 2.499939 1_555
Na11 O20 2.499939 1_555
Na11 O6 2.563934 1_565
Na11 O12 2.563944 1_655
Fe0 O16 2.020560 1_555
Fe0 O15 2.020560 1_554
Fe0 O10 2.020562 1_554
Fe0 O21 2.020562 1_545
Fe0 O18 2.020568 1_555
Fe0 O13 2.020568 1_545
Fe1 O22 2.020568 1_545
Fe1 O29 2.020568 1_455
Fe1 O19 2.020568 1_554
Fe1 O12 2.020568 1_545
Fe1 O9 2.020568 1_455
Fe1 O2 2.020568 1_554
Fe2 O3 2.020560 1_555
Fe2 O28 2.020560 1_545
Fe2 O30 2.020562 1_545
Fe2 O1 2.020562 1_455
Fe2 O25 2.020568 1_555
Fe2 O6 2.020568 1_455
Fe3 O4 2.020560 1_555
Fe3 O27 2.020560 1_455
Fe3 O14 2.020562 1_455
Fe3 O17 2.020562 1_554
Fe3 O0 2.020568 1_555
Fe3 O31 2.020568 1_554
B0 O2 1.380412 1_565
B0 O4 1.380412 1_556
B0 O30 1.380412 1_555
B1 O9 1.380412 1_556
B1 O3 1.380412 1_655
B1 O10 1.380412 1_555
B2 O6 1.380412 1_565
B2 O13 1.380412 1_556
B2 O31 1.380412 1_655
B3 O12 1.380412 1_655
B3 O16 1.380412 1_565
B3 O14 1.380412 1_555
B4 O19 1.380412 1_555
B4 O15 1.380412 1_555
B4 O17 1.380412 1_555
B5 O22 1.380412 1_555
B5 O28 1.380412 1_555
B5 O21 1.380412 1_555
B6 O18 1.380412 1_555
B6 O25 1.380412 1_555
B6 O0 1.380412 1_555
B7 O29 1.380412 1_555
B7 O27 1.380412 1_555
B7 O1 1.380412 1_555
As0 O11 1.728750 1_555
As0 O7 1.728750 1_555
As0 O5 1.728750 1_555
As0 O8 1.728750 1_555
As1 O23 1.728750 1_555
As1 O26 1.728750 1_555
As1 O20 1.728750 1_555
As1 O24 1.728750 1_555
