# generated using pymatgen
data_Li6V3P8O29
_symmetry_space_group_name_H-M   'P 1'
_cell_length_a   9.79020900
_cell_length_b   9.81570223
_cell_length_c   13.94560216
_cell_angle_alpha   89.94983632
_cell_angle_beta   89.94967063
_cell_angle_gamma   60.11899455
_symmetry_Int_Tables_number   1
_chemical_formula_structural   Li6V3P8O29
_chemical_formula_sum   'Li12 V6 P16 O58'
_cell_volume   1161.98499307
_cell_formula_units_Z   2
loop_
 _symmetry_equiv_pos_site_id
 _symmetry_equiv_pos_as_xyz
  1  'x, y, z'
loop_
 _atom_site_type_symbol
 _atom_site_label
 _atom_site_symmetry_multiplicity
 _atom_site_fract_x
 _atom_site_fract_y
 _atom_site_fract_z
 _atom_site_occupancy
  Li  Li0  1  0.09626200  0.67820200  0.94258500  1
  Li  Li1  1  0.23287900  0.66326600  0.43672700  1
  Li  Li2  1  0.09767000  0.23467700  0.43836200  1
  Li  Li3  1  0.22433700  0.08449200  0.94243000  1
  Li  Li4  1  0.68242800  0.22483400  0.94224200  1
  Li  Li5  1  0.33297100  0.90194000  0.55770000  1
  Li  Li6  1  0.66272600  0.09618400  0.43838200  1
  Li  Li7  1  0.78019500  0.90877100  0.06236900  1
  Li  Li8  1  0.66032300  0.66855400  0.88858800  1
  Li  Li9  1  0.76139500  0.33334100  0.55908700  1
  Li  Li10  1  0.91785100  0.30700900  0.06220100  1
  Li  Li11  1  0.98551800  0.96903100  0.50028200  1
  V  V0  1  0.43500100  0.00057600  0.74809600  1
  V  V1  1  0.56581300  0.00068700  0.24808700  1
  V  V2  1  0.43113200  0.56927100  0.24830000  1
  V  V3  1  0.56298100  0.43829100  0.75133600  1
  V  V4  1  0.99968000  0.56975200  0.74524700  1
  V  V5  1  0.00196400  0.43778400  0.25309000  1
  P  P0  1  0.09001800  0.68029800  0.15735700  1
  P  P1  1  0.22923700  0.68693900  0.65638000  1
  P  P2  1  0.08448700  0.22858600  0.65686100  1
  P  P3  1  0.33365300  0.33258700  0.87050500  1
  P  P4  1  0.33325600  0.33415800  0.37238000  1
  P  P5  1  0.22943400  0.08830000  0.15775000  1
  P  P6  1  0.31434900  0.91293500  0.34177700  1
  P  P7  1  0.67873200  0.23284100  0.15805400  1
  P  P8  1  0.31492600  0.77398500  0.84224800  1
  P  P9  1  0.68774300  0.08785500  0.65555200  1
  P  P10  1  0.77164800  0.90860300  0.84014600  1
  P  P11  1  0.66375000  0.66804900  0.62955600  1
  P  P12  1  0.67074400  0.66532900  0.12937700  1
  P  P13  1  0.91444700  0.77959900  0.34025500  1
  P  P14  1  0.77057300  0.31428400  0.34229100  1
  P  P15  1  0.91091100  0.32177900  0.84283100  1
  O  O0  1  0.00551500  0.79649700  0.42167000  1
  O  O1  1  0.08703300  0.66026600  0.66336400  1
  O  O2  1  0.23164300  0.75570800  0.92558300  1
  O  O3  1  0.25544300  0.66189000  0.16355900  1
  O  O4  1  0.10328700  0.51996300  0.17651600  1
  O  O5  1  0.18588400  0.48120700  0.83073100  1
  O  O6  1  0.09059500  0.38007100  0.67171900  1
  O  O7  1  0.00610200  0.24495700  0.93145400  1
  O  O8  1  0.08335100  0.25344000  0.16095000  1
  O  O9  1  0.32065600  0.49068600  0.33408200  1
  O  O10  1  0.38334000  0.53030400  0.66780000  1
  O  O11  1  0.18636200  0.32384200  0.33018200  1
  O  O12  1  0.33999100  0.32192600  0.97718300  1
  O  O13  1  0.32499700  0.33441300  0.47984500  1
  O  O14  1  0.33846300  0.18123000  0.82509700  1
  O  O15  1  0.51785800  0.37626200  0.17709400  1
  O  O16  1  0.48450100  0.33410900  0.82933400  1
  O  O17  1  0.24949000  0.08204900  0.65686500  1
  O  O18  1  0.20795900  0.99857500  0.24883500  1
  O  O19  1  0.22283900  0.00143500  0.43070600  1
  O  O20  1  0.24461700  0.00271800  0.06697500  1
  O  O21  1  0.38107200  0.09809300  0.17988800  1
  O  O22  1  0.48764300  0.19057600  0.33309500  1
  O  O23  1  0.33271700  0.92161900  0.84443800  1
  O  O24  1  0.53136900  0.08767900  0.66693700  1
  O  O25  1  0.66460800  0.25485000  0.66252500  1
  O  O26  1  0.21400300  0.79787000  0.74469100  1
  O  O27  1  0.22169900  0.77464900  0.56515500  1
  O  O28  1  0.77116900  0.22326600  0.43070300  1
  O  O29  1  0.33492200  0.74629800  0.34178900  1
  O  O30  1  0.47139100  0.90876900  0.32985600  1
  O  O31  1  0.66715600  0.08125300  0.15676600  1
  O  O32  1  0.50664800  0.81469500  0.67002700  1
  O  O33  1  0.62804600  0.88385500  0.82439300  1
  O  O34  1  0.75303200  0.00187200  0.92985600  1
  O  O35  1  0.77687000  0.01041300  0.56530600  1
  O  O36  1  0.79298100  0.99609100  0.74903700  1
  O  O37  1  0.74270600  0.91966100  0.33914400  1
  O  O38  1  0.52495100  0.66820900  0.17382600  1
  O  O39  1  0.48394900  0.62995600  0.82652600  1
  O  O40  1  0.67747500  0.81464800  0.16401500  1
  O  O41  1  0.67933100  0.65554600  0.02156500  1
  O  O42  1  0.65524700  0.66342800  0.52286500  1
  O  O43  1  0.80462700  0.67736100  0.67315600  1
  O  O44  1  0.61480200  0.46940300  0.32925200  1
  O  O45  1  0.67112200  0.51412800  0.67319500  1
  O  O46  1  0.92234000  0.74513300  0.84223700  1
  O  O47  1  0.98912900  0.80044400  0.24180500  1
  O  O48  1  0.00305000  0.75292400  0.06574400  1
  O  O49  1  0.91587500  0.62283600  0.33471600  1
  O  O50  1  0.82150700  0.51552100  0.17175900  1
  O  O51  1  0.89090800  0.48682300  0.82468000  1
  O  O52  1  0.74618400  0.33806600  0.84697900  1
  O  O53  1  0.75847000  0.24531900  0.06837800  1
  O  O54  1  0.79252000  0.20876000  0.24849300  1
  O  O55  1  0.91359500  0.33894700  0.34396800  1
  O  O56  1  0.99401400  0.23072500  0.56828100  1
  O  O57  1  0.99615300  0.21171400  0.75103800  1
loop_
_geom_bond_atom_site_label_1
_geom_bond_atom_site_label_2
_geom_bond_distance
_geom_bond_site_symmetry_2
Li0 O2 1.842701 1_555
Li0 O48 1.911324 1_556
Li0 O46 2.043825 1_455
Li0 O5 2.292250 1_555
Li1 O0 1.951656 1_555
Li1 O9 2.051518 1_555
Li1 O29 2.054815 1_555
Li1 O27 2.073364 1_555
Li2 O19 1.989809 1_555
Li2 O55 2.047451 1_455
Li2 O56 2.085627 1_455
Li2 O11 2.132737 1_555
Li3 O20 1.881418 1_556
Li3 O7 1.927750 1_555
Li3 O23 1.964756 1_545
Li3 O14 2.424594 1_555
Li4 O34 1.946899 1_555
Li4 O53 1.959839 1_556
Li4 O52 2.019172 1_555
Li4 O16 2.305659 1_555
Li5 O27 2.028416 1_555
Li5 O19 2.050343 1_565
Li5 O17 2.066032 1_565
Li5 O32 2.151693 1_555
Li6 O28 2.003440 1_555
Li6 O35 2.038145 1_555
Li6 O37 2.044767 1_545
Li6 O22 2.090948 1_555
Li7 O48 1.943463 1_655
Li7 O31 1.989600 1_565
Li7 O34 2.019062 1_564
Li7 O40 2.189795 1_555
Li8 O41 1.861831 1_556
Li8 O39 2.128213 1_555
Li8 O33 2.167775 1_555
Li8 O51 2.249293 1_555
Li9 O56 1.982961 1_555
Li9 O28 2.069331 1_555
Li9 O25 2.072524 1_555
Li9 O45 2.214081 1_555
Li10 O53 1.936486 1_555
Li10 O7 1.979113 1_654
Li10 O8 1.987959 1_655
Li10 O50 2.343577 1_555
Li11 O0 1.944424 1_655
Li11 O35 2.081003 1_565
Li11 O27 2.325987 1_655
Li11 O28 2.520743 1_565
O0 P13 1.503651 1_455
O1 P1 1.542458 1_555
O1 V4 1.891632 1_455
O2 P8 1.480311 1_555
O3 P0 1.540031 1_555
O3 V2 1.903990 1_555
O4 P0 1.536465 1_555
O4 V5 1.889168 1_555
O5 P3 1.557511 1_555
O5 V4 1.980681 1_455
O6 P2 1.531872 1_555
O6 V4 1.913288 1_455
O7 P15 1.504910 1_455
O8 P5 1.537864 1_555
O8 V5 2.031213 1_555
O9 P4 1.571917 1_555
O9 V2 2.005823 1_555
O10 P1 1.534319 1_555
O10 V3 1.919636 1_555
O11 P4 1.603573 1_555
O11 V5 1.911877 1_555
O12 P3 1.490449 1_555
O13 P4 1.500710 1_555
O14 P3 1.594468 1_555
O14 V0 1.876808 1_555
O15 P7 1.524336 1_555
O15 V2 1.922294 1_555
O16 P3 1.591035 1_555
O16 V3 1.897028 1_555
O17 P2 1.537291 1_555
O17 V0 2.027767 1_555
O18 P6 1.612306 1_555
O18 P5 1.617229 1_565
O19 P6 1.523074 1_545
O20 P5 1.485739 1_555
O21 P5 1.565740 1_555
O21 V1 1.835293 1_555
O22 P4 1.564722 1_555
O22 V1 2.011501 1_555
O23 P8 1.543644 1_555
O23 V0 2.043929 1_565
O24 P9 1.539863 1_555
O24 V0 1.924128 1_555
O25 P9 1.542062 1_555
O25 V3 1.995673 1_555
O26 P1 1.601499 1_555
O26 P8 1.628849 1_555
O27 P1 1.516594 1_555
O28 P14 1.520291 1_555
O29 P6 1.545215 1_555
O29 V2 1.994340 1_555
O30 P6 1.526452 1_555
O30 V1 1.948405 1_565
O31 P7 1.547648 1_555
O31 V1 2.002365 1_555
O32 P11 1.596894 1_555
O32 V0 1.932162 1_565
O33 P10 1.557155 1_555
O33 V0 1.964823 1_565
O34 P10 1.507269 1_545
O35 P9 1.503983 1_555
O36 P10 1.603672 1_555
O36 P9 1.627299 1_565
O37 P13 1.553747 1_555
O37 V1 1.968232 1_565
O38 P12 1.542925 1_555
O38 V2 1.936696 1_555
O39 P8 1.566498 1_555
O39 V3 1.946580 1_555
O40 P12 1.575881 1_555
O40 V1 1.979072 1_565
O41 P12 1.506253 1_555
O42 P11 1.492261 1_555
O43 P11 1.551602 1_555
O43 V4 1.940298 1_555
O44 P14 1.537350 1_555
O44 V2 1.927198 1_555
O45 P11 1.596256 1_555
O45 V3 1.909014 1_555
O46 P10 1.547033 1_555
O46 V4 2.017379 1_555
O47 P0 1.610297 1_655
O47 P13 1.615002 1_555
O48 P0 1.503637 1_555
O49 P13 1.533835 1_555
O49 V5 1.944743 1_655
O50 P12 1.589843 1_555
O50 V5 1.910161 1_655
O51 P15 1.552467 1_555
O51 V4 1.970729 1_555
O52 P15 1.540358 1_555
O52 V3 2.051239 1_555
O53 P7 1.510520 1_555
O54 P14 1.615612 1_555
O54 P7 1.620849 1_555
O55 P14 1.535439 1_555
O55 V5 2.031770 1_655
O56 P2 1.514698 1_655
O57 P15 1.613848 1_555
O57 P2 1.624977 1_655
