# generated using pymatgen
data_Li4Fe3NiO8
_symmetry_space_group_name_H-M   'P 1'
_cell_length_a   5.11107300
_cell_length_b   5.54519270
_cell_length_c   6.49334075
_cell_angle_alpha   89.92431851
_cell_angle_beta   89.95394871
_cell_angle_gamma   89.86807435
_symmetry_Int_Tables_number   1
_chemical_formula_structural   Li4Fe3NiO8
_chemical_formula_sum   'Li4 Fe3 Ni1 O8'
_cell_volume   184.03280727
_cell_formula_units_Z   1
loop_
 _symmetry_equiv_pos_site_id
 _symmetry_equiv_pos_as_xyz
  1  'x, y, z'
loop_
 _atom_site_type_symbol
 _atom_site_label
 _atom_site_symmetry_multiplicity
 _atom_site_fract_x
 _atom_site_fract_y
 _atom_site_fract_z
 _atom_site_occupancy
  Li  Li0  1  0.00695200  0.08184600  0.37470100  1
  Li  Li1  1  0.50203800  0.41877200  0.87695700  1
  Li  Li2  1  0.00658800  0.58443400  0.12405100  1
  Li  Li3  1  0.50230300  0.91591100  0.62446200  1
  Fe  Fe0  1  0.99920100  0.08227500  0.87716700  1
  Fe  Fe1  1  0.50222500  0.41585400  0.37028200  1
  Fe  Fe2  1  0.00187400  0.58272400  0.62572900  1
  Ni  Ni0  1  0.50021000  0.91592500  0.12752300  1
  O  O0  1  0.62983500  0.06863100  0.89119800  1
  O  O1  1  0.60803400  0.08980000  0.35837600  1
  O  O2  1  0.10904700  0.41147300  0.86708000  1
  O  O3  1  0.12618800  0.42628300  0.38293600  1
  O  O4  1  0.62633700  0.56935100  0.61455400  1
  O  O5  1  0.60788800  0.59602100  0.13677400  1
  O  O6  1  0.10845700  0.91210900  0.63485600  1
  O  O7  1  0.13642200  0.92859100  0.11335500  1
loop_
_geom_bond_atom_site_label_1
_geom_bond_atom_site_label_2
_geom_bond_distance
_geom_bond_site_symmetry_2
Li0 O6 2.000916 1_545
Li0 O3 2.006969 1_555
Li0 O7 2.009813 1_545
Li0 O1 2.042110 1_455
Li1 O4 2.000235 1_555
Li1 O2 2.010183 1_555
Li1 O5 2.028122 1_556
Li1 O0 2.049094 1_555
Li2 O3 1.990956 1_555
Li2 O2 1.994705 1_554
Li2 O7 2.023027 1_555
Li2 O5 2.040260 1_455
Li3 O6 2.014210 1_555
Li3 O4 2.023307 1_555
Li3 O0 2.037188 1_565
Li3 O1 2.050256 1_565
Fe0 O7 1.888319 1_646
Fe0 O0 1.891663 1_555
Fe0 O2 1.912111 1_655
Fe0 O6 1.917788 1_645
Fe1 O1 1.887649 1_555
Fe1 O5 1.893660 1_555
Fe1 O4 1.910602 1_555
Fe1 O3 1.924382 1_555
Fe2 O3 1.908190 1_555
Fe2 O6 1.908220 1_555
Fe2 O2 1.911261 1_555
Fe2 O4 1.922432 1_455
Ni0 O5 1.857039 1_555
Ni0 O7 1.862854 1_555
Ni0 O1 1.867605 1_565
Ni0 O0 1.873047 1_564
