# generated using pymatgen
data_LiCoPO4F
_symmetry_space_group_name_H-M   'P 1'
_cell_length_a   6.30282600
_cell_length_b   10.70966863
_cell_length_c   10.94391565
_cell_angle_alpha   90.43135977
_cell_angle_beta   90.28539332
_cell_angle_gamma   90.24085908
_symmetry_Int_Tables_number   1
_chemical_formula_structural   LiCoPO4F
_chemical_formula_sum   'Li8 Co8 P8 O32 F8'
_cell_volume   738.69045315
_cell_formula_units_Z   8
loop_
 _symmetry_equiv_pos_site_id
 _symmetry_equiv_pos_as_xyz
  1  'x, y, z'
loop_
 _atom_site_type_symbol
 _atom_site_label
 _atom_site_symmetry_multiplicity
 _atom_site_fract_x
 _atom_site_fract_y
 _atom_site_fract_z
 _atom_site_occupancy
  Li  Li0  1  0.24818300  0.77205400  0.08455800  1
  Li  Li1  1  0.53747300  0.76140600  0.33774500  1
  Li  Li2  1  0.25092300  0.55898100  0.77462900  1
  Li  Li3  1  0.24932700  0.27686000  0.41081700  1
  Li  Li4  1  0.97204800  0.26668100  0.17348100  1
  Li  Li5  1  0.48762500  0.23769600  0.66756500  1
  Li  Li6  1  0.75547200  0.22314200  0.91094500  1
  Li  Li7  1  0.24263100  0.03388500  0.73134000  1
  Co  Co0  1  0.99836000  0.99833500  0.00056500  1
  Co  Co1  1  0.50870700  0.00159600  0.00389600  1
  Co  Co2  1  0.98743000  0.99440100  0.49541600  1
  Co  Co3  1  0.50226300  0.00152800  0.49683900  1
  Co  Co4  1  0.99083900  0.50564100  0.50037400  1
  Co  Co5  1  0.50534700  0.50550900  0.49948700  1
  Co  Co6  1  0.99844100  0.50217100  0.00032400  1
  Co  Co7  1  0.50763200  0.49732100  0.00391200  1
  P  P0  1  0.74756200  0.95866600  0.73967800  1
  P  P1  1  0.74835900  0.76059000  0.07851200  1
  P  P2  1  0.25256200  0.73816000  0.57384000  1
  P  P3  1  0.26191600  0.53665000  0.23728800  1
  P  P4  1  0.74166200  0.45737900  0.76142400  1
  P  P5  1  0.75104600  0.26220700  0.42321800  1
  P  P6  1  0.25742100  0.23702100  0.92285100  1
  P  P7  1  0.23632300  0.03910700  0.26183100  1
  O  O0  1  0.24581300  0.98351300  0.12795000  1
  O  O1  1  0.04302700  0.98070500  0.32910000  1
  O  O2  1  0.43822900  0.98842600  0.32814700  1
  O  O3  1  0.25019900  0.87823400  0.53365800  1
  O  O4  1  0.73404800  0.82115000  0.74865400  1
  O  O5  1  0.54846700  0.82769300  0.02255000  1
  O  O6  1  0.95237000  0.82536000  0.02562900  1
  O  O7  1  0.74371000  0.76487400  0.21465200  1
  O  O8  1  0.26326500  0.72180100  0.70903100  1
  O  O9  1  0.05199500  0.67238100  0.51670600  1
  O  O10  1  0.44637800  0.67747600  0.50380600  1
  O  O11  1  0.27496500  0.67762500  0.23895800  1
  O  O12  1  0.75179600  0.62317100  0.02714100  1
  O  O13  1  0.54921900  0.51534100  0.83087700  1
  O  O14  1  0.95175300  0.50160300  0.82612900  1
  O  O15  1  0.74410200  0.50989200  0.62868900  1
  O  O16  1  0.25611000  0.47953900  0.36852200  1
  O  O17  1  0.06153300  0.48182200  0.16827800  1
  O  O18  1  0.45852800  0.48140600  0.16873300  1
  O  O19  1  0.26009300  0.37722800  0.96197400  1
  O  O20  1  0.71920400  0.31605300  0.76013800  1
  O  O21  1  0.54695700  0.32205000  0.48378300  1
  O  O22  1  0.95356200  0.32838700  0.47800100  1
  O  O23  1  0.74783200  0.26593100  0.28687900  1
  O  O24  1  0.25769300  0.21540900  0.78616700  1
  O  O25  1  0.05292600  0.18071500  0.98442000  1
  O  O26  1  0.45847900  0.17489700  0.98141200  1
  O  O27  1  0.21744500  0.17989700  0.25971800  1
  O  O28  1  0.75012300  0.12436400  0.47339700  1
  O  O29  1  0.55100100  0.02331900  0.67448500  1
  O  O30  1  0.95026500  0.00627500  0.67058600  1
  O  O31  1  0.75751600  0.02228700  0.87296600  1
  F  F0  1  0.25080300  0.96604400  0.89187900  1
  F  F1  1  0.73368200  0.88147100  0.48221100  1
  F  F2  1  0.25041700  0.61737300  0.98114500  1
  F  F3  1  0.74443800  0.53618400  0.39082100  1
  F  F4  1  0.25798700  0.46596500  0.61117100  1
  F  F5  1  0.76104000  0.37732500  0.01544400  1
  F  F6  1  0.25264000  0.12050500  0.52080300  1
  F  F7  1  0.75903500  0.04412000  0.10785400  1
loop_
_geom_bond_atom_site_label_1
_geom_bond_atom_site_label_2
_geom_bond_distance
_geom_bond_site_symmetry_2
Li0 O11 1.982618 1_555
Li0 O6 2.054397 1_455
Li0 O5 2.099300 1_555
Li0 O0 2.310533 1_555
Li1 O7 1.877120 1_555
Li1 O10 2.114486 1_555
Li1 O11 2.160209 1_555
Li1 O2 2.515859 1_555
Li2 O8 1.892182 1_555
Li2 O13 2.032821 1_555
Li2 O14 2.063220 1_455
Li3 O27 1.955061 1_555
Li3 O22 2.082401 1_455
Li3 O21 2.088671 1_555
Li3 O16 2.223114 1_555
Li4 O23 1.885427 1_555
Li4 O27 2.039008 1_655
Li4 O25 2.318253 1_654
Li4 O17 2.370979 1_655
Li5 O20 1.955306 1_555
Li5 O24 1.965308 1_555
Li5 O21 2.243502 1_555
Li5 O29 2.333776 1_555
Li6 O20 1.946570 1_555
Li6 O25 2.089394 1_655
Li6 O26 2.092351 1_555
Li6 O31 2.187907 1_555
Li7 O30 1.976214 1_455
Li7 O24 2.031928 1_555
Li7 O29 2.047043 1_555
Co0 O6 1.896039 1_555
Co0 F7 1.977278 1_565
Co0 O25 1.991170 1_664
Co0 F0 2.020714 1_654
Co0 O31 2.075498 1_564
Co0 O0 2.094029 1_655
Co1 O5 1.892700 1_545
Co1 O26 1.901718 1_554
Co1 F7 1.989831 1_555
Co1 F0 2.063506 1_544
Co1 O31 2.141440 1_554
Co1 O0 2.156367 1_545
Co2 O1 1.860111 1_655
Co2 O30 1.935758 1_565
Co2 F1 2.005067 1_555
Co2 O28 2.061902 1_565
Co2 O3 2.117589 1_655
Co2 F6 2.160099 1_665
Co3 O2 1.891838 1_545
Co3 F1 1.954821 1_545
Co3 O29 1.978670 1_555
Co3 F6 2.045404 1_555
Co3 O28 2.056396 1_555
Co3 O3 2.103970 1_545
Co4 O9 1.832505 1_655
Co4 O22 1.925485 1_555
Co4 F3 1.986947 1_555
Co4 O15 2.100927 1_555
Co4 F4 2.116462 1_655
Co4 O16 2.231067 1_655
Co5 O10 1.880661 1_555
Co5 F3 1.952605 1_555
Co5 O21 1.989572 1_555
Co5 F4 2.031057 1_555
Co5 O15 2.059917 1_555
Co5 O16 2.137108 1_555
Co6 O17 1.893046 1_655
Co6 O14 1.927464 1_554
Co6 F5 2.010719 1_555
Co6 F2 2.019717 1_654
Co6 O12 2.048859 1_555
Co6 O19 2.168717 1_654
Co7 O18 1.840715 1_555
Co7 O13 1.924057 1_554
Co7 O12 2.054997 1_555
Co7 F5 2.058191 1_555
Co7 O19 2.065469 1_554
Co7 F2 2.088469 1_554
O0 P7 1.578882 1_565
O1 P7 1.557858 1_565
O2 P7 1.563113 1_565
O3 P2 1.566555 1_555
O4 P0 1.478887 1_555
O5 P1 1.576518 1_555
O6 P1 1.573365 1_555
O7 P1 1.490703 1_555
O8 P2 1.492391 1_555
O9 P2 1.569489 1_555
O10 P2 1.584486 1_555
O11 P3 1.511657 1_555
O12 P1 1.571752 1_555
O13 P4 1.562911 1_555
O14 P4 1.568285 1_555
O15 P4 1.561775 1_555
O16 P3 1.565795 1_555
O17 P3 1.577302 1_555
O18 P3 1.567584 1_555
O19 P6 1.558317 1_555
O20 P4 1.519520 1_555
O21 P5 1.585488 1_555
O22 P5 1.571441 1_555
O23 P5 1.492954 1_555
O24 P6 1.511947 1_555
O25 P6 1.577065 1_555
O26 P6 1.569935 1_555
O27 P7 1.513341 1_555
O28 P5 1.578953 1_555
O29 P0 1.590334 1_545
O30 P0 1.572875 1_545
O31 P0 1.606155 1_545
F0 Li7 1.906818 1_565
F1 Li1 2.370435 1_555
F2 Li0 1.999358 1_556
F2 Li2 2.340495 1_555
F4 Li2 2.041747 1_555
F5 Li6 2.001604 1_554
F5 Li4 2.487047 1_555
F6 Li3 2.069699 1_555
F6 Li7 2.491298 1_555
F6 Li5 2.505759 1_555
