# generated using pymatgen
data_Li3Ni(BO2)5
_symmetry_space_group_name_H-M   'P 1'
_cell_length_a   6.88949900
_cell_length_b   7.07119615
_cell_length_c   9.29176862
_cell_angle_alpha   79.99740103
_cell_angle_beta   68.64427175
_cell_angle_gamma   61.59285250
_symmetry_Int_Tables_number   1
_chemical_formula_structural   Li3Ni(BO2)5
_chemical_formula_sum   'Li6 Ni2 B10 O20'
_cell_volume   370.82228789
_cell_formula_units_Z   2
loop_
 _symmetry_equiv_pos_site_id
 _symmetry_equiv_pos_as_xyz
  1  'x, y, z'
loop_
 _atom_site_type_symbol
 _atom_site_label
 _atom_site_symmetry_multiplicity
 _atom_site_fract_x
 _atom_site_fract_y
 _atom_site_fract_z
 _atom_site_occupancy
  Li  Li0  1  0.24406900  0.49203000  0.24664100  1
  Li  Li1  1  0.82120400  0.99275400  0.15878300  1
  Li  Li2  1  0.02001400  0.19300800  0.46408000  1
  Li  Li3  1  0.97998600  0.80699200  0.53592000  1
  Li  Li4  1  0.17879600  0.00724600  0.84121700  1
  Li  Li5  1  0.75593100  0.50797000  0.75335900  1
  Ni  Ni0  1  0.21913500  0.51391800  0.88225100  1
  Ni  Ni1  1  0.78086500  0.48608200  0.11774900  1
  B  B0  1  0.30519800  0.80238700  0.07011300  1
  B  B1  1  0.41162100  0.85716700  0.28858100  1
  B  B2  1  0.36209200  0.74684400  0.56899500  1
  B  B3  1  0.21362800  0.16814300  0.13033900  1
  B  B4  1  0.74643200  0.71398600  0.39725500  1
  B  B5  1  0.25356800  0.28601400  0.60274500  1
  B  B6  1  0.78637200  0.83185700  0.86966100  1
  B  B7  1  0.63790800  0.25315600  0.43100500  1
  B  B8  1  0.58837900  0.14283300  0.71141900  1
  B  B9  1  0.69480200  0.19761300  0.92988700  1
  O  O0  1  0.26815100  0.69431600  0.99102500  1
  O  O1  1  0.27154700  0.84027300  0.44760700  1
  O  O2  1  0.41256100  0.71734400  0.18407700  1
  O  O3  1  0.21513900  0.73300200  0.70630500  1
  O  O4  1  0.12868500  0.37937300  0.09717500  1
  O  O5  1  0.65947800  0.77795700  0.27142400  1
  O  O6  1  0.04510700  0.30498500  0.62252000  1
  O  O7  1  0.69274100  0.91319900  0.75124000  1
  O  O8  1  0.59957000  0.68121000  0.54168100  1
  O  O9  1  0.77966500  0.97482400  0.95979400  1
  O  O10  1  0.22033500  0.02517600  0.04020600  1
  O  O11  1  0.40043000  0.31879000  0.45831900  1
  O  O12  1  0.30725900  0.08680100  0.24876000  1
  O  O13  1  0.95489300  0.69501500  0.37748000  1
  O  O14  1  0.34052200  0.22204300  0.72857600  1
  O  O15  1  0.87131500  0.62062700  0.90282500  1
  O  O16  1  0.78486100  0.26699800  0.29369500  1
  O  O17  1  0.58743900  0.28265600  0.81592300  1
  O  O18  1  0.72845300  0.15972700  0.55239300  1
  O  O19  1  0.73184900  0.30568400  0.00897500  1
loop_
_geom_bond_atom_site_label_1
_geom_bond_atom_site_label_2
_geom_bond_distance
_geom_bond_site_symmetry_2
Li0 O13 1.904918 1_455
Li0 O4 2.232987 1_555
Li0 O2 2.273842 1_555
Li0 O11 2.445450 1_555
Li1 O9 2.004487 1_554
Li1 O5 2.202842 1_555
Li1 O19 2.339022 1_565
Li1 O16 2.355558 1_565
Li2 O6 1.882748 1_555
Li2 O18 1.986418 1_455
Li2 O12 2.169652 1_555
Li2 O1 2.252697 1_545
Li2 O16 2.485695 1_455
Li3 O13 1.882748 1_555
Li3 O1 1.986418 1_655
Li3 O7 2.169652 1_555
Li3 O18 2.252697 1_565
Li3 O3 2.485695 1_655
Li4 O10 2.004487 1_556
Li4 O14 2.202842 1_555
Li4 O0 2.339022 1_545
Li4 O3 2.355558 1_545
Li5 O6 1.904918 1_655
Li5 O15 2.232987 1_555
Li5 O17 2.273842 1_555
Li5 O8 2.445450 1_555
Ni0 O0 1.967007 1_555
Ni0 O3 2.045935 1_555
Ni0 O4 2.068646 1_556
Ni0 O15 2.084287 1_455
Ni0 O17 2.180748 1_555
Ni0 O14 2.347299 1_555
Ni1 O19 1.967007 1_555
Ni1 O16 2.045935 1_555
Ni1 O15 2.068646 1_554
Ni1 O4 2.084287 1_655
Ni1 O2 2.180748 1_555
Ni1 O5 2.347299 1_555
B0 O0 1.306306 1_554
B0 O2 1.398609 1_555
B0 O10 1.410948 1_565
B1 O1 1.462458 1_555
B1 O12 1.471310 1_565
B1 O5 1.475735 1_555
B1 O2 1.497777 1_555
B2 O3 1.331364 1_555
B2 O1 1.399731 1_555
B2 O8 1.404515 1_555
B3 O4 1.344688 1_555
B3 O12 1.379047 1_555
B3 O10 1.395362 1_555
B4 O13 1.321915 1_555
B4 O5 1.413889 1_555
B4 O8 1.415809 1_555
B5 O6 1.321915 1_555
B5 O14 1.413889 1_555
B5 O11 1.415809 1_555
B6 O15 1.344688 1_555
B6 O7 1.379047 1_555
B6 O9 1.395362 1_555
B7 O16 1.331364 1_555
B7 O18 1.399731 1_555
B7 O11 1.404515 1_555
B8 O18 1.462458 1_555
B8 O7 1.471310 1_545
B8 O14 1.475735 1_555
B8 O17 1.497777 1_555
B9 O19 1.306306 1_556
B9 O17 1.398609 1_555
B9 O9 1.410948 1_545
