# generated using pymatgen
data_Li2VPO5
_symmetry_space_group_name_H-M   'P 1'
_cell_length_a   7.23706100
_cell_length_b   7.28010113
_cell_length_c   7.90983412
_cell_angle_alpha   91.46371595
_cell_angle_beta   89.69364440
_cell_angle_gamma   116.36222354
_symmetry_Int_Tables_number   1
_chemical_formula_structural   Li2VPO5
_chemical_formula_sum   'Li8 V4 P4 O20'
_cell_volume   373.27238165
_cell_formula_units_Z   4
loop_
 _symmetry_equiv_pos_site_id
 _symmetry_equiv_pos_as_xyz
  1  'x, y, z'
loop_
 _atom_site_type_symbol
 _atom_site_label
 _atom_site_symmetry_multiplicity
 _atom_site_fract_x
 _atom_site_fract_y
 _atom_site_fract_z
 _atom_site_occupancy
  Li  Li0  1  0.15858600  0.68925300  0.55674900  1
  Li  Li1  1  0.72661800  0.85136700  0.93917400  1
  Li  Li2  1  0.37079400  0.53824500  0.71867800  1
  Li  Li3  1  0.17061800  0.42865800  0.04972200  1
  Li  Li4  1  0.80076300  0.55966300  0.96200200  1
  Li  Li5  1  0.29374500  0.17095600  0.06401000  1
  Li  Li6  1  0.84366300  0.35121500  0.43957100  1
  Li  Li7  1  0.50184600  0.00926300  0.47781600  1
  V  V0  1  0.50444900  0.73476000  0.24675000  1
  V  V1  1  0.01132100  0.77045200  0.25241600  1
  V  V2  1  0.98331700  0.22612000  0.74468200  1
  V  V3  1  0.49455500  0.24135100  0.74999200  1
  P  P0  1  0.24600600  0.77854100  0.89377700  1
  P  P1  1  0.75790800  0.72731600  0.60400800  1
  P  P2  1  0.24170300  0.26847100  0.39743900  1
  P  P3  1  0.75324500  0.22535300  0.10899300  1
  O  O0  1  0.14170400  0.87090100  0.01373000  1
  O  O1  1  0.33981300  0.91701000  0.73939400  1
  O  O2  1  0.26810200  0.77315400  0.33482500  1
  O  O3  1  0.41282000  0.73442500  0.98464800  1
  O  O4  1  0.58397800  0.74826400  0.50647100  1
  O  O5  1  0.08508400  0.56512300  0.81971600  1
  O  O6  1  0.89952500  0.92796400  0.69925600  1
  O  O7  1  0.74636700  0.72268100  0.14756900  1
  O  O8  1  0.13305500  0.36452200  0.51831800  1
  O  O9  1  0.65322700  0.57196700  0.75013800  1
  O  O10  1  0.33617300  0.41386500  0.24479800  1
  O  O11  1  0.88308400  0.64881400  0.48934500  1
  O  O12  1  0.25846500  0.28528100  0.84321600  1
  O  O13  1  0.08610400  0.06435800  0.31696900  1
  O  O14  1  0.91537400  0.43902200  0.17929000  1
  O  O15  1  0.40955800  0.23996400  0.49732100  1
  O  O16  1  0.58919000  0.25976000  0.00572600  1
  O  O17  1  0.73325200  0.22307900  0.65845700  1
  O  O18  1  0.65762300  0.07877100  0.25695000  1
  O  O19  1  0.87058500  0.14302300  0.98919300  1
loop_
_geom_bond_atom_site_label_1
_geom_bond_atom_site_label_2
_geom_bond_distance
_geom_bond_site_symmetry_2
Li0 O2 1.921612 1_555
Li0 O11 1.956609 1_455
Li0 O1 2.126771 1_555
Li0 O5 2.254637 1_555
Li0 O8 2.300295 1_555
Li1 O19 1.935780 1_565
Li1 O7 1.953346 1_556
Li1 O3 2.073978 1_555
Li1 O6 2.210675 1_555
Li1 O9 2.355614 1_555
Li2 O12 1.943526 1_555
Li2 O9 1.963860 1_555
Li2 O8 2.250705 1_555
Li2 O5 2.299140 1_555
Li2 O4 2.354560 1_555
Li2 O3 2.454739 1_555
Li3 O10 1.992706 1_555
Li3 O14 2.137247 1_455
Li3 O12 2.157062 1_554
Li3 O3 2.208216 1_554
Li3 O19 2.284395 1_454
Li3 O5 2.308810 1_554
Li4 O7 2.009385 1_556
Li4 O9 2.016963 1_555
Li4 O16 2.072436 1_556
Li4 O14 2.269945 1_556
Li4 O5 2.325304 1_655
Li4 O0 2.527432 1_656
Li5 O0 1.991563 1_545
Li5 O16 1.994809 1_555
Li5 O12 2.018843 1_554
Li5 O10 2.158637 1_555
Li5 O13 2.423912 1_555
Li6 O17 1.977878 1_555
Li6 O11 2.083035 1_555
Li6 O8 2.148100 1_655
Li6 O14 2.162805 1_555
Li6 O18 2.310005 1_555
Li7 O18 2.023992 1_555
Li7 O15 2.067018 1_555
Li7 O2 2.105766 1_545
Li7 O17 2.205917 1_555
Li7 O4 2.245331 1_545
Li7 O1 2.335101 1_545
O0 P0 1.527293 1_554
O0 V1 2.104335 1_555
O1 P0 1.553875 1_555
O1 V3 2.116390 1_565
O2 V1 1.964318 1_555
O2 V0 1.972568 1_555
O3 P0 1.562892 1_555
O3 V0 2.179641 1_556
O4 P1 1.545891 1_555
O4 V0 2.124467 1_555
O5 P0 1.570769 1_555
O5 V2 2.302431 1_455
O6 P1 1.540857 1_555
O6 V2 2.000471 1_565
O7 V0 1.951131 1_555
O7 V1 1.973709 1_655
O8 P2 1.570830 1_555
O8 V2 2.120654 1_455
O9 P1 1.576555 1_555
O9 V3 2.158047 1_555
O10 P2 1.568222 1_555
O10 V0 2.100631 1_555
O11 P1 1.547381 1_555
O11 V1 2.119889 1_655
O12 V2 1.998966 1_455
O12 V3 2.006262 1_555
O13 P2 1.534462 1_555
O13 V1 2.012590 1_545
O14 P3 1.564436 1_555
O14 V1 2.254686 1_655
O15 P2 1.544495 1_555
O15 V3 2.092709 1_555
O16 P3 1.557083 1_555
O16 V3 2.120907 1_554
O17 V3 1.926609 1_555
O17 V2 1.928118 1_555
O18 P3 1.544866 1_555
O18 V0 2.243352 1_545
O19 P3 1.546843 1_556
O19 V2 2.092051 1_555
