# generated using pymatgen
data_Fe3O5F
_symmetry_space_group_name_H-M   'P 1'
_cell_length_a   5.54545894
_cell_length_b   5.54545894
_cell_length_c   7.37952375
_cell_angle_alpha   70.22991696
_cell_angle_beta   70.22991696
_cell_angle_gamma   71.13525788
_symmetry_Int_Tables_number   1
_chemical_formula_structural   Fe3O5F
_chemical_formula_sum   'Fe6 O10 F2'
_cell_volume   195.29931346
_cell_formula_units_Z   2
loop_
 _symmetry_equiv_pos_site_id
 _symmetry_equiv_pos_as_xyz
  1  'x, y, z'
loop_
 _atom_site_type_symbol
 _atom_site_label
 _atom_site_symmetry_multiplicity
 _atom_site_fract_x
 _atom_site_fract_y
 _atom_site_fract_z
 _atom_site_occupancy
  Fe  Fe0  1  0.82390100  0.82390100  0.65451800  1
  Fe  Fe1  1  0.50000000  0.50000000  0.50000000  1
  Fe  Fe2  1  0.81905500  0.81905500  0.17225000  1
  Fe  Fe3  1  0.50000000  0.50000000  0.00000000  1
  Fe  Fe4  1  0.17609900  0.17609900  0.34548200  1
  Fe  Fe5  1  0.18094500  0.18094500  0.82775000  1
  O  O0  1  0.81446200  0.18553800  0.50000000  1
  O  O1  1  0.13802900  0.52474500  0.16239900  1
  O  O2  1  0.40908800  0.40908800  0.78549800  1
  O  O3  1  0.71924500  0.71924500  0.46531200  1
  O  O4  1  0.59091200  0.59091200  0.21450200  1
  O  O5  1  0.28075500  0.28075500  0.53468800  1
  O  O6  1  0.52474500  0.13802900  0.16239900  1
  O  O7  1  0.18553800  0.81446200  0.50000000  1
  O  O8  1  0.86197100  0.47525500  0.83760100  1
  O  O9  1  0.47525500  0.86197100  0.83760100  1
  F  F0  1  0.06017100  0.06017100  0.12967000  1
  F  F1  1  0.93982900  0.93982900  0.87033000  1
loop_
_geom_bond_atom_site_label_1
_geom_bond_atom_site_label_2
_geom_bond_distance
_geom_bond_site_symmetry_2
Fe0 O7 1.936565 1_655
Fe0 O0 1.936565 1_565
Fe0 O8 1.941621 1_555
Fe0 O9 1.941621 1_555
Fe0 O3 1.984276 1_555
Fe1 O3 1.885938 1_555
Fe1 O5 1.885938 1_555
Fe1 O2 1.916866 1_555
Fe1 O4 1.916866 1_555
Fe1 O0 2.028652 1_555
Fe1 O7 2.028652 1_555
Fe2 O4 1.949313 1_555
Fe2 O3 1.966815 1_555
Fe2 O6 1.980966 1_565
Fe2 O1 1.980966 1_655
Fe3 O8 1.946805 1_554
Fe3 O9 1.946805 1_554
Fe3 O6 1.946805 1_555
Fe3 O1 1.946805 1_555
Fe3 O4 2.063507 1_555
Fe3 O2 2.063507 1_554
Fe4 O7 1.936565 1_545
Fe4 O0 1.936565 1_455
Fe4 O1 1.941621 1_555
Fe4 O6 1.941621 1_555
Fe4 O5 1.984276 1_555
Fe5 O2 1.949313 1_555
Fe5 O5 1.966815 1_555
Fe5 O8 1.980966 1_455
Fe5 O9 1.980966 1_545
F0 Fe5 2.032818 1_554
F0 Fe2 2.064483 1_445
F0 Fe4 2.239511 1_555
F1 Fe2 2.032818 1_556
F1 Fe5 2.064483 1_665
F1 Fe0 2.239511 1_555
