# generated using pymatgen
data_BaP3NO10
_symmetry_space_group_name_H-M   'P 1'
_cell_length_a   12.34606700
_cell_length_b   7.72842700
_cell_length_c   12.26170059
_cell_angle_alpha   76.33855734
_cell_angle_beta   90.00000000
_cell_angle_gamma   90.00000000
_symmetry_Int_Tables_number   1
_chemical_formula_structural   BaP3NO10
_chemical_formula_sum   'Ba4 P12 N4 O40'
_cell_volume   1136.85833317
_cell_formula_units_Z   4
loop_
 _symmetry_equiv_pos_site_id
 _symmetry_equiv_pos_as_xyz
  1  'x, y, z'
loop_
 _atom_site_type_symbol
 _atom_site_label
 _atom_site_symmetry_multiplicity
 _atom_site_fract_x
 _atom_site_fract_y
 _atom_site_fract_z
 _atom_site_occupancy
  Ba  Ba0  1  0.41871900  0.15345300  0.62173200  1
  Ba  Ba1  1  0.08128100  0.15345300  0.12173200  1
  Ba  Ba2  1  0.58128100  0.84654700  0.37826800  1
  Ba  Ba3  1  0.91871900  0.84654700  0.87826800  1
  P  P0  1  0.33915100  0.68065200  0.57493500  1
  P  P1  1  0.16084900  0.68065200  0.07493500  1
  P  P2  1  0.66084900  0.31934800  0.42506500  1
  P  P3  1  0.83915100  0.31934800  0.92506500  1
  P  P4  1  0.35111900  0.80513700  0.92929900  1
  P  P5  1  0.14888100  0.80513700  0.42929900  1
  P  P6  1  0.64888100  0.19486300  0.07070100  1
  P  P7  1  0.85111900  0.19486300  0.57070100  1
  P  P8  1  0.16175600  0.86734200  0.64994400  1
  P  P9  1  0.33824400  0.86734200  0.14994400  1
  P  P10  1  0.83824400  0.13265800  0.35005600  1
  P  P11  1  0.66175600  0.13265800  0.85005600  1
  N  N0  1  0.39790000  0.47814400  0.91856300  1
  N  N1  1  0.10210000  0.47814400  0.41856300  1
  N  N2  1  0.60210000  0.52185600  0.08143700  1
  N  N3  1  0.89790000  0.52185600  0.58143700  1
  O  O0  1  0.09253300  0.81819800  0.54216000  1
  O  O1  1  0.40746700  0.81819800  0.04216000  1
  O  O2  1  0.90746700  0.18180200  0.45784000  1
  O  O3  1  0.59253300  0.18180200  0.95784000  1
  O  O4  1  0.25161300  0.70577400  0.66826000  1
  O  O5  1  0.24838700  0.70577400  0.16826000  1
  O  O6  1  0.74838700  0.29422600  0.33174000  1
  O  O7  1  0.75161300  0.29422600  0.83174000  1
  O  O8  1  0.23939900  0.70941900  0.96114100  1
  O  O9  1  0.26060100  0.70941900  0.46114100  1
  O  O10  1  0.76060100  0.29058100  0.03885900  1
  O  O11  1  0.73939900  0.29058100  0.53885900  1
  O  O12  1  0.37616900  0.49266000  0.60145100  1
  O  O13  1  0.12383100  0.49266000  0.10145100  1
  O  O14  1  0.62383100  0.50734000  0.39854900  1
  O  O15  1  0.87616900  0.50734000  0.89854900  1
  O  O16  1  0.42035200  0.83009300  0.55007100  1
  O  O17  1  0.07964800  0.83009300  0.05007100  1
  O  O18  1  0.57964800  0.16990700  0.44992900  1
  O  O19  1  0.92035200  0.16990700  0.94992900  1
  O  O20  1  0.35358300  0.96249500  0.83488200  1
  O  O21  1  0.14641700  0.96249500  0.33488200  1
  O  O22  1  0.64641700  0.03750500  0.16511800  1
  O  O23  1  0.85358300  0.03750500  0.66511800  1
  O  O24  1  0.42434600  0.64548200  0.88838800  1
  O  O25  1  0.07565400  0.64548200  0.38838800  1
  O  O26  1  0.57565400  0.35451800  0.11161200  1
  O  O27  1  0.92434600  0.35451800  0.61161200  1
  O  O28  1  0.21655500  0.04132000  0.60538600  1
  O  O29  1  0.28344500  0.04132000  0.10538600  1
  O  O30  1  0.78344500  0.95868000  0.39461400  1
  O  O31  1  0.71655500  0.95868000  0.89461400  1
  O  O32  1  0.08713100  0.83142400  0.74699400  1
  O  O33  1  0.41286900  0.83142400  0.24699400  1
  O  O34  1  0.91286900  0.16857600  0.25300600  1
  O  O35  1  0.58713100  0.16857600  0.75300600  1
  O  O36  1  0.12333200  0.35451200  0.89450500  1
  O  O37  1  0.37666800  0.35451200  0.39450500  1
  O  O38  1  0.87666800  0.64548800  0.10549500  1
  O  O39  1  0.62333200  0.64548800  0.60549500  1
loop_
_geom_bond_atom_site_label_1
_geom_bond_atom_site_label_2
_geom_bond_distance
_geom_bond_site_symmetry_2
Ba0 O12 2.627226 1_555
Ba0 O35 2.648897 1_555
Ba0 O28 2.665127 1_555
Ba0 O20 2.798841 1_545
Ba0 O16 2.838149 1_545
Ba0 O18 2.876615 1_555
Ba0 O37 2.898592 1_555
Ba1 O13 2.627226 1_555
Ba1 O34 2.648897 1_455
Ba1 O29 2.665127 1_555
Ba1 O21 2.798841 1_545
Ba1 O17 2.838149 1_545
Ba1 O19 2.876615 1_454
Ba1 O36 2.898592 1_554
Ba2 O14 2.627226 1_555
Ba2 O33 2.648897 1_555
Ba2 O30 2.665127 1_555
Ba2 O22 2.798841 1_565
Ba2 O18 2.838149 1_565
Ba2 O16 2.876615 1_555
Ba2 O39 2.898592 1_555
Ba3 O15 2.627226 1_555
Ba3 O32 2.648897 1_655
Ba3 O31 2.665127 1_555
Ba3 O23 2.798841 1_565
Ba3 O19 2.838149 1_565
Ba3 O17 2.876615 1_656
Ba3 O38 2.898592 1_556
N0 O24 1.299997 1_555
N1 O25 1.299997 1_555
N2 O26 1.299997 1_555
N3 O27 1.299997 1_555
O0 P5 1.573286 1_555
O0 P8 1.690687 1_555
O1 P4 1.573286 1_554
O1 P9 1.690687 1_555
O2 P7 1.573286 1_555
O2 P10 1.690687 1_555
O3 P6 1.573286 1_556
O3 P11 1.690687 1_555
O4 P0 1.618685 1_555
O4 P8 1.645559 1_555
O5 P1 1.618685 1_555
O5 P9 1.645559 1_555
O6 P2 1.618685 1_555
O6 P10 1.645559 1_555
O7 P3 1.618685 1_555
O7 P11 1.645559 1_555
O8 P4 1.570259 1_555
O8 P1 1.670407 1_556
O9 P5 1.570259 1_555
O9 P0 1.670407 1_555
O10 P6 1.570259 1_555
O10 P3 1.670407 1_554
O11 P7 1.570259 1_555
O11 P2 1.670407 1_555
O12 P0 1.484020 1_555
O13 P1 1.484020 1_555
O14 P2 1.484020 1_555
O15 P3 1.484020 1_555
O16 P0 1.505174 1_555
O17 P1 1.505174 1_555
O18 P2 1.505174 1_555
O19 P3 1.505174 1_555
O20 P4 1.468038 1_555
O21 P5 1.468038 1_555
O22 P6 1.468038 1_555
O23 P7 1.468038 1_555
O24 P4 1.698181 1_555
O25 P5 1.698181 1_555
O26 P6 1.698181 1_555
O27 P7 1.698181 1_555
O28 P8 1.488994 1_545
O29 P9 1.488994 1_545
O30 P10 1.488994 1_565
O31 P11 1.488994 1_565
O32 P8 1.478497 1_555
O33 P9 1.478497 1_555
O34 P10 1.478497 1_555
O35 P11 1.478497 1_555
