# generated using pymatgen
data_TbAl2
_symmetry_space_group_name_H-M   'P 1'
_cell_length_a   5.55146379
_cell_length_b   5.55146331
_cell_length_c   5.55146410
_cell_angle_alpha   60.00000137
_cell_angle_beta   60.00000420
_cell_angle_gamma   59.99999649
_symmetry_Int_Tables_number   1
_chemical_formula_structural   TbAl2
_chemical_formula_sum   'Tb2 Al4'
_cell_volume   120.97831450
_cell_formula_units_Z   2
loop_
 _symmetry_equiv_pos_site_id
 _symmetry_equiv_pos_as_xyz
  1  'x, y, z'
loop_
 _atom_site_type_symbol
 _atom_site_label
 _atom_site_symmetry_multiplicity
 _atom_site_fract_x
 _atom_site_fract_y
 _atom_site_fract_z
 _atom_site_occupancy
  Tb  Tb0  1  0.87500000  0.87500000  0.87500000  1
  Tb  Tb1  1  0.12500000  0.12500000  0.12500000  1
  Al  Al0  1  0.50000000  0.50000000  0.50000000  1
  Al  Al1  1  0.50000000  0.50000000  -0.00000000  1
  Al  Al2  1  0.00000000  0.50000000  0.50000000  1
  Al  Al3  1  0.50000000  -0.00000000  0.50000000  1
loop_
_geom_bond_atom_site_label_1
_geom_bond_atom_site_label_2
_geom_bond_distance
_geom_bond_site_symmetry_2
Tb0 Tb1 3.399563 1_656
Tb0 Tb1 3.399563 1_666
Tb0 Tb1 3.399563 1_566
Tb0 Tb1 3.399564 1_665
Al0 Al3 2.775732 1_555
Al0 Al3 2.775732 1_565
Al0 Al2 2.775732 1_555
Al0 Al2 2.775732 1_655
Al0 Al1 2.775732 1_556
Al0 Al1 2.775732 1_555
Al0 Tb0 3.254834 1_545
Al0 Tb1 3.254834 1_565
Al0 Tb1 3.254834 1_655
Al0 Tb0 3.254834 1_455
Al0 Tb0 3.254834 1_554
Al0 Tb1 3.254834 1_556
Al1 Al3 2.775732 1_555
Al1 Al3 2.775732 1_564
Al1 Al2 2.775732 1_555
Al1 Al2 2.775732 1_654
Al1 Tb0 3.254834 1_544
Al1 Tb1 3.254834 1_565
Al1 Tb1 3.254834 1_655
Al1 Tb0 3.254834 1_454
Al1 Tb0 3.254834 1_554
Al1 Tb1 3.254834 1_555
Al2 Al3 2.775732 1_555
Al2 Al3 2.775732 1_465
Al2 Tb0 3.254834 1_445
Al2 Tb1 3.254834 1_565
Al2 Tb0 3.254834 1_455
Al2 Tb1 3.254834 1_555
Al2 Tb0 3.254834 1_454
Al2 Tb1 3.254834 1_556
Al3 Tb1 3.254834 1_555
Al3 Tb0 3.254834 1_545
Al3 Tb0 3.254834 1_445
Al3 Tb1 3.254834 1_655
Al3 Tb0 3.254834 1_544
Al3 Tb1 3.254834 1_556
