# generated using pymatgen
data_LiCu2PO4
_symmetry_space_group_name_H-M   'P 1'
_cell_length_a   5.56749900
_cell_length_b   6.26308110
_cell_length_c   10.24669801
_cell_angle_alpha   89.04232547
_cell_angle_beta   89.32733900
_cell_angle_gamma   88.81915195
_symmetry_Int_Tables_number   1
_chemical_formula_structural   LiCu2PO4
_chemical_formula_sum   'Li4 Cu8 P4 O16'
_cell_volume   357.15027590
_cell_formula_units_Z   4
loop_
 _symmetry_equiv_pos_site_id
 _symmetry_equiv_pos_as_xyz
  1  'x, y, z'
loop_
 _atom_site_type_symbol
 _atom_site_label
 _atom_site_symmetry_multiplicity
 _atom_site_fract_x
 _atom_site_fract_y
 _atom_site_fract_z
 _atom_site_occupancy
  Li  Li0  1  0.14685600  0.00776200  0.25076900  1
  Li  Li1  1  0.15377700  0.99829800  0.74968700  1
  Li  Li2  1  0.32733900  0.24736900  0.50492300  1
  Li  Li3  1  0.68415400  0.24814000  0.75356500  1
  Cu  Cu0  1  0.34118300  0.27474000  0.98898900  1
  Cu  Cu1  1  0.65433200  0.28231300  0.25564700  1
  Cu  Cu2  1  0.75008000  0.51090500  0.01224700  1
  Cu  Cu3  1  0.75086200  0.50773000  0.51048300  1
  Cu  Cu4  1  0.64612200  0.70201400  0.27189200  1
  Cu  Cu5  1  0.65528800  0.70743200  0.77624700  1
  Cu  Cu6  1  0.36979400  0.73279400  0.49820100  1
  Cu  Cu7  1  0.36744800  0.71853000  0.98957500  1
  P  P0  1  0.84991900  0.00507900  0.99960600  1
  P  P1  1  0.84215900  0.01285200  0.50251500  1
  P  P2  1  0.17751900  0.49135500  0.74012000  1
  P  P3  1  0.17837100  0.50165000  0.25078500  1
  O  O0  1  0.83918500  0.01156200  0.35082500  1
  O  O1  1  0.10317100  0.01404200  0.55463700  1
  O  O2  1  0.84348800  0.00187200  0.84828600  1
  O  O3  1  0.11025300  0.00100400  0.05308000  1
  O  O4  1  0.68954700  0.20723500  0.55623300  1
  O  O5  1  0.70792100  0.20742900  0.04964000  1
  O  O6  1  0.32220700  0.28815300  0.78800600  1
  O  O7  1  0.30373500  0.29627500  0.30821600  1
  O  O8  1  0.17016100  0.49885900  0.09988600  1
  O  O9  1  0.91722600  0.50375300  0.30674700  1
  O  O10  1  0.17957600  0.49603400  0.58868200  1
  O  O11  1  0.91455700  0.47999900  0.79339000  1
  O  O12  1  0.29406000  0.71618900  0.29442600  1
  O  O13  1  0.29239100  0.70366800  0.78927400  1
  O  O14  1  0.70954600  0.81240100  0.56066100  1
  O  O15  1  0.70776800  0.81256600  0.06017100  1
loop_
_geom_bond_atom_site_label_1
_geom_bond_atom_site_label_2
_geom_bond_distance
_geom_bond_site_symmetry_2
Li0 O0 1.985904 1_455
Li0 O12 2.031308 1_545
Li0 O3 2.039493 1_555
Li0 O7 2.118307 1_555
Li1 O2 1.990927 1_465
Li1 O13 2.022090 1_555
Li1 O1 2.022145 1_565
Li1 O6 2.105178 1_565
Li2 O10 1.952998 1_555
Li2 O1 1.997004 1_555
Li2 O7 2.039031 1_555
Li2 O4 2.099008 1_555
Li3 O2 2.005423 1_555
Li3 O11 2.007397 1_555
Li3 O4 2.042204 1_555
Li3 O6 2.052700 1_555
Cu0 O8 2.034942 1_556
Cu0 O6 2.063579 1_555
Cu0 O5 2.172214 1_556
Cu0 O3 2.248772 1_556
Cu1 O7 2.019345 1_555
Cu1 O9 2.113265 1_555
Cu1 O5 2.185723 1_555
Cu1 O0 2.186823 1_555
Cu2 O5 1.951019 1_555
Cu2 O15 1.968793 1_555
Cu2 O11 2.421589 1_554
Cu2 O8 2.514335 1_655
Cu3 O4 1.967623 1_555
Cu3 O14 1.992573 1_555
Cu3 O9 2.274219 1_555
Cu3 O10 2.525921 1_655
Cu4 O9 1.966779 1_555
Cu4 O12 1.971318 1_555
Cu4 O15 2.290367 1_555
Cu4 O0 2.393093 1_565
Cu5 O11 2.014035 1_555
Cu5 O13 2.023865 1_555
Cu5 O2 2.277452 1_565
Cu5 O14 2.312426 1_555
Cu6 O10 2.043450 1_555
Cu6 O14 2.077064 1_555
Cu6 O12 2.139667 1_555
Cu6 O1 2.355176 1_565
Cu7 O8 2.087613 1_556
Cu7 O13 2.103297 1_555
Cu7 O15 2.133674 1_556
Cu7 O3 2.348611 1_566
O0 P1 1.554762 1_555
O1 P1 1.554298 1_455
O2 P0 1.551839 1_555
O3 P0 1.555096 1_454
O4 P1 1.573482 1_555
O5 P0 1.569998 1_554
O6 P2 1.567008 1_555
O7 P3 1.560550 1_555
O8 P3 1.547830 1_555
O9 P3 1.556526 1_655
O10 P2 1.551439 1_555
O11 P2 1.559053 1_655
O12 P3 1.575694 1_555
O13 P2 1.579841 1_555
O14 P1 1.574518 1_565
O15 P0 1.571001 1_564
