# generated using pymatgen
data_Cr(PO3)2
_symmetry_space_group_name_H-M   'P 1'
_cell_length_a   7.33335700
_cell_length_b   9.34821500
_cell_length_c   13.72555900
_cell_angle_alpha   90.00000000
_cell_angle_beta   90.00000000
_cell_angle_gamma   90.00000000
_symmetry_Int_Tables_number   1
_chemical_formula_structural   Cr(PO3)2
_chemical_formula_sum   'Cr8 P16 O48'
_cell_volume   940.93919786
_cell_formula_units_Z   8
loop_
 _symmetry_equiv_pos_site_id
 _symmetry_equiv_pos_as_xyz
  1  'x, y, z'
loop_
 _atom_site_type_symbol
 _atom_site_label
 _atom_site_symmetry_multiplicity
 _atom_site_fract_x
 _atom_site_fract_y
 _atom_site_fract_z
 _atom_site_occupancy
  Cr  Cr0  1  0.44863200  0.00793000  0.71697300  1
  Cr  Cr1  1  0.94863200  0.00793000  0.78302700  1
  Cr  Cr2  1  0.94863200  0.49207000  0.28302700  1
  Cr  Cr3  1  0.44863200  0.49207000  0.21697300  1
  Cr  Cr4  1  0.05136800  0.50793000  0.71697300  1
  Cr  Cr5  1  0.55136800  0.50793000  0.78302700  1
  Cr  Cr6  1  0.05136800  0.99207000  0.21697300  1
  Cr  Cr7  1  0.55136800  0.99207000  0.28302700  1
  P  P0  1  0.57034800  0.20459200  0.89987300  1
  P  P1  1  0.07034800  0.20459200  0.60012700  1
  P  P2  1  0.67158300  0.22046600  0.10541600  1
  P  P3  1  0.17158300  0.22046600  0.39458400  1
  P  P4  1  0.67158300  0.27953400  0.60541600  1
  P  P5  1  0.17158300  0.27953400  0.89458400  1
  P  P6  1  0.07034800  0.29540800  0.10012700  1
  P  P7  1  0.57034800  0.29540800  0.39987300  1
  P  P8  1  0.92965200  0.70459200  0.89987300  1
  P  P9  1  0.42965200  0.70459200  0.60012700  1
  P  P10  1  0.82841700  0.72046600  0.10541600  1
  P  P11  1  0.32841700  0.72046600  0.39458400  1
  P  P12  1  0.32841700  0.77953400  0.89458400  1
  P  P13  1  0.82841700  0.77953400  0.60541600  1
  P  P14  1  0.42965200  0.79540800  0.10012700  1
  P  P15  1  0.92965200  0.79540800  0.39987300  1
  O  O0  1  0.62288000  0.09711900  0.82225900  1
  O  O1  1  0.12288000  0.09711900  0.67774100  1
  O  O2  1  0.20867000  0.10394800  0.32070700  1
  O  O3  1  0.70867000  0.10394800  0.17929300  1
  O  O4  1  0.64268000  0.14183500  0.00169600  1
  O  O5  1  0.14268000  0.14183500  0.49830400  1
  O  O6  1  0.62512200  0.14162000  0.38837200  1
  O  O7  1  0.12512200  0.14162000  0.11162800  1
  O  O8  1  0.35303600  0.18801200  0.91225700  1
  O  O9  1  0.85303600  0.18801200  0.58774300  1
  O  O10  1  0.51975300  0.17559800  0.62366700  1
  O  O11  1  0.01975300  0.17559800  0.87633300  1
  O  O12  1  0.51975300  0.32440200  0.12366700  1
  O  O13  1  0.01975300  0.32440200  0.37633300  1
  O  O14  1  0.85303600  0.31198800  0.08774300  1
  O  O15  1  0.35303600  0.31198800  0.41225700  1
  O  O16  1  0.12512200  0.35838000  0.61162800  1
  O  O17  1  0.62512200  0.35838000  0.88837200  1
  O  O18  1  0.64268000  0.35816500  0.50169600  1
  O  O19  1  0.14268000  0.35816500  0.99830400  1
  O  O20  1  0.70867000  0.39605200  0.67929300  1
  O  O21  1  0.20867000  0.39605200  0.82070700  1
  O  O22  1  0.12288000  0.40288100  0.17774100  1
  O  O23  1  0.62288000  0.40288100  0.32225900  1
  O  O24  1  0.37712000  0.59711900  0.67774100  1
  O  O25  1  0.87712000  0.59711900  0.82225900  1
  O  O26  1  0.79133000  0.60394800  0.17929300  1
  O  O27  1  0.29133000  0.60394800  0.32070700  1
  O  O28  1  0.85732000  0.64183500  0.00169600  1
  O  O29  1  0.35732000  0.64183500  0.49830400  1
  O  O30  1  0.37487800  0.64162000  0.11162800  1
  O  O31  1  0.87487800  0.64162000  0.38837200  1
  O  O32  1  0.14696400  0.68801200  0.91225700  1
  O  O33  1  0.64696400  0.68801200  0.58774300  1
  O  O34  1  0.48024700  0.67559800  0.87633300  1
  O  O35  1  0.98024700  0.67559800  0.62366700  1
  O  O36  1  0.98024700  0.82440200  0.12366700  1
  O  O37  1  0.48024700  0.82440200  0.37633300  1
  O  O38  1  0.64696400  0.81198800  0.08774300  1
  O  O39  1  0.14696400  0.81198800  0.41225700  1
  O  O40  1  0.87487800  0.85838000  0.88837200  1
  O  O41  1  0.37487800  0.85838000  0.61162800  1
  O  O42  1  0.85732000  0.85816500  0.50169600  1
  O  O43  1  0.35732000  0.85816500  0.99830400  1
  O  O44  1  0.79133000  0.89605200  0.67929300  1
  O  O45  1  0.29133000  0.89605200  0.82070700  1
  O  O46  1  0.37712000  0.90288100  0.17774100  1
  O  O47  1  0.87712000  0.90288100  0.32225900  1
loop_
_geom_bond_atom_site_label_1
_geom_bond_atom_site_label_2
_geom_bond_distance
_geom_bond_site_symmetry_2
Cr0 O41 2.082713 1_545
Cr0 O10 2.090188 1_555
Cr0 O0 2.101505 1_555
Cr0 O45 2.109912 1_545
Cr0 O1 2.586841 1_555
Cr1 O40 2.082713 1_545
Cr1 O11 2.090188 1_655
Cr1 O1 2.101505 1_655
Cr1 O44 2.109912 1_545
Cr1 O0 2.586841 1_555
Cr2 O31 2.082713 1_555
Cr2 O13 2.090188 1_655
Cr2 O22 2.101505 1_655
Cr2 O26 2.109912 1_555
Cr2 O23 2.586841 1_555
Cr3 O30 2.082713 1_555
Cr3 O12 2.090188 1_555
Cr3 O23 2.101505 1_555
Cr3 O27 2.109912 1_555
Cr3 O22 2.586841 1_555
Cr4 O16 2.082713 1_555
Cr4 O35 2.090188 1_455
Cr4 O25 2.101505 1_455
Cr4 O21 2.109912 1_555
Cr4 O24 2.586841 1_555
Cr5 O17 2.082713 1_555
Cr5 O34 2.090188 1_555
Cr5 O24 2.101505 1_555
Cr5 O20 2.109912 1_555
Cr5 O25 2.586841 1_555
Cr6 O7 2.082713 1_565
Cr6 O36 2.090188 1_455
Cr6 O47 2.101505 1_455
Cr6 O2 2.109912 1_565
Cr6 O46 2.586841 1_555
Cr7 O6 2.082713 1_565
Cr7 O37 2.090188 1_555
Cr7 O46 2.101505 1_555
Cr7 O3 2.109912 1_565
Cr7 O47 2.586841 1_555
O0 P0 1.514148 1_555
O1 P1 1.514148 1_555
O2 P3 1.512814 1_555
O3 P2 1.512814 1_555
O4 P0 1.605853 1_554
O4 P2 1.616143 1_555
O5 P1 1.605853 1_555
O5 P3 1.616143 1_555
O6 P7 1.501027 1_555
O7 P6 1.501027 1_555
O8 P5 1.600466 1_555
O8 P0 1.610143 1_555
O9 P4 1.600466 1_555
O9 P1 1.610143 1_655
O10 P4 1.498834 1_555
O11 P5 1.498834 1_555
O12 P2 1.498834 1_555
O13 P3 1.498834 1_555
O14 P2 1.600466 1_555
O14 P6 1.610143 1_655
O15 P3 1.600466 1_555
O15 P7 1.610143 1_555
O16 P1 1.501027 1_555
O17 P0 1.501027 1_555
O18 P7 1.605853 1_555
O18 P4 1.616143 1_555
O19 P6 1.605853 1_556
O19 P5 1.616143 1_555
O20 P4 1.512814 1_555
O21 P5 1.512814 1_555
O22 P6 1.514148 1_555
O23 P7 1.514148 1_555
O24 P9 1.514148 1_555
O25 P8 1.514148 1_555
O26 P10 1.512814 1_555
O27 P11 1.512814 1_555
O28 P8 1.605853 1_554
O28 P10 1.616143 1_555
O29 P9 1.605853 1_555
O29 P11 1.616143 1_555
O30 P14 1.501027 1_555
O31 P15 1.501027 1_555
O32 P12 1.600466 1_555
O32 P8 1.610143 1_455
O33 P13 1.600466 1_555
O33 P9 1.610143 1_555
O34 P12 1.498834 1_555
O35 P13 1.498834 1_555
O36 P10 1.498834 1_555
O37 P11 1.498834 1_555
O38 P10 1.600466 1_555
O38 P14 1.610143 1_555
O39 P11 1.600466 1_555
O39 P15 1.610143 1_455
O40 P8 1.501027 1_555
O41 P9 1.501027 1_555
O42 P15 1.605853 1_555
O42 P13 1.616143 1_555
O43 P14 1.605853 1_556
O43 P12 1.616143 1_555
O44 P13 1.512814 1_555
O45 P12 1.512814 1_555
O46 P14 1.514148 1_555
O47 P15 1.514148 1_555
