# generated using pymatgen
data_LiMn(SO4)2
_symmetry_space_group_name_H-M   'P 1'
_cell_length_a   9.05003500
_cell_length_b   9.32866600
_cell_length_c   13.70708868
_cell_angle_alpha   89.58666440
_cell_angle_beta   90.00000000
_cell_angle_gamma   90.00000000
_symmetry_Int_Tables_number   1
_chemical_formula_structural   LiMn(SO4)2
_chemical_formula_sum   'Li8 Mn8 S16 O64'
_cell_volume   1157.18747455
_cell_formula_units_Z   8
loop_
 _symmetry_equiv_pos_site_id
 _symmetry_equiv_pos_as_xyz
  1  'x, y, z'
loop_
 _atom_site_type_symbol
 _atom_site_label
 _atom_site_symmetry_multiplicity
 _atom_site_fract_x
 _atom_site_fract_y
 _atom_site_fract_z
 _atom_site_occupancy
  Li  Li0  1  0.03993300  0.94970100  0.37729100  1
  Li  Li1  1  0.96006700  0.94970100  0.87729100  1
  Li  Li2  1  0.53699400  0.55179300  0.37457100  1
  Li  Li3  1  0.46300600  0.55179300  0.87457100  1
  Li  Li4  1  0.79890100  0.22912200  0.12744800  1
  Li  Li5  1  0.20109900  0.22912200  0.62744800  1
  Li  Li6  1  0.47493900  0.03931700  0.62500700  1
  Li  Li7  1  0.52506100  0.03931700  0.12500700  1
  Mn  Mn0  1  0.14507000  0.85783800  0.12563400  1
  Mn  Mn1  1  0.85493000  0.85783800  0.62563400  1
  Mn  Mn2  1  0.64273400  0.63800900  0.12634300  1
  Mn  Mn3  1  0.35726600  0.63800900  0.62634300  1
  Mn  Mn4  1  0.14387200  0.36305900  0.37130700  1
  Mn  Mn5  1  0.85612800  0.36305900  0.87130700  1
  Mn  Mn6  1  0.64451900  0.13860800  0.37383000  1
  Mn  Mn7  1  0.35548100  0.13860800  0.87383000  1
  S  S0  1  0.18549700  0.92711300  0.72747900  1
  S  S1  1  0.81450300  0.92711300  0.22747900  1
  S  S2  1  0.56308800  0.83503200  0.49039900  1
  S  S3  1  0.43691200  0.83503200  0.99039900  1
  S  S4  1  0.06387900  0.66100800  0.49268500  1
  S  S5  1  0.93612100  0.66100800  0.99268500  1
  S  S6  1  0.31523600  0.57308100  0.22276300  1
  S  S7  1  0.68476400  0.57308100  0.72276300  1
  S  S8  1  0.81566300  0.42972900  0.27402600  1
  S  S9  1  0.18433700  0.42972900  0.77402600  1
  S  S10  1  0.56057800  0.33388400  0.00985200  1
  S  S11  1  0.43942200  0.33388400  0.50985200  1
  S  S12  1  0.06335100  0.16299400  0.00851200  1
  S  S13  1  0.93664900  0.16299400  0.50851200  1
  S  S14  1  0.68692200  0.07408800  0.77419900  1
  S  S15  1  0.31307800  0.07408800  0.27419900  1
  O  O0  1  0.54493400  0.99358300  0.47920800  1
  O  O1  1  0.45506600  0.99358300  0.97920800  1
  O  O2  1  0.25122400  0.98282500  0.34977100  1
  O  O3  1  0.74877600  0.98282500  0.84977100  1
  O  O4  1  0.78231700  0.98622500  0.32886300  1
  O  O5  1  0.21768300  0.98622500  0.82886300  1
  O  O6  1  0.01914200  0.92809200  0.72442200  1
  O  O7  1  0.98085800  0.92809200  0.22442200  1
  O  O8  1  0.52557500  0.80614100  0.08338000  1
  O  O9  1  0.47442500  0.80614100  0.58338000  1
  O  O10  1  0.28050700  0.79812900  0.01207100  1
  O  O11  1  0.71949300  0.79812900  0.51207100  1
  O  O12  1  0.24240400  0.78114800  0.72339600  1
  O  O13  1  0.75759600  0.78114800  0.22339600  1
  O  O14  1  0.51174600  0.75499200  0.40733100  1
  O  O15  1  0.48825400  0.75499200  0.90733100  1
  O  O16  1  0.01992200  0.74705200  0.40908300  1
  O  O17  1  0.98007800  0.74705200  0.90908300  1
  O  O18  1  0.26131400  0.72274800  0.22222500  1
  O  O19  1  0.73868600  0.72274800  0.72222500  1
  O  O20  1  0.22190200  0.69802600  0.51753300  1
  O  O21  1  0.77809800  0.69802600  0.01753300  1
  O  O22  1  0.02689300  0.69345000  0.08290900  1
  O  O23  1  0.97310700  0.69345000  0.58290900  1
  O  O24  1  0.48564700  0.57816900  0.22516000  1
  O  O25  1  0.51435300  0.57816900  0.72516000  1
  O  O26  1  0.71535800  0.51551800  0.82670600  1
  O  O27  1  0.28464200  0.51551800  0.32670600  1
  O  O28  1  0.74721100  0.51452500  0.34936700  1
  O  O29  1  0.25278900  0.51452500  0.84936700  1
  O  O30  1  0.04858900  0.50587700  0.47670700  1
  O  O31  1  0.95141100  0.50587700  0.97670700  1
  O  O32  1  0.54262600  0.49093900  0.01964200  1
  O  O33  1  0.45737400  0.49093900  0.51964200  1
  O  O34  1  0.74189800  0.48268700  0.64803000  1
  O  O35  1  0.25810200  0.48268700  0.14803000  1
  O  O36  1  0.77853000  0.48370000  0.17144800  1
  O  O37  1  0.22147000  0.48370000  0.67144800  1
  O  O38  1  0.97964800  0.43010300  0.27768900  1
  O  O39  1  0.02035200  0.43010300  0.77768900  1
  O  O40  1  0.52567800  0.30263700  0.41727300  1
  O  O41  1  0.47432200  0.30263700  0.91727300  1
  O  O42  1  0.71957300  0.29697400  0.99034000  1
  O  O43  1  0.28042700  0.29697400  0.49034000  1
  O  O44  1  0.76187300  0.27696600  0.27228500  1
  O  O45  1  0.23812700  0.27696600  0.77228500  1
  O  O46  1  0.51412600  0.25154900  0.09468900  1
  O  O47  1  0.48587400  0.25154900  0.59468900  1
  O  O48  1  0.00781500  0.23778200  0.09289400  1
  O  O49  1  0.99218500  0.23778200  0.59289400  1
  O  O50  1  0.74044200  0.22298000  0.77667700  1
  O  O51  1  0.25955800  0.22298000  0.27667700  1
  O  O52  1  0.78088900  0.20268700  0.48747300  1
  O  O53  1  0.21911100  0.20268700  0.98747300  1
  O  O54  1  0.02695100  0.19409600  0.41621400  1
  O  O55  1  0.97304900  0.19409600  0.91621400  1
  O  O56  1  0.51861600  0.07405100  0.77508800  1
  O  O57  1  0.48138400  0.07405100  0.27508800  1
  O  O58  1  0.71846900  0.01579200  0.67210800  1
  O  O59  1  0.28153100  0.01579200  0.17210800  1
  O  O60  1  0.24938800  0.02175700  0.65201400  1
  O  O61  1  0.75061200  0.02175700  0.15201400  1
  O  O62  1  0.04813200  0.00352100  0.01773600  1
  O  O63  1  0.95186800  0.00352100  0.51773600  1
loop_
_geom_bond_atom_site_label_1
_geom_bond_atom_site_label_2
_geom_bond_distance
_geom_bond_site_symmetry_2
Li0 O16 1.945403 1_555
Li0 O2 1.972960 1_555
Li0 O63 2.146437 1_465
Li0 O7 2.173296 1_455
Li0 O54 2.348158 1_565
Li0 O4 2.447254 1_455
Li1 O17 1.945403 1_555
Li1 O3 1.972960 1_555
Li1 O62 2.146437 1_666
Li1 O6 2.173296 1_655
Li1 O55 2.348158 1_565
Li1 O5 2.447254 1_655
Li2 O14 1.964520 1_555
Li2 O28 1.965032 1_555
Li2 O24 2.112693 1_555
Li2 O33 2.186168 1_555
Li2 O40 2.394952 1_555
Li2 O27 2.400810 1_555
Li3 O15 1.964520 1_555
Li3 O29 1.965032 1_555
Li3 O25 2.112693 1_555
Li3 O32 2.186168 1_556
Li3 O41 2.394952 1_555
Li3 O26 2.400810 1_555
Li4 O48 1.950634 1_655
Li4 O61 2.009235 1_555
Li4 O44 2.065350 1_555
Li4 O42 2.104961 1_554
Li4 O36 2.461386 1_555
Li5 O49 1.950634 1_455
Li5 O60 2.009235 1_555
Li5 O45 2.065350 1_555
Li5 O43 2.104961 1_555
Li5 O37 2.461386 1_555
Li6 O47 2.022472 1_555
Li6 O60 2.080788 1_555
Li6 O56 2.121984 1_555
Li6 O0 2.142314 1_545
Li6 O9 2.252794 1_545
Li6 O58 2.306590 1_555
Li7 O46 2.022472 1_555
Li7 O61 2.080788 1_555
Li7 O57 2.121984 1_555
Li7 O1 2.142314 1_544
Li7 O8 2.252794 1_545
Li7 O59 2.306590 1_555
Mn0 O22 1.962512 1_555
Mn0 O59 2.028722 1_565
Mn0 O10 2.061113 1_555
Mn0 O18 2.103262 1_555
Mn0 O7 2.117655 1_455
Mn0 O62 2.185165 1_565
Mn1 O23 1.962512 1_555
Mn1 O58 2.028722 1_565
Mn1 O11 2.061113 1_555
Mn1 O19 2.103262 1_555
Mn1 O6 2.117655 1_655
Mn1 O63 2.185165 1_565
Mn2 O8 1.979324 1_555
Mn2 O36 1.987937 1_555
Mn2 O21 2.006649 1_555
Mn2 O24 2.038732 1_555
Mn2 O13 2.158460 1_555
Mn2 O32 2.207063 1_555
Mn3 O9 1.979324 1_555
Mn3 O37 1.987937 1_555
Mn3 O20 2.006649 1_555
Mn3 O25 2.038732 1_555
Mn3 O12 2.158460 1_555
Mn3 O33 2.207063 1_555
Mn4 O54 1.992225 1_555
Mn4 O27 2.001743 1_555
Mn4 O38 2.057949 1_455
Mn4 O51 2.123830 1_555
Mn4 O43 2.134225 1_555
Mn4 O30 2.152585 1_555
Mn5 O55 1.992225 1_555
Mn5 O26 2.001743 1_555
Mn5 O39 2.057949 1_655
Mn5 O50 2.123830 1_555
Mn5 O42 2.134225 1_555
Mn5 O31 2.152585 1_555
Mn6 O40 1.966189 1_555
Mn6 O4 1.992109 1_545
Mn6 O52 2.078551 1_555
Mn6 O57 2.094278 1_555
Mn6 O0 2.168116 1_545
Mn6 O44 2.169168 1_555
Mn7 O41 1.966189 1_555
Mn7 O5 1.992109 1_545
Mn7 O53 2.078551 1_555
Mn7 O56 2.094278 1_555
Mn7 O1 2.168116 1_545
Mn7 O45 2.169168 1_555
O0 S2 1.494957 1_555
O1 S3 1.494957 1_555
O2 S15 1.448613 1_565
O3 S14 1.448613 1_565
O4 S1 1.526825 1_555
O5 S0 1.526825 1_555
O6 S0 1.506127 1_555
O7 S1 1.506127 1_555
O8 S3 1.528359 1_554
O9 S2 1.528359 1_555
O10 S3 1.486216 1_554
O11 S2 1.486216 1_555
O12 S0 1.457251 1_555
O13 S1 1.457251 1_555
O14 S2 1.442959 1_555
O15 S3 1.442959 1_555
O16 S4 1.449983 1_555
O17 S5 1.449983 1_555
O18 S6 1.478987 1_555
O19 S7 1.478987 1_555
O20 S4 1.510688 1_555
O21 S5 1.510688 1_554
O22 S5 1.516999 1_454
O23 S4 1.516999 1_655
O24 S6 1.543313 1_555
O25 S7 1.543313 1_555
O26 S7 1.543990 1_555
O27 S6 1.543990 1_555
O28 S8 1.444913 1_555
O29 S9 1.444913 1_555
O30 S4 1.471725 1_555
O31 S5 1.471725 1_555
O32 S10 1.481147 1_555
O33 S11 1.481147 1_555
O34 S7 1.428368 1_555
O35 S6 1.428368 1_555
O36 S8 1.527473 1_555
O37 S9 1.527473 1_555
O38 S8 1.484924 1_555
O39 S9 1.484924 1_555
O40 S11 1.519870 1_555
O41 S10 1.519870 1_556
O42 S10 1.503955 1_556
O43 S11 1.503955 1_555
O44 S8 1.506278 1_555
O45 S9 1.506278 1_555
O46 S10 1.451222 1_555
O47 S11 1.451222 1_555
O48 S12 1.445267 1_555
O49 S13 1.445267 1_555
O50 S14 1.471617 1_555
O51 S15 1.471617 1_555
O52 S13 1.485194 1_555
O53 S12 1.485194 1_556
O54 S13 1.532100 1_455
O55 S12 1.532100 1_656
O56 S14 1.523224 1_555
O57 S15 1.523224 1_555
O58 S14 1.531820 1_555
O59 S15 1.531820 1_555
O60 S0 1.473319 1_545
O61 S1 1.473319 1_545
O62 S12 1.498468 1_555
O63 S13 1.498468 1_555
