# generated using pymatgen
data_Hf3N2O3
_symmetry_space_group_name_H-M   'P 1'
_cell_length_a   4.01867438
_cell_length_b   5.60342834
_cell_length_c   10.48832682
_cell_angle_alpha   90.00000000
_cell_angle_beta   90.00000000
_cell_angle_gamma   111.01365374
_symmetry_Int_Tables_number   1
_chemical_formula_structural   Hf3N2O3
_chemical_formula_sum   'Hf6 N4 O6'
_cell_volume   220.47271406
_cell_formula_units_Z   2
loop_
 _symmetry_equiv_pos_site_id
 _symmetry_equiv_pos_as_xyz
  1  'x, y, z'
loop_
 _atom_site_type_symbol
 _atom_site_label
 _atom_site_symmetry_multiplicity
 _atom_site_fract_x
 _atom_site_fract_y
 _atom_site_fract_z
 _atom_site_occupancy
  Hf  Hf0  1  0.19179293  0.38358686  0.25000000  1
  Hf  Hf1  1  0.14379781  0.28759762  0.94267023  1
  Hf  Hf2  1  0.14379781  0.28759762  0.55732977  1
  Hf  Hf3  1  0.80820707  0.61641314  0.75000000  1
  Hf  Hf4  1  0.85620219  0.71240238  0.05732977  1
  Hf  Hf5  1  0.85620219  0.71240238  0.44267023  1
  N  N0  1  0.30094723  0.60189446  0.42104945  1
  N  N1  1  0.30094723  0.60189446  0.07895055  1
  N  N2  1  0.69905277  0.39810554  0.57895055  1
  N  N3  1  0.69905277  0.39810554  0.92104945  1
  O  O0  1  0.24831020  0.49661840  0.75000000  1
  O  O1  1  0.04358372  0.08716644  0.11602812  1
  O  O2  1  0.04358372  0.08716644  0.38397188  1
  O  O3  1  0.75168980  0.50338160  0.25000000  1
  O  O4  1  0.95641628  0.91283356  0.88397188  1
  O  O5  1  0.95641628  0.91283356  0.61602812  1
loop_
_geom_bond_atom_site_label_1
_geom_bond_atom_site_label_2
_geom_bond_distance
_geom_bond_site_symmetry_2
Hf0 O2 2.092485 1_555
Hf0 O1 2.092485 1_555
Hf0 O3 2.104776 1_555
Hf0 O3 2.104779 1_455
Hf0 N0 2.126615 1_555
Hf0 N1 2.126615 1_555
Hf1 O4 2.054707 1_445
Hf1 O1 2.098842 1_556
Hf1 N3 2.103087 1_455
Hf1 N3 2.103095 1_555
Hf1 N1 2.178494 1_556
Hf1 O0 2.297603 1_555
Hf2 O5 2.054707 1_445
Hf2 O2 2.098842 1_555
Hf2 N2 2.103087 1_455
Hf2 N2 2.103095 1_555
Hf2 N0 2.178494 1_555
Hf2 O0 2.297603 1_555
Hf3 O5 2.092485 1_555
Hf3 O4 2.092485 1_555
Hf3 O0 2.104776 1_555
Hf3 O0 2.104779 1_655
Hf3 N2 2.126615 1_555
Hf3 N3 2.126615 1_555
Hf4 O1 2.054707 1_665
Hf4 O4 2.098842 1_554
Hf4 N1 2.103087 1_655
Hf4 N1 2.103095 1_555
Hf4 N3 2.178494 1_554
Hf4 O3 2.297603 1_555
Hf5 O2 2.054707 1_665
Hf5 O5 2.098842 1_555
Hf5 N0 2.103087 1_655
Hf5 N0 2.103095 1_555
Hf5 N2 2.178494 1_555
Hf5 O3 2.297603 1_555
