# generated using pymatgen
data_NaMnO4
_symmetry_space_group_name_H-M   'P 1'
_cell_length_a   5.48180600
_cell_length_b   6.43872000
_cell_length_c   11.04898100
_cell_angle_alpha   90.00000000
_cell_angle_beta   90.00000000
_cell_angle_gamma   90.00000000
_symmetry_Int_Tables_number   1
_chemical_formula_structural   NaMnO4
_chemical_formula_sum   'Na4 Mn4 O16'
_cell_volume   389.98277747
_cell_formula_units_Z   4
loop_
 _symmetry_equiv_pos_site_id
 _symmetry_equiv_pos_as_xyz
  1  'x, y, z'
loop_
 _atom_site_type_symbol
 _atom_site_label
 _atom_site_symmetry_multiplicity
 _atom_site_fract_x
 _atom_site_fract_y
 _atom_site_fract_z
 _atom_site_occupancy
  Na  Na0  1  0.75000000  0.43035100  0.19747600  1
  Na  Na1  1  0.75000000  0.06964900  0.69747600  1
  Na  Na2  1  0.25000000  0.93035100  0.30252400  1
  Na  Na3  1  0.25000000  0.56964900  0.80252400  1
  Mn  Mn0  1  0.50000000  0.50000000  0.50000000  1
  Mn  Mn1  1  0.00000000  0.50000000  0.50000000  1
  Mn  Mn2  1  0.50000000  0.00000000  0.00000000  1
  Mn  Mn3  1  0.00000000  0.00000000  0.00000000  1
  O  O0  1  0.75000000  0.56019500  0.38671300  1
  O  O1  1  0.62756700  0.75833000  0.09671100  1
  O  O2  1  0.87243300  0.75833000  0.09671100  1
  O  O3  1  0.25000000  0.65729500  0.42578200  1
  O  O4  1  0.25000000  0.84270500  0.92578200  1
  O  O5  1  0.62756700  0.74167000  0.59671100  1
  O  O6  1  0.87243300  0.74167000  0.59671100  1
  O  O7  1  0.75000000  0.93980500  0.88671300  1
  O  O8  1  0.25000000  0.06019500  0.11328700  1
  O  O9  1  0.37243300  0.25833000  0.40328900  1
  O  O10  1  0.12756700  0.25833000  0.40328900  1
  O  O11  1  0.75000000  0.15729500  0.07421800  1
  O  O12  1  0.75000000  0.34270500  0.57421800  1
  O  O13  1  0.37243300  0.24167000  0.90328900  1
  O  O14  1  0.12756700  0.24167000  0.90328900  1
  O  O15  1  0.25000000  0.43980500  0.61328700  1
loop_
_geom_bond_atom_site_label_1
_geom_bond_atom_site_label_2
_geom_bond_distance
_geom_bond_site_symmetry_2
Na0 O11 2.223900 1_555
Na0 O0 2.251823 1_555
Na0 O2 2.479828 1_555
Na0 O1 2.479828 1_555
Na1 O12 2.223900 1_555
Na1 O7 2.251823 1_545
Na1 O6 2.479828 1_545
Na1 O5 2.479828 1_545
Na2 O3 2.223900 1_555
Na2 O8 2.251823 1_565
Na2 O9 2.479828 1_565
Na2 O10 2.479828 1_565
Na3 O4 2.223900 1_555
Na3 O15 2.251823 1_555
Na3 O13 2.479828 1_555
Na3 O14 2.479828 1_555
Mn0 O3 1.891114 1_555
Mn0 O12 1.891114 1_555
Mn0 O0 1.896081 1_555
Mn0 O15 1.896081 1_555
Mn0 O9 2.012986 1_555
Mn0 O5 2.012986 1_555
Mn1 O3 1.891114 1_555
Mn1 O12 1.891114 1_455
Mn1 O15 1.896081 1_555
Mn1 O0 1.896081 1_455
Mn1 O10 2.012986 1_555
Mn1 O6 2.012986 1_455
Mn2 O4 1.891114 1_544
Mn2 O11 1.891114 1_555
Mn2 O8 1.896081 1_555
Mn2 O7 1.896081 1_544
Mn2 O13 2.012986 1_554
Mn2 O1 2.012986 1_545
Mn3 O4 1.891114 1_544
Mn3 O11 1.891114 1_455
Mn3 O8 1.896081 1_555
Mn3 O7 1.896081 1_444
Mn3 O14 2.012986 1_554
Mn3 O2 2.012986 1_445
O1 O2 1.342308 1_555
O5 O6 1.342308 1_555
O10 O9 1.342308 1_555
O13 O14 1.342308 1_555
