# generated using pymatgen
data_Li10Mn3Cr5O16
_symmetry_space_group_name_H-M   'P 1'
_cell_length_a   5.99742700
_cell_length_b   6.03749453
_cell_length_c   9.86964589
_cell_angle_alpha   91.14494206
_cell_angle_beta   89.69592529
_cell_angle_gamma   119.57416551
_symmetry_Int_Tables_number   1
_chemical_formula_structural   Li10Mn3Cr5O16
_chemical_formula_sum   'Li10 Mn3 Cr5 O16'
_cell_volume   310.74836637
_cell_formula_units_Z   1
loop_
 _symmetry_equiv_pos_site_id
 _symmetry_equiv_pos_as_xyz
  1  'x, y, z'
loop_
 _atom_site_type_symbol
 _atom_site_label
 _atom_site_symmetry_multiplicity
 _atom_site_fract_x
 _atom_site_fract_y
 _atom_site_fract_z
 _atom_site_occupancy
  Li  Li0  1  0.17755800  0.79746000  0.05696700  1
  Li  Li1  1  0.65592600  0.33000500  0.77424700  1
  Li  Li2  1  0.38106800  0.19106300  0.55797500  1
  Li  Li3  1  0.33056900  0.66707800  0.27469900  1
  Li  Li4  1  0.79094000  0.59360100  0.55354500  1
  Li  Li5  1  0.58234800  0.80197200  0.04973500  1
  Li  Li6  1  0.79300900  0.17549900  0.55997800  1
  Li  Li7  1  0.18956000  0.39025500  0.05516100  1
  Li  Li8  1  0.98544600  0.97065200  0.48663600  1
  Li  Li9  1  0.98158300  0.98475600  0.99004900  1
  Mn  Mn0  1  0.32742600  0.15645000  0.28869300  1
  Mn  Mn1  1  0.14960300  0.31870000  0.78815700  1
  Mn  Mn2  1  0.82313500  0.15440800  0.28692200  1
  Cr  Cr0  1  0.81822900  0.64479100  0.28585400  1
  Cr  Cr1  1  0.32019600  0.64243800  0.53040500  1
  Cr  Cr2  1  0.64718400  0.31727400  0.02883500  1
  Cr  Cr3  1  0.15175400  0.81567900  0.78644700  1
  Cr  Cr4  1  0.64442500  0.81476100  0.78668300  1
  O  O0  1  0.14260100  0.79329100  0.40902500  1
  O  O1  1  0.81849000  0.65553300  0.90238500  1
  O  O2  1  0.47122200  0.96037800  0.66439000  1
  O  O3  1  0.51016800  0.49852600  0.15638000  1
  O  O4  1  0.65019300  0.80390600  0.41128300  1
  O  O5  1  0.31401000  0.14186200  0.91327700  1
  O  O6  1  0.00619300  0.50455200  0.65821700  1
  O  O7  1  0.32324300  0.66940300  0.90328400  1
  O  O8  1  0.64133000  0.32339600  0.40190200  1
  O  O9  1  0.96475900  0.48552000  0.15521800  1
  O  O10  1  0.48837200  0.50776100  0.66041000  1
  O  O11  1  0.48791200  0.01780900  0.15880700  1
  O  O12  1  0.80119700  0.13549900  0.91560300  1
  O  O13  1  0.16437600  0.30555300  0.41816800  1
  O  O14  1  0.97283400  0.96527800  0.67591600  1
  O  O15  1  0.00496300  0.97705400  0.18116300  1
loop_
_geom_bond_atom_site_label_1
_geom_bond_atom_site_label_2
_geom_bond_distance
_geom_bond_site_symmetry_2
Li0 O11 1.940823 1_565
Li0 O9 1.950215 1_455
Li0 O7 2.065844 1_554
Li0 O15 2.188841 1_555
Li0 O5 2.330312 1_564
Li0 O1 2.420859 1_454
Li1 O1 2.105935 1_555
Li1 O10 2.132745 1_555
Li1 O6 2.161573 1_655
Li1 O2 2.204247 1_545
Li1 O5 2.260829 1_555
Li1 O12 2.274388 1_555
Li2 O10 1.951224 1_555
Li2 O2 2.035445 1_545
Li2 O8 2.059173 1_555
Li2 O13 2.239332 1_555
Li2 O14 2.438513 1_445
Li2 O0 2.542613 1_545
Li3 O0 2.097820 1_555
Li3 O3 2.140235 1_555
Li3 O4 2.143365 1_555
Li3 O11 2.189896 1_565
Li3 O9 2.237718 1_455
Li3 O13 2.392431 1_555
Li4 O6 1.935031 1_655
Li4 O10 1.935748 1_555
Li4 O8 2.044071 1_555
Li4 O14 2.274544 1_555
Li4 O4 2.331938 1_555
Li4 O0 2.337314 1_655
Li5 O11 1.960545 1_565
Li5 O7 1.973459 1_554
Li5 O3 1.985207 1_555
Li5 O12 2.238151 1_564
Li5 O1 2.462748 1_554
Li5 O15 2.561175 1_655
Li6 O6 1.987585 1_655
Li6 O2 2.007856 1_545
Li6 O8 2.220690 1_555
Li6 O14 2.346418 1_545
Li6 O13 2.412601 1_655
Li6 O4 2.430141 1_545
Li7 O9 1.962741 1_455
Li7 O3 1.968789 1_555
Li7 O7 2.117674 1_554
Li7 O5 2.403524 1_554
Li7 O12 2.470042 1_454
Li7 O15 2.525636 1_545
Li8 O14 1.869538 1_555
Li8 O0 1.891443 1_655
Li8 O4 1.896633 1_555
Li8 O13 1.897803 1_665
Li9 O12 1.882985 1_565
Li9 O15 1.895370 1_656
Li9 O5 1.895969 1_665
Li9 O1 1.917638 1_555
Mn0 O8 1.978094 1_555
Mn0 O15 1.986906 1_545
Mn0 O11 2.002419 1_555
Mn0 O13 2.051655 1_555
Mn0 O3 2.242805 1_555
Mn0 O0 2.266626 1_545
Mn1 O14 2.142237 1_445
Mn1 O7 2.144454 1_555
Mn1 O6 2.159951 1_555
Mn1 O5 2.177578 1_555
Mn1 O10 2.182122 1_555
Mn1 O12 2.217676 1_455
Mn2 O15 2.126298 1_645
Mn2 O8 2.134556 1_555
Mn2 O11 2.160932 1_555
Mn2 O9 2.196249 1_555
Mn2 O13 2.199210 1_655
Mn2 O4 2.232516 1_545
Cr0 O9 2.032712 1_555
Cr0 O3 2.048352 1_555
Cr0 O15 2.049139 1_655
Cr0 O8 2.060695 1_555
Cr0 O0 2.079924 1_655
Cr0 O4 2.089464 1_555
Cr1 O10 2.046900 1_555
Cr1 O13 2.069309 1_555
Cr1 O6 2.073650 1_555
Cr1 O4 2.089543 1_555
Cr1 O0 2.100913 1_555
Cr1 O2 2.109231 1_555
Cr2 O11 2.049829 1_555
Cr2 O12 2.060878 1_554
Cr2 O3 2.068579 1_555
Cr2 O9 2.068860 1_555
Cr2 O5 2.074163 1_554
Cr2 O1 2.191107 1_554
Cr3 O7 2.029123 1_555
Cr3 O14 2.041026 1_455
Cr3 O6 2.047031 1_555
Cr3 O2 2.061729 1_555
Cr3 O1 2.086013 1_455
Cr3 O5 2.101162 1_565
Cr4 O10 2.018005 1_555
Cr4 O14 2.037252 1_555
Cr4 O7 2.037939 1_555
Cr4 O2 2.065424 1_555
Cr4 O1 2.089298 1_555
Cr4 O12 2.090426 1_565
