# generated using pymatgen
data_Zn2Ni3O5
_symmetry_space_group_name_H-M   'P 1'
_cell_length_a   5.21485767
_cell_length_b   5.21485767
_cell_length_c   6.73247299
_cell_angle_alpha   50.04836320
_cell_angle_beta   50.04836320
_cell_angle_gamma   48.22385114
_symmetry_Int_Tables_number   1
_chemical_formula_structural   Zn2Ni3O5
_chemical_formula_sum   'Zn2 Ni3 O5'
_cell_volume   97.03397016
_cell_formula_units_Z   1
loop_
 _symmetry_equiv_pos_site_id
 _symmetry_equiv_pos_as_xyz
  1  'x, y, z'
loop_
 _atom_site_type_symbol
 _atom_site_label
 _atom_site_symmetry_multiplicity
 _atom_site_fract_x
 _atom_site_fract_y
 _atom_site_fract_z
 _atom_site_occupancy
  Zn  Zn0  1  0.59911400  0.59911400  0.20029400  1
  Zn  Zn1  1  0.40088600  0.40088600  0.79970600  1
  Ni  Ni0  1  0.00000000  0.00000000  0.00000000  1
  Ni  Ni1  1  0.79942700  0.79942700  0.59954600  1
  Ni  Ni2  1  0.20057300  0.20057300  0.40045400  1
  O  O0  1  0.09441500  0.09441500  0.20727100  1
  O  O1  1  0.50000000  0.50000000  0.00000000  1
  O  O2  1  0.29360800  0.29360800  0.60597700  1
  O  O3  1  0.90558500  0.90558500  0.79272900  1
  O  O4  1  0.70639200  0.70639200  0.39402300  1
loop_
_geom_bond_atom_site_label_1
_geom_bond_atom_site_label_2
_geom_bond_distance
_geom_bond_site_symmetry_2
Ni0 O4 2.101609 1_445
Ni0 O2 2.101609 1_554
Ni0 O0 2.126002 1_555
Ni0 O3 2.126002 1_444
Ni0 O1 2.130376 1_455
Ni0 O1 2.130376 1_545
Ni1 O4 2.103158 1_555
Ni1 O0 2.103696 1_665
Ni1 O2 2.130744 1_565
Ni1 O2 2.130744 1_655
Ni1 O3 2.135942 1_555
Ni1 O1 2.140249 1_556
Ni2 O2 2.103158 1_555
Ni2 O3 2.103696 1_445
Ni2 O4 2.130744 1_545
Ni2 O4 2.130744 1_455
Ni2 O0 2.135942 1_555
Ni2 O1 2.140249 1_555
O0 Zn0 2.130670 1_545
O0 Zn0 2.130670 1_455
O0 Zn1 2.185629 1_554
O1 Zn1 2.121056 1_554
O1 Zn0 2.121056 1_555
O2 Zn1 2.149019 1_555
O2 Zn0 2.177476 1_555
O3 Zn1 2.130670 1_655
O3 Zn1 2.130670 1_565
O3 Zn0 2.185629 1_556
O4 Zn0 2.149019 1_555
O4 Zn1 2.177476 1_555
