# generated using pymatgen
data_Fe2O3F
_symmetry_space_group_name_H-M   'P 1'
_cell_length_a   4.65740100
_cell_length_b   5.53865802
_cell_length_c   12.99020629
_cell_angle_alpha   101.56037265
_cell_angle_beta   90.38409904
_cell_angle_gamma   90.75982011
_symmetry_Int_Tables_number   1
_chemical_formula_structural   Fe2O3F
_chemical_formula_sum   'Fe10 O15 F5'
_cell_volume   328.25062652
_cell_formula_units_Z   5
loop_
 _symmetry_equiv_pos_site_id
 _symmetry_equiv_pos_as_xyz
  1  'x, y, z'
loop_
 _atom_site_type_symbol
 _atom_site_label
 _atom_site_symmetry_multiplicity
 _atom_site_fract_x
 _atom_site_fract_y
 _atom_site_fract_z
 _atom_site_occupancy
  Fe  Fe0  1  0.52456200  0.50764200  0.00856600  1
  Fe  Fe1  1  0.47162600  0.89421600  0.59233400  1
  Fe  Fe2  1  0.50085200  0.69831500  0.79956400  1
  Fe  Fe3  1  0.51531600  0.08810000  0.39520200  1
  Fe  Fe4  1  0.50214000  0.29999000  0.20109000  1
  Fe  Fe5  1  0.98269500  0.40380400  0.60682900  1
  Fe  Fe6  1  0.01289000  0.80012200  0.19855800  1
  Fe  Fe7  1  0.99941400  0.19992700  0.80018200  1
  Fe  Fe8  1  0.96398000  0.61811400  0.40727500  1
  Fe  Fe9  1  0.02253600  0.99236100  0.99151400  1
  O  O0  1  0.79780300  0.45324100  0.74605700  1
  O  O1  1  0.81401600  0.85506600  0.33223600  1
  O  O2  1  0.81504200  0.25002500  0.93430000  1
  O  O3  1  0.79689100  0.65258900  0.54419800  1
  O  O4  1  0.69518800  0.75458600  0.93798200  1
  O  O5  1  0.68899600  0.15137000  0.53518200  1
  O  O6  1  0.68854700  0.35449000  0.33835700  1
  O  O7  1  0.70752100  0.55554700  0.14588700  1
  O  O8  1  0.30225400  0.64444100  0.66218800  1
  O  O9  1  0.31149500  0.04290400  0.25868400  1
  O  O10  1  0.31442400  0.24891500  0.06557700  1
  O  O11  1  0.29660300  0.84465400  0.45394100  1
  O  O12  1  0.20262300  0.94541200  0.85310400  1
  O  O13  1  0.19637300  0.74918800  0.06268500  1
  O  O14  1  0.18559800  0.14987000  0.66546900  1
  F  F0  1  0.81029300  0.05895000  0.13611900  1
  F  F1  1  0.69024500  0.95660200  0.73475200  1
  F  F2  1  0.30724400  0.44431800  0.86641500  1
  F  F3  1  0.18816300  0.34682200  0.46073500  1
  F  F4  1  0.19467000  0.53841900  0.26501800  1
loop_
_geom_bond_atom_site_label_1
_geom_bond_atom_site_label_2
_geom_bond_distance
_geom_bond_site_symmetry_2
Fe0 O7 1.939707 1_555
Fe0 O4 1.956144 1_554
Fe0 O10 1.989391 1_555
Fe0 O13 2.076551 1_555
Fe0 O2 2.076989 1_554
Fe1 O11 1.936071 1_555
Fe1 O8 1.960435 1_555
Fe1 O5 2.000084 1_565
Fe1 O3 2.051334 1_555
Fe1 O14 2.051832 1_565
Fe2 O8 1.971367 1_555
Fe2 O4 1.973707 1_555
Fe2 O0 1.980626 1_555
Fe2 O12 1.991947 1_555
Fe3 O6 1.945826 1_555
Fe3 O5 1.949602 1_555
Fe3 O11 1.955575 1_545
Fe3 O9 1.975329 1_555
Fe3 O1 1.977375 1_545
Fe4 O10 1.927794 1_555
Fe4 O9 1.943708 1_555
Fe4 O6 1.944465 1_555
Fe4 O7 1.952636 1_555
Fe5 O3 1.944479 1_555
Fe5 O14 1.976460 1_655
Fe5 O0 1.978934 1_555
Fe5 O8 2.014320 1_655
Fe5 O5 2.025529 1_555
Fe6 O13 1.937056 1_555
Fe6 O1 1.945047 1_455
Fe6 O9 1.966525 1_565
Fe6 O7 1.972367 1_455
Fe7 O2 1.918932 1_555
Fe7 O14 1.929605 1_655
Fe7 O0 1.940607 1_555
Fe7 O12 1.941800 1_645
Fe8 O1 1.920497 1_555
Fe8 O3 1.921473 1_555
Fe8 O11 1.993167 1_655
Fe8 O6 1.997507 1_555
Fe9 O13 1.960158 1_556
Fe9 O12 1.960211 1_555
Fe9 O2 1.993737 1_465
Fe9 O4 2.026770 1_455
Fe9 O10 2.043560 1_566
F0 Fe6 2.023599 1_645
F0 Fe4 2.042026 1_555
F0 Fe9 2.097288 1_644
F1 Fe2 1.998156 1_555
F1 Fe7 2.021161 1_565
F1 Fe1 2.070740 1_555
F2 Fe2 2.003200 1_555
F2 Fe7 2.023156 1_455
F2 Fe0 2.064753 1_556
F3 Fe8 2.068899 1_455
F3 Fe5 2.099825 1_455
F3 Fe3 2.164736 1_555
F4 Fe6 2.021734 1_555
F4 Fe4 2.027502 1_555
F4 Fe8 2.115747 1_455
