# generated using pymatgen
data_MnH4(SO5)2
_symmetry_space_group_name_H-M   'P 1'
_cell_length_a   6.23088900
_cell_length_b   7.58030206
_cell_length_c   10.22422708
_cell_angle_alpha   70.40257939
_cell_angle_beta   73.07643778
_cell_angle_gamma   66.16747424
_symmetry_Int_Tables_number   1
_chemical_formula_structural   MnH4(SO5)2
_chemical_formula_sum   'Mn2 H8 S4 O20'
_cell_volume   409.30749387
_cell_formula_units_Z   2
loop_
 _symmetry_equiv_pos_site_id
 _symmetry_equiv_pos_as_xyz
  1  'x, y, z'
loop_
 _atom_site_type_symbol
 _atom_site_label
 _atom_site_symmetry_multiplicity
 _atom_site_fract_x
 _atom_site_fract_y
 _atom_site_fract_z
 _atom_site_occupancy
  Mn  Mn0  1  0.52230900  0.97822200  0.75275700  1
  Mn  Mn1  1  0.47769100  0.02177800  0.24724300  1
  H  H0  1  0.76394600  0.60081200  0.79889900  1
  H  H1  1  0.94990800  0.72204700  0.70476100  1
  H  H2  1  0.25920000  0.31183700  0.63876400  1
  H  H3  1  0.25601500  0.29702600  0.80701000  1
  H  H4  1  0.74398500  0.70297400  0.19299000  1
  H  H5  1  0.74080000  0.68816300  0.36123600  1
  H  H6  1  0.05009200  0.27795300  0.29523900  1
  H  H7  1  0.23605400  0.39918800  0.20110100  1
  S  S0  1  0.40898400  0.75902900  0.08585400  1
  S  S1  1  0.60592900  0.22809800  0.43039900  1
  S  S2  1  0.39407100  0.77190200  0.56960100  1
  S  S3  1  0.59101600  0.24097100  0.91414600  1
  O  O0  1  0.35500500  0.88778300  0.94077900  1
  O  O1  1  0.79401200  0.72891600  0.77227300  1
  O  O2  1  0.26329000  0.63346500  0.13615900  1
  O  O3  1  0.25105400  0.22706200  0.73848300  1
  O  O4  1  0.35576300  0.34901300  0.46109000  1
  O  O5  1  0.65517300  0.12794800  0.31330600  1
  O  O6  1  0.31327100  0.90377800  0.18096200  1
  O  O7  1  0.22449400  0.66609600  0.61489100  1
  O  O8  1  0.68005900  0.05917100  0.56009300  1
  O  O9  1  0.33448800  0.34560400  0.91880400  1
  O  O10  1  0.66551200  0.65439600  0.08119600  1
  O  O11  1  0.31994100  0.94082900  0.43990700  1
  O  O12  1  0.77550600  0.33390400  0.38510900  1
  O  O13  1  0.68672900  0.09622200  0.81903800  1
  O  O14  1  0.34482700  0.87205200  0.68669400  1
  O  O15  1  0.64423700  0.65098700  0.53891000  1
  O  O16  1  0.74894600  0.77293800  0.26151700  1
  O  O17  1  0.73671000  0.36653500  0.86384100  1
  O  O18  1  0.20598800  0.27108400  0.22772700  1
  O  O19  1  0.64499500  0.11221700  0.05922100  1
loop_
_geom_bond_atom_site_label_1
_geom_bond_atom_site_label_2
_geom_bond_distance
_geom_bond_site_symmetry_2
Mn0 O8 1.942234 1_565
Mn0 O0 1.943965 1_555
Mn0 O3 1.954105 1_565
Mn0 O1 1.958446 1_555
Mn0 O14 1.961031 1_555
Mn0 O13 1.964754 1_565
Mn1 O11 1.942234 1_545
Mn1 O19 1.943965 1_555
Mn1 O16 1.954105 1_545
Mn1 O18 1.958446 1_555
Mn1 O5 1.961031 1_555
Mn1 O6 1.964754 1_545
H0 O1 0.996074 1_555
H1 O1 1.007773 1_555
H1 O7 1.646560 1_655
H2 O3 1.005853 1_555
H2 O4 1.702549 1_555
H3 O3 1.023834 1_555
H3 O9 1.560246 1_555
H4 O16 1.023834 1_555
H4 O10 1.560246 1_555
H5 O16 1.005853 1_555
H5 O15 1.702549 1_555
H6 O18 1.007773 1_555
H6 O12 1.646560 1_455
H7 O18 0.996074 1_555
O0 S0 1.523104 1_556
O2 S0 1.446594 1_555
O4 S1 1.456667 1_555
O5 S1 1.520300 1_555
O6 S0 1.534430 1_555
O7 S2 1.457735 1_555
O8 S1 1.533285 1_555
O9 S3 1.463806 1_555
O10 S0 1.463806 1_555
O11 S2 1.533285 1_555
O12 S1 1.457735 1_555
O13 S3 1.534430 1_555
O14 S2 1.520300 1_555
O15 S2 1.456667 1_555
O17 S3 1.446594 1_555
O19 S3 1.523104 1_554
