# generated using pymatgen
data_Li2Ni3TeO8
_symmetry_space_group_name_H-M   'P 1'
_cell_length_a   6.01989027
_cell_length_b   6.01993459
_cell_length_c   6.01954135
_cell_angle_alpha   58.77438770
_cell_angle_beta   58.77458186
_cell_angle_gamma   58.77670909
_symmetry_Int_Tables_number   1
_chemical_formula_structural   Li2Ni3TeO8
_chemical_formula_sum   'Li2 Ni3 Te1 O8'
_cell_volume   149.93624130
_cell_formula_units_Z   1
loop_
 _symmetry_equiv_pos_site_id
 _symmetry_equiv_pos_as_xyz
  1  'x, y, z'
loop_
 _atom_site_type_symbol
 _atom_site_label
 _atom_site_symmetry_multiplicity
 _atom_site_fract_x
 _atom_site_fract_y
 _atom_site_fract_z
 _atom_site_occupancy
  Li  Li0  1  0.13454100  0.13454200  0.13453600  1
  Li  Li1  1  0.86547100  0.86547000  0.86547400  1
  Ni  Ni0  1  0.99999900  0.49999600  0.49999800  1
  Ni  Ni1  1  0.49999700  0.00000200  0.49999600  1
  Ni  Ni2  1  0.50000000  0.49999400  0.00000500  1
  Te  Te0  1  0.49999900  0.49999900  0.49999900  1
  O  O0  1  0.27036200  0.27037000  0.27035000  1
  O  O1  1  0.26752000  0.26752100  0.72383200  1
  O  O2  1  0.26752000  0.72384800  0.26752400  1
  O  O3  1  0.72384500  0.26752100  0.26752400  1
  O  O4  1  0.27615400  0.73247700  0.73247300  1
  O  O5  1  0.73247700  0.27615100  0.73247300  1
  O  O6  1  0.73247700  0.73247700  0.27616600  1
  O  O7  1  0.72963800  0.72963000  0.72964900  1
loop_
_geom_bond_atom_site_label_1
_geom_bond_atom_site_label_2
_geom_bond_distance
_geom_bond_site_symmetry_2
Li0 O1 1.988510 1_554
Li0 O3 1.988634 1_455
Li0 O2 1.988635 1_545
Li0 O0 2.021074 1_555
Li1 O6 1.988444 1_556
Li1 O4 1.988564 1_655
Li1 O5 1.988565 1_565
Li1 O7 2.021248 1_555
Ni0 O0 1.945966 1_655
Ni0 O7 1.946008 1_555
Ni0 O6 2.079802 1_555
Ni0 O1 2.079808 1_655
Ni0 O5 2.079859 1_555
Ni0 O2 2.079885 1_655
Ni1 O0 1.945985 1_555
Ni1 O7 1.946038 1_545
Ni1 O1 2.079822 1_555
Ni1 O6 2.079823 1_545
Ni1 O3 2.079861 1_555
Ni1 O4 2.079865 1_545
Ni2 O0 1.945877 1_555
Ni2 O7 1.945930 1_554
Ni2 O3 2.079824 1_555
Ni2 O2 2.079873 1_555
Ni2 O4 2.079884 1_554
Ni2 O5 2.079887 1_554
O1 Te0 1.962920 1_555
O2 Te0 1.962892 1_555
O3 Te0 1.962903 1_555
O4 Te0 1.962899 1_555
O5 Te0 1.962884 1_555
O6 Te0 1.962915 1_555
