# generated using pymatgen
data_LiCa3Fe5Sn3O16
_symmetry_space_group_name_H-M   'P 1'
_cell_length_a   9.44979349
_cell_length_b   11.04747098
_cell_length_c   3.12983800
_cell_angle_alpha   90.00000000
_cell_angle_beta   90.00000000
_cell_angle_gamma   89.85482731
_symmetry_Int_Tables_number   1
_chemical_formula_structural   LiCa3Fe5Sn3O16
_chemical_formula_sum   'Li1 Ca3 Fe5 Sn3 O16'
_cell_volume   326.74251839
_cell_formula_units_Z   1
loop_
 _symmetry_equiv_pos_site_id
 _symmetry_equiv_pos_as_xyz
  1  'x, y, z'
loop_
 _atom_site_type_symbol
 _atom_site_label
 _atom_site_symmetry_multiplicity
 _atom_site_fract_x
 _atom_site_fract_y
 _atom_site_fract_z
 _atom_site_occupancy
  Li  Li0  1  0.22962000  0.35750300  0.75000000  1
  Ca  Ca0  1  0.26078700  0.85120000  0.25000000  1
  Ca  Ca1  1  0.73893900  0.14702800  0.75000000  1
  Ca  Ca2  1  0.74722000  0.66058200  0.25000000  1
  Fe  Fe0  1  0.42763900  0.10098200  0.25000000  1
  Fe  Fe1  1  0.43254900  0.61790100  0.25000000  1
  Fe  Fe2  1  0.58521800  0.89103000  0.75000000  1
  Fe  Fe3  1  0.91918500  0.39257600  0.25000000  1
  Fe  Fe4  1  0.92605900  0.88468400  0.25000000  1
  Sn  Sn0  1  0.07240300  0.11156300  0.75000000  1
  Sn  Sn1  1  0.08824200  0.60199600  0.75000000  1
  Sn  Sn2  1  0.55456700  0.38886400  0.75000000  1
  O  O0  1  0.02037100  0.71082700  0.25000000  1
  O  O1  1  0.09094600  0.92864200  0.75000000  1
  O  O2  1  0.12149100  0.47047800  0.25000000  1
  O  O3  1  0.21066600  0.16078000  0.25000000  1
  O  O4  1  0.28432800  0.67798600  0.75000000  1
  O  O5  1  0.38582400  0.98276700  0.75000000  1
  O  O6  1  0.41269900  0.42360400  0.25000000  1
  O  O7  1  0.48758800  0.21007600  0.75000000  1
  O  O8  1  0.52145300  0.79065900  0.25000000  1
  O  O9  1  0.59248300  0.56910000  0.75000000  1
  O  O10  1  0.62364600  0.02481300  0.25000000  1
  O  O11  1  0.70677000  0.33445800  0.25000000  1
  O  O12  1  0.78159100  0.82668100  0.75000000  1
  O  O13  1  0.88553900  0.51758100  0.75000000  1
  O  O14  1  0.91856500  0.08056900  0.25000000  1
  O  O15  1  0.97360900  0.28506900  0.75000000  1
loop_
_geom_bond_atom_site_label_1
_geom_bond_atom_site_label_2
_geom_bond_distance
_geom_bond_site_symmetry_2
Li0 O2 2.245952 1_556
Li0 O2 2.245952 1_555
Li0 O6 2.445760 1_556
Li0 O6 2.445760 1_555
Li0 O15 2.550084 1_455
Li0 O3 2.684441 1_556
Li0 O3 2.684441 1_555
Ca0 O1 2.397887 1_554
Ca0 O1 2.397887 1_555
Ca0 O5 2.442622 1_554
Ca0 O5 2.442622 1_555
Ca0 O4 2.481547 1_554
Ca0 O4 2.481547 1_555
Ca0 O8 2.550790 1_555
Ca0 O0 2.753938 1_555
Ca1 O10 2.338028 1_556
Ca1 O10 2.338028 1_555
Ca1 O14 2.421358 1_555
Ca1 O14 2.421358 1_556
Ca1 O7 2.473541 1_555
Ca1 O11 2.612602 1_555
Ca1 O11 2.612602 1_556
Ca1 O15 2.694522 1_555
Ca2 O9 2.369807 1_555
Ca2 O9 2.369807 1_554
Ca2 O12 2.434053 1_555
Ca2 O12 2.434053 1_554
Ca2 O8 2.569263 1_555
Ca2 O13 2.577353 1_555
Ca2 O13 2.577353 1_554
Ca2 O0 2.641604 1_655
Fe0 O10 2.032467 1_555
Fe0 O7 2.055699 1_555
Fe0 O7 2.055699 1_554
Fe0 O5 2.076849 1_544
Fe0 O5 2.076849 1_545
Fe0 O3 2.152553 1_555
Fe1 O8 2.087212 1_555
Fe1 O6 2.155144 1_555
Fe1 O4 2.201526 1_555
Fe1 O4 2.201526 1_554
Fe1 O9 2.240460 1_554
Fe1 O9 2.240460 1_555
Fe2 O12 1.985510 1_555
Fe2 O8 2.011214 1_555
Fe2 O8 2.011214 1_556
Fe2 O5 2.137232 1_555
Fe2 O10 2.183561 1_566
Fe2 O10 2.183561 1_565
Fe3 O15 2.030015 1_555
Fe3 O15 2.030015 1_554
Fe3 O2 2.098521 1_655
Fe3 O11 2.109012 1_555
Fe3 O13 2.110680 1_554
Fe3 O13 2.110680 1_555
Fe4 O0 2.115331 1_655
Fe4 O14 2.165013 1_565
Fe4 O12 2.174342 1_554
Fe4 O12 2.174342 1_555
Fe4 O1 2.261960 1_655
Fe4 O1 2.261960 1_654
O0 Sn1 2.074116 1_554
O0 Sn1 2.074116 1_555
O1 Sn0 2.027955 1_565
O2 Sn1 2.157873 1_554
O2 Sn1 2.157873 1_555
O3 Sn0 2.110757 1_555
O3 Sn0 2.110757 1_554
O4 Sn1 2.036208 1_555
O6 Sn2 2.095454 1_554
O6 Sn2 2.095454 1_555
O7 Sn2 2.075616 1_555
O9 Sn2 2.024025 1_555
O11 Sn2 2.207831 1_555
O11 Sn2 2.207831 1_554
O13 Sn1 2.132578 1_655
O14 Sn0 2.163813 1_654
O14 Sn0 2.163813 1_655
O15 Sn0 2.129939 1_655
