# generated using pymatgen
data_NaNbS2
_symmetry_space_group_name_H-M   'P 1'
_cell_length_a   3.42669221
_cell_length_b   3.42669333
_cell_length_c   14.15652617
_cell_angle_alpha   90.00000000
_cell_angle_beta   90.00000000
_cell_angle_gamma   120.00000911
_symmetry_Int_Tables_number   1
_chemical_formula_structural   NaNbS2
_chemical_formula_sum   'Na2 Nb2 S4'
_cell_volume   143.95860344
_cell_formula_units_Z   2
loop_
 _symmetry_equiv_pos_site_id
 _symmetry_equiv_pos_as_xyz
  1  'x, y, z'
loop_
 _atom_site_type_symbol
 _atom_site_label
 _atom_site_symmetry_multiplicity
 _atom_site_fract_x
 _atom_site_fract_y
 _atom_site_fract_z
 _atom_site_occupancy
  Na  Na0  1  0.00000000  0.00000000  -0.00000000  1
  Na  Na1  1  0.00000000  0.00000000  0.50000000  1
  Nb  Nb0  1  -0.00000000  0.00000000  0.25000000  1
  Nb  Nb1  1  0.00000000  0.00000000  0.75000000  1
  S  S0  1  0.33333300  0.66666700  0.13980374  1
  S  S1  1  0.33333300  0.66666700  0.36019626  1
  S  S2  1  0.66666700  0.33333300  0.63980374  1
  S  S3  1  0.66666700  0.33333300  0.86019626  1
loop_
_geom_bond_atom_site_label_1
_geom_bond_atom_site_label_2
_geom_bond_distance
_geom_bond_site_symmetry_2
Na0 S3 2.798400 1_454
Na0 S0 2.798400 1_545
Na0 S3 2.798402 1_554
Na0 S0 2.798402 1_445
Na0 S3 2.798402 1_444
Na0 S0 2.798402 1_555
Na1 S1 2.798400 1_545
Na1 S2 2.798400 1_455
Na1 S1 2.798402 1_445
Na1 S2 2.798402 1_555
Na1 S1 2.798402 1_555
Na1 S2 2.798402 1_445
Nb0 S0 2.519455 1_545
Nb0 S1 2.519455 1_545
Nb0 S1 2.519457 1_445
Nb0 S0 2.519457 1_445
Nb0 S0 2.519458 1_555
Nb0 S1 2.519458 1_555
Nb1 S2 2.519455 1_455
Nb1 S3 2.519455 1_455
Nb1 S2 2.519457 1_555
Nb1 S3 2.519457 1_555
Nb1 S2 2.519458 1_445
Nb1 S3 2.519458 1_445
