# generated using pymatgen
data_LiFe2OF5
_symmetry_space_group_name_H-M   'P 1'
_cell_length_a   4.73531875
_cell_length_b   4.73531875
_cell_length_c   18.44756911
_cell_angle_alpha   89.94018508
_cell_angle_beta   89.94018508
_cell_angle_gamma   90.00061601
_symmetry_Int_Tables_number   1
_chemical_formula_structural   LiFe2OF5
_chemical_formula_sum   'Li4 Fe8 O4 F20'
_cell_volume   413.65388642
_cell_formula_units_Z   4
loop_
 _symmetry_equiv_pos_site_id
 _symmetry_equiv_pos_as_xyz
  1  'x, y, z'
loop_
 _atom_site_type_symbol
 _atom_site_label
 _atom_site_symmetry_multiplicity
 _atom_site_fract_x
 _atom_site_fract_y
 _atom_site_fract_z
 _atom_site_occupancy
  Li  Li0  1  0.00842000  0.00033900  0.99825800  1
  Li  Li1  1  0.00033900  0.00842000  0.49825800  1
  Li  Li2  1  0.50801600  0.49978200  0.24821900  1
  Li  Li3  1  0.49978200  0.50801600  0.74821900  1
  Fe  Fe0  1  0.97689100  0.02099100  0.16634600  1
  Fe  Fe1  1  0.01378600  0.00982200  0.33888100  1
  Fe  Fe2  1  0.02099100  0.97689100  0.66634600  1
  Fe  Fe3  1  0.00982100  0.01378600  0.83888100  1
  Fe  Fe4  1  0.48869000  0.51208100  0.58888200  1
  Fe  Fe5  1  0.51208100  0.48869000  0.08888200  1
  Fe  Fe6  1  0.47958400  0.47634000  0.41631500  1
  Fe  Fe7  1  0.47634000  0.47958400  0.91631500  1
  O  O0  1  0.19972200  0.20005500  0.41316000  1
  O  O1  1  0.20005500  0.19972200  0.91316000  1
  O  O2  1  0.30140800  0.70112300  0.66317100  1
  O  O3  1  0.70112300  0.30140800  0.16317100  1
  F  F0  1  0.20025500  0.19907400  0.08455900  1
  F  F1  1  0.19907400  0.20025500  0.58455900  1
  F  F2  1  0.19346500  0.19010500  0.25042500  1
  F  F3  1  0.19010500  0.19346500  0.75042500  1
  F  F4  1  0.31550900  0.68691000  0.00205100  1
  F  F5  1  0.30958700  0.69285500  0.50040400  1
  F  F6  1  0.29070300  0.71111500  0.16249000  1
  F  F7  1  0.29989100  0.70095200  0.83443500  1
  F  F8  1  0.30292600  0.69807000  0.33398200  1
  F  F9  1  0.70095200  0.29989100  0.33443500  1
  F  F10  1  0.69807000  0.30292600  0.83398200  1
  F  F11  1  0.71111500  0.29070300  0.66249000  1
  F  F12  1  0.69285500  0.30958700  0.00040400  1
  F  F13  1  0.68691000  0.31550900  0.50205100  1
  F  F14  1  0.81595900  0.81287500  0.25204300  1
  F  F15  1  0.81287500  0.81595900  0.75204300  1
  F  F16  1  0.80178400  0.80148900  0.08388400  1
  F  F17  1  0.78947000  0.78995500  0.41249600  1
  F  F18  1  0.80148900  0.80178400  0.58388400  1
  F  F19  1  0.78995500  0.78947000  0.91249600  1
loop_
_geom_bond_atom_site_label_1
_geom_bond_atom_site_label_2
_geom_bond_distance
_geom_bond_site_symmetry_2
Li0 O1 2.042846 1_555
Li1 O0 2.042846 1_555
Li2 O3 2.044557 1_555
Li3 O2 2.044557 1_555
Fe0 O3 1.863312 1_555
Fe1 O0 1.862632 1_555
Fe2 O2 1.863312 1_555
Fe3 O1 1.862634 1_555
Fe4 O2 1.861720 1_555
Fe5 O3 1.861720 1_555
Fe6 O0 1.863213 1_555
Fe7 O1 1.863213 1_555
F0 Fe5 2.016911 1_555
F0 Fe0 2.024903 1_455
F0 Li0 2.061927 1_554
F1 Fe4 2.016911 1_555
F1 Fe2 2.024903 1_545
F1 Li1 2.061927 1_555
F2 Fe0 2.026007 1_455
F2 Fe1 2.027231 1_555
F2 Li2 2.090539 1_555
F3 Fe2 2.026007 1_545
F3 Fe3 2.027233 1_555
F3 Li3 2.090539 1_555
F4 Fe7 2.011498 1_554
F4 Fe5 2.076850 1_555
F4 Li0 2.079024 1_564
F5 Fe6 2.026389 1_555
F5 Fe4 2.028828 1_555
F5 Li1 2.092601 1_565
F6 Fe5 2.012999 1_555
F6 Fe0 2.089605 1_465
F6 Li2 2.135796 1_555
F7 Fe7 2.019375 1_555
F7 Fe3 2.021867 1_565
F7 Li3 2.064016 1_555
F8 Fe1 2.015479 1_565
F8 Fe6 2.026927 1_555
F8 Li2 2.080341 1_555
F9 Fe6 2.019375 1_555
F9 Fe1 2.021864 1_655
F9 Li2 2.064016 1_555
F10 Fe3 2.015476 1_655
F10 Fe7 2.026927 1_555
F10 Li3 2.080341 1_555
F11 Fe4 2.012999 1_555
F11 Fe2 2.089605 1_645
F11 Li3 2.135796 1_555
F12 Fe7 2.026389 1_554
F12 Fe5 2.028828 1_555
F12 Li0 2.092601 1_654
F13 Fe6 2.011498 1_555
F13 Fe4 2.076850 1_555
F13 Li1 2.079024 1_655
F14 Fe0 2.011320 1_565
F14 Fe1 2.078408 1_665
F14 Li2 2.080823 1_555
F15 Fe2 2.011320 1_655
F15 Fe3 2.078406 1_665
F15 Li3 2.080823 1_555
F16 Fe5 2.020843 1_555
F16 Fe0 2.021872 1_565
F16 Li0 2.081547 1_664
F17 Fe1 2.012581 1_665
F17 Fe6 2.088826 1_555
F17 Li1 2.139391 1_665
F18 Fe4 2.020843 1_555
F18 Fe2 2.021872 1_655
F18 Li1 2.081547 1_665
F19 Fe3 2.012579 1_665
F19 Fe7 2.088826 1_555
F19 Li0 2.139391 1_665
