# generated using pymatgen
data_Li3Ti2CrO6
_symmetry_space_group_name_H-M   'P 1'
_cell_length_a   6.67504750
_cell_length_b   6.71355166
_cell_length_c   10.64047206
_cell_angle_alpha   108.16829592
_cell_angle_beta   93.31832667
_cell_angle_gamma   97.43361948
_symmetry_Int_Tables_number   1
_chemical_formula_structural   Li3Ti2CrO6
_chemical_formula_sum   'Li12 Ti8 Cr4 O24'
_cell_volume   446.80576662
_cell_formula_units_Z   4
loop_
 _symmetry_equiv_pos_site_id
 _symmetry_equiv_pos_as_xyz
  1  'x, y, z'
loop_
 _atom_site_type_symbol
 _atom_site_label
 _atom_site_symmetry_multiplicity
 _atom_site_fract_x
 _atom_site_fract_y
 _atom_site_fract_z
 _atom_site_occupancy
  Li  Li0  1  0.70860800  0.20986900  0.87626600  1
  Li  Li1  1  0.45730800  0.95661500  0.62346500  1
  Li  Li2  1  0.20817200  0.70624200  0.37410600  1
  Li  Li3  1  0.95827700  0.45984200  0.12607000  1
  Li  Li4  1  0.36991500  0.88234000  0.87626300  1
  Li  Li5  1  0.11841700  0.63287200  0.62438800  1
  Li  Li6  1  0.86922300  0.38407600  0.37549000  1
  Li  Li7  1  0.61936100  0.13452200  0.12660300  1
  Li  Li8  1  0.04784100  0.53415400  0.87487900  1
  Li  Li9  1  0.79742600  0.28437100  0.62377400  1
  Li  Li10  1  0.54692000  0.03266500  0.37353500  1
  Li  Li11  1  0.29765100  0.78212600  0.12497800  1
  Ti  Ti0  1  0.74634100  0.74845000  0.75413200  1
  Ti  Ti1  1  0.49053600  0.49005100  0.50073000  1
  Ti  Ti2  1  0.23606300  0.23683300  0.25163400  1
  Ti  Ti3  1  0.99305300  0.99618500  0.00565500  1
  Ti  Ti4  1  0.67692400  0.67771600  0.99886900  1
  Ti  Ti5  1  0.42132200  0.41892600  0.74506500  1
  Ti  Ti6  1  0.17155900  0.16929200  0.49390400  1
  Ti  Ti7  1  0.93105700  0.92966900  0.24954300  1
  Cr  Cr0  1  0.08412800  0.08441400  0.75072500  1
  Cr  Cr1  1  0.83143700  0.83110100  0.49952900  1
  Cr  Cr2  1  0.58417500  0.58424400  0.25054200  1
  Cr  Cr3  1  0.33381400  0.33342600  0.99991600  1
  O  O0  1  0.05144400  0.82602200  0.81431700  1
  O  O1  1  0.79928700  0.57459400  0.56465700  1
  O  O2  1  0.55074900  0.32689000  0.31537300  1
  O  O3  1  0.30148900  0.07709900  0.06383200  1
  O  O4  1  0.36815600  0.58981800  0.93429900  1
  O  O5  1  0.11613800  0.34196000  0.68625300  1
  O  O6  1  0.86329200  0.08890000  0.43617400  1
  O  O7  1  0.61662600  0.84030500  0.18461000  1
  O  O8  1  0.72445000  0.48314700  0.81367000  1
  O  O9  1  0.47785700  0.22974000  0.56446100  1
  O  O10  1  0.23502000  0.97566500  0.31563700  1
  O  O11  1  0.97789200  0.73103200  0.06363800  1
  O  O12  1  0.68734800  0.93760500  0.93517200  1
  O  O13  1  0.44325800  0.68395300  0.68557600  1
  O  O14  1  0.18880700  0.43663000  0.43711000  1
  O  O15  1  0.93193900  0.18875900  0.18418100  1
  O  O16  1  0.38510700  0.16046000  0.81329100  1
  O  O17  1  0.13214100  0.90972900  0.56498200  1
  O  O18  1  0.88605600  0.66107100  0.31446300  1
  O  O19  1  0.63353000  0.41359300  0.06438100  1
  O  O20  1  0.03236400  0.25682100  0.93646100  1
  O  O21  1  0.78354700  0.00738400  0.68600800  1
  O  O22  1  0.53109700  0.75444800  0.43609000  1
  O  O23  1  0.28287200  0.50438300  0.18530400  1
loop_
_geom_bond_atom_site_label_1
_geom_bond_atom_site_label_2
_geom_bond_distance
_geom_bond_site_symmetry_2
Li0 O12 2.100408 1_545
Li0 O8 2.130917 1_555
Li0 O19 2.171302 1_556
Li0 O20 2.171978 1_655
Li0 O16 2.174975 1_555
Li0 O21 2.184833 1_555
Li1 O9 2.106662 1_565
Li1 O13 2.124525 1_555
Li1 O22 2.158460 1_555
Li1 O17 2.177639 1_555
Li1 O16 2.178171 1_565
Li1 O21 2.190884 1_565
Li2 O10 2.078863 1_555
Li2 O14 2.109182 1_555
Li2 O18 2.161276 1_455
Li2 O22 2.169765 1_555
Li2 O23 2.171182 1_555
Li2 O17 2.194832 1_555
Li3 O15 2.087329 1_555
Li3 O11 2.115618 1_555
Li3 O18 2.160425 1_555
Li3 O23 2.176678 1_655
Li3 O20 2.178940 1_654
Li3 O19 2.181793 1_555
Li4 O12 2.125560 1_555
Li4 O3 2.129371 1_566
Li4 O0 2.137961 1_555
Li4 O16 2.164410 1_565
Li4 O13 2.174599 1_555
Li4 O4 2.233696 1_555
Li5 O17 2.134953 1_555
Li5 O14 2.135138 1_555
Li5 O1 2.137134 1_455
Li5 O0 2.141461 1_555
Li5 O13 2.179006 1_555
Li5 O5 2.245705 1_555
Li6 O2 2.134003 1_555
Li6 O1 2.136151 1_555
Li6 O18 2.144740 1_555
Li6 O14 2.145728 1_655
Li6 O15 2.148145 1_555
Li6 O6 2.264109 1_555
Li7 O15 2.092276 1_555
Li7 O2 2.134006 1_555
Li7 O3 2.135536 1_555
Li7 O12 2.164636 1_544
Li7 O19 2.166207 1_555
Li7 O7 2.243911 1_545
Li8 O5 2.131707 1_555
Li8 O4 2.144844 1_555
Li8 O11 2.147503 1_456
Li8 O20 2.150713 1_555
Li8 O8 2.169816 1_455
Li8 O0 2.243303 1_555
Li9 O6 2.125407 1_555
Li9 O9 2.140202 1_555
Li9 O5 2.140211 1_655
Li9 O21 2.153028 1_555
Li9 O8 2.168295 1_555
Li9 O1 2.225122 1_555
Li10 O10 2.087779 1_545
Li10 O6 2.126098 1_555
Li10 O7 2.137796 1_545
Li10 O22 2.162261 1_545
Li10 O9 2.163386 1_555
Li10 O2 2.244227 1_555
Li11 O7 2.135978 1_555
Li11 O10 2.138594 1_555
Li11 O23 2.145880 1_555
Li11 O11 2.146861 1_455
Li11 O4 2.153847 1_554
Li11 O3 2.266697 1_565
Cr0 O16 2.026803 1_555
Cr0 O17 2.027152 1_545
Cr0 O21 2.028974 1_455
Cr0 O20 2.030012 1_555
Cr0 O0 2.041053 1_545
Cr0 O5 2.041312 1_555
Cr1 O22 2.024695 1_555
Cr1 O18 2.025505 1_555
Cr1 O17 2.031585 1_655
Cr1 O6 2.035710 1_565
Cr1 O21 2.036382 1_565
Cr1 O1 2.039028 1_555
Cr2 O19 2.025539 1_555
Cr2 O22 2.026823 1_555
Cr2 O23 2.035081 1_555
Cr2 O18 2.035380 1_555
Cr2 O7 2.041483 1_555
Cr2 O2 2.042582 1_555
Cr3 O23 2.022590 1_556
Cr3 O19 2.023597 1_556
Cr3 O3 2.030080 1_556
Cr3 O20 2.031673 1_555
Cr3 O16 2.037777 1_555
Cr3 O4 2.041764 1_555
O0 Ti0 2.048307 1_455
O0 Ti3 2.087733 1_456
O1 Ti0 2.067281 1_555
O1 Ti1 2.080031 1_555
O2 Ti1 2.027251 1_555
O2 Ti2 2.118619 1_555
O3 Ti2 2.054209 1_555
O3 Ti3 2.066497 1_445
O4 Ti5 2.060099 1_555
O4 Ti4 2.082471 1_555
O5 Ti5 2.046181 1_555
O5 Ti6 2.094899 1_555
O6 Ti7 2.048461 1_545
O6 Ti6 2.064533 1_655
O7 Ti4 2.029768 1_554
O7 Ti7 2.119020 1_555
O8 Ti5 2.054238 1_555
O8 Ti0 2.059645 1_555
O8 Ti4 2.065079 1_555
O9 Ti5 2.033329 1_555
O9 Ti1 2.056354 1_555
O9 Ti6 2.079937 1_555
O10 Ti6 2.040853 1_565
O10 Ti7 2.060077 1_455
O10 Ti2 2.068857 1_565
O11 Ti4 2.034423 1_554
O11 Ti3 2.050665 1_555
O11 Ti7 2.079294 1_555
O12 Ti0 2.042109 1_555
O12 Ti4 2.054256 1_555
O12 Ti3 2.076631 1_556
O13 Ti0 2.053784 1_555
O13 Ti5 2.057572 1_555
O13 Ti1 2.060133 1_555
O14 Ti1 2.036456 1_555
O14 Ti6 2.056863 1_555
O14 Ti2 2.079499 1_555
O15 Ti3 2.034945 1_545
O15 Ti2 2.063421 1_655
O15 Ti7 2.064347 1_545
O16 Ti5 2.072149 1_555
O17 Ti6 2.098601 1_565
O18 Ti7 2.116548 1_555
O19 Ti4 2.091740 1_554
O20 Ti3 2.092766 1_446
O21 Ti0 2.074604 1_545
O22 Ti1 2.087035 1_555
O23 Ti2 2.119674 1_555
