# generated using pymatgen
data_BaTl2O4
_symmetry_space_group_name_H-M   'P 1'
_cell_length_a   6.05333177
_cell_length_b   6.05333177
_cell_length_c   11.05594200
_cell_angle_alpha   90.00000000
_cell_angle_beta   90.00000000
_cell_angle_gamma   145.48234889
_symmetry_Int_Tables_number   1
_chemical_formula_structural   BaTl2O4
_chemical_formula_sum   'Ba2 Tl4 O8'
_cell_volume   229.56587955
_cell_formula_units_Z   2
loop_
 _symmetry_equiv_pos_site_id
 _symmetry_equiv_pos_as_xyz
  1  'x, y, z'
loop_
 _atom_site_type_symbol
 _atom_site_label
 _atom_site_symmetry_multiplicity
 _atom_site_fract_x
 _atom_site_fract_y
 _atom_site_fract_z
 _atom_site_occupancy
  Ba  Ba0  1  0.89194800  0.10805200  0.25000000  1
  Ba  Ba1  1  0.10805200  0.89194800  0.75000000  1
  Tl  Tl0  1  0.63624900  0.36375100  0.43203200  1
  Tl  Tl1  1  0.63624900  0.36375100  0.06796800  1
  Tl  Tl2  1  0.36375100  0.63624900  0.56796800  1
  Tl  Tl3  1  0.36375100  0.63624900  0.93203200  1
  O  O0  1  0.00000000  0.00000000  0.00000000  1
  O  O1  1  0.00000000  0.00000000  0.50000000  1
  O  O2  1  0.56047200  0.43952800  0.25000000  1
  O  O3  1  0.72953600  0.27046400  0.60683500  1
  O  O4  1  0.72953600  0.27046400  0.89316500  1
  O  O5  1  0.43952800  0.56047200  0.75000000  1
  O  O6  1  0.27046400  0.72953600  0.39316500  1
  O  O7  1  0.27046400  0.72953600  0.10683500  1
loop_
_geom_bond_atom_site_label_1
_geom_bond_atom_site_label_2
_geom_bond_distance
_geom_bond_site_symmetry_2
Ba0 O2 2.649852 1_655
Ba0 O2 2.649852 1_545
Ba0 O7 2.775523 1_655
Ba0 O6 2.775523 1_545
Ba0 O7 2.775523 1_545
Ba0 O6 2.775523 1_655
Ba0 O1 3.033189 1_655
Ba0 O0 3.033189 1_655
Ba1 O5 2.649852 1_565
Ba1 O5 2.649852 1_455
Ba1 O4 2.775523 1_565
Ba1 O3 2.775523 1_455
Ba1 O3 2.775523 1_565
Ba1 O4 2.775523 1_455
Ba1 O1 3.033189 1_565
Ba1 O0 3.033189 1_566
O0 Tl1 2.504305 1_555
O0 Tl3 2.504305 1_554
O0 Tl1 2.504305 1_445
O0 Tl3 2.504305 1_444
O1 Tl2 2.504305 1_555
O1 Tl2 2.504305 1_445
O1 Tl0 2.504305 1_555
O1 Tl0 2.504305 1_445
O2 Tl0 2.194960 1_555
O2 Tl1 2.194960 1_555
O3 Tl0 2.213197 1_555
O3 Tl2 2.412050 1_655
O3 Tl2 2.412050 1_545
O4 Tl1 2.213197 1_556
O4 Tl3 2.412050 1_545
O4 Tl3 2.412050 1_655
O5 Tl3 2.194960 1_555
O5 Tl2 2.194960 1_555
O6 Tl2 2.213197 1_555
O6 Tl0 2.412050 1_455
O6 Tl0 2.412050 1_565
O7 Tl3 2.213197 1_554
O7 Tl1 2.412050 1_455
O7 Tl1 2.412050 1_565
