# generated using pymatgen
data_Mn3Co2Sn(PO4)6
_symmetry_space_group_name_H-M   'P 1'
_cell_length_a   8.55575669
_cell_length_b   8.55575669
_cell_length_c   8.55575618
_cell_angle_alpha   60.66273616
_cell_angle_beta   60.66273616
_cell_angle_gamma   60.66273375
_symmetry_Int_Tables_number   1
_chemical_formula_structural   Mn3Co2Sn(PO4)6
_chemical_formula_sum   'Mn3 Co2 Sn1 P6 O24'
_cell_volume   449.47953761
_cell_formula_units_Z   1
loop_
 _symmetry_equiv_pos_site_id
 _symmetry_equiv_pos_as_xyz
  1  'x, y, z'
loop_
 _atom_site_type_symbol
 _atom_site_label
 _atom_site_symmetry_multiplicity
 _atom_site_fract_x
 _atom_site_fract_y
 _atom_site_fract_z
 _atom_site_occupancy
  Mn  Mn0  1  0.35621800  0.35621800  0.35621800  1
  Mn  Mn1  1  0.14436200  0.14436200  0.14436200  1
  Mn  Mn2  1  0.64310500  0.64310500  0.64310500  1
  Co  Co0  1  0.00402700  0.00402700  0.00402700  1
  Co  Co1  1  0.50000100  0.50000100  0.50000100  1
  Sn  Sn0  1  0.85650200  0.85650200  0.85650200  1
  P  P0  1  0.74795300  0.04628400  0.44996700  1
  P  P1  1  0.04628400  0.44996700  0.74795300  1
  P  P2  1  0.44996700  0.74795300  0.04628400  1
  P  P3  1  0.54088400  0.25460700  0.95637700  1
  P  P4  1  0.95637700  0.54088400  0.25460700  1
  P  P5  1  0.25460700  0.95637700  0.54088400  1
  O  O0  1  0.88548100  0.48922200  0.68987900  1
  O  O1  1  0.48922200  0.68987900  0.88548100  1
  O  O2  1  0.68987900  0.88548100  0.48922200  1
  O  O3  1  0.91004300  0.06249200  0.25463300  1
  O  O4  1  0.81179100  0.01584900  0.60551800  1
  O  O5  1  0.58673100  0.24435500  0.43679500  1
  O  O6  1  0.06249200  0.25463300  0.91004300  1
  O  O7  1  0.24435500  0.43679500  0.58673100  1
  O  O8  1  0.38770400  0.18761600  0.99071300  1
  O  O9  1  0.43679500  0.58673100  0.24435500  1
  O  O10  1  0.74137100  0.09277400  0.94260400  1
  O  O11  1  0.99071300  0.38770400  0.18761600  1
  O  O12  1  0.01584900  0.60551800  0.81179100  1
  O  O13  1  0.25463300  0.91004300  0.06249200  1
  O  O14  1  0.55675300  0.41362300  0.75807000  1
  O  O15  1  0.60551800  0.81179100  0.01584900  1
  O  O16  1  0.75807000  0.55675300  0.41362300  1
  O  O17  1  0.94260400  0.74137100  0.09277400  1
  O  O18  1  0.41362300  0.75807000  0.55675300  1
  O  O19  1  0.18761600  0.99071300  0.38770400  1
  O  O20  1  0.09277400  0.94260400  0.74137100  1
  O  O21  1  0.31888500  0.11264200  0.50416700  1
  O  O22  1  0.50416700  0.31888500  0.11264200  1
  O  O23  1  0.11264200  0.50416700  0.31888500  1
loop_
_geom_bond_atom_site_label_1
_geom_bond_atom_site_label_2
_geom_bond_distance
_geom_bond_site_symmetry_2
Mn0 O22 1.928327 1_555
Mn0 O23 1.928327 1_555
Mn0 O21 1.928327 1_555
Mn0 O7 2.029049 1_555
Mn0 O5 2.029049 1_555
Mn0 O9 2.029049 1_555
Mn1 O19 1.948350 1_545
Mn1 O11 1.948350 1_455
Mn1 O8 1.948350 1_554
Mn1 O6 2.067596 1_554
Mn1 O13 2.067596 1_545
Mn1 O3 2.067596 1_455
Mn2 O1 1.953301 1_555
Mn2 O0 1.953301 1_555
Mn2 O2 1.953301 1_555
Mn2 O16 2.045766 1_555
Mn2 O18 2.045766 1_555
Mn2 O14 2.045766 1_555
Co0 O3 2.112212 1_455
Co0 O13 2.112212 1_545
Co0 O6 2.112212 1_554
Co0 O20 2.235377 1_544
Co0 O10 2.235377 1_454
Co0 O17 2.235377 1_445
Co1 O14 2.181065 1_555
Co1 O18 2.181065 1_555
Co1 O16 2.181065 1_555
Co1 O9 2.191466 1_555
Co1 O5 2.191466 1_555
Co1 O7 2.191466 1_555
O0 P1 1.518559 1_655
O1 P2 1.518559 1_556
O2 P0 1.518559 1_565
O3 P0 1.557477 1_555
O4 P0 1.539686 1_555
O4 Sn0 2.010306 1_545
O5 P0 1.569020 1_555
O6 P1 1.557477 1_555
O7 P1 1.569020 1_555
O8 P3 1.525193 1_555
O9 P2 1.569020 1_555
O10 P3 1.583618 1_555
O10 Sn0 2.096746 1_545
O11 P4 1.525193 1_555
O12 P1 1.539686 1_555
O12 Sn0 2.010306 1_455
O13 P2 1.557477 1_555
O14 P3 1.562509 1_555
O15 P2 1.539686 1_555
O15 Sn0 2.010306 1_554
O16 P4 1.562509 1_555
O17 P4 1.583618 1_555
O17 Sn0 2.096746 1_554
O18 P5 1.562509 1_555
O19 P5 1.525193 1_555
O20 P5 1.583618 1_555
O20 Sn0 2.096746 1_455
O21 P5 1.525857 1_545
O22 P3 1.525857 1_554
O23 P4 1.525857 1_455
