# generated using pymatgen
data_Li4Mn3Co3(NiO8)2
_symmetry_space_group_name_H-M   'P 1'
_cell_length_a   5.73642351
_cell_length_b   5.73642351
_cell_length_c   9.55577939
_cell_angle_alpha   89.94265643
_cell_angle_beta   89.94265643
_cell_angle_gamma   60.17458024
_symmetry_Int_Tables_number   1
_chemical_formula_structural   Li4Mn3Co3(NiO8)2
_chemical_formula_sum   'Li4 Mn3 Co3 Ni2 O16'
_cell_volume   272.79737672
_cell_formula_units_Z   1
loop_
 _symmetry_equiv_pos_site_id
 _symmetry_equiv_pos_as_xyz
  1  'x, y, z'
loop_
 _atom_site_type_symbol
 _atom_site_label
 _atom_site_symmetry_multiplicity
 _atom_site_fract_x
 _atom_site_fract_y
 _atom_site_fract_z
 _atom_site_occupancy
  Li  Li0  1  0.66430700  0.66430700  0.10524100  1
  Li  Li1  1  0.00479700  0.00479700  0.00113300  1
  Li  Li2  1  0.00577000  0.00577000  0.50390300  1
  Li  Li3  1  0.33066700  0.33066700  0.60914700  1
  Mn  Mn0  1  0.82981800  0.82981800  0.78430200  1
  Mn  Mn1  1  0.16768700  0.66185500  0.28464500  1
  Mn  Mn2  1  0.66185500  0.16768700  0.28464500  1
  Co  Co0  1  0.33586800  0.83053700  0.78666900  1
  Co  Co1  1  0.83053700  0.33586800  0.78666900  1
  Co  Co2  1  0.16795400  0.16795400  0.28658000  1
  Ni  Ni0  1  0.66702600  0.66702600  0.51105200  1
  Ni  Ni1  1  0.33426600  0.33426600  0.00958700  1
  O  O0  1  0.31886800  0.84591800  0.39161700  1
  O  O1  1  0.51679800  0.51679800  0.67572500  1
  O  O2  1  0.66562500  0.66562500  0.89135400  1
  O  O3  1  0.00044500  0.00044500  0.68925700  1
  O  O4  1  0.00082200  0.00082200  0.18739700  1
  O  O5  1  0.84591800  0.31886800  0.39161700  1
  O  O6  1  0.51187000  0.96393700  0.67032200  1
  O  O7  1  0.96393700  0.51187000  0.67032200  1
  O  O8  1  0.15969500  0.15969500  0.88720500  1
  O  O9  1  0.84237000  0.84237000  0.39633500  1
  O  O10  1  0.03308300  0.47768800  0.17022800  1
  O  O11  1  0.47768800  0.03308300  0.17022800  1
  O  O12  1  0.33343300  0.33343300  0.39240600  1
  O  O13  1  0.16228500  0.68354200  0.89309000  1
  O  O14  1  0.48260500  0.48260500  0.16839300  1
  O  O15  1  0.68354200  0.16228500  0.89309000  1
loop_
_geom_bond_atom_site_label_1
_geom_bond_atom_site_label_2
_geom_bond_distance
_geom_bond_site_symmetry_2
Li0 O14 1.901369 1_555
Li0 O11 1.937893 1_565
Li0 O10 1.937893 1_655
Li0 O2 2.043884 1_554
Li1 O4 1.780289 1_555
Li1 O8 1.883024 1_554
Li1 O15 1.903698 1_454
Li1 O13 1.903698 1_544
Li2 O3 1.771929 1_555
Li2 O0 1.891517 1_545
Li2 O5 1.891517 1_455
Li2 O9 1.921343 1_445
Li3 O7 1.916093 1_455
Li3 O6 1.916093 1_545
Li3 O1 1.954884 1_555
Li3 O12 2.071279 1_555
Mn0 O3 1.921027 1_665
Mn0 O2 1.923365 1_555
Mn0 O7 1.926458 1_555
Mn0 O6 1.926458 1_555
Mn0 O15 1.957660 1_565
Mn0 O13 1.957660 1_655
Mn1 O14 1.924928 1_555
Mn1 O4 1.925480 1_565
Mn1 O10 1.929547 1_555
Mn1 O12 1.931316 1_555
Mn1 O9 1.941630 1_455
Mn1 O0 1.956177 1_555
Mn2 O14 1.924928 1_555
Mn2 O4 1.925480 1_655
Mn2 O11 1.929547 1_555
Mn2 O12 1.931316 1_555
Mn2 O9 1.941630 1_545
Mn2 O5 1.956177 1_555
Co0 O13 1.888956 1_555
Co0 O1 1.893083 1_555
Co0 O6 1.898833 1_555
Co0 O8 1.900810 1_565
Co0 O3 1.911809 1_565
Co0 O2 1.922427 1_555
Co1 O15 1.888956 1_555
Co1 O1 1.893083 1_555
Co1 O7 1.898833 1_555
Co1 O8 1.900810 1_655
Co1 O3 1.911809 1_655
Co1 O2 1.922427 1_555
Co2 O5 1.891231 1_455
Co2 O0 1.891231 1_545
Co2 O10 1.903164 1_555
Co2 O11 1.903164 1_555
Co2 O4 1.911700 1_555
Co2 O12 1.930021 1_555
Ni0 O9 2.055993 1_555
Ni0 O5 2.075551 1_555
Ni0 O0 2.075551 1_555
Ni0 O6 2.122258 1_555
Ni0 O7 2.122258 1_555
Ni0 O1 2.166737 1_555
Ni1 O13 2.063604 1_554
Ni1 O15 2.063604 1_554
Ni1 O8 2.091770 1_554
Ni1 O14 2.115767 1_555
Ni1 O10 2.145121 1_555
Ni1 O11 2.145121 1_555
