# generated using pymatgen
data_FePO4
_symmetry_space_group_name_H-M   'P 1'
_cell_length_a   5.25792700
_cell_length_b   10.49857700
_cell_length_c   14.26928700
_cell_angle_alpha   90.00000000
_cell_angle_beta   90.00000000
_cell_angle_gamma   90.00000000
_symmetry_Int_Tables_number   1
_chemical_formula_structural   FePO4
_chemical_formula_sum   'Fe8 P8 O32'
_cell_volume   787.67536534
_cell_formula_units_Z   8
loop_
 _symmetry_equiv_pos_site_id
 _symmetry_equiv_pos_as_xyz
  1  'x, y, z'
loop_
 _atom_site_type_symbol
 _atom_site_label
 _atom_site_symmetry_multiplicity
 _atom_site_fract_x
 _atom_site_fract_y
 _atom_site_fract_z
 _atom_site_occupancy
  Fe  Fe0  1  0.92887200  0.03251500  0.49705800  1
  Fe  Fe1  1  0.55019400  0.21677300  0.24948200  1
  Fe  Fe2  1  0.55019400  0.28322700  0.74948200  1
  Fe  Fe3  1  0.92887200  0.46748500  0.99705800  1
  Fe  Fe4  1  0.07112800  0.53251500  0.49705800  1
  Fe  Fe5  1  0.44980600  0.71677300  0.24948200  1
  Fe  Fe6  1  0.44980600  0.78322700  0.74948200  1
  Fe  Fe7  1  0.07112800  0.96748500  0.99705800  1
  P  P0  1  0.43120900  0.03469200  0.62429500  1
  P  P1  1  0.05088500  0.21905100  0.87195300  1
  P  P2  1  0.05088500  0.28094900  0.37195300  1
  P  P3  1  0.43120900  0.46530800  0.12429500  1
  P  P4  1  0.56879100  0.53469200  0.62429500  1
  P  P5  1  0.94911500  0.71905100  0.87195300  1
  P  P6  1  0.94911500  0.78094900  0.37195300  1
  P  P7  1  0.56879100  0.96530800  0.12429500  1
  O  O0  1  0.14865200  0.01046000  0.60028100  1
  O  O1  1  0.49792800  0.04582600  0.21130300  1
  O  O2  1  0.40530100  0.00252400  0.03820300  1
  O  O3  1  0.01002000  0.07580200  0.89352000  1
  O  O4  1  0.47734300  0.17715300  0.64644100  1
  O  O5  1  0.89320300  0.24269800  0.28502300  1
  O  O6  1  0.96742400  0.20359500  0.45910700  1
  O  O7  1  0.33544400  0.24498000  0.85164300  1
  O  O8  1  0.33544400  0.25502000  0.35164300  1
  O  O9  1  0.96742400  0.29640500  0.95910700  1
  O  O10  1  0.89320300  0.25730200  0.78502300  1
  O  O11  1  0.47734300  0.32284700  0.14644100  1
  O  O12  1  0.01002000  0.42419800  0.39352000  1
  O  O13  1  0.40530100  0.49747600  0.53820300  1
  O  O14  1  0.49792800  0.45417400  0.71130300  1
  O  O15  1  0.14865200  0.48954000  0.10028100  1
  O  O16  1  0.85134800  0.51046000  0.60028100  1
  O  O17  1  0.50207200  0.54582600  0.21130300  1
  O  O18  1  0.59469900  0.50252400  0.03820300  1
  O  O19  1  0.98998000  0.57580200  0.89352000  1
  O  O20  1  0.52265700  0.67715300  0.64644100  1
  O  O21  1  0.10679700  0.74269800  0.28502300  1
  O  O22  1  0.03257600  0.70359500  0.45910700  1
  O  O23  1  0.66455600  0.74498000  0.85164300  1
  O  O24  1  0.66455600  0.75502000  0.35164300  1
  O  O25  1  0.03257600  0.79640500  0.95910700  1
  O  O26  1  0.10679700  0.75730200  0.78502300  1
  O  O27  1  0.52265700  0.82284700  0.14644100  1
  O  O28  1  0.98998000  0.92419800  0.39352000  1
  O  O29  1  0.59469900  0.99747600  0.53820300  1
  O  O30  1  0.50207200  0.95417400  0.71130300  1
  O  O31  1  0.85134800  0.98954000  0.10028100  1
loop_
_geom_bond_atom_site_label_1
_geom_bond_atom_site_label_2
_geom_bond_distance
_geom_bond_site_symmetry_2
Fe0 O0 1.886395 1_655
Fe0 O6 1.886878 1_555
Fe0 O29 1.888721 1_545
Fe0 O28 1.891864 1_545
Fe1 O11 1.883808 1_555
Fe1 O8 1.887132 1_555
Fe1 O5 1.893131 1_555
Fe1 O1 1.895590 1_555
Fe2 O4 1.883808 1_555
Fe2 O7 1.887132 1_555
Fe2 O10 1.893131 1_555
Fe2 O14 1.895590 1_555
Fe3 O15 1.886395 1_656
Fe3 O9 1.886878 1_555
Fe3 O18 1.888721 1_556
Fe3 O19 1.891864 1_555
Fe4 O16 1.886395 1_455
Fe4 O22 1.886878 1_555
Fe4 O13 1.888721 1_555
Fe4 O12 1.891864 1_555
Fe5 O27 1.883808 1_555
Fe5 O24 1.887132 1_555
Fe5 O21 1.893131 1_555
Fe5 O17 1.895590 1_555
Fe6 O20 1.883808 1_555
Fe6 O23 1.887132 1_555
Fe6 O26 1.893131 1_555
Fe6 O30 1.895590 1_555
Fe7 O31 1.886395 1_456
Fe7 O25 1.886878 1_555
Fe7 O2 1.888721 1_566
Fe7 O3 1.891864 1_565
O0 P0 1.545748 1_555
O1 P7 1.547522 1_545
O2 P7 1.549434 1_545
O3 P1 1.550039 1_555
O4 P0 1.547783 1_555
O5 P2 1.545091 1_655
O6 P2 1.548772 1_655
O7 P1 1.548121 1_555
O8 P2 1.548121 1_555
O9 P1 1.548772 1_655
O10 P1 1.545091 1_655
O11 P3 1.547783 1_555
O12 P2 1.550039 1_555
O13 P4 1.549434 1_555
O14 P4 1.547522 1_555
O15 P3 1.545748 1_555
O16 P4 1.545748 1_555
O17 P3 1.547522 1_555
O18 P3 1.549434 1_555
O19 P5 1.550039 1_555
O20 P4 1.547783 1_555
O21 P6 1.545091 1_455
O22 P6 1.548772 1_455
O23 P5 1.548121 1_555
O24 P6 1.548121 1_555
O25 P5 1.548772 1_455
O26 P5 1.545091 1_455
O27 P7 1.547783 1_555
O28 P6 1.550039 1_555
O29 P0 1.549434 1_565
O30 P0 1.547522 1_565
O31 P7 1.545748 1_555
