# generated using pymatgen
data_Cr4OF11
_symmetry_space_group_name_H-M   'P 1'
_cell_length_a   5.08375997
_cell_length_b   5.33189659
_cell_length_c   16.89481620
_cell_angle_alpha   91.73907683
_cell_angle_beta   98.29079927
_cell_angle_gamma   61.71091211
_symmetry_Int_Tables_number   1
_chemical_formula_structural   Cr4OF11
_chemical_formula_sum   'Cr8 O2 F22'
_cell_volume   398.66405292
_cell_formula_units_Z   2
loop_
 _symmetry_equiv_pos_site_id
 _symmetry_equiv_pos_as_xyz
  1  'x, y, z'
loop_
 _atom_site_type_symbol
 _atom_site_label
 _atom_site_symmetry_multiplicity
 _atom_site_fract_x
 _atom_site_fract_y
 _atom_site_fract_z
 _atom_site_occupancy
  Cr  Cr0  1  0.74562700  0.64385000  0.12841200  1
  Cr  Cr1  1  0.74911400  0.12184800  0.62605900  1
  Cr  Cr2  1  0.49158600  0.73897200  0.75291800  1
  Cr  Cr3  1  0.50901000  0.23281100  0.24639200  1
  Cr  Cr4  1  0.25080700  0.87006000  0.37434700  1
  Cr  Cr5  1  0.25544100  0.38642000  0.87106000  1
  Cr  Cr6  1  0.00034600  0.49770000  0.50004800  1
  Cr  Cr7  1  0.99889900  0.00833300  0.00034700  1
  O  O0  1  0.74746400  0.93813300  0.18741400  1
  O  O1  1  0.31415100  0.53188700  0.78193100  1
  F  F0  1  0.81440200  0.78497700  0.03283700  1
  F  F1  1  0.75198400  0.81135300  0.56260000  1
  F  F2  1  0.75783800  0.31939300  0.06436200  1
  F  F3  1  0.68013800  0.96247200  0.71830800  1
  F  F4  1  0.68615400  0.65716000  0.40712500  1
  F  F5  1  0.68385700  0.46824200  0.21777000  1
  F  F6  1  0.81623500  0.59323700  0.84348600  1
  F  F7  1  0.81339100  0.09077600  0.34175100  1
  F  F8  1  0.81417500  0.27975700  0.53255100  1
  F  F9  1  0.31315900  0.84327200  0.09319300  1
  F  F10  1  0.74554900  0.43772100  0.68834900  1
  F  F11  1  0.26175800  0.55566800  0.31088700  1
  F  F12  1  0.68480300  0.15789800  0.90703500  1
  F  F13  1  0.18551200  0.90732000  0.65861900  1
  F  F14  1  0.18348800  0.40822900  0.15739300  1
  F  F15  1  0.18562100  0.71795200  0.46826200  1
  F  F16  1  0.31448700  0.34244000  0.59295900  1
  F  F17  1  0.31127400  0.03157100  0.28099300  1
  F  F18  1  0.24834600  0.68962600  0.93800500  1
  F  F19  1  0.24698800  0.18540400  0.43692600  1
  F  F20  1  0.25381100  0.06395300  0.81293800  1
  F  F21  1  0.18458500  0.22156400  0.96472200  1
loop_
_geom_bond_atom_site_label_1
_geom_bond_atom_site_label_2
_geom_bond_distance
_geom_bond_site_symmetry_2
Cr0 O0 1.836316 1_555
Cr0 F5 1.937957 1_555
Cr0 F9 1.940016 1_555
Cr0 F0 1.944666 1_555
Cr0 F14 1.960967 1_655
Cr0 F2 1.992882 1_555
Cr1 F1 1.940187 1_545
Cr1 F3 1.947955 1_545
Cr1 F16 1.948974 1_555
Cr1 F8 1.951778 1_555
Cr1 F10 1.952781 1_555
Cr1 F13 1.952906 1_645
Cr2 O1 1.837798 1_555
Cr2 F20 1.937383 1_565
Cr2 F10 1.941941 1_555
Cr2 F6 1.948673 1_555
Cr2 F13 1.952709 1_555
Cr2 F3 1.991852 1_555
Cr3 O0 1.838218 1_545
Cr3 F17 1.932215 1_555
Cr3 F14 1.942924 1_555
Cr3 F7 1.951378 1_555
Cr3 F5 1.954000 1_555
Cr3 F11 1.990184 1_555
Cr4 F15 1.941550 1_555
Cr4 F11 1.944805 1_555
Cr4 F17 1.948543 1_565
Cr4 F4 1.948566 1_555
Cr4 F19 1.952512 1_565
Cr4 F7 1.959298 1_465
Cr5 O1 1.837954 1_555
Cr5 F18 1.933812 1_555
Cr5 F12 1.939072 1_555
Cr5 F6 1.953444 1_455
Cr5 F20 1.956834 1_555
Cr5 F21 1.988795 1_555
Cr6 F8 1.943899 1_455
Cr6 F19 1.944486 1_555
Cr6 F1 1.945241 1_455
Cr6 F15 1.946088 1_555
Cr6 F16 1.950019 1_555
Cr6 F4 1.951780 1_455
Cr7 F21 1.941291 1_654
Cr7 F2 1.941425 1_555
Cr7 F12 1.953039 1_554
Cr7 F9 1.953422 1_645
Cr7 F18 1.959383 1_644
Cr7 F0 1.961173 1_545
