# generated using pymatgen
data_K2P2H2O7
_symmetry_space_group_name_H-M   'P 1'
_cell_length_a   8.39625200
_cell_length_b   8.44362809
_cell_length_c   11.18348292
_cell_angle_alpha   81.15470814
_cell_angle_beta   85.44737871
_cell_angle_gamma   87.04976100
_symmetry_Int_Tables_number   1
_chemical_formula_structural   K2P2H2O7
_chemical_formula_sum   'K8 P8 H8 O28'
_cell_volume   780.32933768
_cell_formula_units_Z   4
loop_
 _symmetry_equiv_pos_site_id
 _symmetry_equiv_pos_as_xyz
  1  'x, y, z'
loop_
 _atom_site_type_symbol
 _atom_site_label
 _atom_site_symmetry_multiplicity
 _atom_site_fract_x
 _atom_site_fract_y
 _atom_site_fract_z
 _atom_site_occupancy
  K  K0  1  0.28142600  0.62673500  0.08465400  1
  K  K1  1  0.71857400  0.37326500  0.91534600  1
  K  K2  1  0.24424500  0.21052400  0.94440700  1
  K  K3  1  0.75575500  0.78947600  0.05559300  1
  K  K4  1  0.41340600  0.80795200  0.42032000  1
  K  K5  1  0.58659400  0.19204800  0.57968000  1
  K  K6  1  0.20368700  0.29408200  0.44199600  1
  K  K7  1  0.79631300  0.70591800  0.55800400  1
  P  P0  1  0.51461500  0.78353500  0.78390000  1
  P  P1  1  0.48538500  0.21646500  0.21610000  1
  P  P2  1  0.05916200  0.64686400  0.80414000  1
  P  P3  1  0.94083800  0.35313600  0.19586000  1
  P  P4  1  0.36777700  0.50264600  0.70323000  1
  P  P5  1  0.63222300  0.49735400  0.29677000  1
  P  P6  1  0.21294200  0.95476000  0.71075500  1
  P  P7  1  0.78705800  0.04524000  0.28924500  1
  H  H0  1  0.25833000  0.99327800  0.18062000  1
  H  H1  1  0.74167000  0.00672200  0.81938000  1
  H  H2  1  0.09539200  0.94495800  0.14231300  1
  H  H3  1  0.90460800  0.05504200  0.85768700  1
  H  H4  1  0.09750000  0.70910900  0.45831400  1
  H  H5  1  0.90250000  0.29089100  0.54168600  1
  H  H6  1  0.02595100  0.79775400  0.33485700  1
  H  H7  1  0.97404900  0.20224600  0.66514300  1
  O  O0  1  0.46991900  0.66816200  0.68722500  1
  O  O1  1  0.53008100  0.33183800  0.31277500  1
  O  O2  1  0.22534200  0.53273300  0.80577400  1
  O  O3  1  0.77465800  0.46726700  0.19422600  1
  O  O4  1  0.11670700  0.79647000  0.69856900  1
  O  O5  1  0.88329300  0.20353000  0.30143100  1
  O  O6  1  0.34603700  0.88526500  0.80595200  1
  O  O7  1  0.65396300  0.11473500  0.19404800  1
  O  O8  1  0.63694400  0.89399900  0.71610200  1
  O  O9  1  0.36305600  0.10600100  0.28389800  1
  O  O10  1  0.54841600  0.68733900  0.90365800  1
  O  O11  1  0.45158400  0.31266100  0.09634200  1
  O  O12  1  0.93098000  0.56893500  0.75187000  1
  O  O13  1  0.06902000  0.43106500  0.24813000  1
  O  O14  1  0.03619600  0.69565600  0.92724200  1
  O  O15  1  0.96380400  0.30434400  0.07275800  1
  O  O16  1  0.46788400  0.36396400  0.76164300  1
  O  O17  1  0.53211600  0.63603600  0.23835700  1
  O  O18  1  0.30907600  0.49889100  0.58083700  1
  O  O19  1  0.69092400  0.50110900  0.41916300  1
  O  O20  1  0.29143400  0.01305600  0.58752800  1
  O  O21  1  0.70856600  0.98694400  0.41247200  1
  O  O22  1  0.10490700  0.07101300  0.77210100  1
  O  O23  1  0.89509300  0.92898700  0.22789900  1
  O  O24  1  0.21032000  0.94771200  0.11632500  1
  O  O25  1  0.78968000  0.05228800  0.88367500  1
  O  O26  1  0.10789900  0.72016900  0.37005700  1
  O  O27  1  0.89210100  0.27983100  0.62994300  1
loop_
_geom_bond_atom_site_label_1
_geom_bond_atom_site_label_2
_geom_bond_distance
_geom_bond_site_symmetry_2
K0 O14 2.795402 1_554
K0 O24 2.814643 1_555
K0 O17 2.832707 1_555
K0 O13 2.847706 1_555
K0 O10 2.909224 1_554
K0 O11 2.936661 1_555
K1 O15 2.795402 1_556
K1 O25 2.814643 1_555
K1 O16 2.832707 1_555
K1 O12 2.847706 1_555
K1 O11 2.909224 1_556
K1 O10 2.936661 1_555
K2 O24 2.714418 1_546
K2 O22 2.769012 1_555
K2 O11 2.781422 1_556
K2 O15 2.802406 1_456
K2 O16 2.865113 1_555
K2 O2 2.920289 1_555
K3 O25 2.714418 1_564
K3 O23 2.769012 1_555
K3 O10 2.781422 1_554
K3 O14 2.802406 1_654
K3 O17 2.865113 1_555
K3 O3 2.920289 1_555
K4 O9 2.766195 1_565
K4 O17 2.771144 1_555
K4 O26 2.828058 1_555
K4 O20 2.837981 1_565
K4 O21 2.956982 1_555
K4 O18 3.056937 1_555
K4 O0 3.100293 1_555
K5 O8 2.766195 1_545
K5 O16 2.771144 1_555
K5 O27 2.828058 1_555
K5 O21 2.837981 1_545
K5 O20 2.956982 1_555
K5 O19 3.056937 1_555
K5 O1 3.100293 1_555
K6 O13 2.607733 1_555
K6 O18 2.717712 1_555
K6 O20 2.764957 1_555
K6 O9 2.776302 1_555
K6 O1 3.003310 1_555
K7 O12 2.607733 1_555
K7 O19 2.717712 1_555
K7 O21 2.764957 1_555
K7 O8 2.776302 1_555
K7 O0 3.003310 1_555
H0 O24 0.987217 1_555
H1 O25 0.987217 1_555
H2 O24 0.985838 1_555
H3 O25 0.985838 1_555
H4 O26 0.974354 1_555
H4 K7 2.681219 1_455
H4 K4 2.802205 1_555
H5 O27 0.974354 1_555
H5 K6 2.681219 1_655
H5 K5 2.802205 1_555
H6 O26 0.987337 1_555
H7 O27 0.987337 1_555
O0 P0 1.638504 1_555
O0 P4 1.656132 1_555
O1 P1 1.638504 1_555
O1 P5 1.656132 1_555
O2 P4 1.628039 1_555
O2 P2 1.654106 1_555
O3 P5 1.628039 1_555
O3 P3 1.654106 1_555
O4 P6 1.625566 1_555
O4 P2 1.654300 1_555
O5 P7 1.625566 1_555
O5 P3 1.654300 1_555
O6 P6 1.629669 1_555
O6 P0 1.639102 1_555
O7 P7 1.629669 1_555
O7 P1 1.639102 1_555
O8 P0 1.502430 1_555
O9 P1 1.502430 1_555
O10 P0 1.495359 1_555
O11 P1 1.495359 1_555
O12 P2 1.491326 1_655
O13 P3 1.491326 1_455
O14 P2 1.492094 1_555
O15 P3 1.492094 1_555
O16 P4 1.501674 1_555
O17 P5 1.501674 1_555
O18 P4 1.496508 1_555
O19 P5 1.496508 1_555
O20 P6 1.502132 1_545
O21 P7 1.502132 1_565
O22 P6 1.507873 1_545
O23 P7 1.507873 1_565
