# generated using pymatgen
data_Li3Co2(SiO4)2
_symmetry_space_group_name_H-M   'P 1'
_cell_length_a   5.23008408
_cell_length_b   5.23008408
_cell_length_c   6.46686343
_cell_angle_alpha   89.32197857
_cell_angle_beta   89.32197857
_cell_angle_gamma   91.58759451
_symmetry_Int_Tables_number   1
_chemical_formula_structural   Li3Co2(SiO4)2
_chemical_formula_sum   'Li3 Co2 Si2 O8'
_cell_volume   176.79978524
_cell_formula_units_Z   1
loop_
 _symmetry_equiv_pos_site_id
 _symmetry_equiv_pos_as_xyz
  1  'x, y, z'
loop_
 _atom_site_type_symbol
 _atom_site_label
 _atom_site_symmetry_multiplicity
 _atom_site_fract_x
 _atom_site_fract_y
 _atom_site_fract_z
 _atom_site_occupancy
  Li  Li0  1  0.17249500  0.82571600  0.50563300  1
  Li  Li1  1  0.31679500  0.31679500  0.26522100  1
  Li  Li2  1  0.82571600  0.17249500  0.50563300  1
  Co  Co0  1  0.19703000  0.81091500  0.99427700  1
  Co  Co1  1  0.81091500  0.19703000  0.99427700  1
  Si  Si0  1  0.68825200  0.68825200  0.25670200  1
  Si  Si1  1  0.32633600  0.32633600  0.74258400  1
  O  O0  1  0.82642600  0.82642600  0.04481000  1
  O  O1  1  0.37147500  0.72197800  0.23954700  1
  O  O2  1  0.81115700  0.81115700  0.45571200  1
  O  O3  1  0.26743100  0.63279100  0.75722800  1
  O  O4  1  0.72197800  0.37147500  0.23954700  1
  O  O5  1  0.20455900  0.20455900  0.53662200  1
  O  O6  1  0.63279100  0.26743100  0.75722800  1
  O  O7  1  0.19204600  0.19204600  0.96300900  1
loop_
_geom_bond_atom_site_label_1
_geom_bond_atom_site_label_2
_geom_bond_distance
_geom_bond_site_symmetry_2
Li0 O2 1.920551 1_455
Li0 O3 1.979873 1_555
Li0 O5 1.996480 1_565
Li0 O1 2.085508 1_555
Li1 O5 1.923983 1_555
Li1 O4 2.134732 1_555
Li1 O1 2.134732 1_555
Li1 O7 2.169719 1_554
Li2 O2 1.920551 1_545
Li2 O6 1.979873 1_555
Li2 O5 1.996480 1_655
Li2 O4 2.085508 1_555
Co0 O3 1.841978 1_555
Co0 O1 1.898650 1_556
Co0 O0 1.965882 1_456
Co0 O7 2.002115 1_565
Co1 O6 1.841978 1_555
Co1 O4 1.898650 1_556
Co1 O0 1.965882 1_546
Co1 O7 2.002115 1_655
O0 Si0 1.687106 1_555
O1 Si0 1.675825 1_555
O2 Si0 1.580806 1_555
O3 Si1 1.644100 1_555
O4 Si0 1.675825 1_555
O5 Si1 1.613382 1_555
O6 Si1 1.644100 1_555
O7 Si1 1.715749 1_555
