# generated using pymatgen
data_Rb2UO3F4
_symmetry_space_group_name_H-M   'P 1'
_cell_length_a   10.69587900
_cell_length_b   12.74238200
_cell_length_c   13.33637900
_cell_angle_alpha   90.00000000
_cell_angle_beta   90.00000000
_cell_angle_gamma   90.00000000
_symmetry_Int_Tables_number   1
_chemical_formula_structural   Rb2UO3F4
_chemical_formula_sum   'Rb16 U8 O24 F32'
_cell_volume   1817.62811080
_cell_formula_units_Z   8
loop_
 _symmetry_equiv_pos_site_id
 _symmetry_equiv_pos_as_xyz
  1  'x, y, z'
loop_
 _atom_site_type_symbol
 _atom_site_label
 _atom_site_symmetry_multiplicity
 _atom_site_fract_x
 _atom_site_fract_y
 _atom_site_fract_z
 _atom_site_occupancy
  Rb  Rb0  1  0.46381100  0.12770200  0.07105200  1
  Rb  Rb1  1  0.96381100  0.87229800  0.42894800  1
  Rb  Rb2  1  0.53618900  0.37229800  0.57105200  1
  Rb  Rb3  1  0.03618900  0.62770200  0.92894800  1
  Rb  Rb4  1  0.53618900  0.87229800  0.92894800  1
  Rb  Rb5  1  0.03618900  0.12770200  0.57105200  1
  Rb  Rb6  1  0.46381100  0.62770200  0.42894800  1
  Rb  Rb7  1  0.96381100  0.37229800  0.07105200  1
  Rb  Rb8  1  0.72125300  0.29649300  0.81773100  1
  Rb  Rb9  1  0.22125300  0.70350700  0.68226900  1
  Rb  Rb10  1  0.27874700  0.20350700  0.31773100  1
  Rb  Rb11  1  0.77874700  0.79649300  0.18226900  1
  Rb  Rb12  1  0.27874700  0.70350700  0.18226900  1
  Rb  Rb13  1  0.77874700  0.29649300  0.31773100  1
  Rb  Rb14  1  0.72125300  0.79649300  0.68226900  1
  Rb  Rb15  1  0.22125300  0.20350700  0.81773100  1
  U  U0  1  0.67984500  0.56076000  0.00466800  1
  U  U1  1  0.17984500  0.43924000  0.49533200  1
  U  U2  1  0.32015500  0.93924000  0.50466800  1
  U  U3  1  0.82015500  0.06076000  0.99533200  1
  U  U4  1  0.32015500  0.43924000  0.99533200  1
  U  U5  1  0.82015500  0.56076000  0.50466800  1
  U  U6  1  0.67984500  0.06076000  0.49533200  1
  U  U7  1  0.17984500  0.93924000  0.00466800  1
  O  O0  1  0.29516500  0.35704800  0.15238200  1
  O  O1  1  0.79516500  0.64295200  0.34761800  1
  O  O2  1  0.70483500  0.14295200  0.65238200  1
  O  O3  1  0.20483500  0.85704800  0.84761800  1
  O  O4  1  0.70483500  0.64295200  0.84761800  1
  O  O5  1  0.20483500  0.35704800  0.65238200  1
  O  O6  1  0.29516500  0.85704800  0.34761800  1
  O  O7  1  0.79516500  0.14295200  0.15238200  1
  O  O8  1  0.83137500  0.61056800  0.06273500  1
  O  O9  1  0.33137500  0.38943200  0.43726500  1
  O  O10  1  0.16862500  0.88943200  0.56273500  1
  O  O11  1  0.66862500  0.11056800  0.93726500  1
  O  O12  1  0.16862500  0.38943200  0.93726500  1
  O  O13  1  0.66862500  0.61056800  0.56273500  1
  O  O14  1  0.83137500  0.11056800  0.43726500  1
  O  O15  1  0.33137500  0.88943200  0.06273500  1
  O  O16  1  0.60389900  0.18871000  0.45313000  1
  O  O17  1  0.10389900  0.81129000  0.04687000  1
  O  O18  1  0.39610100  0.31129000  0.95313000  1
  O  O19  1  0.89610100  0.68871000  0.54687000  1
  O  O20  1  0.39610100  0.81129000  0.54687000  1
  O  O21  1  0.89610100  0.18871000  0.95313000  1
  O  O22  1  0.60389900  0.68871000  0.04687000  1
  O  O23  1  0.10389900  0.31129000  0.45313000  1
  F  F0  1  0.68350600  0.46652800  0.41828000  1
  F  F1  1  0.18350600  0.53347200  0.08172000  1
  F  F2  1  0.31649400  0.03347200  0.91828000  1
  F  F3  1  0.81649400  0.96652800  0.58172000  1
  F  F4  1  0.31649400  0.53347200  0.58172000  1
  F  F5  1  0.81649400  0.46652800  0.91828000  1
  F  F6  1  0.68350600  0.96652800  0.08172000  1
  F  F7  1  0.18350600  0.03347200  0.41828000  1
  F  F8  1  0.70355300  0.42533400  0.10552400  1
  F  F9  1  0.20355300  0.57466600  0.39447600  1
  F  F10  1  0.29644700  0.07466600  0.60552400  1
  F  F11  1  0.79644700  0.92533400  0.89447600  1
  F  F12  1  0.29644700  0.57466600  0.89447600  1
  F  F13  1  0.79644700  0.42533400  0.60552400  1
  F  F14  1  0.70355300  0.92533400  0.39447600  1
  F  F15  1  0.20355300  0.07466600  0.10552400  1
  F  F16  1  0.54521000  0.47280900  0.91390600  1
  F  F17  1  0.04521000  0.52719100  0.58609400  1
  F  F18  1  0.45479000  0.02719100  0.41390600  1
  F  F19  1  0.95479000  0.97280900  0.08609400  1
  F  F20  1  0.45479000  0.52719100  0.08609400  1
  F  F21  1  0.95479000  0.47280900  0.41390600  1
  F  F22  1  0.54521000  0.97280900  0.58609400  1
  F  F23  1  0.04521000  0.02719100  0.91390600  1
  F  F24  1  0.42506200  0.32296300  0.17499200  1
  F  F25  1  0.92506200  0.67703700  0.32500800  1
  F  F26  1  0.57493800  0.17703700  0.67499200  1
  F  F27  1  0.07493800  0.82296300  0.82500800  1
  F  F28  1  0.57493800  0.67703700  0.82500800  1
  F  F29  1  0.07493800  0.32296300  0.67499200  1
  F  F30  1  0.42506200  0.82296300  0.32500800  1
  F  F31  1  0.92506200  0.17703700  0.17499200  1
loop_
_geom_bond_atom_site_label_1
_geom_bond_atom_site_label_2
_geom_bond_distance
_geom_bond_site_symmetry_2
O0 U4 2.356940 1_554
O0 Rb10 2.953195 1_555
O1 U5 2.356940 1_555
O1 Rb11 2.953195 1_555
O2 U6 2.356940 1_555
O2 Rb8 2.953195 1_555
O3 U7 2.356940 1_556
O3 Rb9 2.953195 1_555
O4 U0 2.356940 1_556
O4 Rb14 2.953195 1_555
O5 U1 2.356940 1_555
O5 Rb15 2.953195 1_555
O6 U2 2.356940 1_555
O6 Rb12 2.953195 1_555
O7 U3 2.356940 1_554
O7 Rb13 2.953195 1_555
O8 U0 1.905080 1_555
O8 Rb3 2.833756 1_654
O8 Rb11 2.910488 1_555
O8 Rb7 3.352149 1_555
O9 U1 1.905080 1_555
O9 Rb2 2.833756 1_555
O9 Rb10 2.910488 1_555
O9 Rb6 3.352149 1_555
O10 U2 1.905080 1_555
O10 Rb1 2.833756 1_455
O10 Rb9 2.910488 1_555
O10 Rb5 3.352149 1_565
O11 U3 1.905080 1_555
O11 Rb0 2.833756 1_556
O11 Rb8 2.910488 1_555
O11 Rb4 3.352149 1_545
O12 U4 1.905080 1_555
O12 Rb7 2.833756 1_456
O12 Rb15 2.910488 1_555
O12 Rb3 3.352149 1_555
O13 U5 1.905080 1_555
O13 Rb6 2.833756 1_555
O13 Rb14 2.910488 1_555
O13 Rb2 3.352149 1_555
O14 U6 1.905080 1_555
O14 Rb5 2.833756 1_655
O14 Rb13 2.910488 1_555
O14 Rb1 3.352149 1_545
O15 U7 1.905080 1_555
O15 Rb4 2.833756 1_554
O15 Rb12 2.910488 1_555
O15 Rb0 3.352149 1_565
O16 U6 1.906510 1_555
O16 Rb2 2.910374 1_555
O16 Rb13 2.940137 1_555
O17 U7 1.906510 1_555
O17 Rb3 2.910374 1_554
O17 Rb12 2.940137 1_555
O18 U4 1.906510 1_555
O18 Rb0 2.910374 1_556
O18 Rb15 2.940137 1_555
O19 U5 1.906510 1_555
O19 Rb1 2.910374 1_555
O19 Rb14 2.940137 1_555
O20 U2 1.906510 1_555
O20 Rb6 2.910374 1_555
O20 Rb9 2.940137 1_555
O21 U3 1.906510 1_555
O21 Rb7 2.910374 1_556
O21 Rb8 2.940137 1_555
O22 U0 1.906510 1_555
O22 Rb4 2.910374 1_554
O22 Rb11 2.940137 1_555
O23 U1 1.906510 1_555
O23 Rb5 2.910374 1_555
O23 Rb10 2.940137 1_555
F0 U5 2.214800 1_555
F0 Rb13 2.744134 1_555
F0 Rb2 2.841760 1_555
F0 Rb6 3.124068 1_555
F1 U4 2.214800 1_554
F1 Rb12 2.744134 1_555
F1 Rb3 2.841760 1_554
F1 Rb7 3.124068 1_455
F2 U7 2.214800 1_546
F2 Rb15 2.744134 1_555
F2 Rb0 2.841760 1_556
F2 Rb4 3.124068 1_545
F3 U6 2.214800 1_565
F3 Rb14 2.744134 1_555
F3 Rb1 2.841760 1_555
F3 Rb5 3.124068 1_665
F4 U1 2.214800 1_555
F4 Rb9 2.744134 1_555
F4 Rb6 2.841760 1_555
F4 Rb2 3.124068 1_555
F5 U0 2.214800 1_556
F5 Rb8 2.744134 1_555
F5 Rb7 2.841760 1_556
F5 Rb3 3.124068 1_655
F6 U3 2.214800 1_564
F6 Rb11 2.744134 1_555
F6 Rb4 2.841760 1_554
F6 Rb0 3.124068 1_565
F7 U2 2.214800 1_545
F7 Rb10 2.744134 1_555
F7 Rb5 2.841760 1_555
F7 Rb1 3.124068 1_445
F8 U0 2.202576 1_555
F8 Rb7 2.901204 1_555
F8 Rb13 3.369194 1_555
F9 U1 2.202576 1_555
F9 Rb6 2.901204 1_555
F9 Rb12 3.369194 1_555
F10 U2 2.202576 1_545
F10 Rb5 2.901204 1_555
F10 Rb15 3.369194 1_555
F11 U3 2.202576 1_565
F11 Rb4 2.901204 1_555
F11 Rb14 3.369194 1_555
F12 U4 2.202576 1_555
F12 Rb3 2.901204 1_555
F12 Rb9 3.369194 1_555
F13 U5 2.202576 1_555
F13 Rb2 2.901204 1_555
F13 Rb8 3.369194 1_555
F14 U6 2.202576 1_565
F14 Rb1 2.901204 1_555
F14 Rb11 3.369194 1_555
F15 U7 2.202576 1_545
F15 Rb0 2.901204 1_555
F15 Rb10 3.369194 1_555
F16 U0 2.189715 1_556
F16 U4 2.675188 1_555
F16 Rb8 3.199714 1_555
F17 U1 2.189715 1_555
F17 U5 2.675188 1_455
F17 Rb9 3.199714 1_555
F18 U2 2.189715 1_545
F18 U6 2.675188 1_555
F18 Rb10 3.199714 1_555
F19 U3 2.189715 1_564
F19 U7 2.675188 1_655
F19 Rb11 3.199714 1_555
F20 U4 2.189715 1_554
F20 U0 2.675188 1_555
F20 Rb12 3.199714 1_555
F21 U5 2.189715 1_555
F21 U1 2.675188 1_655
F21 Rb13 3.199714 1_555
F22 U6 2.189715 1_565
F22 U2 2.675188 1_555
F22 Rb14 3.199714 1_555
F23 U7 2.189715 1_546
F23 U3 2.675188 1_455
F23 Rb15 3.199714 1_555
F24 O0 1.486570 1_555
F24 Rb0 2.878171 1_555
F24 Rb10 2.896524 1_555
F25 O1 1.486570 1_555
F25 Rb1 2.878171 1_555
F25 Rb11 2.896524 1_555
F26 O2 1.486570 1_555
F26 Rb2 2.878171 1_555
F26 Rb8 2.896524 1_555
F27 O3 1.486570 1_555
F27 Rb3 2.878171 1_555
F27 Rb9 2.896524 1_555
F28 O4 1.486570 1_555
F28 Rb4 2.878171 1_555
F28 Rb14 2.896524 1_555
F29 O5 1.486570 1_555
F29 Rb5 2.878171 1_555
F29 Rb15 2.896524 1_555
F30 O6 1.486570 1_555
F30 Rb6 2.878171 1_555
F30 Rb12 2.896524 1_555
F31 O7 1.486570 1_555
F31 Rb7 2.878171 1_555
F31 Rb13 2.896524 1_555
