# generated using pymatgen
data_LiAlVO4
_symmetry_space_group_name_H-M   'P 1'
_cell_length_a   5.78068251
_cell_length_b   5.81491732
_cell_length_c   10.09376605
_cell_angle_alpha   105.69466204
_cell_angle_beta   89.99976314
_cell_angle_gamma   60.19466960
_symmetry_Int_Tables_number   1
_chemical_formula_structural   LiAlVO4
_chemical_formula_sum   'Li4 Al4 V4 O16'
_cell_volume   279.73932655
_cell_formula_units_Z   4
loop_
 _symmetry_equiv_pos_site_id
 _symmetry_equiv_pos_as_xyz
  1  'x, y, z'
loop_
 _atom_site_type_symbol
 _atom_site_label
 _atom_site_symmetry_multiplicity
 _atom_site_fract_x
 _atom_site_fract_y
 _atom_site_fract_z
 _atom_site_occupancy
  Li  Li0  1  0.94022200  0.11954400  0.19023400  1
  Li  Li1  1  0.44030200  0.11939500  0.69017000  1
  Li  Li2  1  0.06076900  0.87845400  0.81080200  1
  Li  Li3  1  0.56076000  0.87849600  0.31087200  1
  Al  Al0  1  0.99999000  0.50062100  0.99972000  1
  Al  Al1  1  0.50013500  0.50036200  0.49978000  1
  Al  Al2  1  0.99951500  0.50035900  0.49978400  1
  Al  Al3  1  0.49938000  0.50062000  0.99971400  1
  V  V0  1  0.75113300  0.49772900  0.74959300  1
  V  V1  1  0.49949900  0.00096400  0.00120400  1
  V  V2  1  0.25102800  0.49795300  0.24961300  1
  V  V3  1  0.99971300  0.00061200  0.50097700  1
  O  O0  1  0.35160300  0.29680600  0.38346700  1
  O  O1  1  0.85164500  0.29670800  0.88359800  1
  O  O2  1  0.86599900  0.26799300  0.39867300  1
  O  O3  1  0.36588600  0.26822700  0.89872600  1
  O  O4  1  0.13350000  0.73300100  0.60161600  1
  O  O5  1  0.63341700  0.73317700  0.10165200  1
  O  O6  1  0.64878400  0.70243900  0.61583400  1
  O  O7  1  0.14862700  0.70273400  0.11590300  1
  O  O8  1  0.09710600  0.26562500  0.61711500  1
  O  O9  1  0.59698400  0.26588500  0.11713800  1
  O  O10  1  0.63727300  0.26565900  0.61713500  1
  O  O11  1  0.13713600  0.26585300  0.11712400  1
  O  O12  1  0.36021100  0.73520500  0.38240800  1
  O  O13  1  0.86013500  0.73518700  0.88236700  1
  O  O14  1  0.90460900  0.73518500  0.38240200  1
  O  O15  1  0.40463900  0.73520800  0.88237700  1
loop_
_geom_bond_atom_site_label_1
_geom_bond_atom_site_label_2
_geom_bond_distance
_geom_bond_site_symmetry_2
Li0 O11 1.966345 1_655
Li0 O9 1.966357 1_555
Li0 O7 2.000533 1_645
Li0 O2 2.001250 1_555
Li1 O8 1.965939 1_555
Li1 O10 1.966019 1_555
Li1 O6 2.001224 1_545
Li1 O3 2.002444 1_555
Li2 O15 1.961305 1_555
Li2 O13 1.961395 1_455
Li2 O1 2.006689 1_465
Li2 O4 2.007672 1_555
Li3 O12 1.960974 1_555
Li3 O14 1.960996 1_555
Li3 O0 2.006878 1_565
Li3 O5 2.007969 1_555
Al0 O13 1.922257 1_555
Al0 O11 1.922463 1_656
Al0 O3 1.937099 1_655
Al0 O7 1.937270 1_656
Al0 O1 1.942702 1_555
Al0 O5 1.943238 1_556
Al1 O10 1.921806 1_555
Al1 O12 1.923514 1_555
Al1 O6 1.936608 1_555
Al1 O2 1.937345 1_555
Al1 O0 1.942970 1_555
Al1 O4 1.943180 1_555
Al2 O8 1.921732 1_655
Al2 O14 1.923527 1_555
Al2 O6 1.936606 1_555
Al2 O2 1.937439 1_555
Al2 O0 1.942985 1_655
Al2 O4 1.943135 1_655
Al3 O15 1.922208 1_555
Al3 O9 1.922491 1_556
Al3 O3 1.937043 1_555
Al3 O7 1.937304 1_556
Al3 O1 1.942701 1_555
Al3 O5 1.943352 1_556
O0 V2 1.926270 1_555
O1 V0 1.927116 1_555
O2 V3 1.937812 1_555
O3 V1 1.938616 1_556
O4 V3 1.926244 1_465
O5 V1 1.925576 1_565
O6 V0 1.938884 1_555
O7 V2 1.938726 1_555
O8 V0 1.987392 1_455
O8 V3 1.987734 1_455
O9 V1 1.986903 1_555
O9 V2 1.987312 1_555
O10 V0 1.987132 1_555
O10 V3 1.987957 1_555
O11 V1 1.986663 1_555
O11 V2 1.987524 1_555
O12 V3 1.990073 1_465
O12 V2 1.990848 1_555
O13 V0 1.990854 1_555
O13 V1 1.991860 1_566
O14 V3 1.990237 1_565
O14 V2 1.990752 1_655
O15 V0 1.991030 1_555
O15 V1 1.991736 1_566
