# generated using pymatgen
data_K3LiNb6O15
_symmetry_space_group_name_H-M   'P 1'
_cell_length_a   12.97189800
_cell_length_b   4.08855000
_cell_length_c   12.96533281
_cell_angle_alpha   89.66034639
_cell_angle_beta   90.00000000
_cell_angle_gamma   90.00000000
_symmetry_Int_Tables_number   1
_chemical_formula_structural   K3LiNb6O15
_chemical_formula_sum   'K6 Li2 Nb12 O30'
_cell_volume   687.62059631
_cell_formula_units_Z   2
loop_
 _symmetry_equiv_pos_site_id
 _symmetry_equiv_pos_as_xyz
  1  'x, y, z'
loop_
 _atom_site_type_symbol
 _atom_site_label
 _atom_site_symmetry_multiplicity
 _atom_site_fract_x
 _atom_site_fract_y
 _atom_site_fract_z
 _atom_site_occupancy
  K  K0  1  0.24416400  0.53252100  0.00226100  1
  K  K1  1  0.41530100  0.52051300  0.32395200  1
  K  K2  1  0.58469900  0.52051300  0.82395200  1
  K  K3  1  0.75583600  0.53252100  0.50226100  1
  K  K4  1  0.93095000  0.51588800  0.17112900  1
  K  K5  1  0.06905000  0.51588800  0.67112900  1
  Li  Li0  1  0.88652400  0.50499000  0.86328200  1
  Li  Li1  1  0.11347600  0.50499000  0.36328200  1
  Nb  Nb0  1  0.24466000  0.01401700  0.49452100  1
  Nb  Nb1  1  0.32222900  0.02638300  0.79563400  1
  Nb  Nb2  1  0.37348500  0.36926800  0.62578400  1
  Nb  Nb3  1  0.45112100  0.02195600  0.07287400  1
  Nb  Nb4  1  0.54887900  0.02195600  0.57287400  1
  Nb  Nb5  1  0.62651500  0.36926800  0.12578400  1
  Nb  Nb6  1  0.67777100  0.02638300  0.29563400  1
  Nb  Nb7  1  0.75534000  0.01401700  0.99452100  1
  Nb  Nb8  1  0.82695500  0.02532900  0.70453500  1
  Nb  Nb9  1  0.95673000  0.02511100  0.42317600  1
  Nb  Nb10  1  0.04327000  0.02511100  0.92317600  1
  Nb  Nb11  1  0.17304500  0.02532900  0.20453500  1
  O  O0  1  0.25618600  0.52996200  0.50581900  1
  O  O1  1  0.24669600  0.03598800  0.65592300  1
  O  O2  1  0.31430600  0.02713400  0.14214000  1
  O  O3  1  0.33181200  0.54274100  0.78188400  1
  O  O4  1  0.38873000  0.04167100  0.93583700  1
  O  O5  1  0.40507800  0.03283500  0.50107200  1
  O  O6  1  0.46554700  0.04123900  0.71611300  1
  O  O7  1  0.46850900  0.53789900  0.08525400  1
  O  O8  1  0.53149100  0.53789900  0.58525400  1
  O  O9  1  0.53445300  0.04123900  0.21611300  1
  O  O10  1  0.59492200  0.03283500  0.00107200  1
  O  O11  1  0.61127000  0.04167100  0.43583700  1
  O  O12  1  0.66818800  0.54274100  0.28188400  1
  O  O13  1  0.68569400  0.02713400  0.64214000  1
  O  O14  1  0.75330400  0.03598800  0.15592300  1
  O  O15  1  0.74381400  0.52996200  0.00581900  1
  O  O16  1  0.75339100  0.03295600  0.84587900  1
  O  O17  1  0.81868500  0.03156200  0.36054400  1
  O  O18  1  0.83173200  0.52632000  0.71405900  1
  O  O19  1  0.89382600  0.02304900  0.56871700  1
  O  O20  1  0.90456500  0.03286600  0.99728900  1
  O  O21  1  0.95969700  0.02608800  0.79177500  1
  O  O22  1  0.96435800  0.52683800  0.42054600  1
  O  O23  1  0.03564200  0.52683800  0.92054600  1
  O  O24  1  0.04030300  0.02608800  0.29177500  1
  O  O25  1  0.09543500  0.03286600  0.49728900  1
  O  O26  1  0.10617400  0.02304900  0.06871700  1
  O  O27  1  0.16826800  0.52632000  0.21405900  1
  O  O28  1  0.18131500  0.03156200  0.86054400  1
  O  O29  1  0.24660900  0.03295600  0.34587900  1
loop_
_geom_bond_atom_site_label_1
_geom_bond_atom_site_label_2
_geom_bond_distance
_geom_bond_site_symmetry_2
K0 O26 2.826514 1_565
K0 O28 2.856454 1_564
K0 O2 2.872266 1_565
K0 O26 2.874732 1_555
K0 O28 2.877579 1_554
K0 O4 2.882085 1_554
K0 O2 2.888270 1_555
K0 O23 2.905154 1_554
K0 O27 2.917152 1_555
K0 O4 2.927554 1_564
K0 O3 3.075216 1_554
K0 O7 3.102863 1_555
K1 O9 2.866375 1_555
K1 O29 2.972577 1_555
K1 O9 2.973424 1_565
K1 O5 3.035204 1_555
K1 O29 3.044009 1_565
K1 O5 3.120214 1_565
K1 O0 3.134130 1_555
K1 O7 3.171216 1_555
K2 O6 2.866375 1_555
K2 O16 2.972577 1_555
K2 O6 2.973424 1_565
K2 O10 3.035204 1_556
K2 O16 3.044009 1_565
K2 O10 3.120214 1_566
K2 O15 3.134130 1_556
K2 O8 3.171216 1_555
K3 O19 2.826514 1_565
K3 O17 2.856454 1_565
K3 O13 2.872266 1_565
K3 O19 2.874732 1_555
K3 O17 2.877579 1_555
K3 O11 2.882085 1_555
K3 O13 2.888270 1_555
K3 O22 2.905154 1_555
K3 O18 2.917152 1_555
K3 O11 2.927554 1_565
K3 O12 3.075216 1_555
K3 O8 3.102863 1_555
K4 O24 2.903810 1_655
K4 O24 2.974718 1_665
K4 O20 3.024901 1_554
K4 O14 3.033737 1_555
K4 O20 3.099739 1_564
K4 O27 3.128714 1_655
K4 O14 3.141018 1_565
K4 O15 3.238577 1_555
K4 O22 3.263253 1_555
K4 O26 3.319861 1_655
K4 O26 3.346120 1_665
K5 O21 2.903810 1_455
K5 O21 2.974718 1_465
K5 O25 3.024901 1_555
K5 O1 3.033737 1_555
K5 O25 3.099739 1_565
K5 O18 3.128714 1_455
K5 O1 3.141018 1_565
K5 O0 3.238577 1_555
K5 O23 3.263253 1_555
K5 O19 3.319861 1_455
K5 O19 3.346120 1_465
Li0 O18 2.062509 1_555
Li0 O23 2.074049 1_655
Li0 O21 2.369778 1_555
Li0 O21 2.505248 1_565
Li0 O20 2.599960 1_555
Li0 O16 2.600617 1_555
Li0 O15 2.618191 1_556
Li1 O27 2.062509 1_555
Li1 O22 2.074049 1_455
Li1 O24 2.369778 1_555
Li1 O24 2.505248 1_565
Li1 O25 2.599960 1_555
Li1 O29 2.600617 1_555
Li1 O0 2.618191 1_555
Nb0 O29 1.928455 1_555
Nb0 O25 1.937606 1_555
Nb0 O0 1.989257 1_545
Nb0 O5 2.084098 1_555
Nb0 O1 2.095256 1_555
Nb0 O0 2.120690 1_555
Nb1 O3 1.990352 1_545
Nb1 O28 2.012515 1_555
Nb1 O4 2.013387 1_555
Nb1 O1 2.059584 1_555
Nb1 O3 2.121261 1_555
Nb1 O6 2.126551 1_555
Nb2 O6 2.139588 1_555
Nb2 O5 2.168146 1_555
Nb2 O1 2.169831 1_555
Nb2 O3 2.215493 1_555
Nb2 O8 2.224456 1_555
Nb2 O0 2.270243 1_555
Nb3 O4 1.953608 1_554
Nb3 O2 1.989200 1_555
Nb3 O7 1.997417 1_545
Nb3 O10 2.085124 1_555
Nb3 O7 2.128490 1_555
Nb3 O9 2.150681 1_555
Nb4 O11 1.953608 1_555
Nb4 O13 1.989200 1_555
Nb4 O8 1.997417 1_545
Nb4 O5 2.085124 1_555
Nb4 O8 2.128490 1_555
Nb4 O6 2.150681 1_555
Nb5 O9 2.139588 1_555
Nb5 O10 2.168146 1_555
Nb5 O14 2.169831 1_555
Nb5 O12 2.215493 1_555
Nb5 O7 2.224456 1_555
Nb5 O15 2.270243 1_555
Nb6 O12 1.990352 1_545
Nb6 O17 2.012515 1_555
Nb6 O11 2.013387 1_555
Nb6 O14 2.059584 1_555
Nb6 O12 2.121261 1_555
Nb6 O9 2.126551 1_555
Nb7 O16 1.928455 1_555
Nb7 O20 1.937606 1_555
Nb7 O15 1.989257 1_546
Nb7 O10 2.084098 1_556
Nb7 O14 2.095256 1_556
Nb7 O15 2.120690 1_556
Nb8 O19 1.963059 1_555
Nb8 O13 2.003046 1_555
Nb8 O18 2.044165 1_545
Nb8 O18 2.053711 1_555
Nb8 O21 2.060200 1_555
Nb8 O16 2.066541 1_555
Nb9 O17 1.966338 1_555
Nb9 O24 2.019321 1_655
Nb9 O22 2.040103 1_545
Nb9 O25 2.040112 1_655
Nb9 O22 2.053802 1_555
Nb9 O19 2.055829 1_555
Nb10 O28 1.966338 1_555
Nb10 O21 2.019321 1_455
Nb10 O23 2.040103 1_545
Nb10 O20 2.040112 1_455
Nb10 O23 2.053802 1_555
Nb10 O26 2.055829 1_556
Nb11 O26 1.963059 1_555
Nb11 O2 2.003046 1_555
Nb11 O27 2.044165 1_545
Nb11 O27 2.053711 1_555
Nb11 O24 2.060200 1_555
Nb11 O29 2.066541 1_555
