# generated using pymatgen
data_Li6CrO6
_symmetry_space_group_name_H-M   'P 1'
_cell_length_a   5.65904706
_cell_length_b   5.65904706
_cell_length_c   10.90349245
_cell_angle_alpha   89.09120582
_cell_angle_beta   89.09120582
_cell_angle_gamma   59.49028501
_symmetry_Int_Tables_number   1
_chemical_formula_structural   Li6CrO6
_chemical_formula_sum   'Li12 Cr2 O12'
_cell_volume   300.78540954
_cell_formula_units_Z   2
loop_
 _symmetry_equiv_pos_site_id
 _symmetry_equiv_pos_as_xyz
  1  'x, y, z'
loop_
 _atom_site_type_symbol
 _atom_site_label
 _atom_site_symmetry_multiplicity
 _atom_site_fract_x
 _atom_site_fract_y
 _atom_site_fract_z
 _atom_site_occupancy
  Li  Li0  1  0.38453000  0.97352700  0.26633900  1
  Li  Li1  1  0.38527700  0.99823000  0.85229600  1
  Li  Li2  1  0.97352700  0.38453000  0.76633900  1
  Li  Li3  1  0.70721200  0.99708100  0.74214400  1
  Li  Li4  1  0.99823000  0.38527700  0.35229600  1
  Li  Li5  1  0.32925800  0.32555700  0.59019000  1
  Li  Li6  1  0.68322100  0.64544800  0.08996200  1
  Li  Li7  1  0.32555700  0.32925800  0.09019000  1
  Li  Li8  1  0.64544800  0.68322100  0.58996200  1
  Li  Li9  1  0.60918200  0.36222800  0.26866900  1
  Li  Li10  1  0.99708100  0.70721200  0.24214400  1
  Li  Li11  1  0.36222800  0.60918200  0.76866900  1
  Cr  Cr0  1  0.00148200  0.00035100  0.49841100  1
  Cr  Cr1  1  0.00035100  0.00148200  0.99841100  1
  O  O0  1  0.28865800  0.99671400  0.04235600  1
  O  O1  1  0.99671400  0.28865800  0.54235600  1
  O  O2  1  0.72009500  0.00317600  0.55077600  1
  O  O3  1  0.33766500  0.30128000  0.76230200  1
  O  O4  1  0.69645900  0.64001100  0.26203200  1
  O  O5  1  0.00975100  0.00431500  0.84486200  1
  O  O6  1  0.00431500  0.00975100  0.34486200  1
  O  O7  1  0.30128000  0.33766500  0.26230200  1
  O  O8  1  0.64001100  0.69645900  0.76203200  1
  O  O9  1  0.71906100  0.27729900  0.05211000  1
  O  O10  1  0.00317600  0.72009500  0.05077600  1
  O  O11  1  0.27729900  0.71906100  0.55211000  1
loop_
_geom_bond_atom_site_label_1
_geom_bond_atom_site_label_2
_geom_bond_distance
_geom_bond_site_symmetry_2
Li0 O4 1.815972 1_555
Li0 O7 1.866095 1_565
Li0 O6 2.214487 1_565
Li0 O0 2.497094 1_555
Li1 O3 1.860754 1_565
Li1 O8 1.863265 1_555
Li1 O5 2.110678 1_565
Li1 O0 2.135835 1_556
Li2 O8 1.815972 1_555
Li2 O3 1.866095 1_655
Li2 O5 2.214487 1_655
Li2 O1 2.497094 1_555
Li3 O3 1.930610 1_565
Li3 O8 1.930916 1_555
Li3 O5 2.078633 1_665
Li3 O2 2.087047 1_565
Li4 O7 1.860754 1_655
Li4 O4 1.863265 1_555
Li4 O6 2.110678 1_655
Li4 O1 2.135835 1_555
Li5 O3 1.879060 1_555
Li5 O1 2.071400 1_455
Li5 O2 2.074257 1_555
Li5 O11 2.127780 1_555
Li6 O4 1.877987 1_555
Li6 O9 2.036539 1_555
Li6 O10 2.094226 1_655
Li6 O0 2.168829 1_555
Li7 O7 1.879060 1_555
Li7 O0 2.071400 1_545
Li7 O10 2.074257 1_555
Li7 O9 2.127780 1_555
Li8 O8 1.877987 1_555
Li8 O11 2.036539 1_555
Li8 O2 2.094226 1_565
Li8 O1 2.168829 1_555
Li9 O7 1.819417 1_555
Li9 O4 1.871877 1_555
Li9 O6 2.268596 1_655
Li9 O9 2.424689 1_555
Li10 O7 1.930610 1_655
Li10 O4 1.930916 1_555
Li10 O6 2.078633 1_665
Li10 O10 2.087047 1_655
Li11 O3 1.819417 1_555
Li11 O8 1.871877 1_555
Li11 O5 2.268596 1_565
Li11 O11 2.424689 1_555
Cr0 O11 1.670224 1_545
Cr0 O6 1.674303 1_555
Cr0 O2 1.675570 1_455
Cr0 O1 1.694679 1_455
Cr1 O9 1.670224 1_456
Cr1 O5 1.674303 1_555
Cr1 O10 1.675570 1_546
Cr1 O0 1.694679 1_546
