# generated using pymatgen
data_Na6CuO4
_symmetry_space_group_name_H-M   'P 1'
_cell_length_a   7.53225500
_cell_length_b   7.53225500
_cell_length_c   5.34606100
_cell_angle_alpha   90.00000000
_cell_angle_beta   90.00000000
_cell_angle_gamma   90.00000000
_symmetry_Int_Tables_number   1
_chemical_formula_structural   Na6CuO4
_chemical_formula_sum   'Na12 Cu2 O8'
_cell_volume   303.30805118
_cell_formula_units_Z   2
loop_
 _symmetry_equiv_pos_site_id
 _symmetry_equiv_pos_as_xyz
  1  'x, y, z'
loop_
 _atom_site_type_symbol
 _atom_site_label
 _atom_site_symmetry_multiplicity
 _atom_site_fract_x
 _atom_site_fract_y
 _atom_site_fract_z
 _atom_site_occupancy
  Na  Na0  1  0.28929700  0.28929700  0.50000000  1
  Na  Na1  1  0.71070300  0.28929700  0.50000000  1
  Na  Na2  1  0.00000000  0.50000000  0.39999500  1
  Na  Na3  1  0.00000000  0.50000000  0.89999500  1
  Na  Na4  1  0.28929700  0.71070300  0.50000000  1
  Na  Na5  1  0.71070300  0.71070300  0.50000000  1
  Na  Na6  1  0.78929700  0.78929700  0.00000000  1
  Na  Na7  1  0.21070300  0.78929700  0.00000000  1
  Na  Na8  1  0.50000000  0.00000000  0.10000500  1
  Na  Na9  1  0.50000000  0.00000000  0.60000500  1
  Na  Na10  1  0.78929700  0.21070300  0.00000000  1
  Na  Na11  1  0.21070300  0.21070300  0.00000000  1
  Cu  Cu0  1  0.50000000  0.50000000  0.00000000  1
  Cu  Cu1  1  0.00000000  0.00000000  0.50000000  1
  O  O0  1  0.00000000  0.24894900  0.66480000  1
  O  O1  1  0.74894900  0.50000000  0.16480000  1
  O  O2  1  0.25105100  0.50000000  0.16480000  1
  O  O3  1  0.00000000  0.75105100  0.66480000  1
  O  O4  1  0.50000000  0.74894900  0.83520000  1
  O  O5  1  0.75105100  0.00000000  0.33520000  1
  O  O6  1  0.24894900  0.00000000  0.33520000  1
  O  O7  1  0.50000000  0.25105100  0.83520000  1
loop_
_geom_bond_atom_site_label_1
_geom_bond_atom_site_label_2
_geom_bond_distance
_geom_bond_site_symmetry_2
Na0 O6 2.369995 1_555
Na0 O0 2.369995 1_555
Na0 O2 2.411025 1_555
Na0 O7 2.411025 1_555
Na1 O5 2.369995 1_555
Na1 O0 2.369995 1_655
Na1 O7 2.411025 1_555
Na1 O1 2.411025 1_555
Na2 O2 2.270854 1_555
Na2 O1 2.270854 1_455
Na2 O3 2.362183 1_555
Na2 O0 2.362183 1_555
Na3 O3 2.270854 1_555
Na3 O0 2.270854 1_555
Na3 O2 2.362183 1_556
Na3 O1 2.362183 1_456
Na4 O3 2.369995 1_555
Na4 O6 2.369995 1_565
Na4 O2 2.411025 1_555
Na4 O4 2.411025 1_555
Na5 O5 2.369995 1_565
Na5 O3 2.369995 1_655
Na5 O4 2.411025 1_555
Na5 O1 2.411025 1_555
Na6 O1 2.369995 1_555
Na6 O4 2.369995 1_554
Na6 O3 2.411025 1_654
Na6 O5 2.411025 1_565
Na7 O2 2.369995 1_555
Na7 O4 2.369995 1_554
Na7 O3 2.411025 1_554
Na7 O6 2.411025 1_565
Na8 O5 2.270854 1_555
Na8 O6 2.270854 1_555
Na8 O7 2.362183 1_554
Na8 O4 2.362183 1_544
Na9 O7 2.270854 1_555
Na9 O4 2.270854 1_545
Na9 O5 2.362183 1_555
Na9 O6 2.362183 1_555
Na10 O7 2.369995 1_554
Na10 O1 2.369995 1_555
Na10 O5 2.411025 1_555
Na10 O0 2.411025 1_654
Na11 O2 2.369995 1_555
Na11 O7 2.369995 1_554
Na11 O0 2.411025 1_554
Na11 O6 2.411025 1_555
Cu0 O1 2.071809 1_555
Cu0 O4 2.071809 1_554
Cu0 O7 2.071809 1_554
Cu0 O2 2.071809 1_555
Cu1 O0 2.071809 1_555
Cu1 O6 2.071809 1_555
Cu1 O5 2.071809 1_455
Cu1 O3 2.071809 1_545
