# generated using pymatgen
data_Li4Fe7(OF7)2
_symmetry_space_group_name_H-M   'P 1'
_cell_length_a   6.14684000
_cell_length_b   6.15558049
_cell_length_c   10.76420876
_cell_angle_alpha   105.69174293
_cell_angle_beta   91.42641944
_cell_angle_gamma   118.72400209
_symmetry_Int_Tables_number   1
_chemical_formula_structural   Li4Fe7(OF7)2
_chemical_formula_sum   'Li4 Fe7 O2 F14'
_cell_volume   338.02361810
_cell_formula_units_Z   1
loop_
 _symmetry_equiv_pos_site_id
 _symmetry_equiv_pos_as_xyz
  1  'x, y, z'
loop_
 _atom_site_type_symbol
 _atom_site_label
 _atom_site_symmetry_multiplicity
 _atom_site_fract_x
 _atom_site_fract_y
 _atom_site_fract_z
 _atom_site_occupancy
  Li  Li0  1  0.91424000  0.20539800  0.44484000  1
  Li  Li1  1  0.56937400  0.76147800  0.05704200  1
  Li  Li2  1  0.43108300  0.23262600  0.94759600  1
  Li  Li3  1  0.07106400  0.77327500  0.55808800  1
  Fe  Fe0  1  0.01237200  0.52436800  0.99073000  1
  Fe  Fe1  1  0.22396900  0.99875900  0.25209400  1
  Fe  Fe2  1  0.77248700  0.52904600  0.24260100  1
  Fe  Fe3  1  0.51029700  0.50246900  0.50297800  1
  Fe  Fe4  1  0.25263500  0.49432600  0.74961700  1
  Fe  Fe5  1  0.76583600  0.99643000  0.25232400  1
  Fe  Fe6  1  0.75028600  0.00384500  0.74841400  1
  O  O0  1  0.85125200  0.95591600  0.37602400  1
  O  O1  1  0.09491700  0.97381900  0.13773600  1
  F  F0  1  0.63373100  0.49843200  0.12087500  1
  F  F1  1  0.62479700  0.97603500  0.63732100  1
  F  F2  1  0.63718200  0.03640000  0.12926900  1
  F  F3  1  0.11911700  0.49459900  0.62996200  1
  F  F4  1  0.61731300  0.51898400  0.62918200  1
  F  F5  1  0.11441500  0.49486800  0.12217600  1
  F  F6  1  0.86496900  0.48456600  0.37872900  1
  F  F7  1  0.37277800  0.49171400  0.37566700  1
  F  F8  1  0.89142900  0.47282100  0.87588500  1
  F  F9  1  0.37208400  0.97639100  0.88134600  1
  F  F10  1  0.13800400  0.04408000  0.61304200  1
  F  F11  1  0.85794900  0.00966400  0.86760300  1
  F  F12  1  0.41763900  0.04495300  0.35360200  1
  F  F13  1  0.36878200  0.50473800  0.87525700  1
loop_
_geom_bond_atom_site_label_1
_geom_bond_atom_site_label_2
_geom_bond_distance
_geom_bond_site_symmetry_2
Li0 O0 1.362308 1_545
Fe1 O1 1.378490 1_555
Fe5 O0 1.543214 1_555
F0 Fe2 1.461548 1_555
F0 Li2 1.995566 1_554
F0 Li1 2.110542 1_555
F1 Fe6 1.330688 1_565
F2 Li1 1.495414 1_545
F2 Fe5 1.658800 1_545
F3 Fe4 1.510750 1_555
F3 Li0 2.127726 1_455
F3 Li3 2.195901 1_555
F4 Fe3 1.450884 1_555
F5 Fe0 1.622547 1_554
F6 Fe2 1.694230 1_555
F6 Li3 2.085407 1_655
F6 Li0 2.168455 1_555
F7 Fe3 1.560894 1_555
F8 Fe0 1.302656 1_655
F9 Li2 1.398841 1_565
F10 Li3 1.446790 1_545
F11 Fe6 1.412571 1_555
F12 Fe1 1.460735 1_545
F13 Fe4 1.484555 1_555
F13 Li1 2.044748 1_556
F13 Li2 2.205868 1_555
