# generated using pymatgen
data_TiNi(PO4)2
_symmetry_space_group_name_H-M   'P 1'
_cell_length_a   4.88750614
_cell_length_b   9.95017138
_cell_length_c   11.82082304
_cell_angle_alpha   89.99259479
_cell_angle_beta   90.00502635
_cell_angle_gamma   88.83257369
_symmetry_Int_Tables_number   1
_chemical_formula_structural   TiNi(PO4)2
_chemical_formula_sum   'Ti4 Ni4 P8 O32'
_cell_volume   574.74530355
_cell_formula_units_Z   4
loop_
 _symmetry_equiv_pos_site_id
 _symmetry_equiv_pos_as_xyz
  1  'x, y, z'
loop_
 _atom_site_type_symbol
 _atom_site_label
 _atom_site_symmetry_multiplicity
 _atom_site_fract_x
 _atom_site_fract_y
 _atom_site_fract_z
 _atom_site_occupancy
  Ti  Ti0  1  0.47128000  0.22564400  0.37498100  1
  Ti  Ti1  1  0.47126600  0.22565400  0.87498500  1
  Ti  Ti2  1  0.52872300  0.77436100  0.12502000  1
  Ti  Ti3  1  0.52874900  0.77435400  0.62500900  1
  Ni  Ni0  1  0.96310200  0.27269500  0.62506100  1
  Ni  Ni1  1  0.03693600  0.72731300  0.87494500  1
  Ni  Ni2  1  0.96284000  0.27277200  0.12497200  1
  Ni  Ni3  1  0.03729500  0.72722500  0.37498200  1
  P  P0  1  0.43922000  0.09846100  0.12499600  1
  P  P1  1  0.43932100  0.09843900  0.62500400  1
  P  P2  1  0.56075900  0.90153300  0.37500900  1
  P  P3  1  0.56068000  0.90156500  0.87499700  1
  P  P4  1  0.89238600  0.40316900  0.37498400  1
  P  P5  1  0.89239000  0.40319400  0.87497300  1
  P  P6  1  0.10760500  0.59681400  0.12500900  1
  P  P7  1  0.10760900  0.59681300  0.62503100  1
  O  O0  1  0.64382500  0.05207300  0.37501200  1
  O  O1  1  0.64383700  0.05208800  0.87499600  1
  O  O2  1  0.35614500  0.94792600  0.12498900  1
  O  O3  1  0.35616500  0.94791800  0.62500800  1
  O  O4  1  0.74611200  0.10780400  0.12501600  1
  O  O5  1  0.74619000  0.10777700  0.62505800  1
  O  O6  1  0.25385800  0.89217000  0.37498200  1
  O  O7  1  0.25380900  0.89223100  0.87494600  1
  O  O8  1  0.20012100  0.36373400  0.37495300  1
  O  O9  1  0.20010000  0.36375500  0.87494600  1
  O  O10  1  0.79987700  0.63627000  0.12505000  1
  O  O11  1  0.79989600  0.63625000  0.62505900  1
  O  O12  1  0.15268300  0.44761300  0.12495900  1
  O  O13  1  0.15274900  0.44759700  0.62499500  1
  O  O14  1  0.84727700  0.55236700  0.37504100  1
  O  O15  1  0.84724900  0.55241100  0.87500900  1
  O  O16  1  0.29450400  0.17198400  0.02189400  1
  O  O17  1  0.29458900  0.17197100  0.52191500  1
  O  O18  1  0.29448100  0.17193800  0.22807200  1
  O  O19  1  0.29453000  0.17192800  0.72808000  1
  O  O20  1  0.70549900  0.82806300  0.27192700  1
  O  O21  1  0.70547400  0.82807800  0.77192300  1
  O  O22  1  0.70547600  0.82801500  0.47811300  1
  O  O23  1  0.70540600  0.82803600  0.97808900  1
  O  O24  1  0.74326300  0.32761800  0.47463700  1
  O  O25  1  0.74319200  0.32768200  0.97461900  1
  O  O26  1  0.74312100  0.32769800  0.27532700  1
  O  O27  1  0.74317000  0.32768800  0.77533000  1
  O  O28  1  0.25673400  0.67238300  0.02536900  1
  O  O29  1  0.25680600  0.67231900  0.52538300  1
  O  O30  1  0.25687200  0.67228800  0.22466800  1
  O  O31  1  0.25682900  0.67232000  0.72467400  1
loop_
_geom_bond_atom_site_label_1
_geom_bond_atom_site_label_2
_geom_bond_distance
_geom_bond_site_symmetry_2
Ni0 O5 1.971695 1_555
Ni0 O13 1.988350 1_655
Ni0 O27 2.141667 1_555
Ni0 O24 2.142518 1_555
Ni0 O19 2.246188 1_655
Ni0 O17 2.247317 1_655
Ni1 O7 1.971590 1_555
Ni1 O15 1.988445 1_455
Ni1 O31 2.141592 1_555
Ni1 O28 2.142435 1_556
Ni1 O21 2.246317 1_455
Ni1 O23 2.247450 1_455
Ni2 O4 1.971616 1_555
Ni2 O12 1.988277 1_655
Ni2 O25 2.141326 1_554
Ni2 O26 2.141831 1_555
Ni2 O18 2.247736 1_655
Ni2 O16 2.247772 1_655
Ni3 O6 1.970976 1_555
Ni3 O14 1.988841 1_455
Ni3 O30 2.141111 1_555
Ni3 O29 2.141455 1_555
Ni3 O20 2.248004 1_455
Ni3 O22 2.248660 1_455
O0 P2 1.559905 1_545
O0 Ti0 1.906455 1_555
O1 P3 1.559867 1_545
O1 Ti1 1.906465 1_555
O2 P0 1.559870 1_565
O2 Ti2 1.906470 1_555
O3 P1 1.559846 1_565
O3 Ti3 1.906474 1_555
O4 P0 1.504704 1_555
O5 P1 1.504588 1_555
O6 P2 1.504764 1_555
O7 P3 1.504594 1_555
O8 P4 1.546643 1_455
O8 Ti0 1.889477 1_555
O9 P5 1.546534 1_455
O9 Ti1 1.889579 1_555
O10 P6 1.546659 1_655
O10 Ti2 1.889468 1_555
O11 P7 1.546544 1_655
O11 Ti3 1.889536 1_555
O12 P6 1.496388 1_555
O13 P7 1.496574 1_555
O14 P4 1.496378 1_555
O15 P5 1.496585 1_555
O16 P0 1.580933 1_555
O16 Ti1 2.016458 1_554
O17 P1 1.580890 1_555
O17 Ti0 2.016570 1_555
O18 P0 1.580779 1_555
O18 Ti0 2.016623 1_555
O19 P1 1.580945 1_555
O19 Ti1 2.016503 1_555
O20 P2 1.580805 1_555
O20 Ti2 2.016543 1_555
O21 P3 1.580924 1_555
O21 Ti3 2.016566 1_555
O22 P2 1.580931 1_555
O22 Ti3 2.016227 1_555
O23 P3 1.580891 1_555
O23 Ti2 2.016528 1_556
O24 P4 1.583103 1_555
O24 Ti0 2.058965 1_555
O25 P5 1.583026 1_555
O25 Ti1 2.058906 1_555
O26 P4 1.583128 1_555
O26 Ti0 2.058883 1_555
O27 P5 1.583070 1_555
O27 Ti1 2.058991 1_555
O28 P6 1.583089 1_555
O28 Ti2 2.058971 1_555
O29 P7 1.583012 1_555
O29 Ti3 2.058941 1_555
O30 P6 1.583165 1_555
O30 Ti2 2.058970 1_555
O31 P7 1.583075 1_555
O31 Ti3 2.059110 1_555
