# generated using pymatgen
data_Li4Mn3SnO8
_symmetry_space_group_name_H-M   'P 1'
_cell_length_a   6.14368950
_cell_length_b   6.14510117
_cell_length_c   10.39279820
_cell_angle_alpha   105.30633164
_cell_angle_beta   74.68018829
_cell_angle_gamma   119.03227783
_symmetry_Int_Tables_number   1
_chemical_formula_structural   Li4Mn3SnO8
_chemical_formula_sum   'Li8 Mn6 Sn2 O16'
_cell_volume   326.55707281
_cell_formula_units_Z   2
loop_
 _symmetry_equiv_pos_site_id
 _symmetry_equiv_pos_as_xyz
  1  'x, y, z'
loop_
 _atom_site_type_symbol
 _atom_site_label
 _atom_site_symmetry_multiplicity
 _atom_site_fract_x
 _atom_site_fract_y
 _atom_site_fract_z
 _atom_site_occupancy
  Li  Li0  1  0.25006400  0.74999200  0.25002400  1
  Li  Li1  1  0.75006200  0.24999100  0.74997400  1
  Li  Li2  1  0.74997700  0.24997400  0.25005700  1
  Li  Li3  1  0.24999400  0.74996100  0.74998500  1
  Li  Li4  1  0.75017700  0.75006300  0.74995400  1
  Li  Li5  1  0.25018500  0.25010000  0.24996700  1
  Li  Li6  1  0.24993600  0.24976600  0.74997100  1
  Li  Li7  1  0.74989300  0.74976000  0.24999100  1
  Mn  Mn0  1  0.00012800  0.00009200  0.49976300  1
  Mn  Mn1  1  0.99998300  0.50000600  0.00000000  1
  Mn  Mn2  1  0.49990600  0.99995000  0.99997600  1
  Mn  Mn3  1  0.50013900  0.50017800  0.99979400  1
  Mn  Mn4  1  0.49999500  0.99995200  0.50000300  1
  Mn  Mn5  1  0.00001700  0.50000800  0.49999300  1
  Sn  Sn0  1  0.50001700  0.49996000  0.50005900  1
  Sn  Sn1  1  0.99998800  0.00001700  0.00006500  1
  O  O0  1  0.34818900  0.65188100  0.89844600  1
  O  O1  1  0.84820400  0.15189400  0.39847100  1
  O  O2  1  0.15166900  0.84820600  0.60158800  1
  O  O3  1  0.65167200  0.34817700  0.10156900  1
  O  O4  1  0.88967900  0.11056200  0.86650000  1
  O  O5  1  0.38964800  0.61060600  0.36653500  1
  O  O6  1  0.61030100  0.38938500  0.63357500  1
  O  O7  1  0.11027100  0.88941300  0.13359900  1
  O  O8  1  0.86899900  0.61294800  0.38667500  1
  O  O9  1  0.36898800  0.11291800  0.88666500  1
  O  O10  1  0.38693300  0.13108600  0.38673000  1
  O  O11  1  0.88695400  0.63109300  0.88672300  1
  O  O12  1  0.63092500  0.88708800  0.11336900  1
  O  O13  1  0.13093900  0.38708300  0.61337600  1
  O  O14  1  0.11307900  0.36895400  0.11330200  1
  O  O15  1  0.61308600  0.86894000  0.61330900  1
loop_
_geom_bond_atom_site_label_1
_geom_bond_atom_site_label_2
_geom_bond_distance
_geom_bond_site_symmetry_2
Li0 O5 2.178192 1_555
Li0 O7 2.178606 1_555
Li0 O12 2.272498 1_555
Li0 O8 2.273326 1_455
Li0 O14 2.274345 1_555
Li0 O10 2.274480 1_565
Li1 O6 2.178135 1_555
Li1 O4 2.178653 1_555
Li1 O13 2.272297 1_655
Li1 O9 2.273557 1_555
Li1 O15 2.274130 1_545
Li1 O11 2.274720 1_555
Li2 O1 2.107667 1_555
Li2 O3 2.109110 1_555
Li2 O10 2.195069 1_555
Li2 O12 2.195272 1_545
Li2 O8 2.195300 1_555
Li2 O14 2.195716 1_655
Li3 O0 2.107977 1_555
Li3 O2 2.108510 1_555
Li3 O13 2.194856 1_555
Li3 O15 2.195291 1_555
Li3 O11 2.195366 1_455
Li3 O9 2.195528 1_565
Li4 O4 2.097207 1_565
Li4 O6 2.097390 1_555
Li4 O15 2.244260 1_555
Li4 O11 2.244349 1_555
Li4 O2 2.421348 1_655
Li4 O0 2.424120 1_555
Li5 O5 2.097319 1_555
Li5 O7 2.097395 1_545
Li5 O10 2.244356 1_555
Li5 O14 2.244399 1_555
Li5 O3 2.421501 1_555
Li5 O1 2.424131 1_455
Li6 O4 2.095246 1_455
Li6 O6 2.095276 1_555
Li6 O9 2.244363 1_555
Li6 O13 2.245311 1_555
Li6 O2 2.422538 1_545
Li6 O0 2.425448 1_555
Li7 O5 2.095242 1_555
Li7 O7 2.095326 1_655
Li7 O8 2.244347 1_555
Li7 O12 2.245468 1_555
Li7 O3 2.422839 1_555
Li7 O1 2.425529 1_565
Mn0 O1 2.175390 1_455
Mn0 O2 2.177926 1_545
Mn0 O10 2.200612 1_555
Mn0 O8 2.203186 1_445
Mn0 O15 2.203548 1_445
Mn0 O13 2.204393 1_555
Mn1 O0 1.987597 1_654
Mn1 O3 1.988087 1_555
Mn1 O11 1.998166 1_554
Mn1 O14 1.998502 1_655
Mn1 O4 2.298084 1_554
Mn1 O7 2.298340 1_655
Mn2 O0 1.987523 1_555
Mn2 O3 1.988480 1_566
Mn2 O9 1.997419 1_565
Mn2 O12 1.998087 1_556
Mn2 O4 2.298545 1_565
Mn2 O7 2.298564 1_556
Mn3 O0 2.175461 1_555
Mn3 O3 2.178058 1_556
Mn3 O11 2.200804 1_555
Mn3 O14 2.203488 1_556
Mn3 O9 2.203873 1_555
Mn3 O12 2.203880 1_556
Mn4 O1 1.987561 1_565
Mn4 O2 1.988169 1_555
Mn4 O15 1.998335 1_555
Mn4 O10 1.998485 1_565
Mn4 O5 2.297491 1_555
Mn4 O6 2.298338 1_565
Mn5 O1 1.987740 1_455
Mn5 O2 1.988301 1_555
Mn5 O8 1.997803 1_455
Mn5 O13 1.997842 1_555
Mn5 O5 2.297829 1_555
Mn5 O6 2.298731 1_455
O4 Sn1 2.071083 1_556
O5 Sn0 2.071380 1_555
O6 Sn0 2.070674 1_555
O7 Sn1 2.070946 1_465
O8 Sn0 2.121854 1_555
O9 Sn1 2.122023 1_456
O10 Sn0 2.121894 1_555
O11 Sn1 2.122191 1_566
O12 Sn1 2.121952 1_565
O13 Sn0 2.122085 1_555
O14 Sn1 2.121844 1_455
O15 Sn0 2.122100 1_555
