# generated using pymatgen
data_ReH22C4S4N8Cl8O3
_symmetry_space_group_name_H-M   'P 1'
_cell_length_a   9.00240545
_cell_length_b   9.00240545
_cell_length_c   17.08616200
_cell_angle_alpha   90.00000000
_cell_angle_beta   90.00000000
_cell_angle_gamma   99.69923644
_symmetry_Int_Tables_number   1
_chemical_formula_structural   ReH22C4S4N8Cl8O3
_chemical_formula_sum   'Re2 H44 C8 S8 N16 Cl16 O6'
_cell_volume   1364.92544953
_cell_formula_units_Z   2
loop_
 _symmetry_equiv_pos_site_id
 _symmetry_equiv_pos_as_xyz
  1  'x, y, z'
loop_
 _atom_site_type_symbol
 _atom_site_label
 _atom_site_symmetry_multiplicity
 _atom_site_fract_x
 _atom_site_fract_y
 _atom_site_fract_z
 _atom_site_occupancy
  Re  Re0  1  0.84721300  0.15278700  0.75000000  1
  Re  Re1  1  0.15278700  0.84721300  0.25000000  1
  H  H0  1  0.36924600  0.91650000  0.62153700  1
  H  H1  1  0.91650000  0.36924600  0.37846300  1
  H  H2  1  0.36924600  0.91650000  0.87846300  1
  H  H3  1  0.91650000  0.36924600  0.12153700  1
  H  H4  1  0.63075400  0.08350000  0.37846300  1
  H  H5  1  0.08350000  0.63075400  0.62153700  1
  H  H6  1  0.63075400  0.08350000  0.12153700  1
  H  H7  1  0.08350000  0.63075400  0.87846300  1
  H  H8  1  0.38242000  0.09638300  0.66981100  1
  H  H9  1  0.09638300  0.38242000  0.33018900  1
  H  H10  1  0.38242000  0.09638300  0.83018900  1
  H  H11  1  0.09638300  0.38242000  0.16981100  1
  H  H12  1  0.61758000  0.90361700  0.33018900  1
  H  H13  1  0.90361700  0.61758000  0.66981100  1
  H  H14  1  0.61758000  0.90361700  0.16981100  1
  H  H15  1  0.90361700  0.61758000  0.83018900  1
  H  H16  1  0.31134600  0.89926400  0.48754300  1
  H  H17  1  0.89926400  0.31134600  0.51245700  1
  H  H18  1  0.31134600  0.89926400  0.01245700  1
  H  H19  1  0.89926400  0.31134600  0.98754300  1
  H  H20  1  0.68865400  0.10073600  0.51245700  1
  H  H21  1  0.10073600  0.68865400  0.48754300  1
  H  H22  1  0.68865400  0.10073600  0.98754300  1
  H  H23  1  0.10073600  0.68865400  0.01245700  1
  H  H24  1  0.28440400  0.06128700  0.43631300  1
  H  H25  1  0.06128700  0.28440400  0.56368700  1
  H  H26  1  0.28440400  0.06128700  0.06368700  1
  H  H27  1  0.06128700  0.28440400  0.93631300  1
  H  H28  1  0.71559600  0.93871300  0.56368700  1
  H  H29  1  0.93871300  0.71559600  0.43631300  1
  H  H30  1  0.71559600  0.93871300  0.93631300  1
  H  H31  1  0.93871300  0.71559600  0.06368700  1
  H  H32  1  0.46615200  0.30706100  0.75000000  1
  H  H33  1  0.30706100  0.46615200  0.25000000  1
  H  H34  1  0.53384800  0.69293900  0.25000000  1
  H  H35  1  0.69293900  0.53384800  0.75000000  1
  H  H36  1  0.29116900  0.28451200  0.75000000  1
  H  H37  1  0.28451200  0.29116900  0.25000000  1
  H  H38  1  0.70883100  0.71548800  0.25000000  1
  H  H39  1  0.71548800  0.70883100  0.75000000  1
  H  H40  1  0.40508800  0.59491200  0.70388200  1
  H  H41  1  0.59491200  0.40508800  0.29611800  1
  H  H42  1  0.40508800  0.59491200  0.79611800  1
  H  H43  1  0.59491200  0.40508800  0.20388200  1
  C  C0  1  0.33944300  0.09190500  0.55249600  1
  C  C1  1  0.09190500  0.33944300  0.44750400  1
  C  C2  1  0.33944300  0.09190500  0.94750400  1
  C  C3  1  0.09190500  0.33944300  0.05249600  1
  C  C4  1  0.66055700  0.90809500  0.44750400  1
  C  C5  1  0.90809500  0.66055700  0.55249600  1
  C  C6  1  0.66055700  0.90809500  0.05249600  1
  C  C7  1  0.90809500  0.66055700  0.94750400  1
  S  S0  1  0.34259200  0.29118800  0.55576900  1
  S  S1  1  0.29118800  0.34259200  0.44423100  1
  S  S2  1  0.34259200  0.29118800  0.94423100  1
  S  S3  1  0.29118800  0.34259200  0.05576900  1
  S  S4  1  0.65740800  0.70881200  0.44423100  1
  S  S5  1  0.70881200  0.65740800  0.55576900  1
  S  S6  1  0.65740800  0.70881200  0.05576900  1
  S  S7  1  0.70881200  0.65740800  0.94423100  1
  N  N0  1  0.37146600  0.03199600  0.61917300  1
  N  N1  1  0.03199600  0.37146600  0.38082700  1
  N  N2  1  0.37146600  0.03199600  0.88082700  1
  N  N3  1  0.03199600  0.37146600  0.11917300  1
  N  N4  1  0.62853400  0.96800400  0.38082700  1
  N  N5  1  0.96800400  0.62853400  0.61917300  1
  N  N6  1  0.62853400  0.96800400  0.11917300  1
  N  N7  1  0.96800400  0.62853400  0.88082700  1
  N  N8  1  0.31172600  0.01303600  0.48708500  1
  N  N9  1  0.01303600  0.31172600  0.51291500  1
  N  N10  1  0.31172600  0.01303600  0.01291500  1
  N  N11  1  0.01303600  0.31172600  0.98708500  1
  N  N12  1  0.68827400  0.98696400  0.51291500  1
  N  N13  1  0.98696400  0.68827400  0.48708500  1
  N  N14  1  0.68827400  0.98696400  0.98708500  1
  N  N15  1  0.98696400  0.68827400  0.01291500  1
  Cl  Cl0  1  0.72363200  0.27636800  0.65270900  1
  Cl  Cl1  1  0.27636800  0.72363200  0.34729100  1
  Cl  Cl2  1  0.72363200  0.27636800  0.84729100  1
  Cl  Cl3  1  0.27636800  0.72363200  0.15270900  1
  Cl  Cl4  1  0.96824300  0.03175700  0.65115000  1
  Cl  Cl5  1  0.03175700  0.96824300  0.34885000  1
  Cl  Cl6  1  0.96824300  0.03175700  0.84885000  1
  Cl  Cl7  1  0.03175700  0.96824300  0.15115000  1
  Cl  Cl8  1  0.64172800  0.94526600  0.75000000  1
  Cl  Cl9  1  0.94526600  0.64172800  0.25000000  1
  Cl  Cl10  1  0.35827200  0.05473400  0.25000000  1
  Cl  Cl11  1  0.05473400  0.35827200  0.75000000  1
  Cl  Cl12  1  0.32112300  0.67887700  0.58412400  1
  Cl  Cl13  1  0.67887700  0.32112300  0.41587600  1
  Cl  Cl14  1  0.32112300  0.67887700  0.91587600  1
  Cl  Cl15  1  0.67887700  0.32112300  0.08412400  1
  O  O0  1  0.37627600  0.22834000  0.75000000  1
  O  O1  1  0.22834000  0.37627600  0.25000000  1
  O  O2  1  0.62372400  0.77166000  0.25000000  1
  O  O3  1  0.77166000  0.62372400  0.75000000  1
  O  O4  1  0.44788700  0.55211300  0.75000000  1
  O  O5  1  0.55211300  0.44788700  0.25000000  1
loop_
_geom_bond_atom_site_label_1
_geom_bond_atom_site_label_2
_geom_bond_distance
_geom_bond_site_symmetry_2
H0 N0 1.037349 1_565
H1 N1 1.037349 1_655
H2 N2 1.037349 1_565
H3 N3 1.037349 1_655
H4 N4 1.037349 1_545
H5 N5 1.037349 1_455
H6 N6 1.037349 1_545
H7 N7 1.037349 1_455
H8 N0 1.036837 1_555
H9 N1 1.036837 1_555
H10 N2 1.036837 1_555
H11 N3 1.036837 1_555
H12 N4 1.036837 1_555
H13 N5 1.036837 1_555
H14 N6 1.036837 1_555
H15 N7 1.036837 1_555
H16 N8 1.023681 1_565
H17 N9 1.023681 1_655
H18 N10 1.023681 1_565
H19 N11 1.023681 1_655
H20 N12 1.023681 1_545
H21 N13 1.023681 1_455
H22 N14 1.023681 1_545
H23 N15 1.023681 1_455
H24 N8 1.018692 1_555
H25 N9 1.018692 1_555
H26 N10 1.018692 1_555
H27 N11 1.018692 1_555
H28 N12 1.018692 1_555
H29 N13 1.018692 1_555
H30 N14 1.018692 1_555
H31 N15 1.018692 1_555
H32 O0 0.981663 1_555
H33 O1 0.981663 1_555
H34 O2 0.981663 1_555
H35 O3 0.981663 1_555
H36 O0 0.986548 1_555
H37 O1 0.986548 1_555
H38 O2 0.986548 1_555
H39 O3 0.986548 1_555
H40 O4 0.983786 1_555
H41 O5 0.983786 1_555
H42 O4 0.983786 1_555
H43 O5 0.983786 1_555
C0 N0 1.313114 1_555
C0 N8 1.325051 1_555
C0 S0 1.790342 1_555
C1 N1 1.313114 1_555
C1 N9 1.325051 1_555
C1 S1 1.790342 1_555
C2 N2 1.313114 1_555
C2 N10 1.325051 1_556
C2 S2 1.790342 1_555
C3 N3 1.313114 1_555
C3 N11 1.325051 1_554
C3 S3 1.790342 1_555
C4 N4 1.313114 1_555
C4 N12 1.325051 1_555
C4 S4 1.790342 1_555
C5 N5 1.313114 1_555
C5 N13 1.325051 1_555
C5 S5 1.790342 1_555
C6 N6 1.313114 1_555
C6 N14 1.325051 1_554
C6 S6 1.790342 1_555
C7 N7 1.313114 1_555
C7 N15 1.325051 1_556
C7 S7 1.790342 1_555
S0 S1 2.032820 1_555
S2 S3 2.032820 1_556
S4 S5 2.032820 1_555
S6 S7 2.032820 1_554
Cl0 Re0 2.378197 1_555
Cl1 Re1 2.378197 1_555
Cl2 Re0 2.378197 1_555
Cl3 Re1 2.378197 1_555
Cl4 Re0 2.372110 1_555
Cl5 Re1 2.372110 1_555
Cl6 Re0 2.372110 1_555
Cl7 Re1 2.372110 1_555
Cl8 Re0 2.397423 1_565
Cl9 Re1 2.397423 1_655
Cl10 Re1 2.397423 1_545
Cl11 Re0 2.397423 1_455
