# generated using pymatgen
data_Er3TaO7
_symmetry_space_group_name_H-M   'P 1'
_cell_length_a   6.27168544
_cell_length_b   6.38352321
_cell_length_c   7.47358449
_cell_angle_alpha   106.80364455
_cell_angle_beta   89.71228567
_cell_angle_gamma   97.73949774
_symmetry_Int_Tables_number   1
_chemical_formula_structural   Er3TaO7
_chemical_formula_sum   'Er6 Ta2 O14'
_cell_volume   283.64180904
_cell_formula_units_Z   2
loop_
 _symmetry_equiv_pos_site_id
 _symmetry_equiv_pos_as_xyz
  1  'x, y, z'
loop_
 _atom_site_type_symbol
 _atom_site_label
 _atom_site_symmetry_multiplicity
 _atom_site_fract_x
 _atom_site_fract_y
 _atom_site_fract_z
 _atom_site_occupancy
  Er  Er0  1  0.73555918  0.46198554  0.11553421  1
  Er  Er1  1  0.73296077  0.45563057  0.60815406  1
  Er  Er2  1  0.54451861  0.99251095  0.75024485  1
  Er  Er3  1  0.45548139  0.00748905  0.24975515  1
  Er  Er4  1  0.26703923  0.54436943  0.39184594  1
  Er  Er5  1  0.26444082  0.53801446  0.88446579  1
  Ta  Ta0  1  0.00000000  -0.00000000  -0.00000000  1
  Ta  Ta1  1  0.00000000  -0.00000000  0.50000000  1
  O  O0  1  0.70703175  0.06918414  0.48129976  1
  O  O1  1  0.92017859  0.67589672  0.95189973  1
  O  O2  1  0.70648565  0.07361272  0.05240880  1
  O  O3  1  0.92646335  0.66559131  0.39036646  1
  O  O4  1  0.90628175  0.95029734  0.73687516  1
  O  O5  1  0.55574044  0.34703778  0.83417798  1
  O  O6  1  0.53914790  0.36125318  0.34138897  1
  O  O7  1  0.46085210  0.63874682  0.65861103  1
  O  O8  1  0.44425956  0.65296222  0.16582202  1
  O  O9  1  0.09371825  0.04970266  0.26312484  1
  O  O10  1  0.07353665  0.33440869  0.60963354  1
  O  O11  1  0.29351435  0.92638728  0.94759120  1
  O  O12  1  0.07982141  0.32410328  0.04810027  1
  O  O13  1  0.29296825  0.93081586  0.51870024  1
loop_
_geom_bond_atom_site_label_1
_geom_bond_atom_site_label_2
_geom_bond_distance
_geom_bond_site_symmetry_2
Er0 O5 2.267294 1_554
Er0 O6 2.274506 1_555
Er0 O1 2.286114 1_554
Er0 O8 2.300705 1_555
Er0 O3 2.324579 1_555
Er0 O2 2.367497 1_555
Er0 O12 2.436160 1_655
Er1 O7 2.167251 1_555
Er1 O6 2.224391 1_555
Er1 O5 2.240533 1_555
Er1 O0 2.356283 1_555
Er1 O10 2.368907 1_655
Er1 O3 2.592648 1_555
Er1 O1 2.729952 1_555
Er1 O4 3.067223 1_555
Er2 O7 2.152754 1_555
Er2 O5 2.157993 1_565
Er2 O11 2.233671 1_555
Er2 O13 2.259340 1_555
Er2 O4 2.318873 1_555
Er2 O2 2.367487 1_566
Er2 O0 2.394221 1_565
Er3 O6 2.152754 1_555
Er3 O8 2.157993 1_545
Er3 O2 2.233671 1_555
Er3 O0 2.259340 1_555
Er3 O9 2.318873 1_555
Er3 O11 2.367487 1_544
Er3 O13 2.394221 1_545
Er4 O6 2.167251 1_555
Er4 O7 2.224391 1_555
Er4 O8 2.240533 1_555
Er4 O13 2.356283 1_555
Er4 O3 2.368907 1_455
Er4 O10 2.592648 1_555
Er4 O12 2.729952 1_555
Er4 O9 3.067223 1_555
Er5 O8 2.267294 1_556
Er5 O7 2.274506 1_555
Er5 O12 2.286114 1_556
Er5 O5 2.300705 1_555
Er5 O10 2.324579 1_555
Er5 O11 2.367497 1_555
Er5 O1 2.436160 1_455
O0 Ta1 1.961494 1_655
O1 Ta0 1.988241 1_666
O2 Ta0 1.970332 1_655
O3 Ta1 2.041653 1_665
O4 Ta1 1.960664 1_665
O4 Ta0 1.978344 1_666
O9 Ta1 1.960664 1_555
O9 Ta0 1.978344 1_555
O10 Ta1 2.041653 1_555
O11 Ta0 1.970332 1_566
O12 Ta0 1.988241 1_555
O13 Ta1 1.961494 1_565
