# generated using pymatgen
data_Li2FeF5
_symmetry_space_group_name_H-M   'P 1'
_cell_length_a   6.19926900
_cell_length_b   6.39048800
_cell_length_c   8.90001100
_cell_angle_alpha   90.00000000
_cell_angle_beta   90.00000000
_cell_angle_gamma   90.00000000
_symmetry_Int_Tables_number   1
_chemical_formula_structural   Li2FeF5
_chemical_formula_sum   'Li8 Fe4 F20'
_cell_volume   352.58598774
_cell_formula_units_Z   4
loop_
 _symmetry_equiv_pos_site_id
 _symmetry_equiv_pos_as_xyz
  1  'x, y, z'
loop_
 _atom_site_type_symbol
 _atom_site_label
 _atom_site_symmetry_multiplicity
 _atom_site_fract_x
 _atom_site_fract_y
 _atom_site_fract_z
 _atom_site_occupancy
  Li  Li0  1  0.98237800  0.55609400  0.65368400  1
  Li  Li1  1  0.51762200  0.55609400  0.65368400  1
  Li  Li2  1  0.51762200  0.94390600  0.15368400  1
  Li  Li3  1  0.98237800  0.94390600  0.15368400  1
  Li  Li4  1  0.48237800  0.05609400  0.84631600  1
  Li  Li5  1  0.01762200  0.05609400  0.84631600  1
  Li  Li6  1  0.01762200  0.44390600  0.34631600  1
  Li  Li7  1  0.48237800  0.44390600  0.34631600  1
  Fe  Fe0  1  0.75000000  0.41953000  0.00117300  1
  Fe  Fe1  1  0.75000000  0.08047000  0.50117300  1
  Fe  Fe2  1  0.25000000  0.91953000  0.49882700  1
  Fe  Fe3  1  0.25000000  0.58047000  0.99882700  1
  F  F0  1  0.75000000  0.41590200  0.50992300  1
  F  F1  1  0.25000000  0.44091400  0.19660000  1
  F  F2  1  0.04442200  0.33213200  0.93914100  1
  F  F3  1  0.45557800  0.33213200  0.93914100  1
  F  F4  1  0.75000000  0.38056600  0.21663600  1
  F  F5  1  0.75000000  0.11943400  0.71663600  1
  F  F6  1  0.45557800  0.16786800  0.43914100  1
  F  F7  1  0.04442200  0.16786800  0.43914100  1
  F  F8  1  0.25000000  0.05908600  0.69660000  1
  F  F9  1  0.75000000  0.08409800  0.00992300  1
  F  F10  1  0.25000000  0.91590200  0.99007700  1
  F  F11  1  0.75000000  0.94091400  0.30340000  1
  F  F12  1  0.54442200  0.83213200  0.56085900  1
  F  F13  1  0.95557800  0.83213200  0.56085900  1
  F  F14  1  0.25000000  0.88056600  0.28336400  1
  F  F15  1  0.25000000  0.61943400  0.78336400  1
  F  F16  1  0.95557800  0.66786800  0.06085900  1
  F  F17  1  0.54442200  0.66786800  0.06085900  1
  F  F18  1  0.75000000  0.55908600  0.80340000  1
  F  F19  1  0.25000000  0.58409800  0.49007700  1
loop_
_geom_bond_atom_site_label_1
_geom_bond_atom_site_label_2
_geom_bond_distance
_geom_bond_site_symmetry_2
F0 Li0 2.124838 1_555
F0 Li1 2.124838 1_555
F0 Fe1 2.144988 1_555
F0 Li6 2.214667 1_655
F0 Li7 2.214667 1_555
F1 Li7 1.962423 1_555
F1 Li6 1.962423 1_555
F1 Fe3 1.973221 1_554
F2 Li5 1.954961 1_555
F2 Fe0 1.986982 1_456
F2 Fe3 2.103552 1_555
F3 Li4 1.954961 1_555
F3 Fe0 1.986982 1_556
F3 Fe3 2.103552 1_555
F4 Fe0 1.933721 1_555
F4 Li6 2.061163 1_655
F4 Li7 2.061163 1_555
F5 Fe1 1.933721 1_555
F5 Li5 2.061163 1_655
F5 Li4 2.061163 1_555
F6 Li7 1.954961 1_555
F6 Fe1 1.986982 1_555
F6 Fe2 2.103552 1_545
F7 Li6 1.954961 1_555
F7 Fe1 1.986982 1_455
F7 Fe2 2.103552 1_545
F8 Li4 1.962423 1_555
F8 Li5 1.962423 1_555
F8 Fe2 1.973221 1_545
F9 Li2 2.124838 1_545
F9 Li3 2.124838 1_545
F9 Fe0 2.144988 1_555
F9 Li5 2.214667 1_654
F9 Li4 2.214667 1_554
F10 Li4 2.124838 1_565
F10 Li5 2.124838 1_565
F10 Fe3 2.144988 1_555
F10 Li2 2.214667 1_556
F10 Li3 2.214667 1_456
F11 Li3 1.962423 1_555
F11 Li2 1.962423 1_555
F11 Fe1 1.973221 1_565
F12 Li1 1.954961 1_555
F12 Fe2 1.986982 1_555
F12 Fe1 2.103552 1_565
F13 Li0 1.954961 1_555
F13 Fe2 1.986982 1_655
F13 Fe1 2.103552 1_565
F14 Fe2 1.933721 1_555
F14 Li3 2.061163 1_455
F14 Li2 2.061163 1_555
F15 Fe3 1.933721 1_555
F15 Li0 2.061163 1_455
F15 Li1 2.061163 1_555
F16 Li3 1.954961 1_555
F16 Fe3 1.986982 1_654
F16 Fe0 2.103552 1_555
F17 Li2 1.954961 1_555
F17 Fe3 1.986982 1_554
F17 Fe0 2.103552 1_555
F18 Li0 1.962423 1_555
F18 Li1 1.962423 1_555
F18 Fe0 1.973221 1_556
F19 Li6 2.124838 1_555
F19 Li7 2.124838 1_555
F19 Fe2 2.144988 1_555
F19 Li1 2.214667 1_555
F19 Li0 2.214667 1_455
