# generated using pymatgen
data_Sr2LiNb3O10
_symmetry_space_group_name_H-M   'P 1'
_cell_length_a   3.99381798
_cell_length_b   3.99381798
_cell_length_c   13.95815861
_cell_angle_alpha   81.75953916
_cell_angle_beta   81.75953916
_cell_angle_gamma   89.89111175
_symmetry_Int_Tables_number   1
_chemical_formula_structural   Sr2LiNb3O10
_chemical_formula_sum   'Sr2 Li1 Nb3 O10'
_cell_volume   218.02756986
_cell_formula_units_Z   1
loop_
 _symmetry_equiv_pos_site_id
 _symmetry_equiv_pos_as_xyz
  1  'x, y, z'
loop_
 _atom_site_type_symbol
 _atom_site_label
 _atom_site_symmetry_multiplicity
 _atom_site_fract_x
 _atom_site_fract_y
 _atom_site_fract_z
 _atom_site_occupancy
  Sr  Sr0  1  0.58635100  0.58071500  0.33292600  1
  Sr  Sr1  1  0.41928500  0.41364900  0.66707400  1
  Li  Li0  1  0.74996000  0.25004000  0.00000000  1
  Nb  Nb0  1  0.99413000  0.00587000  0.50000000  1
  Nb  Nb1  1  0.83882800  0.83803000  0.82317700  1
  Nb  Nb2  1  0.16197000  0.16117200  0.17682300  1
  O  O0  1  0.92501800  0.92935900  0.64567800  1
  O  O1  1  0.35400900  0.85451300  0.79171000  1
  O  O2  1  0.77264200  0.77259600  0.95476800  1
  O  O3  1  0.14548700  0.64599100  0.20829000  1
  O  O4  1  0.22740400  0.22735800  0.04523200  1
  O  O5  1  0.07064100  0.07498200  0.35432200  1
  O  O6  1  0.48382100  0.04417800  0.49974900  1
  O  O7  1  0.85156200  0.35204500  0.79616900  1
  O  O8  1  0.95582200  0.51617900  0.50025100  1
  O  O9  1  0.64795500  0.14843800  0.20383100  1
loop_
_geom_bond_atom_site_label_1
_geom_bond_atom_site_label_2
_geom_bond_distance
_geom_bond_site_symmetry_2
Li0 O2 2.090209 1_554
Li0 O4 2.090209 1_555
Li0 O4 2.090656 1_655
Li0 O2 2.090656 1_544
Nb0 O8 1.961465 1_545
Nb0 O6 1.961465 1_655
Nb0 O0 1.991377 1_545
Nb0 O5 1.991377 1_655
Nb0 O6 2.043992 1_555
Nb0 O8 2.043992 1_555
Nb1 O2 1.798714 1_555
Nb1 O7 2.028745 1_555
Nb1 O7 2.032753 1_565
Nb1 O1 2.040561 1_655
Nb1 O1 2.044857 1_555
Nb1 O0 2.426271 1_555
Nb2 O4 1.798714 1_555
Nb2 O9 2.028745 1_555
Nb2 O9 2.032753 1_455
Nb2 O3 2.040561 1_545
Nb2 O3 2.044857 1_555
Nb2 O5 2.426271 1_555
O0 Sr1 2.808491 1_565
O0 Sr1 2.841831 1_665
O0 Sr1 2.842102 1_555
O0 Sr1 2.864489 1_655
O1 Sr1 2.615290 1_565
O1 Sr1 2.634571 1_555
O3 Sr0 2.615290 1_455
O3 Sr0 2.634571 1_555
O5 Sr0 2.808491 1_455
O5 Sr0 2.841831 1_445
O5 Sr0 2.842102 1_555
O5 Sr0 2.864489 1_545
O6 Sr0 2.912250 1_555
O6 Sr1 2.917623 1_555
O6 Sr0 3.158361 1_545
O6 Sr1 3.163322 1_545
O7 Sr1 2.655395 1_555
O7 Sr1 2.674390 1_655
O8 Sr1 2.912250 1_555
O8 Sr0 2.917623 1_555
O8 Sr1 3.158361 1_655
O8 Sr0 3.163322 1_655
O9 Sr0 2.655395 1_555
O9 Sr0 2.674390 1_545
