# generated using pymatgen
data_LaAl12O19
_symmetry_space_group_name_H-M   'P 1'
_cell_length_a   5.64411085
_cell_length_b   5.64411085
_cell_length_c   22.29927304
_cell_angle_alpha   89.99827399
_cell_angle_beta   89.99827399
_cell_angle_gamma   119.92551525
_symmetry_Int_Tables_number   1
_chemical_formula_structural   LaAl12O19
_chemical_formula_sum   'La2 Al24 O38'
_cell_volume   615.65566342
_cell_formula_units_Z   2
loop_
 _symmetry_equiv_pos_site_id
 _symmetry_equiv_pos_as_xyz
  1  'x, y, z'
loop_
 _atom_site_type_symbol
 _atom_site_label
 _atom_site_symmetry_multiplicity
 _atom_site_fract_x
 _atom_site_fract_y
 _atom_site_fract_z
 _atom_site_occupancy
  La  La0  1  0.32847600  0.65688700  0.25133600  1
  La  La1  1  0.65688700  0.32847600  0.75133600  1
  Al  Al0  1  0.66568800  0.83306100  0.39107500  1
  Al  Al1  1  0.66243000  0.83144900  0.10800000  1
  Al  Al2  1  0.33170400  0.66619800  0.80994000  1
  Al  Al3  1  0.33351000  0.66697900  0.97340300  1
  Al  Al4  1  0.33166400  0.66618800  0.68973600  1
  Al  Al5  1  0.33354400  0.66702000  0.52609000  1
  Al  Al6  1  0.99889700  0.99772600  0.23979900  1
  Al  Al7  1  0.99977300  0.00013500  0.99981700  1
  Al  Al8  1  0.99772600  0.99889700  0.73979900  1
  Al  Al9  1  0.00013500  0.99977300  0.49981700  1
  Al  Al10  1  0.16716900  0.83306300  0.39106900  1
  Al  Al11  1  0.16882000  0.83147900  0.10802400  1
  Al  Al12  1  0.16871800  0.33762800  0.10779300  1
  Al  Al13  1  0.16713400  0.33446900  0.39137200  1
  Al  Al14  1  0.83306100  0.66568800  0.89107500  1
  Al  Al15  1  0.83144900  0.66243000  0.60800000  1
  Al  Al16  1  0.83147900  0.16882000  0.60802400  1
  Al  Al17  1  0.66619800  0.33170400  0.30994000  1
  Al  Al18  1  0.66618800  0.33166400  0.18973600  1
  Al  Al19  1  0.66697900  0.33351000  0.47340300  1
  Al  Al20  1  0.66702000  0.33354400  0.02609000  1
  Al  Al21  1  0.83306300  0.16716900  0.89106900  1
  Al  Al22  1  0.33446900  0.16713400  0.89137200  1
  Al  Al23  1  0.33762800  0.16871800  0.60779300  1
  O  O0  1  0.68951300  0.84504900  0.94751100  1
  O  O1  1  0.69151000  0.84603500  0.55335300  1
  O  O2  1  0.49552200  0.99142800  0.34937300  1
  O  O3  1  0.49520800  0.99078800  0.15015900  1
  O  O4  1  0.63481300  0.81764500  0.74910400  1
  O  O5  1  0.15435300  0.84610400  0.55330700  1
  O  O6  1  0.99986700  0.00010600  0.15126200  1
  O  O7  1  0.33325500  0.66690800  0.44300000  1
  O  O8  1  0.99997300  0.00028900  0.85155700  1
  O  O9  1  0.00010600  0.99986700  0.65126200  1
  O  O10  1  0.00028900  0.99997300  0.35155700  1
  O  O11  1  0.33329900  0.66692400  0.05655300  1
  O  O12  1  0.49559900  0.50398100  0.34944400  1
  O  O13  1  0.49515200  0.50443200  0.15013600  1
  O  O14  1  0.18233000  0.82068900  0.74908700  1
  O  O15  1  0.15523600  0.84501300  0.94756200  1
  O  O16  1  0.18238400  0.36229700  0.74908600  1
  O  O17  1  0.84504900  0.68951300  0.44751100  1
  O  O18  1  0.84603500  0.69151000  0.05335300  1
  O  O19  1  0.00807700  0.50399100  0.34941800  1
  O  O20  1  0.00895200  0.50443100  0.15014700  1
  O  O21  1  0.99078800  0.49520800  0.65015900  1
  O  O22  1  0.99142800  0.49552200  0.84937300  1
  O  O23  1  0.15513700  0.31079600  0.94755700  1
  O  O24  1  0.15417600  0.30884400  0.55331400  1
  O  O25  1  0.81764500  0.63481300  0.24910400  1
  O  O26  1  0.50443200  0.49515200  0.65013600  1
  O  O27  1  0.66692400  0.33329900  0.55655300  1
  O  O28  1  0.50398100  0.49559900  0.84944400  1
  O  O29  1  0.82068900  0.18233000  0.24908700  1
  O  O30  1  0.66690800  0.33325500  0.94300000  1
  O  O31  1  0.84501300  0.15523600  0.44756200  1
  O  O32  1  0.84610400  0.15435300  0.05330700  1
  O  O33  1  0.36229700  0.18238400  0.24908600  1
  O  O34  1  0.50399100  0.00807700  0.84941800  1
  O  O35  1  0.50443100  0.00895200  0.65014700  1
  O  O36  1  0.31079600  0.15513700  0.44755700  1
  O  O37  1  0.30884400  0.15417600  0.05331400  1
loop_
_geom_bond_atom_site_label_1
_geom_bond_atom_site_label_2
_geom_bond_distance
_geom_bond_site_symmetry_2
La0 O12 2.689417 1_555
La0 O19 2.690941 1_555
La0 O2 2.730859 1_555
La0 O13 2.743297 1_555
La0 O20 2.745242 1_555
La0 O33 2.778762 1_555
La0 O29 2.780550 1_455
La0 O3 2.785255 1_555
La0 O25 2.823539 1_455
La0 O25 2.825579 1_555
La0 O33 2.875933 1_565
La0 O29 2.880129 1_565
La1 O28 2.689417 1_555
La1 O34 2.690941 1_555
La1 O22 2.730859 1_555
La1 O26 2.743297 1_555
La1 O35 2.745242 1_555
La1 O16 2.778762 1_555
La1 O14 2.780550 1_545
La1 O21 2.785255 1_555
La1 O4 2.823539 1_545
La1 O4 2.825579 1_555
La1 O16 2.875933 1_655
La1 O14 2.880129 1_655
Al0 O2 1.855450 1_555
Al0 O12 1.858581 1_555
Al0 O10 1.858847 1_655
Al0 O7 1.996201 1_555
Al0 O31 2.020274 1_565
Al0 O17 2.020738 1_555
Al1 O3 1.852104 1_555
Al1 O13 1.855286 1_555
Al1 O6 1.911897 1_565
Al1 O11 1.976960 1_555
Al1 O32 1.999595 1_565
Al1 O18 1.999828 1_555
Al2 O22 1.882456 1_455
Al2 O34 1.889959 1_565
Al2 O28 1.892816 1_555
Al2 O4 2.009608 1_555
Al2 O14 2.011462 1_555
Al2 O16 2.012883 1_555
Al3 O15 1.833845 1_555
Al3 O0 1.834620 1_555
Al3 O23 1.835192 1_555
Al3 O11 1.854185 1_556
Al4 O21 1.886633 1_455
Al4 O35 1.894863 1_565
Al4 O26 1.897826 1_555
Al4 O4 1.987906 1_555
Al4 O14 1.988913 1_555
Al4 O16 1.990288 1_555
Al5 O5 1.852795 1_555
Al5 O7 1.852847 1_555
Al5 O1 1.853596 1_555
Al5 O24 1.854224 1_555
Al6 O29 1.784888 1_565
Al6 O25 1.787303 1_555
Al6 O33 1.789745 1_665
Al6 O6 1.974345 1_565
Al7 O15 1.913313 1_645
Al7 O0 1.914149 1_545
Al7 O23 1.914984 1_655
Al7 O32 1.919863 1_556
Al7 O18 1.924608 1_546
Al7 O37 1.925878 1_656
Al8 O14 1.784888 1_655
Al8 O4 1.787303 1_555
Al8 O16 1.789745 1_665
Al8 O9 1.974345 1_655
Al9 O31 1.913313 1_465
Al9 O17 1.914149 1_455
Al9 O36 1.914984 1_565
Al9 O5 1.919863 1_555
Al9 O1 1.924608 1_455
Al9 O24 1.925878 1_565
Al10 O10 1.853716 1_555
Al10 O2 1.856097 1_555
Al10 O19 1.858689 1_555
Al10 O7 1.994075 1_555
Al10 O17 2.018926 1_455
Al10 O36 2.019462 1_565
Al11 O3 1.852666 1_555
Al11 O20 1.855216 1_555
Al11 O6 1.910583 1_465
Al11 O11 1.975361 1_555
Al11 O18 1.998406 1_455
Al11 O37 1.998468 1_565
Al12 O20 1.854323 1_555
Al12 O13 1.855245 1_555
Al12 O6 1.914502 1_455
Al12 O11 1.974845 1_555
Al12 O32 1.995675 1_455
Al12 O37 1.997629 1_555
Al13 O19 1.858401 1_555
Al13 O12 1.859186 1_555
Al13 O10 1.861625 1_545
Al13 O7 1.992489 1_555
Al13 O31 2.015819 1_455
Al13 O36 2.017554 1_555
Al14 O22 1.855450 1_555
Al14 O28 1.858581 1_555
Al14 O8 1.858847 1_565
Al14 O30 1.996201 1_555
Al14 O15 2.020274 1_655
Al14 O0 2.020738 1_555
Al15 O21 1.852104 1_555
Al15 O26 1.855286 1_555
Al15 O9 1.911897 1_655
Al15 O27 1.976960 1_555
Al15 O5 1.999595 1_655
Al15 O1 1.999828 1_555
Al16 O21 1.852666 1_555
Al16 O35 1.855216 1_555
Al16 O9 1.910583 1_645
Al16 O27 1.975361 1_555
Al16 O1 1.998406 1_545
Al16 O24 1.998468 1_655
Al17 O2 1.882456 1_545
Al17 O19 1.889959 1_655
Al17 O12 1.892816 1_555
Al17 O25 2.009608 1_555
Al17 O29 2.011462 1_555
Al17 O33 2.012883 1_555
Al18 O3 1.886633 1_545
Al18 O20 1.894863 1_655
Al18 O13 1.897826 1_555
Al18 O25 1.987906 1_555
Al18 O29 1.988913 1_555
Al18 O33 1.990288 1_555
Al19 O31 1.833845 1_555
Al19 O17 1.834620 1_555
Al19 O36 1.835192 1_555
Al19 O27 1.854185 1_555
Al20 O32 1.852795 1_555
Al20 O30 1.852847 1_554
Al20 O18 1.853596 1_555
Al20 O37 1.854224 1_555
Al21 O8 1.853716 1_555
Al21 O22 1.856097 1_555
Al21 O34 1.858689 1_555
Al21 O30 1.994075 1_555
Al21 O0 2.018926 1_545
Al21 O23 2.019462 1_655
Al22 O34 1.858401 1_555
Al22 O28 1.859186 1_555
Al22 O8 1.861625 1_455
Al22 O30 1.992489 1_555
Al22 O15 2.015819 1_545
Al22 O23 2.017554 1_555
Al23 O35 1.854323 1_555
Al23 O26 1.855245 1_555
Al23 O9 1.914502 1_545
Al23 O27 1.974845 1_555
Al23 O5 1.995675 1_545
Al23 O24 1.997629 1_555
