# generated using pymatgen
data_V3Fe2Sb(PO4)6
_symmetry_space_group_name_H-M   'P 1'
_cell_length_a   8.64016846
_cell_length_b   8.64016846
_cell_length_c   8.64016866
_cell_angle_alpha   60.58748395
_cell_angle_beta   60.58748395
_cell_angle_gamma   60.58748631
_symmetry_Int_Tables_number   1
_chemical_formula_structural   V3Fe2Sb(PO4)6
_chemical_formula_sum   'V3 Fe2 Sb1 P6 O24'
_cell_volume   462.14324119
_cell_formula_units_Z   1
loop_
 _symmetry_equiv_pos_site_id
 _symmetry_equiv_pos_as_xyz
  1  'x, y, z'
loop_
 _atom_site_type_symbol
 _atom_site_label
 _atom_site_symmetry_multiplicity
 _atom_site_fract_x
 _atom_site_fract_y
 _atom_site_fract_z
 _atom_site_occupancy
  V  V0  1  0.35703500  0.35703500  0.35703500  1
  V  V1  1  0.14291800  0.14291800  0.14291800  1
  V  V2  1  0.64121800  0.64121800  0.64121800  1
  Fe  Fe0  1  0.00499700  0.00499700  0.00499700  1
  Fe  Fe1  1  0.49949800  0.49949800  0.49949800  1
  Sb  Sb0  1  0.85733700  0.85733700  0.85733700  1
  P  P0  1  0.74681300  0.04388100  0.45498000  1
  P  P1  1  0.04388100  0.45498000  0.74681300  1
  P  P2  1  0.45498000  0.74681300  0.04388100  1
  P  P3  1  0.53939100  0.25201700  0.95653700  1
  P  P4  1  0.95653700  0.53939100  0.25201700  1
  P  P5  1  0.25201700  0.95653700  0.53939100  1
  O  O0  1  0.88565900  0.49984200  0.68654600  1
  O  O1  1  0.49984200  0.68654600  0.88565900  1
  O  O2  1  0.68654600  0.88565900  0.49984200  1
  O  O3  1  0.90930200  0.05866400  0.26294500  1
  O  O4  1  0.81223000  0.00996000  0.61426900  1
  O  O5  1  0.59004900  0.23862500  0.44309200  1
  O  O6  1  0.05866400  0.26294500  0.90930200  1
  O  O7  1  0.23862500  0.44309200  0.59004900  1
  O  O8  1  0.38902700  0.18359100  0.99415000  1
  O  O9  1  0.44309200  0.59004900  0.23862500  1
  O  O10  1  0.74202200  0.08428700  0.94185400  1
  O  O11  1  0.99415000  0.38902700  0.18359100  1
  O  O12  1  0.00996000  0.61426900  0.81223000  1
  O  O13  1  0.26294500  0.90930200  0.05866400  1
  O  O14  1  0.56263000  0.40580000  0.75914900  1
  O  O15  1  0.61426900  0.81223000  0.00996000  1
  O  O16  1  0.75914900  0.56263000  0.40580000  1
  O  O17  1  0.94185400  0.74202200  0.08428700  1
  O  O18  1  0.40580000  0.75914900  0.56263000  1
  O  O19  1  0.18359100  0.99415000  0.38902700  1
  O  O20  1  0.08428700  0.94185400  0.74202200  1
  O  O21  1  0.30809300  0.11218700  0.50941000  1
  O  O22  1  0.50941000  0.30809300  0.11218700  1
  O  O23  1  0.11218700  0.50941000  0.30809300  1
loop_
_geom_bond_atom_site_label_1
_geom_bond_atom_site_label_2
_geom_bond_distance
_geom_bond_site_symmetry_2
Fe0 O6 2.166646 1_554
Fe0 O13 2.166646 1_545
Fe0 O3 2.166646 1_455
Fe0 O17 2.291547 1_445
Fe0 O10 2.291547 1_454
Fe0 O20 2.291547 1_544
Fe1 O7 2.214149 1_555
Fe1 O5 2.214149 1_555
Fe1 O9 2.214149 1_555
Fe1 O16 2.229406 1_555
Fe1 O18 2.229406 1_555
Fe1 O14 2.229406 1_555
O0 P1 1.506895 1_655
O0 V2 1.978564 1_555
O1 P2 1.506895 1_556
O1 V2 1.978564 1_555
O2 P0 1.506895 1_565
O2 V2 1.978564 1_555
O3 P0 1.555755 1_555
O3 V1 2.079765 1_655
O4 P0 1.582617 1_555
O4 Sb0 1.969893 1_545
O5 P0 1.550735 1_555
O5 V0 2.086370 1_555
O6 P1 1.555755 1_555
O6 V1 2.079765 1_556
O7 P1 1.550735 1_555
O7 V0 2.086370 1_555
O8 P3 1.514594 1_555
O8 V1 1.975625 1_556
O9 P2 1.550735 1_555
O9 V0 2.086370 1_555
O10 P3 1.628460 1_555
O10 Sb0 2.035661 1_545
O11 P4 1.514594 1_555
O11 V1 1.975625 1_655
O12 P1 1.582617 1_555
O12 Sb0 1.969893 1_455
O13 P2 1.555755 1_555
O13 V1 2.079765 1_565
O14 P3 1.553832 1_555
O14 V2 2.068332 1_555
O15 P2 1.582617 1_555
O15 Sb0 1.969893 1_554
O16 P4 1.553832 1_555
O16 V2 2.068332 1_555
O17 P4 1.628460 1_555
O17 Sb0 2.035661 1_554
O18 P5 1.553832 1_555
O18 V2 2.068332 1_555
O19 P5 1.514594 1_555
O19 V1 1.975625 1_565
O20 P5 1.628460 1_555
O20 Sb0 2.035661 1_455
O21 P5 1.511619 1_545
O21 V0 1.995954 1_555
O22 P3 1.511619 1_554
O22 V0 1.995954 1_555
O23 P4 1.511619 1_455
O23 V0 1.995954 1_555
