# generated using pymatgen
data_BaLu2O4
_symmetry_space_group_name_H-M   'P 1'
_cell_length_a   3.36350545
_cell_length_b   10.27643779
_cell_length_c   11.86220066
_cell_angle_alpha   90.00000000
_cell_angle_beta   90.00000000
_cell_angle_gamma   90.00000000
_symmetry_Int_Tables_number   1
_chemical_formula_structural   BaLu2O4
_chemical_formula_sum   'Ba4 Lu8 O16'
_cell_volume   410.01524002
_cell_formula_units_Z   4
loop_
 _symmetry_equiv_pos_site_id
 _symmetry_equiv_pos_as_xyz
  1  'x, y, z'
loop_
 _atom_site_type_symbol
 _atom_site_label
 _atom_site_symmetry_multiplicity
 _atom_site_fract_x
 _atom_site_fract_y
 _atom_site_fract_z
 _atom_site_occupancy
  Ba  Ba0  1  0.75000000  0.24675224  0.34975670  1
  Ba  Ba1  1  0.25000000  0.25324776  0.84975670  1
  Ba  Ba2  1  0.75000000  0.74675224  0.15024330  1
  Ba  Ba3  1  0.25000000  0.75324776  0.65024330  1
  Lu  Lu0  1  0.75000000  0.07742077  0.60751539  1
  Lu  Lu1  1  0.75000000  0.07215724  0.10997313  1
  Lu  Lu2  1  0.25000000  0.42784276  0.60997313  1
  Lu  Lu3  1  0.25000000  0.42257923  0.10751539  1
  Lu  Lu4  1  0.75000000  0.57742077  0.89248461  1
  Lu  Lu5  1  0.75000000  0.57215724  0.39002687  1
  Lu  Lu6  1  0.25000000  0.92784276  0.89002687  1
  Lu  Lu7  1  0.25000000  0.92257923  0.39248461  1
  O  O0  1  0.25000000  0.01885101  0.71730853  1
  O  O1  1  0.75000000  0.06767201  0.92663337  1
  O  O2  1  0.25000000  0.11156089  0.48344943  1
  O  O3  1  0.25000000  0.20948891  0.15164887  1
  O  O4  1  0.75000000  0.29051109  0.65164887  1
  O  O5  1  0.75000000  0.38843911  0.98344943  1
  O  O6  1  0.25000000  0.43232799  0.42663337  1
  O  O7  1  0.75000000  0.48114899  0.21730853  1
  O  O8  1  0.25000000  0.51885101  0.78269147  1
  O  O9  1  0.75000000  0.56767201  0.57336663  1
  O  O10  1  0.25000000  0.61156089  0.01655057  1
  O  O11  1  0.25000000  0.70948891  0.34835113  1
  O  O12  1  0.75000000  0.79051109  0.84835113  1
  O  O13  1  0.75000000  0.88843911  0.51655057  1
  O  O14  1  0.25000000  0.93232799  0.07336663  1
  O  O15  1  0.75000000  0.98114899  0.28269147  1
loop_
_geom_bond_atom_site_label_1
_geom_bond_atom_site_label_2
_geom_bond_distance
_geom_bond_site_symmetry_2
Ba0 O2 2.696934 1_555
Ba0 O2 2.696934 1_655
Ba0 O6 2.701254 1_555
Ba0 O6 2.701254 1_655
Ba0 O15 2.843029 1_545
Ba0 O7 2.875862 1_555
Ba0 O3 2.915031 1_555
Ba0 O3 2.915031 1_655
Ba1 O5 2.696934 1_555
Ba1 O5 2.696934 1_455
Ba1 O1 2.701254 1_555
Ba1 O1 2.701254 1_455
Ba1 O8 2.843029 1_555
Ba1 O0 2.875862 1_555
Ba1 O4 2.915031 1_455
Ba1 O4 2.915031 1_555
Ba2 O10 2.696934 1_655
Ba2 O10 2.696934 1_555
Ba2 O14 2.701254 1_555
Ba2 O14 2.701254 1_655
Ba2 O7 2.843029 1_555
Ba2 O15 2.875862 1_555
Ba2 O11 2.915031 1_655
Ba2 O11 2.915031 1_555
Ba3 O13 2.696934 1_555
Ba3 O13 2.696934 1_455
Ba3 O9 2.701254 1_555
Ba3 O9 2.701254 1_455
Ba3 O0 2.843029 1_565
Ba3 O8 2.875862 1_555
Ba3 O12 2.915031 1_555
Ba3 O12 2.915031 1_455
Lu0 O0 2.210606 1_555
Lu0 O0 2.210606 1_655
Lu0 O13 2.221694 1_545
Lu0 O4 2.251519 1_555
Lu0 O2 2.262138 1_555
Lu0 O2 2.262138 1_655
Lu1 O1 2.175301 1_554
Lu1 O3 2.250423 1_655
Lu1 O3 2.250423 1_555
Lu1 O15 2.252185 1_545
Lu1 O14 2.254255 1_645
Lu1 O14 2.254255 1_545
Lu2 O6 2.175301 1_555
Lu2 O4 2.250423 1_455
Lu2 O4 2.250423 1_555
Lu2 O8 2.252185 1_555
Lu2 O9 2.254255 1_455
Lu2 O9 2.254255 1_555
Lu3 O7 2.210606 1_455
Lu3 O7 2.210606 1_555
Lu3 O10 2.221694 1_555
Lu3 O3 2.251519 1_555
Lu3 O5 2.262138 1_554
Lu3 O5 2.262138 1_454
Lu4 O8 2.210606 1_555
Lu4 O8 2.210606 1_655
Lu4 O5 2.221694 1_555
Lu4 O12 2.251519 1_555
Lu4 O10 2.262138 1_556
Lu4 O10 2.262138 1_656
Lu5 O9 2.175301 1_555
Lu5 O11 2.250423 1_655
Lu5 O11 2.250423 1_555
Lu5 O7 2.252185 1_555
Lu5 O6 2.254255 1_655
Lu5 O6 2.254255 1_555
Lu6 O14 2.175301 1_556
Lu6 O12 2.250423 1_455
Lu6 O12 2.250423 1_555
Lu6 O0 2.252185 1_565
Lu6 O1 2.254255 1_565
Lu6 O1 2.254255 1_465
Lu7 O15 2.210606 1_455
Lu7 O15 2.210606 1_555
Lu7 O2 2.221694 1_565
Lu7 O11 2.251519 1_555
Lu7 O13 2.262138 1_555
Lu7 O13 2.262138 1_455
