# generated using pymatgen
data_LiYS2
_symmetry_space_group_name_H-M   'P 1'
_cell_length_a   3.92365900
_cell_length_b   3.92365900
_cell_length_c   5.32056500
_cell_angle_alpha   90.00000000
_cell_angle_beta   90.00000000
_cell_angle_gamma   90.00000000
_symmetry_Int_Tables_number   1
_chemical_formula_structural   LiYS2
_chemical_formula_sum   'Li1 Y1 S2'
_cell_volume   81.91062996
_cell_formula_units_Z   1
loop_
 _symmetry_equiv_pos_site_id
 _symmetry_equiv_pos_as_xyz
  1  'x, y, z'
loop_
 _atom_site_type_symbol
 _atom_site_label
 _atom_site_symmetry_multiplicity
 _atom_site_fract_x
 _atom_site_fract_y
 _atom_site_fract_z
 _atom_site_occupancy
  Li  Li0  1  0.50000000  0.50000000  0.50000000  1
  Y  Y0  1  0.00000000  0.00000000  0.00000000  1
  S  S0  1  0.50000000  0.50000000  0.00000000  1
  S  S1  1  0.00000000  0.00000000  0.50000000  1
loop_
_geom_bond_atom_site_label_1
_geom_bond_atom_site_label_2
_geom_bond_distance
_geom_bond_site_symmetry_2
Li0 S0 2.660283 1_556
Li0 S0 2.660283 1_555
Li0 S1 2.774446 1_665
Li0 S1 2.774446 1_555
Li0 S1 2.774446 1_565
Li0 S1 2.774446 1_655
S0 Y0 2.774446 1_565
S0 Y0 2.774446 1_555
S0 Y0 2.774446 1_665
S0 Y0 2.774446 1_655
S1 Y0 2.660283 1_555
S1 Y0 2.660283 1_556
