# generated using pymatgen
data_La(ClO4)3
_symmetry_space_group_name_H-M   'P 1'
_cell_length_a   9.34820975
_cell_length_b   9.34820909
_cell_length_c   5.95059329
_cell_angle_alpha   89.99998101
_cell_angle_beta   90.00000162
_cell_angle_gamma   120.00039738
_symmetry_Int_Tables_number   1
_chemical_formula_structural   La(ClO4)3
_chemical_formula_sum   'La2 Cl6 O24'
_cell_volume   450.34570653
_cell_formula_units_Z   2
loop_
 _symmetry_equiv_pos_site_id
 _symmetry_equiv_pos_as_xyz
  1  'x, y, z'
loop_
 _atom_site_type_symbol
 _atom_site_label
 _atom_site_symmetry_multiplicity
 _atom_site_fract_x
 _atom_site_fract_y
 _atom_site_fract_z
 _atom_site_occupancy
  La  La0  1  0.33333323  0.66666330  0.74999855  1
  La  La1  1  0.66666822  0.33332031  0.25000066  1
  Cl  Cl0  1  0.09467591  0.71013002  0.25000010  1
  Cl  Cl1  1  0.28987006  0.38454404  0.25000366  1
  Cl  Cl2  1  0.61545584  0.90532090  0.25000372  1
  Cl  Cl3  1  0.38454807  0.09467926  0.74999568  1
  Cl  Cl4  1  0.71012567  0.61545060  0.75000007  1
  Cl  Cl5  1  0.90532441  0.28987240  0.74999845  1
  O  O0  1  0.01607993  0.80456375  0.24999996  1
  O  O1  1  0.02249330  0.46644911  0.75000075  1
  O  O2  1  0.19983025  0.74729563  0.05348965  1
  O  O3  1  0.19983101  0.74729572  0.44650915  1
  O  O4  1  0.44395178  0.97750684  0.74999831  1
  O  O5  1  0.25270252  0.45253055  0.44650797  1
  O  O6  1  0.25270224  0.45253138  0.05348727  1
  O  O7  1  0.19543663  0.21151142  0.24999953  1
  O  O8  1  0.54746268  0.80017009  0.05348829  1
  O  O9  1  0.54746388  0.80017165  0.44650832  1
  O  O10  1  0.21150990  0.01607227  0.74999970  1
  O  O11  1  0.46644413  0.44395197  0.24999990  1
  O  O12  1  0.53355764  0.55605237  0.75000062  1
  O  O13  1  0.78848416  0.98392038  0.24999995  1
  O  O14  1  0.45252981  0.19982714  0.55349157  1
  O  O15  1  0.45253177  0.19982748  0.94651157  1
  O  O16  1  0.80456452  0.78849565  0.75000171  1
  O  O17  1  0.74729474  0.54747106  0.94651351  1
  O  O18  1  0.74729600  0.54747215  0.55348820  1
  O  O19  1  0.55604874  0.02249184  0.25000018  1
  O  O20  1  0.80017297  0.25270619  0.94650934  1
  O  O21  1  0.80017363  0.25270651  0.55349337  1
  O  O22  1  0.97751132  0.53355689  0.24999972  1
  O  O23  1  0.98392504  0.19544016  0.75000057  1
loop_
_geom_bond_atom_site_label_1
_geom_bond_atom_site_label_2
_geom_bond_distance
_geom_bond_site_symmetry_2
La0 O8 2.515490 1_556
La0 O6 2.515494 1_556
La0 O9 2.515499 1_555
La0 O5 2.515508 1_555
La0 O3 2.515519 1_555
La0 O2 2.515530 1_556
La0 O12 2.551083 1_555
La0 O1 2.551083 1_555
La0 O4 2.551131 1_555
La1 O20 2.515449 1_554
La1 O21 2.515457 1_555
La1 O15 2.515510 1_554
La1 O14 2.515528 1_555
La1 O17 2.515605 1_554
La1 O18 2.515613 1_555
La1 O19 2.550998 1_555
La1 O22 2.551140 1_555
La1 O11 2.551230 1_555
Cl0 O0 1.402769 1_555
Cl0 O3 1.453567 1_555
Cl0 O2 1.453569 1_555
Cl0 O22 1.454758 1_455
Cl1 O7 1.402783 1_555
Cl1 O5 1.453539 1_555
Cl1 O6 1.453602 1_555
Cl1 O11 1.454771 1_555
Cl2 O13 1.402748 1_555
Cl2 O9 1.453521 1_555
Cl2 O8 1.453581 1_555
Cl2 O19 1.454814 1_565
Cl3 O10 1.402826 1_555
Cl3 O14 1.453504 1_555
Cl3 O15 1.453564 1_555
Cl3 O4 1.454803 1_545
Cl4 O16 1.402883 1_555
Cl4 O18 1.453545 1_555
Cl4 O17 1.453553 1_555
Cl4 O12 1.454735 1_555
Cl5 O23 1.402793 1_555
Cl5 O21 1.453525 1_555
Cl5 O20 1.453556 1_555
Cl5 O1 1.454791 1_655
