# generated using pymatgen
data_NaTi6O12
_symmetry_space_group_name_H-M   'P 1'
_cell_length_a   5.32369700
_cell_length_b   8.96102900
_cell_length_c   9.46598900
_cell_angle_alpha   90.00000000
_cell_angle_beta   90.00000000
_cell_angle_gamma   90.00000000
_symmetry_Int_Tables_number   1
_chemical_formula_structural   NaTi6O12
_chemical_formula_sum   'Na2 Ti12 O24'
_cell_volume   451.58260837
_cell_formula_units_Z   2
loop_
 _symmetry_equiv_pos_site_id
 _symmetry_equiv_pos_as_xyz
  1  'x, y, z'
loop_
 _atom_site_type_symbol
 _atom_site_label
 _atom_site_symmetry_multiplicity
 _atom_site_fract_x
 _atom_site_fract_y
 _atom_site_fract_z
 _atom_site_occupancy
  Na  Na0  1  0.54545100  0.50000000  0.71379500  1
  Na  Na1  1  0.04545100  0.00000000  0.28620500  1
  Ti  Ti0  1  0.96755600  0.16905200  0.88981400  1
  Ti  Ti1  1  0.97675600  0.50000000  0.90452600  1
  Ti  Ti2  1  0.96755600  0.83094800  0.88981400  1
  Ti  Ti3  1  0.53100500  0.83042500  0.39557200  1
  Ti  Ti4  1  0.53986000  0.50000000  0.38285200  1
  Ti  Ti5  1  0.53100500  0.16957500  0.39557200  1
  Ti  Ti6  1  0.46755600  0.66905200  0.11018600  1
  Ti  Ti7  1  0.47675600  0.00000000  0.09547400  1
  Ti  Ti8  1  0.46755600  0.33094800  0.11018600  1
  Ti  Ti9  1  0.03986000  0.00000000  0.61714800  1
  Ti  Ti10  1  0.03100500  0.66957500  0.60442800  1
  Ti  Ti11  1  0.03100500  0.33042500  0.60442800  1
  O  O0  1  0.83407800  0.83644000  0.51647900  1
  O  O1  1  0.81891900  0.50000000  0.52346400  1
  O  O2  1  0.83407800  0.16356000  0.51647900  1
  O  O3  1  0.81713800  0.66895500  0.78753800  1
  O  O4  1  0.81713800  0.33104500  0.78753800  1
  O  O5  1  0.82215600  0.00000000  0.78831200  1
  O  O6  1  0.68557900  0.66904900  0.28649200  1
  O  O7  1  0.68557900  0.33095100  0.28649200  1
  O  O8  1  0.65995800  0.00000000  0.28459200  1
  O  O9  1  0.67754500  0.83356200  0.02202500  1
  O  O10  1  0.67754500  0.16643800  0.02202500  1
  O  O11  1  0.67209800  0.50000000  0.01734700  1
  O  O12  1  0.33407800  0.66356000  0.48352100  1
  O  O13  1  0.31891900  0.00000000  0.47653600  1
  O  O14  1  0.33407800  0.33644000  0.48352100  1
  O  O15  1  0.31713800  0.16895500  0.21246200  1
  O  O16  1  0.31713800  0.83104500  0.21246200  1
  O  O17  1  0.32215600  0.50000000  0.21168800  1
  O  O18  1  0.18557900  0.16904900  0.71350800  1
  O  O19  1  0.15995800  0.50000000  0.71540800  1
  O  O20  1  0.18557900  0.83095100  0.71350800  1
  O  O21  1  0.17209800  0.00000000  0.98265300  1
  O  O22  1  0.17754500  0.66643800  0.97797500  1
  O  O23  1  0.17754500  0.33356200  0.97797500  1
loop_
_geom_bond_atom_site_label_1
_geom_bond_atom_site_label_2
_geom_bond_distance
_geom_bond_site_symmetry_2
Na0 O19 2.052305 1_555
Na0 O3 2.207151 1_555
Na0 O4 2.207151 1_555
Na0 O1 2.316366 1_555
Na1 O8 2.052305 1_455
Na1 O16 2.207151 1_545
Na1 O15 2.207151 1_555
Na1 O13 2.316366 1_555
O0 Ti3 1.978908 1_555
O0 Ti10 2.007004 1_655
O0 Ti9 2.063110 1_665
O1 Ti4 1.994675 1_555
O1 Ti11 2.042372 1_655
O1 Ti10 2.042372 1_655
O2 Ti5 1.978908 1_555
O2 Ti11 2.007004 1_655
O2 Ti9 2.063110 1_655
O3 Ti2 1.919834 1_555
O3 Ti1 2.059288 1_555
O3 Ti10 2.073824 1_655
O4 Ti0 1.919834 1_555
O4 Ti1 2.059288 1_555
O4 Ti11 2.073824 1_655
O5 Ti2 1.953768 1_545
O5 Ti0 1.953768 1_555
O5 Ti9 1.992091 1_655
O6 Ti4 1.930957 1_555
O6 Ti3 1.958194 1_555
O6 Ti6 2.032845 1_555
O7 Ti4 1.930957 1_555
O7 Ti5 1.958194 1_555
O7 Ti8 2.032845 1_555
O8 Ti5 1.970786 1_555
O8 Ti3 1.970786 1_545
O8 Ti7 2.038629 1_555
O9 Ti7 1.962261 1_565
O9 Ti2 1.987597 1_554
O9 Ti6 2.029627 1_555
O10 Ti7 1.962261 1_555
O10 Ti0 1.987597 1_554
O10 Ti8 2.029627 1_555
O11 Ti1 1.941939 1_554
O11 Ti6 2.062261 1_555
O11 Ti8 2.062261 1_555
O12 Ti10 1.978908 1_555
O12 Ti3 2.007004 1_555
O12 Ti4 2.063110 1_555
O13 Ti9 1.994675 1_555
O13 Ti3 2.042372 1_545
O13 Ti5 2.042372 1_555
O14 Ti11 1.978908 1_555
O14 Ti5 2.007004 1_555
O14 Ti4 2.063110 1_555
O15 Ti8 1.919834 1_555
O15 Ti7 2.059288 1_555
O15 Ti5 2.073824 1_555
O16 Ti6 1.919834 1_555
O16 Ti7 2.059288 1_565
O16 Ti3 2.073824 1_555
O17 Ti6 1.953768 1_555
O17 Ti8 1.953768 1_555
O17 Ti4 1.992091 1_555
O18 Ti9 1.930957 1_555
O18 Ti11 1.958194 1_555
O18 Ti0 2.032845 1_455
O19 Ti11 1.970786 1_555
O19 Ti10 1.970786 1_555
O19 Ti1 2.038629 1_455
O20 Ti9 1.930957 1_565
O20 Ti10 1.958194 1_555
O20 Ti2 2.032845 1_455
O21 Ti7 1.941939 1_556
O21 Ti2 2.062261 1_445
O21 Ti0 2.062261 1_455
O22 Ti1 1.962261 1_455
O22 Ti6 1.987597 1_556
O22 Ti2 2.029627 1_455
O23 Ti1 1.962261 1_455
O23 Ti8 1.987597 1_556
O23 Ti0 2.029627 1_455
