# generated using pymatgen
data_TiMn3Sb2(PO4)6
_symmetry_space_group_name_H-M   'P 1'
_cell_length_a   8.86827169
_cell_length_b   8.86827102
_cell_length_c   8.86827248
_cell_angle_alpha   58.96155130
_cell_angle_beta   58.96155369
_cell_angle_gamma   58.96155108
_symmetry_Int_Tables_number   1
_chemical_formula_structural   TiMn3Sb2(PO4)6
_chemical_formula_sum   'Ti1 Mn3 Sb2 P6 O24'
_cell_volume   481.49133018
_cell_formula_units_Z   1
loop_
 _symmetry_equiv_pos_site_id
 _symmetry_equiv_pos_as_xyz
  1  'x, y, z'
loop_
 _atom_site_type_symbol
 _atom_site_label
 _atom_site_symmetry_multiplicity
 _atom_site_fract_x
 _atom_site_fract_y
 _atom_site_fract_z
 _atom_site_occupancy
  Ti  Ti0  1  0.85370500  0.85370500  0.85370500  1
  Mn  Mn0  1  0.15390300  0.15390300  0.15390300  1
  Mn  Mn1  1  0.34941900  0.34941900  0.34941900  1
  Mn  Mn2  1  0.64761100  0.64761100  0.64761100  1
  Sb  Sb0  1  0.01100600  0.01100600  0.01100600  1
  Sb  Sb1  1  0.50113200  0.50113200  0.50113200  1
  P  P0  1  0.24810200  0.54653200  0.95363600  1
  P  P1  1  0.54653200  0.95363600  0.24810200  1
  P  P2  1  0.95363600  0.24810200  0.54653200  1
  P  P3  1  0.03820800  0.75081700  0.45950500  1
  P  P4  1  0.45950500  0.03820800  0.75081700  1
  P  P5  1  0.75081700  0.45950500  0.03820800  1
  O  O0  1  0.10803000  0.29723300  0.52111700  1
  O  O1  1  0.29723300  0.52111700  0.10803000  1
  O  O2  1  0.06089100  0.91852400  0.26473200  1
  O  O3  1  0.52111700  0.10803000  0.29723300  1
  O  O4  1  0.98702700  0.81793700  0.61520300  1
  O  O5  1  0.23116400  0.59176900  0.44603800  1
  O  O6  1  0.26473200  0.06089100  0.91852400  1
  O  O7  1  0.44603800  0.23116400  0.59176900  1
  O  O8  1  0.20098200  0.38591900  0.98583200  1
  O  O9  1  0.59176900  0.44603800  0.23116400  1
  O  O10  1  0.08008100  0.73522900  0.92662300  1
  O  O11  1  0.38591900  0.98583200  0.20098200  1
  O  O12  1  0.61520300  0.98702700  0.81793700  1
  O  O13  1  0.91852400  0.26473200  0.06089100  1
  O  O14  1  0.41199700  0.57040600  0.75959800  1
  O  O15  1  0.81793700  0.61520300  0.98702700  1
  O  O16  1  0.57040600  0.75959800  0.41199700  1
  O  O17  1  0.73522900  0.92662300  0.08008100  1
  O  O18  1  0.75959800  0.41199700  0.57040600  1
  O  O19  1  0.98583200  0.20098200  0.38591900  1
  O  O20  1  0.48859500  0.88656900  0.69492600  1
  O  O21  1  0.92662300  0.08008100  0.73522900  1
  O  O22  1  0.69492600  0.48859500  0.88656900  1
  O  O23  1  0.88656900  0.69492600  0.48859500  1
loop_
_geom_bond_atom_site_label_1
_geom_bond_atom_site_label_2
_geom_bond_distance
_geom_bond_site_symmetry_2
Mn0 O8 1.926424 1_554
Mn0 O11 1.926424 1_545
Mn0 O19 1.926424 1_455
Mn0 O2 2.197159 1_545
Mn0 O13 2.197159 1_455
Mn0 O6 2.197159 1_554
Mn1 O3 2.012189 1_555
Mn1 O0 2.012189 1_555
Mn1 O1 2.012189 1_555
Mn1 O5 2.258596 1_555
Mn1 O9 2.258596 1_555
Mn1 O7 2.258596 1_555
Mn2 O20 1.969906 1_555
Mn2 O23 1.969907 1_555
Mn2 O22 1.969907 1_555
Mn2 O18 2.110736 1_555
Mn2 O14 2.110736 1_555
Mn2 O16 2.110736 1_555
O0 P2 1.520219 1_455
O1 P0 1.520219 1_554
O2 P3 1.592806 1_555
O2 Sb0 2.163483 1_565
O3 P1 1.520219 1_545
O4 P3 1.545806 1_655
O4 Ti0 1.923135 1_555
O5 P3 1.551090 1_555
O5 Sb1 2.330999 1_555
O6 P4 1.592806 1_555
O6 Sb0 2.163483 1_556
O7 P4 1.551090 1_555
O7 Sb1 2.330998 1_555
O8 P0 1.535026 1_555
O9 P5 1.551090 1_555
O9 Sb1 2.330999 1_555
O10 P0 1.568864 1_555
O10 Ti0 2.003829 1_455
O10 Sb0 2.605030 1_566
O11 P1 1.535026 1_555
O12 P4 1.545806 1_565
O12 Ti0 1.923135 1_555
O13 P5 1.592806 1_555
O13 Sb0 2.163483 1_655
O14 P0 1.575093 1_555
O14 Sb1 2.310646 1_555
O15 P5 1.545806 1_556
O15 Ti0 1.923135 1_555
O16 P1 1.575093 1_555
O16 Sb1 2.310646 1_555
O17 P1 1.568864 1_555
O17 Ti0 2.003829 1_554
O17 Sb0 2.605030 1_665
O18 P2 1.575093 1_555
O18 Sb1 2.310646 1_555
O19 P2 1.535026 1_555
O20 P4 1.522627 1_565
O21 P2 1.568864 1_555
O21 Ti0 2.003829 1_545
O21 Sb0 2.605031 1_656
O22 P5 1.522627 1_556
O23 P3 1.522627 1_655
