# generated using pymatgen
data_ZnAs
_symmetry_space_group_name_H-M   'P 1'
_cell_length_a   5.68024686
_cell_length_b   7.24500094
_cell_length_c   7.57084820
_cell_angle_alpha   90.00000000
_cell_angle_beta   90.00000000
_cell_angle_gamma   90.00000000
_symmetry_Int_Tables_number   1
_chemical_formula_structural   ZnAs
_chemical_formula_sum   'Zn8 As8'
_cell_volume   311.56609768
_cell_formula_units_Z   8
loop_
 _symmetry_equiv_pos_site_id
 _symmetry_equiv_pos_as_xyz
  1  'x, y, z'
loop_
 _atom_site_type_symbol
 _atom_site_label
 _atom_site_symmetry_multiplicity
 _atom_site_fract_x
 _atom_site_fract_y
 _atom_site_fract_z
 _atom_site_occupancy
  Zn  Zn0  1  0.53806826  0.61507768  0.63331405  1
  Zn  Zn1  1  0.03806826  0.88492232  0.36668595  1
  Zn  Zn2  1  0.46193174  0.11507768  0.86668595  1
  Zn  Zn3  1  0.96193174  0.38492232  0.13331405  1
  Zn  Zn4  1  0.46193174  0.38492232  0.36668595  1
  Zn  Zn5  1  0.96193174  0.11507768  0.63331405  1
  Zn  Zn6  1  0.53806826  0.88492232  0.13331405  1
  Zn  Zn7  1  0.03806826  0.61507768  0.86668595  1
  As  As0  1  0.13635241  0.07435411  0.10095989  1
  As  As1  1  0.63635241  0.42564589  0.89904011  1
  As  As2  1  0.86364759  0.57435411  0.39904011  1
  As  As3  1  0.36364759  0.92564589  0.60095989  1
  As  As4  1  0.86364759  0.92564589  0.89904011  1
  As  As5  1  0.36364759  0.57435411  0.10095989  1
  As  As6  1  0.13635241  0.42564589  0.60095989  1
  As  As7  1  0.63635241  0.07435411  0.39904011  1
loop_
_geom_bond_atom_site_label_1
_geom_bond_atom_site_label_2
_geom_bond_distance
_geom_bond_site_symmetry_2
As0 As4 2.428416 1_444
As0 Zn3 2.470707 1_455
As0 Zn1 2.498494 1_545
As0 Zn2 2.579354 1_554
As0 Zn6 2.674021 1_545
As1 As5 2.428416 1_556
As1 Zn2 2.470707 1_555
As1 Zn0 2.498494 1_555
As1 Zn3 2.579354 1_556
As1 Zn7 2.674021 1_655
As2 As6 2.428416 1_655
As2 Zn1 2.470707 1_655
As2 Zn3 2.498494 1_555
As2 Zn0 2.579354 1_555
As2 Zn4 2.674021 1_555
As3 As7 2.428416 1_565
As3 Zn0 2.470707 1_555
As3 Zn2 2.498494 1_565
As3 Zn1 2.579354 1_555
As3 Zn5 2.674021 1_465
As4 Zn7 2.470707 1_655
As4 Zn5 2.498494 1_565
As4 Zn6 2.579354 1_556
As4 Zn2 2.674021 1_565
As5 Zn6 2.470707 1_555
As5 Zn4 2.498494 1_555
As5 Zn7 2.579354 1_554
As5 Zn3 2.674021 1_455
As6 Zn5 2.470707 1_455
As6 Zn7 2.498494 1_555
As6 Zn4 2.579354 1_555
As6 Zn0 2.674021 1_555
As7 Zn4 2.470707 1_555
As7 Zn6 2.498494 1_545
As7 Zn5 2.579354 1_555
As7 Zn1 2.674021 1_645
