# generated using pymatgen
data_Na3BiO4
_symmetry_space_group_name_H-M   'P 1'
_cell_length_a   5.83593257
_cell_length_b   5.83593257
_cell_length_c   3.35388700
_cell_angle_alpha   90.00000000
_cell_angle_beta   90.00000000
_cell_angle_gamma   108.37752098
_symmetry_Int_Tables_number   1
_chemical_formula_structural   Na3BiO4
_chemical_formula_sum   'Na3 Bi1 O4'
_cell_volume   108.40144411
_cell_formula_units_Z   1
loop_
 _symmetry_equiv_pos_site_id
 _symmetry_equiv_pos_as_xyz
  1  'x, y, z'
loop_
 _atom_site_type_symbol
 _atom_site_label
 _atom_site_symmetry_multiplicity
 _atom_site_fract_x
 _atom_site_fract_y
 _atom_site_fract_z
 _atom_site_occupancy
  Na  Na0  1  0.50000000  0.00000000  0.00000000  1
  Na  Na1  1  0.50000000  0.50000000  0.50000000  1
  Na  Na2  1  0.00000000  0.50000000  0.00000000  1
  Bi  Bi0  1  0.00000000  0.00000000  0.50000000  1
  O  O0  1  0.77826600  0.77826600  0.00000000  1
  O  O1  1  0.78089900  0.21910100  0.50000000  1
  O  O2  1  0.22173400  0.22173400  0.00000000  1
  O  O3  1  0.21910100  0.78089900  0.50000000  1
loop_
_geom_bond_atom_site_label_1
_geom_bond_atom_site_label_2
_geom_bond_distance
_geom_bond_site_symmetry_2
Na0 O2 2.374183 1_555
Na0 O0 2.374183 1_545
Na0 O3 2.410959 1_544
Na0 O1 2.410959 1_555
Na0 O1 2.410959 1_554
Na0 O3 2.410959 1_545
Na1 O2 2.534487 1_556
Na1 O0 2.534487 1_555
Na1 O0 2.534487 1_556
Na1 O2 2.534487 1_555
Na1 O1 2.658790 1_555
Na1 O3 2.658790 1_555
Na2 O2 2.374183 1_555
Na2 O0 2.374183 1_455
Na2 O1 2.410959 1_454
Na2 O3 2.410959 1_555
Na2 O3 2.410959 1_554
Na2 O1 2.410959 1_455
Bi0 O1 2.073854 1_455
Bi0 O3 2.073854 1_545
Bi0 O2 2.259486 1_556
Bi0 O0 2.259486 1_446
Bi0 O2 2.259486 1_555
Bi0 O0 2.259486 1_445
