# generated using pymatgen
data_LiMnOF2
_symmetry_space_group_name_H-M   'P 1'
_cell_length_a   6.60130259
_cell_length_b   6.60129505
_cell_length_c   5.32091288
_cell_angle_alpha   83.65055063
_cell_angle_beta   96.34956014
_cell_angle_gamma   94.69121121
_symmetry_Int_Tables_number   1
_chemical_formula_structural   LiMnOF2
_chemical_formula_sum   'Li4 Mn4 O4 F8'
_cell_volume   228.46570408
_cell_formula_units_Z   4
loop_
 _symmetry_equiv_pos_site_id
 _symmetry_equiv_pos_as_xyz
  1  'x, y, z'
loop_
 _atom_site_type_symbol
 _atom_site_label
 _atom_site_symmetry_multiplicity
 _atom_site_fract_x
 _atom_site_fract_y
 _atom_site_fract_z
 _atom_site_occupancy
  Li  Li0  1  0.22022600  0.60691100  0.67021000  1
  Li  Li1  1  0.39309300  0.77977600  0.17021100  1
  Li  Li2  1  0.60691200  0.22022600  0.82978800  1
  Li  Li3  1  0.77977700  0.39309200  0.32978700  1
  Mn  Mn0  1  0.08903100  0.08902900  0.74999600  1
  Mn  Mn1  1  0.25691400  0.25691600  0.25000100  1
  Mn  Mn2  1  0.74307500  0.74307200  0.75000800  1
  Mn  Mn3  1  0.91096700  0.91097300  0.25000500  1
  O  O0  1  0.00081800  0.80577300  0.59851300  1
  O  O1  1  0.19422900  0.99918300  0.09851000  1
  O  O2  1  0.80577100  0.00081800  0.90148800  1
  O  O3  1  0.99918200  0.19422900  0.40148900  1
  F  F0  1  0.13163700  0.37394100  0.87280100  1
  F  F1  1  0.28920400  0.53221600  0.35640400  1
  F  F2  1  0.37394300  0.13163800  0.62719900  1
  F  F3  1  0.46777800  0.71080000  0.85640400  1
  F  F4  1  0.53221600  0.28920200  0.14359100  1
  F  F5  1  0.62606000  0.86836300  0.37280500  1
  F  F6  1  0.71080000  0.46778000  0.64359200  1
  F  F7  1  0.86836600  0.62606100  0.12719800  1
loop_
_geom_bond_atom_site_label_1
_geom_bond_atom_site_label_2
_geom_bond_distance
_geom_bond_site_symmetry_2
Li0 O0 2.011134 1_555
Li1 O1 2.011139 1_555
Li2 O2 2.011121 1_555
Li3 O3 2.011125 1_555
Mn0 O3 1.952442 1_455
Mn0 O1 1.952466 1_546
Mn0 O0 2.129924 1_545
Mn0 O2 2.129971 1_455
Mn1 O3 1.957042 1_455
Mn1 O1 1.957051 1_545
Mn2 O2 1.957106 1_565
Mn2 O0 1.957134 1_655
Mn3 O0 1.952449 1_655
Mn3 O2 1.952475 1_564
Mn3 O3 2.129929 1_565
Mn3 O1 2.129989 1_655
F0 Li0 1.869439 1_555
F0 Mn0 2.046484 1_555
F0 Mn1 2.168725 1_556
F1 Li0 1.904070 1_555
F1 Li1 1.931673 1_555
F1 Mn1 1.950950 1_555
F2 Li2 1.869426 1_555
F2 Mn0 2.046471 1_555
F2 Mn1 2.168726 1_555
F3 Li1 1.904046 1_556
F3 Li0 1.931635 1_555
F3 Mn2 1.950920 1_555
F4 Li2 1.904053 1_554
F4 Li3 1.931687 1_555
F4 Mn1 1.950980 1_555
F5 Li1 1.869428 1_555
F5 Mn3 2.046447 1_555
F5 Mn2 2.168748 1_555
F6 Li3 1.904046 1_555
F6 Li2 1.931648 1_555
F6 Mn2 1.950926 1_555
F7 Li3 1.869429 1_555
F7 Mn3 2.046488 1_555
F7 Mn2 2.168682 1_554
