# generated using pymatgen
data_V3OF11
_symmetry_space_group_name_H-M   'P 1'
_cell_length_a   5.27528500
_cell_length_b   5.44221300
_cell_length_c   14.59581872
_cell_angle_alpha   79.54924043
_cell_angle_beta   90.00000000
_cell_angle_gamma   90.00000000
_symmetry_Int_Tables_number   1
_chemical_formula_structural   V3OF11
_chemical_formula_sum   'V6 O2 F22'
_cell_volume   412.08333884
_cell_formula_units_Z   2
loop_
 _symmetry_equiv_pos_site_id
 _symmetry_equiv_pos_as_xyz
  1  'x, y, z'
loop_
 _atom_site_type_symbol
 _atom_site_label
 _atom_site_symmetry_multiplicity
 _atom_site_fract_x
 _atom_site_fract_y
 _atom_site_fract_z
 _atom_site_occupancy
  V  V0  1  0.00003200  0.24996400  0.00001200  1
  V  V1  1  0.49317400  0.08444500  0.32757000  1
  V  V2  1  0.99317400  0.91555500  0.67243000  1
  V  V3  1  0.50003200  0.75003600  0.99998800  1
  V  V4  1  0.99832600  0.58256400  0.33419400  1
  V  V5  1  0.49832600  0.41743600  0.66580600  1
  O  O0  1  0.91789600  0.87337900  0.78170600  1
  O  O1  1  0.41789600  0.12662100  0.21829400  1
  F  F0  1  0.79955300  0.22181300  0.64084700  1
  F  F1  1  0.70041800  0.05884400  0.97497200  1
  F  F2  1  0.29553700  0.10961300  0.69120800  1
  F  F3  1  0.91375900  0.20660300  0.11881400  1
  F  F4  1  0.58690600  0.04030500  0.45087500  1
  F  F5  1  0.08690600  0.95969500  0.54912500  1
  F  F6  1  0.41375900  0.79339700  0.88118600  1
  F  F7  1  0.79553700  0.89038700  0.30879200  1
  F  F8  1  0.70614800  0.72358600  0.64101600  1
  F  F9  1  0.79946600  0.55851300  0.97505500  1
  F  F10  1  0.20041800  0.94115600  0.02502800  1
  F  F11  1  0.29955300  0.77818700  0.35915300  1
  F  F12  1  0.20128500  0.61174500  0.69150700  1
  F  F13  1  0.58649800  0.70652900  0.11878100  1
  F  F14  1  0.91502900  0.53936000  0.45246300  1
  F  F15  1  0.58597400  0.37319700  0.78463700  1
  F  F16  1  0.08597400  0.62680300  0.21536300  1
  F  F17  1  0.41502900  0.46064000  0.54753700  1
  F  F18  1  0.08649800  0.29347100  0.88121900  1
  F  F19  1  0.70128500  0.38825500  0.30849300  1
  F  F20  1  0.29946600  0.44148700  0.02494500  1
  F  F21  1  0.20614800  0.27641400  0.35898400  1
loop_
_geom_bond_atom_site_label_1
_geom_bond_atom_site_label_2
_geom_bond_distance
_geom_bond_site_symmetry_2
O0 V2 1.619107 1_555
O1 V1 1.619107 1_555
F0 V2 1.937782 1_545
F0 V5 1.982912 1_555
F1 V0 1.962514 1_656
F1 V3 1.962795 1_545
F2 V2 1.959509 1_445
F2 V5 1.965443 1_555
F3 V0 1.766683 1_655
F4 V1 1.839677 1_555
F5 V2 1.839677 1_455
F6 V3 1.766683 1_555
F7 V1 1.959509 1_565
F7 V4 1.965443 1_555
F8 V2 1.941165 1_555
F8 V5 1.972343 1_555
F9 V0 1.962121 1_656
F9 V3 1.962546 1_555
F10 V3 1.962514 1_554
F10 V0 1.962795 1_565
F11 V1 1.937782 1_565
F11 V4 1.982912 1_455
F12 V2 1.962016 1_455
F12 V5 1.964253 1_555
F13 V3 1.766784 1_554
F14 V4 1.755279 1_555
F15 V5 1.768764 1_555
F16 V4 1.768764 1_455
F17 V5 1.755279 1_555
F18 V0 1.766784 1_556
F19 V1 1.962016 1_555
F19 V4 1.964253 1_555
F20 V3 1.962121 1_554
F20 V0 1.962546 1_555
F21 V1 1.941165 1_555
F21 V4 1.972343 1_455
