# generated using pymatgen
data_Li2TiNi2O5
_symmetry_space_group_name_H-M   'P 1'
_cell_length_a   5.03235575
_cell_length_b   7.84112965
_cell_length_c   5.07822099
_cell_angle_alpha   84.11259733
_cell_angle_beta   108.63532662
_cell_angle_gamma   108.71770097
_symmetry_Int_Tables_number   1
_chemical_formula_structural   Li2TiNi2O5
_chemical_formula_sum   'Li4 Ti2 Ni4 O10'
_cell_volume   179.83513806
_cell_formula_units_Z   2
loop_
 _symmetry_equiv_pos_site_id
 _symmetry_equiv_pos_as_xyz
  1  'x, y, z'
loop_
 _atom_site_type_symbol
 _atom_site_label
 _atom_site_symmetry_multiplicity
 _atom_site_fract_x
 _atom_site_fract_y
 _atom_site_fract_z
 _atom_site_occupancy
  Li  Li0  1  0.09735700  0.19470500  0.49999400  1
  Li  Li1  1  0.20264000  0.40528800  0.00000800  1
  Li  Li2  1  0.90092400  0.80187800  0.49999500  1
  Li  Li3  1  0.39907600  0.79812100  0.00000600  1
  Ti  Ti0  1  0.29634100  0.59270800  0.50000000  1
  Ti  Ti1  1  0.00365300  0.00728100  0.99999900  1
  Ni  Ni0  1  0.60132900  0.20263900  0.00001400  1
  Ni  Ni1  1  0.49769300  0.99531600  0.50000200  1
  Ni  Ni2  1  0.69869600  0.39740700  0.49998600  1
  Ni  Ni3  1  0.80229300  0.60466800  0.99999800  1
  O  O0  1  0.65000600  0.79999200  0.74998500  1
  O  O1  1  0.14998600  0.79999200  0.25001400  1
  O  O2  1  0.84723000  0.18742400  0.75689200  1
  O  O3  1  0.45278600  0.41258000  0.74310100  1
  O  O4  1  0.95979400  0.41257400  0.25692600  1
  O  O5  1  0.34019400  0.18743200  0.24308000  1
  O  O6  1  0.05946700  0.59650300  0.73342400  1
  O  O7  1  0.53703500  0.59650800  0.26657900  1
  O  O8  1  0.24055600  0.00349300  0.76661000  1
  O  O9  1  0.76294000  0.00348900  0.23338900  1
loop_
_geom_bond_atom_site_label_1
_geom_bond_atom_site_label_2
_geom_bond_distance
_geom_bond_site_symmetry_2
Li0 O8 2.062487 1_555
Li0 O9 2.062537 1_455
Li0 O2 2.068249 1_455
Li0 O5 2.068265 1_555
Li0 O4 2.168320 1_455
Li0 O3 2.168463 1_555
Li1 O6 2.062380 1_554
Li1 O7 2.062431 1_555
Li1 O3 2.068343 1_554
Li1 O4 2.068346 1_455
Li1 O5 2.168225 1_555
Li1 O2 2.168393 1_454
Li2 O0 2.053028 1_555
Li2 O1 2.053114 1_655
Li2 O7 2.112656 1_555
Li2 O6 2.112726 1_655
Li2 O9 2.116346 1_565
Li2 O8 2.116502 1_665
Li3 O0 2.053235 1_554
Li3 O1 2.053308 1_555
Li3 O9 2.112531 1_565
Li3 O8 2.112594 1_564
Li3 O7 2.116236 1_555
Li3 O6 2.116396 1_554
Ni0 O5 2.042212 1_555
Ni0 O2 2.042356 1_554
Ni0 O9 2.079397 1_555
Ni0 O8 2.079501 1_554
Ni0 O4 2.167174 1_555
Ni0 O3 2.167193 1_554
Ni1 O0 2.068203 1_555
Ni1 O1 2.068403 1_555
Ni1 O2 2.073891 1_565
Ni1 O5 2.074112 1_565
Ni1 O9 2.168230 1_565
Ni1 O8 2.168477 1_565
Ni2 O4 2.042101 1_555
Ni2 O3 2.042261 1_555
Ni2 O7 2.079256 1_555
Ni2 O6 2.079353 1_655
Ni2 O5 2.167409 1_555
Ni2 O2 2.167427 1_555
Ni3 O0 2.068213 1_555
Ni3 O1 2.068433 1_656
Ni3 O3 2.073762 1_555
Ni3 O4 2.073994 1_556
Ni3 O7 2.168165 1_556
Ni3 O6 2.168459 1_655
O0 Ti0 2.131583 1_555
O0 Ti1 2.131629 1_665
O1 Ti0 2.131488 1_555
O1 Ti1 2.131535 1_564
O2 Ti1 1.968199 1_655
O3 Ti0 1.968142 1_555
O4 Ti0 1.968092 1_655
O5 Ti1 1.968162 1_554
O6 Ti0 1.939070 1_555
O7 Ti0 1.939149 1_555
O8 Ti1 1.939030 1_555
O9 Ti1 1.939115 1_654
