# generated using pymatgen
data_LiVSO4F3
_symmetry_space_group_name_H-M   'P 1'
_cell_length_a   7.16557400
_cell_length_b   7.87959038
_cell_length_c   10.26152673
_cell_angle_alpha   88.61916924
_cell_angle_beta   88.91219150
_cell_angle_gamma   86.97486359
_symmetry_Int_Tables_number   1
_chemical_formula_structural   LiVSO4F3
_chemical_formula_sum   'Li4 V4 S4 O16 F12'
_cell_volume   578.31769683
_cell_formula_units_Z   4
loop_
 _symmetry_equiv_pos_site_id
 _symmetry_equiv_pos_as_xyz
  1  'x, y, z'
loop_
 _atom_site_type_symbol
 _atom_site_label
 _atom_site_symmetry_multiplicity
 _atom_site_fract_x
 _atom_site_fract_y
 _atom_site_fract_z
 _atom_site_occupancy
  Li  Li0  1  0.19435400  0.11125500  0.27271500  1
  Li  Li1  1  0.70791000  0.88518200  0.25781800  1
  Li  Li2  1  0.86641400  0.41456800  0.79636200  1
  Li  Li3  1  0.86573700  0.89982700  0.71817300  1
  V  V0  1  0.00171300  0.49470100  0.49007400  1
  V  V1  1  0.99209400  0.99586300  0.99807400  1
  V  V2  1  0.50125500  0.49995200  0.49993200  1
  V  V3  1  0.49157300  0.99869000  0.99113500  1
  S  S0  1  0.22074800  0.32684700  0.00781400  1
  S  S1  1  0.22087200  0.82993600  0.50932400  1
  S  S2  1  0.76448500  0.15973700  0.50034400  1
  S  S3  1  0.76895500  0.66416700  0.00944700  1
  O  O0  1  0.09878500  0.19307000  0.08122300  1
  O  O1  1  0.09276300  0.71224300  0.43724200  1
  O  O2  1  0.11317700  0.40556100  0.90277300  1
  O  O3  1  0.11618200  0.90282500  0.61810900  1
  O  O4  1  0.29890400  0.43071200  0.10300800  1
  O  O5  1  0.28810900  0.95136500  0.41177500  1
  O  O6  1  0.38224900  0.21504000  0.94392300  1
  O  O7  1  0.38521500  0.71990000  0.56010600  1
  O  O8  1  0.60056200  0.27339100  0.45051000  1
  O  O9  1  0.61424200  0.78438700  0.06795000  1
  O  O10  1  0.70085700  0.04583100  0.60354100  1
  O  O11  1  0.69674500  0.55826600  0.91035800  1
  O  O12  1  0.84810700  0.07263100  0.38731800  1
  O  O13  1  0.86639800  0.58237200  0.11655100  1
  O  O14  1  0.90152300  0.27706300  0.56128300  1
  O  O15  1  0.90249600  0.78719400  0.93208100  1
  F  F0  1  0.99199900  0.08655200  0.83361800  1
  F  F1  1  0.99175600  0.55730200  0.66314200  1
  F  F2  1  0.25894700  0.40082800  0.51270400  1
  F  F3  1  0.24657200  0.89890500  0.98701100  1
  F  F4  1  0.45693200  0.04412900  0.16911000  1
  F  F5  1  0.48490600  0.57265600  0.33401600  1
  F  F6  1  0.56229100  0.45194300  0.66705300  1
  F  F7  1  0.55267000  0.92196000  0.83310300  1
  F  F8  1  0.73649400  0.10049500  0.00444100  1
  F  F9  1  0.75273100  0.60108900  0.47862700  1
  F  F10  1  0.01093400  0.40327700  0.33294800  1
  F  F11  1  0.95720800  0.91891100  0.16674500  1
loop_
_geom_bond_atom_site_label_1
_geom_bond_atom_site_label_2
_geom_bond_distance
_geom_bond_site_symmetry_2
Li0 O5 1.983746 1_545
Li0 O0 2.165463 1_555
Li1 O9 2.248952 1_555
Li1 O12 2.293160 1_565
Li2 O11 1.998269 1_555
Li2 O2 2.092898 1_655
Li3 O10 1.986744 1_565
Li3 O3 2.051526 1_655
Li3 O15 2.361896 1_555
O0 S0 1.573632 1_555
O0 V1 1.985237 1_444
O1 S1 1.548711 1_555
O1 V0 1.928127 1_555
O2 S0 1.445520 1_556
O3 S1 1.446500 1_555
O4 S0 1.430148 1_555
O5 S1 1.460753 1_555
O6 S0 1.560970 1_556
O6 V3 1.894254 1_545
O7 S1 1.517837 1_555
O7 V2 1.989039 1_555
O8 S2 1.527385 1_555
O8 V2 1.961218 1_555
O9 S3 1.542093 1_555
O9 V3 2.012680 1_554
O10 S2 1.453920 1_555
O11 S3 1.450648 1_556
O12 S2 1.464200 1_555
O13 S3 1.434691 1_555
O14 S2 1.535230 1_555
O14 V0 2.009940 1_655
O15 S3 1.586705 1_556
O15 V1 1.938001 1_555
F0 V1 1.816702 1_545
F0 Li3 2.156827 1_545
F1 V0 1.853664 1_655
F1 Li2 1.981485 1_555
F2 V2 1.942020 1_555
F2 V0 1.965354 1_555
F3 V1 1.941888 1_455
F3 V3 1.962691 1_555
F4 V3 1.878852 1_544
F4 Li0 2.190040 1_555
F4 Li1 2.323991 1_545
F5 V2 1.787198 1_555
F6 V2 1.804183 1_555
F7 V3 1.783063 1_555
F7 Li3 2.514335 1_555
F8 V1 1.969046 1_544
F8 V3 1.976141 1_544
F9 V0 1.935174 1_655
F9 V2 2.014494 1_555
F10 V0 1.780424 1_555
F11 V1 1.837086 1_554
F11 Li1 2.027279 1_555
