# generated using pymatgen
data_Cs2MnO4
_symmetry_space_group_name_H-M   'P 1'
_cell_length_a   6.37523854
_cell_length_b   8.67039575
_cell_length_c   6.63737635
_cell_angle_alpha   90.04295176
_cell_angle_beta   61.20076828
_cell_angle_gamma   90.06652955
_symmetry_Int_Tables_number   1
_chemical_formula_structural   Cs2MnO4
_chemical_formula_sum   'Cs4 Mn2 O8'
_cell_volume   321.50728974
_cell_formula_units_Z   2
loop_
 _symmetry_equiv_pos_site_id
 _symmetry_equiv_pos_as_xyz
  1  'x, y, z'
loop_
 _atom_site_type_symbol
 _atom_site_label
 _atom_site_symmetry_multiplicity
 _atom_site_fract_x
 _atom_site_fract_y
 _atom_site_fract_z
 _atom_site_occupancy
  Cs  Cs0  1  0.97087400  0.11556300  0.05434400  1
  Cs  Cs1  1  0.02537100  0.61654700  0.94879500  1
  Cs  Cs2  1  0.34809200  0.41294600  0.30282300  1
  Cs  Cs3  1  0.65507100  0.91491100  0.69240200  1
  Mn  Mn0  1  0.32839300  0.90108400  0.34425800  1
  Mn  Mn1  1  0.67201900  0.39871800  0.65576200  1
  O  O0  1  0.81497100  0.41134400  0.36838600  1
  O  O1  1  0.18299500  0.91292200  0.63184500  1
  O  O2  1  0.38998100  0.07401500  0.22034400  1
  O  O3  1  0.61472300  0.57459000  0.77011400  1
  O  O4  1  0.84138000  0.30578000  0.74402900  1
  O  O5  1  0.58819000  0.81126500  0.25891100  1
  O  O6  1  0.41531600  0.30393400  0.74404600  1
  O  O7  1  0.15262600  0.80758600  0.26394100  1
loop_
_geom_bond_atom_site_label_1
_geom_bond_atom_site_label_2
_geom_bond_distance
_geom_bond_site_symmetry_2
Cs0 O1 3.020608 1_644
Cs0 O4 3.048016 1_554
Cs0 O6 3.051127 1_654
Cs0 O0 3.148227 1_555
Cs0 O2 3.335350 1_555
Cs0 O2 3.364830 1_655
Cs0 O5 3.399352 1_545
Cs0 O7 3.460383 1_645
Cs1 O0 3.020519 1_456
Cs1 O5 3.055083 1_456
Cs1 O7 3.066574 1_556
Cs1 O1 3.162914 1_555
Cs1 O3 3.371217 1_555
Cs1 O3 3.373618 1_455
Cs1 O4 3.465030 1_455
Cs1 O6 3.482637 1_555
Cs2 O2 2.977469 1_555
Cs2 O0 3.208889 1_555
Cs2 O0 3.211869 1_455
Cs2 O4 3.279815 1_455
Cs2 O6 3.296644 1_555
Cs2 O3 3.400972 1_554
Cs2 O4 3.643219 1_554
Cs2 O6 3.646446 1_554
Cs2 O7 3.694385 1_555
Cs2 O5 3.730223 1_555
Cs3 O3 2.985237 1_555
Cs3 O1 3.191572 1_655
Cs3 O7 3.213521 1_655
Cs3 O1 3.222561 1_555
Cs3 O5 3.231895 1_555
Cs3 O2 3.366092 1_566
Cs3 O6 3.651883 1_565
Cs3 O4 3.659851 1_565
Cs3 O5 3.686115 1_556
Cs3 O7 3.715900 1_556
Mn0 O2 1.663760 1_565
Mn0 O5 1.664017 1_555
Mn0 O7 1.664273 1_555
Mn0 O1 1.675867 1_555
Mn1 O3 1.663490 1_555
Mn1 O4 1.664495 1_555
Mn1 O6 1.664531 1_555
Mn1 O0 1.675122 1_555
