# generated using pymatgen
data_Li3Mn4(FeO6)2
_symmetry_space_group_name_H-M   'P 1'
_cell_length_a   5.93080400
_cell_length_b   5.94560573
_cell_length_c   14.45116976
_cell_angle_alpha   91.05181835
_cell_angle_beta   90.08782002
_cell_angle_gamma   119.49308747
_symmetry_Int_Tables_number   1
_chemical_formula_structural   Li3Mn4(FeO6)2
_chemical_formula_sum   'Li6 Mn8 Fe4 O24'
_cell_volume   443.43899128
_cell_formula_units_Z   2
loop_
 _symmetry_equiv_pos_site_id
 _symmetry_equiv_pos_as_xyz
  1  'x, y, z'
loop_
 _atom_site_type_symbol
 _atom_site_label
 _atom_site_symmetry_multiplicity
 _atom_site_fract_x
 _atom_site_fract_y
 _atom_site_fract_z
 _atom_site_occupancy
  Li  Li0  1  0.33531200  0.67877300  0.70495900  1
  Li  Li1  1  0.01411700  0.00693000  0.62834100  1
  Li  Li2  1  0.33207600  0.65408500  0.96133200  1
  Li  Li3  1  0.66792400  0.34591500  0.03866800  1
  Li  Li4  1  0.66468800  0.32122700  0.29504100  1
  Li  Li5  1  0.98588300  0.99307000  0.37165900  1
  Mn  Mn0  1  0.67633800  0.34662900  0.66643400  1
  Mn  Mn1  1  0.33674000  0.16876500  0.83274900  1
  Mn  Mn2  1  0.83695900  0.66908900  0.83388500  1
  Mn  Mn3  1  0.16304100  0.33091100  0.16611500  1
  Mn  Mn4  1  0.66326000  0.83123500  0.16725100  1
  Mn  Mn5  1  0.32366200  0.65337100  0.33356600  1
  Mn  Mn6  1  0.00000000  0.00000000  0.00000000  1
  Mn  Mn7  1  0.00000000  0.50000000  0.50000000  1
  Fe  Fe0  1  0.16402500  0.83070200  0.16671700  1
  Fe  Fe1  1  0.83597500  0.16929800  0.83328300  1
  Fe  Fe2  1  0.50000000  0.00000000  0.50000000  1
  Fe  Fe3  1  0.50000000  0.50000000  0.50000000  1
  O  O0  1  0.12871200  0.82542700  0.91956700  1
  O  O1  1  0.15387500  0.28978300  0.91637300  1
  O  O2  1  0.52335400  0.05119300  0.74825000  1
  O  O3  1  0.54714600  0.51581300  0.74782000  1
  O  O4  1  0.66645700  0.34782400  0.90179700  1
  O  O5  1  0.29671800  0.15246000  0.08628500  1
  O  O6  1  0.97094800  0.49365900  0.75448300  1
  O  O7  1  0.00493700  0.98922100  0.76507600  1
  O  O8  1  0.33354300  0.65217600  0.09820300  1
  O  O9  1  0.70328200  0.84754000  0.91371500  1
  O  O10  1  0.02905200  0.50634100  0.24551700  1
  O  O11  1  0.45285400  0.48418700  0.25218000  1
  O  O12  1  0.47664600  0.94880700  0.25175000  1
  O  O13  1  0.16845900  0.79989900  0.41873100  1
  O  O14  1  0.17139100  0.36491900  0.41930800  1
  O  O15  1  0.87128800  0.17457300  0.08043300  1
  O  O16  1  0.84612500  0.71021700  0.08362700  1
  O  O17  1  0.62288700  0.80608000  0.41528800  1
  O  O18  1  0.32219800  0.66567000  0.57030600  1
  O  O19  1  0.99506300  0.01077900  0.23492400  1
  O  O20  1  0.67780200  0.33433000  0.42969400  1
  O  O21  1  0.37711300  0.19392000  0.58471200  1
  O  O22  1  0.82860900  0.63508100  0.58069200  1
  O  O23  1  0.83154100  0.20010100  0.58126900  1
loop_
_geom_bond_atom_site_label_1
_geom_bond_atom_site_label_2
_geom_bond_distance
_geom_bond_site_symmetry_2
Li0 O18 1.945925 1_555
Li0 O2 2.013358 1_565
Li0 O6 2.021175 1_455
Li0 O3 2.029538 1_555
Li1 O7 1.980120 1_545
Li1 O21 1.985329 1_555
Li1 O22 2.029601 1_445
Li1 O23 2.050681 1_455
Li2 O8 1.978217 1_556
Li2 O1 1.980621 1_555
Li2 O0 2.021625 1_555
Li2 O9 2.045404 1_555
Li3 O4 1.978217 1_554
Li3 O16 1.980621 1_555
Li3 O15 2.021625 1_555
Li3 O5 2.045404 1_555
Li4 O20 1.945925 1_555
Li4 O12 2.013358 1_545
Li4 O10 2.021175 1_655
Li4 O11 2.029538 1_555
Li5 O19 1.980120 1_565
Li5 O17 1.985329 1_555
Li5 O14 2.029601 1_665
Li5 O13 2.050681 1_655
Mn0 O3 1.923644 1_555
Mn0 O21 1.932905 1_555
Mn0 O2 1.953682 1_555
Mn0 O22 1.961783 1_555
Mn0 O23 1.968421 1_555
Mn0 O6 1.970931 1_555
Mn1 O7 1.963612 1_545
Mn1 O4 1.964217 1_555
Mn1 O1 1.973520 1_555
Mn1 O2 1.984766 1_555
Mn1 O0 2.209591 1_545
Mn1 O3 2.209871 1_555
Mn2 O3 1.934231 1_555
Mn2 O0 1.938740 1_655
Mn2 O4 1.950451 1_555
Mn2 O7 1.951807 1_655
Mn2 O6 1.952190 1_555
Mn2 O9 1.967553 1_555
Mn3 O11 1.934231 1_555
Mn3 O15 1.938740 1_455
Mn3 O8 1.950451 1_555
Mn3 O19 1.951807 1_455
Mn3 O10 1.952190 1_555
Mn3 O5 1.967553 1_555
Mn4 O19 1.963612 1_565
Mn4 O8 1.964217 1_555
Mn4 O16 1.973520 1_555
Mn4 O12 1.984766 1_555
Mn4 O15 2.209591 1_565
Mn4 O11 2.209871 1_555
Mn5 O11 1.923644 1_555
Mn5 O17 1.932905 1_555
Mn5 O12 1.953682 1_555
Mn5 O14 1.961783 1_555
Mn5 O13 1.968421 1_555
Mn5 O10 1.970931 1_555
Mn6 O0 1.936413 1_544
Mn6 O15 1.936413 1_455
Mn6 O16 1.947682 1_445
Mn6 O1 1.947682 1_554
Mn6 O9 1.963264 1_444
Mn6 O5 1.963264 1_555
Mn7 O18 1.938555 1_555
Mn7 O20 1.938555 1_455
Mn7 O22 1.952214 1_455
Mn7 O14 1.952214 1_555
Mn7 O13 1.970594 1_555
Mn7 O23 1.970594 1_455
Fe0 O12 2.029816 1_555
Fe0 O8 2.032976 1_555
Fe0 O16 2.035022 1_455
Fe0 O19 2.035371 1_465
Fe0 O10 2.054291 1_555
Fe0 O5 2.057219 1_565
Fe1 O2 2.029816 1_555
Fe1 O4 2.032976 1_555
Fe1 O1 2.035022 1_655
Fe1 O7 2.035371 1_645
Fe1 O6 2.054291 1_555
Fe1 O9 2.057219 1_545
Fe2 O18 2.027083 1_545
Fe2 O20 2.027083 1_555
Fe2 O17 2.034077 1_545
Fe2 O21 2.034077 1_555
Fe2 O13 2.073473 1_545
Fe2 O23 2.073473 1_555
Fe3 O20 2.025779 1_555
Fe3 O18 2.025779 1_555
Fe3 O21 2.029821 1_555
Fe3 O17 2.029821 1_555
Fe3 O22 2.054392 1_555
Fe3 O14 2.054392 1_555
