# generated using pymatgen
data_LiMnB2O5
_symmetry_space_group_name_H-M   'P 1'
_cell_length_a   9.30512100
_cell_length_b   6.05304300
_cell_length_c   6.89281067
_cell_angle_alpha   75.55919999
_cell_angle_beta   90.00000000
_cell_angle_gamma   90.00000000
_symmetry_Int_Tables_number   1
_chemical_formula_structural   LiMnB2O5
_chemical_formula_sum   'Li4 Mn4 B8 O20'
_cell_volume   375.96682636
_cell_formula_units_Z   4
loop_
 _symmetry_equiv_pos_site_id
 _symmetry_equiv_pos_as_xyz
  1  'x, y, z'
loop_
 _atom_site_type_symbol
 _atom_site_label
 _atom_site_symmetry_multiplicity
 _atom_site_fract_x
 _atom_site_fract_y
 _atom_site_fract_z
 _atom_site_occupancy
  Li  Li0  1  0.43795300  0.66586700  0.78844400  1
  Li  Li1  1  0.06204700  0.16586700  0.78844400  1
  Li  Li2  1  0.93795300  0.83413300  0.21155600  1
  Li  Li3  1  0.56204700  0.33413300  0.21155600  1
  Mn  Mn0  1  0.82518900  0.77887100  0.75922100  1
  Mn  Mn1  1  0.67481100  0.27887100  0.75922100  1
  Mn  Mn2  1  0.32518900  0.72112900  0.24077900  1
  Mn  Mn3  1  0.17481100  0.22112900  0.24077900  1
  B  B0  1  0.12101200  0.67958900  0.90770600  1
  B  B1  1  0.37898800  0.17958900  0.90770600  1
  B  B2  1  0.08913300  0.73722300  0.54324000  1
  B  B3  1  0.58913300  0.76277700  0.45676000  1
  B  B4  1  0.41086700  0.23722300  0.54324000  1
  B  B5  1  0.91086700  0.26277700  0.45676000  1
  B  B6  1  0.62101200  0.82041100  0.09229400  1
  B  B7  1  0.87898800  0.32041100  0.09229400  1
  O  O0  1  0.70979100  0.91409100  0.93634800  1
  O  O1  1  0.99491800  0.78836100  0.93008300  1
  O  O2  1  0.79020900  0.41409100  0.93634800  1
  O  O3  1  0.50508200  0.28836100  0.93008300  1
  O  O4  1  0.16971200  0.66203700  0.71925000  1
  O  O5  1  0.65374700  0.68633900  0.63906900  1
  O  O6  1  0.33028800  0.16203700  0.71925000  1
  O  O7  1  0.94232400  0.74287700  0.54044500  1
  O  O8  1  0.84625300  0.18633900  0.63906900  1
  O  O9  1  0.44232400  0.75712300  0.45955500  1
  O  O10  1  0.55767600  0.24287700  0.54044500  1
  O  O11  1  0.15374700  0.81366100  0.36093100  1
  O  O12  1  0.05767600  0.25712300  0.45955500  1
  O  O13  1  0.66971200  0.83796300  0.28075000  1
  O  O14  1  0.34625300  0.31366100  0.36093100  1
  O  O15  1  0.83028800  0.33796300  0.28075000  1
  O  O16  1  0.49491800  0.71163900  0.06991700  1
  O  O17  1  0.20979100  0.58590900  0.06365200  1
  O  O18  1  0.00508200  0.21163900  0.06991700  1
  O  O19  1  0.29020900  0.08590900  0.06365200  1
loop_
_geom_bond_atom_site_label_1
_geom_bond_atom_site_label_2
_geom_bond_distance
_geom_bond_site_symmetry_2
Li0 O16 2.095227 1_556
Li0 O9 2.195762 1_555
Li0 O5 2.245851 1_555
Li0 O3 2.334984 1_555
Li0 O4 2.542364 1_555
Li1 O18 2.095227 1_556
Li1 O12 2.195762 1_555
Li1 O8 2.245851 1_455
Li1 O1 2.334984 1_445
Li1 O6 2.542364 1_555
Li2 O1 2.095227 1_554
Li2 O7 2.195762 1_555
Li2 O11 2.245851 1_655
Li2 O18 2.334984 1_665
Li2 O13 2.542364 1_555
Li3 O3 2.095227 1_554
Li3 O10 2.195762 1_555
Li3 O14 2.245851 1_555
Li3 O16 2.334984 1_555
Li3 O15 2.542364 1_555
Mn0 O7 1.916598 1_555
Mn0 O5 1.943169 1_555
Mn0 O0 1.952428 1_555
Mn0 O1 1.979497 1_555
Mn0 O2 2.264375 1_555
Mn0 O8 2.405982 1_565
Mn1 O10 1.916598 1_555
Mn1 O8 1.943169 1_555
Mn1 O2 1.952428 1_555
Mn1 O3 1.979497 1_555
Mn1 O0 2.264375 1_545
Mn1 O5 2.405982 1_555
Mn2 O9 1.916598 1_555
Mn2 O11 1.943169 1_555
Mn2 O17 1.952428 1_555
Mn2 O16 1.979497 1_555
Mn2 O19 2.264375 1_565
Mn2 O14 2.405982 1_555
Mn3 O12 1.916598 1_555
Mn3 O14 1.943169 1_555
Mn3 O19 1.952428 1_555
Mn3 O18 1.979497 1_555
Mn3 O17 2.264375 1_555
Mn3 O11 2.405982 1_545
B0 O17 1.362132 1_556
B0 O1 1.372812 1_455
B0 O4 1.404583 1_555
B1 O19 1.362132 1_556
B1 O3 1.372812 1_555
B1 O6 1.404583 1_555
B2 O11 1.365532 1_555
B2 O7 1.366520 1_455
B2 O4 1.402069 1_555
B3 O5 1.365532 1_555
B3 O9 1.366520 1_555
B3 O13 1.402069 1_555
B4 O14 1.365532 1_555
B4 O10 1.366520 1_555
B4 O6 1.402069 1_555
B5 O8 1.365532 1_555
B5 O12 1.366520 1_655
B5 O15 1.402069 1_555
B6 O0 1.362132 1_554
B6 O16 1.372812 1_555
B6 O13 1.404583 1_555
B7 O2 1.362132 1_554
B7 O18 1.372812 1_655
B7 O15 1.404583 1_555
