# generated using pymatgen
data_Li3CrO3
_symmetry_space_group_name_H-M   'P 1'
_cell_length_a   5.45596946
_cell_length_b   5.45596946
_cell_length_c   9.81178800
_cell_angle_alpha   90.00000000
_cell_angle_beta   90.00000000
_cell_angle_gamma   119.99999347
_symmetry_Int_Tables_number   1
_chemical_formula_structural   Li3CrO3
_chemical_formula_sum   'Li12 Cr4 O12'
_cell_volume   252.94300737
_cell_formula_units_Z   4
loop_
 _symmetry_equiv_pos_site_id
 _symmetry_equiv_pos_as_xyz
  1  'x, y, z'
loop_
 _atom_site_type_symbol
 _atom_site_label
 _atom_site_symmetry_multiplicity
 _atom_site_fract_x
 _atom_site_fract_y
 _atom_site_fract_z
 _atom_site_occupancy
  Li  Li0  1  0.67971600  0.05681700  0.07777700  1
  Li  Li1  1  0.62289900  0.94318300  0.57777700  1
  Li  Li2  1  0.32028400  0.37710100  0.57777700  1
  Li  Li3  1  0.37710100  0.05681700  0.42222300  1
  Li  Li4  1  0.37710100  0.32028400  0.07777700  1
  Li  Li5  1  0.32028400  0.94318300  0.92222300  1
  Li  Li6  1  0.05681700  0.37710100  0.92222300  1
  Li  Li7  1  0.94318300  0.62289900  0.07777700  1
  Li  Li8  1  0.05681700  0.67971600  0.57777700  1
  Li  Li9  1  0.94318300  0.32028400  0.42222300  1
  Li  Li10  1  0.67971600  0.62289900  0.42222300  1
  Li  Li11  1  0.62289900  0.67971600  0.92222300  1
  Cr  Cr0  1  0.66666700  0.33333300  0.75000000  1
  Cr  Cr1  1  0.33333300  0.66666700  0.25000000  1
  Cr  Cr2  1  0.00000000  0.00000000  0.25000000  1
  Cr  Cr3  1  0.00000000  0.00000000  0.75000000  1
  O  O0  1  0.70574200  0.04371800  0.86816800  1
  O  O1  1  0.66202500  0.95628200  0.36816800  1
  O  O2  1  0.33797500  0.04371800  0.63183200  1
  O  O3  1  0.29425800  0.95628200  0.13183200  1
  O  O4  1  0.33797500  0.29425800  0.86816800  1
  O  O5  1  0.29425800  0.33797500  0.36816800  1
  O  O6  1  0.04371800  0.70574200  0.36816800  1
  O  O7  1  0.04371800  0.33797500  0.13183200  1
  O  O8  1  0.95628200  0.66202500  0.86816800  1
  O  O9  1  0.95628200  0.29425800  0.63183200  1
  O  O10  1  0.70574200  0.66202500  0.63183200  1
  O  O11  1  0.66202500  0.70574200  0.13183200  1
loop_
_geom_bond_atom_site_label_1
_geom_bond_atom_site_label_2
_geom_bond_distance
_geom_bond_site_symmetry_2
Li0 O7 1.879382 1_655
Li0 O11 1.942858 1_545
Li0 O3 1.962504 1_545
Li0 O0 2.065232 1_554
Li1 O10 1.879378 1_555
Li1 O9 1.942856 1_565
Li1 O2 1.962509 1_565
Li1 O1 2.065232 1_555
Li2 O9 1.879383 1_455
Li2 O2 1.942853 1_555
Li2 O10 1.962505 1_555
Li2 O5 2.065232 1_555
Li3 O5 1.879378 1_555
Li3 O6 1.942856 1_545
Li3 O1 1.962509 1_545
Li3 O2 2.065232 1_555
Li4 O3 1.879383 1_545
Li4 O7 1.942853 1_555
Li4 O11 1.962505 1_555
Li4 O4 2.065232 1_554
Li5 O8 1.879382 1_455
Li5 O4 1.942858 1_565
Li5 O0 1.962504 1_565
Li5 O3 2.065232 1_556
Li6 O4 1.879378 1_555
Li6 O0 1.942856 1_455
Li6 O8 1.962509 1_455
Li6 O7 2.065232 1_556
Li7 O11 1.879378 1_555
Li7 O3 1.942856 1_655
Li7 O7 1.962509 1_655
Li7 O8 2.065232 1_554
Li8 O2 1.879382 1_565
Li8 O10 1.942858 1_455
Li8 O9 1.962504 1_455
Li8 O6 2.065232 1_555
Li9 O1 1.879382 1_545
Li9 O5 1.942858 1_655
Li9 O6 1.962504 1_655
Li9 O9 2.065232 1_555
Li10 O6 1.879383 1_655
Li10 O1 1.942853 1_555
Li10 O5 1.962505 1_555
Li10 O10 2.065232 1_555
Li11 O0 1.879383 1_565
Li11 O8 1.942853 1_555
Li11 O4 1.962505 1_555
Li11 O11 2.065232 1_556
Cr0 O0 2.055100 1_555
Cr0 O9 2.055100 1_555
Cr0 O8 2.055105 1_555
Cr0 O2 2.055105 1_555
Cr0 O4 2.055109 1_555
Cr0 O10 2.055109 1_555
Cr1 O6 2.055100 1_555
Cr1 O3 2.055100 1_555
Cr1 O1 2.055105 1_555
Cr1 O7 2.055105 1_555
Cr1 O11 2.055109 1_555
Cr1 O5 2.055109 1_555
Cr2 O7 2.088451 1_555
Cr2 O1 2.088451 1_445
Cr2 O5 2.088453 1_555
Cr2 O11 2.088453 1_445
Cr2 O3 2.088455 1_545
Cr2 O6 2.088455 1_545
Cr3 O8 2.088451 1_445
Cr3 O2 2.088451 1_555
Cr3 O4 2.088453 1_555
Cr3 O10 2.088453 1_445
Cr3 O0 2.088455 1_455
Cr3 O9 2.088455 1_455
