# generated using pymatgen
data_Ho2Zr2O7
_symmetry_space_group_name_H-M   'P 1'
_cell_length_a   7.47187149
_cell_length_b   7.47187149
_cell_length_c   7.47187149
_cell_angle_alpha   60.00000000
_cell_angle_beta   60.00000000
_cell_angle_gamma   60.00000000
_symmetry_Int_Tables_number   1
_chemical_formula_structural   Ho2Zr2O7
_chemical_formula_sum   'Ho4 Zr4 O14'
_cell_volume   294.96683201
_cell_formula_units_Z   2
loop_
 _symmetry_equiv_pos_site_id
 _symmetry_equiv_pos_as_xyz
  1  'x, y, z'
loop_
 _atom_site_type_symbol
 _atom_site_label
 _atom_site_symmetry_multiplicity
 _atom_site_fract_x
 _atom_site_fract_y
 _atom_site_fract_z
 _atom_site_occupancy
  Ho  Ho0  1  0.12500000  0.12500000  0.62500000  1
  Ho  Ho1  1  0.12500000  0.62500000  0.12500000  1
  Ho  Ho2  1  0.12500000  0.12500000  0.12500000  1
  Ho  Ho3  1  0.62500000  0.12500000  0.12500000  1
  Zr  Zr0  1  0.12500000  0.62500000  0.62500000  1
  Zr  Zr1  1  0.62500000  0.62500000  0.62500000  1
  Zr  Zr2  1  0.62500000  0.12500000  0.62500000  1
  Zr  Zr3  1  0.62500000  0.62500000  0.12500000  1
  O  O0  1  0.28287200  0.71712800  0.71712800  1
  O  O1  1  0.53287200  0.96712800  0.96712800  1
  O  O2  1  0.71712800  0.28287200  0.71712800  1
  O  O3  1  0.71712800  0.71712800  0.28287200  1
  O  O4  1  0.28287200  0.71712800  0.28287200  1
  O  O5  1  0.28287200  0.28287200  0.71712800  1
  O  O6  1  0.00000000  0.00000000  0.00000000  1
  O  O7  1  0.25000000  0.25000000  0.25000000  1
  O  O8  1  0.96712800  0.53287200  0.96712800  1
  O  O9  1  0.53287200  0.53287200  0.96712800  1
  O  O10  1  0.96712800  0.96712800  0.53287200  1
  O  O11  1  0.53287200  0.96712800  0.53287200  1
  O  O12  1  0.71712800  0.28287200  0.28287200  1
  O  O13  1  0.96712800  0.53287200  0.53287200  1
loop_
_geom_bond_atom_site_label_1
_geom_bond_atom_site_label_2
_geom_bond_distance
_geom_bond_site_symmetry_2
Ho0 O6 2.287784 1_556
Ho0 O7 2.287784 1_555
Ho0 O5 2.504439 1_555
Ho0 O10 2.504439 1_445
Ho0 O11 2.504439 1_545
Ho0 O2 2.504439 1_455
Ho0 O0 2.504439 1_545
Ho0 O13 2.504439 1_455
Ho1 O7 2.287784 1_555
Ho1 O6 2.287784 1_565
Ho1 O0 2.504439 1_554
Ho1 O8 2.504439 1_454
Ho1 O13 2.504439 1_455
Ho1 O4 2.504439 1_555
Ho1 O3 2.504439 1_455
Ho1 O9 2.504439 1_554
Ho2 O6 2.287784 1_555
Ho2 O7 2.287784 1_555
Ho2 O4 2.504439 1_545
Ho2 O1 2.504439 1_544
Ho2 O8 2.504439 1_454
Ho2 O10 2.504439 1_445
Ho2 O12 2.504439 1_455
Ho2 O5 2.504439 1_554
Ho3 O7 2.287784 1_555
Ho3 O6 2.287784 1_655
Ho3 O9 2.504439 1_554
Ho3 O1 2.504439 1_544
Ho3 O12 2.504439 1_555
Ho3 O11 2.504439 1_545
Ho3 O2 2.504439 1_554
Ho3 O3 2.504439 1_545
O0 Zr0 2.106420 1_555
O0 Zr1 2.106420 1_555
O1 Zr2 2.106420 1_565
O1 Zr3 2.106420 1_556
O2 Zr2 2.106420 1_555
O2 Zr1 2.106420 1_555
O3 Zr3 2.106420 1_555
O3 Zr1 2.106420 1_555
O4 Zr3 2.106420 1_555
O4 Zr0 2.106420 1_555
O5 Zr2 2.106420 1_555
O5 Zr0 2.106420 1_555
O8 Zr0 2.106420 1_655
O8 Zr3 2.106420 1_556
O9 Zr3 2.106420 1_556
O9 Zr1 2.106420 1_555
O10 Zr0 2.106420 1_655
O10 Zr2 2.106420 1_565
O11 Zr2 2.106420 1_565
O11 Zr1 2.106420 1_555
O12 Zr3 2.106420 1_555
O12 Zr2 2.106420 1_555
O13 Zr0 2.106420 1_655
O13 Zr1 2.106420 1_555
