# generated using pymatgen
data_Na4Ni2P(CO4)4
_symmetry_space_group_name_H-M   'P 1'
_cell_length_a   9.96982410
_cell_length_b   9.94947012
_cell_length_c   9.76889809
_cell_angle_alpha   60.73564224
_cell_angle_beta   60.52756896
_cell_angle_gamma   58.73678880
_symmetry_Int_Tables_number   1
_chemical_formula_structural   Na4Ni2P(CO4)4
_chemical_formula_sum   'Na8 Ni4 P2 C8 O32'
_cell_volume   684.70302063
_cell_formula_units_Z   2
loop_
 _symmetry_equiv_pos_site_id
 _symmetry_equiv_pos_as_xyz
  1  'x, y, z'
loop_
 _atom_site_type_symbol
 _atom_site_label
 _atom_site_symmetry_multiplicity
 _atom_site_fract_x
 _atom_site_fract_y
 _atom_site_fract_z
 _atom_site_occupancy
  Na  Na0  1  0.96313300  0.53686700  0.96313300  1
  Na  Na1  1  0.96228400  0.53771600  0.53771600  1
  Na  Na2  1  0.71228400  0.28771600  0.28771600  1
  Na  Na3  1  0.71313300  0.28686700  0.71313300  1
  Na  Na4  1  0.53686700  0.96313300  0.53686700  1
  Na  Na5  1  0.53771600  0.96228400  0.96228400  1
  Na  Na6  1  0.28771600  0.71228400  0.71228400  1
  Na  Na7  1  0.28686700  0.71313300  0.28686700  1
  Ni  Ni0  1  0.12500000  0.62500000  0.12500000  1
  Ni  Ni1  1  0.62500000  0.12500000  0.12500000  1
  Ni  Ni2  1  0.12500000  0.12500000  0.12500000  1
  Ni  Ni3  1  0.12500000  0.12500000  0.62500000  1
  P  P0  1  0.50000000  0.50000000  0.50000000  1
  P  P1  1  0.75000000  0.75000000  0.75000000  1
  C  C0  1  0.90347000  0.27106200  0.91362200  1
  C  C1  1  0.97893800  0.34653000  0.33815500  1
  C  C2  1  0.91362200  0.91184500  0.90347000  1
  C  C3  1  0.91184500  0.91362200  0.27106200  1
  C  C4  1  0.33815500  0.33637800  0.97893800  1
  C  C5  1  0.33637800  0.33815500  0.34653000  1
  C  C6  1  0.27106200  0.90347000  0.91184500  1
  C  C7  1  0.34653000  0.97893800  0.33637800  1
  O  O0  1  0.01497500  0.27801300  0.93879200  1
  O  O1  1  0.56059400  0.56239800  0.30862800  1
  O  O2  1  0.76823500  0.26331500  0.03304400  1
  O  O3  1  0.98668500  0.48176500  0.31459300  1
  O  O4  1  0.03304400  0.93540700  0.76823500  1
  O  O5  1  0.97145300  0.32521700  0.22208300  1
  O  O6  1  0.30862800  0.56838100  0.56059400  1
  O  O7  1  0.56239800  0.56059400  0.56838100  1
  O  O8  1  0.48124700  0.22208300  0.32521700  1
  O  O9  1  0.93540700  0.03304400  0.26331500  1
  O  O10  1  0.97198700  0.23502500  0.48178000  1
  O  O11  1  0.56838100  0.30862800  0.56239800  1
  O  O12  1  0.93879200  0.76822000  0.01497500  1
  O  O13  1  0.76822000  0.93879200  0.27801300  1
  O  O14  1  0.92478300  0.27854700  0.76875300  1
  O  O15  1  0.22208300  0.48124700  0.97145300  1
  O  O16  1  0.02791700  0.76875300  0.27854700  1
  O  O17  1  0.32521700  0.97145300  0.48124700  1
  O  O18  1  0.48178000  0.31120800  0.97198700  1
  O  O19  1  0.31120800  0.48178000  0.23502500  1
  O  O20  1  0.68161900  0.94137200  0.68760200  1
  O  O21  1  0.27801300  0.01497500  0.76822000  1
  O  O22  1  0.31459300  0.21695600  0.98668500  1
  O  O23  1  0.76875300  0.02791700  0.92478300  1
  O  O24  1  0.68760200  0.68940600  0.68161900  1
  O  O25  1  0.94137200  0.68161900  0.68940600  1
  O  O26  1  0.27854700  0.92478300  0.02791700  1
  O  O27  1  0.21695600  0.31459300  0.48176500  1
  O  O28  1  0.26331500  0.76823500  0.93540700  1
  O  O29  1  0.48176500  0.98668500  0.21695600  1
  O  O30  1  0.68940600  0.68760200  0.94137200  1
  O  O31  1  0.23502500  0.97198700  0.31120800  1
loop_
_geom_bond_atom_site_label_1
_geom_bond_atom_site_label_2
_geom_bond_distance
_geom_bond_site_symmetry_2
Na0 O5 2.378564 1_556
Na0 O15 2.378564 1_655
Na0 O25 2.398536 1_555
Na0 O30 2.398536 1_555
Na0 O12 2.460250 1_556
Na0 O0 2.460250 1_655
Na1 O27 2.375701 1_655
Na1 O3 2.375706 1_555
Na1 O25 2.397855 1_555
Na1 O24 2.397861 1_555
Na1 O16 2.522552 1_655
Na1 O14 2.522552 1_555
Na2 O2 2.375697 1_555
Na2 O9 2.375700 1_555
Na2 O11 2.397864 1_555
Na2 O1 2.397864 1_555
Na2 O5 2.522552 1_555
Na2 O8 2.522552 1_555
Na3 O23 2.378564 1_555
Na3 O14 2.378564 1_555
Na3 O11 2.398528 1_555
Na3 O7 2.398533 1_555
Na3 O18 2.460250 1_555
Na3 O10 2.460250 1_555
Na4 O17 2.378564 1_555
Na4 O8 2.378564 1_565
Na4 O20 2.398528 1_555
Na4 O24 2.398533 1_555
Na4 O21 2.460250 1_565
Na4 O13 2.460250 1_555
Na5 O29 2.375697 1_556
Na5 O22 2.375700 1_565
Na5 O20 2.397864 1_555
Na5 O30 2.397864 1_555
Na5 O23 2.522552 1_565
Na5 O26 2.522552 1_556
Na6 O4 2.375701 1_555
Na6 O28 2.375706 1_555
Na6 O6 2.397855 1_555
Na6 O7 2.397861 1_555
Na6 O17 2.522552 1_555
Na6 O15 2.522552 1_555
Na7 O16 2.378564 1_555
Na7 O26 2.378564 1_555
Na7 O6 2.398536 1_555
Na7 O1 2.398536 1_555
Na7 O31 2.460250 1_555
Na7 O19 2.460250 1_555
Ni0 O3 2.075781 1_455
Ni0 O28 2.075781 1_554
Ni0 O19 2.086269 1_555
Ni0 O12 2.086269 1_455
Ni0 O16 2.112922 1_555
Ni0 O15 2.112922 1_554
Ni1 O29 2.075783 1_545
Ni1 O2 2.075783 1_555
Ni1 O18 2.086269 1_554
Ni1 O13 2.086269 1_545
Ni1 O23 2.112922 1_554
Ni1 O8 2.112922 1_555
Ni2 O9 2.075775 1_455
Ni2 O22 2.075775 1_554
Ni2 O31 2.086269 1_545
Ni2 O0 2.086269 1_554
Ni2 O5 2.112922 1_455
Ni2 O26 2.112922 1_545
Ni3 O4 2.075775 1_545
Ni3 O27 2.075775 1_555
Ni3 O10 2.086269 1_455
Ni3 O21 2.086269 1_555
Ni3 O14 2.112922 1_455
Ni3 O17 2.112922 1_545
C0 O2 1.287229 1_556
C0 O0 1.290924 1_655
C0 O14 1.292670 1_555
C1 O3 1.287222 1_555
C1 O10 1.290918 1_555
C1 O5 1.292680 1_555
C2 O4 1.287233 1_655
C2 O12 1.290918 1_556
C2 O23 1.292674 1_565
C3 O9 1.287242 1_565
C3 O13 1.290914 1_555
C3 O16 1.292674 1_655
C4 O22 1.287242 1_555
C4 O18 1.290914 1_555
C4 O15 1.292674 1_555
C5 O27 1.287233 1_555
C5 O19 1.290918 1_555
C5 O8 1.292674 1_555
C6 O28 1.287222 1_555
C6 O21 1.290918 1_565
C6 O26 1.292680 1_556
C7 O29 1.287229 1_555
C7 O31 1.290924 1_555
C7 O17 1.292670 1_555
O1 P0 1.545513 1_555
O6 P0 1.545513 1_555
O7 P0 1.545521 1_555
O11 P0 1.545513 1_555
O20 P1 1.545513 1_555
O24 P1 1.545521 1_555
O25 P1 1.545513 1_555
O30 P1 1.545513 1_555
