# generated using pymatgen
data_GdTa3O9
_symmetry_space_group_name_H-M   'P 1'
_cell_length_a   7.35447803
_cell_length_b   7.35447803
_cell_length_c   6.55455675
_cell_angle_alpha   86.14826282
_cell_angle_beta   86.14826282
_cell_angle_gamma   62.56645220
_symmetry_Int_Tables_number   1
_chemical_formula_structural   GdTa3O9
_chemical_formula_sum   'Gd2 Ta6 O18'
_cell_volume   313.68374411
_cell_formula_units_Z   2
loop_
 _symmetry_equiv_pos_site_id
 _symmetry_equiv_pos_as_xyz
  1  'x, y, z'
loop_
 _atom_site_type_symbol
 _atom_site_label
 _atom_site_symmetry_multiplicity
 _atom_site_fract_x
 _atom_site_fract_y
 _atom_site_fract_z
 _atom_site_occupancy
  Gd  Gd0  1  0.73178000  0.73178000  0.94598500  1
  Gd  Gd1  1  0.26822000  0.26822000  0.05401500  1
  Ta  Ta0  1  0.00000000  0.50000000  0.50000000  1
  Ta  Ta1  1  0.78301100  0.28600700  0.23605700  1
  Ta  Ta2  1  0.28600700  0.78301100  0.23605700  1
  Ta  Ta3  1  0.71399300  0.21698900  0.76394300  1
  Ta  Ta4  1  0.21698900  0.71399300  0.76394300  1
  Ta  Ta5  1  0.50000000  0.00000000  0.50000000  1
  O  O0  1  0.92616900  0.92616900  0.80999300  1
  O  O1  1  0.72960900  0.72960900  0.58379000  1
  O  O2  1  0.49934300  0.91908300  0.21765800  1
  O  O3  1  0.91908300  0.49934300  0.21765800  1
  O  O4  1  0.37326200  0.80793600  0.93020800  1
  O  O5  1  0.80793600  0.37326200  0.93020800  1
  O  O6  1  0.30511300  0.87784100  0.54549900  1
  O  O7  1  0.87784100  0.30511300  0.54549900  1
  O  O8  1  0.53964800  0.53964800  0.28250800  1
  O  O9  1  0.46035200  0.46035200  0.71749200  1
  O  O10  1  0.12215900  0.69488700  0.45450100  1
  O  O11  1  0.69488700  0.12215900  0.45450100  1
  O  O12  1  0.19206400  0.62673800  0.06979200  1
  O  O13  1  0.62673800  0.19206400  0.06979200  1
  O  O14  1  0.50065700  0.08091700  0.78234200  1
  O  O15  1  0.08091700  0.50065700  0.78234200  1
  O  O16  1  0.27039100  0.27039100  0.41621000  1
  O  O17  1  0.07383100  0.07383100  0.19000700  1
loop_
_geom_bond_atom_site_label_1
_geom_bond_atom_site_label_2
_geom_bond_distance
_geom_bond_site_symmetry_2
Gd0 O1 2.376329 1_555
Gd0 O2 2.396131 1_556
Gd0 O3 2.396131 1_556
Gd0 O4 2.438181 1_555
Gd0 O5 2.438181 1_555
Gd0 O0 2.534380 1_555
Gd0 O15 2.546799 1_655
Gd0 O14 2.546799 1_565
Gd1 O16 2.376329 1_555
Gd1 O14 2.396131 1_554
Gd1 O15 2.396131 1_554
Gd1 O12 2.438181 1_555
Gd1 O13 2.438181 1_555
Gd1 O17 2.534380 1_555
Gd1 O2 2.546799 1_545
Gd1 O3 2.546799 1_455
O0 Ta3 2.000476 1_565
O0 Ta4 2.000476 1_655
O1 Ta0 1.997823 1_655
O1 Ta5 1.997823 1_565
O2 Ta5 1.982625 1_565
O2 Ta2 2.209717 1_555
O3 Ta0 1.982625 1_655
O3 Ta1 2.209717 1_555
O4 Ta4 1.996749 1_555
O4 Ta2 2.085768 1_556
O5 Ta3 1.996749 1_555
O5 Ta1 2.085768 1_556
O6 Ta5 2.010851 1_565
O6 Ta4 2.070102 1_555
O6 Ta2 2.222296 1_555
O7 Ta0 2.010851 1_655
O7 Ta3 2.070102 1_555
O7 Ta1 2.222296 1_555
O8 Ta2 1.924188 1_555
O8 Ta1 1.924188 1_555
O9 Ta3 1.924188 1_555
O9 Ta4 1.924188 1_555
O10 Ta0 2.010851 1_555
O10 Ta2 2.070102 1_555
O10 Ta4 2.222296 1_555
O11 Ta5 2.010851 1_555
O11 Ta1 2.070102 1_555
O11 Ta3 2.222296 1_555
O12 Ta2 1.996749 1_555
O12 Ta4 2.085768 1_554
O13 Ta1 1.996749 1_555
O13 Ta3 2.085768 1_554
O14 Ta5 1.982625 1_555
O14 Ta3 2.209717 1_555
O15 Ta0 1.982625 1_555
O15 Ta4 2.209717 1_555
O16 Ta5 1.997823 1_555
O16 Ta0 1.997823 1_555
O17 Ta2 2.000476 1_545
O17 Ta1 2.000476 1_455
