# generated using pymatgen
data_Ba4Y2Cu4W2O17
_symmetry_space_group_name_H-M   'P 1'
_cell_length_a   6.03672932
_cell_length_b   17.82731853
_cell_length_c   15.32751011
_cell_angle_alpha   18.54310571
_cell_angle_beta   51.42152852
_cell_angle_gamma   54.52807278
_symmetry_Int_Tables_number   1
_chemical_formula_structural   Ba4Y2Cu4W2O17
_chemical_formula_sum   'Ba4 Y2 Cu4 W2 O17'
_cell_volume   409.69740016
_cell_formula_units_Z   1
loop_
 _symmetry_equiv_pos_site_id
 _symmetry_equiv_pos_as_xyz
  1  'x, y, z'
loop_
 _atom_site_type_symbol
 _atom_site_label
 _atom_site_symmetry_multiplicity
 _atom_site_fract_x
 _atom_site_fract_y
 _atom_site_fract_z
 _atom_site_occupancy
  Ba  Ba0  1  0.98368800  0.97216700  0.03934200  1
  Ba  Ba1  1  0.01897000  0.34640900  0.97444900  1
  Ba  Ba2  1  0.98446000  0.67573000  0.98769100  1
  Ba  Ba3  1  0.49407400  0.17664700  0.48972600  1
  Y  Y0  1  0.56437400  0.53035500  0.47354300  1
  Y  Y1  1  0.40207700  0.77630900  0.54242100  1
  Cu  Cu0  1  0.26944700  0.25909200  0.22662100  1
  Cu  Cu1  1  0.22905000  0.57412700  0.26861900  1
  Cu  Cu2  1  0.24164300  0.92715300  0.23262600  1
  Cu  Cu3  1  0.78984500  0.38851700  0.77530600  1
  W  W0  1  0.73105100  0.09643200  0.74391300  1
  W  W1  1  0.73655000  0.76468100  0.73310400  1
  O  O0  1  0.46994300  0.10909600  0.89842800  1
  O  O1  1  0.56467800  0.12436700  0.07966400  1
  O  O2  1  0.00087800  0.49686000  0.99231400  1
  O  O3  1  0.56342900  0.41134700  0.91130400  1
  O  O4  1  0.97578900  0.13008100  0.54628000  1
  O  O5  1  0.52095600  0.02475000  0.47189800  1
  O  O6  1  0.52010400  0.53985900  0.96816200  1
  O  O7  1  0.96827200  0.84261400  0.01694200  1
  O  O8  1  0.95555300  0.32834500  0.49834200  1
  O  O9  1  0.94116600  0.43870700  0.56683400  1
  O  O10  1  0.52127300  0.70367800  0.95862300  1
  O  O11  1  0.52668700  0.81577600  0.05733100  1
  O  O12  1  0.09465900  0.56864200  0.55741200  1
  O  O13  1  0.48853800  0.31388200  0.50889300  1
  O  O14  1  0.49432600  0.67574800  0.48003000  1
  O  O15  1  0.03227300  0.94702200  0.52656900  1
  O  O16  1  0.99626400  0.83770300  0.48721400  1
loop_
_geom_bond_atom_site_label_1
_geom_bond_atom_site_label_2
_geom_bond_distance
_geom_bond_site_symmetry_2
Ba0 O7 2.693253 1_555
Ba0 O9 2.704833 1_564
Ba0 O1 2.721533 1_565
Ba0 O11 2.767091 1_655
Ba0 O14 2.797588 1_555
Ba0 O12 2.824736 1_655
Ba0 O13 3.038256 1_664
Ba0 O8 3.126323 1_564
Ba1 O12 2.683853 1_555
Ba1 O3 2.709118 1_455
Ba1 O14 2.863675 1_555
Ba1 O15 2.872153 1_546
Ba1 O2 2.880298 1_555
Ba1 O16 2.891125 1_455
Ba1 O1 2.917000 1_556
Ba1 O5 2.927678 1_456
Ba1 O6 2.941080 1_455
Ba1 O16 2.996889 1_446
Ba2 O8 2.698952 1_556
Ba2 O4 2.724393 1_565
Ba2 O6 2.736769 1_655
Ba2 O15 2.772686 1_655
Ba2 O10 2.789448 1_555
Ba2 O11 2.894160 1_556
Ba2 O13 3.043778 1_556
Ba2 O2 3.065392 1_655
Ba2 O5 3.144236 1_665
Ba2 O4 3.168760 1_556
Ba2 O10 3.255841 1_655
Ba2 O7 3.346479 1_556
Ba3 O6 2.705821 1_554
Ba3 O13 2.707152 1_555
Ba3 O10 2.780893 1_545
Ba3 O8 2.799562 1_455
Ba3 O5 2.876037 1_555
Ba3 O2 2.954245 1_654
Ba3 O4 2.979001 1_555
Ba3 O4 3.081742 1_455
Ba3 O7 3.088533 1_446
Ba3 O10 3.109185 1_554
Ba3 O15 3.178210 1_645
Ba3 O11 3.413776 1_546
Cu0 O5 1.966732 1_555
Cu0 O3 1.973361 1_554
Cu0 O2 1.978405 1_554
Cu0 O4 2.229418 1_455
Cu0 O15 2.583389 1_545
Cu0 O6 2.598485 1_554
Cu1 O9 1.944144 1_455
Cu1 O13 1.975652 1_555
Cu1 O7 2.021567 1_455
Cu1 O10 2.118769 1_554
Cu1 O8 2.492811 1_455
Cu2 O0 1.881024 1_564
Cu2 O16 1.922915 1_455
Cu2 O14 1.961326 1_555
Cu2 O12 2.675948 1_555
Cu3 O1 1.910782 1_556
Cu3 O12 1.925954 1_655
Cu3 O9 1.931922 1_555
Cu3 O3 1.946460 1_555
Cu3 O14 2.325952 1_555
O0 W0 2.022268 1_555
O0 Y0 2.595508 1_555
O1 Y1 2.169657 1_545
O2 W1 2.054907 1_455
O2 Y1 2.504037 1_555
O3 Y1 2.237849 1_555
O4 W0 1.928771 1_555
O5 W1 1.875326 1_545
O6 W1 1.891447 1_555
O7 W0 2.021413 1_564
O7 Y0 2.551719 1_555
O8 W0 1.931511 1_555
O8 Y0 2.709974 1_555
O9 Y0 2.280601 1_555
O10 W1 1.931260 1_555
O11 W0 1.957018 1_564
O11 Y0 2.357107 1_555
O12 Y0 2.242795 1_555
O13 W0 1.912823 1_555
O14 Y1 2.422071 1_555
O14 Y0 2.463972 1_555
O15 W1 1.987336 1_455
O15 Y1 2.386182 1_555
O16 W1 2.013294 1_555
O16 Y1 2.373333 1_655
