# generated using pymatgen
data_Li4Ni3O6F
_symmetry_space_group_name_H-M   'P 1'
_cell_length_a   5.05297364
_cell_length_b   5.05297364
_cell_length_c   6.37425734
_cell_angle_alpha   82.39161113
_cell_angle_beta   82.39161113
_cell_angle_gamma   48.37620019
_symmetry_Int_Tables_number   1
_chemical_formula_structural   Li4Ni3O6F
_chemical_formula_sum   'Li4 Ni3 O6 F1'
_cell_volume   120.37166871
_cell_formula_units_Z   1
loop_
 _symmetry_equiv_pos_site_id
 _symmetry_equiv_pos_as_xyz
  1  'x, y, z'
loop_
 _atom_site_type_symbol
 _atom_site_label
 _atom_site_symmetry_multiplicity
 _atom_site_fract_x
 _atom_site_fract_y
 _atom_site_fract_z
 _atom_site_occupancy
  Li  Li0  1  0.42493300  0.42493300  0.71149800  1
  Li  Li1  1  0.71967100  0.71967100  0.85725900  1
  Li  Li2  1  0.28032900  0.28032900  0.14274100  1
  Li  Li3  1  0.57506700  0.57506700  0.28850200  1
  Ni  Ni0  1  0.14301400  0.14301400  0.57413900  1
  Ni  Ni1  1  0.00000000  0.00000000  0.00000000  1
  Ni  Ni2  1  0.85698600  0.85698600  0.42586100  1
  O  O0  1  0.19285600  0.19285600  0.86411500  1
  O  O1  1  0.65778200  0.65778200  0.56075400  1
  O  O2  1  0.94438700  0.94438700  0.71719300  1
  O  O3  1  0.80714400  0.80714400  0.13588500  1
  O  O4  1  0.34221800  0.34221800  0.43924600  1
  O  O5  1  0.05561300  0.05561300  0.28280700  1
  F  F0  1  0.50000000  0.50000000  0.00000000  1
loop_
_geom_bond_atom_site_label_1
_geom_bond_atom_site_label_2
_geom_bond_distance
_geom_bond_site_symmetry_2
Li0 O4 1.994294 1_555
Li0 O2 2.078898 1_455
Li0 O2 2.078898 1_545
Li0 O0 2.217981 1_555
Li0 O1 2.220875 1_555
Li1 O1 2.051982 1_555
Li1 O3 2.054337 1_556
Li1 O0 2.084784 1_655
Li1 O0 2.084784 1_565
Li1 O2 2.133471 1_555
Li2 O4 2.051982 1_555
Li2 O0 2.054337 1_554
Li2 O3 2.084784 1_545
Li2 O3 2.084784 1_455
Li2 O5 2.133471 1_555
Li3 O1 1.994294 1_555
Li3 O5 2.078898 1_655
Li3 O5 2.078898 1_565
Li3 O3 2.217981 1_555
Li3 O4 2.220875 1_555
Ni0 O4 1.911368 1_555
Ni0 O2 1.923451 1_445
Ni0 O0 1.968292 1_555
Ni0 O1 2.075786 1_545
Ni0 O1 2.075786 1_455
Ni0 O5 2.128868 1_555
Ni1 O0 1.861203 1_554
Ni1 O3 1.861203 1_445
Ni1 O5 1.944427 1_555
Ni1 O2 1.944427 1_444
Ni2 O1 1.911368 1_555
Ni2 O5 1.923451 1_665
Ni2 O3 1.968292 1_555
Ni2 O4 2.075786 1_565
Ni2 O4 2.075786 1_655
Ni2 O2 2.128868 1_555
F0 Li3 2.056742 1_555
F0 Li0 2.056742 1_554
F0 Ni1 2.070373 1_655
F0 Ni1 2.070373 1_565
F0 Li1 2.096172 1_554
F0 Li2 2.096172 1_555
