# generated using pymatgen
data_LiFe2OF3
_symmetry_space_group_name_H-M   'P 1'
_cell_length_a   5.01973000
_cell_length_b   6.16410200
_cell_length_c   10.77414400
_cell_angle_alpha   90.00000000
_cell_angle_beta   90.00000000
_cell_angle_gamma   90.00000000
_symmetry_Int_Tables_number   1
_chemical_formula_structural   LiFe2OF3
_chemical_formula_sum   'Li4 Fe8 O4 F12'
_cell_volume   333.37493986
_cell_formula_units_Z   4
loop_
 _symmetry_equiv_pos_site_id
 _symmetry_equiv_pos_as_xyz
  1  'x, y, z'
loop_
 _atom_site_type_symbol
 _atom_site_label
 _atom_site_symmetry_multiplicity
 _atom_site_fract_x
 _atom_site_fract_y
 _atom_site_fract_z
 _atom_site_occupancy
  Li  Li0  1  0.44691300  0.75000000  0.59224800  1
  Li  Li1  1  0.05308700  0.75000000  0.09224800  1
  Li  Li2  1  0.94691300  0.25000000  0.90775200  1
  Li  Li3  1  0.55308700  0.25000000  0.40775200  1
  Fe  Fe0  1  0.50000000  0.00000000  0.00000000  1
  Fe  Fe1  1  0.50000000  0.50000000  0.00000000  1
  Fe  Fe2  1  0.54440300  0.25000000  0.71129100  1
  Fe  Fe3  1  0.95559700  0.25000000  0.21129100  1
  Fe  Fe4  1  0.00000000  0.50000000  0.50000000  1
  Fe  Fe5  1  0.00000000  0.00000000  0.50000000  1
  Fe  Fe6  1  0.04440300  0.75000000  0.78870900  1
  Fe  Fe7  1  0.45559700  0.75000000  0.28870900  1
  O  O0  1  0.23121000  0.75000000  0.44036800  1
  O  O1  1  0.26879000  0.75000000  0.94036800  1
  O  O2  1  0.73121000  0.25000000  0.05963200  1
  O  O3  1  0.76879000  0.25000000  0.55963200  1
  F  F0  1  0.26775000  0.98958100  0.66838100  1
  F  F1  1  0.26775000  0.51041900  0.66838100  1
  F  F2  1  0.31231200  0.25000000  0.88160500  1
  F  F3  1  0.18768800  0.25000000  0.38160500  1
  F  F4  1  0.23225000  0.98958100  0.16838100  1
  F  F5  1  0.23225000  0.51041900  0.16838100  1
  F  F6  1  0.76775000  0.48958100  0.83161900  1
  F  F7  1  0.76775000  0.01041900  0.83161900  1
  F  F8  1  0.81231200  0.75000000  0.61839500  1
  F  F9  1  0.68768800  0.75000000  0.11839500  1
  F  F10  1  0.73225000  0.48958100  0.33161900  1
  F  F11  1  0.73225000  0.01041900  0.33161900  1
loop_
_geom_bond_atom_site_label_1
_geom_bond_atom_site_label_2
_geom_bond_distance
_geom_bond_site_symmetry_2
Li0 O0 1.962173 1_555
Li1 O1 1.962173 1_554
Li2 O2 1.962173 1_556
Li3 O3 1.962173 1_555
Fe0 O1 2.033363 1_544
Fe0 O2 2.033363 1_555
Fe1 O2 2.033363 1_555
Fe1 O1 2.033363 1_554
Fe2 O3 1.984599 1_555
Fe3 O2 1.984599 1_555
Fe4 O3 2.033363 1_455
Fe4 O0 2.033363 1_555
Fe5 O0 2.033363 1_545
Fe5 O3 2.033363 1_455
Fe6 O1 1.984599 1_555
Fe7 O0 1.984599 1_555
F0 Li0 1.913795 1_555
F0 Fe2 2.172353 1_565
F0 Fe5 2.258701 1_565
F0 Fe6 2.262440 1_555
F1 Li0 1.913795 1_555
F1 Fe2 2.172353 1_555
F1 Fe4 2.258701 1_555
F1 Fe6 2.262440 1_555
F2 Li2 1.855712 1_455
F2 Fe2 2.173588 1_555
F2 Fe1 2.211235 1_556
F2 Fe0 2.211235 1_556
F3 Li3 1.855712 1_555
F3 Fe3 2.173588 1_455
F3 Fe4 2.211235 1_555
F3 Fe5 2.211235 1_555
F4 Li1 1.913795 1_555
F4 Fe3 2.172353 1_465
F4 Fe0 2.258701 1_565
F4 Fe7 2.262440 1_555
F5 Li1 1.913795 1_555
F5 Fe3 2.172353 1_455
F5 Fe1 2.258701 1_555
F5 Fe7 2.262440 1_555
F6 Li2 1.913795 1_555
F6 Fe6 2.172353 1_655
F6 Fe1 2.258701 1_556
F6 Fe2 2.262440 1_555
F7 Li2 1.913795 1_555
F7 Fe6 2.172353 1_645
F7 Fe0 2.258701 1_556
F7 Fe2 2.262440 1_555
F8 Li0 1.855712 1_555
F8 Fe6 2.173588 1_655
F8 Fe4 2.211235 1_655
F8 Fe5 2.211235 1_665
F9 Li1 1.855712 1_655
F9 Fe7 2.173588 1_555
F9 Fe0 2.211235 1_565
F9 Fe1 2.211235 1_555
F10 Li3 1.913795 1_555
F10 Fe7 2.172353 1_555
F10 Fe4 2.258701 1_655
F10 Fe3 2.262440 1_555
F11 Li3 1.913795 1_555
F11 Fe7 2.172353 1_545
F11 Fe5 2.258701 1_655
F11 Fe3 2.262440 1_555
