# generated using pymatgen
data_Pb3ClO3
_symmetry_space_group_name_H-M   'P 1'
_cell_length_a   5.89801400
_cell_length_b   6.87833400
_cell_length_c   16.49947000
_cell_angle_alpha   90.00000000
_cell_angle_beta   90.00000000
_cell_angle_gamma   90.00000000
_symmetry_Int_Tables_number   1
_chemical_formula_structural   Pb3ClO3
_chemical_formula_sum   'Pb12 Cl4 O12'
_cell_volume   669.35891746
_cell_formula_units_Z   4
loop_
 _symmetry_equiv_pos_site_id
 _symmetry_equiv_pos_as_xyz
  1  'x, y, z'
loop_
 _atom_site_type_symbol
 _atom_site_label
 _atom_site_symmetry_multiplicity
 _atom_site_fract_x
 _atom_site_fract_y
 _atom_site_fract_z
 _atom_site_occupancy
  Pb  Pb0  1  0.50000000  0.31152800  0.17696800  1
  Pb  Pb1  1  0.50000000  0.68847200  0.67696800  1
  Pb  Pb2  1  0.50000000  0.81604100  0.10881000  1
  Pb  Pb3  1  0.50000000  0.18395900  0.60881000  1
  Pb  Pb4  1  0.50000000  0.52956400  0.43245700  1
  Pb  Pb5  1  0.50000000  0.47043600  0.93245700  1
  Pb  Pb6  1  0.00000000  0.52331800  0.07942400  1
  Pb  Pb7  1  0.00000000  0.47668200  0.57942400  1
  Pb  Pb8  1  0.00000000  0.70698200  0.28044100  1
  Pb  Pb9  1  0.00000000  0.29301800  0.78044100  1
  Pb  Pb10  1  0.00000000  0.83216100  0.91096000  1
  Pb  Pb11  1  0.00000000  0.16783900  0.41096000  1
  Cl  Cl0  1  0.00000000  0.15117900  0.10742400  1
  Cl  Cl1  1  0.00000000  0.84882100  0.60742400  1
  Cl  Cl2  1  0.50000000  0.06521800  0.82985300  1
  Cl  Cl3  1  0.50000000  0.93478200  0.32985300  1
  O  O0  1  0.24224600  0.30853600  0.50805000  1
  O  O1  1  0.75775400  0.30853600  0.50805000  1
  O  O2  1  0.75775400  0.69146400  0.00805000  1
  O  O3  1  0.24224600  0.69146400  0.00805000  1
  O  O4  1  0.24595700  0.58476200  0.17486000  1
  O  O5  1  0.75404300  0.58476200  0.17486000  1
  O  O6  1  0.75404300  0.41523800  0.67486000  1
  O  O7  1  0.24595700  0.41523800  0.67486000  1
  O  O8  1  0.00000000  0.46272300  0.36237500  1
  O  O9  1  0.00000000  0.53727700  0.86237500  1
  O  O10  1  0.50000000  0.31517000  0.04556800  1
  O  O11  1  0.50000000  0.68483000  0.54556800  1
loop_
_geom_bond_atom_site_label_1
_geom_bond_atom_site_label_2
_geom_bond_distance
_geom_bond_site_symmetry_2
Cl0 Pb6 2.601053 1_555
Cl1 Pb7 2.601053 1_555
O0 Pb7 2.183082 1_555
O0 Pb11 2.354599 1_555
O0 Pb3 2.410234 1_555
O0 Pb4 2.485571 1_555
O1 Pb7 2.183082 1_655
O1 Pb11 2.354599 1_655
O1 Pb3 2.410234 1_555
O1 Pb4 2.485571 1_555
O2 Pb6 2.183082 1_655
O2 Pb10 2.354599 1_654
O2 Pb2 2.410234 1_555
O2 Pb5 2.485571 1_554
O3 Pb6 2.183082 1_555
O3 Pb10 2.354599 1_554
O3 Pb2 2.410234 1_555
O3 Pb5 2.485571 1_554
O4 Pb6 2.182322 1_555
O4 Pb0 2.403827 1_555
O4 Pb8 2.417810 1_555
O4 Pb2 2.442004 1_555
O5 Pb6 2.182322 1_655
O5 Pb0 2.403827 1_555
O5 Pb8 2.417810 1_655
O5 Pb2 2.442004 1_555
O6 Pb7 2.182322 1_655
O6 Pb1 2.403827 1_555
O6 Pb9 2.417810 1_655
O6 Pb3 2.442004 1_555
O7 Pb7 2.182322 1_555
O7 Pb1 2.403827 1_555
O7 Pb9 2.417810 1_555
O7 Pb3 2.442004 1_555
O8 Pb8 2.156447 1_555
O8 Pb11 2.180974 1_555
O9 Pb9 2.156447 1_555
O9 Pb10 2.180974 1_555
O10 Pb5 2.150240 1_554
O10 Pb0 2.168175 1_555
O11 Pb4 2.150240 1_555
O11 Pb1 2.168175 1_555
