# generated using pymatgen
data_MnOF
_symmetry_space_group_name_H-M   'P 1'
_cell_length_a   4.67787200
_cell_length_b   5.62455400
_cell_length_c   11.70829335
_cell_angle_alpha   61.85066730
_cell_angle_beta   90.00000000
_cell_angle_gamma   90.00000000
_symmetry_Int_Tables_number   1
_chemical_formula_structural   MnOF
_chemical_formula_sum   'Mn8 O8 F8'
_cell_volume   271.61965880
_cell_formula_units_Z   8
loop_
 _symmetry_equiv_pos_site_id
 _symmetry_equiv_pos_as_xyz
  1  'x, y, z'
loop_
 _atom_site_type_symbol
 _atom_site_label
 _atom_site_symmetry_multiplicity
 _atom_site_fract_x
 _atom_site_fract_y
 _atom_site_fract_z
 _atom_site_occupancy
  Mn  Mn0  1  0.54851700  0.52365800  0.12429500  1
  Mn  Mn1  1  0.45148300  0.47634200  0.87570500  1
  Mn  Mn2  1  0.46267900  0.02400600  0.62628100  1
  Mn  Mn3  1  0.53732100  0.97599400  0.37371900  1
  Mn  Mn4  1  0.04851700  0.47634200  0.37570500  1
  Mn  Mn5  1  0.96267900  0.97599400  0.87371900  1
  Mn  Mn6  1  0.95148300  0.52365800  0.62429500  1
  Mn  Mn7  1  0.03732100  0.02400600  0.12628100  1
  O  O0  1  0.28557900  0.15852800  0.45599800  1
  O  O1  1  0.33868400  0.18052500  0.20699400  1
  O  O2  1  0.16131600  0.18052500  0.70699400  1
  O  O3  1  0.21442100  0.15852800  0.95599800  1
  O  O4  1  0.78557900  0.84147200  0.04400200  1
  O  O5  1  0.83868400  0.81947500  0.29300600  1
  O  O6  1  0.66131600  0.81947500  0.79300600  1
  O  O7  1  0.71442100  0.84147200  0.54400200  1
  F  F0  1  0.24518100  0.63772800  0.96786500  1
  F  F1  1  0.19066400  0.67292600  0.71153900  1
  F  F2  1  0.30933600  0.67292600  0.21153900  1
  F  F3  1  0.25481900  0.63772800  0.46786500  1
  F  F4  1  0.74518100  0.36227200  0.53213500  1
  F  F5  1  0.69066400  0.32707400  0.78846100  1
  F  F6  1  0.80933600  0.32707400  0.28846100  1
  F  F7  1  0.75481900  0.36227200  0.03213500  1
loop_
_geom_bond_atom_site_label_1
_geom_bond_atom_site_label_2
_geom_bond_distance
_geom_bond_site_symmetry_2
Mn0 O4 1.929589 1_555
Mn0 O1 1.965346 1_555
Mn1 O3 1.929589 1_555
Mn1 O6 1.965346 1_555
Mn2 O0 1.952027 1_555
Mn2 O6 1.969395 1_545
Mn2 O7 2.074145 1_545
Mn2 O2 2.107224 1_555
Mn3 O7 1.952027 1_555
Mn3 O1 1.969395 1_565
Mn3 O0 2.074145 1_565
Mn3 O5 2.107224 1_555
Mn4 O0 1.929589 1_555
Mn4 O5 1.965346 1_455
Mn5 O4 1.952027 1_556
Mn5 O2 1.969395 1_665
Mn5 O3 2.074145 1_665
Mn5 O6 2.107224 1_555
Mn6 O7 1.929589 1_555
Mn6 O2 1.965346 1_655
Mn7 O3 1.952027 1_554
Mn7 O5 1.969395 1_445
Mn7 O4 2.074145 1_445
Mn7 O1 2.107224 1_555
F0 Mn1 1.960556 1_555
F0 Mn5 2.145341 1_455
F0 Mn0 2.161215 1_556
F1 Mn6 1.951746 1_455
F1 Mn1 2.097704 1_555
F1 Mn2 2.157551 1_565
F2 Mn0 1.951746 1_555
F2 Mn4 2.097704 1_555
F2 Mn7 2.157551 1_565
F3 Mn4 1.960556 1_555
F3 Mn3 2.145341 1_555
F3 Mn6 2.161215 1_455
F4 Mn6 1.960556 1_555
F4 Mn2 2.145341 1_555
F4 Mn4 2.161215 1_655
F5 Mn1 1.951746 1_555
F5 Mn6 2.097704 1_555
F5 Mn5 2.157551 1_545
F6 Mn4 1.951746 1_655
F6 Mn0 2.097704 1_555
F6 Mn3 2.157551 1_545
F7 Mn0 1.960556 1_555
F7 Mn7 2.145341 1_655
F7 Mn1 2.161215 1_554
