# generated using pymatgen
data_Li3Cr(PO4)2
_symmetry_space_group_name_H-M   'P 1'
_cell_length_a   5.34321200
_cell_length_b   6.72233000
_cell_length_c   8.51130867
_cell_angle_alpha   84.03586005
_cell_angle_beta   90.00000000
_cell_angle_gamma   90.00000000
_symmetry_Int_Tables_number   1
_chemical_formula_structural   Li3Cr(PO4)2
_chemical_formula_sum   'Li6 Cr2 P4 O16'
_cell_volume   304.06148123
_cell_formula_units_Z   2
loop_
 _symmetry_equiv_pos_site_id
 _symmetry_equiv_pos_as_xyz
  1  'x, y, z'
loop_
 _atom_site_type_symbol
 _atom_site_label
 _atom_site_symmetry_multiplicity
 _atom_site_fract_x
 _atom_site_fract_y
 _atom_site_fract_z
 _atom_site_occupancy
  Li  Li0  1  0.75000000  0.67305500  0.99420800  1
  Li  Li1  1  0.25000000  0.57899300  0.30504700  1
  Li  Li2  1  0.75000000  0.26355400  0.36669200  1
  Li  Li3  1  0.25000000  0.73644600  0.63330800  1
  Li  Li4  1  0.75000000  0.42100700  0.69495300  1
  Li  Li5  1  0.25000000  0.32694500  0.00579200  1
  Cr  Cr0  1  0.25000000  0.02118400  0.24644300  1
  Cr  Cr1  1  0.75000000  0.97881600  0.75355700  1
  P  P0  1  0.75000000  0.21627000  0.06055700  1
  P  P1  1  0.75000000  0.74730000  0.40181800  1
  P  P2  1  0.25000000  0.25270000  0.59818200  1
  P  P3  1  0.25000000  0.78373000  0.93944300  1
  O  O0  1  0.75000000  0.02400300  0.97905900  1
  O  O1  1  0.25000000  0.59716100  0.05813400  1
  O  O2  1  0.51929600  0.22505400  0.17489900  1
  O  O3  1  0.98070400  0.22505400  0.17489900  1
  O  O4  1  0.50753700  0.80750900  0.30569700  1
  O  O5  1  0.99246300  0.80750900  0.30569700  1
  O  O6  1  0.75000000  0.51929900  0.43750500  1
  O  O7  1  0.25000000  0.14316600  0.44815900  1
  O  O8  1  0.75000000  0.85683400  0.55184100  1
  O  O9  1  0.25000000  0.48070100  0.56249500  1
  O  O10  1  0.00753700  0.19249100  0.69430300  1
  O  O11  1  0.49246300  0.19249100  0.69430300  1
  O  O12  1  0.01929600  0.77494600  0.82510100  1
  O  O13  1  0.48070400  0.77494600  0.82510100  1
  O  O14  1  0.75000000  0.40283900  0.94186600  1
  O  O15  1  0.25000000  0.97599700  0.02094100  1
loop_
_geom_bond_atom_site_label_1
_geom_bond_atom_site_label_2
_geom_bond_distance
_geom_bond_site_symmetry_2
Li0 O14 1.914744 1_555
Li0 O12 2.099136 1_655
Li0 O13 2.099136 1_555
Li0 O0 2.349294 1_565
Li1 O4 2.062805 1_555
Li1 O5 2.062805 1_455
Li1 O1 2.092391 1_555
Li1 O9 2.221971 1_555
Li2 O6 1.879960 1_555
Li2 O3 2.083048 1_555
Li2 O2 2.083048 1_555
Li3 O9 1.879960 1_555
Li3 O13 2.083048 1_555
Li3 O12 2.083048 1_555
Li4 O10 2.062805 1_655
Li4 O11 2.062805 1_555
Li4 O14 2.092391 1_555
Li4 O6 2.221971 1_555
Li5 O1 1.914744 1_555
Li5 O2 2.099136 1_555
Li5 O3 2.099136 1_455
Li5 O15 2.349294 1_545
Cr0 O15 1.974135 1_545
Cr0 O7 1.978030 1_555
Cr0 O4 2.015097 1_545
Cr0 O5 2.015097 1_445
Cr0 O2 2.036183 1_555
Cr0 O3 2.036183 1_455
Cr1 O0 1.974135 1_565
Cr1 O8 1.978030 1_555
Cr1 O10 2.015097 1_665
Cr1 O11 2.015097 1_565
Cr1 O12 2.036183 1_655
Cr1 O13 2.036183 1_555
O0 P0 1.529045 1_556
O1 P3 1.526500 1_554
O2 P0 1.575467 1_555
O3 P0 1.575467 1_555
O4 P1 1.562920 1_555
O5 P1 1.562920 1_555
O6 P1 1.531234 1_555
O7 P2 1.538835 1_555
O8 P1 1.538835 1_555
O9 P2 1.531234 1_555
O10 P2 1.562920 1_555
O11 P2 1.562920 1_555
O12 P3 1.575467 1_555
O13 P3 1.575467 1_555
O14 P0 1.526500 1_556
O15 P3 1.529045 1_554
