# generated using pymatgen
data_Ca3CdO4
_symmetry_space_group_name_H-M   'P 1'
_cell_length_a   3.39230677
_cell_length_b   5.84626461
_cell_length_c   5.84626461
_cell_angle_alpha   70.33339813
_cell_angle_beta   90.00000000
_cell_angle_gamma   90.00000000
_symmetry_Int_Tables_number   1
_chemical_formula_structural   Ca3CdO4
_chemical_formula_sum   'Ca3 Cd1 O4'
_cell_volume   109.18157408
_cell_formula_units_Z   1
loop_
 _symmetry_equiv_pos_site_id
 _symmetry_equiv_pos_as_xyz
  1  'x, y, z'
loop_
 _atom_site_type_symbol
 _atom_site_label
 _atom_site_symmetry_multiplicity
 _atom_site_fract_x
 _atom_site_fract_y
 _atom_site_fract_z
 _atom_site_occupancy
  Ca  Ca0  1  0.00000000  0.50000000  0.50000000  1
  Ca  Ca1  1  0.50000000  -0.00000000  0.50000000  1
  Ca  Ca2  1  0.50000000  0.50000000  0.00000000  1
  Cd  Cd0  1  0.00000000  -0.00000000  0.00000000  1
  O  O0  1  -0.00000000  0.74740258  0.74740258  1
  O  O1  1  0.50000000  0.25270534  0.74729466  1
  O  O2  1  0.50000000  0.74729466  0.25270534  1
  O  O3  1  0.00000000  0.25259742  0.25259742  1
loop_
_geom_bond_atom_site_label_1
_geom_bond_atom_site_label_2
_geom_bond_distance
_geom_bond_site_symmetry_2
Ca0 O3 2.364774 1_555
Ca0 O0 2.364774 1_555
Ca0 O2 2.377063 1_555
Ca0 O1 2.377063 1_455
Ca0 O1 2.377063 1_555
Ca0 O2 2.377063 1_455
Ca1 O2 2.389671 1_545
Ca1 O1 2.389671 1_555
Ca1 O3 2.389992 1_655
Ca1 O0 2.389992 1_545
Ca1 O0 2.389992 1_645
Ca1 O3 2.389992 1_555
Ca2 O2 2.389671 1_555
Ca2 O1 2.389671 1_554
Ca2 O0 2.389992 1_654
Ca2 O3 2.389992 1_655
Ca2 O0 2.389992 1_554
Ca2 O3 2.389992 1_555
Cd0 O2 2.402732 1_545
Cd0 O2 2.402732 1_445
Cd0 O1 2.402732 1_554
Cd0 O1 2.402732 1_454
Cd0 O0 2.414429 1_544
Cd0 O3 2.414429 1_555
