# generated using pymatgen
data_BaTa4O11
_symmetry_space_group_name_H-M   'P 1'
_cell_length_a   6.32675844
_cell_length_b   6.32675863
_cell_length_c   12.49503401
_cell_angle_alpha   90.00000311
_cell_angle_beta   90.00000591
_cell_angle_gamma   120.00011121
_symmetry_Int_Tables_number   1
_chemical_formula_structural   BaTa4O11
_chemical_formula_sum   'Ba2 Ta8 O22'
_cell_volume   433.14180982
_cell_formula_units_Z   2
loop_
 _symmetry_equiv_pos_site_id
 _symmetry_equiv_pos_as_xyz
  1  'x, y, z'
loop_
 _atom_site_type_symbol
 _atom_site_label
 _atom_site_symmetry_multiplicity
 _atom_site_fract_x
 _atom_site_fract_y
 _atom_site_fract_z
 _atom_site_occupancy
  Ba  Ba0  1  0.33333339  0.66666669  0.75000042  1
  Ba  Ba1  1  0.66666649  0.33333344  0.24999963  1
  Ta  Ta0  1  0.00000076  0.64588293  0.49999995  1
  Ta  Ta1  1  -0.00000036  0.35412999  0.00000018  1
  Ta  Ta2  1  0.33333333  0.66666663  0.25000108  1
  Ta  Ta3  1  0.35411941  0.35411936  0.49999993  1
  Ta  Ta4  1  0.64586780  0.64586771  0.00000013  1
  Ta  Ta5  1  0.35413007  -0.00000076  0.00000011  1
  Ta  Ta6  1  0.66666662  0.33333330  0.74999898  1
  Ta  Ta7  1  0.64588283  0.00000042  0.49999993  1
  O  O0  1  -0.00000016  0.75672381  -0.00000009  1
  O  O1  1  0.07224496  0.63767144  0.34783717  1
  O  O2  1  0.07224689  0.43457644  0.15216301  1
  O  O3  1  0.00000028  0.24327389  0.50000020  1
  O  O4  1  0.36232967  0.92775254  0.15216298  1
  O  O5  1  0.33333345  0.66666680  0.53265731  1
  O  O6  1  0.33333327  0.66666659  0.96734334  1
  O  O7  1  0.56542670  0.92775524  0.34783719  1
  O  O8  1  0.24327796  0.24327784  -0.00000097  1
  O  O9  1  0.36232850  0.43457345  0.34783714  1
  O  O10  1  0.43457349  0.36232851  0.65216328  1
  O  O11  1  0.24327384  0.00000021  0.50000021  1
  O  O12  1  0.56542292  0.63767026  0.15216310  1
  O  O13  1  0.63767036  0.56542307  0.84783675  1
  O  O14  1  0.75672519  0.75672515  0.50000017  1
  O  O15  1  0.43457671  0.07224705  0.84783674  1
  O  O16  1  0.66666663  0.33333324  0.03265651  1
  O  O17  1  0.66666671  0.33333330  0.46734294  1
  O  O18  1  0.63767149  0.07224508  0.65216320  1
  O  O19  1  0.92775531  0.56542681  0.65216319  1
  O  O20  1  0.75672297  -0.00000113  -0.00000055  1
  O  O21  1  0.92775254  0.36232969  0.84783682  1
loop_
_geom_bond_atom_site_label_1
_geom_bond_atom_site_label_2
_geom_bond_distance
_geom_bond_site_symmetry_2
Ba0 O18 2.616385 1_565
Ba0 O19 2.616385 1_455
Ba0 O15 2.616387 1_565
Ba0 O21 2.616388 1_455
Ba0 O10 2.616388 1_555
Ba0 O13 2.616390 1_555
Ba0 O6 2.715707 1_555
Ba0 O5 2.715710 1_555
Ba1 O1 2.616386 1_655
Ba1 O7 2.616388 1_545
Ba1 O9 2.616388 1_555
Ba1 O4 2.616389 1_545
Ba1 O2 2.616390 1_655
Ba1 O12 2.616390 1_555
Ba1 O16 2.715710 1_555
Ba1 O17 2.715712 1_555
O0 Ta5 1.985027 1_565
O0 Ta4 1.985037 1_455
O1 Ta0 1.962198 1_555
O1 Ta2 1.988375 1_555
O2 Ta1 1.962192 1_555
O2 Ta2 1.988376 1_555
O3 Ta7 1.984964 1_455
O3 Ta3 1.984974 1_555
O4 Ta5 1.962192 1_565
O4 Ta2 1.988376 1_555
O5 Ta3 2.086626 1_555
O5 Ta0 2.086627 1_555
O5 Ta7 2.086629 1_565
O6 Ta4 2.086588 1_556
O6 Ta5 2.086589 1_566
O6 Ta1 2.086592 1_556
O7 Ta7 1.962198 1_565
O7 Ta2 1.988374 1_555
O8 Ta1 1.985036 1_555
O8 Ta5 1.985037 1_555
O9 Ta3 1.962197 1_555
O9 Ta2 1.988375 1_555
O10 Ta3 1.962204 1_555
O10 Ta6 1.988372 1_555
O11 Ta0 1.984963 1_545
O11 Ta3 1.984974 1_555
O12 Ta4 1.962193 1_555
O12 Ta2 1.988376 1_555
O13 Ta4 1.962197 1_556
O13 Ta6 1.988374 1_555
O14 Ta7 1.984971 1_565
O14 Ta0 1.984972 1_655
O15 Ta5 1.962199 1_556
O15 Ta6 1.988373 1_555
O16 Ta4 2.086587 1_555
O16 Ta1 2.086590 1_655
O16 Ta5 2.086592 1_555
O17 Ta3 2.086625 1_555
O17 Ta7 2.086627 1_555
O17 Ta0 2.086630 1_655
O18 Ta7 1.962205 1_555
O18 Ta6 1.988372 1_555
O19 Ta0 1.962205 1_655
O19 Ta6 1.988373 1_555
O20 Ta1 1.985033 1_655
O20 Ta4 1.985033 1_545
O21 Ta1 1.962199 1_656
O21 Ta6 1.988374 1_555
