# generated using pymatgen
data_BaY3F11
_symmetry_space_group_name_H-M   'P 1'
_cell_length_a   4.42929900
_cell_length_b   8.68051700
_cell_length_c   16.26670500
_cell_angle_alpha   90.00000000
_cell_angle_beta   90.00000000
_cell_angle_gamma   90.00000000
_symmetry_Int_Tables_number   1
_chemical_formula_structural   BaY3F11
_chemical_formula_sum   'Ba2 Y6 F22'
_cell_volume   625.43211955
_cell_formula_units_Z   2
loop_
 _symmetry_equiv_pos_site_id
 _symmetry_equiv_pos_as_xyz
  1  'x, y, z'
loop_
 _atom_site_type_symbol
 _atom_site_label
 _atom_site_symmetry_multiplicity
 _atom_site_fract_x
 _atom_site_fract_y
 _atom_site_fract_z
 _atom_site_occupancy
  Ba  Ba0  1  0.00000000  0.25000000  0.01478400  1
  Ba  Ba1  1  0.00000000  0.75000000  0.98521600  1
  Y  Y0  1  0.00000000  0.00110300  0.23551600  1
  Y  Y1  1  0.00000000  0.49889700  0.23551600  1
  Y  Y2  1  0.00000000  0.50000000  0.50000000  1
  Y  Y3  1  0.00000000  0.00000000  0.50000000  1
  Y  Y4  1  0.00000000  0.50110300  0.76448400  1
  Y  Y5  1  0.00000000  0.99889700  0.76448400  1
  F  F0  1  0.50000000  0.25000000  0.07484600  1
  F  F1  1  0.00000000  0.53345800  0.10192100  1
  F  F2  1  0.00000000  0.96654200  0.10192100  1
  F  F3  1  0.00000000  0.25000000  0.20747100  1
  F  F4  1  0.50000000  0.99333100  0.24060300  1
  F  F5  1  0.50000000  0.50666900  0.24060300  1
  F  F6  1  0.00000000  0.75000000  0.25367400  1
  F  F7  1  0.00000000  0.44892800  0.36800400  1
  F  F8  1  0.00000000  0.05107200  0.36800400  1
  F  F9  1  0.00000000  0.75000000  0.47355100  1
  F  F10  1  0.50000000  0.50000000  0.50000000  1
  F  F11  1  0.50000000  0.00000000  0.50000000  1
  F  F12  1  0.00000000  0.25000000  0.52644900  1
  F  F13  1  0.00000000  0.55107200  0.63199600  1
  F  F14  1  0.00000000  0.94892800  0.63199600  1
  F  F15  1  0.00000000  0.25000000  0.74632600  1
  F  F16  1  0.50000000  0.49333100  0.75939700  1
  F  F17  1  0.50000000  0.00666900  0.75939700  1
  F  F18  1  0.00000000  0.75000000  0.79252900  1
  F  F19  1  0.00000000  0.46654200  0.89807900  1
  F  F20  1  0.00000000  0.03345800  0.89807900  1
  F  F21  1  0.50000000  0.75000000  0.92515400  1
loop_
_geom_bond_atom_site_label_1
_geom_bond_atom_site_label_2
_geom_bond_distance
_geom_bond_site_symmetry_2
Ba0 F0 2.420583 1_555
Ba0 F0 2.420583 1_455
Ba0 F19 2.671555 1_554
Ba0 F20 2.671555 1_554
Ba0 F1 2.839626 1_555
Ba0 F2 2.839626 1_545
Ba0 F3 3.134383 1_555
Ba1 F21 2.420583 1_555
Ba1 F21 2.420583 1_455
Ba1 F2 2.671555 1_556
Ba1 F1 2.671555 1_556
Ba1 F20 2.839626 1_565
Ba1 F19 2.839626 1_555
Ba1 F18 3.134383 1_555
F1 Y1 2.193761 1_555
F2 Y0 2.193761 1_565
F3 Y1 2.208193 1_555
F3 Y0 2.208193 1_555
F4 Y0 2.217222 1_565
F4 Y0 2.217222 1_665
F5 Y1 2.217222 1_655
F5 Y1 2.217222 1_555
F6 Y1 2.199626 1_555
F6 Y0 2.199626 1_565
F7 Y2 2.192431 1_555
F7 Y1 2.198360 1_555
F8 Y3 2.192431 1_555
F8 Y0 2.198360 1_555
F9 Y2 2.212367 1_555
F9 Y3 2.212367 1_565
F10 Y2 2.214650 1_655
F10 Y2 2.214650 1_555
F11 Y3 2.214650 1_555
F11 Y3 2.214650 1_655
F12 Y3 2.212367 1_555
F12 Y2 2.212367 1_555
F13 Y2 2.192431 1_555
F13 Y4 2.198360 1_555
F14 Y3 2.192431 1_565
F14 Y5 2.198360 1_555
F15 Y4 2.199626 1_555
F15 Y5 2.199626 1_545
F16 Y4 2.217222 1_555
F16 Y4 2.217222 1_655
F17 Y5 2.217222 1_645
F17 Y5 2.217222 1_545
F18 Y5 2.208193 1_555
F18 Y4 2.208193 1_555
F19 Y4 2.193761 1_555
F20 Y5 2.193761 1_545
