# generated using pymatgen
data_LiCr4(PO4)3
_symmetry_space_group_name_H-M   'P 1'
_cell_length_a   6.51519600
_cell_length_b   10.10047600
_cell_length_c   15.80746200
_cell_angle_alpha   90.00000000
_cell_angle_beta   90.00000000
_cell_angle_gamma   90.00000000
_symmetry_Int_Tables_number   1
_chemical_formula_structural   LiCr4(PO4)3
_chemical_formula_sum   'Li4 Cr16 P12 O48'
_cell_volume   1040.23502587
_cell_formula_units_Z   4
loop_
 _symmetry_equiv_pos_site_id
 _symmetry_equiv_pos_as_xyz
  1  'x, y, z'
loop_
 _atom_site_type_symbol
 _atom_site_label
 _atom_site_symmetry_multiplicity
 _atom_site_fract_x
 _atom_site_fract_y
 _atom_site_fract_z
 _atom_site_occupancy
  Li  Li0  1  0.75000000  0.25257200  0.72115200  1
  Li  Li1  1  0.25000000  0.24742800  0.22115200  1
  Li  Li2  1  0.75000000  0.75257200  0.77884800  1
  Li  Li3  1  0.25000000  0.74742800  0.27884800  1
  Cr  Cr0  1  0.25000000  0.03659900  0.62717300  1
  Cr  Cr1  1  0.75000000  0.06921900  0.12272700  1
  Cr  Cr2  1  0.49820500  0.24664200  0.95166100  1
  Cr  Cr3  1  0.00179500  0.24664200  0.95166100  1
  Cr  Cr4  1  0.50179500  0.25335800  0.45166100  1
  Cr  Cr5  1  0.99820500  0.25335800  0.45166100  1
  Cr  Cr6  1  0.25000000  0.43078100  0.62272700  1
  Cr  Cr7  1  0.75000000  0.46340100  0.12717300  1
  Cr  Cr8  1  0.25000000  0.53659900  0.87282700  1
  Cr  Cr9  1  0.75000000  0.56921900  0.37727300  1
  Cr  Cr10  1  0.00179500  0.74664200  0.54833900  1
  Cr  Cr11  1  0.49820500  0.74664200  0.54833900  1
  Cr  Cr12  1  0.50179500  0.75335800  0.04833900  1
  Cr  Cr13  1  0.99820500  0.75335800  0.04833900  1
  Cr  Cr14  1  0.25000000  0.93078100  0.87727300  1
  Cr  Cr15  1  0.75000000  0.96340100  0.37282700  1
  P  P0  1  0.75000000  0.02830000  0.56587000  1
  P  P1  1  0.25000000  0.04289000  0.06091800  1
  P  P2  1  0.25000000  0.20831800  0.76931600  1
  P  P3  1  0.75000000  0.29168200  0.26931600  1
  P  P4  1  0.75000000  0.45711000  0.56091800  1
  P  P5  1  0.25000000  0.47170000  0.06587000  1
  P  P6  1  0.75000000  0.52830000  0.93413000  1
  P  P7  1  0.25000000  0.54289000  0.43908200  1
  P  P8  1  0.25000000  0.70831800  0.73068400  1
  P  P9  1  0.75000000  0.79168200  0.23068400  1
  P  P10  1  0.75000000  0.95711000  0.93908200  1
  P  P11  1  0.25000000  0.97170000  0.43413000  1
  O  O0  1  0.25000000  0.05424200  0.76378300  1
  O  O1  1  0.55931200  0.06216200  0.61600000  1
  O  O2  1  0.94068800  0.06216200  0.61600000  1
  O  O3  1  0.06014700  0.09437400  0.10550100  1
  O  O4  1  0.43985300  0.09437400  0.10550100  1
  O  O5  1  0.25000000  0.10300100  0.96562800  1
  O  O6  1  0.75000000  0.11133000  0.95089400  1
  O  O7  1  0.75000000  0.11151500  0.47820900  1
  O  O8  1  0.25000000  0.12118500  0.46443400  1
  O  O9  1  0.55029000  0.24154800  0.31263400  1
  O  O10  1  0.94971000  0.24154800  0.31263400  1
  O  O11  1  0.25000000  0.24913800  0.67408600  1
  O  O12  1  0.75000000  0.25086200  0.17408600  1
  O  O13  1  0.05029000  0.25845200  0.81263400  1
  O  O14  1  0.44971000  0.25845200  0.81263400  1
  O  O15  1  0.75000000  0.37881500  0.96443400  1
  O  O16  1  0.25000000  0.38848500  0.97820900  1
  O  O17  1  0.25000000  0.38867000  0.45089400  1
  O  O18  1  0.75000000  0.39699900  0.46562800  1
  O  O19  1  0.93985300  0.40562600  0.60550100  1
  O  O20  1  0.56014700  0.40562600  0.60550100  1
  O  O21  1  0.05931200  0.43783800  0.11600000  1
  O  O22  1  0.44068800  0.43783800  0.11600000  1
  O  O23  1  0.75000000  0.44575800  0.26378300  1
  O  O24  1  0.25000000  0.55424200  0.73621700  1
  O  O25  1  0.55931200  0.56216200  0.88400000  1
  O  O26  1  0.94068800  0.56216200  0.88400000  1
  O  O27  1  0.06014700  0.59437400  0.39449900  1
  O  O28  1  0.43985300  0.59437400  0.39449900  1
  O  O29  1  0.25000000  0.60300100  0.53437200  1
  O  O30  1  0.75000000  0.61133000  0.54910600  1
  O  O31  1  0.75000000  0.61151500  0.02179100  1
  O  O32  1  0.25000000  0.62118500  0.03556600  1
  O  O33  1  0.55029000  0.74154800  0.18736600  1
  O  O34  1  0.94971000  0.74154800  0.18736600  1
  O  O35  1  0.25000000  0.74913800  0.82591400  1
  O  O36  1  0.75000000  0.75086200  0.32591400  1
  O  O37  1  0.05029000  0.75845200  0.68736600  1
  O  O38  1  0.44971000  0.75845200  0.68736600  1
  O  O39  1  0.75000000  0.87881500  0.53556600  1
  O  O40  1  0.25000000  0.88848500  0.52179100  1
  O  O41  1  0.25000000  0.88867000  0.04910600  1
  O  O42  1  0.75000000  0.89699900  0.03437200  1
  O  O43  1  0.56014700  0.90562600  0.89449900  1
  O  O44  1  0.93985300  0.90562600  0.89449900  1
  O  O45  1  0.05931200  0.93783800  0.38400000  1
  O  O46  1  0.44068800  0.93783800  0.38400000  1
  O  O47  1  0.75000000  0.94575800  0.23621700  1
loop_
_geom_bond_atom_site_label_1
_geom_bond_atom_site_label_2
_geom_bond_distance
_geom_bond_site_symmetry_2
Li0 O14 2.433602 1_555
Li0 O13 2.433602 1_655
Li1 O10 2.433602 1_455
Li1 O9 2.433602 1_555
Li2 O38 2.433602 1_555
Li2 O37 2.433602 1_655
Li3 O34 2.433602 1_455
Li3 O33 2.433602 1_555
Cr0 O1 2.039364 1_555
Cr0 O2 2.039364 1_455
Cr0 O0 2.166798 1_555
Cr0 O40 2.238983 1_545
Cr0 O11 2.271222 1_555
Cr1 O12 2.006281 1_555
Cr1 O4 2.054703 1_555
Cr1 O3 2.054703 1_655
Cr1 O47 2.184821 1_545
Cr1 O42 2.230820 1_545
Cr2 O15 2.124674 1_555
Cr2 O6 2.135247 1_555
Cr2 O5 2.183739 1_555
Cr2 O16 2.200844 1_555
Cr2 O14 2.223462 1_555
Cr3 O15 2.124674 1_455
Cr3 O6 2.135247 1_455
Cr3 O5 2.183739 1_555
Cr3 O16 2.200844 1_555
Cr3 O13 2.223462 1_555
Cr4 O8 2.124674 1_555
Cr4 O17 2.135247 1_555
Cr4 O18 2.183739 1_555
Cr4 O7 2.200844 1_555
Cr4 O9 2.223462 1_555
Cr5 O8 2.124674 1_655
Cr5 O17 2.135247 1_655
Cr5 O18 2.183739 1_555
Cr5 O7 2.200844 1_555
Cr5 O10 2.223462 1_555
Cr6 O11 2.006281 1_555
Cr6 O20 2.054703 1_555
Cr6 O19 2.054703 1_455
Cr6 O24 2.184821 1_555
Cr6 O29 2.230820 1_555
Cr7 O21 2.039364 1_655
Cr7 O22 2.039364 1_555
Cr7 O23 2.166798 1_555
Cr7 O31 2.238983 1_555
Cr7 O12 2.271222 1_555
Cr8 O25 2.039364 1_555
Cr8 O26 2.039364 1_455
Cr8 O24 2.166798 1_555
Cr8 O16 2.238983 1_555
Cr8 O35 2.271222 1_555
Cr9 O36 2.006281 1_555
Cr9 O28 2.054703 1_555
Cr9 O27 2.054703 1_655
Cr9 O23 2.184821 1_555
Cr9 O18 2.230820 1_555
Cr10 O39 2.124674 1_455
Cr10 O30 2.135247 1_455
Cr10 O29 2.183739 1_555
Cr10 O40 2.200844 1_555
Cr10 O37 2.223462 1_555
Cr11 O39 2.124674 1_555
Cr11 O30 2.135247 1_555
Cr11 O29 2.183739 1_555
Cr11 O40 2.200844 1_555
Cr11 O38 2.223462 1_555
Cr12 O32 2.124674 1_555
Cr12 O41 2.135247 1_555
Cr12 O42 2.183739 1_555
Cr12 O31 2.200844 1_555
Cr12 O33 2.223462 1_555
Cr13 O32 2.124674 1_655
Cr13 O41 2.135247 1_655
Cr13 O42 2.183739 1_555
Cr13 O31 2.200844 1_555
Cr13 O34 2.223462 1_555
Cr14 O35 2.006281 1_555
Cr14 O43 2.054703 1_555
Cr14 O44 2.054703 1_455
Cr14 O0 2.184821 1_565
Cr14 O5 2.230820 1_565
Cr15 O45 2.039364 1_655
Cr15 O46 2.039364 1_555
Cr15 O47 2.166798 1_555
Cr15 O7 2.238983 1_565
Cr15 O36 2.271222 1_555
O0 P2 1.558697 1_555
O1 P0 1.512747 1_555
O2 P0 1.512747 1_555
O3 P1 1.515610 1_555
O4 P1 1.515610 1_555
O5 P1 1.624053 1_556
O6 P10 1.568846 1_545
O7 P0 1.620684 1_555
O8 P11 1.584038 1_545
O9 P3 1.555085 1_555
O10 P3 1.555085 1_555
O11 P2 1.560787 1_555
O12 P3 1.560787 1_555
O13 P2 1.555085 1_555
O14 P2 1.555085 1_555
O15 P6 1.584038 1_555
O16 P5 1.620684 1_556
O17 P7 1.568846 1_555
O18 P4 1.624053 1_555
O19 P4 1.515610 1_555
O20 P4 1.515610 1_555
O21 P5 1.512747 1_555
O22 P5 1.512747 1_555
O23 P3 1.558697 1_555
O24 P8 1.558697 1_555
O25 P6 1.512747 1_555
O26 P6 1.512747 1_555
O27 P7 1.515610 1_555
O28 P7 1.515610 1_555
O29 P7 1.624053 1_555
O30 P4 1.568846 1_555
O31 P6 1.620684 1_554
O32 P5 1.584038 1_555
O33 P9 1.555085 1_555
O34 P9 1.555085 1_555
O35 P8 1.560787 1_555
O36 P9 1.560787 1_555
O37 P8 1.555085 1_555
O38 P8 1.555085 1_555
O39 P0 1.584038 1_565
O40 P11 1.620684 1_555
O41 P1 1.568846 1_565
O42 P10 1.624053 1_554
O43 P10 1.515610 1_555
O44 P10 1.515610 1_555
O45 P11 1.512747 1_555
O46 P11 1.512747 1_555
O47 P9 1.558697 1_555
