# generated using pymatgen
data_Li2TiCo3(PO4)6
_symmetry_space_group_name_H-M   'P 1'
_cell_length_a   8.57004648
_cell_length_b   8.57004648
_cell_length_c   8.57004551
_cell_angle_alpha   59.92858240
_cell_angle_beta   59.92858240
_cell_angle_gamma   59.92858511
_symmetry_Int_Tables_number   1
_chemical_formula_structural   Li2TiCo3(PO4)6
_chemical_formula_sum   'Li2 Ti1 Co3 P6 O24'
_cell_volume   444.35532756
_cell_formula_units_Z   1
loop_
 _symmetry_equiv_pos_site_id
 _symmetry_equiv_pos_as_xyz
  1  'x, y, z'
loop_
 _atom_site_type_symbol
 _atom_site_label
 _atom_site_symmetry_multiplicity
 _atom_site_fract_x
 _atom_site_fract_y
 _atom_site_fract_z
 _atom_site_occupancy
  Li  Li0  1  0.99102800  0.99102800  0.99102800  1
  Li  Li1  1  0.49747300  0.49747300  0.49747300  1
  Ti  Ti0  1  0.14171600  0.14171600  0.14171600  1
  Co  Co0  1  0.85473500  0.85473500  0.85473500  1
  Co  Co1  1  0.64333900  0.64333900  0.64333900  1
  Co  Co2  1  0.35743800  0.35743800  0.35743800  1
  P  P0  1  0.24966900  0.54028300  0.96406700  1
  P  P1  1  0.96406700  0.24966900  0.54028300  1
  P  P2  1  0.54028300  0.96406700  0.24966900  1
  P  P3  1  0.46026000  0.04517900  0.74256500  1
  P  P4  1  0.04517900  0.74256500  0.46026000  1
  P  P5  1  0.74256500  0.46026000  0.04517900  1
  O  O0  1  0.69421000  0.49529000  0.87761500  1
  O  O1  1  0.49529000  0.87761500  0.69421000  1
  O  O2  1  0.08573300  0.73455400  0.94107900  1
  O  O3  1  0.87761500  0.69421000  0.49529000  1
  O  O4  1  0.41774600  0.55307800  0.77178400  1
  O  O5  1  0.19157300  0.37650300  0.00463700  1
  O  O6  1  0.94107900  0.08573300  0.73455400  1
  O  O7  1  0.77178400  0.41774600  0.55307800  1
  O  O8  1  0.55307800  0.77178400  0.41774600  1
  O  O9  1  0.62403100  0.01281600  0.79369500  1
  O  O10  1  0.26774000  0.06703800  0.90959500  1
  O  O11  1  0.01281600  0.79369500  0.62403100  1
  O  O12  1  0.00463700  0.19157300  0.37650300  1
  O  O13  1  0.73455400  0.94107900  0.08573300  1
  O  O14  1  0.37650300  0.00463700  0.19157300  1
  O  O15  1  0.44377500  0.23832600  0.57294000  1
  O  O16  1  0.23832600  0.57294000  0.44377500  1
  O  O17  1  0.06703800  0.90959500  0.26774000  1
  O  O18  1  0.79369500  0.62403100  0.01281600  1
  O  O19  1  0.57294000  0.44377500  0.23832600  1
  O  O20  1  0.13072200  0.29677200  0.51099700  1
  O  O21  1  0.90959500  0.26774000  0.06703800  1
  O  O22  1  0.51099700  0.13072200  0.29677200  1
  O  O23  1  0.29677200  0.51099700  0.13072200  1
loop_
_geom_bond_atom_site_label_1
_geom_bond_atom_site_label_2
_geom_bond_distance
_geom_bond_site_symmetry_2
Li0 O6 2.116623 1_565
Li0 O13 2.116623 1_556
Li0 O2 2.116623 1_655
Li0 O17 2.443161 1_656
Li0 O21 2.443162 1_566
Li0 O10 2.443162 1_665
Li1 O19 2.202038 1_555
Li1 O16 2.202038 1_555
Li1 O15 2.202038 1_555
Li1 O4 2.325324 1_555
Li1 O7 2.325324 1_555
Li1 O8 2.325324 1_555
Co0 O11 1.913130 1_655
Co0 O18 1.913130 1_556
Co0 O9 1.913131 1_565
Co0 O13 2.046544 1_556
Co0 O6 2.046544 1_565
Co0 O2 2.046544 1_655
Co1 O0 1.897609 1_555
Co1 O3 1.897609 1_555
Co1 O1 1.897609 1_555
Co1 O8 2.015075 1_555
Co1 O4 2.015075 1_555
Co1 O7 2.015075 1_555
Co2 O23 1.881885 1_555
Co2 O20 1.881885 1_555
Co2 O22 1.881885 1_555
Co2 O15 1.929661 1_555
Co2 O19 1.929661 1_555
Co2 O16 1.929661 1_555
O0 P5 1.537436 1_556
O1 P3 1.537436 1_565
O2 P0 1.545678 1_555
O3 P4 1.537436 1_655
O4 P0 1.549446 1_555
O5 P0 1.541644 1_554
O5 Ti0 1.897630 1_555
O6 P1 1.545678 1_555
O7 P1 1.549446 1_555
O8 P2 1.549446 1_555
O9 P3 1.530765 1_555
O10 P3 1.548700 1_555
O10 Ti0 1.990821 1_556
O11 P4 1.530765 1_555
O12 P1 1.541644 1_455
O12 Ti0 1.897630 1_555
O13 P2 1.545678 1_555
O14 P2 1.541644 1_545
O14 Ti0 1.897630 1_555
O15 P3 1.559850 1_555
O16 P4 1.559850 1_555
O17 P4 1.548700 1_555
O17 Ti0 1.990821 1_565
O18 P5 1.530765 1_555
O19 P5 1.559849 1_555
O20 P1 1.543644 1_455
O21 P5 1.548700 1_555
O21 Ti0 1.990821 1_655
O22 P2 1.543644 1_545
O23 P0 1.543644 1_554
