# generated using pymatgen
data_AgH3CN3O4
_symmetry_space_group_name_H-M   'P 1'
_cell_length_a   16.84743400
_cell_length_b   6.71829900
_cell_length_c   10.72465205
_cell_angle_alpha   70.04919312
_cell_angle_beta   90.00000000
_cell_angle_gamma   90.00000000
_symmetry_Int_Tables_number   1
_chemical_formula_structural   AgH3CN3O4
_chemical_formula_sum   'Ag8 H24 C8 N24 O32'
_cell_volume   1141.03155406
_cell_formula_units_Z   8
loop_
 _symmetry_equiv_pos_site_id
 _symmetry_equiv_pos_as_xyz
  1  'x, y, z'
loop_
 _atom_site_type_symbol
 _atom_site_label
 _atom_site_symmetry_multiplicity
 _atom_site_fract_x
 _atom_site_fract_y
 _atom_site_fract_z
 _atom_site_occupancy
  Ag  Ag0  1  0.81470700  0.07372600  0.77267500  1
  Ag  Ag1  1  0.68529300  0.07372600  0.27267500  1
  Ag  Ag2  1  0.18529300  0.92627400  0.22732500  1
  Ag  Ag3  1  0.31470700  0.92627400  0.72732500  1
  Ag  Ag4  1  0.97280800  0.60551700  0.32587700  1
  Ag  Ag5  1  0.52719200  0.60551700  0.82587700  1
  Ag  Ag6  1  0.02719200  0.39448300  0.67412300  1
  Ag  Ag7  1  0.47280800  0.39448300  0.17412300  1
  H  H0  1  0.08814100  0.63134000  0.11786000  1
  H  H1  1  0.41185900  0.63134000  0.61786000  1
  H  H2  1  0.91185900  0.36866000  0.88214000  1
  H  H3  1  0.58814100  0.36866000  0.38214000  1
  H  H4  1  0.18781300  0.57609700  0.10622500  1
  H  H5  1  0.31218700  0.57609700  0.60622500  1
  H  H6  1  0.81218700  0.42390300  0.89377500  1
  H  H7  1  0.68781300  0.42390300  0.39377500  1
  H  H8  1  0.19166100  0.17636200  0.42131300  1
  H  H9  1  0.30833900  0.17636200  0.92131300  1
  H  H10  1  0.80833900  0.82363800  0.57868700  1
  H  H11  1  0.69166100  0.82363800  0.07868700  1
  H  H12  1  0.24769500  0.32066200  0.28507100  1
  H  H13  1  0.25230500  0.32066200  0.78507100  1
  H  H14  1  0.75230500  0.67933800  0.71492900  1
  H  H15  1  0.74769500  0.67933800  0.21492900  1
  H  H16  1  0.95466600  0.18030400  0.15354700  1
  H  H17  1  0.54533400  0.18030400  0.65354700  1
  H  H18  1  0.04533400  0.81969600  0.84645300  1
  H  H19  1  0.45466600  0.81969600  0.34645300  1
  H  H20  1  0.85487100  0.27645600  0.14316800  1
  H  H21  1  0.64512900  0.27645600  0.64316800  1
  H  H22  1  0.14512900  0.72354400  0.85683200  1
  H  H23  1  0.35487100  0.72354400  0.35683200  1
  C  C0  1  0.12959400  0.40013300  0.27851900  1
  C  C1  1  0.37040600  0.40013300  0.77851900  1
  C  C2  1  0.87040600  0.59986700  0.72148100  1
  C  C3  1  0.62959400  0.59986700  0.22148100  1
  C  C4  1  0.88107200  0.01820000  0.30481800  1
  C  C5  1  0.61892800  0.01820000  0.80481800  1
  C  C6  1  0.11892800  0.98180000  0.69518200  1
  C  C7  1  0.38107200  0.98180000  0.19518200  1
  N  N0  1  0.14001100  0.57350200  0.16638800  1
  N  N1  1  0.35998900  0.57350200  0.66638800  1
  N  N2  1  0.85998900  0.42649800  0.83361200  1
  N  N3  1  0.64001100  0.42649800  0.33361200  1
  N  N4  1  0.19290200  0.26833000  0.32327200  1
  N  N5  1  0.30709800  0.26833000  0.82327200  1
  N  N6  1  0.80709800  0.73167000  0.67672800  1
  N  N7  1  0.69290200  0.73167000  0.17672800  1
  N  N8  1  0.94060600  0.87662300  0.36134100  1
  N  N9  1  0.55939400  0.87662300  0.86134100  1
  N  N10  1  0.05939400  0.12337700  0.63865900  1
  N  N11  1  0.44060600  0.12337700  0.13865900  1
  N  N12  1  0.89891700  0.17764300  0.19319000  1
  N  N13  1  0.60108300  0.17764300  0.69319000  1
  N  N14  1  0.10108300  0.82235700  0.80681000  1
  N  N15  1  0.39891700  0.82235700  0.30681000  1
  N  N16  1  0.92012300  0.81057000  0.00202400  1
  N  N17  1  0.57987700  0.81057000  0.50202400  1
  N  N18  1  0.07987700  0.18943000  0.99797600  1
  N  N19  1  0.42012300  0.18943000  0.49797600  1
  N  N20  1  0.82594400  0.36806400  0.48247100  1
  N  N21  1  0.67405600  0.36806400  0.98247100  1
  N  N22  1  0.17405600  0.63193600  0.51752900  1
  N  N23  1  0.32594400  0.63193600  0.01752900  1
  O  O0  1  0.85415700  0.84001400  0.04581700  1
  O  O1  1  0.64584300  0.84001400  0.54581700  1
  O  O2  1  0.14584300  0.15998600  0.95418300  1
  O  O3  1  0.35415700  0.15998600  0.45418300  1
  O  O4  1  0.93451300  0.88535400  0.87732500  1
  O  O5  1  0.56548700  0.88535400  0.37732500  1
  O  O6  1  0.06548700  0.11464600  0.12267500  1
  O  O7  1  0.43451300  0.11464600  0.62267500  1
  O  O8  1  0.97513200  0.70563600  0.07929900  1
  O  O9  1  0.52486800  0.70563600  0.57929900  1
  O  O10  1  0.02486800  0.29436400  0.92070100  1
  O  O11  1  0.47513200  0.29436400  0.42070100  1
  O  O12  1  0.83064400  0.49594800  0.36351000  1
  O  O13  1  0.66935600  0.49594800  0.86351000  1
  O  O14  1  0.16935600  0.50405200  0.63649000  1
  O  O15  1  0.33064400  0.50405200  0.13649000  1
  O  O16  1  0.88671600  0.27468600  0.54289500  1
  O  O17  1  0.61328400  0.27468600  0.04289500  1
  O  O18  1  0.11328400  0.72531400  0.45710500  1
  O  O19  1  0.38671600  0.72531400  0.95710500  1
  O  O20  1  0.75860400  0.33522700  0.54021300  1
  O  O21  1  0.74139600  0.33522700  0.04021300  1
  O  O22  1  0.24139600  0.66477300  0.45978700  1
  O  O23  1  0.25860400  0.66477300  0.95978700  1
  O  O24  1  0.06390100  0.36282200  0.33869300  1
  O  O25  1  0.43609900  0.36282200  0.83869300  1
  O  O26  1  0.93609900  0.63717800  0.66130700  1
  O  O27  1  0.56390100  0.63717800  0.16130700  1
  O  O28  1  0.81387000  0.98864200  0.36292800  1
  O  O29  1  0.68613000  0.98864200  0.86292800  1
  O  O30  1  0.18613000  0.01135800  0.63707200  1
  O  O31  1  0.31387000  0.01135800  0.13707200  1
loop_
_geom_bond_atom_site_label_1
_geom_bond_atom_site_label_2
_geom_bond_distance
_geom_bond_site_symmetry_2
Ag0 O29 2.361875 1_545
Ag0 O4 2.442533 1_545
Ag0 O16 2.664001 1_555
Ag0 O20 2.684458 1_555
Ag0 N2 2.771844 1_555
Ag0 N6 2.823110 1_545
Ag0 O0 2.889528 1_546
Ag1 O28 2.361875 1_545
Ag1 O5 2.442533 1_545
Ag1 O17 2.664001 1_555
Ag1 O21 2.684458 1_555
Ag1 N3 2.771844 1_555
Ag1 N7 2.823110 1_545
Ag1 O1 2.889528 1_545
Ag2 O31 2.361875 1_565
Ag2 O6 2.442533 1_565
Ag2 O18 2.664001 1_555
Ag2 O22 2.684458 1_555
Ag2 N0 2.771844 1_555
Ag2 N4 2.823110 1_565
Ag2 O2 2.889528 1_564
Ag3 O30 2.361875 1_565
Ag3 O7 2.442533 1_565
Ag3 O19 2.664001 1_555
Ag3 O23 2.684458 1_555
Ag3 N1 2.771844 1_555
Ag3 N5 2.823110 1_565
Ag3 O3 2.889528 1_565
Ag4 N8 2.056483 1_555
Ag4 O24 2.209011 1_655
Ag4 O8 2.496655 1_555
Ag4 O12 2.497701 1_555
Ag5 N9 2.056483 1_555
Ag5 O25 2.209011 1_555
Ag5 O9 2.496655 1_555
Ag5 O13 2.497701 1_555
Ag6 N10 2.056483 1_555
Ag6 O26 2.209011 1_455
Ag6 O10 2.496655 1_555
Ag6 O14 2.497701 1_555
Ag7 N11 2.056483 1_555
Ag7 O27 2.209011 1_555
Ag7 O11 2.496655 1_555
Ag7 O15 2.497701 1_555
H0 N0 1.023477 1_555
H1 N1 1.023477 1_555
H2 N2 1.023477 1_555
H3 N3 1.023477 1_555
H4 N0 1.028358 1_555
H5 N1 1.028358 1_555
H6 N2 1.028358 1_555
H7 N3 1.028358 1_555
H8 N4 1.021965 1_555
H9 N5 1.021965 1_555
H10 N6 1.021965 1_555
H11 N7 1.021965 1_555
H12 N4 1.022406 1_555
H13 N5 1.022406 1_555
H14 N6 1.022406 1_555
H15 N7 1.022406 1_555
H16 N12 1.028611 1_555
H17 N13 1.028611 1_555
H18 N14 1.028611 1_555
H19 N15 1.028611 1_555
H20 N12 1.017900 1_555
H21 N13 1.017900 1_555
H22 N14 1.017900 1_555
H23 N15 1.017900 1_555
C0 O24 1.262468 1_555
C0 N4 1.364556 1_555
C0 N0 1.370304 1_555
C1 O25 1.262468 1_555
C1 N5 1.364556 1_555
C1 N1 1.370304 1_555
C2 O26 1.262468 1_555
C2 N6 1.364556 1_555
C2 N2 1.370304 1_555
C3 O27 1.262468 1_555
C3 N7 1.364556 1_555
C3 N3 1.370304 1_555
C4 O28 1.274835 1_545
C4 N12 1.340114 1_555
C4 N8 1.372840 1_545
C5 O29 1.274835 1_545
C5 N13 1.340114 1_555
C5 N9 1.372840 1_545
C6 O30 1.274835 1_565
C6 N14 1.340114 1_555
C6 N10 1.372840 1_565
C7 O31 1.274835 1_565
C7 N15 1.340114 1_555
C7 N11 1.372840 1_565
N16 O0 1.248292 1_555
N16 O4 1.281087 1_554
N16 O8 1.282184 1_555
N17 O1 1.248292 1_555
N17 O5 1.281087 1_555
N17 O9 1.282184 1_555
N18 O2 1.248292 1_555
N18 O6 1.281087 1_556
N18 O10 1.282184 1_555
N19 O3 1.248292 1_555
N19 O7 1.281087 1_555
N19 O11 1.282184 1_555
N20 O16 1.258705 1_555
N20 O12 1.274404 1_555
N20 O20 1.275159 1_555
N21 O17 1.258705 1_556
N21 O13 1.274404 1_555
N21 O21 1.275159 1_556
N22 O18 1.258705 1_555
N22 O14 1.274404 1_555
N22 O22 1.275159 1_555
N23 O19 1.258705 1_554
N23 O15 1.274404 1_555
N23 O23 1.275159 1_554
