# generated using pymatgen
data_Li2Mn(CoO3)2
_symmetry_space_group_name_H-M   'P 1'
_cell_length_a   5.73197100
_cell_length_b   5.95501643
_cell_length_c   6.72029201
_cell_angle_alpha   103.86417553
_cell_angle_beta   101.83164312
_cell_angle_gamma   88.74327300
_symmetry_Int_Tables_number   1
_chemical_formula_structural   Li2Mn(CoO3)2
_chemical_formula_sum   'Li4 Mn2 Co4 O12'
_cell_volume   217.88649463
_cell_formula_units_Z   2
loop_
 _symmetry_equiv_pos_site_id
 _symmetry_equiv_pos_as_xyz
  1  'x, y, z'
loop_
 _atom_site_type_symbol
 _atom_site_label
 _atom_site_symmetry_multiplicity
 _atom_site_fract_x
 _atom_site_fract_y
 _atom_site_fract_z
 _atom_site_occupancy
  Li  Li0  1  0.81575700  0.84390300  0.85084500  1
  Li  Li1  1  0.50000000  0.50000000  0.50000000  1
  Li  Li2  1  0.00000000  0.50000000  0.50000000  1
  Li  Li3  1  0.18424300  0.15609700  0.14915500  1
  Mn  Mn0  1  0.50000000  0.00000000  0.50000000  1
  Mn  Mn1  1  0.00000000  0.00000000  0.50000000  1
  Co  Co0  1  0.83135800  0.33005800  0.83498500  1
  Co  Co1  1  0.33106200  0.34133500  0.84237600  1
  Co  Co2  1  0.66893800  0.65866500  0.15762400  1
  Co  Co3  1  0.16864200  0.66994200  0.16501500  1
  O  O0  1  0.57873800  0.10825400  0.80362700  1
  O  O1  1  0.06112700  0.09731100  0.80912400  1
  O  O2  1  0.75270700  0.77754600  0.49969900  1
  O  O3  1  0.25435200  0.78328600  0.50395300  1
  O  O4  1  0.74564800  0.21671400  0.49604700  1
  O  O5  1  0.40258600  0.43847700  0.15717000  1
  O  O6  1  0.24729300  0.22245400  0.50030100  1
  O  O7  1  0.42126200  0.89174600  0.19637300  1
  O  O8  1  0.92894300  0.45499400  0.17274300  1
  O  O9  1  0.93887300  0.90268900  0.19087600  1
  O  O10  1  0.59741400  0.56152300  0.84283000  1
  O  O11  1  0.07105700  0.54500600  0.82725700  1
loop_
_geom_bond_atom_site_label_1
_geom_bond_atom_site_label_2
_geom_bond_distance
_geom_bond_site_symmetry_2
Li0 O0 2.096043 1_565
Li0 O10 2.101954 1_555
Li0 O1 2.188956 1_665
Li0 O9 2.192820 1_556
Li0 O2 2.250574 1_555
Li0 O11 2.276052 1_655
Li1 O3 2.172291 1_555
Li1 O4 2.172291 1_555
Li1 O5 2.197944 1_555
Li1 O10 2.197944 1_555
Li1 O2 2.222098 1_555
Li1 O6 2.222098 1_555
Li2 O11 2.104629 1_555
Li2 O8 2.104629 1_455
Li2 O2 2.153746 1_455
Li2 O6 2.153746 1_555
Li2 O3 2.245594 1_555
Li2 O4 2.245594 1_455
Li3 O7 2.096043 1_545
Li3 O5 2.101954 1_555
Li3 O9 2.188956 1_445
Li3 O1 2.192820 1_554
Li3 O6 2.250574 1_555
Li3 O8 2.276052 1_455
Mn0 O4 1.939139 1_555
Mn0 O3 1.939139 1_545
Mn0 O2 1.941341 1_545
Mn0 O6 1.941341 1_555
Mn0 O0 1.946147 1_555
Mn0 O7 1.946147 1_545
Mn1 O3 1.926081 1_545
Mn1 O4 1.926081 1_455
Mn1 O6 1.960619 1_555
Mn1 O2 1.960619 1_445
Mn1 O1 1.976784 1_555
Mn1 O9 1.976784 1_445
Co0 O1 1.893185 1_655
Co0 O10 1.901044 1_555
Co0 O11 1.914978 1_655
Co0 O0 1.926433 1_555
Co0 O4 2.168873 1_555
Co0 O8 2.169525 1_556
Co1 O11 1.902670 1_555
Co1 O0 1.975290 1_555
Co1 O5 2.011554 1_556
Co1 O10 2.033268 1_555
Co1 O1 2.087309 1_555
Co1 O6 2.190603 1_555
Co2 O8 1.902670 1_555
Co2 O7 1.975290 1_555
Co2 O10 2.011554 1_554
Co2 O5 2.033268 1_555
Co2 O9 2.087309 1_555
Co2 O2 2.190603 1_555
Co3 O9 1.893185 1_455
Co3 O5 1.901044 1_555
Co3 O8 1.914978 1_455
Co3 O7 1.926433 1_555
Co3 O3 2.168873 1_555
Co3 O11 2.169525 1_554
