# generated using pymatgen
data_U2H14S2O19
_symmetry_space_group_name_H-M   'P 1'
_cell_length_a   6.91562900
_cell_length_b   11.44715100
_cell_length_c   21.09466600
_cell_angle_alpha   90.00000000
_cell_angle_beta   90.00000000
_cell_angle_gamma   90.00000000
_symmetry_Int_Tables_number   1
_chemical_formula_structural   U2H14S2O19
_chemical_formula_sum   'U8 H56 S8 O76'
_cell_volume   1669.94340072
_cell_formula_units_Z   4
loop_
 _symmetry_equiv_pos_site_id
 _symmetry_equiv_pos_as_xyz
  1  'x, y, z'
loop_
 _atom_site_type_symbol
 _atom_site_label
 _atom_site_symmetry_multiplicity
 _atom_site_fract_x
 _atom_site_fract_y
 _atom_site_fract_z
 _atom_site_occupancy
  U  U0  1  0.19168800  0.00026800  0.42077500  1
  U  U1  1  0.80831200  0.50026800  0.57922500  1
  U  U2  1  0.19168800  0.50026800  0.07922500  1
  U  U3  1  0.80831200  0.00026800  0.92077500  1
  U  U4  1  0.70241900  0.61245900  0.29835400  1
  U  U5  1  0.29758100  0.11245900  0.70164600  1
  U  U6  1  0.70241900  0.11245900  0.20164600  1
  U  U7  1  0.29758100  0.61245900  0.79835400  1
  H  H0  1  0.47853400  0.46156000  0.20761200  1
  H  H1  1  0.52146600  0.96156000  0.79238800  1
  H  H2  1  0.47853400  0.96156000  0.29238800  1
  H  H3  1  0.52146600  0.46156000  0.70761200  1
  H  H4  1  0.38532300  0.41392100  0.27334800  1
  H  H5  1  0.61467700  0.91392100  0.72665200  1
  H  H6  1  0.38532300  0.91392100  0.22665200  1
  H  H7  1  0.61467700  0.41392100  0.77334800  1
  H  H8  1  0.39738900  0.18127100  0.50463600  1
  H  H9  1  0.60261100  0.68127100  0.49536400  1
  H  H10  1  0.39738900  0.68127100  0.99536400  1
  H  H11  1  0.60261100  0.18127100  0.00463600  1
  H  H12  1  0.53964200  0.16399600  0.44637600  1
  H  H13  1  0.46035800  0.66399600  0.55362400  1
  H  H14  1  0.53964200  0.66399600  0.05362400  1
  H  H15  1  0.46035800  0.16399600  0.94637600  1
  H  H16  1  0.19706500  0.25792400  0.31397700  1
  H  H17  1  0.80293500  0.75792400  0.68602300  1
  H  H18  1  0.19706500  0.75792400  0.18602300  1
  H  H19  1  0.80293500  0.25792400  0.81397700  1
  H  H20  1  0.23175300  0.36577200  0.35872300  1
  H  H21  1  0.76824700  0.86577200  0.64127700  1
  H  H22  1  0.23175300  0.86577200  0.14127700  1
  H  H23  1  0.76824700  0.36577200  0.85872300  1
  H  H24  1  0.96386800  0.14837400  0.52113000  1
  H  H25  1  0.03613200  0.64837400  0.47887000  1
  H  H26  1  0.96386800  0.64837400  0.97887000  1
  H  H27  1  0.03613200  0.14837400  0.02113000  1
  H  H28  1  0.91660700  0.18411000  0.44990300  1
  H  H29  1  0.08339300  0.68411000  0.55009700  1
  H  H30  1  0.91660700  0.68411000  0.05009700  1
  H  H31  1  0.08339300  0.18411000  0.94990300  1
  H  H32  1  0.84341800  0.39539100  0.22781100  1
  H  H33  1  0.15658200  0.89539100  0.77218900  1
  H  H34  1  0.84341800  0.89539100  0.27218900  1
  H  H35  1  0.15658200  0.39539100  0.72781100  1
  H  H36  1  0.00728900  0.40585700  0.28214200  1
  H  H37  1  0.99271100  0.90585700  0.71785800  1
  H  H38  1  0.00728900  0.90585700  0.21785800  1
  H  H39  1  0.99271100  0.40585700  0.78214200  1
  H  H40  1  0.30237100  0.37692100  0.46791100  1
  H  H41  1  0.69762900  0.87692100  0.53208900  1
  H  H42  1  0.30237100  0.87692100  0.03208900  1
  H  H43  1  0.69762900  0.37692100  0.96791100  1
  H  H44  1  0.26382400  0.49457600  0.42908300  1
  H  H45  1  0.73617600  0.99457600  0.57091700  1
  H  H46  1  0.26382400  0.99457600  0.07091700  1
  H  H47  1  0.73617600  0.49457600  0.92908300  1
  H  H48  1  0.73434100  0.82148900  0.07167600  1
  H  H49  1  0.26565900  0.32148900  0.92832400  1
  H  H50  1  0.73434100  0.32148900  0.42832400  1
  H  H51  1  0.26565900  0.82148900  0.57167600  1
  H  H52  1  0.72587800  0.73933600  0.13371000  1
  H  H53  1  0.27412200  0.23933600  0.86629000  1
  H  H54  1  0.72587800  0.23933600  0.36629000  1
  H  H55  1  0.27412200  0.73933600  0.63371000  1
  S  S0  1  0.68859300  0.88562400  0.39656200  1
  S  S1  1  0.31140700  0.38562400  0.60343800  1
  S  S2  1  0.68859300  0.38562400  0.10343800  1
  S  S3  1  0.31140700  0.88562400  0.89656200  1
  S  S4  1  0.19408100  0.70362300  0.34987100  1
  S  S5  1  0.80591900  0.20362300  0.65012900  1
  S  S6  1  0.19408100  0.20362300  0.15012900  1
  S  S7  1  0.80591900  0.70362300  0.84987100  1
  O  O0  1  0.18161500  0.10094500  0.35464300  1
  O  O1  1  0.81838500  0.60094500  0.64535700  1
  O  O2  1  0.18161500  0.60094500  0.14535700  1
  O  O3  1  0.81838500  0.10094500  0.85464300  1
  O  O4  1  0.19929300  0.90747100  0.48980300  1
  O  O5  1  0.80070700  0.40747100  0.51019700  1
  O  O6  1  0.19929300  0.40747100  0.01019700  1
  O  O7  1  0.80070700  0.90747100  0.98980300  1
  O  O8  1  0.70395700  0.54966600  0.37636200  1
  O  O9  1  0.29604300  0.04966600  0.62363800  1
  O  O10  1  0.70395700  0.04966600  0.12363800  1
  O  O11  1  0.29604300  0.54966600  0.87636200  1
  O  O12  1  0.70382100  0.67623000  0.21975800  1
  O  O13  1  0.29617900  0.17623000  0.78024200  1
  O  O14  1  0.70382100  0.17623000  0.28024200  1
  O  O15  1  0.29617900  0.67623000  0.71975800  1
  O  O16  1  0.51434000  0.95789000  0.37916200  1
  O  O17  1  0.48566000  0.45789000  0.62083800  1
  O  O18  1  0.51434000  0.45789000  0.12083800  1
  O  O19  1  0.48566000  0.95789000  0.87916200  1
  O  O20  1  0.73505000  0.81165500  0.33983800  1
  O  O21  1  0.26495000  0.31165500  0.66016200  1
  O  O22  1  0.73505000  0.31165500  0.16016200  1
  O  O23  1  0.26495000  0.81165500  0.83983800  1
  O  O24  1  0.65094400  0.81438500  0.45273700  1
  O  O25  1  0.34905600  0.31438500  0.54726300  1
  O  O26  1  0.65094400  0.31438500  0.04726300  1
  O  O27  1  0.34905600  0.81438500  0.95273700  1
  O  O28  1  0.85184100  0.96744500  0.40715500  1
  O  O29  1  0.14815900  0.46744500  0.59284500  1
  O  O30  1  0.85184100  0.46744500  0.09284500  1
  O  O31  1  0.14815900  0.96744500  0.90715500  1
  O  O32  1  0.38310500  0.68317600  0.31800000  1
  O  O33  1  0.61689500  0.18317600  0.68200000  1
  O  O34  1  0.38310500  0.18317600  0.18200000  1
  O  O35  1  0.61689500  0.68317600  0.81800000  1
  O  O36  1  0.03873100  0.65966500  0.30691600  1
  O  O37  1  0.96126900  0.15966500  0.69308400  1
  O  O38  1  0.03873100  0.15966500  0.19308400  1
  O  O39  1  0.96126900  0.65966500  0.80691600  1
  O  O40  1  0.18635500  0.64609500  0.41191300  1
  O  O41  1  0.81364500  0.14609500  0.58808700  1
  O  O42  1  0.18635500  0.14609500  0.08808700  1
  O  O43  1  0.81364500  0.64609500  0.91191300  1
  O  O44  1  0.16780600  0.83305400  0.35640900  1
  O  O45  1  0.83219400  0.33305400  0.64359100  1
  O  O46  1  0.16780600  0.33305400  0.14359100  1
  O  O47  1  0.83219400  0.83305400  0.85640900  1
  O  O48  1  0.48491200  0.46755400  0.25429500  1
  O  O49  1  0.51508800  0.96755400  0.74570500  1
  O  O50  1  0.48491200  0.96755400  0.24570500  1
  O  O51  1  0.51508800  0.46755400  0.75429500  1
  O  O52  1  0.43222500  0.12659200  0.47036600  1
  O  O53  1  0.56777500  0.62659200  0.52963400  1
  O  O54  1  0.43222500  0.62659200  0.02963400  1
  O  O55  1  0.56777500  0.12659200  0.97036600  1
  O  O56  1  0.20413800  0.34365100  0.31272500  1
  O  O57  1  0.79586200  0.84365100  0.68727500  1
  O  O58  1  0.20413800  0.84365100  0.18727500  1
  O  O59  1  0.79586200  0.34365100  0.81272500  1
  O  O60  1  0.01936300  0.14831600  0.47770100  1
  O  O61  1  0.98063700  0.64831600  0.52229900  1
  O  O62  1  0.01936300  0.64831600  0.02229900  1
  O  O63  1  0.98063700  0.14831600  0.97770100  1
  O  O64  1  0.88991400  0.44443100  0.26306200  1
  O  O65  1  0.11008600  0.94443100  0.73693800  1
  O  O66  1  0.88991400  0.94443100  0.23693800  1
  O  O67  1  0.11008600  0.44443100  0.76306200  1
  O  O68  1  0.29245900  0.41071700  0.42537900  1
  O  O69  1  0.70754100  0.91071700  0.57462100  1
  O  O70  1  0.29245900  0.91071700  0.07462100  1
  O  O71  1  0.70754100  0.41071700  0.92537900  1
  O  O72  1  0.73418700  0.74061900  0.08721400  1
  O  O73  1  0.26581300  0.24061900  0.91278600  1
  O  O74  1  0.73418700  0.24061900  0.41278600  1
  O  O75  1  0.26581300  0.74061900  0.58721400  1
loop_
_geom_bond_atom_site_label_1
_geom_bond_atom_site_label_2
_geom_bond_distance
_geom_bond_site_symmetry_2
H0 O48 0.988135 1_555
H1 O49 0.988135 1_555
H2 O50 0.988135 1_555
H3 O51 0.988135 1_555
H4 O48 1.006380 1_555
H5 O49 1.006380 1_555
H6 O50 1.006380 1_555
H7 O51 1.006380 1_555
H8 O52 0.986113 1_555
H9 O53 0.986113 1_555
H10 O54 0.986113 1_556
H11 O55 0.986113 1_554
H12 O52 0.995621 1_555
H13 O53 0.995621 1_555
H14 O54 0.995621 1_555
H15 O55 0.995621 1_555
H16 O56 0.982903 1_555
H17 O57 0.982903 1_555
H18 O58 0.982903 1_555
H19 O59 0.982903 1_555
H20 O56 1.020833 1_555
H20 O68 1.555001 1_555
H21 O57 1.020833 1_555
H21 O69 1.555001 1_555
H22 O58 1.020833 1_555
H22 O70 1.555001 1_555
H23 O59 1.020833 1_555
H23 O71 1.555001 1_555
H24 O60 0.993260 1_655
H25 O61 0.993260 1_455
H26 O62 0.993260 1_656
H27 O63 0.993260 1_454
H28 O60 1.008327 1_655
H28 O74 1.619564 1_555
H29 O61 1.008327 1_455
H29 O75 1.619564 1_555
H30 O62 1.008327 1_655
H30 O72 1.619564 1_555
H31 O63 1.008327 1_455
H31 O73 1.619564 1_555
H32 O64 0.985637 1_555
H33 O65 0.985637 1_555
H34 O66 0.985637 1_555
H35 O67 0.985637 1_555
H36 O64 1.007901 1_455
H36 O56 1.666282 1_555
H37 O65 1.007901 1_655
H37 O57 1.666282 1_555
H38 O66 1.007901 1_455
H38 O58 1.666282 1_555
H39 O67 1.007901 1_655
H39 O59 1.666282 1_555
H40 O68 0.979454 1_555
H41 O69 0.979454 1_555
H42 O70 0.979454 1_555
H43 O71 0.979454 1_555
H44 O68 0.983269 1_555
H45 O69 0.983269 1_555
H46 O70 0.983269 1_555
H47 O71 0.983269 1_555
H48 O72 0.982045 1_555
H49 O73 0.982045 1_555
H50 O74 0.982045 1_555
H51 O75 0.982045 1_555
H52 O72 0.982609 1_555
H53 O73 0.982609 1_555
H54 O74 0.982609 1_555
H55 O75 0.982609 1_555
O0 U0 1.810841 1_555
O1 U1 1.810841 1_555
O2 U2 1.810841 1_555
O3 U3 1.810841 1_555
O4 U0 1.803180 1_565
O5 U1 1.803180 1_555
O6 U2 1.803180 1_555
O7 U3 1.803180 1_565
O8 U4 1.795726 1_555
O9 U5 1.795726 1_555
O10 U6 1.795726 1_555
O11 U7 1.795726 1_555
O12 U4 1.811576 1_555
O13 U5 1.811576 1_555
O14 U6 1.811576 1_555
O15 U7 1.811576 1_555
O16 S0 1.507064 1_555
O16 U0 2.446379 1_565
O17 S1 1.507064 1_555
O17 U1 2.446379 1_555
O18 S2 1.507064 1_555
O18 U2 2.446379 1_555
O19 S3 1.507064 1_555
O19 U3 2.446379 1_565
O20 S0 1.500656 1_555
O20 U4 2.452783 1_555
O21 S1 1.500656 1_555
O21 U5 2.452783 1_555
O22 S2 1.500656 1_555
O22 U6 2.452783 1_555
O23 S3 1.500656 1_555
O23 U7 2.452783 1_555
O24 S0 1.461852 1_555
O25 S1 1.461852 1_555
O26 S2 1.461852 1_555
O27 S3 1.461852 1_555
O28 S0 1.483827 1_555
O28 U0 2.397378 1_665
O29 S1 1.483827 1_555
O29 U1 2.397378 1_455
O30 S2 1.483827 1_555
O30 U2 2.397378 1_655
O31 S3 1.483827 1_555
O31 U3 2.397378 1_465
O32 S4 1.488491 1_555
O32 U4 2.388190 1_555
O33 S5 1.488491 1_555
O33 U5 2.388190 1_555
O34 S6 1.488491 1_555
O34 U6 2.388190 1_555
O35 S7 1.488491 1_555
O35 U7 2.388190 1_555
O36 S4 1.492807 1_555
O36 U4 2.394580 1_455
O37 S5 1.492807 1_555
O37 U5 2.394580 1_655
O38 S6 1.492807 1_555
O38 U6 2.394580 1_455
O39 S7 1.492807 1_555
O39 U7 2.394580 1_655
O40 S4 1.466069 1_555
O41 S5 1.466069 1_555
O42 S6 1.466069 1_555
O43 S7 1.466069 1_555
O44 S4 1.499075 1_555
O44 U0 2.352597 1_565
O45 S5 1.499075 1_555
O45 U1 2.352597 1_555
O46 S6 1.499075 1_555
O46 U2 2.352597 1_555
O47 S7 1.499075 1_555
O47 U3 2.352597 1_565
O48 U4 2.424430 1_555
O49 U5 2.424430 1_565
O50 U6 2.424430 1_565
O51 U7 2.424430 1_555
O52 U0 2.439777 1_555
O53 U1 2.439777 1_555
O54 U2 2.439777 1_555
O55 U3 2.439777 1_555
O60 U0 2.394648 1_555
O61 U1 2.394648 1_555
O62 U2 2.394648 1_555
O63 U3 2.394648 1_555
O64 U4 2.436218 1_555
O65 U5 2.436218 1_565
O66 U6 2.436218 1_565
O67 U7 2.436218 1_555
