# generated using pymatgen
data_Cr2(SO4)3
_symmetry_space_group_name_H-M   'P 1'
_cell_length_a   8.62799900
_cell_length_b   8.27805600
_cell_length_c   14.28180950
_cell_angle_alpha   55.20919151
_cell_angle_beta   90.00000000
_cell_angle_gamma   90.00000000
_symmetry_Int_Tables_number   1
_chemical_formula_structural   Cr2(SO4)3
_chemical_formula_sum   'Cr8 S12 O48'
_cell_volume   837.70705880
_cell_formula_units_Z   4
loop_
 _symmetry_equiv_pos_site_id
 _symmetry_equiv_pos_as_xyz
  1  'x, y, z'
loop_
 _atom_site_type_symbol
 _atom_site_label
 _atom_site_symmetry_multiplicity
 _atom_site_fract_x
 _atom_site_fract_y
 _atom_site_fract_z
 _atom_site_occupancy
  Cr  Cr0  1  0.96965100  0.36310200  0.88818300  1
  Cr  Cr1  1  0.46965100  0.63689800  0.61181700  1
  Cr  Cr2  1  0.03304000  0.86767700  0.38464000  1
  Cr  Cr3  1  0.53304000  0.13232300  0.11536000  1
  Cr  Cr4  1  0.46696000  0.86767700  0.88464000  1
  Cr  Cr5  1  0.96696000  0.13232300  0.61536000  1
  Cr  Cr6  1  0.53034900  0.36310200  0.38818300  1
  Cr  Cr7  1  0.03034900  0.63689800  0.11181700  1
  S  S0  1  0.75242600  0.54715300  0.49247000  1
  S  S1  1  0.61982700  0.25803000  0.84905500  1
  S  S2  1  0.88690000  0.96968400  0.14543800  1
  S  S3  1  0.11982700  0.74197000  0.65094500  1
  S  S4  1  0.38690000  0.03031600  0.35456200  1
  S  S5  1  0.25242600  0.45284700  0.00753000  1
  S  S6  1  0.74757400  0.54715300  0.99247000  1
  S  S7  1  0.61310000  0.96968400  0.64543800  1
  S  S8  1  0.88017300  0.25803000  0.34905500  1
  S  S9  1  0.11310000  0.03031600  0.85456200  1
  S  S10  1  0.38017300  0.74197000  0.15094500  1
  S  S11  1  0.24757400  0.45284700  0.50753000  1
  O  O0  1  0.12867400  0.60673300  0.44715800  1
  O  O1  1  0.11372900  0.15531400  0.89859300  1
  O  O2  1  0.32201300  0.45432500  0.60111900  1
  O  O3  1  0.42572900  0.87264600  0.18604600  1
  O  O4  1  0.63980300  0.51358700  0.58000600  1
  O  O5  1  0.78987700  0.28837900  0.83100700  1
  O  O6  1  0.58421100  0.16145500  0.97075500  1
  O  O7  1  0.99675300  0.88360900  0.24174500  1
  O  O8  1  0.73010600  0.97709000  0.18503600  1
  O  O9  1  0.82365300  0.74339600  0.44139800  1
  O  O10  1  0.53295100  0.44624100  0.78015400  1
  O  O11  1  0.03295100  0.55375900  0.71984600  1
  O  O12  1  0.93764600  0.17349500  0.05574600  1
  O  O13  1  0.43764600  0.82650500  0.44425400  1
  O  O14  1  0.32365300  0.25660400  0.05860200  1
  O  O15  1  0.23010600  0.02291000  0.31496400  1
  O  O16  1  0.08421100  0.83854500  0.52924500  1
  O  O17  1  0.49675300  0.11639100  0.25825500  1
  O  O18  1  0.28987700  0.71162100  0.66899300  1
  O  O19  1  0.13980300  0.48641300  0.91999400  1
  O  O20  1  0.82201300  0.54567500  0.89888100  1
  O  O21  1  0.61372900  0.84468600  0.60140700  1
  O  O22  1  0.92572900  0.12735400  0.31395400  1
  O  O23  1  0.62867400  0.39326700  0.05284200  1
  O  O24  1  0.37132600  0.60673300  0.94715800  1
  O  O25  1  0.07427100  0.87264600  0.68604600  1
  O  O26  1  0.38627100  0.15531400  0.39859300  1
  O  O27  1  0.17798700  0.45432500  0.10111900  1
  O  O28  1  0.86019700  0.51358700  0.08000600  1
  O  O29  1  0.71012300  0.28837900  0.33100700  1
  O  O30  1  0.50324700  0.88360900  0.74174500  1
  O  O31  1  0.91578900  0.16145500  0.47075500  1
  O  O32  1  0.76989400  0.97709000  0.68503600  1
  O  O33  1  0.67634700  0.74339600  0.94139800  1
  O  O34  1  0.56235400  0.17349500  0.55574600  1
  O  O35  1  0.06235400  0.82650500  0.94425400  1
  O  O36  1  0.96704900  0.44624100  0.28015400  1
  O  O37  1  0.46704900  0.55375900  0.21984600  1
  O  O38  1  0.17634700  0.25660400  0.55860200  1
  O  O39  1  0.26989400  0.02291000  0.81496400  1
  O  O40  1  0.00324700  0.11639100  0.75825500  1
  O  O41  1  0.41578900  0.83854500  0.02924500  1
  O  O42  1  0.21012300  0.71162100  0.16899300  1
  O  O43  1  0.36019700  0.48641300  0.41999400  1
  O  O44  1  0.57427100  0.12735400  0.81395400  1
  O  O45  1  0.67798700  0.54567500  0.39888100  1
  O  O46  1  0.88627100  0.84468600  0.10140700  1
  O  O47  1  0.87132600  0.39326700  0.55284200  1
loop_
_geom_bond_atom_site_label_1
_geom_bond_atom_site_label_2
_geom_bond_distance
_geom_bond_site_symmetry_2
Cr0 O19 1.983140 1_655
Cr0 O12 1.995087 1_556
Cr0 O5 2.007909 1_555
Cr0 O20 2.047841 1_555
Cr0 O1 2.057732 1_655
Cr0 O11 2.058919 1_655
Cr1 O4 1.983140 1_555
Cr1 O13 1.995087 1_555
Cr1 O18 2.007909 1_555
Cr1 O2 2.047841 1_555
Cr1 O21 2.057732 1_555
Cr1 O10 2.058919 1_555
Cr2 O0 1.985741 1_555
Cr2 O16 1.987429 1_555
Cr2 O7 1.993271 1_455
Cr2 O22 2.005200 1_465
Cr2 O9 2.006891 1_455
Cr2 O15 2.018229 1_565
Cr3 O23 1.985741 1_555
Cr3 O6 1.987429 1_554
Cr3 O17 1.993271 1_555
Cr3 O3 2.005200 1_545
Cr3 O14 2.006891 1_555
Cr3 O8 2.018229 1_545
Cr4 O24 1.985741 1_555
Cr4 O41 1.987429 1_556
Cr4 O30 1.993271 1_555
Cr4 O44 2.005200 1_565
Cr4 O33 2.006891 1_555
Cr4 O39 2.018229 1_565
Cr5 O47 1.985741 1_555
Cr5 O31 1.987429 1_555
Cr5 O40 1.993271 1_655
Cr5 O25 2.005200 1_645
Cr5 O38 2.006891 1_655
Cr5 O32 2.018229 1_545
Cr6 O43 1.983140 1_555
Cr6 O34 1.995087 1_555
Cr6 O29 2.007909 1_555
Cr6 O45 2.047841 1_555
Cr6 O26 2.057732 1_555
Cr6 O37 2.058919 1_555
Cr7 O28 1.983140 1_455
Cr7 O35 1.995087 1_554
Cr7 O42 2.007909 1_555
Cr7 O27 2.047841 1_555
Cr7 O46 2.057732 1_455
Cr7 O36 2.058919 1_455
O0 S11 1.471456 1_555
O1 S9 1.486170 1_555
O2 S11 1.489249 1_555
O3 S10 1.481487 1_555
O4 S0 1.479172 1_555
O5 S1 1.486038 1_555
O6 S1 1.472704 1_555
O7 S2 1.476309 1_555
O8 S2 1.480968 1_555
O9 S0 1.482073 1_555
O10 S1 1.485945 1_555
O11 S3 1.485945 1_555
O12 S2 1.487549 1_545
O13 S4 1.487549 1_565
O14 S5 1.482073 1_555
O15 S4 1.480968 1_555
O16 S3 1.472704 1_555
O17 S4 1.476309 1_555
O18 S3 1.486038 1_555
O19 S5 1.479172 1_556
O20 S6 1.489249 1_555
O21 S7 1.486170 1_555
O22 S8 1.481487 1_555
O23 S6 1.471456 1_554
O24 S5 1.471456 1_556
O25 S3 1.481487 1_555
O26 S4 1.486170 1_555
O27 S5 1.489249 1_555
O28 S6 1.479172 1_554
O29 S8 1.486038 1_555
O30 S7 1.476309 1_555
O31 S8 1.472704 1_555
O32 S7 1.480968 1_555
O33 S6 1.482073 1_555
O34 S7 1.487549 1_545
O35 S9 1.487549 1_565
O36 S8 1.485945 1_555
O37 S10 1.485945 1_555
O38 S11 1.482073 1_555
O39 S9 1.480968 1_555
O40 S9 1.476309 1_555
O41 S10 1.472704 1_555
O42 S10 1.486038 1_555
O43 S11 1.479172 1_555
O44 S1 1.481487 1_555
O45 S0 1.489249 1_555
O46 S2 1.486170 1_555
O47 S0 1.471456 1_555
