# generated using pymatgen
data_Ti2N2O
_symmetry_space_group_name_H-M   'P 1'
_cell_length_a   8.21563948
_cell_length_b   8.21920047
_cell_length_c   8.22801003
_cell_angle_alpha   109.59115909
_cell_angle_beta   109.43630073
_cell_angle_gamma   109.31135288
_symmetry_Int_Tables_number   1
_chemical_formula_structural   Ti2N2O
_chemical_formula_sum   'Ti16 N16 O8'
_cell_volume   428.09725732
_cell_formula_units_Z   8
loop_
 _symmetry_equiv_pos_site_id
 _symmetry_equiv_pos_as_xyz
  1  'x, y, z'
loop_
 _atom_site_type_symbol
 _atom_site_label
 _atom_site_symmetry_multiplicity
 _atom_site_fract_x
 _atom_site_fract_y
 _atom_site_fract_z
 _atom_site_occupancy
  Ti  Ti0  1  0.78507100  0.24703100  0.04243300  1
  Ti  Ti1  1  0.99048700  0.98981300  0.00040500  1
  Ti  Ti2  1  0.48642900  0.99187800  0.49869600  1
  Ti  Ti3  1  0.49082200  0.48489300  0.98840000  1
  Ti  Ti4  1  0.54112100  0.29141900  0.24290900  1
  Ti  Ti5  1  0.95358500  0.20354100  0.75126200  1
  Ti  Ti6  1  0.75112200  0.45148200  0.71419900  1
  Ti  Ti7  1  0.75769700  0.97173000  0.20400600  1
  Ti  Ti8  1  0.29193200  0.25633800  0.54957300  1
  Ti  Ti9  1  0.71000700  0.75347100  0.46279800  1
  Ti  Ti10  1  0.24400900  0.03903000  0.78548100  1
  Ti  Ti11  1  0.26686100  0.54965900  0.29712100  1
  Ti  Ti12  1  0.01612100  0.50502900  0.51212100  1
  Ti  Ti13  1  0.04485800  0.79567900  0.24993500  1
  Ti  Ti14  1  0.45655100  0.70579300  0.74568300  1
  Ti  Ti15  1  0.19697200  0.73717000  0.95153200  1
  N  N0  1  0.76403700  0.22481000  0.27458100  1
  N  N1  1  0.45224000  0.49062100  0.22746900  1
  N  N2  1  0.03836000  0.04863900  0.27319800  1
  N  N3  1  0.72653000  0.23667400  0.77389300  1
  N  N4  1  0.95898900  0.94938300  0.72393800  1
  N  N5  1  0.22456700  0.45083100  0.48780000  1
  N  N6  1  0.54035900  0.26628400  0.99036000  1
  N  N7  1  0.27605600  0.76643700  0.22491900  1
  N  N8  1  0.95190200  0.72663100  0.95853200  1
  N  N9  1  0.54962600  0.50718800  0.77587100  1
  N  N10  1  0.51378700  0.77925000  0.55192500  1
  N  N11  1  0.22421000  0.27896600  0.76757000  1
  N  N12  1  0.01135600  0.45947800  0.73384400  1
  N  N13  1  0.72790500  0.96240200  0.95039100  1
  N  N14  1  0.26618700  0.99157700  0.54018500  1
  N  N15  1  0.23363300  0.77411800  0.72735900  1
  O  O0  1  0.73587700  0.00710300  0.45969100  1
  O  O1  1  0.27817400  0.04692300  0.05454500  1
  O  O2  1  0.98851200  0.54089600  0.26292000  1
  O  O3  1  0.77633900  0.72960600  0.23934500  1
  O  O4  1  0.49369000  0.22595600  0.44856500  1
  O  O5  1  0.04819800  0.27685000  0.03967600  1
  O  O6  1  0.77112000  0.54665000  0.50513900  1
  O  O7  1  0.46470600  0.73877000  0.01173100  1
loop_
_geom_bond_atom_site_label_1
_geom_bond_atom_site_label_2
_geom_bond_distance
_geom_bond_site_symmetry_2
N0 Ti7 1.940353 1_545
N0 Ti0 2.035808 1_555
N0 Ti4 2.040308 1_555
N0 Ti12 2.132201 1_655
N1 Ti11 1.940784 1_555
N1 Ti4 2.024486 1_555
N1 Ti3 2.082005 1_554
N1 Ti9 2.083523 1_555
N2 Ti7 1.990352 1_445
N2 Ti1 1.996340 1_445
N2 Ti13 2.043428 1_545
N2 Ti8 2.077751 1_555
N3 Ti6 1.952147 1_555
N3 Ti5 2.030201 1_555
N3 Ti0 2.064030 1_556
N3 Ti2 2.100870 1_545
N4 Ti9 1.992496 1_555
N4 Ti10 2.025343 1_665
N4 Ti5 2.041903 1_565
N4 Ti1 2.096765 1_556
N5 Ti12 1.960625 1_555
N5 Ti8 2.015668 1_555
N5 Ti14 2.052146 1_555
N5 Ti11 2.067071 1_555
N6 Ti3 1.973086 1_555
N6 Ti0 1.983230 1_556
N6 Ti4 2.015764 1_556
N6 Ti10 2.099405 1_555
N7 Ti2 1.996641 1_555
N7 Ti15 2.025103 1_554
N7 Ti11 2.045464 1_555
N7 Ti13 2.058389 1_555
N8 Ti1 1.967836 1_556
N8 Ti15 2.007435 1_655
N8 Ti6 2.038078 1_555
N8 Ti13 2.058232 1_656
N9 Ti3 2.010839 1_555
N9 Ti6 2.027829 1_555
N9 Ti8 2.028571 1_555
N9 Ti14 2.069335 1_555
N10 Ti2 2.001033 1_555
N10 Ti11 2.014007 1_555
N10 Ti14 2.020860 1_555
N10 Ti9 2.022361 1_555
N11 Ti3 1.949582 1_555
N11 Ti8 2.017507 1_555
N11 Ti5 2.044425 1_455
N11 Ti10 2.080480 1_555
N12 Ti15 1.970192 1_555
N12 Ti12 1.991430 1_555
N12 Ti5 2.063496 1_455
N12 Ti6 2.066735 1_455
N13 Ti1 1.974717 1_556
N13 Ti7 1.990146 1_556
N13 Ti0 2.028665 1_566
N13 Ti14 2.064982 1_555
N14 Ti2 1.949169 1_555
N14 Ti10 2.005665 1_565
N14 Ti13 2.048695 1_555
N14 Ti8 2.087628 1_565
N15 Ti12 1.968346 1_555
N15 Ti10 2.031920 1_565
N15 Ti14 2.060445 1_555
N15 Ti15 2.066394 1_555
O0 Ti9 2.034185 1_545
O0 Ti5 2.048924 1_555
O0 Ti7 2.101864 1_545
O0 Ti2 2.147936 1_545
O1 Ti4 1.979654 1_555
O1 Ti1 2.104839 1_445
O1 Ti10 2.112407 1_554
O1 Ti15 2.167578 1_544
O2 Ti13 2.037843 1_655
O2 Ti0 2.071730 1_555
O2 Ti12 2.117232 1_655
O2 Ti11 2.182451 1_655
O3 Ti9 2.052188 1_555
O3 Ti13 2.053570 1_655
O3 Ti7 2.151364 1_555
O3 Ti3 2.163852 1_554
O4 Ti4 2.053147 1_555
O4 Ti6 2.073604 1_555
O4 Ti2 2.085155 1_545
O4 Ti8 2.133548 1_555
O5 Ti5 2.025452 1_454
O5 Ti11 2.088082 1_555
O5 Ti0 2.102311 1_455
O5 Ti1 2.131219 1_445
O6 Ti9 2.026911 1_555
O6 Ti4 2.063049 1_555
O6 Ti12 2.136235 1_655
O6 Ti6 2.145494 1_555
O7 Ti15 2.082113 1_554
O7 Ti7 2.085440 1_555
O7 Ti14 2.088627 1_554
O7 Ti3 2.119426 1_554
