# generated using pymatgen
data_LiMn4(PO4)3
_symmetry_space_group_name_H-M   'P 1'
_cell_length_a   8.56627800
_cell_length_b   10.15987700
_cell_length_c   13.57957400
_cell_angle_alpha   90.00000000
_cell_angle_beta   90.00000000
_cell_angle_gamma   90.00000000
_symmetry_Int_Tables_number   1
_chemical_formula_structural   LiMn4(PO4)3
_chemical_formula_sum   'Li4 Mn16 P12 O48'
_cell_volume   1181.86197687
_cell_formula_units_Z   4
loop_
 _symmetry_equiv_pos_site_id
 _symmetry_equiv_pos_as_xyz
  1  'x, y, z'
loop_
 _atom_site_type_symbol
 _atom_site_label
 _atom_site_symmetry_multiplicity
 _atom_site_fract_x
 _atom_site_fract_y
 _atom_site_fract_z
 _atom_site_occupancy
  Li  Li0  1  0.75000000  0.29565500  0.25000000  1
  Li  Li1  1  0.75000000  0.79565500  0.25000000  1
  Li  Li2  1  0.25000000  0.70434500  0.75000000  1
  Li  Li3  1  0.25000000  0.20434500  0.75000000  1
  Mn  Mn0  1  0.09501800  0.81004300  0.04488200  1
  Mn  Mn1  1  0.40498200  0.31004300  0.04488200  1
  Mn  Mn2  1  0.41826300  0.00376500  0.14784200  1
  Mn  Mn3  1  0.08173700  0.50376500  0.14784200  1
  Mn  Mn4  1  0.41826300  0.50376500  0.35215800  1
  Mn  Mn5  1  0.08173700  0.00376500  0.35215800  1
  Mn  Mn6  1  0.09501800  0.31004300  0.45511800  1
  Mn  Mn7  1  0.40498200  0.81004300  0.45511800  1
  Mn  Mn8  1  0.59501800  0.18995700  0.54488200  1
  Mn  Mn9  1  0.90498200  0.68995700  0.54488200  1
  Mn  Mn10  1  0.58173700  0.49623500  0.64784200  1
  Mn  Mn11  1  0.91826300  0.99623500  0.64784200  1
  Mn  Mn12  1  0.58173700  0.99623500  0.85215800  1
  Mn  Mn13  1  0.91826300  0.49623500  0.85215800  1
  Mn  Mn14  1  0.59501800  0.68995700  0.95511800  1
  Mn  Mn15  1  0.90498200  0.18995700  0.95511800  1
  P  P0  1  0.75249100  0.92827600  0.07495900  1
  P  P1  1  0.74750900  0.42827600  0.07495900  1
  P  P2  1  0.25000000  0.74968300  0.25000000  1
  P  P3  1  0.25000000  0.24968300  0.25000000  1
  P  P4  1  0.74750900  0.92827600  0.42504100  1
  P  P5  1  0.75249100  0.42827600  0.42504100  1
  P  P6  1  0.24750900  0.57172400  0.57495900  1
  P  P7  1  0.25249100  0.07172400  0.57495900  1
  P  P8  1  0.75000000  0.75031700  0.75000000  1
  P  P9  1  0.75000000  0.25031700  0.75000000  1
  P  P10  1  0.24750900  0.07172400  0.92504100  1
  P  P11  1  0.25249100  0.57172400  0.92504100  1
  O  O0  1  0.15164000  0.60822000  0.01927600  1
  O  O1  1  0.34836000  0.10822000  0.01927600  1
  O  O2  1  0.66491600  0.56003900  0.05851400  1
  O  O3  1  0.83508400  0.06003900  0.05851400  1
  O  O4  1  0.86987200  0.81581600  0.09707000  1
  O  O5  1  0.63012800  0.31581600  0.09707000  1
  O  O6  1  0.63842500  0.93053900  0.16368100  1
  O  O7  1  0.86157500  0.43053900  0.16368100  1
  O  O8  1  0.26408000  0.84385600  0.15800900  1
  O  O9  1  0.23592000  0.34385600  0.15800900  1
  O  O10  1  0.10223300  0.66583600  0.23809900  1
  O  O11  1  0.39776700  0.16583600  0.23809900  1
  O  O12  1  0.10223300  0.16583600  0.26190100  1
  O  O13  1  0.39776700  0.66583600  0.26190100  1
  O  O14  1  0.26408000  0.34385600  0.34199100  1
  O  O15  1  0.23592000  0.84385600  0.34199100  1
  O  O16  1  0.86157500  0.93053900  0.33631900  1
  O  O17  1  0.63842500  0.43053900  0.33631900  1
  O  O18  1  0.86987200  0.31581600  0.40293000  1
  O  O19  1  0.63012800  0.81581600  0.40293000  1
  O  O20  1  0.83508400  0.56003900  0.44148600  1
  O  O21  1  0.66491600  0.06003900  0.44148600  1
  O  O22  1  0.34836000  0.60822000  0.48072400  1
  O  O23  1  0.15164000  0.10822000  0.48072400  1
  O  O24  1  0.65164000  0.39178000  0.51927600  1
  O  O25  1  0.84836000  0.89178000  0.51927600  1
  O  O26  1  0.16491600  0.43996100  0.55851400  1
  O  O27  1  0.33508400  0.93996100  0.55851400  1
  O  O28  1  0.13012800  0.68418400  0.59707000  1
  O  O29  1  0.36987200  0.18418400  0.59707000  1
  O  O30  1  0.13842500  0.06946100  0.66368100  1
  O  O31  1  0.36157500  0.56946100  0.66368100  1
  O  O32  1  0.73592000  0.65614400  0.65800900  1
  O  O33  1  0.76408000  0.15614400  0.65800900  1
  O  O34  1  0.60223300  0.33416400  0.73809900  1
  O  O35  1  0.89776700  0.83416400  0.73809900  1
  O  O36  1  0.60223300  0.83416400  0.76190100  1
  O  O37  1  0.89776700  0.33416400  0.76190100  1
  O  O38  1  0.73592000  0.15614400  0.84199100  1
  O  O39  1  0.76408000  0.65614400  0.84199100  1
  O  O40  1  0.13842500  0.56946100  0.83631900  1
  O  O41  1  0.36157500  0.06946100  0.83631900  1
  O  O42  1  0.13012800  0.18418400  0.90293000  1
  O  O43  1  0.36987200  0.68418400  0.90293000  1
  O  O44  1  0.16491600  0.93996100  0.94148600  1
  O  O45  1  0.33508400  0.43996100  0.94148600  1
  O  O46  1  0.65164000  0.89178000  0.98072400  1
  O  O47  1  0.84836000  0.39178000  0.98072400  1
loop_
_geom_bond_atom_site_label_1
_geom_bond_atom_site_label_2
_geom_bond_distance
_geom_bond_site_symmetry_2
Li0 O7 2.040962 1_555
Li0 O17 2.040962 1_555
Li0 O5 2.325763 1_555
Li0 O18 2.325763 1_555
Li1 O16 2.040962 1_555
Li1 O6 2.040962 1_555
Li1 O19 2.325763 1_555
Li1 O4 2.325763 1_555
Li2 O31 2.040962 1_555
Li2 O40 2.040962 1_555
Li2 O28 2.325763 1_555
Li2 O43 2.325763 1_555
Li3 O41 2.040962 1_555
Li3 O30 2.040962 1_555
Li3 O42 2.325763 1_555
Li3 O29 2.325763 1_555
Mn0 O44 2.017973 1_554
Mn0 O4 2.055584 1_455
Mn0 O0 2.135582 1_555
Mn0 O8 2.139008 1_555
Mn1 O45 2.017973 1_554
Mn1 O5 2.055584 1_555
Mn1 O1 2.135582 1_555
Mn1 O9 2.139008 1_555
Mn2 O6 2.038781 1_545
Mn2 O11 2.060197 1_555
Mn2 O8 2.098336 1_545
Mn2 O1 2.129059 1_555
Mn3 O7 2.038781 1_455
Mn3 O10 2.060197 1_555
Mn3 O9 2.098336 1_555
Mn3 O0 2.129059 1_555
Mn4 O17 2.038781 1_555
Mn4 O13 2.060197 1_555
Mn4 O14 2.098336 1_555
Mn4 O22 2.129059 1_555
Mn5 O16 2.038781 1_445
Mn5 O12 2.060197 1_555
Mn5 O15 2.098336 1_545
Mn5 O23 2.129059 1_555
Mn6 O26 2.017973 1_555
Mn6 O18 2.055584 1_455
Mn6 O23 2.135582 1_555
Mn6 O14 2.139008 1_555
Mn7 O27 2.017973 1_555
Mn7 O19 2.055584 1_555
Mn7 O22 2.135582 1_555
Mn7 O15 2.139008 1_555
Mn8 O21 2.017973 1_555
Mn8 O29 2.055584 1_555
Mn8 O24 2.135582 1_555
Mn8 O33 2.139008 1_555
Mn9 O20 2.017973 1_555
Mn9 O28 2.055584 1_655
Mn9 O25 2.135582 1_555
Mn9 O32 2.139008 1_555
Mn10 O31 2.038781 1_555
Mn10 O34 2.060197 1_555
Mn10 O32 2.098336 1_555
Mn10 O24 2.129059 1_555
Mn11 O30 2.038781 1_665
Mn11 O35 2.060197 1_555
Mn11 O33 2.098336 1_565
Mn11 O25 2.129059 1_555
Mn12 O41 2.038781 1_565
Mn12 O36 2.060197 1_555
Mn12 O38 2.098336 1_565
Mn12 O46 2.129059 1_555
Mn13 O40 2.038781 1_655
Mn13 O37 2.060197 1_555
Mn13 O39 2.098336 1_555
Mn13 O47 2.129059 1_555
Mn14 O2 2.017973 1_556
Mn14 O43 2.055584 1_555
Mn14 O46 2.135582 1_555
Mn14 O39 2.139008 1_555
Mn15 O3 2.017973 1_556
Mn15 O42 2.055584 1_655
Mn15 O47 2.135582 1_555
Mn15 O38 2.139008 1_555
O0 P11 1.587892 1_554
O1 P10 1.587892 1_554
O2 P1 1.530540 1_555
O3 P0 1.530540 1_545
O4 P0 1.551358 1_555
O5 P1 1.551358 1_555
O6 P0 1.551404 1_555
O7 P1 1.551404 1_555
O8 P2 1.578127 1_555
O9 P3 1.578127 1_555
O10 P2 1.534305 1_555
O11 P3 1.534305 1_555
O12 P3 1.534305 1_555
O13 P2 1.534305 1_555
O14 P3 1.578127 1_555
O15 P2 1.578127 1_555
O16 P4 1.551404 1_555
O17 P5 1.551404 1_555
O18 P5 1.551358 1_555
O19 P4 1.551358 1_555
O20 P5 1.530540 1_555
O21 P4 1.530540 1_545
O22 P6 1.587892 1_555
O23 P7 1.587892 1_555
O24 P5 1.587892 1_555
O25 P4 1.587892 1_555
O26 P6 1.530540 1_555
O27 P7 1.530540 1_565
O28 P6 1.551358 1_555
O29 P7 1.551358 1_555
O30 P7 1.551404 1_555
O31 P6 1.551404 1_555
O32 P8 1.578127 1_555
O33 P9 1.578127 1_555
O34 P9 1.534305 1_555
O35 P8 1.534305 1_555
O36 P8 1.534305 1_555
O37 P9 1.534305 1_555
O38 P9 1.578127 1_555
O39 P8 1.578127 1_555
O40 P11 1.551404 1_555
O41 P10 1.551404 1_555
O42 P10 1.551358 1_555
O43 P11 1.551358 1_555
O44 P10 1.530540 1_565
O45 P11 1.530540 1_555
O46 P0 1.587892 1_556
O47 P1 1.587892 1_556
