# generated using pymatgen
data_Li6FeCo9O20
_symmetry_space_group_name_H-M   'P 1'
_cell_length_a   4.98589700
_cell_length_b   7.66802271
_cell_length_c   9.81604499
_cell_angle_alpha   96.22932875
_cell_angle_beta   94.19154623
_cell_angle_gamma   108.06047194
_symmetry_Int_Tables_number   1
_chemical_formula_structural   Li6FeCo9O20
_chemical_formula_sum   'Li6 Fe1 Co9 O20'
_cell_volume   352.42070796
_cell_formula_units_Z   1
loop_
 _symmetry_equiv_pos_site_id
 _symmetry_equiv_pos_as_xyz
  1  'x, y, z'
loop_
 _atom_site_type_symbol
 _atom_site_label
 _atom_site_symmetry_multiplicity
 _atom_site_fract_x
 _atom_site_fract_y
 _atom_site_fract_z
 _atom_site_occupancy
  Li  Li0  1  0.59523200  0.94955700  0.24788500  1
  Li  Li1  1  0.40476800  0.05044300  0.75211500  1
  Li  Li2  1  0.80007700  0.34594300  0.24911700  1
  Li  Li3  1  0.60232200  0.44812900  0.75142400  1
  Li  Li4  1  0.39767800  0.55187100  0.24857600  1
  Li  Li5  1  0.19992300  0.65405700  0.75088300  1
  Fe  Fe0  1  0.00000000  0.00000000  0.50000000  1
  Co  Co0  1  0.20333000  0.90232100  0.00619900  1
  Co  Co1  1  0.59939400  0.19822000  0.49999500  1
  Co  Co2  1  0.79667000  0.09767900  0.99380100  1
  Co  Co3  1  0.40300100  0.30268500  0.00287100  1
  Co  Co4  1  0.19909400  0.39789600  0.50055300  1
  Co  Co5  1  0.80090600  0.60210400  0.49944700  1
  Co  Co6  1  0.00000000  0.50000000  0.00000000  1
  Co  Co7  1  0.40060600  0.80178000  0.50000500  1
  Co  Co8  1  0.59699900  0.69731500  0.99712900  1
  O  O0  1  0.87165800  0.91321700  0.09479500  1
  O  O1  1  0.33229700  0.98235200  0.39802200  1
  O  O2  1  0.66770300  0.01764800  0.60197800  1
  O  O3  1  0.48077000  0.86379500  0.89188800  1
  O  O4  1  0.12834200  0.08678300  0.90520500  1
  O  O5  1  0.31667900  0.21957800  0.60920700  1
  O  O6  1  0.51923000  0.13620500  0.10811200  1
  O  O7  1  0.88310000  0.17880900  0.39063500  1
  O  O8  1  0.50996300  0.37284400  0.39325900  1
  O  O9  1  0.68377500  0.27162900  0.89394100  1
  O  O10  1  0.88375700  0.41266600  0.60738700  1
  O  O11  1  0.11100200  0.33977200  0.10632800  1
  O  O12  1  0.67488400  0.51529700  0.10470700  1
  O  O13  1  0.11624300  0.58733400  0.39261300  1
  O  O14  1  0.49003700  0.62715600  0.60674100  1
  O  O15  1  0.32511600  0.48470300  0.89529300  1
  O  O16  1  0.11690000  0.82119100  0.60936500  1
  O  O17  1  0.88899800  0.66022800  0.89367200  1
  O  O18  1  0.31622500  0.72837100  0.10605900  1
  O  O19  1  0.68332100  0.78042200  0.39079300  1
loop_
_geom_bond_atom_site_label_1
_geom_bond_atom_site_label_2
_geom_bond_distance
_geom_bond_site_symmetry_2
Li0 O1 2.088116 1_555
Li0 O18 2.119310 1_555
Li0 O19 2.121485 1_555
Li0 O0 2.164580 1_555
Li0 O7 2.172732 1_565
Li0 O6 2.181936 1_565
Li1 O2 2.088116 1_555
Li1 O9 2.119310 1_555
Li1 O5 2.121485 1_555
Li1 O4 2.164580 1_555
Li1 O16 2.172732 1_545
Li1 O3 2.181936 1_545
Li2 O6 2.073723 1_555
Li2 O7 2.091597 1_555
Li2 O8 2.134866 1_555
Li2 O11 2.172269 1_655
Li2 O12 2.204124 1_555
Li2 O13 2.279382 1_655
Li3 O17 2.100440 1_555
Li3 O15 2.103093 1_555
Li3 O10 2.117816 1_555
Li3 O9 2.149964 1_555
Li3 O5 2.163183 1_555
Li3 O14 2.235703 1_555
Li4 O11 2.100440 1_555
Li4 O12 2.103093 1_555
Li4 O13 2.117816 1_555
Li4 O18 2.149964 1_555
Li4 O19 2.163183 1_555
Li4 O8 2.235703 1_555
Li5 O3 2.073723 1_555
Li5 O16 2.091597 1_555
Li5 O14 2.134866 1_555
Li5 O17 2.172269 1_455
Li5 O15 2.204124 1_555
Li5 O10 2.279382 1_455
Fe0 O16 2.023761 1_545
Fe0 O7 2.023761 1_455
Fe0 O1 2.029137 1_545
Fe0 O2 2.029137 1_455
Fe0 O5 2.046853 1_555
Fe0 O19 2.046853 1_445
Co0 O3 1.915245 1_554
Co0 O4 1.923879 1_564
Co0 O18 1.930147 1_555
Co0 O0 1.943731 1_455
Co0 O6 2.080092 1_565
Co0 O17 2.149519 1_454
Co1 O5 1.867871 1_555
Co1 O7 1.869025 1_555
Co1 O2 1.891746 1_555
Co1 O1 1.895821 1_545
Co1 O8 1.922471 1_555
Co1 O10 1.945552 1_555
Co2 O6 1.915245 1_556
Co2 O0 1.923879 1_546
Co2 O9 1.930147 1_555
Co2 O4 1.943731 1_655
Co2 O3 2.080092 1_545
Co2 O11 2.149519 1_656
Co3 O9 1.878840 1_554
Co3 O12 1.890161 1_555
Co3 O4 1.895562 1_554
Co3 O11 1.908387 1_555
Co3 O6 1.920946 1_555
Co3 O15 1.951899 1_554
Co4 O10 1.977413 1_455
Co4 O8 1.981882 1_555
Co4 O13 2.011331 1_555
Co4 O5 2.018168 1_555
Co4 O14 2.020232 1_555
Co4 O7 2.045894 1_455
Co5 O13 1.977413 1_655
Co5 O14 1.981882 1_555
Co5 O10 2.011331 1_555
Co5 O19 2.018168 1_555
Co5 O8 2.020232 1_555
Co5 O16 2.045894 1_655
Co6 O11 1.876341 1_555
Co6 O17 1.876341 1_454
Co6 O15 2.008247 1_554
Co6 O12 2.008247 1_455
Co6 O9 2.070929 1_454
Co6 O18 2.070929 1_555
Co7 O19 1.867871 1_555
Co7 O16 1.869025 1_555
Co7 O1 1.891746 1_555
Co7 O2 1.895821 1_565
Co7 O14 1.922471 1_555
Co7 O13 1.945552 1_555
Co8 O18 1.878840 1_556
Co8 O15 1.890161 1_555
Co8 O0 1.895562 1_556
Co8 O17 1.908387 1_555
Co8 O3 1.920946 1_555
Co8 O12 1.951899 1_556
