# generated using pymatgen
data_Li2Cr(CO3)3
_symmetry_space_group_name_H-M   'P 1'
_cell_length_a   6.01877394
_cell_length_b   6.01877394
_cell_length_c   9.58374200
_cell_angle_alpha   90.00000000
_cell_angle_beta   90.00000000
_cell_angle_gamma   107.21502262
_symmetry_Int_Tables_number   1
_chemical_formula_structural   Li2Cr(CO3)3
_chemical_formula_sum   'Li4 Cr2 C6 O18'
_cell_volume   331.62392310
_cell_formula_units_Z   2
loop_
 _symmetry_equiv_pos_site_id
 _symmetry_equiv_pos_as_xyz
  1  'x, y, z'
loop_
 _atom_site_type_symbol
 _atom_site_label
 _atom_site_symmetry_multiplicity
 _atom_site_fract_x
 _atom_site_fract_y
 _atom_site_fract_z
 _atom_site_occupancy
  Li  Li0  1  0.08284700  0.08284700  0.00000000  1
  Li  Li1  1  0.19265000  0.85203600  0.25000000  1
  Li  Li2  1  0.08284700  0.08284700  0.50000000  1
  Li  Li3  1  0.85203600  0.19265000  0.75000000  1
  Cr  Cr0  1  0.79871300  0.29549000  0.25000000  1
  Cr  Cr1  1  0.29549000  0.79871300  0.75000000  1
  C  C0  1  0.10801000  0.56944800  0.01917500  1
  C  C1  1  0.68961400  0.78490900  0.25000000  1
  C  C2  1  0.10801000  0.56944800  0.48082500  1
  C  C3  1  0.56944800  0.10801000  0.51917500  1
  C  C4  1  0.78490900  0.68961400  0.75000000  1
  C  C5  1  0.56944800  0.10801000  0.98082500  1
  O  O0  1  0.08109000  0.76062800  0.06108400  1
  O  O1  1  0.05223000  0.38529300  0.10001300  1
  O  O2  1  0.54562200  0.19212400  0.10313500  1
  O  O3  1  0.76581300  0.60463600  0.25000000  1
  O  O4  1  0.47483100  0.75491700  0.25000000  1
  O  O5  1  0.85180600  0.98552000  0.25000000  1
  O  O6  1  0.54562200  0.19212400  0.39686500  1
  O  O7  1  0.05223000  0.38529300  0.39998700  1
  O  O8  1  0.08109000  0.76062800  0.43891600  1
  O  O9  1  0.76062800  0.08109000  0.56108400  1
  O  O10  1  0.38529300  0.05223000  0.60001300  1
  O  O11  1  0.19212400  0.54562200  0.60313500  1
  O  O12  1  0.75491700  0.47483100  0.75000000  1
  O  O13  1  0.98552000  0.85180600  0.75000000  1
  O  O14  1  0.60463600  0.76581300  0.75000000  1
  O  O15  1  0.19212400  0.54562200  0.89686500  1
  O  O16  1  0.38529300  0.05223000  0.89998700  1
  O  O17  1  0.76062800  0.08109000  0.93891600  1
loop_
_geom_bond_atom_site_label_1
_geom_bond_atom_site_label_2
_geom_bond_distance
_geom_bond_site_symmetry_2
Li0 O0 2.022823 1_545
Li0 O17 2.022823 1_454
Li0 O16 2.113037 1_554
Li0 O1 2.113037 1_555
Li1 O8 1.952655 1_555
Li1 O0 1.952655 1_555
Li1 O4 1.952902 1_555
Li1 O5 2.414445 1_455
Li2 O8 2.022823 1_545
Li2 O9 2.022823 1_455
Li2 O7 2.113037 1_555
Li2 O10 2.113037 1_555
Li3 O17 1.952655 1_555
Li3 O9 1.952655 1_555
Li3 O12 1.952902 1_555
Li3 O13 2.414445 1_545
Cr0 O3 1.928583 1_555
Cr0 O5 1.983837 1_545
Cr0 O2 2.031657 1_555
Cr0 O6 2.031657 1_555
Cr0 O1 2.049011 1_655
Cr0 O7 2.049011 1_655
Cr1 O14 1.928583 1_555
Cr1 O13 1.983837 1_455
Cr1 O15 2.031657 1_555
Cr1 O11 2.031657 1_555
Cr1 O10 2.049011 1_565
Cr1 O16 2.049011 1_565
C0 O0 1.273564 1_555
C0 O15 1.301485 1_554
C0 O1 1.311938 1_555
C1 O4 1.251243 1_555
C1 O3 1.296981 1_555
C1 O5 1.308879 1_555
C2 O8 1.273564 1_555
C2 O11 1.301485 1_555
C2 O7 1.311938 1_555
C3 O9 1.273564 1_555
C3 O6 1.301485 1_555
C3 O10 1.311938 1_555
C4 O12 1.251243 1_555
C4 O14 1.296981 1_555
C4 O13 1.308879 1_555
C5 O17 1.273564 1_555
C5 O2 1.301485 1_556
C5 O16 1.311938 1_555
