# generated using pymatgen
data_GdAsO4
_symmetry_space_group_name_H-M   'P 1'
_cell_length_a   7.19941400
_cell_length_b   4.84868000
_cell_length_c   4.84904187
_cell_angle_alpha   83.18800267
_cell_angle_beta   90.00000000
_cell_angle_gamma   90.00000000
_symmetry_Int_Tables_number   1
_chemical_formula_structural   GdAsO4
_chemical_formula_sum   'Gd2 As2 O8'
_cell_volume   168.07375971
_cell_formula_units_Z   2
loop_
 _symmetry_equiv_pos_site_id
 _symmetry_equiv_pos_as_xyz
  1  'x, y, z'
loop_
 _atom_site_type_symbol
 _atom_site_label
 _atom_site_symmetry_multiplicity
 _atom_site_fract_x
 _atom_site_fract_y
 _atom_site_fract_z
 _atom_site_occupancy
  Gd  Gd0  1  0.25000000  0.38225300  0.13556200  1
  Gd  Gd1  1  0.75000000  0.61774700  0.86443800  1
  As  As0  1  0.75000000  0.12703500  0.35699100  1
  As  As1  1  0.25000000  0.87296500  0.64300900  1
  O  O0  1  0.56590600  0.29888600  0.18601900  1
  O  O1  1  0.93409400  0.29888600  0.18601900  1
  O  O2  1  0.75000000  0.77802300  0.33290500  1
  O  O3  1  0.25000000  0.84345200  0.29502400  1
  O  O4  1  0.75000000  0.15654800  0.70497600  1
  O  O5  1  0.25000000  0.22197700  0.66709500  1
  O  O6  1  0.06590600  0.70111400  0.81398100  1
  O  O7  1  0.43409400  0.70111400  0.81398100  1
loop_
_geom_bond_atom_site_label_1
_geom_bond_atom_site_label_2
_geom_bond_distance
_geom_bond_site_symmetry_2
Gd0 O0 2.317846 1_555
Gd0 O1 2.317846 1_455
Gd0 O6 2.450832 1_554
Gd0 O7 2.450832 1_554
Gd0 O3 2.451266 1_555
Gd0 O5 2.486553 1_554
Gd0 O5 2.602286 1_555
Gd0 O3 2.635092 1_545
Gd1 O7 2.317846 1_555
Gd1 O6 2.317846 1_655
Gd1 O0 2.450832 1_556
Gd1 O1 2.450832 1_556
Gd1 O4 2.451266 1_555
Gd1 O2 2.486553 1_556
Gd1 O2 2.602286 1_555
Gd1 O4 2.635092 1_565
As0 O2 1.710038 1_545
As0 O4 1.710280 1_555
As0 O0 1.724633 1_555
As0 O1 1.724633 1_555
As1 O5 1.710038 1_565
As1 O3 1.710280 1_555
As1 O6 1.724633 1_555
As1 O7 1.724633 1_555
