# generated using pymatgen
data_LiFeF3
_symmetry_space_group_name_H-M   'P 1'
_cell_length_a   12.29873847
_cell_length_b   12.29873847
_cell_length_c   12.29873798
_cell_angle_alpha   27.45728192
_cell_angle_beta   27.45728192
_cell_angle_gamma   27.45728169
_symmetry_Int_Tables_number   1
_chemical_formula_structural   LiFeF3
_chemical_formula_sum   'Li6 Fe6 F18'
_cell_volume   349.06229717
_cell_formula_units_Z   6
loop_
 _symmetry_equiv_pos_site_id
 _symmetry_equiv_pos_as_xyz
  1  'x, y, z'
loop_
 _atom_site_type_symbol
 _atom_site_label
 _atom_site_symmetry_multiplicity
 _atom_site_fract_x
 _atom_site_fract_y
 _atom_site_fract_z
 _atom_site_occupancy
  Li  Li0  1  0.06717700  0.43282300  0.75000000  1
  Li  Li1  1  0.75000000  0.06717700  0.43282300  1
  Li  Li2  1  0.56717700  0.25000000  0.93282300  1
  Li  Li3  1  0.43282300  0.75000000  0.06717700  1
  Li  Li4  1  0.25000000  0.93282300  0.56717700  1
  Li  Li5  1  0.93282300  0.56717700  0.25000000  1
  Fe  Fe0  1  0.00000000  0.00000000  0.00000000  1
  Fe  Fe1  1  0.65545900  0.65545900  0.65545900  1
  Fe  Fe2  1  0.84454100  0.84454100  0.84454100  1
  Fe  Fe3  1  0.15545900  0.15545900  0.15545900  1
  Fe  Fe4  1  0.34454100  0.34454100  0.34454100  1
  Fe  Fe5  1  0.50000000  0.50000000  0.50000000  1
  F  F0  1  0.99057000  0.36693500  0.71420000  1
  F  F1  1  0.13306500  0.50943000  0.78580000  1
  F  F2  1  0.09401800  0.09401800  0.09401800  1
  F  F3  1  0.49057000  0.21420000  0.86693500  1
  F  F4  1  0.63306500  0.28580000  0.00943000  1
  F  F5  1  0.71420000  0.99057000  0.36693500  1
  F  F6  1  0.75000000  0.75000000  0.75000000  1
  F  F7  1  0.78580000  0.13306500  0.50943000  1
  F  F8  1  0.59401800  0.59401800  0.59401800  1
  F  F9  1  0.40598200  0.40598200  0.40598200  1
  F  F10  1  0.21420000  0.86693500  0.49057000  1
  F  F11  1  0.25000000  0.25000000  0.25000000  1
  F  F12  1  0.28580000  0.00943000  0.63306500  1
  F  F13  1  0.36693500  0.71420000  0.99057000  1
  F  F14  1  0.50943000  0.78580000  0.13306500  1
  F  F15  1  0.90598200  0.90598200  0.90598200  1
  F  F16  1  0.86693500  0.49057000  0.21420000  1
  F  F17  1  0.00943000  0.63306500  0.28580000  1
loop_
_geom_bond_atom_site_label_1
_geom_bond_atom_site_label_2
_geom_bond_distance
_geom_bond_site_symmetry_2
F0 Fe0 2.092238 1_656
F0 Li0 2.112474 1_655
F0 Fe4 2.160171 1_655
F0 Fe1 2.208993 1_555
F1 Fe5 2.092238 1_555
F1 Li0 2.112474 1_555
F1 Fe3 2.160171 1_556
F1 Fe2 2.208993 1_455
F2 Li0 2.030397 1_554
F2 Li3 2.030397 1_545
F2 Li1 2.030397 1_455
F2 Fe3 2.180159 1_555
F3 Fe5 2.092238 1_555
F3 Li2 2.112474 1_555
F3 Fe2 2.160171 1_545
F3 Fe3 2.208993 1_556
F4 Fe0 2.092238 1_655
F4 Li2 2.112474 1_554
F4 Fe1 2.160171 1_554
F4 Fe4 2.208993 1_555
F5 Fe0 2.092238 1_665
F5 Li1 2.112474 1_565
F5 Fe4 2.160171 1_565
F5 Fe1 2.208993 1_555
F6 Li1 1.851542 1_565
F6 Li3 1.851542 1_556
F6 Li0 1.851542 1_655
F7 Fe5 2.092238 1_555
F7 Li1 2.112474 1_555
F7 Fe3 2.160171 1_655
F7 Fe2 2.208993 1_545
F8 Li5 2.030397 1_555
F8 Li4 2.030397 1_555
F8 Li2 2.030397 1_555
F8 Fe1 2.180159 1_555
F9 Li0 2.030397 1_555
F9 Li1 2.030397 1_555
F9 Li3 2.030397 1_555
F9 Fe4 2.180159 1_555
F10 Fe5 2.092238 1_555
F10 Li4 2.112474 1_555
F10 Fe2 2.160171 1_455
F10 Fe3 2.208993 1_565
F11 Li2 1.851542 1_554
F11 Li4 1.851542 1_545
F11 Li5 1.851542 1_455
F12 Fe0 2.092238 1_556
F12 Li4 2.112474 1_545
F12 Fe1 2.160171 1_545
F12 Fe4 2.208993 1_555
F13 Fe0 2.092238 1_566
F13 Li3 2.112474 1_556
F13 Fe4 2.160171 1_556
F13 Fe1 2.208993 1_555
F14 Fe5 2.092238 1_555
F14 Li3 2.112474 1_555
F14 Fe3 2.160171 1_565
F14 Fe2 2.208993 1_554
F15 Li5 2.030397 1_556
F15 Li2 2.030397 1_565
F15 Li4 2.030397 1_655
F15 Fe2 2.180159 1_555
F16 Fe5 2.092238 1_555
F16 Li5 2.112474 1_555
F16 Fe2 2.160171 1_554
F16 Fe3 2.208993 1_655
F17 Fe0 2.092238 1_565
F17 Li5 2.112474 1_455
F17 Fe1 2.160171 1_455
F17 Fe4 2.208993 1_555
