# generated using pymatgen
data_Li2MnNbO4
_symmetry_space_group_name_H-M   'P 1'
_cell_length_a   6.22626602
_cell_length_b   6.22626602
_cell_length_c   6.22626602
_cell_angle_alpha   123.34144932
_cell_angle_beta   119.34022381
_cell_angle_gamma   87.72923928
_symmetry_Int_Tables_number   1
_chemical_formula_structural   Li2MnNbO4
_chemical_formula_sum   'Li4 Mn2 Nb2 O8'
_cell_volume   166.80503063
_cell_formula_units_Z   2
loop_
 _symmetry_equiv_pos_site_id
 _symmetry_equiv_pos_as_xyz
  1  'x, y, z'
loop_
 _atom_site_type_symbol
 _atom_site_label
 _atom_site_symmetry_multiplicity
 _atom_site_fract_x
 _atom_site_fract_y
 _atom_site_fract_z
 _atom_site_occupancy
  Li  Li0  1  0.00000000  0.50000000  0.00000000  1
  Li  Li1  1  0.00000000  0.50000000  0.50000000  1
  Li  Li2  1  0.00000000  0.00000000  0.50000000  1
  Li  Li3  1  0.50000000  0.50000000  0.00000000  1
  Mn  Mn0  1  0.50000000  0.00000000  0.50000000  1
  Mn  Mn1  1  0.00000000  0.00000000  0.00000000  1
  Nb  Nb0  1  0.50000000  0.50000000  0.50000000  1
  Nb  Nb1  1  0.50000000  0.00000000  0.00000000  1
  O  O0  1  0.75311000  0.74981000  0.00330000  1
  O  O1  1  0.72433600  0.22595000  0.00161300  1
  O  O2  1  0.24651100  0.74981000  0.49670000  1
  O  O3  1  0.72433600  0.72272300  0.49838600  1
  O  O4  1  0.27566400  0.27727700  0.50161300  1
  O  O5  1  0.75348900  0.25019000  0.50330000  1
  O  O6  1  0.27566400  0.77405000  0.99838600  1
  O  O7  1  0.24689000  0.25019000  0.99670000  1
loop_
_geom_bond_atom_site_label_1
_geom_bond_atom_site_label_2
_geom_bond_distance
_geom_bond_site_symmetry_2
Li0 O7 2.142192 1_554
Li0 O0 2.142192 1_455
Li0 O2 2.142193 1_555
Li0 O5 2.142193 1_454
Li0 O1 2.474930 1_455
Li0 O6 2.474934 1_554
Li1 O6 2.163053 1_555
Li1 O3 2.163057 1_455
Li1 O1 2.163057 1_455
Li1 O4 2.163057 1_555
Li1 O2 2.242899 1_555
Li1 O5 2.242899 1_455
Li2 O0 2.142192 1_445
Li2 O7 2.142192 1_555
Li2 O2 2.142197 1_545
Li2 O5 2.142197 1_455
Li2 O3 2.474930 1_445
Li2 O4 2.474934 1_555
Li3 O1 2.163053 1_555
Li3 O3 2.163053 1_555
Li3 O6 2.163053 1_554
Li3 O4 2.163057 1_554
Li3 O0 2.242894 1_555
Li3 O7 2.242894 1_554
Mn0 O3 2.176037 1_545
Mn0 O1 2.176037 1_556
Mn0 O4 2.176038 1_555
Mn0 O6 2.176042 1_544
Mn0 O5 2.246301 1_555
Mn0 O2 2.246301 1_545
Mn1 O4 2.176038 1_555
Mn1 O3 2.176042 1_444
Mn1 O1 2.176042 1_455
Mn1 O6 2.176042 1_544
Mn1 O0 2.246306 1_445
Mn1 O7 2.246306 1_554
Nb0 O4 2.014115 1_555
Nb0 O3 2.014119 1_555
Nb0 O5 2.172431 1_555
Nb0 O2 2.172431 1_555
Nb0 O7 2.172436 1_554
Nb0 O0 2.172436 1_556
Nb1 O6 2.014115 1_544
Nb1 O1 2.014119 1_555
Nb1 O5 2.172435 1_555
Nb1 O2 2.172435 1_544
Nb1 O7 2.172436 1_554
Nb1 O0 2.172436 1_545
