# generated using pymatgen
data_Li2CuF5
_symmetry_space_group_name_H-M   'P 1'
_cell_length_a   2.91333000
_cell_length_b   7.31676500
_cell_length_c   8.62508300
_cell_angle_alpha   90.00000000
_cell_angle_beta   90.00000000
_cell_angle_gamma   90.00000000
_symmetry_Int_Tables_number   1
_chemical_formula_structural   Li2CuF5
_chemical_formula_sum   'Li4 Cu2 F10'
_cell_volume   183.85357142
_cell_formula_units_Z   2
loop_
 _symmetry_equiv_pos_site_id
 _symmetry_equiv_pos_as_xyz
  1  'x, y, z'
loop_
 _atom_site_type_symbol
 _atom_site_label
 _atom_site_symmetry_multiplicity
 _atom_site_fract_x
 _atom_site_fract_y
 _atom_site_fract_z
 _atom_site_occupancy
  Li  Li0  1  0.00000000  0.93565500  0.85776700  1
  Li  Li1  1  0.00000000  0.43565500  0.64223300  1
  Li  Li2  1  0.00000000  0.56434500  0.35776700  1
  Li  Li3  1  0.00000000  0.06434500  0.14223300  1
  Cu  Cu0  1  0.50000000  0.50000000  0.00000000  1
  Cu  Cu1  1  0.50000000  0.00000000  0.50000000  1
  F  F0  1  0.50000000  0.00000000  0.00000000  1
  F  F1  1  0.00000000  0.66383900  0.94166800  1
  F  F2  1  0.50000000  0.40586800  0.79572000  1
  F  F3  1  0.50000000  0.90586800  0.70428000  1
  F  F4  1  0.00000000  0.16383900  0.55833200  1
  F  F5  1  0.50000000  0.50000000  0.50000000  1
  F  F6  1  0.00000000  0.83616100  0.44166800  1
  F  F7  1  0.50000000  0.09413200  0.29572000  1
  F  F8  1  0.50000000  0.59413200  0.20428000  1
  F  F9  1  0.00000000  0.33616100  0.05833200  1
loop_
_geom_bond_atom_site_label_1
_geom_bond_atom_site_label_2
_geom_bond_distance
_geom_bond_site_symmetry_2
Cu0 F2 1.891764 1_554
Cu0 F8 1.891764 1_555
Cu0 F9 1.952448 1_555
Cu0 F9 1.952448 1_655
Cu0 F1 1.952448 1_654
Cu0 F1 1.952448 1_554
Cu1 F7 1.891764 1_555
Cu1 F3 1.891764 1_545
Cu1 F4 1.952448 1_555
Cu1 F4 1.952448 1_655
Cu1 F6 1.952448 1_545
Cu1 F6 1.952448 1_645
F0 Li3 1.961757 1_555
F0 Li3 1.961757 1_655
F0 Li0 1.961757 1_544
F0 Li0 1.961757 1_644
F1 Li0 2.116378 1_555
F2 Li1 1.980384 1_655
F2 Li1 1.980384 1_555
F3 Li0 1.980384 1_555
F3 Li0 1.980384 1_655
F4 Li1 2.116378 1_555
F5 Li1 1.961757 1_655
F5 Li1 1.961757 1_555
F5 Li2 1.961757 1_655
F5 Li2 1.961757 1_555
F6 Li2 2.116378 1_555
F7 Li3 1.980384 1_555
F7 Li3 1.980384 1_655
F8 Li2 1.980384 1_655
F8 Li2 1.980384 1_555
F9 Li3 2.116378 1_555
