# generated using pymatgen
data_Ba4Br6O
_symmetry_space_group_name_H-M   'P 1'
_cell_length_a   6.30046800
_cell_length_b   12.68487800
_cell_length_c   22.23240500
_cell_angle_alpha   90.00000000
_cell_angle_beta   90.00000000
_cell_angle_gamma   90.00000000
_symmetry_Int_Tables_number   1
_chemical_formula_structural   Ba4Br6O
_chemical_formula_sum   'Ba16 Br24 O4'
_cell_volume   1776.82865713
_cell_formula_units_Z   4
loop_
 _symmetry_equiv_pos_site_id
 _symmetry_equiv_pos_as_xyz
  1  'x, y, z'
loop_
 _atom_site_type_symbol
 _atom_site_label
 _atom_site_symmetry_multiplicity
 _atom_site_fract_x
 _atom_site_fract_y
 _atom_site_fract_z
 _atom_site_occupancy
  Ba  Ba0  1  0.07079900  0.52257200  0.69030100  1
  Ba  Ba1  1  0.47069600  0.77839200  0.70252100  1
  Ba  Ba2  1  0.45166600  0.16505600  0.57431300  1
  Ba  Ba3  1  0.44984100  0.58886200  0.54539200  1
  Ba  Ba4  1  0.94984100  0.91113800  0.45460800  1
  Ba  Ba5  1  0.95166600  0.33494400  0.42568700  1
  Ba  Ba6  1  0.97069600  0.72160800  0.29747900  1
  Ba  Ba7  1  0.57079900  0.97742800  0.30969900  1
  Ba  Ba8  1  0.42920100  0.47742800  0.19030100  1
  Ba  Ba9  1  0.02930400  0.22160800  0.20252100  1
  Ba  Ba10  1  0.04833400  0.83494400  0.07431300  1
  Ba  Ba11  1  0.05015900  0.41113800  0.04539200  1
  Ba  Ba12  1  0.55015900  0.08886200  0.95460800  1
  Ba  Ba13  1  0.54833400  0.66505600  0.92568700  1
  Ba  Ba14  1  0.52930400  0.27839200  0.79747900  1
  Ba  Ba15  1  0.92920100  0.02257200  0.80969900  1
  Br  Br0  1  0.48045400  0.04892900  0.70304400  1
  Br  Br1  1  0.97290400  0.76541200  0.75223300  1
  Br  Br2  1  0.50362900  0.37619400  0.64992100  1
  Br  Br3  1  0.95005200  0.48857100  0.54409800  1
  Br  Br4  1  0.72365900  0.80430000  0.57353700  1
  Br  Br5  1  0.95095800  0.15268700  0.53689200  1
  Br  Br6  1  0.45095800  0.34731300  0.46310800  1
  Br  Br7  1  0.22365900  0.69570000  0.42646300  1
  Br  Br8  1  0.45005200  0.01142900  0.45590200  1
  Br  Br9  1  0.00362900  0.12380600  0.35007900  1
  Br  Br10  1  0.47290400  0.73458800  0.24776700  1
  Br  Br11  1  0.98045400  0.45107100  0.29695600  1
  Br  Br12  1  0.01954600  0.95107100  0.20304400  1
  Br  Br13  1  0.52709600  0.23458800  0.25223300  1
  Br  Br14  1  0.99637100  0.62380600  0.14992100  1
  Br  Br15  1  0.54994800  0.51142900  0.04409800  1
  Br  Br16  1  0.77634100  0.19570000  0.07353700  1
  Br  Br17  1  0.54904200  0.84731300  0.03689200  1
  Br  Br18  1  0.04904200  0.65268700  0.96310800  1
  Br  Br19  1  0.27634100  0.30430000  0.92646300  1
  Br  Br20  1  0.04994800  0.98857100  0.95590200  1
  Br  Br21  1  0.49637100  0.87619400  0.85007900  1
  Br  Br22  1  0.02709600  0.26541200  0.74776700  1
  Br  Br23  1  0.51954600  0.54892900  0.79695600  1
  O  O0  1  0.32383400  0.63534100  0.64419700  1
  O  O1  1  0.82383400  0.86465900  0.35580300  1
  O  O2  1  0.17616600  0.36465900  0.14419700  1
  O  O3  1  0.67616600  0.13534100  0.85580300  1
loop_
_geom_bond_atom_site_label_1
_geom_bond_atom_site_label_2
_geom_bond_distance
_geom_bond_site_symmetry_2
Ba0 O0 2.374541 1_555
Ba0 Br3 3.366031 1_455
Ba0 Br2 3.419109 1_555
Ba0 Br1 3.430030 1_455
Ba0 Br22 3.514118 1_555
Ba0 Br23 3.705141 1_555
Ba1 O0 2.414598 1_555
Ba1 Br4 3.297185 1_555
Ba1 Br1 3.329435 1_455
Ba1 Br1 3.355657 1_555
Ba1 Br0 3.432299 1_565
Ba1 Br21 3.511041 1_555
Ba1 Br23 3.602073 1_555
Ba2 Br2 3.178969 1_555
Ba2 Br0 3.223947 1_555
Ba2 Br5 3.257708 1_555
Ba2 Br5 3.266324 1_455
Ba2 Br8 3.275373 1_555
Ba2 Br6 3.384889 1_555
Ba3 O0 2.408995 1_555
Ba3 Br4 3.291810 1_555
Ba3 Br7 3.295233 1_555
Ba3 Br3 3.396302 1_455
Ba3 Br3 3.398767 1_555
Ba3 Br6 3.568594 1_555
Ba3 Br2 3.576718 1_555
Ba4 O1 2.408995 1_555
Ba4 Br7 3.291810 1_655
Ba4 Br4 3.295233 1_555
Ba4 Br8 3.396302 1_565
Ba4 Br8 3.398767 1_665
Ba4 Br5 3.568594 1_565
Ba4 Br9 3.576718 1_665
Ba5 Br9 3.178969 1_655
Ba5 Br11 3.223947 1_555
Ba5 Br6 3.257708 1_655
Ba5 Br6 3.266324 1_555
Ba5 Br3 3.275373 1_555
Ba5 Br5 3.384889 1_555
Ba6 O1 2.414598 1_555
Ba6 Br7 3.297185 1_655
Ba6 Br10 3.329435 1_555
Ba6 Br10 3.355657 1_655
Ba6 Br11 3.432299 1_555
Ba6 Br14 3.511041 1_555
Ba6 Br12 3.602073 1_655
Ba7 O1 2.374541 1_555
Ba7 Br8 3.366031 1_565
Ba7 Br9 3.419109 1_665
Ba7 Br10 3.430030 1_555
Ba7 Br13 3.514118 1_565
Ba7 Br12 3.705141 1_655
Ba8 O2 2.374541 1_555
Ba8 Br15 3.366031 1_555
Ba8 Br14 3.419109 1_455
Ba8 Br13 3.430030 1_555
Ba8 Br10 3.514118 1_555
Ba8 Br11 3.705141 1_455
Ba9 O2 2.414598 1_555
Ba9 Br16 3.297185 1_455
Ba9 Br13 3.329435 1_555
Ba9 Br13 3.355657 1_455
Ba9 Br12 3.432299 1_545
Ba9 Br9 3.511041 1_555
Ba9 Br11 3.602073 1_455
Ba10 Br14 3.178969 1_455
Ba10 Br12 3.223947 1_555
Ba10 Br17 3.257708 1_455
Ba10 Br17 3.266324 1_555
Ba10 Br20 3.275373 1_554
Ba10 Br18 3.384889 1_554
Ba11 O2 2.408995 1_555
Ba11 Br16 3.291810 1_455
Ba11 Br19 3.295233 1_554
Ba11 Br15 3.396302 1_555
Ba11 Br15 3.398767 1_455
Ba11 Br18 3.568594 1_554
Ba11 Br14 3.576718 1_455
Ba12 O3 2.408995 1_555
Ba12 Br19 3.291810 1_555
Ba12 Br16 3.295233 1_556
Ba12 Br20 3.396302 1_645
Ba12 Br20 3.398767 1_545
Ba12 Br17 3.568594 1_546
Ba12 Br21 3.576718 1_545
Ba13 Br21 3.178969 1_555
Ba13 Br23 3.223947 1_555
Ba13 Br18 3.257708 1_555
Ba13 Br18 3.266324 1_655
Ba13 Br15 3.275373 1_556
Ba13 Br17 3.384889 1_556
Ba14 O3 2.414598 1_555
Ba14 Br19 3.297185 1_555
Ba14 Br22 3.329435 1_655
Ba14 Br22 3.355657 1_555
Ba14 Br23 3.432299 1_555
Ba14 Br2 3.511041 1_555
Ba14 Br0 3.602073 1_555
Ba15 O3 2.374541 1_555
Ba15 Br20 3.366031 1_645
Ba15 Br21 3.419109 1_545
Ba15 Br22 3.430030 1_655
Ba15 Br1 3.514118 1_545
Ba15 Br0 3.705141 1_555
