# generated using pymatgen
data_Fe2O3F
_symmetry_space_group_name_H-M   'P 1'
_cell_length_a   4.70036394
_cell_length_b   4.70036394
_cell_length_c   15.04797200
_cell_angle_alpha   90.00000000
_cell_angle_beta   90.00000000
_cell_angle_gamma   94.33749869
_symmetry_Int_Tables_number   1
_chemical_formula_structural   Fe2O3F
_chemical_formula_sum   'Fe10 O15 F5'
_cell_volume   331.50896438
_cell_formula_units_Z   5
loop_
 _symmetry_equiv_pos_site_id
 _symmetry_equiv_pos_as_xyz
  1  'x, y, z'
loop_
 _atom_site_type_symbol
 _atom_site_label
 _atom_site_symmetry_multiplicity
 _atom_site_fract_x
 _atom_site_fract_y
 _atom_site_fract_z
 _atom_site_occupancy
  Fe  Fe0  1  0.99947400  0.00052600  0.69991700  1
  Fe  Fe1  1  0.01222500  0.98777500  0.50000000  1
  Fe  Fe2  1  0.99947400  0.00052600  0.30008300  1
  Fe  Fe3  1  0.98534600  0.01465400  0.10016400  1
  Fe  Fe4  1  0.98534600  0.01465400  0.89983600  1
  Fe  Fe5  1  0.47076200  0.52923800  0.60013600  1
  Fe  Fe6  1  0.52645200  0.47354800  0.20085300  1
  Fe  Fe7  1  0.47076200  0.52923800  0.39986400  1
  Fe  Fe8  1  0.52294700  0.47705300  0.00000000  1
  Fe  Fe9  1  0.52645200  0.47354800  0.79914700  1
  O  O0  1  0.81986900  0.18013100  0.20316400  1
  O  O1  1  0.81276400  0.18723600  0.00000000  1
  O  O2  1  0.81986900  0.18013100  0.79683600  1
  O  O3  1  0.30625400  0.30803700  0.69996400  1
  O  O4  1  0.29534400  0.31577500  0.50000000  1
  O  O5  1  0.30625400  0.30803700  0.30003600  1
  O  O6  1  0.31387600  0.30246600  0.09991300  1
  O  O7  1  0.31387600  0.30246600  0.90008700  1
  O  O8  1  0.69196300  0.69374600  0.69996400  1
  O  O9  1  0.68422500  0.70465600  0.50000000  1
  O  O10  1  0.69196300  0.69374600  0.30003600  1
  O  O11  1  0.69753400  0.68612400  0.09991300  1
  O  O12  1  0.69753400  0.68612400  0.90008700  1
  O  O13  1  0.18012400  0.81987600  0.60304800  1
  O  O14  1  0.18012400  0.81987600  0.39695200  1
  F  F0  1  0.80050700  0.19949300  0.59787600  1
  F  F1  1  0.80050700  0.19949300  0.40212400  1
  F  F2  1  0.19630400  0.80369600  0.19841800  1
  F  F3  1  0.19630400  0.80369600  0.80158200  1
  F  F4  1  0.19556700  0.80443300  0.00000000  1
loop_
_geom_bond_atom_site_label_1
_geom_bond_atom_site_label_2
_geom_bond_distance
_geom_bond_site_symmetry_2
Fe0 O2 1.913168 1_555
Fe0 O13 1.917266 1_645
Fe0 O8 1.962970 1_545
Fe0 O3 1.962970 1_655
Fe1 O14 1.935044 1_555
Fe1 O13 1.935044 1_555
Fe1 O4 1.958951 1_565
Fe1 O9 1.958951 1_455
Fe2 O0 1.913168 1_555
Fe2 O14 1.917266 1_645
Fe2 O5 1.962970 1_655
Fe2 O10 1.962970 1_545
Fe3 O1 1.920279 1_555
Fe3 O0 1.924521 1_555
Fe3 O6 1.974521 1_655
Fe3 O11 1.974521 1_545
Fe4 O1 1.920279 1_556
Fe4 O2 1.924521 1_555
Fe4 O7 1.974521 1_655
Fe4 O12 1.974521 1_545
Fe5 O8 1.952937 1_555
Fe5 O3 1.952937 1_555
Fe5 O9 1.957551 1_555
Fe5 O4 1.957551 1_555
Fe5 O13 2.004169 1_555
Fe6 O10 1.944798 1_555
Fe6 O5 1.944798 1_555
Fe6 O11 1.957210 1_555
Fe6 O6 1.957210 1_555
Fe6 O0 2.023148 1_555
Fe7 O10 1.952937 1_555
Fe7 O5 1.952937 1_555
Fe7 O9 1.957551 1_555
Fe7 O4 1.957551 1_555
Fe7 O14 2.004169 1_555
Fe8 O11 1.943613 1_555
Fe8 O12 1.943613 1_554
Fe8 O6 1.943613 1_555
Fe8 O7 1.943613 1_554
Fe8 O1 1.998030 1_555
Fe9 O8 1.944798 1_555
Fe9 O3 1.944798 1_555
Fe9 O12 1.957210 1_555
Fe9 O7 1.957210 1_555
Fe9 O2 2.023148 1_555
F0 Fe0 2.058969 1_555
F0 Fe1 2.073571 1_645
F0 Fe5 2.273553 1_555
F1 Fe2 2.058969 1_555
F1 Fe1 2.073571 1_645
F1 Fe7 2.273553 1_555
F2 Fe2 2.044947 1_465
F2 Fe3 2.073938 1_465
F2 Fe6 2.276372 1_555
F3 Fe0 2.044947 1_465
F3 Fe4 2.073938 1_465
F3 Fe9 2.276372 1_555
F4 Fe3 2.091000 1_465
F4 Fe4 2.091000 1_464
F4 Fe8 2.256994 1_555
