# generated using pymatgen
data_K2LiMn2O4
_symmetry_space_group_name_H-M   'P 1'
_cell_length_a   6.50657656
_cell_length_b   6.57582237
_cell_length_c   6.50650072
_cell_angle_alpha   93.19113969
_cell_angle_beta   86.58059569
_cell_angle_gamma   86.81614209
_symmetry_Int_Tables_number   1
_chemical_formula_structural   K2LiMn2O4
_chemical_formula_sum   'K4 Li2 Mn4 O8'
_cell_volume   276.97693745
_cell_formula_units_Z   2
loop_
 _symmetry_equiv_pos_site_id
 _symmetry_equiv_pos_as_xyz
  1  'x, y, z'
loop_
 _atom_site_type_symbol
 _atom_site_label
 _atom_site_symmetry_multiplicity
 _atom_site_fract_x
 _atom_site_fract_y
 _atom_site_fract_z
 _atom_site_occupancy
  K  K0  1  0.97917500  0.25000100  0.97916900  1
  K  K1  1  0.02082600  0.75000600  0.02084200  1
  K  K2  1  0.50000600  0.99998500  0.00000300  1
  K  K3  1  0.00000400  0.50000200  0.50000100  1
  Li  Li0  1  0.35472700  0.25001000  0.35471800  1
  Li  Li1  1  0.64527500  0.74998600  0.64528200  1
  Mn  Mn0  1  0.18924600  0.96737000  0.58175100  1
  Mn  Mn1  1  0.41826600  0.46735400  0.81072800  1
  Mn  Mn2  1  0.58177800  0.53261200  0.18925800  1
  Mn  Mn3  1  0.81068800  0.03266700  0.41827000  1
  O  O0  1  0.31001600  0.44458700  0.11647600  1
  O  O1  1  0.11642700  0.05541400  0.31008400  1
  O  O2  1  0.88355400  0.94459900  0.68990300  1
  O  O3  1  0.69000000  0.55540100  0.88351300  1
  O  O4  1  0.66596600  0.25689000  0.29077200  1
  O  O5  1  0.70923600  0.75697000  0.33408000  1
  O  O6  1  0.29077300  0.24303800  0.66592400  1
  O  O7  1  0.33403600  0.74310600  0.70922500  1
loop_
_geom_bond_atom_site_label_1
_geom_bond_atom_site_label_2
_geom_bond_distance
_geom_bond_site_symmetry_2
K0 O0 2.734483 1_656
K0 O1 2.734926 1_656
K0 O4 2.784303 1_556
K0 O6 2.784410 1_655
K0 O3 2.796385 1_555
K0 O2 2.796467 1_545
K1 O3 2.734513 1_454
K1 O2 2.735121 1_454
K1 O5 2.784343 1_455
K1 O7 2.784365 1_554
K1 O1 2.796354 1_565
K1 O0 2.796491 1_555
K2 O7 2.773003 1_554
K2 O4 2.773035 1_565
K2 Li1 2.840342 1_554
K2 Li0 2.840417 1_565
K2 O5 3.103213 1_555
K2 O6 3.103364 1_564
K2 O2 3.106145 1_554
K2 O1 3.106235 1_565
K2 O3 3.144782 1_554
K2 O0 3.144861 1_565
K3 O6 2.773392 1_555
K3 O5 2.773397 1_455
K3 Li1 2.840469 1_455
K3 Li0 2.840469 1_555
K3 O7 3.103065 1_555
K3 O4 3.103137 1_455
K3 O3 3.105584 1_455
K3 O0 3.105683 1_555
K3 O1 3.144510 1_555
K3 O2 3.144560 1_455
Li0 O6 2.046282 1_555
Li0 O4 2.046448 1_555
Li0 O0 2.087560 1_555
Li0 O1 2.087732 1_555
Li1 O5 2.046270 1_555
Li1 O7 2.046446 1_555
Li1 O3 2.087551 1_555
Li1 O2 2.087685 1_555
Mn0 O7 1.955840 1_555
Mn0 O1 1.966588 1_565
Mn0 O6 2.021883 1_565
Mn0 O2 2.086051 1_455
Mn1 O6 1.956031 1_555
Mn1 O3 1.966873 1_555
Mn1 O7 2.022544 1_555
Mn1 O0 2.086563 1_556
Mn2 O5 1.956180 1_555
Mn2 O0 1.966989 1_555
Mn2 O4 2.022329 1_555
Mn2 O3 2.086513 1_554
Mn3 O4 1.955509 1_555
Mn3 O2 1.966520 1_545
Mn3 O5 2.021890 1_545
Mn3 O1 2.086378 1_655
