# generated using pymatgen
data_LiVFeP2(O4F)2
_symmetry_space_group_name_H-M   'P 1'
_cell_length_a   5.15713509
_cell_length_b   7.44962198
_cell_length_c   10.47470556
_cell_angle_alpha   75.86700211
_cell_angle_beta   97.25345431
_cell_angle_gamma   70.70719061
_symmetry_Int_Tables_number   1
_chemical_formula_structural   LiVFeP2(O4F)2
_chemical_formula_sum   'Li2 V2 Fe2 P4 O16 F4'
_cell_volume   358.79151537
_cell_formula_units_Z   2
loop_
 _symmetry_equiv_pos_site_id
 _symmetry_equiv_pos_as_xyz
  1  'x, y, z'
loop_
 _atom_site_type_symbol
 _atom_site_label
 _atom_site_symmetry_multiplicity
 _atom_site_fract_x
 _atom_site_fract_y
 _atom_site_fract_z
 _atom_site_occupancy
  Li  Li0  1  0.55368800  0.37027400  0.80451200  1
  Li  Li1  1  0.05374700  0.87030200  0.30449900  1
  V  V0  1  0.50133600  0.49669100  0.49859700  1
  V  V1  1  0.00140800  0.99660400  0.99856300  1
  Fe  Fe0  1  0.00400200  0.50265900  0.00237800  1
  Fe  Fe1  1  0.50409800  0.00277800  0.50232400  1
  P  P0  1  0.99632300  0.43765400  0.32062300  1
  P  P1  1  0.49637300  0.93761800  0.82060000  1
  P  P2  1  0.99778900  0.56372000  0.67820500  1
  P  P3  1  0.49782600  0.06371200  0.17818300  1
  O  O0  1  0.74322600  0.51934200  0.38908700  1
  O  O1  1  0.24325700  0.01933700  0.88905700  1
  O  O2  1  0.64392300  0.71296300  0.88887000  1
  O  O3  1  0.14397700  0.21299300  0.38886200  1
  O  O4  1  0.86830400  0.49424100  0.17055000  1
  O  O5  1  0.36842800  0.99422000  0.67052500  1
  O  O6  1  0.78129700  0.46121000  0.66450200  1
  O  O7  1  0.28140000  0.96115500  0.16447800  1
  O  O8  1  0.18788900  0.55632500  0.34569700  1
  O  O9  1  0.68793000  0.05628500  0.84569900  1
  O  O10  1  0.14372200  0.50707500  0.82842400  1
  O  O11  1  0.64373500  0.00710900  0.32840600  1
  O  O12  1  0.36491100  0.28711300  0.10394100  1
  O  O13  1  0.86491900  0.78711300  0.60394600  1
  O  O14  1  0.25646300  0.46808300  0.61708300  1
  O  O15  1  0.75653900  0.96811100  0.11708100  1
  F  F0  1  0.84686500  0.29042500  0.96637700  1
  F  F1  1  0.34688700  0.79046100  0.46638000  1
  F  F2  1  0.14735200  0.71305600  0.02897500  1
  F  F3  1  0.64741900  0.21313500  0.52900300  1
loop_
_geom_bond_atom_site_label_1
_geom_bond_atom_site_label_2
_geom_bond_distance
_geom_bond_site_symmetry_2
Li0 O10 2.099042 1_555
Li0 O6 2.112472 1_555
Li0 O9 2.120967 1_555
Li0 O14 2.130343 1_555
Li1 O11 2.099236 1_465
Li1 O7 2.112514 1_555
Li1 O8 2.120903 1_555
Li1 O15 2.130214 1_455
Fe0 O12 1.966037 1_555
Fe0 O4 1.970554 1_455
Fe0 O2 1.981633 1_454
Fe0 O10 2.039196 1_554
Fe1 O13 1.966228 1_545
Fe1 O5 1.970696 1_545
Fe1 O3 1.981402 1_555
Fe1 O11 2.038696 1_555
O0 P0 1.585221 1_555
O0 V0 1.818335 1_555
O1 P1 1.585299 1_545
O1 V1 1.818238 1_545
O2 P1 1.525760 1_555
O3 P0 1.525793 1_455
O4 P0 1.521541 1_555
O5 P1 1.521466 1_555
O6 P2 1.557808 1_555
O6 V0 2.016015 1_555
O7 P3 1.557777 1_565
O7 V1 2.016258 1_554
O8 P0 1.565738 1_455
O8 V0 1.974770 1_555
O9 P1 1.565736 1_545
O9 V1 1.974541 1_645
O10 P2 1.545065 1_455
O11 P3 1.545111 1_555
O12 P3 1.524433 1_555
O13 P2 1.524412 1_555
O14 P2 1.583505 1_455
O14 V0 1.903940 1_555
O15 P3 1.583452 1_565
O15 V1 1.904014 1_654
F0 Li0 1.944317 1_555
F0 V1 1.989716 1_645
F0 Fe0 2.087897 1_656
F1 Li1 1.944336 1_555
F1 V0 1.989308 1_555
F1 Fe1 2.088518 1_565
F2 V1 1.920983 1_554
F2 Fe0 2.001931 1_555
F3 V0 1.921053 1_555
F3 Fe1 2.001804 1_555
