# generated using pymatgen
data_LiMn2(PO4)2
_symmetry_space_group_name_H-M   'P 1'
_cell_length_a   6.76133800
_cell_length_b   8.56015398
_cell_length_c   8.71644391
_cell_angle_alpha   91.36358901
_cell_angle_beta   108.92422899
_cell_angle_gamma   108.49045272
_symmetry_Int_Tables_number   1
_chemical_formula_structural   LiMn2(PO4)2
_chemical_formula_sum   'Li3 Mn6 P6 O24'
_cell_volume   448.05365092
_cell_formula_units_Z   3
loop_
 _symmetry_equiv_pos_site_id
 _symmetry_equiv_pos_as_xyz
  1  'x, y, z'
loop_
 _atom_site_type_symbol
 _atom_site_label
 _atom_site_symmetry_multiplicity
 _atom_site_fract_x
 _atom_site_fract_y
 _atom_site_fract_z
 _atom_site_occupancy
  Li  Li0  1  0.74372500  0.00967100  0.00660800  1
  Li  Li1  1  0.25627500  0.99032900  0.99339200  1
  Li  Li2  1  0.00000000  0.50000000  0.50000000  1
  Mn  Mn0  1  0.35992700  0.93601200  0.61815400  1
  Mn  Mn1  1  0.74076500  0.71882500  0.28222400  1
  Mn  Mn2  1  0.86131800  0.61852600  0.94033000  1
  Mn  Mn3  1  0.13868200  0.38147400  0.05967000  1
  Mn  Mn4  1  0.25923500  0.28117500  0.71777600  1
  Mn  Mn5  1  0.64007300  0.06398800  0.38184600  1
  P  P0  1  0.37547600  0.66111900  0.88226400  1
  P  P1  1  0.75506200  0.29839400  0.71080700  1
  P  P2  1  0.88542600  0.87594800  0.66550600  1
  P  P3  1  0.11457400  0.12405200  0.33449400  1
  P  P4  1  0.24493800  0.70160600  0.28919300  1
  P  P5  1  0.62452400  0.33888100  0.11773600  1
  O  O0  1  0.39701100  0.84323800  0.84953400  1
  O  O1  1  0.96004100  0.26399400  0.83348500  1
  O  O2  1  0.19484400  0.59729500  0.96581200  1
  O  O3  1  0.77465400  0.27944200  0.54043900  1
  O  O4  1  0.69608300  0.45978900  0.27318200  1
  O  O5  1  0.60576400  0.67474400  0.00917300  1
  O  O6  1  0.88754600  0.98414600  0.30977400  1
  O  O7  1  0.84983200  0.73076100  0.54341500  1
  O  O8  1  0.75007600  0.47718000  0.73526200  1
  O  O9  1  0.30705100  0.05127500  0.39287700  1
  O  O10  1  0.53780500  0.17914500  0.72905900  1
  O  O11  1  0.91164400  0.83138900  0.84495300  1
  O  O12  1  0.08835600  0.16861100  0.15504700  1
  O  O13  1  0.46219500  0.82085500  0.27094100  1
  O  O14  1  0.69294900  0.94872500  0.60712300  1
  O  O15  1  0.24992400  0.52282000  0.26473800  1
  O  O16  1  0.15016800  0.26923900  0.45658500  1
  O  O17  1  0.11245400  0.01585400  0.69022600  1
  O  O18  1  0.39423600  0.32525600  0.99082700  1
  O  O19  1  0.30391700  0.54021100  0.72681800  1
  O  O20  1  0.22534600  0.72055800  0.45956100  1
  O  O21  1  0.80515600  0.40270500  0.03418800  1
  O  O22  1  0.03995900  0.73600600  0.16651500  1
  O  O23  1  0.60298900  0.15676200  0.15046600  1
loop_
_geom_bond_atom_site_label_1
_geom_bond_atom_site_label_2
_geom_bond_distance
_geom_bond_site_symmetry_2
Li0 O12 2.214630 1_655
Li0 O0 2.259790 1_544
Li0 O23 2.349888 1_555
Li0 O6 2.543971 1_545
Li1 O11 2.214630 1_455
Li1 O23 2.259790 1_566
Li1 O0 2.349888 1_555
Li1 O17 2.543971 1_565
Li2 O20 2.136750 1_555
Li2 O3 2.136750 1_455
Li2 O19 2.265738 1_555
Li2 O4 2.265738 1_455
Li2 O16 2.561627 1_555
Li2 O7 2.561627 1_455
Mn0 O20 2.034384 1_555
Mn0 O10 2.067609 1_565
Mn0 O0 2.153047 1_555
Mn0 O9 2.194929 1_565
Mn0 O17 2.246839 1_565
Mn0 O14 2.253137 1_555
Mn1 O4 2.136731 1_555
Mn1 O7 2.142328 1_555
Mn1 O6 2.142580 1_555
Mn1 O5 2.229300 1_555
Mn1 O13 2.290732 1_555
Mn1 O22 2.504581 1_655
Mn2 O8 1.916375 1_555
Mn2 O22 1.986890 1_656
Mn2 O11 1.997355 1_555
Mn2 O21 2.013720 1_556
Mn2 O5 2.182539 1_556
Mn2 O2 2.259369 1_655
Mn3 O15 1.916375 1_555
Mn3 O1 1.986890 1_454
Mn3 O12 1.997355 1_555
Mn3 O2 2.013720 1_554
Mn3 O18 2.182539 1_554
Mn3 O21 2.259369 1_455
Mn4 O19 2.136731 1_555
Mn4 O16 2.142328 1_555
Mn4 O17 2.142580 1_555
Mn4 O18 2.229300 1_555
Mn4 O10 2.290732 1_555
Mn4 O1 2.504581 1_455
Mn5 O3 2.034384 1_555
Mn5 O13 2.067609 1_545
Mn5 O23 2.153047 1_555
Mn5 O14 2.194929 1_545
Mn5 O6 2.246839 1_545
Mn5 O9 2.253137 1_555
O0 P0 1.561121 1_555
O1 P1 1.569564 1_555
O2 P0 1.578936 1_555
O3 P1 1.542356 1_555
O4 P5 1.526944 1_555
O5 P0 1.556646 1_554
O6 P3 1.563363 1_665
O7 P2 1.521926 1_555
O8 P1 1.552633 1_555
O9 P3 1.562208 1_555
O10 P1 1.559914 1_555
O11 P2 1.585838 1_555
O12 P3 1.585838 1_555
O13 P4 1.559914 1_555
O14 P2 1.562208 1_555
O15 P4 1.552633 1_555
O16 P3 1.521926 1_555
O17 P2 1.563363 1_445
O18 P5 1.556646 1_556
O19 P0 1.526944 1_555
O20 P4 1.542356 1_555
O21 P5 1.578936 1_555
O22 P4 1.569564 1_555
O23 P5 1.561121 1_555
