# generated using pymatgen
data_Na7Ti16O32
_symmetry_space_group_name_H-M   'P 1'
_cell_length_a   10.63288930
_cell_length_b   10.63288930
_cell_length_c   10.63288930
_cell_angle_alpha   131.83299123
_cell_angle_beta   131.83299123
_cell_angle_gamma   70.49292732
_symmetry_Int_Tables_number   1
_chemical_formula_structural   Na7Ti16O32
_chemical_formula_sum   'Na7 Ti16 O32'
_cell_volume   653.92597817
_cell_formula_units_Z   1
loop_
 _symmetry_equiv_pos_site_id
 _symmetry_equiv_pos_as_xyz
  1  'x, y, z'
loop_
 _atom_site_type_symbol
 _atom_site_label
 _atom_site_symmetry_multiplicity
 _atom_site_fract_x
 _atom_site_fract_y
 _atom_site_fract_z
 _atom_site_occupancy
  Na  Na0  1  0.00000000  0.00000000  0.00000000  1
  Na  Na1  1  0.37390900  0.37390900  0.49952800  1
  Na  Na2  1  0.87438100  0.87438100  0.50047200  1
  Na  Na3  1  0.75000000  0.25000000  0.50000000  1
  Na  Na4  1  0.25000000  0.75000000  0.50000000  1
  Na  Na5  1  0.62609100  0.12561900  0.00000000  1
  Na  Na6  1  0.12561900  0.62609100  0.00000000  1
  Ti  Ti0  1  0.06917000  0.31531100  0.50764200  1
  Ti  Ti1  1  0.56152800  0.80766900  0.49235800  1
  Ti  Ti2  1  0.80766900  0.56152800  0.49235800  1
  Ti  Ti3  1  0.31531100  0.06917000  0.50764200  1
  Ti  Ti4  1  0.19233100  0.68468900  0.75385900  1
  Ti  Ti5  1  0.93083000  0.43847200  0.24614100  1
  Ti  Ti6  1  0.68468900  0.19233100  0.75385900  1
  Ti  Ti7  1  0.43847200  0.93083000  0.24614100  1
  Ti  Ti8  1  0.81025300  0.56205700  0.00000000  1
  Ti  Ti9  1  0.06220500  0.31127300  0.00000000  1
  Ti  Ti10  1  0.31127300  0.06220500  0.00000000  1
  Ti  Ti11  1  0.56205700  0.81025300  0.00000000  1
  Ti  Ti12  1  0.43794300  0.43794300  0.24819600  1
  Ti  Ti13  1  0.93779500  0.93779500  0.24906800  1
  Ti  Ti14  1  0.18974700  0.18974700  0.75180400  1
  Ti  Ti15  1  0.68872700  0.68872700  0.75093200  1
  O  O0  1  0.33827500  0.84019800  0.28531300  1
  O  O1  1  0.84019800  0.33827500  0.28531300  1
  O  O2  1  0.05296200  0.55488500  0.71468700  1
  O  O3  1  0.55488500  0.05296200  0.71468700  1
  O  O4  1  0.44511500  0.15980200  0.49807700  1
  O  O5  1  0.94703800  0.66172500  0.50192300  1
  O  O6  1  0.66172500  0.94703800  0.50192300  1
  O  O7  1  0.15980200  0.44511500  0.49807700  1
  O  O8  1  0.21553300  0.92681300  0.00000000  1
  O  O9  1  0.42881800  0.71264400  0.00000000  1
  O  O10  1  0.71264400  0.42881800  0.00000000  1
  O  O11  1  0.92681300  0.21553300  0.00000000  1
  O  O12  1  0.31891600  0.81883700  0.78296900  1
  O  O13  1  0.53594700  0.03586800  0.21703100  1
  O  O14  1  0.03586800  0.53594700  0.21703100  1
  O  O15  1  0.81883700  0.31891600  0.78296900  1
  O  O16  1  0.58889600  0.58889600  0.78134200  1
  O  O17  1  0.80755400  0.80755400  0.21865800  1
  O  O18  1  0.08776900  0.08776900  0.78232900  1
  O  O19  1  0.30544000  0.30544000  0.21767100  1
  O  O20  1  0.41110400  0.19244600  0.00000000  1
  O  O21  1  0.91223100  0.69456000  0.00000000  1
  O  O22  1  0.19244600  0.41110400  0.00000000  1
  O  O23  1  0.69456000  0.91223100  0.00000000  1
  O  O24  1  0.46405300  0.68108400  0.49992100  1
  O  O25  1  0.18116300  0.96413200  0.50007900  1
  O  O26  1  0.68108400  0.46405300  0.49992100  1
  O  O27  1  0.96413200  0.18116300  0.50007900  1
  O  O28  1  0.57118200  0.57118200  0.28382600  1
  O  O29  1  0.28735600  0.28735600  0.71617400  1
  O  O30  1  0.78446700  0.78446700  0.71128000  1
  O  O31  1  0.07318700  0.07318700  0.28872000  1
loop_
_geom_bond_atom_site_label_1
_geom_bond_atom_site_label_2
_geom_bond_distance
_geom_bond_site_symmetry_2
Na0 O11 2.160232 1_455
Na0 O31 2.160232 1_555
Na0 O8 2.160232 1_545
Na0 O30 2.160232 1_444
Na1 O4 2.138661 1_555
Na1 O7 2.138661 1_555
Na1 O19 2.138900 1_555
Na1 O16 2.155367 1_555
Na2 O5 2.138661 1_555
Na2 O6 2.138661 1_555
Na2 O18 2.138900 1_665
Na2 O17 2.155367 1_555
Na3 O15 2.145936 1_555
Na3 O26 2.145936 1_555
Na3 O13 2.145936 1_555
Na3 O27 2.145936 1_555
Na4 O12 2.145936 1_555
Na4 O14 2.145936 1_555
Na4 O24 2.145936 1_555
Na4 O25 2.145936 1_555
Na5 O3 2.138661 1_554
Na5 O1 2.138661 1_555
Na5 O23 2.138900 1_545
Na5 O20 2.155367 1_555
Na6 O2 2.138661 1_554
Na6 O0 2.138661 1_555
Na6 O21 2.138900 1_455
Na6 O22 2.155367 1_555
O0 Ti7 2.012513 1_555
O0 Ti1 2.024248 1_555
O0 Ti3 2.066678 1_565
O1 Ti5 2.012513 1_555
O1 Ti2 2.024248 1_555
O1 Ti0 2.066678 1_655
O2 Ti4 2.012513 1_555
O2 Ti0 2.024248 1_555
O2 Ti2 2.066678 1_455
O3 Ti6 2.012513 1_555
O3 Ti3 2.024248 1_555
O3 Ti1 2.066678 1_545
O4 Ti3 2.012513 1_555
O4 Ti6 2.024248 1_555
O4 Ti7 2.066678 1_545
O5 Ti2 2.012513 1_555
O5 Ti5 2.024248 1_555
O5 Ti4 2.066678 1_655
O6 Ti1 2.012513 1_555
O6 Ti7 2.024248 1_555
O6 Ti6 2.066678 1_565
O7 Ti0 2.012513 1_555
O7 Ti4 2.024248 1_555
O7 Ti5 2.066678 1_455
O8 Ti10 2.021761 1_565
O8 Ti7 2.028186 1_555
O8 Ti4 2.028186 1_554
O9 Ti4 1.985904 1_554
O9 Ti7 1.985904 1_555
O9 Ti11 2.016488 1_555
O10 Ti5 1.985904 1_555
O10 Ti6 1.985904 1_554
O10 Ti8 2.016488 1_555
O11 Ti9 2.021761 1_655
O11 Ti5 2.028186 1_555
O11 Ti6 2.028186 1_554
O12 Ti4 2.019780 1_555
O12 Ti10 2.042611 1_566
O12 Ti11 2.045137 1_556
O13 Ti7 2.019780 1_545
O13 Ti10 2.042611 1_555
O13 Ti11 2.045137 1_545
O14 Ti5 2.019780 1_455
O14 Ti9 2.042611 1_555
O14 Ti8 2.045137 1_455
O15 Ti6 2.019780 1_555
O15 Ti9 2.042611 1_656
O15 Ti8 2.045137 1_556
O16 Ti15 2.006557 1_555
O16 Ti8 2.040497 1_556
O16 Ti11 2.040497 1_556
O17 Ti13 2.006557 1_555
O17 Ti11 2.040497 1_555
O17 Ti8 2.040497 1_555
O18 Ti9 2.036947 1_556
O18 Ti10 2.036947 1_556
O18 Ti14 2.044745 1_555
O19 Ti10 2.036947 1_555
O19 Ti9 2.036947 1_555
O19 Ti12 2.044745 1_555
O20 Ti10 2.006557 1_555
O20 Ti12 2.040497 1_555
O20 Ti14 2.040497 1_554
O21 Ti13 2.036947 1_555
O21 Ti15 2.036947 1_554
O21 Ti8 2.044745 1_555
O22 Ti9 2.006557 1_555
O22 Ti12 2.040497 1_555
O22 Ti14 2.040497 1_554
O23 Ti13 2.036947 1_555
O23 Ti15 2.036947 1_554
O23 Ti11 2.044745 1_555
O24 Ti1 2.019780 1_555
O24 Ti15 2.042611 1_555
O24 Ti12 2.045137 1_555
O25 Ti3 2.019780 1_565
O25 Ti13 2.042611 1_455
O25 Ti14 2.045137 1_565
O26 Ti2 2.019780 1_555
O26 Ti15 2.042611 1_555
O26 Ti12 2.045137 1_555
O27 Ti0 2.019780 1_655
O27 Ti13 2.042611 1_545
O27 Ti14 2.045137 1_655
O28 Ti2 1.985904 1_555
O28 Ti1 1.985904 1_555
O28 Ti12 2.016488 1_555
O29 Ti0 1.985904 1_555
O29 Ti3 1.985904 1_555
O29 Ti14 2.016488 1_555
O30 Ti15 2.021761 1_555
O30 Ti1 2.028186 1_555
O30 Ti2 2.028186 1_555
O31 Ti13 2.021761 1_445
O31 Ti3 2.028186 1_555
O31 Ti0 2.028186 1_555
