# generated using pymatgen
data_Sb2S19F12
_symmetry_space_group_name_H-M   'P 1'
_cell_length_a   13.66747700
_cell_length_b   14.83957500
_cell_length_c   15.91311694
_cell_angle_alpha   74.64195265
_cell_angle_beta   90.00000000
_cell_angle_gamma   90.00000000
_symmetry_Int_Tables_number   1
_chemical_formula_structural   Sb2S19F12
_chemical_formula_sum   'Sb8 S76 F48'
_cell_volume   3112.23618031
_cell_formula_units_Z   4
loop_
 _symmetry_equiv_pos_site_id
 _symmetry_equiv_pos_as_xyz
  1  'x, y, z'
loop_
 _atom_site_type_symbol
 _atom_site_label
 _atom_site_symmetry_multiplicity
 _atom_site_fract_x
 _atom_site_fract_y
 _atom_site_fract_z
 _atom_site_occupancy
  Sb  Sb0  1  0.28134600  0.02725100  0.59505900  1
  Sb  Sb1  1  0.78134600  0.97274900  0.90494100  1
  Sb  Sb2  1  0.71865400  0.97274900  0.40494100  1
  Sb  Sb3  1  0.21865400  0.02725100  0.09505900  1
  Sb  Sb4  1  0.25163900  0.47700900  0.52604100  1
  Sb  Sb5  1  0.75163900  0.52299100  0.97395900  1
  Sb  Sb6  1  0.74836100  0.52299100  0.47395900  1
  Sb  Sb7  1  0.24836100  0.47700900  0.02604100  1
  S  S0  1  0.08984100  0.59306500  0.77894500  1
  S  S1  1  0.58984100  0.40693500  0.72105500  1
  S  S2  1  0.91015900  0.40693500  0.22105500  1
  S  S3  1  0.41015900  0.59306500  0.27894500  1
  S  S4  1  0.98399400  0.57579300  0.70150300  1
  S  S5  1  0.48399400  0.42420700  0.79849700  1
  S  S6  1  0.01600600  0.42420700  0.29849700  1
  S  S7  1  0.51600600  0.57579300  0.20150300  1
  S  S8  1  0.00494600  0.67839900  0.58092700  1
  S  S9  1  0.50494600  0.32160100  0.91907300  1
  S  S10  1  0.99505400  0.32160100  0.41907300  1
  S  S11  1  0.49505400  0.67839900  0.08092700  1
  S  S12  1  0.89168400  0.76633600  0.58245000  1
  S  S13  1  0.39168400  0.23366400  0.91755000  1
  S  S14  1  0.10831600  0.23366400  0.41755000  1
  S  S15  1  0.60831600  0.76633600  0.08245000  1
  S  S16  1  0.93040300  0.84279200  0.67072300  1
  S  S17  1  0.43040300  0.15720800  0.82927700  1
  S  S18  1  0.06959700  0.15720800  0.32927700  1
  S  S19  1  0.56959700  0.84279200  0.17072300  1
  S  S20  1  0.89957100  0.75534400  0.78938900  1
  S  S21  1  0.39957100  0.24465600  0.71061100  1
  S  S22  1  0.10042900  0.24465600  0.21061100  1
  S  S23  1  0.60042900  0.75534400  0.28938900  1
  S  S24  1  0.03513100  0.70306200  0.84675400  1
  S  S25  1  0.53513100  0.29693800  0.65324600  1
  S  S26  1  0.96486900  0.29693800  0.15324600  1
  S  S27  1  0.46486900  0.70306200  0.34675400  1
  S  S28  1  0.13738800  0.80930100  0.79597400  1
  S  S29  1  0.63738800  0.19069900  0.70402600  1
  S  S30  1  0.86261200  0.19069900  0.20402600  1
  S  S31  1  0.36261200  0.80930100  0.29597400  1
  S  S32  1  0.16181700  0.86458300  0.89908800  1
  S  S33  1  0.66181700  0.13541700  0.60091200  1
  S  S34  1  0.83818300  0.13541700  0.10091200  1
  S  S35  1  0.33818300  0.86458300  0.39908800  1
  S  S36  1  0.28829900  0.80086200  0.95915900  1
  S  S37  1  0.78829900  0.19913800  0.54084100  1
  S  S38  1  0.71170100  0.19913800  0.04084100  1
  S  S39  1  0.21170100  0.80086200  0.45915900  1
  S  S40  1  0.89864300  0.10276800  0.57857100  1
  S  S41  1  0.39864300  0.89723200  0.92142900  1
  S  S42  1  0.10135700  0.89723200  0.42142900  1
  S  S43  1  0.60135700  0.10276800  0.07857100  1
  S  S44  1  0.45460400  0.88944700  0.80309500  1
  S  S45  1  0.95460400  0.11055300  0.69690500  1
  S  S46  1  0.54539600  0.11055300  0.19690500  1
  S  S47  1  0.04539600  0.88944700  0.30309500  1
  S  S48  1  0.55796600  0.78386200  0.84035700  1
  S  S49  1  0.05796600  0.21613800  0.65964300  1
  S  S50  1  0.44203400  0.21613800  0.15964300  1
  S  S51  1  0.94203400  0.78386200  0.34035700  1
  S  S52  1  0.65009200  0.83003300  0.71470100  1
  S  S53  1  0.15009200  0.16996700  0.78529900  1
  S  S54  1  0.34990800  0.16996700  0.28529900  1
  S  S55  1  0.84990800  0.83003300  0.21470100  1
  S  S56  1  0.63763500  0.72982400  0.65567500  1
  S  S57  1  0.13763500  0.27017600  0.84432500  1
  S  S58  1  0.36236500  0.27017600  0.34432500  1
  S  S59  1  0.86236500  0.72982400  0.15567500  1
  S  S60  1  0.51010700  0.76309500  0.57751000  1
  S  S61  1  0.01010700  0.23690500  0.92249000  1
  S  S62  1  0.48989300  0.23690500  0.42249000  1
  S  S63  1  0.98989300  0.76309500  0.07751000  1
  S  S64  1  0.41814900  0.65910900  0.63891700  1
  S  S65  1  0.91814900  0.34089100  0.86108300  1
  S  S66  1  0.58185100  0.34089100  0.36108300  1
  S  S67  1  0.08185100  0.65910900  0.13891700  1
  S  S68  1  0.37223000  0.69143700  0.75403500  1
  S  S69  1  0.87223000  0.30856300  0.74596500  1
  S  S70  1  0.62777000  0.30856300  0.24596500  1
  S  S71  1  0.12777000  0.69143700  0.25403500  1
  S  S72  1  0.98525200  0.34356700  0.66197800  1
  S  S73  1  0.48525200  0.65643300  0.83802200  1
  S  S74  1  0.01474800  0.65643300  0.33802200  1
  S  S75  1  0.51474800  0.34356700  0.16197800  1
  F  F0  1  0.26331700  0.15970700  0.57542900  1
  F  F1  1  0.76331700  0.84029300  0.92457100  1
  F  F2  1  0.73668300  0.84029300  0.42457100  1
  F  F3  1  0.23668300  0.15970700  0.07542900  1
  F  F4  1  0.14145700  0.01118900  0.59050500  1
  F  F5  1  0.64145700  0.98881100  0.90949500  1
  F  F6  1  0.85854300  0.98881100  0.40949500  1
  F  F7  1  0.35854300  0.01118900  0.09050500  1
  F  F8  1  0.27175400  0.01179400  0.71916500  1
  F  F9  1  0.77175400  0.98820600  0.78083500  1
  F  F10  1  0.72824600  0.98820600  0.28083500  1
  F  F11  1  0.22824600  0.01179400  0.21916500  1
  F  F12  1  0.28852300  0.04283100  0.47091000  1
  F  F13  1  0.78852300  0.95716900  0.02909000  1
  F  F14  1  0.71147700  0.95716900  0.52909000  1
  F  F15  1  0.21147700  0.04283100  0.97091000  1
  F  F16  1  0.42042200  0.04413400  0.60089100  1
  F  F17  1  0.92042200  0.95586600  0.89910900  1
  F  F18  1  0.57957800  0.95586600  0.39910900  1
  F  F19  1  0.07957800  0.04413400  0.10089100  1
  F  F20  1  0.29896400  0.89450100  0.61593400  1
  F  F21  1  0.79896400  0.10549900  0.88406600  1
  F  F22  1  0.70103600  0.10549900  0.38406600  1
  F  F23  1  0.20103600  0.89450100  0.11593400  1
  F  F24  1  0.20247200  0.35787900  0.59397400  1
  F  F25  1  0.70247200  0.64212100  0.90602600  1
  F  F26  1  0.79752800  0.64212100  0.40602600  1
  F  F27  1  0.29752800  0.35787900  0.09397400  1
  F  F28  1  0.30524100  0.59488500  0.45913300  1
  F  F29  1  0.80524100  0.40511500  0.04086700  1
  F  F30  1  0.69475900  0.40511500  0.54086700  1
  F  F31  1  0.19475900  0.59488500  0.95913300  1
  F  F32  1  0.38110200  0.43785900  0.56844300  1
  F  F33  1  0.88110200  0.56214100  0.93155700  1
  F  F34  1  0.61889800  0.56214100  0.43155700  1
  F  F35  1  0.11889800  0.43785900  0.06844300  1
  F  F36  1  0.23069200  0.52933700  0.62317500  1
  F  F37  1  0.73069200  0.47066300  0.87682500  1
  F  F38  1  0.76930800  0.47066300  0.37682500  1
  F  F39  1  0.26930800  0.52933700  0.12317500  1
  F  F40  1  0.27104700  0.42724800  0.42764400  1
  F  F41  1  0.77104700  0.57275200  0.07235600  1
  F  F42  1  0.72895300  0.57275200  0.57235600  1
  F  F43  1  0.22895300  0.42724800  0.92764400  1
  F  F44  1  0.12153500  0.51458100  0.48548500  1
  F  F45  1  0.62153500  0.48541900  0.01451500  1
  F  F46  1  0.87846500  0.48541900  0.51451500  1
  F  F47  1  0.37846500  0.51458100  0.98548500  1
loop_
_geom_bond_atom_site_label_1
_geom_bond_atom_site_label_2
_geom_bond_distance
_geom_bond_site_symmetry_2
S0 S4 1.960741 1_455
S0 S24 2.306707 1_555
S1 S5 1.960741 1_555
S1 S25 2.306707 1_555
S2 S6 1.960741 1_655
S2 S26 2.306707 1_555
S3 S7 1.960741 1_555
S4 S8 2.129420 1_655
S5 S9 2.129420 1_555
S10 S14 2.028928 1_655
S10 S6 2.129420 1_655
S11 S15 2.028928 1_555
S11 S7 2.129420 1_555
S12 S8 2.028928 1_655
S12 S16 2.093963 1_555
S13 S9 2.028928 1_555
S13 S17 2.093963 1_555
S14 S18 2.093963 1_555
S15 S19 2.093963 1_555
S16 S20 2.032093 1_555
S17 S21 2.032093 1_555
S18 S22 2.032093 1_555
S19 S23 2.032093 1_555
S20 S24 2.119627 1_655
S21 S25 2.119627 1_555
S22 S26 2.119627 1_455
S23 S27 2.119627 1_555
S24 S28 2.101646 1_555
S25 S29 2.101646 1_555
S26 S30 2.101646 1_555
S27 S31 2.101646 1_555
S27 S3 2.306707 1_555
S28 S32 2.046934 1_555
S29 S33 2.046934 1_555
S30 S34 2.046934 1_555
S31 S35 2.046934 1_555
S32 S36 2.077857 1_555
S33 S37 2.077857 1_555
S34 S38 2.077857 1_555
S35 S39 2.077857 1_555
S36 S41 2.055544 1_555
S37 S40 2.055544 1_555
S38 S43 2.055544 1_555
S39 S42 2.055544 1_555
S40 S45 2.063854 1_555
S41 S44 2.063854 1_555
S42 S47 2.063854 1_555
S43 S46 2.063854 1_555
S44 S48 2.076093 1_555
S45 S49 2.076093 1_655
S46 S50 2.076093 1_555
S47 S51 2.076093 1_455
S48 S73 2.145256 1_555
S48 S52 2.308129 1_555
S49 S72 2.145256 1_455
S49 S53 2.308129 1_555
S50 S75 2.145256 1_555
S50 S54 2.308129 1_555
S51 S74 2.145256 1_655
S51 S55 2.308129 1_555
S52 S56 1.965316 1_555
S53 S57 1.965316 1_555
S54 S58 1.965316 1_555
S55 S59 1.965316 1_555
S56 S60 2.122175 1_555
S57 S61 2.122175 1_555
S58 S62 2.122175 1_555
S59 S63 2.122175 1_555
S60 S64 2.029029 1_555
S61 S65 2.029029 1_455
S62 S66 2.029029 1_555
S63 S67 2.029029 1_655
S64 S68 2.108397 1_555
S65 S69 2.108397 1_555
S66 S70 2.108397 1_555
S67 S71 2.108397 1_555
S68 S73 2.018535 1_555
S69 S72 2.018535 1_555
S70 S75 2.018535 1_555
S71 S74 2.018535 1_555
F0 Sb0 1.922656 1_555
F1 Sb1 1.922656 1_555
F2 Sb2 1.922656 1_555
F3 Sb3 1.922656 1_555
F4 Sb0 1.930463 1_555
F5 Sb1 1.930463 1_555
F6 Sb2 1.930463 1_555
F7 Sb3 1.930463 1_555
F8 Sb0 1.931354 1_555
F9 Sb1 1.931354 1_555
F10 Sb2 1.931354 1_555
F11 Sb3 1.931354 1_555
F12 Sb0 1.929797 1_555
F13 Sb1 1.929797 1_554
F14 Sb2 1.929797 1_555
F15 Sb3 1.929797 1_556
F16 Sb0 1.922708 1_555
F17 Sb1 1.922708 1_555
F18 Sb2 1.922708 1_555
F19 Sb3 1.922708 1_555
F20 Sb0 1.924166 1_565
F21 Sb1 1.924166 1_545
F22 Sb2 1.924166 1_545
F23 Sb3 1.924166 1_565
F24 Sb4 1.932134 1_555
F25 Sb5 1.932134 1_555
F26 Sb6 1.932134 1_555
F27 Sb7 1.932134 1_555
F28 Sb4 1.934839 1_555
F29 Sb5 1.934839 1_554
F30 Sb6 1.934839 1_555
F31 Sb7 1.934839 1_556
F32 Sb4 1.927707 1_555
F33 Sb5 1.927707 1_555
F34 Sb6 1.927707 1_555
F35 Sb7 1.927707 1_555
F36 Sb4 1.926122 1_555
F37 Sb5 1.926122 1_555
F38 Sb6 1.926122 1_555
F39 Sb7 1.926122 1_555
F40 Sb4 1.918292 1_555
F41 Sb5 1.918292 1_554
F42 Sb6 1.918292 1_555
F43 Sb7 1.918292 1_556
F44 Sb4 1.923211 1_555
F45 Sb5 1.923211 1_554
F46 Sb6 1.923211 1_555
F47 Sb7 1.923211 1_556
