# generated using pymatgen
data_Li7CoOF7
_symmetry_space_group_name_H-M   'P 1'
_cell_length_a   5.87549866
_cell_length_b   10.17328197
_cell_length_c   10.17325801
_cell_angle_alpha   70.62985060
_cell_angle_beta   90.05961687
_cell_angle_gamma   90.06656551
_symmetry_Int_Tables_number   1
_chemical_formula_structural   Li7CoOF7
_chemical_formula_sum   'Li28 Co4 O4 F28'
_cell_volume   573.66626789
_cell_formula_units_Z   4
loop_
 _symmetry_equiv_pos_site_id
 _symmetry_equiv_pos_as_xyz
  1  'x, y, z'
loop_
 _atom_site_type_symbol
 _atom_site_label
 _atom_site_symmetry_multiplicity
 _atom_site_fract_x
 _atom_site_fract_y
 _atom_site_fract_z
 _atom_site_occupancy
  Li  Li0  1  0.76843000  0.75002700  0.50002800  1
  Li  Li1  1  0.76942600  0.00096300  0.25011900  1
  Li  Li2  1  0.76842300  0.50023900  0.75005100  1
  Li  Li3  1  0.76868700  0.25015500  0.00089400  1
  Li  Li4  1  0.75329700  0.99989700  0.74983700  1
  Li  Li5  1  0.75326900  0.25008500  0.49976000  1
  Li  Li6  1  0.75327800  0.74986600  0.99999800  1
  Li  Li7  1  0.75331100  0.49984200  0.25008700  1
  Li  Li8  1  0.24828400  0.99987000  0.74976300  1
  Li  Li9  1  0.24827400  0.24996500  0.49952300  1
  Li  Li10  1  0.24832800  0.74982700  0.00004700  1
  Li  Li11  1  0.24819400  0.49981800  0.25010000  1
  Li  Li12  1  0.50799500  0.24464000  0.74561000  1
  Li  Li13  1  0.50874300  0.49515600  0.49519000  1
  Li  Li14  1  0.50759200  0.99509500  0.99482400  1
  Li  Li15  1  0.50826500  0.74558300  0.24484600  1
  Li  Li16  1  0.50761000  0.00542300  0.50410200  1
  Li  Li17  1  0.50586300  0.25527500  0.25491500  1
  Li  Li18  1  0.50867400  0.75475600  0.75479000  1
  Li  Li19  1  0.50717500  0.50416000  0.00570500  1
  Li  Li20  1  0.98768300  0.75151600  0.25086900  1
  Li  Li21  1  0.98801600  0.00239200  0.00188800  1
  Li  Li22  1  0.98691100  0.50136600  0.50105200  1
  Li  Li23  1  0.98792800  0.25041800  0.75190100  1
  Li  Li24  1  0.98770700  0.00007400  0.49715400  1
  Li  Li25  1  0.98998100  0.24788100  0.24762900  1
  Li  Li26  1  0.98693300  0.74842400  0.74895000  1
  Li  Li27  1  0.98815800  0.49724700  0.99994300  1
  Co  Co0  1  0.22073400  0.75028500  0.50043300  1
  Co  Co1  1  0.22084800  0.49932200  0.74947500  1
  Co  Co2  1  0.22273600  0.99816900  0.24960100  1
  Co  Co3  1  0.22258200  0.24976800  0.99816700  1
  O  O0  1  0.00345000  0.87555200  0.37487500  1
  O  O1  1  0.00195000  0.12602100  0.12574300  1
  O  O2  1  0.00071800  0.62501600  0.62505500  1
  O  O3  1  0.00357100  0.37471100  0.87555900  1
  F  F0  1  0.50244500  0.87645500  0.37271400  1
  F  F1  1  0.49699200  0.12569400  0.12488400  1
  F  F2  1  0.49908800  0.62484300  0.62525100  1
  F  F3  1  0.50203100  0.37205800  0.87731700  1
  F  F4  1  0.00055100  0.12497600  0.62497900  1
  F  F5  1  0.00021900  0.37567500  0.37584400  1
  F  F6  1  0.00067900  0.87457800  0.87465000  1
  F  F7  1  0.00044900  0.62538300  0.12504200  1
  F  F8  1  0.50226600  0.12493100  0.62497900  1
  F  F9  1  0.50252900  0.37527800  0.37539700  1
  F  F10  1  0.50215900  0.87487200  0.87494800  1
  F  F11  1  0.50238200  0.62527800  0.12494700  1
  F  F12  1  0.25778200  0.12005100  0.86961900  1
  F  F13  1  0.26192800  0.37138200  0.62160400  1
  F  F14  1  0.25888900  0.87003000  0.12057800  1
  F  F15  1  0.26093700  0.62128300  0.37123800  1
  F  F16  1  0.26172200  0.87857600  0.62838900  1
  F  F17  1  0.25712400  0.13054700  0.37946100  1
  F  F18  1  0.26071200  0.62860200  0.87871500  1
  F  F19  1  0.25677500  0.38024100  0.13053100  1
  F  F20  1  0.74603600  0.12154600  0.87188900  1
  F  F21  1  0.74685400  0.37155100  0.62222100  1
  F  F22  1  0.74630500  0.87218000  0.12147900  1
  F  F23  1  0.74675100  0.62206000  0.37169600  1
  F  F24  1  0.74663700  0.87832500  0.62814900  1
  F  F25  1  0.74513900  0.12836700  0.37825200  1
  F  F26  1  0.74633500  0.62795800  0.87834200  1
  F  F27  1  0.74524300  0.37847700  0.12840400  1
loop_
_geom_bond_atom_site_label_1
_geom_bond_atom_site_label_2
_geom_bond_distance
_geom_bond_site_symmetry_2
Li0 O2 2.006318 1_655
Li0 O0 2.019807 1_655
Li1 O1 2.004454 1_655
Li1 O0 2.013838 1_645
Li2 O2 2.004997 1_655
Li2 O3 2.022070 1_655
Li3 O1 2.005689 1_655
Li3 O3 2.015901 1_654
Li20 O0 2.061018 1_655
Li21 O1 2.055949 1_655
Li22 O2 2.057323 1_655
Li23 O3 2.060235 1_655
Li24 O0 2.051013 1_645
Li25 O1 2.024715 1_655
Li26 O2 2.054634 1_655
Li27 O3 2.051897 1_655
Co0 O0 1.950912 1_555
Co0 O2 1.957127 1_555
Co0 F16 2.140439 1_555
Co0 F15 2.156653 1_555
Co0 F2 2.200306 1_555
Co0 F0 2.229052 1_555
Co1 O3 1.950154 1_555
Co1 O2 1.958793 1_555
Co1 F13 2.137549 1_555
Co1 F18 2.158470 1_555
Co1 F2 2.197558 1_555
Co1 F3 2.231738 1_555
Co2 O0 1.945611 1_555
Co2 O1 1.968661 1_565
Co2 F14 2.145601 1_555
Co2 F0 2.185051 1_555
Co2 F17 2.186040 1_565
Co2 F1 2.190205 1_565
Co3 O3 1.943214 1_555
Co3 O1 1.966125 1_556
Co3 F12 2.154165 1_555
Co3 F3 2.177149 1_555
Co3 F1 2.185318 1_556
Co3 F19 2.190865 1_556
F0 Li1 2.138244 1_565
F0 Li15 2.148258 1_555
F0 Li0 2.160918 1_555
F0 Li16 2.161501 1_565
F1 Li17 2.155667 1_555
F1 Li3 2.163944 1_555
F1 Li14 2.164780 1_544
F1 Li1 2.173392 1_555
F2 Li18 2.154439 1_555
F2 Li13 2.157058 1_555
F2 Li2 2.157767 1_555
F2 Li0 2.161587 1_555
F3 Li3 2.130576 1_556
F3 Li12 2.151543 1_555
F3 Li19 2.162675 1_556
F3 Li2 2.169353 1_555
F4 Li4 2.066507 1_445
F4 Li5 2.068475 1_455
F4 Li8 2.068512 1_545
F4 Li9 2.070576 1_555
F4 Li23 2.096369 1_455
F4 Li24 2.099277 1_455
F5 Li5 2.063483 1_455
F5 Li7 2.065271 1_455
F5 Li9 2.067833 1_555
F5 Li11 2.069334 1_555
F5 Li22 2.084352 1_455
F5 Li25 2.125968 1_455
F6 Li6 2.067641 1_455
F6 Li4 2.068077 1_455
F6 Li8 2.068969 1_555
F6 Li10 2.069240 1_556
F6 Li26 2.092157 1_455
F6 Li21 2.118662 1_466
F7 Li6 2.064668 1_454
F7 Li10 2.067021 1_555
F7 Li7 2.068745 1_455
F7 Li11 2.071630 1_555
F7 Li20 2.093031 1_455
F7 Li27 2.103387 1_454
F8 Li12 1.995370 1_555
F8 Li16 1.995803 1_555
F8 Li4 2.082200 1_545
F8 Li5 2.083861 1_555
F8 Li8 2.094102 1_545
F8 Li9 2.097027 1_555
F9 Li13 1.989856 1_555
F9 Li17 1.996452 1_555
F9 Li5 2.079610 1_555
F9 Li7 2.080884 1_555
F9 Li9 2.093587 1_555
F9 Li11 2.095772 1_555
F10 Li14 1.993337 1_555
F10 Li18 1.994995 1_555
F10 Li6 2.083245 1_555
F10 Li4 2.083438 1_555
F10 Li10 2.094706 1_556
F10 Li8 2.095269 1_555
F11 Li15 1.994249 1_555
F11 Li19 1.995557 1_555
F11 Li6 2.079949 1_554
F11 Li7 2.084619 1_555
F11 Li10 2.092990 1_555
F11 Li11 2.098135 1_555
F12 Li8 1.993316 1_545
F12 Li12 2.073206 1_555
F12 Li14 2.078241 1_545
F12 Li23 2.157407 1_455
F12 Li21 2.165014 1_456
F13 Li9 2.022826 1_555
F13 Li12 2.065377 1_555
F13 Li13 2.065883 1_555
F13 Li23 2.186543 1_455
F13 Li22 2.188332 1_455
F14 Li10 1.999275 1_555
F14 Li15 2.070426 1_555
F14 Li14 2.076195 1_554
F14 Li20 2.165538 1_455
F14 Li21 2.174062 1_465
F15 Li11 2.015201 1_555
F15 Li13 2.069695 1_555
F15 Li15 2.070062 1_555
F15 Li22 2.180762 1_455
F15 Li20 2.181091 1_455
F16 Li8 2.016103 1_555
F16 Li16 2.065989 1_565
F16 Li18 2.066757 1_555
F16 Li26 2.187706 1_455
F16 Li24 2.192660 1_465
F17 Li9 1.988739 1_555
F17 Li17 2.069886 1_555
F17 Li16 2.079411 1_555
F17 Li25 2.150635 1_455
F17 Li24 2.155462 1_455
F18 Li10 2.014940 1_556
F18 Li19 2.069820 1_556
F18 Li18 2.070092 1_555
F18 Li26 2.179198 1_455
F18 Li27 2.185655 1_455
F19 Li11 1.985920 1_555
F19 Li17 2.071879 1_555
F19 Li19 2.074615 1_555
F19 Li27 2.150289 1_454
F19 Li25 2.150445 1_455
F20 Li4 2.023533 1_545
F20 Li12 2.026782 1_555
F20 Li14 2.028295 1_545
F20 Li23 2.041200 1_555
F20 Li21 2.043647 1_556
F20 Li3 2.142479 1_556
F21 Li5 2.025311 1_555
F21 Li13 2.032472 1_555
F21 Li12 2.033866 1_555
F21 Li22 2.042647 1_555
F21 Li23 2.046238 1_555
F21 Li2 2.133025 1_555
F22 Li6 2.024281 1_554
F22 Li15 2.029086 1_555
F22 Li14 2.030407 1_554
F22 Li20 2.044312 1_555
F22 Li21 2.044999 1_565
F22 Li1 2.141065 1_565
F23 Li7 2.024493 1_555
F23 Li13 2.030825 1_555
F23 Li15 2.032858 1_555
F23 Li22 2.039319 1_555
F23 Li20 2.043224 1_555
F23 Li0 2.131243 1_555
F24 Li4 2.019690 1_555
F24 Li18 2.029855 1_555
F24 Li16 2.038357 1_565
F24 Li26 2.042907 1_555
F24 Li24 2.054555 1_565
F24 Li0 2.132620 1_555
F25 Li5 2.019582 1_555
F25 Li16 2.022048 1_555
F25 Li17 2.035598 1_555
F25 Li24 2.037482 1_555
F25 Li25 2.059564 1_555
F25 Li1 2.126269 1_555
F26 Li6 2.022244 1_555
F26 Li18 2.029463 1_555
F26 Li19 2.038812 1_556
F26 Li26 2.040288 1_555
F26 Li27 2.055945 1_555
F26 Li2 2.129341 1_555
F27 Li7 2.018097 1_555
F27 Li19 2.022705 1_555
F27 Li17 2.033514 1_555
F27 Li27 2.038945 1_554
F27 Li25 2.058126 1_555
F27 Li3 2.128380 1_555
