# generated using pymatgen
data_Ti3FeSn2(PO4)6
_symmetry_space_group_name_H-M   'P 1'
_cell_length_a   9.15808312
_cell_length_b   9.15808312
_cell_length_c   9.15808326
_cell_angle_alpha   56.40601554
_cell_angle_beta   56.40601554
_cell_angle_gamma   56.40601740
_symmetry_Int_Tables_number   1
_chemical_formula_structural   Ti3FeSn2(PO4)6
_chemical_formula_sum   'Ti3 Fe1 Sn2 P6 O24'
_cell_volume   497.98654589
_cell_formula_units_Z   1
loop_
 _symmetry_equiv_pos_site_id
 _symmetry_equiv_pos_as_xyz
  1  'x, y, z'
loop_
 _atom_site_type_symbol
 _atom_site_label
 _atom_site_symmetry_multiplicity
 _atom_site_fract_x
 _atom_site_fract_y
 _atom_site_fract_z
 _atom_site_occupancy
  Ti  Ti0  1  0.85551000  0.85551000  0.85551000  1
  Ti  Ti1  1  0.64730700  0.64730700  0.64730700  1
  Ti  Ti2  1  0.34335000  0.34335000  0.34335000  1
  Fe  Fe0  1  0.15317400  0.15317400  0.15317400  1
  Sn  Sn0  1  0.01747000  0.01747000  0.01747000  1
  Sn  Sn1  1  0.48555400  0.48555400  0.48555400  1
  P  P0  1  0.47152600  0.03691000  0.74226500  1
  P  P1  1  0.03691000  0.74226500  0.47152600  1
  P  P2  1  0.74226500  0.47152600  0.03691000  1
  P  P3  1  0.25055900  0.54014700  0.95367400  1
  P  P4  1  0.95367400  0.25055900  0.54014700  1
  P  P5  1  0.54014700  0.95367400  0.25055900  1
  O  O0  1  0.69537900  0.51165400  0.87897000  1
  O  O1  1  0.51165400  0.87897000  0.69537900  1
  O  O2  1  0.06821200  0.71430600  0.94104800  1
  O  O3  1  0.87897000  0.69537900  0.51165400  1
  O  O4  1  0.24804700  0.37278200  0.96029600  1
  O  O5  1  0.41606900  0.59699100  0.78149500  1
  O  O6  1  0.94104800  0.06821200  0.71430600  1
  O  O7  1  0.78149500  0.41606900  0.59699100  1
  O  O8  1  0.63347500  0.00650600  0.77859600  1
  O  O9  1  0.59699100  0.78149500  0.41606900  1
  O  O10  1  0.28651600  0.05727800  0.91388600  1
  O  O11  1  0.00650600  0.77859600  0.63347500  1
  O  O12  1  0.96029600  0.24804700  0.37278200  1
  O  O13  1  0.71430600  0.94104800  0.06821200  1
  O  O14  1  0.44493300  0.22240700  0.56655800  1
  O  O15  1  0.37278200  0.96029600  0.24804700  1
  O  O16  1  0.22240700  0.56655800  0.44493300  1
  O  O17  1  0.05727800  0.91388600  0.28651600  1
  O  O18  1  0.56655800  0.44493300  0.22240700  1
  O  O19  1  0.77859600  0.63347500  0.00650600  1
  O  O20  1  0.13294200  0.27343400  0.50077500  1
  O  O21  1  0.91388600  0.28651600  0.05727800  1
  O  O22  1  0.50077500  0.13294200  0.27343400  1
  O  O23  1  0.27343400  0.50077500  0.13294200  1
loop_
_geom_bond_atom_site_label_1
_geom_bond_atom_site_label_2
_geom_bond_distance
_geom_bond_site_symmetry_2
Fe0 O4 2.055242 1_554
Fe0 O12 2.055242 1_455
Fe0 O15 2.055242 1_545
Fe0 O17 2.246422 1_545
Fe0 O21 2.246422 1_455
Fe0 O10 2.246422 1_554
O0 P2 1.528405 1_556
O0 Ti1 1.936492 1_555
O1 P0 1.528405 1_565
O1 Ti1 1.936492 1_555
O2 P3 1.551819 1_555
O2 Ti0 1.964808 1_455
O3 P1 1.528405 1_655
O3 Ti1 1.936492 1_555
O4 P3 1.512653 1_555
O5 P3 1.541050 1_555
O5 Ti1 1.944353 1_555
O6 P4 1.551819 1_555
O6 Ti0 1.964808 1_545
O7 P4 1.541050 1_555
O7 Ti1 1.944353 1_555
O8 P0 1.540945 1_555
O8 Ti0 1.984599 1_545
O9 P5 1.541050 1_555
O9 Ti1 1.944353 1_555
O10 P0 1.550368 1_555
O10 Sn0 2.264642 1_556
O11 P1 1.540945 1_555
O11 Ti0 1.984599 1_455
O12 P4 1.512653 1_555
O13 P5 1.551819 1_555
O13 Ti0 1.964808 1_554
O14 P0 1.576504 1_555
O14 Ti2 2.174743 1_555
O14 Sn1 2.281397 1_555
O15 P5 1.512653 1_555
O16 P1 1.576504 1_555
O16 Ti2 2.174743 1_555
O16 Sn1 2.281397 1_555
O17 P1 1.550368 1_555
O17 Sn0 2.264642 1_565
O18 P2 1.576504 1_555
O18 Ti2 2.174743 1_555
O18 Sn1 2.281397 1_555
O19 P2 1.540945 1_555
O19 Ti0 1.984599 1_554
O20 P4 1.584669 1_455
O20 Ti2 1.863101 1_555
O21 P2 1.550368 1_555
O21 Sn0 2.264642 1_655
O22 P5 1.584669 1_545
O22 Ti2 1.863101 1_555
O23 P3 1.584669 1_554
O23 Ti2 1.863101 1_555
