# generated using pymatgen
data_Fe3O4
_symmetry_space_group_name_H-M   'P 1'
_cell_length_a   6.00772866
_cell_length_b   6.00772866
_cell_length_c   5.04953885
_cell_angle_alpha   77.02659664
_cell_angle_beta   77.02659664
_cell_angle_gamma   59.56673052
_symmetry_Int_Tables_number   1
_chemical_formula_structural   Fe3O4
_chemical_formula_sum   'Fe6 O8'
_cell_volume   151.79325816
_cell_formula_units_Z   2
loop_
 _symmetry_equiv_pos_site_id
 _symmetry_equiv_pos_as_xyz
  1  'x, y, z'
loop_
 _atom_site_type_symbol
 _atom_site_label
 _atom_site_symmetry_multiplicity
 _atom_site_fract_x
 _atom_site_fract_y
 _atom_site_fract_z
 _atom_site_occupancy
  Fe  Fe0  1  0.24908300  0.24908300  0.50548800  1
  Fe  Fe1  1  0.75091700  0.75091700  0.49451200  1
  Fe  Fe2  1  0.00000000  0.00000000  0.00000000  1
  Fe  Fe3  1  0.50000000  0.50000000  0.00000000  1
  Fe  Fe4  1  0.24945700  0.75054300  0.50000000  1
  Fe  Fe5  1  0.75054300  0.24945700  0.50000000  1
  O  O0  1  0.60352100  0.60352100  0.29283400  1
  O  O1  1  0.86026200  0.35819600  0.76130300  1
  O  O2  1  0.35819600  0.86026200  0.76130300  1
  O  O3  1  0.10338000  0.10338000  0.29303500  1
  O  O4  1  0.39647900  0.39647900  0.70716600  1
  O  O5  1  0.89662000  0.89662000  0.70696500  1
  O  O6  1  0.64180400  0.13973800  0.23869700  1
  O  O7  1  0.13973800  0.64180400  0.23869700  1
loop_
_geom_bond_atom_site_label_1
_geom_bond_atom_site_label_2
_geom_bond_distance
_geom_bond_site_symmetry_2
Fe0 O4 2.051722 1_555
Fe0 O3 2.074330 1_555
Fe0 O2 2.242545 1_545
Fe0 O1 2.242545 1_455
Fe0 O6 2.283214 1_555
Fe0 O7 2.283214 1_555
Fe1 O0 2.051722 1_555
Fe1 O5 2.074330 1_555
Fe1 O6 2.242545 1_565
Fe1 O7 2.242545 1_655
Fe1 O1 2.283214 1_555
Fe1 O2 2.283214 1_555
Fe2 O5 2.043773 1_444
Fe2 O3 2.043773 1_555
Fe2 O1 2.061058 1_454
Fe2 O2 2.061058 1_544
Fe2 O7 2.061058 1_545
Fe2 O6 2.061058 1_455
Fe3 O0 2.043951 1_555
Fe3 O4 2.043951 1_554
Fe3 O6 2.069965 1_555
Fe3 O2 2.069965 1_554
Fe3 O1 2.069965 1_554
Fe3 O7 2.069965 1_555
Fe4 O7 1.953461 1_555
Fe4 O2 1.953461 1_555
Fe4 O5 1.971862 1_455
Fe4 O3 1.971862 1_565
Fe4 O4 1.977755 1_555
Fe4 O0 1.977755 1_555
Fe5 O6 1.953461 1_555
Fe5 O1 1.953461 1_555
Fe5 O5 1.971862 1_545
Fe5 O3 1.971862 1_655
Fe5 O4 1.977755 1_555
Fe5 O0 1.977755 1_555
