# generated using pymatgen
data_Li2MnF4
_symmetry_space_group_name_H-M   'P 1'
_cell_length_a   5.28365200
_cell_length_b   5.97137100
_cell_length_c   9.46915600
_cell_angle_alpha   90.00000000
_cell_angle_beta   90.00000000
_cell_angle_gamma   90.00000000
_symmetry_Int_Tables_number   1
_chemical_formula_structural   Li2MnF4
_chemical_formula_sum   'Li8 Mn4 F16'
_cell_volume   298.75799197
_cell_formula_units_Z   4
loop_
 _symmetry_equiv_pos_site_id
 _symmetry_equiv_pos_as_xyz
  1  'x, y, z'
loop_
 _atom_site_type_symbol
 _atom_site_label
 _atom_site_symmetry_multiplicity
 _atom_site_fract_x
 _atom_site_fract_y
 _atom_site_fract_z
 _atom_site_occupancy
  Li  Li0  1  0.00000000  0.00000000  0.00000000  1
  Li  Li1  1  0.00000000  0.50000000  0.00000000  1
  Li  Li2  1  0.46446200  0.75000000  0.21795100  1
  Li  Li3  1  0.96446200  0.25000000  0.28204900  1
  Li  Li4  1  0.50000000  0.00000000  0.50000000  1
  Li  Li5  1  0.50000000  0.50000000  0.50000000  1
  Li  Li6  1  0.03553800  0.75000000  0.71795100  1
  Li  Li7  1  0.53553800  0.25000000  0.78204900  1
  Mn  Mn0  1  0.46936400  0.25000000  0.15756500  1
  Mn  Mn1  1  0.96936400  0.75000000  0.34243500  1
  Mn  Mn2  1  0.03063600  0.25000000  0.65756500  1
  Mn  Mn3  1  0.53063600  0.75000000  0.84243500  1
  F  F0  1  0.68286700  0.75000000  0.04813800  1
  F  F1  1  0.82428000  0.25000000  0.07269900  1
  F  F2  1  0.19136800  0.99208000  0.19553100  1
  F  F3  1  0.19136800  0.50792000  0.19553100  1
  F  F4  1  0.69136800  0.49208000  0.30446900  1
  F  F5  1  0.69136800  0.00792000  0.30446900  1
  F  F6  1  0.32428000  0.75000000  0.42730100  1
  F  F7  1  0.18286700  0.25000000  0.45186200  1
  F  F8  1  0.81713300  0.75000000  0.54813800  1
  F  F9  1  0.67572000  0.25000000  0.57269900  1
  F  F10  1  0.30863200  0.99208000  0.69553100  1
  F  F11  1  0.30863200  0.50792000  0.69553100  1
  F  F12  1  0.80863200  0.49208000  0.80446900  1
  F  F13  1  0.80863200  0.00792000  0.80446900  1
  F  F14  1  0.17572000  0.75000000  0.92730100  1
  F  F15  1  0.31713300  0.25000000  0.95186200  1
loop_
_geom_bond_atom_site_label_1
_geom_bond_atom_site_label_2
_geom_bond_distance
_geom_bond_site_symmetry_2
F0 Li2 1.979212 1_555
F0 Mn3 2.107371 1_554
F0 Li0 2.289991 1_665
F0 Li1 2.289991 1_655
F1 Li0 1.887983 1_655
F1 Li1 1.887983 1_655
F1 Mn0 2.040186 1_555
F1 Li3 2.116218 1_555
F2 Li2 2.053471 1_555
F2 Li0 2.110144 1_565
F2 Li3 2.116728 1_465
F2 Mn0 2.158411 1_565
F2 Mn1 2.323911 1_455
F3 Li2 2.053471 1_555
F3 Li1 2.110144 1_555
F3 Li3 2.116728 1_455
F3 Mn0 2.158411 1_555
F3 Mn1 2.323911 1_455
F4 Li3 2.053471 1_555
F4 Li5 2.110144 1_555
F4 Li2 2.116728 1_555
F4 Mn1 2.158411 1_555
F4 Mn0 2.323911 1_555
F5 Li3 2.053471 1_555
F5 Li4 2.110144 1_555
F5 Li2 2.116728 1_545
F5 Mn1 2.158411 1_545
F5 Mn0 2.323911 1_555
F6 Li4 1.887983 1_565
F6 Li5 1.887983 1_555
F6 Mn1 2.040186 1_455
F6 Li2 2.116218 1_555
F7 Li3 1.979212 1_455
F7 Mn2 2.107371 1_555
F7 Li4 2.289991 1_555
F7 Li5 2.289991 1_555
F8 Li6 1.979212 1_655
F8 Mn1 2.107371 1_555
F8 Li4 2.289991 1_565
F8 Li5 2.289991 1_555
F9 Li4 1.887983 1_555
F9 Li5 1.887983 1_555
F9 Mn2 2.040186 1_655
F9 Li7 2.116218 1_555
F10 Li6 2.053471 1_555
F10 Li4 2.110144 1_565
F10 Li7 2.116728 1_565
F10 Mn2 2.158411 1_565
F10 Mn3 2.323911 1_555
F11 Li6 2.053471 1_555
F11 Li5 2.110144 1_555
F11 Li7 2.116728 1_555
F11 Mn2 2.158411 1_555
F11 Mn3 2.323911 1_555
F12 Li7 2.053471 1_555
F12 Li1 2.110144 1_656
F12 Li6 2.116728 1_655
F12 Mn3 2.158411 1_555
F12 Mn2 2.323911 1_655
F13 Li7 2.053471 1_555
F13 Li0 2.110144 1_656
F13 Li6 2.116728 1_645
F13 Mn3 2.158411 1_545
F13 Mn2 2.323911 1_655
F14 Li1 1.887983 1_556
F14 Li0 1.887983 1_566
F14 Mn3 2.040186 1_555
F14 Li6 2.116218 1_555
F15 Li7 1.979212 1_555
F15 Mn0 2.107371 1_556
F15 Li0 2.289991 1_556
F15 Li1 2.289991 1_556
