# generated using pymatgen
data_Li3Cr2Fe5O12
_symmetry_space_group_name_H-M   'P 1'
_cell_length_a   5.19021742
_cell_length_b   5.19021742
_cell_length_c   10.03698681
_cell_angle_alpha   84.51652073
_cell_angle_beta   84.51652073
_cell_angle_gamma   120.97326996
_symmetry_Int_Tables_number   1
_chemical_formula_structural   Li3Cr2Fe5O12
_chemical_formula_sum   'Li3 Cr2 Fe5 O12'
_cell_volume   227.42244996
_cell_formula_units_Z   1
loop_
 _symmetry_equiv_pos_site_id
 _symmetry_equiv_pos_as_xyz
  1  'x, y, z'
loop_
 _atom_site_type_symbol
 _atom_site_label
 _atom_site_symmetry_multiplicity
 _atom_site_fract_x
 _atom_site_fract_y
 _atom_site_fract_z
 _atom_site_occupancy
  Li  Li0  1  0.67238100  0.83388400  0.74122000  1
  Li  Li1  1  0.16611600  0.32761900  0.25878000  1
  Li  Li2  1  0.08842700  0.91157300  0.50000000  1
  Cr  Cr0  1  0.75383100  0.24616900  0.50000000  1
  Cr  Cr1  1  0.24866200  0.75133800  0.00000000  1
  Fe  Fe0  1  0.91915400  0.08084600  0.00000000  1
  Fe  Fe1  1  0.00170600  0.51824800  0.74425400  1
  Fe  Fe2  1  0.48175200  0.99829400  0.25574600  1
  Fe  Fe3  1  0.58120900  0.41879100  0.00000000  1
  Fe  Fe4  1  0.42684500  0.57315500  0.50000000  1
  O  O0  1  0.87008300  0.36173900  0.11266800  1
  O  O1  1  0.94887500  0.77680600  0.88902400  1
  O  O2  1  0.71513800  0.53986700  0.60258200  1
  O  O3  1  0.63826100  0.12991700  0.88733200  1
  O  O4  1  0.46013300  0.28486200  0.39741800  1
  O  O5  1  0.77019200  0.98977900  0.38569400  1
  O  O6  1  0.22319400  0.05112500  0.11097600  1
  O  O7  1  0.53167800  0.71586100  0.11074500  1
  O  O8  1  0.39400800  0.85151200  0.61276000  1
  O  O9  1  0.01022100  0.22980800  0.61430600  1
  O  O10  1  0.28413900  0.46832200  0.88925500  1
  O  O11  1  0.14848800  0.60599200  0.38724000  1
loop_
_geom_bond_atom_site_label_1
_geom_bond_atom_site_label_2
_geom_bond_distance
_geom_bond_site_symmetry_2
Li0 O8 2.056170 1_555
Li0 O9 2.069815 1_665
Li0 O10 2.195877 1_555
Li0 O2 2.238221 1_555
Li0 O1 2.260183 1_555
Li0 O3 2.281201 1_565
Li1 O11 2.056170 1_555
Li1 O5 2.069815 1_445
Li1 O7 2.195877 1_555
Li1 O4 2.238221 1_555
Li1 O6 2.260183 1_555
Li1 O0 2.281201 1_455
Li2 O2 1.981834 1_455
Li2 O4 1.981834 1_565
Li2 O11 2.162891 1_555
Li2 O8 2.162891 1_555
Li2 O5 2.274291 1_455
Li2 O9 2.274291 1_565
Cr0 O5 1.866485 1_545
Cr0 O9 1.866485 1_655
Cr0 O2 1.999908 1_555
Cr0 O4 1.999908 1_555
Cr0 O11 2.044507 1_655
Cr0 O8 2.044507 1_545
Cr1 O10 1.994612 1_554
Cr1 O7 1.994612 1_555
Cr1 O1 2.047917 1_454
Cr1 O6 2.047917 1_565
Cr1 O0 2.068168 1_455
Cr1 O3 2.068168 1_564
Fe0 O0 2.027650 1_555
Fe0 O3 2.027650 1_554
Fe0 O10 2.029205 1_654
Fe0 O7 2.029205 1_545
Fe0 O6 2.075650 1_655
Fe0 O1 2.075650 1_544
Fe1 O8 2.074778 1_555
Fe1 O9 2.091550 1_555
Fe1 O1 2.159332 1_455
Fe1 O3 2.167665 1_455
Fe1 O2 2.189123 1_455
Fe1 O10 2.249604 1_555
Fe2 O11 2.074778 1_555
Fe2 O5 2.091550 1_555
Fe2 O6 2.159332 1_565
Fe2 O0 2.167665 1_565
Fe2 O4 2.189123 1_565
Fe2 O7 2.249604 1_555
Fe3 O1 1.970658 1_554
Fe3 O6 1.970658 1_555
Fe3 O3 2.081216 1_554
Fe3 O0 2.081216 1_555
Fe3 O7 2.088028 1_555
Fe3 O10 2.088028 1_554
Fe4 O2 1.963519 1_555
Fe4 O4 1.963519 1_555
Fe4 O11 1.981483 1_555
Fe4 O8 1.981483 1_555
Fe4 O9 2.082465 1_555
Fe4 O5 2.082465 1_555
