# generated using pymatgen
data_Li2NbNi3O8
_symmetry_space_group_name_H-M   'P 1'
_cell_length_a   5.87620765
_cell_length_b   5.87620765
_cell_length_c   9.63638900
_cell_angle_alpha   90.00000000
_cell_angle_beta   90.00000000
_cell_angle_gamma   119.99999604
_symmetry_Int_Tables_number   1
_chemical_formula_structural   Li2NbNi3O8
_chemical_formula_sum   'Li4 Nb2 Ni6 O16'
_cell_volume   288.16367919
_cell_formula_units_Z   2
loop_
 _symmetry_equiv_pos_site_id
 _symmetry_equiv_pos_as_xyz
  1  'x, y, z'
loop_
 _atom_site_type_symbol
 _atom_site_label
 _atom_site_symmetry_multiplicity
 _atom_site_fract_x
 _atom_site_fract_y
 _atom_site_fract_z
 _atom_site_occupancy
  Li  Li0  1  0.33333300  0.66666700  0.89391500  1
  Li  Li1  1  0.00000000  0.00000000  0.99241200  1
  Li  Li2  1  0.00000000  0.00000000  0.49241200  1
  Li  Li3  1  0.66666700  0.33333300  0.39391500  1
  Nb  Nb0  1  0.33333300  0.66666700  0.49612600  1
  Nb  Nb1  1  0.66666700  0.33333300  0.99612600  1
  Ni  Ni0  1  0.16852100  0.83147900  0.21540700  1
  Ni  Ni1  1  0.16852100  0.33704200  0.21540700  1
  Ni  Ni2  1  0.66295800  0.83147900  0.21540700  1
  Ni  Ni3  1  0.33704200  0.16852100  0.71540700  1
  Ni  Ni4  1  0.83147900  0.66295800  0.71540700  1
  Ni  Ni5  1  0.83147900  0.16852100  0.71540700  1
  O  O0  1  0.16389400  0.83610600  0.59262200  1
  O  O1  1  0.03414300  0.51707200  0.34240000  1
  O  O2  1  0.33333300  0.66666700  0.11818300  1
  O  O3  1  0.00000000  0.00000000  0.30254200  1
  O  O4  1  0.00000000  0.00000000  0.80254200  1
  O  O5  1  0.16389400  0.32778800  0.59262200  1
  O  O6  1  0.48292800  0.96585700  0.34240000  1
  O  O7  1  0.48292800  0.51707200  0.34240000  1
  O  O8  1  0.32778800  0.16389400  0.09262200  1
  O  O9  1  0.67221200  0.83610600  0.59262200  1
  O  O10  1  0.51707200  0.48292800  0.84240000  1
  O  O11  1  0.51707200  0.03414300  0.84240000  1
  O  O12  1  0.66666700  0.33333300  0.61818300  1
  O  O13  1  0.83610600  0.67221200  0.09262200  1
  O  O14  1  0.96585700  0.48292800  0.84240000  1
  O  O15  1  0.83610600  0.16389400  0.09262200  1
loop_
_geom_bond_atom_site_label_1
_geom_bond_atom_site_label_2
_geom_bond_distance
_geom_bond_site_symmetry_2
Li0 O14 1.934832 1_455
Li0 O11 1.934832 1_565
Li0 O10 1.934842 1_555
Li0 O2 2.161134 1_556
Li1 O4 1.829661 1_555
Li1 O15 1.927445 1_456
Li1 O13 1.927445 1_446
Li1 O8 1.927445 1_556
Li2 O3 1.829661 1_555
Li2 O0 1.927445 1_545
Li2 O9 1.927445 1_445
Li2 O5 1.927445 1_555
Li3 O6 1.934832 1_545
Li3 O1 1.934832 1_655
Li3 O7 1.934842 1_555
Li3 O12 2.161134 1_555
Nb0 O0 1.959253 1_555
Nb0 O5 1.959258 1_555
Nb0 O9 1.959258 1_555
Nb0 O7 2.124295 1_555
Nb0 O6 2.124296 1_555
Nb0 O1 2.124296 1_555
Nb1 O15 1.959253 1_556
Nb1 O8 1.959258 1_556
Nb1 O13 1.959258 1_556
Nb1 O10 2.124295 1_555
Nb1 O14 2.124296 1_555
Nb1 O11 2.124296 1_555
Ni0 O3 1.909689 1_565
Ni0 O2 1.921343 1_555
Ni0 O1 2.018803 1_555
Ni0 O6 2.018803 1_555
Ni0 O8 2.064773 1_565
Ni0 O13 2.064773 1_455
Ni1 O3 1.909689 1_555
Ni1 O2 1.921348 1_555
Ni1 O7 2.018803 1_555
Ni1 O1 2.018807 1_555
Ni1 O8 2.064773 1_555
Ni1 O15 2.064773 1_455
Ni2 O3 1.909689 1_665
Ni2 O2 1.921348 1_555
Ni2 O7 2.018803 1_555
Ni2 O6 2.018807 1_555
Ni2 O13 2.064773 1_555
Ni2 O15 2.064773 1_565
Ni3 O4 1.909689 1_555
Ni3 O12 1.921348 1_555
Ni3 O10 2.018803 1_555
Ni3 O11 2.018807 1_555
Ni3 O5 2.064773 1_555
Ni3 O0 2.064773 1_545
Ni4 O4 1.909689 1_665
Ni4 O12 1.921348 1_555
Ni4 O10 2.018803 1_555
Ni4 O14 2.018807 1_555
Ni4 O9 2.064773 1_555
Ni4 O0 2.064773 1_655
Ni5 O4 1.909689 1_655
Ni5 O12 1.921343 1_555
Ni5 O11 2.018803 1_555
Ni5 O14 2.018803 1_555
Ni5 O9 2.064773 1_545
Ni5 O5 2.064773 1_655
