# generated using pymatgen
data_Li2CoNiO4
_symmetry_space_group_name_H-M   'P 1'
_cell_length_a   5.02141219
_cell_length_b   5.85575021
_cell_length_c   5.85137559
_cell_angle_alpha   118.72441405
_cell_angle_beta   105.68745295
_cell_angle_gamma   74.37626733
_symmetry_Int_Tables_number   1
_chemical_formula_structural   Li2CoNiO4
_chemical_formula_sum   'Li4 Co2 Ni2 O8'
_cell_volume   143.26876567
_cell_formula_units_Z   2
loop_
 _symmetry_equiv_pos_site_id
 _symmetry_equiv_pos_as_xyz
  1  'x, y, z'
loop_
 _atom_site_type_symbol
 _atom_site_label
 _atom_site_symmetry_multiplicity
 _atom_site_fract_x
 _atom_site_fract_y
 _atom_site_fract_z
 _atom_site_occupancy
  Li  Li0  1  0.50000000  0.25000000  0.75000000  1
  Li  Li1  1  0.50000000  0.75000000  0.25000000  1
  Li  Li2  1  0.99729000  0.49975800  0.00024800  1
  Li  Li3  1  0.00270900  0.00024200  0.49975200  1
  Co  Co0  1  0.50000000  0.75000000  0.75000000  1
  Co  Co1  1  0.50000000  0.25000000  0.25000000  1
  Ni  Ni0  1  0.99995800  0.00078300  0.00079500  1
  Ni  Ni1  1  0.00004200  0.49921700  0.49920500  1
  O  O0  1  0.73890600  0.88006300  0.12070500  1
  O  O1  1  0.73889100  0.37807500  0.61871400  1
  O  O2  1  0.26110900  0.12192500  0.88128600  1
  O  O3  1  0.26109400  0.61993700  0.37929500  1
  O  O4  1  0.27095800  0.64413200  0.85597400  1
  O  O5  1  0.27150900  0.14045800  0.35963100  1
  O  O6  1  0.72849100  0.35954200  0.14036900  1
  O  O7  1  0.72904200  0.85586800  0.64402600  1
loop_
_geom_bond_atom_site_label_1
_geom_bond_atom_site_label_2
_geom_bond_distance
_geom_bond_site_symmetry_2
Li0 O1 2.031813 1_555
Li0 O2 2.031813 1_555
Li0 O5 2.125144 1_555
Li0 O6 2.125144 1_556
Li0 O4 2.148063 1_555
Li0 O7 2.148063 1_545
Li1 O3 2.031840 1_555
Li1 O0 2.031840 1_555
Li1 O5 2.128579 1_565
Li1 O6 2.128579 1_555
Li1 O4 2.144541 1_554
Li1 O7 2.144541 1_555
Li2 O0 2.137532 1_555
Li2 O2 2.138744 1_654
Li2 O1 2.139586 1_554
Li2 O3 2.140629 1_655
Li2 O6 2.238457 1_555
Li2 O4 2.292373 1_654
Li3 O3 2.137534 1_545
Li3 O1 2.138742 1_455
Li3 O2 2.139588 1_555
Li3 O0 2.140627 1_445
Li3 O5 2.238461 1_555
Li3 O7 2.292369 1_445
Co0 O7 1.797449 1_555
Co0 O4 1.797449 1_555
Co0 O0 2.054589 1_556
Co0 O3 2.054589 1_555
Co0 O2 2.062845 1_565
Co0 O1 2.062845 1_555
Co1 O5 1.824647 1_555
Co1 O6 1.824647 1_555
Co1 O2 2.045952 1_554
Co1 O1 2.045952 1_555
Co1 O3 2.054248 1_555
Co1 O0 2.054248 1_545
Ni0 O0 2.045383 1_545
Ni0 O2 2.045882 1_654
Ni0 O7 2.076546 1_544
Ni0 O4 2.079242 1_644
Ni0 O5 2.082955 1_655
Ni0 O6 2.085411 1_555
Ni1 O3 2.045383 1_555
Ni1 O1 2.045882 1_455
Ni1 O4 2.076546 1_555
Ni1 O7 2.079242 1_455
Ni1 O6 2.082955 1_455
Ni1 O5 2.085411 1_555
