# generated using pymatgen
data_Li8Mn3Fe5(BO3)8
_symmetry_space_group_name_H-M   'P 1'
_cell_length_a   6.00471772
_cell_length_b   5.23466282
_cell_length_c   16.23778007
_cell_angle_alpha   90.59711223
_cell_angle_beta   97.95674267
_cell_angle_gamma   89.42916543
_symmetry_Int_Tables_number   1
_chemical_formula_structural   Li8Mn3Fe5(BO3)8
_chemical_formula_sum   'Li8 Mn3 Fe5 B8 O24'
_cell_volume   505.43700635
_cell_formula_units_Z   1
loop_
 _symmetry_equiv_pos_site_id
 _symmetry_equiv_pos_as_xyz
  1  'x, y, z'
loop_
 _atom_site_type_symbol
 _atom_site_label
 _atom_site_symmetry_multiplicity
 _atom_site_fract_x
 _atom_site_fract_y
 _atom_site_fract_z
 _atom_site_occupancy
  Li  Li0  1  0.06971700  0.84747800  0.61071300  1
  Li  Li1  1  0.43110200  0.15377400  0.88722900  1
  Li  Li2  1  0.18500500  0.65087000  0.13953200  1
  Li  Li3  1  0.31427500  0.34849600  0.36130000  1
  Li  Li4  1  0.68386800  0.65223100  0.64060700  1
  Li  Li5  1  0.80948700  0.34758200  0.85764000  1
  Li  Li6  1  0.56888600  0.84724800  0.11117400  1
  Li  Li7  1  0.93091600  0.15225800  0.38899500  1
  Mn  Mn0  1  0.27422300  0.66909800  0.95936100  1
  Mn  Mn1  1  0.77243700  0.66914500  0.45952500  1
  Mn  Mn2  1  0.72662400  0.32778400  0.04061500  1
  Fe  Fe0  1  0.02992900  0.16411300  0.21170900  1
  Fe  Fe1  1  0.22322700  0.32357500  0.54128800  1
  Fe  Fe2  1  0.52516600  0.16741200  0.70791300  1
  Fe  Fe3  1  0.47188200  0.82520700  0.28812100  1
  Fe  Fe4  1  0.96901000  0.82853400  0.78970200  1
  B  B0  1  0.03849900  0.33183700  0.70354700  1
  B  B1  1  0.28452100  0.83018900  0.45372100  1
  B  B2  1  0.46216600  0.67266500  0.79587800  1
  B  B3  1  0.21720500  0.16826400  0.04875900  1
  B  B4  1  0.78357300  0.83100300  0.95146800  1
  B  B5  1  0.53799300  0.32611700  0.20575000  1
  B  B6  1  0.71574500  0.16898200  0.54781200  1
  B  B7  1  0.96298300  0.67242700  0.29597400  1
  O  O0  1  0.01480500  0.59407500  0.69196300  1
  O  O1  1  0.16918900  0.18867400  0.65374300  1
  O  O2  1  0.17622300  0.70626900  0.51177700  1
  O  O3  1  0.33077200  0.28706200  0.99061700  1
  O  O4  1  0.07856000  0.79455300  0.23842000  1
  O  O5  1  0.32601000  0.81832100  0.84250500  1
  O  O6  1  0.08392600  0.31548300  0.09639100  1
  O  O7  1  0.26016000  0.09200400  0.44137300  1
  O  O8  1  0.48611200  0.41333200  0.80738600  1
  O  O9  1  0.23991500  0.90807000  0.06153500  1
  O  O10  1  0.41521900  0.68707100  0.40389400  1
  O  O11  1  0.42057400  0.20759700  0.26239200  1
  O  O12  1  0.58060400  0.79984300  0.74027900  1
  O  O13  1  0.58427700  0.31799700  0.59570900  1
  O  O14  1  0.76098200  0.09047800  0.93798500  1
  O  O15  1  0.51456600  0.58831000  0.19257000  1
  O  O16  1  0.73988100  0.90896700  0.56127400  1
  O  O17  1  0.91557600  0.68405300  0.90322500  1
  O  O18  1  0.67204200  0.18167000  0.15808400  1
  O  O19  1  0.92587000  0.20914400  0.76043000  1
  O  O20  1  0.67140800  0.71189000  0.00985900  1
  O  O21  1  0.82738300  0.28742700  0.48901400  1
  O  O22  1  0.82996800  0.81852500  0.34324800  1
  O  O23  1  0.98754000  0.41289900  0.30799500  1
loop_
_geom_bond_atom_site_label_1
_geom_bond_atom_site_label_2
_geom_bond_distance
_geom_bond_site_symmetry_2
Li0 O0 1.942807 1_555
Li0 O2 1.945897 1_555
Li0 O1 1.978543 1_565
Li0 O16 2.055049 1_455
Li1 O8 1.949419 1_555
Li1 O5 1.969192 1_545
Li1 O3 1.978716 1_555
Li1 O14 2.062374 1_555
Li2 O9 1.919740 1_555
Li2 O4 1.949865 1_555
Li2 O6 1.954293 1_555
Li2 O15 2.070315 1_555
Li3 O7 1.939300 1_555
Li3 O11 1.944360 1_555
Li3 O10 1.966391 1_555
Li3 O23 2.057876 1_455
Li4 O16 1.934876 1_555
Li4 O13 1.955453 1_555
Li4 O12 1.960398 1_555
Li4 O0 2.066745 1_655
Li5 O14 1.935924 1_555
Li5 O19 1.943345 1_555
Li5 O17 1.980042 1_555
Li5 O8 2.026991 1_555
Li6 O20 1.958286 1_555
Li6 O15 1.963673 1_555
Li6 O18 1.972723 1_565
Li6 O9 2.050653 1_555
Li7 O21 1.942063 1_555
Li7 O22 1.959735 1_545
Li7 O23 1.969129 1_555
Li7 O7 2.063756 1_655
Mn0 O3 2.081374 1_555
Mn0 O9 2.099062 1_556
Mn0 O5 2.122827 1_555
Mn0 O17 2.220258 1_455
Mn0 O20 2.424063 1_556
Mn1 O21 2.072166 1_555
Mn1 O16 2.094088 1_555
Mn1 O22 2.124234 1_555
Mn1 O10 2.210683 1_555
Mn1 O2 2.464315 1_655
Mn2 O20 2.088999 1_555
Mn2 O14 2.099944 1_554
Mn2 O18 2.130544 1_555
Mn2 O6 2.210897 1_655
Mn2 O3 2.413879 1_554
Fe0 O4 1.996731 1_545
Fe0 O23 2.065520 1_455
Fe0 O6 2.107937 1_555
Fe0 O18 2.205578 1_455
Fe0 O11 2.388254 1_555
Fe1 O1 2.033170 1_555
Fe1 O7 2.050376 1_555
Fe1 O2 2.072123 1_555
Fe1 O13 2.225052 1_555
Fe1 O21 2.419327 1_455
Fe2 O12 2.012227 1_545
Fe2 O13 2.069146 1_555
Fe2 O8 2.092034 1_555
Fe2 O1 2.198167 1_555
Fe2 O19 2.450070 1_555
Fe3 O15 2.018515 1_555
Fe3 O11 2.060510 1_565
Fe3 O10 2.093552 1_555
Fe3 O22 2.211825 1_555
Fe3 O4 2.394213 1_555
Fe4 O0 2.043084 1_655
Fe4 O19 2.058619 1_565
Fe4 O17 2.066536 1_555
Fe4 O5 2.196179 1_655
Fe4 O12 2.364817 1_555
B0 O19 1.384550 1_455
B0 O0 1.390714 1_555
B0 O1 1.408124 1_555
B1 O2 1.386805 1_555
B1 O7 1.390510 1_565
B1 O10 1.408273 1_555
B2 O8 1.375651 1_555
B2 O12 1.401342 1_555
B2 O5 1.403541 1_555
B3 O9 1.382429 1_545
B3 O3 1.393558 1_554
B3 O6 1.406852 1_555
B4 O14 1.380406 1_565
B4 O20 1.392428 1_556
B4 O17 1.407425 1_555
B5 O11 1.388559 1_555
B5 O15 1.394010 1_555
B5 O18 1.402446 1_555
B6 O16 1.383783 1_545
B6 O21 1.393971 1_555
B6 O13 1.407696 1_555
B7 O23 1.378059 1_555
B7 O22 1.399075 1_555
B7 O4 1.401632 1_655
