# generated using pymatgen
data_Li4V3CrO8
_symmetry_space_group_name_H-M   'P 1'
_cell_length_a   5.17035800
_cell_length_b   7.91002197
_cell_length_c   7.91484516
_cell_angle_alpha   81.97444303
_cell_angle_beta   83.75237736
_cell_angle_gamma   70.96499601
_symmetry_Int_Tables_number   1
_chemical_formula_structural   Li4V3CrO8
_chemical_formula_sum   'Li8 V6 Cr2 O16'
_cell_volume   302.30814659
_cell_formula_units_Z   2
loop_
 _symmetry_equiv_pos_site_id
 _symmetry_equiv_pos_as_xyz
  1  'x, y, z'
loop_
 _atom_site_type_symbol
 _atom_site_label
 _atom_site_symmetry_multiplicity
 _atom_site_fract_x
 _atom_site_fract_y
 _atom_site_fract_z
 _atom_site_occupancy
  Li  Li0  1  0.99963400  0.68662600  0.93786800  1
  Li  Li1  1  0.00232100  0.43557200  0.68748100  1
  Li  Li2  1  0.99767900  0.56442800  0.31251900  1
  Li  Li3  1  0.99970900  0.06311000  0.80994700  1
  Li  Li4  1  0.00204800  0.18531500  0.43900400  1
  Li  Li5  1  0.00036600  0.31337400  0.06213200  1
  Li  Li6  1  0.99795200  0.81468500  0.56099600  1
  Li  Li7  1  0.00029100  0.93689000  0.19005300  1
  V  V0  1  0.50008300  0.37499300  0.87471100  1
  V  V1  1  0.50000000  0.50000000  0.50000000  1
  V  V2  1  0.49991700  0.62500700  0.12528900  1
  V  V3  1  0.49881300  0.25079400  0.24983400  1
  V  V4  1  0.50118700  0.74920600  0.75016600  1
  V  V5  1  0.50000000  0.00000000  0.00000000  1
  Cr  Cr0  1  0.50033000  0.12401000  0.62398800  1
  Cr  Cr1  1  0.49967000  0.87599000  0.37601200  1
  O  O0  1  0.73313500  0.53314200  0.90814300  1
  O  O1  1  0.27038700  0.58905600  0.71788700  1
  O  O2  1  0.72695400  0.66322500  0.53211100  1
  O  O3  1  0.27415500  0.21233200  0.84100200  1
  O  O4  1  0.72668800  0.28469800  0.65575500  1
  O  O5  1  0.72961300  0.41094400  0.28211300  1
  O  O6  1  0.27304600  0.33677500  0.46788900  1
  O  O7  1  0.72681800  0.91105100  0.78021200  1
  O  O8  1  0.72566300  0.03514600  0.40850200  1
  O  O9  1  0.26686500  0.46685800  0.09185700  1
  O  O10  1  0.27433700  0.96485400  0.59149800  1
  O  O11  1  0.72953200  0.16105000  0.03201100  1
  O  O12  1  0.27318200  0.08894900  0.21978800  1
  O  O13  1  0.72584500  0.78766800  0.15899800  1
  O  O14  1  0.27331200  0.71530200  0.34424500  1
  O  O15  1  0.27046800  0.83895000  0.96798900  1
loop_
_geom_bond_atom_site_label_1
_geom_bond_atom_site_label_2
_geom_bond_distance
_geom_bond_site_symmetry_2
Li0 O9 2.150496 1_656
Li0 O0 2.160878 1_555
Li0 O15 2.173217 1_655
Li0 O1 2.174121 1_655
Li0 O13 2.195282 1_556
Li0 O7 2.197565 1_555
Li1 O1 2.169017 1_555
Li1 O3 2.173403 1_555
Li1 O6 2.174169 1_555
Li1 O0 2.174778 1_455
Li1 O4 2.188430 1_455
Li1 O2 2.207339 1_455
Li2 O5 2.169017 1_555
Li2 O13 2.173403 1_555
Li2 O2 2.174169 1_555
Li2 O9 2.174778 1_655
Li2 O14 2.188430 1_655
Li2 O6 2.207339 1_655
Li3 O3 2.171774 1_655
Li3 O4 2.172091 1_555
Li3 O10 2.175011 1_645
Li3 O7 2.179715 1_545
Li3 O11 2.186462 1_556
Li3 O15 2.193419 1_645
Li4 O10 2.158816 1_545
Li4 O6 2.166105 1_555
Li4 O12 2.167847 1_555
Li4 O4 2.168635 1_455
Li4 O8 2.184879 1_455
Li4 O5 2.198501 1_455
Li5 O0 2.150496 1_454
Li5 O9 2.160878 1_555
Li5 O11 2.173217 1_455
Li5 O5 2.174121 1_455
Li5 O3 2.195282 1_554
Li5 O12 2.197565 1_555
Li6 O8 2.158816 1_565
Li6 O2 2.166105 1_555
Li6 O7 2.167847 1_555
Li6 O14 2.168635 1_655
Li6 O10 2.184879 1_655
Li6 O1 2.198501 1_655
Li7 O13 2.171774 1_455
Li7 O14 2.172091 1_555
Li7 O8 2.175011 1_465
Li7 O12 2.179715 1_565
Li7 O15 2.186462 1_554
Li7 O11 2.193419 1_465
Cr0 O8 2.031843 1_555
Cr0 O10 2.032649 1_545
Cr0 O3 2.042263 1_555
Cr0 O4 2.042574 1_555
Cr0 O7 2.045633 1_545
Cr0 O6 2.045766 1_555
Cr1 O10 2.031843 1_555
Cr1 O8 2.032649 1_565
Cr1 O13 2.042263 1_555
Cr1 O14 2.042574 1_555
Cr1 O12 2.045633 1_565
Cr1 O2 2.045766 1_555
O0 V0 2.057164 1_555
O0 V2 2.064460 1_556
O0 V4 2.077322 1_555
O1 V1 2.056156 1_555
O1 V4 2.058355 1_555
O1 V0 2.059233 1_555
O2 V4 2.043328 1_555
O2 V1 2.062352 1_555
O3 V5 2.053890 1_556
O3 V0 2.057971 1_555
O4 V1 2.054275 1_555
O4 V0 2.060095 1_555
O5 V1 2.056156 1_555
O5 V3 2.058355 1_555
O5 V2 2.059233 1_555
O6 V3 2.043328 1_555
O6 V1 2.062352 1_555
O7 V4 2.043518 1_555
O7 V5 2.063013 1_566
O8 V3 2.068787 1_555
O9 V2 2.057164 1_555
O9 V0 2.064460 1_554
O9 V3 2.077322 1_555
O10 V4 2.068787 1_555
O11 V5 2.058437 1_555
O11 V3 2.059364 1_555
O11 V0 2.060311 1_554
O12 V3 2.043518 1_555
O12 V5 2.063013 1_555
O13 V5 2.053890 1_565
O13 V2 2.057971 1_555
O14 V1 2.054275 1_555
O14 V2 2.060095 1_555
O15 V5 2.058437 1_566
O15 V4 2.059364 1_555
O15 V2 2.060311 1_556
