# generated using pymatgen
data_Fe3Co2Sb(PO4)6
_symmetry_space_group_name_H-M   'P 1'
_cell_length_a   8.55753467
_cell_length_b   8.55753467
_cell_length_c   8.55753444
_cell_angle_alpha   60.91392344
_cell_angle_beta   60.91392344
_cell_angle_gamma   60.91391886
_symmetry_Int_Tables_number   1
_chemical_formula_structural   Fe3Co2Sb(PO4)6
_chemical_formula_sum   'Fe3 Co2 Sb1 P6 O24'
_cell_volume   452.25739677
_cell_formula_units_Z   1
loop_
 _symmetry_equiv_pos_site_id
 _symmetry_equiv_pos_as_xyz
  1  'x, y, z'
loop_
 _atom_site_type_symbol
 _atom_site_label
 _atom_site_symmetry_multiplicity
 _atom_site_fract_x
 _atom_site_fract_y
 _atom_site_fract_z
 _atom_site_occupancy
  Fe  Fe0  1  0.35463800  0.35463800  0.35463800  1
  Fe  Fe1  1  0.14519600  0.14519600  0.14519600  1
  Fe  Fe2  1  0.64338700  0.64338700  0.64338700  1
  Co  Co0  1  0.00690800  0.00690800  0.00690800  1
  Co  Co1  1  0.49932800  0.49932800  0.49932800  1
  Sb  Sb0  1  0.85735100  0.85735100  0.85735100  1
  P  P0  1  0.74605000  0.04713200  0.45228200  1
  P  P1  1  0.04713200  0.45228200  0.74605000  1
  P  P2  1  0.45228200  0.74605000  0.04713200  1
  P  P3  1  0.54111000  0.25241100  0.95319900  1
  P  P4  1  0.95319900  0.54111000  0.25241100  1
  P  P5  1  0.25241100  0.95319900  0.54111000  1
  O  O0  1  0.88812500  0.50085200  0.68176400  1
  O  O1  1  0.50085200  0.68176400  0.88812500  1
  O  O2  1  0.68176400  0.88812500  0.50085200  1
  O  O3  1  0.90994900  0.05917700  0.26066000  1
  O  O4  1  0.81330000  0.01144800  0.61263900  1
  O  O5  1  0.58925500  0.24343000  0.44082500  1
  O  O6  1  0.05917700  0.26066000  0.90994900  1
  O  O7  1  0.24343000  0.44082500  0.58925500  1
  O  O8  1  0.39034200  0.17962600  0.99433900  1
  O  O9  1  0.44082500  0.58925500  0.24343000  1
  O  O10  1  0.74409600  0.08623600  0.93970000  1
  O  O11  1  0.99433900  0.39034200  0.17962600  1
  O  O12  1  0.01144800  0.61263900  0.81330000  1
  O  O13  1  0.26066000  0.90994900  0.05917700  1
  O  O14  1  0.56239900  0.40697700  0.75511000  1
  O  O15  1  0.61263900  0.81330000  0.01144800  1
  O  O16  1  0.75511000  0.56239900  0.40697700  1
  O  O17  1  0.93970000  0.74409600  0.08623600  1
  O  O18  1  0.40697700  0.75511000  0.56239900  1
  O  O19  1  0.17962600  0.99433900  0.39034200  1
  O  O20  1  0.08623600  0.93970000  0.74409600  1
  O  O21  1  0.31069400  0.11076900  0.50928500  1
  O  O22  1  0.50928500  0.31069400  0.11076900  1
  O  O23  1  0.11076900  0.50928500  0.31069400  1
loop_
_geom_bond_atom_site_label_1
_geom_bond_atom_site_label_2
_geom_bond_distance
_geom_bond_site_symmetry_2
Fe0 O23 1.960103 1_555
Fe0 O22 1.960103 1_555
Fe0 O21 1.960103 1_555
Fe0 O5 2.092916 1_555
Fe0 O7 2.092916 1_555
Fe0 O9 2.092916 1_555
Fe1 O11 1.937115 1_455
Fe1 O19 1.937115 1_545
Fe1 O8 1.937115 1_554
Fe1 O13 2.090585 1_545
Fe1 O6 2.090585 1_554
Fe1 O3 2.090585 1_455
Fe2 O0 1.943588 1_555
Fe2 O1 1.943588 1_555
Fe2 O2 1.943588 1_555
Fe2 O18 2.079838 1_555
Fe2 O16 2.079838 1_555
Fe2 O14 2.079838 1_555
Co0 O3 2.106100 1_455
Co0 O13 2.106100 1_545
Co0 O6 2.106100 1_554
Co0 O20 2.289834 1_544
Co0 O10 2.289834 1_454
Co0 O17 2.289834 1_445
Co1 O9 2.165920 1_555
Co1 O5 2.165920 1_555
Co1 O7 2.165920 1_555
Co1 O14 2.181527 1_555
Co1 O18 2.181527 1_555
Co1 O16 2.181528 1_555
O0 P1 1.510807 1_655
O1 P2 1.510807 1_556
O2 P0 1.510807 1_565
O3 P0 1.551425 1_555
O4 P0 1.580215 1_555
O4 Sb0 1.966156 1_545
O5 P0 1.551830 1_555
O6 P1 1.551425 1_555
O7 P1 1.551830 1_555
O8 P3 1.517570 1_555
O9 P2 1.551830 1_555
O10 P3 1.617386 1_555
O10 Sb0 2.026008 1_545
O11 P4 1.517570 1_555
O12 P1 1.580215 1_555
O12 Sb0 1.966156 1_455
O13 P2 1.551425 1_555
O14 P3 1.552532 1_555
O15 P2 1.580215 1_555
O15 Sb0 1.966156 1_554
O16 P4 1.552532 1_555
O17 P4 1.617386 1_555
O17 Sb0 2.026008 1_554
O18 P5 1.552531 1_555
O19 P5 1.517570 1_555
O20 P5 1.617386 1_555
O20 Sb0 2.026008 1_455
O21 P5 1.518521 1_545
O22 P3 1.518521 1_554
O23 P4 1.518521 1_455
