# generated using pymatgen
data_TaIn3O7
_symmetry_space_group_name_H-M   'P 1'
_cell_length_a   7.31931000
_cell_length_b   7.49386300
_cell_length_c   10.51179600
_cell_angle_alpha   90.00000000
_cell_angle_beta   90.00000000
_cell_angle_gamma   90.00000000
_symmetry_Int_Tables_number   1
_chemical_formula_structural   TaIn3O7
_chemical_formula_sum   'Ta4 In12 O28'
_cell_volume   576.57102664
_cell_formula_units_Z   4
loop_
 _symmetry_equiv_pos_site_id
 _symmetry_equiv_pos_as_xyz
  1  'x, y, z'
loop_
 _atom_site_type_symbol
 _atom_site_label
 _atom_site_symmetry_multiplicity
 _atom_site_fract_x
 _atom_site_fract_y
 _atom_site_fract_z
 _atom_site_occupancy
  Ta  Ta0  1  0.50075800  0.74219200  0.25000000  1
  Ta  Ta1  1  0.99924200  0.24219200  0.75000000  1
  Ta  Ta2  1  0.00075800  0.75780800  0.25000000  1
  Ta  Ta3  1  0.49924200  0.25780800  0.75000000  1
  In  In0  1  0.50751700  0.79786300  0.75000000  1
  In  In1  1  0.75055400  0.98451900  0.00864000  1
  In  In2  1  0.75055400  0.98451900  0.49136000  1
  In  In3  1  0.74944600  0.48451900  0.50864000  1
  In  In4  1  0.74944600  0.48451900  0.99136000  1
  In  In5  1  0.99248300  0.29786300  0.25000000  1
  In  In6  1  0.00751700  0.70213700  0.75000000  1
  In  In7  1  0.25055400  0.51548100  0.00864000  1
  In  In8  1  0.25055400  0.51548100  0.49136000  1
  In  In9  1  0.24944600  0.01548100  0.50864000  1
  In  In10  1  0.24944600  0.01548100  0.99136000  1
  In  In11  1  0.49248300  0.20213700  0.25000000  1
  O  O0  1  0.52464700  0.04392700  0.62286600  1
  O  O1  1  0.52464700  0.04392700  0.87713400  1
  O  O2  1  0.52444200  0.57688100  0.10975000  1
  O  O3  1  0.52444200  0.57688100  0.39025000  1
  O  O4  1  0.75104500  0.31692200  0.75000000  1
  O  O5  1  0.75373800  0.73812100  0.61597600  1
  O  O6  1  0.75373800  0.73812100  0.88402400  1
  O  O7  1  0.74626200  0.23812100  0.11597600  1
  O  O8  1  0.74626200  0.23812100  0.38402400  1
  O  O9  1  0.74895500  0.81692200  0.25000000  1
  O  O10  1  0.97555800  0.07688100  0.60975000  1
  O  O11  1  0.97555800  0.07688100  0.89025000  1
  O  O12  1  0.97535300  0.54392700  0.12286600  1
  O  O13  1  0.97535300  0.54392700  0.37713400  1
  O  O14  1  0.02464700  0.45607300  0.62286600  1
  O  O15  1  0.02464700  0.45607300  0.87713400  1
  O  O16  1  0.02444200  0.92311900  0.10975000  1
  O  O17  1  0.02444200  0.92311900  0.39025000  1
  O  O18  1  0.25104500  0.18307800  0.75000000  1
  O  O19  1  0.25373800  0.76187900  0.61597600  1
  O  O20  1  0.25373800  0.76187900  0.88402400  1
  O  O21  1  0.24626200  0.26187900  0.11597600  1
  O  O22  1  0.24626200  0.26187900  0.38402400  1
  O  O23  1  0.24895500  0.68307800  0.25000000  1
  O  O24  1  0.47555800  0.42311900  0.60975000  1
  O  O25  1  0.47555800  0.42311900  0.89025000  1
  O  O26  1  0.47535300  0.95607300  0.12286600  1
  O  O27  1  0.47535300  0.95607300  0.37713400  1
loop_
_geom_bond_atom_site_label_1
_geom_bond_atom_site_label_2
_geom_bond_distance
_geom_bond_site_symmetry_2
In0 O1 2.280774 1_565
In0 O0 2.280774 1_565
In0 O6 2.330891 1_555
In0 O5 2.330891 1_555
In0 O20 2.346867 1_555
In0 O19 2.346867 1_555
In1 O11 2.177159 1_564
In1 O1 2.200713 1_564
In1 O7 2.210380 1_565
In1 O6 2.264054 1_554
In1 O16 2.315181 1_655
In1 O26 2.354676 1_555
In2 O10 2.177159 1_565
In2 O0 2.200713 1_565
In2 O8 2.210380 1_565
In2 O5 2.264054 1_555
In2 O17 2.315181 1_655
In2 O27 2.354676 1_555
In3 O3 2.177159 1_555
In3 O13 2.200713 1_555
In3 O5 2.210380 1_555
In3 O8 2.264054 1_555
In3 O24 2.315181 1_555
In3 O14 2.354676 1_655
In4 O2 2.177159 1_556
In4 O12 2.200713 1_556
In4 O6 2.210380 1_555
In4 O7 2.264054 1_556
In4 O25 2.315181 1_555
In4 O15 2.354676 1_655
In5 O13 2.280774 1_555
In5 O12 2.280774 1_555
In5 O8 2.330891 1_555
In5 O7 2.330891 1_555
In5 O22 2.346867 1_655
In5 O21 2.346867 1_655
In6 O15 2.280774 1_555
In6 O14 2.280774 1_555
In6 O20 2.330891 1_555
In6 O19 2.330891 1_555
In6 O6 2.346867 1_455
In6 O5 2.346867 1_455
In7 O25 2.177159 1_554
In7 O15 2.200713 1_554
In7 O21 2.210380 1_555
In7 O20 2.264054 1_554
In7 O2 2.315181 1_555
In7 O12 2.354676 1_455
In8 O24 2.177159 1_555
In8 O14 2.200713 1_555
In8 O22 2.210380 1_555
In8 O19 2.264054 1_555
In8 O3 2.315181 1_555
In8 O13 2.354676 1_455
In9 O17 2.177159 1_545
In9 O27 2.200713 1_545
In9 O19 2.210380 1_545
In9 O22 2.264054 1_555
In9 O10 2.315181 1_455
In9 O0 2.354676 1_555
In10 O16 2.177159 1_546
In10 O26 2.200713 1_546
In10 O20 2.210380 1_545
In10 O21 2.264054 1_556
In10 O11 2.315181 1_455
In10 O1 2.354676 1_555
In11 O27 2.280774 1_545
In11 O26 2.280774 1_545
In11 O22 2.330891 1_555
In11 O21 2.330891 1_555
In11 O8 2.346867 1_555
In11 O7 2.346867 1_555
O0 Ta3 2.095116 1_555
O1 Ta3 2.095116 1_555
O2 Ta0 1.933448 1_555
O3 Ta0 1.933448 1_555
O4 Ta3 1.895516 1_555
O4 Ta1 1.900991 1_555
O9 Ta2 1.895516 1_655
O9 Ta0 1.900991 1_555
O10 Ta1 1.933448 1_555
O11 Ta1 1.933448 1_555
O12 Ta2 2.095116 1_655
O13 Ta2 2.095116 1_655
O14 Ta1 2.095116 1_455
O15 Ta1 2.095116 1_455
O16 Ta2 1.933448 1_555
O17 Ta2 1.933448 1_555
O18 Ta1 1.895516 1_455
O18 Ta3 1.900991 1_555
O23 Ta0 1.895516 1_555
O23 Ta2 1.900991 1_555
O24 Ta3 1.933448 1_555
O25 Ta3 1.933448 1_555
O26 Ta0 2.095116 1_555
O27 Ta0 2.095116 1_555
