# generated using pymatgen
data_LiVPO5
_symmetry_space_group_name_H-M   'P 1'
_cell_length_a   6.34184100
_cell_length_b   10.58401600
_cell_length_c   12.74251500
_cell_angle_alpha   90.00000000
_cell_angle_beta   90.00000000
_cell_angle_gamma   90.00000000
_symmetry_Int_Tables_number   1
_chemical_formula_structural   LiVPO5
_chemical_formula_sum   'Li8 V8 P8 O40'
_cell_volume   855.30496005
_cell_formula_units_Z   8
loop_
 _symmetry_equiv_pos_site_id
 _symmetry_equiv_pos_as_xyz
  1  'x, y, z'
loop_
 _atom_site_type_symbol
 _atom_site_label
 _atom_site_symmetry_multiplicity
 _atom_site_fract_x
 _atom_site_fract_y
 _atom_site_fract_z
 _atom_site_occupancy
  Li  Li0  1  0.95890700  0.03485800  0.10175300  1
  Li  Li1  1  0.35499700  0.76378900  0.17140900  1
  Li  Li2  1  0.85499700  0.26378900  0.32859100  1
  Li  Li3  1  0.45890700  0.53485800  0.39824700  1
  Li  Li4  1  0.54109300  0.03485800  0.60175300  1
  Li  Li5  1  0.14500300  0.76378900  0.67140900  1
  Li  Li6  1  0.64500300  0.26378900  0.82859100  1
  Li  Li7  1  0.04109300  0.53485800  0.89824700  1
  V  V0  1  0.98829900  0.50661900  0.12881600  1
  V  V1  1  0.27210800  0.26268400  0.24500200  1
  V  V2  1  0.77210800  0.76268400  0.25499800  1
  V  V3  1  0.48829900  0.00661900  0.37118400  1
  V  V4  1  0.51170100  0.50661900  0.62881600  1
  V  V5  1  0.22789200  0.26268400  0.74500200  1
  V  V6  1  0.72789200  0.76268400  0.75499800  1
  V  V7  1  0.01170100  0.00661900  0.87118400  1
  P  P0  1  0.82365500  0.77258000  0.00472300  1
  P  P1  1  0.49367000  0.52211900  0.18552900  1
  P  P2  1  0.99367000  0.02211900  0.31447100  1
  P  P3  1  0.32365500  0.27258000  0.49527700  1
  P  P4  1  0.67634500  0.77258000  0.50472300  1
  P  P5  1  0.00633000  0.52211900  0.68552900  1
  P  P6  1  0.50633000  0.02211900  0.81447100  1
  P  P7  1  0.17634500  0.27258000  0.99527700  1
  O  O0  1  0.03256400  0.39316700  0.00059400  1
  O  O1  1  0.96471000  0.65208400  0.01180800  1
  O  O2  1  0.31907700  0.26724900  0.09310400  1
  O  O3  1  0.67830000  0.78345200  0.10311600  1
  O  O4  1  0.68049000  0.49315200  0.11319500  1
  O  O5  1  0.29805100  0.55861800  0.12057200  1
  O  O6  1  0.02181000  0.38633700  0.21989600  1
  O  O7  1  0.95170300  0.64559200  0.22671900  1
  O  O8  1  0.95498200  0.91209100  0.23533800  1
  O  O9  1  0.03070700  0.13610800  0.23644800  1
  O  O10  1  0.53070700  0.63610800  0.26355200  1
  O  O11  1  0.45498200  0.41209100  0.26466200  1
  O  O12  1  0.45170300  0.14559200  0.27328100  1
  O  O13  1  0.52181000  0.88633700  0.28010400  1
  O  O14  1  0.79805100  0.05861800  0.37942800  1
  O  O15  1  0.18049000  0.99315200  0.38680500  1
  O  O16  1  0.17830000  0.28345200  0.39688400  1
  O  O17  1  0.81907700  0.76724900  0.40689600  1
  O  O18  1  0.46471000  0.15208400  0.48819200  1
  O  O19  1  0.53256400  0.89316700  0.49940600  1
  O  O20  1  0.46743600  0.39316700  0.50059400  1
  O  O21  1  0.53529000  0.65208400  0.51180800  1
  O  O22  1  0.18092300  0.26724900  0.59310400  1
  O  O23  1  0.82170000  0.78345200  0.60311600  1
  O  O24  1  0.81951000  0.49315200  0.61319500  1
  O  O25  1  0.20194900  0.55861800  0.62057200  1
  O  O26  1  0.47819000  0.38633700  0.71989600  1
  O  O27  1  0.54829700  0.64559200  0.72671900  1
  O  O28  1  0.54501800  0.91209100  0.73533800  1
  O  O29  1  0.46929300  0.13610800  0.73644800  1
  O  O30  1  0.96929300  0.63610800  0.76355200  1
  O  O31  1  0.04501800  0.41209100  0.76466200  1
  O  O32  1  0.04829700  0.14559200  0.77328100  1
  O  O33  1  0.97819000  0.88633700  0.78010400  1
  O  O34  1  0.70194900  0.05861800  0.87942800  1
  O  O35  1  0.31951000  0.99315200  0.88680500  1
  O  O36  1  0.32170000  0.28345200  0.89688400  1
  O  O37  1  0.68092300  0.76724900  0.90689600  1
  O  O38  1  0.03529000  0.15208400  0.98819200  1
  O  O39  1  0.96743600  0.89316700  0.99940600  1
loop_
_geom_bond_atom_site_label_1
_geom_bond_atom_site_label_2
_geom_bond_distance
_geom_bond_site_symmetry_2
Li0 O38 1.966724 1_654
Li0 O39 1.988148 1_544
Li0 O9 2.074030 1_655
Li0 O8 2.141610 1_545
Li1 O10 2.108680 1_555
Li1 O13 2.172522 1_555
Li1 O3 2.237070 1_555
Li1 O5 2.294692 1_555
Li2 O9 2.108680 1_655
Li2 O6 2.172522 1_655
Li2 O16 2.237070 1_655
Li2 O14 2.294692 1_555
Li3 O21 1.966724 1_555
Li3 O20 1.988148 1_555
Li3 O10 2.074030 1_555
Li3 O11 2.141610 1_555
Li4 O18 1.966724 1_555
Li4 O19 1.988148 1_545
Li4 O29 2.074030 1_555
Li4 O28 2.141610 1_545
Li5 O30 2.108680 1_455
Li5 O33 2.172522 1_455
Li5 O23 2.237070 1_455
Li5 O25 2.294692 1_555
Li6 O29 2.108680 1_555
Li6 O26 2.172522 1_555
Li6 O36 2.237070 1_555
Li6 O34 2.294692 1_555
Li7 O1 1.966724 1_456
Li7 O0 1.988148 1_556
Li7 O30 2.074030 1_455
Li7 O31 2.141610 1_555
O0 P7 1.570020 1_554
O0 V0 2.046999 1_455
O1 P0 1.560397 1_555
O1 V0 2.148434 1_555
O2 P7 1.541576 1_554
O2 V1 1.958944 1_555
O3 P0 1.560429 1_555
O3 V2 2.036628 1_555
O4 P1 1.532080 1_555
O4 V0 1.967368 1_555
O5 P1 1.540583 1_555
O5 V0 2.042741 1_455
O6 V0 1.735750 1_455
O6 V1 2.082028 1_555
O7 V2 1.721325 1_555
O7 V0 1.942607 1_555
O8 P2 1.559847 1_565
O8 V2 1.976965 1_555
O9 P2 1.580877 1_455
O9 V1 2.037245 1_555
O10 P1 1.580877 1_555
O10 V2 2.037245 1_555
O11 P1 1.559847 1_555
O11 V1 1.976965 1_555
O12 V1 1.721325 1_555
O12 V3 1.942607 1_555
O13 V3 1.735750 1_565
O13 V2 2.082028 1_555
O14 P2 1.540583 1_555
O14 V3 2.042741 1_555
O15 P2 1.532080 1_465
O15 V3 1.967368 1_565
O16 P3 1.560429 1_555
O16 V1 2.036628 1_555
O17 P4 1.541576 1_555
O17 V2 1.958944 1_555
O18 P3 1.560397 1_555
O18 V3 2.148434 1_555
O19 P4 1.570020 1_555
O19 V3 2.046999 1_565
O20 P3 1.570020 1_555
O20 V4 2.046999 1_555
O21 P4 1.560397 1_555
O21 V4 2.148434 1_555
O22 P3 1.541576 1_555
O22 V5 1.958944 1_555
O23 P4 1.560429 1_555
O23 V6 2.036628 1_555
O24 P5 1.532080 1_655
O24 V4 1.967368 1_555
O25 P5 1.540583 1_555
O25 V4 2.042741 1_555
O26 V4 1.735750 1_555
O26 V5 2.082028 1_555
O27 V6 1.721325 1_555
O27 V4 1.942607 1_555
O28 P6 1.559847 1_565
O28 V6 1.976965 1_555
O29 P6 1.580877 1_555
O29 V5 2.037245 1_555
O30 P5 1.580877 1_655
O30 V6 2.037245 1_555
O31 P5 1.559847 1_555
O31 V5 1.976965 1_555
O32 V5 1.721325 1_555
O32 V7 1.942607 1_555
O33 V7 1.735750 1_665
O33 V6 2.082028 1_555
O34 P6 1.540583 1_555
O34 V7 2.042741 1_655
O35 P6 1.532080 1_565
O35 V7 1.967368 1_565
O36 P7 1.560429 1_555
O36 V5 2.036628 1_555
O37 P0 1.541576 1_556
O37 V6 1.958944 1_555
O38 P7 1.560397 1_555
O38 V7 2.148434 1_555
O39 P0 1.570020 1_556
O39 V7 2.046999 1_665
