# generated using pymatgen
data_Li6Co3P8O29
_symmetry_space_group_name_H-M   'P 1'
_cell_length_a   9.74445997
_cell_length_b   9.70782061
_cell_length_c   13.84816242
_cell_angle_alpha   90.20358084
_cell_angle_beta   90.13613199
_cell_angle_gamma   59.90556002
_symmetry_Int_Tables_number   1
_chemical_formula_structural   Li6Co3P8O29
_chemical_formula_sum   'Li12 Co6 P16 O58'
_cell_volume   1133.40565603
_cell_formula_units_Z   2
loop_
 _symmetry_equiv_pos_site_id
 _symmetry_equiv_pos_as_xyz
  1  'x, y, z'
loop_
 _atom_site_type_symbol
 _atom_site_label
 _atom_site_symmetry_multiplicity
 _atom_site_fract_x
 _atom_site_fract_y
 _atom_site_fract_z
 _atom_site_occupancy
  Li  Li0  1  0.05127000  0.93491400  0.51334400  1
  Li  Li1  1  0.09308600  0.22709800  0.56156000  1
  Li  Li2  1  0.09413800  0.69100800  0.06275200  1
  Li  Li3  1  0.67468400  0.08893400  0.56231100  1
  Li  Li4  1  0.32271300  0.77217100  0.93403600  1
  Li  Li5  1  0.68311600  0.22600200  0.06447500  1
  Li  Li6  1  0.32984200  0.90354300  0.43477100  1
  Li  Li7  1  0.77148400  0.31472200  0.43707600  1
  Li  Li8  1  0.66613700  0.66862200  0.12018900  1
  Li  Li9  1  0.91072000  0.31068800  0.93492100  1
  Li  Li10  1  0.77046500  0.91139700  0.93536600  1
  Li  Li11  1  0.90666100  0.76264700  0.43795800  1
  Co  Co0  1  0.99768500  0.43500600  0.74938700  1
  Co  Co1  1  0.99878500  0.56614200  0.25004800  1
  Co  Co2  1  0.43332500  0.99854600  0.25087600  1
  Co  Co3  1  0.56161500  0.00173000  0.75156500  1
  Co  Co4  1  0.43142200  0.56560600  0.74680400  1
  Co  Co5  1  0.56344100  0.43936700  0.25463400  1
  P  P0  1  0.09195900  0.23143600  0.33859600  1
  P  P1  1  0.23105000  0.08934300  0.84123700  1
  P  P2  1  0.09240000  0.67836200  0.83964500  1
  P  P3  1  0.33448200  0.33068100  0.13538600  1
  P  P4  1  0.33711900  0.33049400  0.62999400  1
  P  P5  1  0.22494000  0.68650000  0.33637300  1
  P  P6  1  0.32858600  0.76828500  0.15667000  1
  P  P7  1  0.67439800  0.09084000  0.34062800  1
  P  P8  1  0.32063900  0.90880300  0.65891800  1
  P  P9  1  0.67209800  0.23459200  0.83915000  1
  P  P10  1  0.76847100  0.31668900  0.65728100  1
  P  P11  1  0.66376200  0.66808600  0.87219700  1
  P  P12  1  0.66851100  0.66836000  0.37263200  1
  P  P13  1  0.90335900  0.32813500  0.15939300  1
  P  P14  1  0.76514000  0.90737500  0.15904500  1
  P  P15  1  0.90632900  0.77700100  0.65884800  1
  O  O0  1  0.00132400  0.21351800  0.24712500  1
  O  O1  1  0.97988700  0.25821200  0.06514800  1
  O  O2  1  0.08363600  0.25642700  0.84270900  1
  O  O3  1  0.20366900  0.01257200  0.74430700  1
  O  O4  1  0.23238800  0.98836300  0.56549400  1
  O  O5  1  0.25755100  0.07943900  0.33939200  1
  O  O6  1  0.10140100  0.38448500  0.32734800  1
  O  O7  1  0.19265900  0.31318900  0.65775100  1
  O  O8  1  0.10591500  0.51610900  0.82202000  1
  O  O9  1  0.98017600  0.79478300  0.56739500  1
  O  O10  1  0.99811300  0.79411000  0.75067400  1
  O  O11  1  0.08075300  0.66046600  0.33776000  1
  O  O12  1  0.33135300  0.18509700  0.18030200  1
  O  O13  1  0.38167200  0.10369100  0.82545600  1
  O  O14  1  0.17826500  0.48704700  0.16623400  1
  O  O15  1  0.34447800  0.31471600  0.02672400  1
  O  O16  1  0.35189200  0.34035900  0.52168100  1
  O  O17  1  0.31886200  0.48800000  0.67644600  1
  O  O18  1  0.51555900  0.09545700  0.33108200  1
  O  O19  1  0.49434600  0.17982800  0.66570100  1
  O  O20  1  0.25592400  0.66713800  0.83956500  1
  O  O21  1  0.20574200  0.78104200  0.23746500  1
  O  O22  1  0.26351500  0.74657200  0.06269300  1
  O  O23  1  0.20693400  0.79642600  0.41871600  1
  O  O24  1  0.38398700  0.52888600  0.33417800  1
  O  O25  1  0.48357000  0.34112300  0.16958900  1
  O  O26  1  0.33947300  0.74223800  0.66267900  1
  O  O27  1  0.51129200  0.38533000  0.82314100  1
  O  O28  1  0.65665200  0.08339000  0.83948900  1
  O  O29  1  0.24084700  0.99259100  0.92687400  1
  O  O30  1  0.75208300  0.99656400  0.06752300  1
  O  O31  1  0.78251500  0.00357300  0.24742500  1
  O  O32  1  0.34002500  0.92012300  0.15995400  1
  O  O33  1  0.49675200  0.62507100  0.18070600  1
  O  O34  1  0.65692400  0.25805200  0.34068900  1
  O  O35  1  0.50767500  0.67498700  0.83665600  1
  O  O36  1  0.61459700  0.47879800  0.66820200  1
  O  O37  1  0.77332000  0.22252500  0.56810900  1
  O  O38  1  0.75214300  0.23884400  0.93169800  1
  O  O39  1  0.78975400  0.20926400  0.75077300  1
  O  O40  1  0.73756200  0.34242500  0.16461000  1
  O  O41  1  0.51005400  0.81399200  0.33304500  1
  O  O42  1  0.47904000  0.90601400  0.67023300  1
  O  O43  1  0.67587200  0.50875900  0.34060400  1
  O  O44  1  0.67268900  0.66842100  0.98184700  1
  O  O45  1  0.67178700  0.67905600  0.48129700  1
  O  O46  1  0.80968900  0.51320300  0.83336900  1
  O  O47  1  0.62227000  0.88215500  0.17683700  1
  O  O48  1  0.67066800  0.81915800  0.83605900  1
  O  O49  1  0.91662400  0.33488900  0.65676900  1
  O  O50  1  0.00636100  0.22900000  0.42964100  1
  O  O51  1  0.88090500  0.49710800  0.17799500  1
  O  O52  1  0.81763600  0.67489300  0.33319300  1
  O  O53  1  0.90882100  0.61913800  0.66690700  1
  O  O54  1  0.73673400  0.92289800  0.66484400  1
  O  O55  1  0.76680500  0.00208200  0.42976000  1
  O  O56  1  0.91922200  0.74322100  0.15859200  1
  O  O57  1  0.00171000  0.75425300  0.93160800  1
loop_
_geom_bond_atom_site_label_1
_geom_bond_atom_site_label_2
_geom_bond_distance
_geom_bond_site_symmetry_2
Li0 O23 1.943540 1_555
Li0 O9 1.961022 1_455
Li0 O4 2.194377 1_555
Li1 O49 1.996651 1_455
Li1 O50 2.007262 1_555
Li1 O4 2.015547 1_545
Li1 O7 2.052689 1_555
Li2 O22 1.976841 1_555
Li2 O57 1.982921 1_554
Li2 O56 2.015725 1_455
Li2 O14 2.243406 1_555
Li3 O37 1.964970 1_555
Li3 O54 2.003635 1_545
Li3 O55 2.030737 1_555
Li3 O19 2.089157 1_555
Li4 O29 1.874625 1_555
Li4 O22 1.928894 1_556
Li4 O20 1.956203 1_555
Li4 O35 2.062607 1_555
Li5 O30 1.978350 1_545
Li5 O38 1.985058 1_554
Li5 O40 2.017045 1_555
Li5 O25 2.229665 1_555
Li6 O23 1.952244 1_555
Li6 O5 1.990450 1_565
Li6 O4 2.017502 1_555
Li6 O41 2.072701 1_555
Li7 O34 1.983450 1_555
Li7 O50 2.007966 1_655
Li7 O37 2.022222 1_555
Li7 O43 2.110220 1_555
Li8 O44 1.916959 1_554
Li8 O47 2.048562 1_555
Li8 O51 2.073628 1_555
Li8 O33 2.077103 1_555
Li9 O1 1.903280 1_556
Li9 O2 1.965348 1_655
Li9 O38 1.989088 1_555
Li9 O46 2.209990 1_555
Li10 O30 1.976696 1_556
Li10 O28 1.983020 1_565
Li10 O57 1.990022 1_655
Li10 O48 2.120589 1_555
Li11 O9 2.009348 1_555
Li11 O55 2.024188 1_565
Li11 O11 2.025091 1_655
Li11 O52 2.075931 1_555
Co0 O8 1.888365 1_655
Co0 O53 1.925409 1_555
Co0 O46 1.973319 1_555
Co0 O2 1.982849 1_655
Co0 O49 1.992442 1_555
Co0 O7 2.089519 1_655
Co1 O6 1.869649 1_655
Co1 O51 1.877765 1_555
Co1 O14 1.911043 1_655
Co1 O11 1.916450 1_655
Co1 O52 1.920510 1_555
Co1 O56 1.958179 1_555
Co2 O12 1.850826 1_565
Co2 O18 1.872235 1_565
Co2 O47 1.905856 1_555
Co2 O32 1.916609 1_555
Co2 O5 1.925415 1_565
Co2 O41 1.931521 1_555
Co3 O13 1.833617 1_555
Co3 O42 1.875493 1_545
Co3 O54 1.906145 1_545
Co3 O28 1.921616 1_555
Co3 O19 1.925392 1_555
Co3 O48 1.938992 1_545
Co4 O27 1.851846 1_555
Co4 O17 1.881053 1_555
Co4 O26 1.889098 1_555
Co4 O36 1.890827 1_555
Co4 O20 1.963981 1_555
Co4 O35 2.001339 1_555
Co5 O24 1.872123 1_555
Co5 O33 1.885603 1_555
Co5 O25 1.906424 1_555
Co5 O40 1.928489 1_555
Co5 O34 1.936476 1_555
Co5 O43 1.949278 1_555
O0 P0 1.600626 1_555
O0 P13 1.601337 1_455
O1 P13 1.486909 1_555
O2 P1 1.535606 1_555
O3 P8 1.599586 1_545
O3 P1 1.618336 1_555
O4 P8 1.531528 1_555
O5 P0 1.547057 1_555
O6 P0 1.542417 1_555
O7 P4 1.548462 1_555
O8 P2 1.532096 1_555
O9 P15 1.510626 1_555
O10 P15 1.608291 1_555
O10 P2 1.610564 1_655
O11 P5 1.547453 1_555
O12 P3 1.560384 1_555
O13 P1 1.558253 1_555
O14 P3 1.576430 1_555
O15 P3 1.510542 1_555
O16 P4 1.515115 1_555
O17 P4 1.582457 1_555
O18 P7 1.531231 1_555
O19 P4 1.576507 1_555
O20 P2 1.541705 1_555
O21 P6 1.599008 1_555
O21 P5 1.609018 1_555
O22 P6 1.506095 1_555
O23 P5 1.508108 1_555
O24 P5 1.538120 1_555
O25 P3 1.577742 1_555
O26 P8 1.534267 1_555
O27 P9 1.531993 1_555
O28 P9 1.548821 1_555
O29 P1 1.488340 1_565
O30 P14 1.506233 1_555
O31 P14 1.596301 1_545
O31 P7 1.611566 1_555
O32 P6 1.533456 1_555
O33 P6 1.563632 1_555
O34 P7 1.544921 1_555
O35 P11 1.566719 1_555
O36 P10 1.542958 1_555
O37 P10 1.520428 1_555
O38 P9 1.509903 1_555
O39 P9 1.610764 1_555
O39 P10 1.611900 1_555
O40 P13 1.552532 1_555
O41 P12 1.579790 1_555
O42 P8 1.537774 1_555
O43 P12 1.576785 1_555
O44 P11 1.520820 1_555
O45 P12 1.509384 1_555
O46 P11 1.557439 1_555
O47 P14 1.550073 1_555
O48 P11 1.584355 1_555
O49 P10 1.539906 1_555
O50 P0 1.520169 1_555
O51 P13 1.562799 1_555
O52 P12 1.584416 1_555
O53 P15 1.524959 1_555
O54 P15 1.548069 1_555
O55 P7 1.516897 1_555
O56 P14 1.547367 1_555
O57 P2 1.513721 1_555
