# generated using pymatgen
data_Zr2N2O
_symmetry_space_group_name_H-M   'P 1'
_cell_length_a   7.04354973
_cell_length_b   7.04354973
_cell_length_c   16.67824352
_cell_angle_alpha   79.55875590
_cell_angle_beta   79.55875590
_cell_angle_gamma   27.56168387
_symmetry_Int_Tables_number   1
_chemical_formula_structural   Zr2N2O
_chemical_formula_sum   'Zr12 N12 O6'
_cell_volume   376.13214155
_cell_formula_units_Z   6
loop_
 _symmetry_equiv_pos_site_id
 _symmetry_equiv_pos_as_xyz
  1  'x, y, z'
loop_
 _atom_site_type_symbol
 _atom_site_label
 _atom_site_symmetry_multiplicity
 _atom_site_fract_x
 _atom_site_fract_y
 _atom_site_fract_z
 _atom_site_occupancy
  Zr  Zr0  1  0.96982600  0.96982600  0.15454700  1
  Zr  Zr1  1  0.96338000  0.96338000  0.65218000  1
  Zr  Zr2  1  0.37156600  0.37156600  0.98749600  1
  Zr  Zr3  1  0.30467300  0.30467300  0.81714100  1
  Zr  Zr4  1  0.36540900  0.36540900  0.49650100  1
  Zr  Zr5  1  0.69532700  0.69532700  0.18285900  1
  Zr  Zr6  1  0.30296000  0.30296000  0.31535800  1
  Zr  Zr7  1  0.62843400  0.62843400  0.01250400  1
  Zr  Zr8  1  0.69704000  0.69704000  0.68464200  1
  Zr  Zr9  1  0.63459100  0.63459100  0.50349900  1
  Zr  Zr10  1  0.03017400  0.03017400  0.84545300  1
  Zr  Zr11  1  0.03662000  0.03662000  0.34782000  1
  N  N0  1  0.46622400  0.46622400  0.07892200  1
  N  N1  1  0.47438500  0.47438500  0.57787800  1
  N  N2  1  0.82654700  0.82654700  0.23397700  1
  N  N3  1  0.87236100  0.87236100  0.89440900  1
  N  N4  1  0.82835200  0.82835200  0.73556300  1
  N  N5  1  0.79591000  0.79591000  0.56242500  1
  N  N6  1  0.12763900  0.12763900  0.10559100  1
  N  N7  1  0.17345300  0.17345300  0.76602300  1
  N  N8  1  0.20409000  0.20409000  0.43757500  1
  N  N9  1  0.17164800  0.17164800  0.26443700  1
  N  N10  1  0.53377600  0.53377600  0.92107800  1
  N  N11  1  0.52561500  0.52561500  0.42212200  1
  O  O0  1  0.79197900  0.79197900  0.05978000  1
  O  O1  1  0.87424000  0.87424000  0.38696000  1
  O  O2  1  0.20802100  0.20802100  0.94022000  1
  O  O3  1  0.12576000  0.12576000  0.61304000  1
  O  O4  1  0.49977300  0.49977300  0.74984600  1
  O  O5  1  0.50022700  0.50022700  0.25015400  1
loop_
_geom_bond_atom_site_label_1
_geom_bond_atom_site_label_2
_geom_bond_distance
_geom_bond_site_symmetry_2
N0 Zr0 2.105140 1_545
N0 Zr0 2.105140 1_455
N0 Zr2 2.176988 1_554
N0 Zr7 2.287983 1_555
N1 Zr1 2.074572 1_455
N1 Zr1 2.074572 1_545
N1 Zr4 2.195502 1_555
N1 Zr9 2.308340 1_555
N2 Zr5 2.126303 1_555
N2 Zr6 2.144306 1_655
N2 Zr6 2.144306 1_565
N2 Zr0 2.151402 1_555
N3 Zr10 2.161158 1_665
N3 Zr2 2.284576 1_565
N3 Zr2 2.284576 1_655
N3 Zr3 2.403929 1_655
N3 Zr3 2.403929 1_565
N4 Zr1 2.094774 1_555
N4 Zr8 2.125627 1_555
N4 Zr3 2.146336 1_565
N4 Zr3 2.146336 1_655
N5 Zr4 2.130255 1_655
N5 Zr4 2.130255 1_565
N5 Zr8 2.226143 1_555
N5 Zr9 2.578110 1_555
N6 Zr0 2.161158 1_445
N6 Zr7 2.284576 1_545
N6 Zr7 2.284576 1_455
N6 Zr5 2.403929 1_455
N6 Zr5 2.403929 1_545
N7 Zr3 2.126303 1_555
N7 Zr8 2.144306 1_455
N7 Zr8 2.144306 1_545
N7 Zr10 2.151402 1_555
N8 Zr9 2.130255 1_545
N8 Zr9 2.130255 1_455
N8 Zr6 2.226143 1_555
N8 Zr4 2.578110 1_555
N9 Zr11 2.094774 1_555
N9 Zr6 2.125627 1_555
N9 Zr5 2.146336 1_455
N9 Zr5 2.146336 1_545
N10 Zr10 2.105140 1_565
N10 Zr10 2.105140 1_655
N10 Zr7 2.176988 1_556
N10 Zr2 2.287983 1_555
N11 Zr11 2.074572 1_655
N11 Zr11 2.074572 1_565
N11 Zr9 2.195502 1_555
N11 Zr4 2.308340 1_555
O0 Zr5 2.224711 1_555
O0 Zr2 2.228066 1_654
O0 Zr2 2.228066 1_564
O0 Zr7 2.507344 1_555
O1 Zr11 2.195560 1_665
O1 Zr6 2.372114 1_565
O1 Zr6 2.372114 1_655
O1 Zr4 2.466800 1_565
O1 Zr4 2.466800 1_655
O2 Zr3 2.224711 1_555
O2 Zr7 2.228066 1_546
O2 Zr7 2.228066 1_456
O2 Zr2 2.507344 1_555
O3 Zr1 2.195560 1_445
O3 Zr8 2.372114 1_545
O3 Zr8 2.372114 1_455
O3 Zr9 2.466800 1_455
O3 Zr9 2.466800 1_545
O4 Zr10 2.403801 1_565
O4 Zr10 2.403801 1_655
O4 Zr1 2.453373 1_455
O4 Zr1 2.453373 1_545
O4 Zr3 2.695678 1_555
O4 Zr8 2.715047 1_555
O5 Zr0 2.403801 1_545
O5 Zr0 2.403801 1_455
O5 Zr11 2.453373 1_565
O5 Zr11 2.453373 1_655
O5 Zr5 2.695678 1_555
O5 Zr6 2.715047 1_555
