# generated using pymatgen
data_VOF
_symmetry_space_group_name_H-M   'P 1'
_cell_length_a   6.28003775
_cell_length_b   5.92020130
_cell_length_c   5.22744727
_cell_angle_alpha   68.24956948
_cell_angle_beta   61.11459171
_cell_angle_gamma   50.63583881
_symmetry_Int_Tables_number   1
_chemical_formula_structural   VOF
_chemical_formula_sum   'V4 O4 F4'
_cell_volume   130.97238596
_cell_formula_units_Z   4
loop_
 _symmetry_equiv_pos_site_id
 _symmetry_equiv_pos_as_xyz
  1  'x, y, z'
loop_
 _atom_site_type_symbol
 _atom_site_label
 _atom_site_symmetry_multiplicity
 _atom_site_fract_x
 _atom_site_fract_y
 _atom_site_fract_z
 _atom_site_occupancy
  V  V0  1  0.69880200  0.30119800  0.69880200  1
  V  V1  1  0.94880200  0.55119800  0.94880200  1
  V  V2  1  0.30119800  0.69880200  0.30119800  1
  V  V3  1  0.55119800  0.94880200  0.55119800  1
  O  O0  1  0.36604600  0.36604600  0.63395400  1
  O  O1  1  0.63395400  0.63395400  0.36604600  1
  O  O2  1  0.61604600  0.61604600  0.88395400  1
  O  O3  1  0.88395400  0.88395400  0.61604600  1
  F  F0  1  0.62500000  0.12500000  0.12500000  1
  F  F1  1  0.12500000  0.62500000  0.12500000  1
  F  F2  1  0.12500000  0.12500000  0.12500000  1
  F  F3  1  0.12500000  0.12500000  0.62500000  1
loop_
_geom_bond_atom_site_label_1
_geom_bond_atom_site_label_2
_geom_bond_distance
_geom_bond_site_symmetry_2
O0 V0 2.049267 1_555
O0 V2 2.049267 1_555
O0 V1 2.074488 1_455
O0 V3 2.074488 1_545
O1 V0 2.049267 1_555
O1 V2 2.049267 1_555
O1 V3 2.074488 1_555
O1 V1 2.074488 1_554
O2 V1 2.049267 1_555
O2 V3 2.049267 1_555
O2 V2 2.074488 1_556
O2 V0 2.074488 1_555
O3 V3 2.049267 1_555
O3 V1 2.049267 1_555
O3 V0 2.074488 1_565
O3 V2 2.074488 1_655
F0 V3 2.039574 1_545
F0 V0 2.039574 1_554
F1 V2 2.039574 1_555
F1 V1 2.039574 1_454
F2 V1 2.039574 1_454
F2 V2 2.039574 1_545
F3 V3 2.039574 1_545
F3 V0 2.039574 1_455
