# generated using pymatgen
data_Fe2OF3
_symmetry_space_group_name_H-M   'P 1'
_cell_length_a   4.84070261
_cell_length_b   4.84070261
_cell_length_c   15.61306500
_cell_angle_alpha   90.00000000
_cell_angle_beta   90.00000000
_cell_angle_gamma   91.85638488
_symmetry_Int_Tables_number   1
_chemical_formula_structural   Fe2OF3
_chemical_formula_sum   'Fe10 O5 F15'
_cell_volume   365.65960042
_cell_formula_units_Z   5
loop_
 _symmetry_equiv_pos_site_id
 _symmetry_equiv_pos_as_xyz
  1  'x, y, z'
loop_
 _atom_site_type_symbol
 _atom_site_label
 _atom_site_symmetry_multiplicity
 _atom_site_fract_x
 _atom_site_fract_y
 _atom_site_fract_z
 _atom_site_occupancy
  Fe  Fe0  1  0.97828000  0.97828000  0.89991200  1
  Fe  Fe1  1  0.97828000  0.97828000  0.10008800  1
  Fe  Fe2  1  0.02246100  0.02246100  0.29981000  1
  Fe  Fe3  1  0.01162500  0.01162500  0.50000000  1
  Fe  Fe4  1  0.02246100  0.02246100  0.70019000  1
  Fe  Fe5  1  0.52474900  0.52474900  0.00000000  1
  Fe  Fe6  1  0.47529400  0.47529400  0.39967900  1
  Fe  Fe7  1  0.50021300  0.50021300  0.19965900  1
  Fe  Fe8  1  0.47529400  0.47529400  0.60032100  1
  Fe  Fe9  1  0.50021300  0.50021300  0.80034100  1
  O  O0  1  0.32018800  0.32018800  0.29693100  1
  O  O1  1  0.31080500  0.31080500  0.50000000  1
  O  O2  1  0.32018800  0.32018800  0.70306900  1
  O  O3  1  0.68023800  0.68023800  0.89751800  1
  O  O4  1  0.68023800  0.68023800  0.10248200  1
  F  F0  1  0.78538600  0.20465800  0.00000000  1
  F  F1  1  0.79243000  0.20824200  0.19987400  1
  F  F2  1  0.79301900  0.21215300  0.39974900  1
  F  F3  1  0.79301900  0.21215300  0.60025100  1
  F  F4  1  0.79243000  0.20824200  0.80012600  1
  F  F5  1  0.29595900  0.29595900  0.90219000  1
  F  F6  1  0.29595900  0.29595900  0.09781000  1
  F  F7  1  0.70422600  0.70422600  0.30215500  1
  F  F8  1  0.69736600  0.69736600  0.50000000  1
  F  F9  1  0.70422600  0.70422600  0.69784500  1
  F  F10  1  0.20465800  0.78538600  0.00000000  1
  F  F11  1  0.21215300  0.79301900  0.39974900  1
  F  F12  1  0.20824200  0.79243000  0.19987400  1
  F  F13  1  0.20824200  0.79243000  0.80012600  1
  F  F14  1  0.21215300  0.79301900  0.60025100  1
loop_
_geom_bond_atom_site_label_1
_geom_bond_atom_site_label_2
_geom_bond_distance
_geom_bond_site_symmetry_2
Fe0 O3 2.007360 1_555
Fe1 O4 2.007360 1_555
Fe2 O0 2.005395 1_555
Fe3 O1 2.014676 1_555
Fe4 O2 2.005395 1_555
Fe5 O3 1.912204 1_554
Fe5 O4 1.912204 1_555
Fe6 O0 1.914272 1_555
Fe6 O1 1.918406 1_555
Fe7 O4 1.942068 1_555
Fe7 O0 1.943227 1_555
Fe8 O2 1.914272 1_555
Fe8 O1 1.918406 1_555
Fe9 O3 1.942068 1_555
Fe9 O2 1.943227 1_555
F0 Fe5 2.029606 1_555
F0 Fe0 2.140322 1_544
F0 Fe1 2.140322 1_545
F1 Fe7 2.031746 1_555
F1 Fe1 2.130883 1_545
F1 Fe2 2.132629 1_655
F2 Fe6 2.028533 1_555
F2 Fe2 2.139513 1_655
F2 Fe3 2.139751 1_655
F3 Fe8 2.028533 1_555
F3 Fe4 2.139513 1_655
F3 Fe3 2.139751 1_655
F4 Fe9 2.031746 1_555
F4 Fe0 2.130883 1_545
F4 Fe4 2.132629 1_655
F5 Fe9 2.102500 1_555
F5 Fe0 2.139543 1_445
F5 Fe5 2.169272 1_556
F6 Fe7 2.102500 1_555
F6 Fe1 2.139543 1_445
F6 Fe5 2.169272 1_555
F7 Fe7 2.109093 1_555
F7 Fe2 2.143305 1_665
F7 Fe6 2.166811 1_555
F8 Fe3 2.116218 1_665
F8 Fe8 2.165564 1_555
F8 Fe6 2.165564 1_555
F9 Fe9 2.109093 1_555
F9 Fe4 2.143305 1_665
F9 Fe8 2.166811 1_555
F10 Fe5 2.029606 1_555
F10 Fe0 2.140322 1_454
F10 Fe1 2.140322 1_455
F11 Fe6 2.028533 1_555
F11 Fe2 2.139513 1_565
F11 Fe3 2.139751 1_565
F12 Fe7 2.031746 1_555
F12 Fe1 2.130883 1_455
F12 Fe2 2.132629 1_565
F13 Fe9 2.031746 1_555
F13 Fe0 2.130883 1_455
F13 Fe4 2.132629 1_565
F14 Fe8 2.028533 1_555
F14 Fe4 2.139513 1_565
F14 Fe3 2.139751 1_565
