# generated using pymatgen
data_Li24Ti5Cr7O36
_symmetry_space_group_name_H-M   'P 1'
_cell_length_a   5.05217300
_cell_length_b   9.78099537
_cell_length_c   13.41169231
_cell_angle_alpha   80.94222266
_cell_angle_beta   79.18032631
_cell_angle_gamma   85.34030278
_symmetry_Int_Tables_number   1
_chemical_formula_structural   Li24Ti5Cr7O36
_chemical_formula_sum   'Li24 Ti5 Cr7 O36'
_cell_volume   641.93019499
_cell_formula_units_Z   1
loop_
 _symmetry_equiv_pos_site_id
 _symmetry_equiv_pos_as_xyz
  1  'x, y, z'
loop_
 _atom_site_type_symbol
 _atom_site_label
 _atom_site_symmetry_multiplicity
 _atom_site_fract_x
 _atom_site_fract_y
 _atom_site_fract_z
 _atom_site_occupancy
  Li  Li0  1  0.66480300  0.00093500  0.16723400  1
  Li  Li1  1  0.56620000  0.00190500  0.38583600  1
  Li  Li2  1  0.24723700  0.74919100  0.75079400  1
  Li  Li3  1  0.58508100  0.75052100  0.08291300  1
  Li  Li4  1  0.06534600  0.49881300  0.88806300  1
  Li  Li5  1  0.40655100  0.50051100  0.22121900  1
  Li  Li6  1  0.16603200  0.50051600  0.66749700  1
  Li  Li7  1  0.50046000  0.50119400  0.00032900  1
  Li  Li8  1  0.26743500  0.50277200  0.44421600  1
  Li  Li9  1  0.08383100  0.25025600  0.58354000  1
  Li  Li10  1  0.99081600  0.99696700  0.50001500  1
  Li  Li11  1  0.77156200  0.99835800  0.94887100  1
  Li  Li12  1  0.10440600  0.99676700  0.28188900  1
  Li  Li13  1  0.89804700  0.99800500  0.71924200  1
  Li  Li14  1  0.22610200  0.00194200  0.05091300  1
  Li  Li15  1  0.91806500  0.74999900  0.41750200  1
  Li  Li16  1  0.73800900  0.49854900  0.55581700  1
  Li  Li17  1  0.82357900  0.49881900  0.33429500  1
  Li  Li18  1  0.59879600  0.50129100  0.77722200  1
  Li  Li19  1  0.93125900  0.49861200  0.11229800  1
  Li  Li20  1  0.41637400  0.25039600  0.91546400  1
  Li  Li21  1  0.34237600  0.00182300  0.83277100  1
  Li  Li22  1  0.74791300  0.24996200  0.25009900  1
  Li  Li23  1  0.43457600  0.00178200  0.61261300  1
  Ti  Ti0  1  0.35608000  0.75758500  0.52617100  1
  Ti  Ti1  1  0.97497300  0.24727000  0.80676000  1
  Ti  Ti2  1  0.19724300  0.24686200  0.36168300  1
  Ti  Ti3  1  0.30007400  0.25478900  0.13882200  1
  Ti  Ti4  1  0.03570900  0.74486900  0.19168200  1
  Cr  Cr0  1  0.85678100  0.24905600  0.02683600  1
  Cr  Cr1  1  0.47875800  0.75078500  0.30582300  1
  Cr  Cr2  1  0.69591100  0.74712100  0.86481500  1
  Cr  Cr3  1  0.79616700  0.74829500  0.64194200  1
  Cr  Cr4  1  0.52644200  0.25305800  0.69263800  1
  Cr  Cr5  1  0.64298900  0.24900700  0.47466000  1
  Cr  Cr6  1  0.14058700  0.75185100  0.96797100  1
  O  O0  1  0.93245000  0.86169600  0.06874100  1
  O  O1  1  0.71826600  0.63319900  0.21328000  1
  O  O2  1  0.42432000  0.36203100  0.57597000  1
  O  O3  1  0.50085600  0.36191100  0.35941700  1
  O  O4  1  0.61509300  0.36653300  0.11922800  1
  O  O5  1  0.25584500  0.86554900  0.40528800  1
  O  O6  1  0.22481600  0.13443400  0.71363900  1
  O  O7  1  0.33527500  0.13872300  0.47863600  1
  O  O8  1  0.55654000  0.13542200  0.04670800  1
  O  O9  1  0.00816900  0.86239100  0.85837500  1
  O  O10  1  0.11503500  0.86416100  0.62079800  1
  O  O11  1  0.33732200  0.86193200  0.19052100  1
  O  O12  1  0.40335400  0.13625500  0.26196400  1
  O  O13  1  0.82549200  0.63784100  0.97451500  1
  O  O14  1  0.04475300  0.63552200  0.55095700  1
  O  O15  1  0.17095900  0.63834200  0.31056300  1
  O  O16  1  0.90158200  0.63700800  0.76622700  1
  O  O17  1  0.24075800  0.63698100  0.09251100  1
  O  O18  1  0.76083300  0.36127800  0.90780900  1
  O  O19  1  0.09460300  0.36515300  0.23786700  1
  O  O20  1  0.83081000  0.36114200  0.68926200  1
  O  O21  1  0.94213200  0.36536500  0.45339900  1
  O  O22  1  0.16311300  0.36205500  0.02152900  1
  O  O23  1  0.59953600  0.85959500  0.73683200  1
  O  O24  1  0.66558400  0.13752700  0.80777600  1
  O  O25  1  0.88332300  0.13374200  0.38092900  1
  O  O26  1  0.99629200  0.13842900  0.14156000  1
  O  O27  1  0.46221900  0.86510700  0.94744400  1
  O  O28  1  0.66456300  0.86402700  0.52289500  1
  O  O29  1  0.77770500  0.86461300  0.28510000  1
  O  O30  1  0.74245300  0.13898600  0.59194400  1
  O  O31  1  0.37085600  0.63580700  0.88395100  1
  O  O32  1  0.50751200  0.63663900  0.64466600  1
  O  O33  1  0.57107200  0.63849600  0.42560000  1
  O  O34  1  0.28209300  0.36712500  0.78611400  1
  O  O35  1  0.07784800  0.13454700  0.92753200  1
loop_
_geom_bond_atom_site_label_1
_geom_bond_atom_site_label_2
_geom_bond_distance
_geom_bond_site_symmetry_2
Li0 O29 2.037988 1_545
Li0 O8 2.046454 1_555
Li0 O11 2.172818 1_545
Li0 O12 2.173952 1_555
Li0 O26 2.176122 1_555
Li0 O0 2.241597 1_545
Li1 O5 2.093315 1_545
Li1 O7 2.103946 1_555
Li1 O25 2.122125 1_555
Li1 O29 2.136931 1_545
Li1 O12 2.194043 1_555
Li1 O28 2.213172 1_545
Li2 O9 2.097134 1_555
Li2 O16 2.097745 1_455
Li2 O10 2.109069 1_555
Li2 O31 2.119403 1_555
Li2 O23 2.119576 1_555
Li2 O32 2.126604 1_555
Li3 O0 2.101960 1_555
Li3 O13 2.104166 1_554
Li3 O11 2.105338 1_555
Li3 O17 2.112058 1_555
Li3 O1 2.123943 1_555
Li3 O27 2.147475 1_554
Li4 O18 2.077915 1_455
Li4 O13 2.088812 1_455
Li4 O31 2.112259 1_555
Li4 O34 2.119180 1_555
Li4 O22 2.169803 1_556
Li4 O16 2.193641 1_455
Li5 O15 2.093421 1_555
Li5 O19 2.097691 1_555
Li5 O1 2.097952 1_555
Li5 O4 2.120701 1_555
Li5 O3 2.221618 1_555
Li5 O17 2.258043 1_555
Li6 O14 2.034782 1_555
Li6 O34 2.036975 1_555
Li6 O2 2.163175 1_555
Li6 O20 2.208181 1_455
Li6 O32 2.211179 1_555
Li6 O16 2.218844 1_455
Li7 O4 2.043173 1_555
Li7 O31 2.048182 1_554
Li7 O13 2.144812 1_554
Li7 O17 2.153783 1_555
Li7 O18 2.184565 1_554
Li7 O22 2.216029 1_555
Li8 O33 2.064120 1_555
Li8 O3 2.075626 1_555
Li8 O15 2.164161 1_555
Li8 O14 2.178135 1_555
Li8 O21 2.180197 1_455
Li8 O2 2.286553 1_555
Li9 O30 2.089289 1_455
Li9 O2 2.090385 1_555
Li9 O7 2.090549 1_555
Li9 O20 2.097450 1_455
Li9 O21 2.132131 1_455
Li9 O6 2.132680 1_555
Li10 O25 2.042143 1_565
Li10 O10 2.071706 1_655
Li10 O28 2.129425 1_555
Li10 O5 2.157551 1_655
Li10 O30 2.167799 1_565
Li10 O7 2.261126 1_665
Li11 O35 2.073495 1_665
Li11 O9 2.091854 1_655
Li11 O8 2.116892 1_566
Li11 O27 2.119333 1_555
Li11 O0 2.160895 1_556
Li11 O24 2.274070 1_565
Li12 O12 2.069397 1_565
Li12 O11 2.083487 1_555
Li12 O25 2.137066 1_465
Li12 O5 2.149102 1_555
Li12 O29 2.167811 1_455
Li12 O26 2.280840 1_465
Li13 O23 2.064083 1_555
Li13 O24 2.092310 1_565
Li13 O10 2.103909 1_655
Li13 O6 2.188956 1_665
Li13 O30 2.240691 1_565
Li13 O9 2.245328 1_655
Li14 O0 2.057686 1_445
Li14 O26 2.082649 1_455
Li14 O35 2.147825 1_554
Li14 O8 2.188670 1_555
Li14 O27 2.200879 1_544
Li14 O11 2.271461 1_545
Li15 O5 2.089621 1_655
Li15 O15 2.112028 1_655
Li15 O28 2.113482 1_555
Li15 O33 2.115736 1_555
Li15 O14 2.132985 1_655
Li15 O29 2.151658 1_555
Li16 O32 2.080995 1_555
Li16 O2 2.106425 1_555
Li16 O21 2.111999 1_555
Li16 O14 2.114873 1_655
Li16 O20 2.164372 1_555
Li16 O33 2.290794 1_555
Li17 O1 2.045421 1_555
Li17 O21 2.046922 1_555
Li17 O3 2.138109 1_555
Li17 O33 2.156501 1_555
Li17 O19 2.198486 1_655
Li17 O15 2.255305 1_655
Li18 O16 2.075459 1_555
Li18 O20 2.091338 1_555
Li18 O34 2.125241 1_555
Li18 O32 2.143222 1_555
Li18 O31 2.198663 1_555
Li18 O18 2.283404 1_555
Li19 O22 2.088174 1_655
Li19 O17 2.102859 1_655
Li19 O4 2.114410 1_555
Li19 O1 2.123468 1_555
Li19 O19 2.208108 1_655
Li19 O13 2.239403 1_554
Li20 O35 2.094863 1_555
Li20 O18 2.102333 1_555
Li20 O22 2.105288 1_556
Li20 O34 2.113219 1_555
Li20 O24 2.117403 1_555
Li20 O8 2.140036 1_556
Li21 O27 2.022518 1_545
Li21 O6 2.041219 1_555
Li21 O24 2.132384 1_555
Li21 O35 2.164820 1_555
Li21 O9 2.199490 1_545
Li21 O23 2.218363 1_545
Li22 O12 2.108876 1_555
Li22 O26 2.115550 1_555
Li22 O3 2.121989 1_555
Li22 O19 2.125739 1_655
Li22 O4 2.125744 1_555
Li22 O25 2.129626 1_555
Li23 O28 2.084367 1_545
Li23 O30 2.087424 1_555
Li23 O6 2.105553 1_555
Li23 O10 2.161059 1_545
Li23 O7 2.178510 1_555
Li23 O23 2.237779 1_545
Cr0 O8 1.906863 1_555
Cr0 O18 1.908012 1_554
Cr0 O26 1.947837 1_555
Cr0 O22 1.957962 1_655
Cr0 O35 1.995890 1_654
Cr0 O4 1.999751 1_555
Cr1 O29 1.901599 1_555
Cr1 O33 1.909680 1_555
Cr1 O11 1.960382 1_555
Cr1 O15 1.962281 1_555
Cr1 O1 1.996723 1_555
Cr1 O5 2.002480 1_555
Cr2 O13 1.867741 1_555
Cr2 O27 1.908894 1_555
Cr2 O16 1.933570 1_555
Cr2 O9 1.993627 1_655
Cr2 O31 1.998122 1_555
Cr2 O23 2.006432 1_555
Cr3 O32 1.883341 1_555
Cr3 O23 1.891411 1_555
Cr3 O14 1.976451 1_655
Cr3 O16 1.978572 1_555
Cr3 O28 1.994956 1_555
Cr3 O10 1.995977 1_655
Cr4 O2 1.881281 1_555
Cr4 O20 1.925397 1_555
Cr4 O6 1.941890 1_555
Cr4 O24 1.970961 1_555
Cr4 O34 1.993991 1_555
Cr4 O30 1.995725 1_555
Cr5 O30 1.886989 1_555
Cr5 O21 1.917331 1_555
Cr5 O7 1.951024 1_555
Cr5 O3 1.968367 1_555
Cr5 O25 1.994090 1_555
Cr5 O2 1.999927 1_555
Cr6 O9 1.878384 1_555
Cr6 O31 1.899336 1_555
Cr6 O0 1.956191 1_456
Cr6 O17 1.985557 1_556
Cr6 O27 1.992946 1_555
Cr6 O13 1.997640 1_455
O0 Ti4 1.982279 1_655
O1 Ti4 1.964582 1_655
O3 Ti2 1.967804 1_555
O4 Ti3 1.957492 1_555
O5 Ti0 1.918935 1_555
O6 Ti1 1.996720 1_455
O7 Ti2 1.958015 1_555
O8 Ti3 2.043428 1_555
O10 Ti0 1.952013 1_555
O11 Ti4 1.975392 1_555
O12 Ti2 1.947570 1_555
O12 Ti3 1.991577 1_555
O14 Ti0 1.998420 1_555
O15 Ti4 1.965941 1_555
O17 Ti4 1.924260 1_555
O18 Ti1 1.994981 1_555
O19 Ti3 1.938844 1_555
O19 Ti2 1.996486 1_555
O20 Ti1 2.000189 1_555
O21 Ti2 2.031914 1_655
O22 Ti3 1.955822 1_555
O24 Ti1 1.963569 1_555
O25 Ti2 1.961536 1_655
O26 Ti3 1.975253 1_655
O28 Ti0 1.933470 1_555
O29 Ti4 2.059466 1_655
O32 Ti0 2.056173 1_555
O33 Ti0 2.023606 1_555
O34 Ti1 1.972441 1_455
O35 Ti1 1.941652 1_455
