# generated using pymatgen
data_Li2Cr2Si2O9
_symmetry_space_group_name_H-M   'P 1'
_cell_length_a   13.99523764
_cell_length_b   8.39541000
_cell_length_c   5.17085361
_cell_angle_alpha   89.99999909
_cell_angle_beta   90.05541784
_cell_angle_gamma   90.00376273
_symmetry_Int_Tables_number   1
_chemical_formula_structural   Li2Cr2Si2O9
_chemical_formula_sum   'Li8 Cr8 Si8 O36'
_cell_volume   607.55307898
_cell_formula_units_Z   4
loop_
 _symmetry_equiv_pos_site_id
 _symmetry_equiv_pos_as_xyz
  1  'x, y, z'
loop_
 _atom_site_type_symbol
 _atom_site_label
 _atom_site_symmetry_multiplicity
 _atom_site_fract_x
 _atom_site_fract_y
 _atom_site_fract_z
 _atom_site_occupancy
  Li  Li0  1  0.16100500  0.05558000  0.64756600  1
  Li  Li1  1  0.16102600  0.44441200  0.14758600  1
  Li  Li2  1  0.33995400  0.55274500  0.14634300  1
  Li  Li3  1  0.33995900  0.94719700  0.64636200  1
  Li  Li4  1  0.66048300  0.05430400  0.35221000  1
  Li  Li5  1  0.66048000  0.44568400  0.85220000  1
  Li  Li6  1  0.83925400  0.55400900  0.85232500  1
  Li  Li7  1  0.83925500  0.94599500  0.35229000  1
  Cr  Cr0  1  0.17066500  0.65673400  0.63418100  1
  Cr  Cr1  1  0.17068600  0.84324500  0.13425900  1
  Cr  Cr2  1  0.32737100  0.15734900  0.12037200  1
  Cr  Cr3  1  0.32741400  0.34258200  0.62032600  1
  Cr  Cr4  1  0.67121800  0.65669700  0.36803100  1
  Cr  Cr5  1  0.67121100  0.84344800  0.86797300  1
  Cr  Cr6  1  0.82812000  0.15653100  0.87006900  1
  Cr  Cr7  1  0.82810100  0.34349300  0.37020400  1
  Si  Si0  1  0.02669200  0.15412000  0.21343300  1
  Si  Si1  1  0.02669600  0.34593100  0.71344200  1
  Si  Si2  1  0.47302700  0.65270500  0.71390600  1
  Si  Si3  1  0.47301700  0.84721400  0.21387300  1
  Si  Si4  1  0.52670200  0.15389400  0.78658200  1
  Si  Si5  1  0.52670100  0.34619100  0.28658200  1
  Si  Si6  1  0.97305900  0.65335000  0.28646400  1
  Si  Si7  1  0.97305600  0.84660000  0.78648000  1
  O  O0  1  0.07023100  0.26327100  0.45102400  1
  O  O1  1  0.07023100  0.23670500  0.95108600  1
  O  O2  1  0.07216600  0.97954800  0.25657000  1
  O  O3  1  0.07216300  0.52044500  0.75654600  1
  O  O4  1  0.09069300  0.65384200  0.28681200  1
  O  O5  1  0.09069400  0.84614700  0.78682200  1
  O  O6  1  0.23140800  0.82471400  0.44049100  1
  O  O7  1  0.23141500  0.67523500  0.94048700  1
  O  O8  1  0.25067100  0.00047700  0.97721100  1
  O  O9  1  0.25067600  0.49943900  0.47720600  1
  O  O10  1  0.26877200  0.17281400  0.45026300  1
  O  O11  1  0.26879000  0.32712000  0.95026100  1
  O  O12  1  0.40970100  0.15415200  0.78596800  1
  O  O13  1  0.40970300  0.34581700  0.28602800  1
  O  O14  1  0.42764800  0.02104500  0.25946200  1
  O  O15  1  0.42765500  0.47898400  0.75952800  1
  O  O16  1  0.42985200  0.73662200  0.45105000  1
  O  O17  1  0.42984800  0.76346400  0.95113000  1
  O  O18  1  0.57031800  0.23681200  0.04899100  1
  O  O19  1  0.57032900  0.26316300  0.54907800  1
  O  O20  1  0.57226500  0.52078000  0.24294600  1
  O  O21  1  0.57225300  0.97922800  0.74287300  1
  O  O22  1  0.59069500  0.65402400  0.71331700  1
  O  O23  1  0.59068100  0.84603300  0.21329500  1
  O  O24  1  0.73130500  0.67402000  0.05843600  1
  O  O25  1  0.73130700  0.82601600  0.55839300  1
  O  O26  1  0.75017500  0.00027100  0.02410500  1
  O  O27  1  0.75017000  0.49969900  0.52414800  1
  O  O28  1  0.76881000  0.17357700  0.55693400  1
  O  O29  1  0.76880700  0.32642500  0.05690900  1
  O  O30  1  0.90961800  0.15374600  0.21352800  1
  O  O31  1  0.90961900  0.34626100  0.71352300  1
  O  O32  1  0.92810600  0.02086000  0.74240300  1
  O  O33  1  0.92809100  0.47916800  0.24238600  1
  O  O34  1  0.92999200  0.73682300  0.54889800  1
  O  O35  1  0.92999200  0.76323800  0.04883000  1
loop_
_geom_bond_atom_site_label_1
_geom_bond_atom_site_label_2
_geom_bond_distance
_geom_bond_site_symmetry_2
Li0 O10 2.070528 1_555
Li0 O5 2.139971 1_545
Li0 O8 2.165685 1_555
Li0 O0 2.384299 1_555
Li0 O6 2.424111 1_545
Li0 O2 2.456816 1_545
Li0 O1 2.528540 1_555
Li1 O11 2.070879 1_554
Li1 O4 2.140146 1_555
Li1 O9 2.165282 1_555
Li1 O1 2.384340 1_554
Li1 O7 2.423694 1_554
Li1 O3 2.457217 1_554
Li1 O0 2.528405 1_555
Li2 O13 2.119307 1_555
Li2 O7 2.120164 1_554
Li2 O9 2.166217 1_555
Li2 O11 2.367656 1_554
Li2 O17 2.394471 1_554
Li2 O15 2.428061 1_554
Li2 O16 2.538586 1_555
Li3 O12 2.119203 1_565
Li3 O6 2.120198 1_555
Li3 O8 2.166229 1_565
Li3 O10 2.367880 1_565
Li3 O16 2.393909 1_555
Li3 O14 2.428484 1_565
Li3 O17 2.538084 1_555
Li4 O28 2.102014 1_555
Li4 O23 2.127448 1_545
Li4 O26 2.159641 1_555
Li4 O19 2.388643 1_555
Li4 O25 2.406363 1_545
Li4 O21 2.450994 1_545
Li4 O18 2.528796 1_555
Li5 O29 2.102014 1_556
Li5 O22 2.127865 1_555
Li5 O27 2.159342 1_555
Li5 O18 2.388491 1_556
Li5 O24 2.406708 1_556
Li5 O20 2.451327 1_556
Li5 O19 2.528354 1_555
Li6 O24 2.106360 1_556
Li6 O31 2.128025 1_555
Li6 O27 2.153549 1_555
Li6 O35 2.393288 1_556
Li6 O29 2.396568 1_556
Li6 O33 2.450286 1_556
Li6 O34 2.536442 1_555
Li7 O25 2.106105 1_555
Li7 O30 2.127857 1_565
Li7 O26 2.153524 1_565
Li7 O34 2.393278 1_555
Li7 O28 2.396783 1_565
Li7 O32 2.450616 1_565
Li7 O35 2.536352 1_555
Cr0 O7 1.803603 1_555
Cr0 O3 1.900382 1_555
Cr0 O9 1.912736 1_555
Cr0 O6 1.927720 1_555
Cr0 O5 2.099115 1_555
Cr0 O4 2.115580 1_555
Cr1 O6 1.803114 1_555
Cr1 O2 1.900652 1_555
Cr1 O8 1.912217 1_564
Cr1 O7 1.928120 1_554
Cr1 O4 2.098933 1_555
Cr1 O5 2.116029 1_554
Cr2 O8 1.852844 1_554
Cr2 O11 1.864436 1_554
Cr2 O10 1.897885 1_555
Cr2 O14 1.947960 1_555
Cr2 O12 2.078986 1_554
Cr2 O13 2.136082 1_555
Cr3 O9 1.853079 1_555
Cr3 O10 1.864593 1_555
Cr3 O11 1.898232 1_555
Cr3 O15 1.948186 1_555
Cr3 O13 2.078213 1_555
Cr3 O12 2.135589 1_555
Cr4 O24 1.814853 1_555
Cr4 O27 1.899563 1_555
Cr4 O20 1.906917 1_555
Cr4 O25 1.922248 1_555
Cr4 O23 2.106132 1_555
Cr4 O22 2.112373 1_555
Cr5 O25 1.814926 1_555
Cr5 O26 1.898574 1_566
Cr5 O21 1.906415 1_555
Cr5 O24 1.923304 1_556
Cr5 O22 2.106264 1_555
Cr5 O23 2.112577 1_556
Cr6 O28 1.824450 1_555
Cr6 O26 1.883313 1_556
Cr6 O29 1.912742 1_556
Cr6 O32 1.921784 1_555
Cr6 O30 2.109894 1_556
Cr6 O31 2.120134 1_555
Cr7 O29 1.825089 1_555
Cr7 O27 1.882782 1_555
Cr7 O28 1.912377 1_555
Cr7 O33 1.922007 1_555
Cr7 O31 2.109433 1_555
Cr7 O30 2.120747 1_555
O0 Si1 1.641863 1_555
O0 Si0 1.648888 1_555
O1 Si0 1.641280 1_556
O1 Si1 1.649466 1_555
O2 Si0 1.613265 1_565
O3 Si1 1.612685 1_555
O4 Si6 1.646320 1_455
O5 Si7 1.646376 1_455
O12 Si4 1.637458 1_555
O13 Si5 1.637417 1_555
O14 Si3 1.609019 1_545
O15 Si2 1.608147 1_555
O16 Si2 1.645394 1_555
O16 Si3 1.653005 1_555
O17 Si3 1.644247 1_556
O17 Si2 1.654089 1_555
O18 Si4 1.642153 1_554
O18 Si5 1.651279 1_555
O19 Si5 1.643013 1_555
O19 Si4 1.650438 1_555
O20 Si5 1.614346 1_555
O21 Si4 1.614990 1_565
O22 Si2 1.646834 1_555
O23 Si3 1.646772 1_555
O30 Si0 1.638482 1_655
O31 Si1 1.638523 1_655
O32 Si7 1.608683 1_545
O33 Si6 1.608112 1_555
O34 Si6 1.642407 1_555
O34 Si7 1.649344 1_555
O35 Si7 1.641601 1_554
O35 Si6 1.650125 1_555
