# generated using pymatgen
data_Li4MnFe3(PO4)4
_symmetry_space_group_name_H-M   'P 1'
_cell_length_a   6.10508000
_cell_length_b   4.76208800
_cell_length_c   10.46704167
_cell_angle_alpha   89.87561048
_cell_angle_beta   90.00000000
_cell_angle_gamma   90.00000000
_symmetry_Int_Tables_number   1
_chemical_formula_structural   Li4MnFe3(PO4)4
_chemical_formula_sum   'Li4 Mn1 Fe3 P4 O16'
_cell_volume   304.30683378
_cell_formula_units_Z   1
loop_
 _symmetry_equiv_pos_site_id
 _symmetry_equiv_pos_as_xyz
  1  'x, y, z'
loop_
 _atom_site_type_symbol
 _atom_site_label
 _atom_site_symmetry_multiplicity
 _atom_site_fract_x
 _atom_site_fract_y
 _atom_site_fract_z
 _atom_site_occupancy
  Li  Li0  1  0.24937100  0.99998300  0.00053300  1
  Li  Li1  1  0.75062900  0.99998300  0.00053300  1
  Li  Li2  1  0.24913200  0.50021400  0.49969600  1
  Li  Li3  1  0.75086800  0.50021400  0.49969600  1
  Mn  Mn0  1  0.50000000  0.97798300  0.71850800  1
  Fe  Fe0  1  0.00000000  0.47491200  0.78158400  1
  Fe  Fe1  1  0.00000000  0.02491500  0.28148300  1
  Fe  Fe2  1  0.50000000  0.52549100  0.21855600  1
  P  P0  1  0.50000000  0.41993400  0.90741600  1
  P  P1  1  0.00000000  0.91560800  0.59387600  1
  P  P2  1  0.50000000  0.08226200  0.40419200  1
  P  P3  1  0.00000000  0.58153400  0.09484700  1
  O  O0  1  0.00000000  0.70723500  0.95729900  1
  O  O1  1  0.50000000  0.74192700  0.90531200  1
  O  O2  1  0.29699600  0.28913200  0.83607500  1
  O  O3  1  0.70300400  0.28913200  0.83607500  1
  O  O4  1  0.79845000  0.77961700  0.66402300  1
  O  O5  1  0.20155000  0.77961700  0.66402300  1
  O  O6  1  0.00000000  0.23836500  0.59679400  1
  O  O7  1  0.50000000  0.20944300  0.54120400  1
  O  O8  1  0.00000000  0.79401200  0.45578200  1
  O  O9  1  0.50000000  0.75988300  0.40338300  1
  O  O10  1  0.29690600  0.21458600  0.33355800  1
  O  O11  1  0.70309400  0.21458600  0.33355800  1
  O  O12  1  0.79711200  0.71435300  0.16552100  1
  O  O13  1  0.20288800  0.71435300  0.16552100  1
  O  O14  1  0.00000000  0.25902200  0.09680500  1
  O  O15  1  0.50000000  0.29170400  0.04415000  1
loop_
_geom_bond_atom_site_label_1
_geom_bond_atom_site_label_2
_geom_bond_distance
_geom_bond_site_symmetry_2
Li0 O0 2.113956 1_554
Li0 O15 2.117144 1_565
Li0 O1 2.202292 1_554
Li0 O14 2.204609 1_565
Li0 O13 2.214221 1_555
Li0 O2 2.221131 1_564
Li1 O0 2.113956 1_654
Li1 O15 2.117144 1_565
Li1 O1 2.202292 1_554
Li1 O14 2.204609 1_665
Li1 O12 2.214221 1_555
Li1 O3 2.221131 1_564
Li2 O7 2.109309 1_555
Li2 O8 2.116435 1_555
Li2 O5 2.196161 1_555
Li2 O9 2.210357 1_555
Li2 O6 2.212612 1_555
Li2 O10 2.229231 1_555
Li3 O7 2.109309 1_555
Li3 O8 2.116435 1_655
Li3 O4 2.196161 1_555
Li3 O9 2.210357 1_555
Li3 O6 2.212612 1_655
Li3 O11 2.229231 1_555
Mn0 O5 2.130686 1_555
Mn0 O4 2.130686 1_555
Mn0 O7 2.156434 1_565
Mn0 O1 2.253273 1_555
Mn0 O3 2.292103 1_565
Mn0 O2 2.292103 1_565
Fe0 O2 2.096056 1_555
Fe0 O3 2.096056 1_455
Fe0 O0 2.148382 1_555
Fe0 O6 2.240427 1_555
Fe0 O4 2.264065 1_455
Fe0 O5 2.264065 1_555
Fe1 O11 2.097787 1_455
Fe1 O10 2.097787 1_555
Fe1 O8 2.128094 1_545
Fe1 O14 2.229377 1_555
Fe1 O13 2.280903 1_545
Fe1 O12 2.280903 1_445
Fe2 O12 2.098827 1_555
Fe2 O13 2.098827 1_555
Fe2 O15 2.140280 1_555
Fe2 O9 2.235601 1_555
Fe2 O10 2.273905 1_555
Fe2 O11 2.273905 1_555
O0 P3 1.558003 1_556
O1 P0 1.533469 1_555
O2 P0 1.575950 1_555
O3 P0 1.575950 1_555
O4 P1 1.571781 1_655
O5 P1 1.571781 1_555
O6 P1 1.537367 1_545
O7 P2 1.557964 1_555
O8 P1 1.558274 1_555
O9 P2 1.535239 1_565
O10 P2 1.574492 1_555
O11 P2 1.574492 1_555
O12 P3 1.575930 1_655
O13 P3 1.575930 1_555
O14 P3 1.535923 1_555
O15 P0 1.554807 1_554
