# generated using pymatgen
data_Ba8LiNb7O24
_symmetry_space_group_name_H-M   'P 1'
_cell_length_a   5.92238760
_cell_length_b   5.92238760
_cell_length_c   19.22246600
_cell_angle_alpha   90.00000000
_cell_angle_beta   90.00000000
_cell_angle_gamma   119.99999556
_symmetry_Int_Tables_number   1
_chemical_formula_structural   Ba8LiNb7O24
_chemical_formula_sum   'Ba8 Li1 Nb7 O24'
_cell_volume   583.89318594
_cell_formula_units_Z   1
loop_
 _symmetry_equiv_pos_site_id
 _symmetry_equiv_pos_as_xyz
  1  'x, y, z'
loop_
 _atom_site_type_symbol
 _atom_site_label
 _atom_site_symmetry_multiplicity
 _atom_site_fract_x
 _atom_site_fract_y
 _atom_site_fract_z
 _atom_site_occupancy
  Ba  Ba0  1  0.66666700  0.33333300  0.13215300  1
  Ba  Ba1  1  0.66666700  0.33333300  0.75208200  1
  Ba  Ba2  1  0.33333300  0.66666700  0.99420800  1
  Ba  Ba3  1  0.66666700  0.33333300  0.36522000  1
  Ba  Ba4  1  0.33333300  0.66666700  0.50217700  1
  Ba  Ba5  1  0.00000000  0.00000000  0.24966600  1
  Ba  Ba6  1  0.00000000  0.00000000  0.85679700  1
  Ba  Ba7  1  0.00000000  0.00000000  0.63479900  1
  Li  Li0  1  0.33333300  0.66666700  0.83142700  1
  Nb  Nb0  1  0.66666700  0.33333300  0.56044300  1
  Nb  Nb1  1  0.33333300  0.66666700  0.18246000  1
  Nb  Nb2  1  0.33333300  0.66666700  0.31793200  1
  Nb  Nb3  1  0.33333300  0.66666700  0.69002100  1
  Nb  Nb4  1  0.66666700  0.33333300  0.93404200  1
  Nb  Nb5  1  0.00000000  0.00000000  0.05990100  1
  Nb  Nb6  1  0.00000000  0.00000000  0.43947900  1
  O  O0  1  0.49509900  0.50490100  0.24980900  1
  O  O1  1  0.33164600  0.16582300  0.00376200  1
  O  O2  1  0.33438300  0.16719200  0.49915200  1
  O  O3  1  0.50184200  0.49815800  0.62068400  1
  O  O4  1  0.50702700  0.49297300  0.88114000  1
  O  O5  1  0.50184200  0.00368300  0.62068400  1
  O  O6  1  0.50702700  0.01405400  0.88114000  1
  O  O7  1  0.49509900  0.99019800  0.24980900  1
  O  O8  1  0.65048100  0.82524000  0.74349800  1
  O  O9  1  0.99631700  0.49815800  0.62068400  1
  O  O10  1  0.98594600  0.49297300  0.88114000  1
  O  O11  1  0.83417700  0.16582300  0.00376200  1
  O  O12  1  0.83280800  0.16719200  0.49915200  1
  O  O13  1  0.67228400  0.83614200  0.12428700  1
  O  O14  1  0.67109600  0.83554800  0.37673700  1
  O  O15  1  0.00980200  0.50490100  0.24980900  1
  O  O16  1  0.16445200  0.32890400  0.37673700  1
  O  O17  1  0.83417700  0.66835400  0.00376200  1
  O  O18  1  0.83280800  0.66561700  0.49915200  1
  O  O19  1  0.16385800  0.32771600  0.12428700  1
  O  O20  1  0.17476000  0.34951900  0.74349800  1
  O  O21  1  0.16385800  0.83614200  0.12428700  1
  O  O22  1  0.16445200  0.83554800  0.37673700  1
  O  O23  1  0.17476000  0.82524000  0.74349800  1
loop_
_geom_bond_atom_site_label_1
_geom_bond_atom_site_label_2
_geom_bond_distance
_geom_bond_site_symmetry_2
Ba0 O7 2.865715 1_545
Ba0 O15 2.865715 1_655
Ba0 O0 2.865718 1_555
Ba0 O13 2.965189 1_545
Ba0 O19 2.965189 1_655
Ba0 O21 2.965192 1_545
Ba0 O21 2.965192 1_655
Ba0 O19 2.965195 1_555
Ba0 O13 2.965195 1_555
Ba0 O11 3.007246 1_555
Ba0 O1 3.007249 1_555
Ba0 O17 3.007249 1_555
Ba1 O8 2.966949 1_555
Ba1 O20 2.966949 1_555
Ba1 O20 2.966949 1_655
Ba1 O8 2.966949 1_545
Ba1 O23 2.966949 1_545
Ba1 O23 2.966949 1_655
Ba1 O10 2.972548 1_555
Ba1 O6 2.972548 1_555
Ba1 O4 2.972551 1_555
Ba1 O3 3.039455 1_555
Ba1 O9 3.039455 1_555
Ba1 O5 3.039455 1_555
Ba2 O6 2.810412 1_565
Ba2 O10 2.810412 1_455
Ba2 O4 2.810415 1_555
Ba2 O1 2.966893 1_566
Ba2 O17 2.966893 1_456
Ba2 O11 2.966896 1_566
Ba2 O11 2.966896 1_456
Ba2 O17 2.966899 1_556
Ba2 O1 2.966899 1_556
Ba2 O21 3.045393 1_556
Ba2 O13 3.045396 1_556
Ba2 O19 3.045396 1_556
Ba3 O7 2.831781 1_545
Ba3 O15 2.831781 1_655
Ba3 O0 2.831784 1_555
Ba3 O16 2.969542 1_655
Ba3 O14 2.969542 1_545
Ba3 O22 2.969545 1_655
Ba3 O22 2.969545 1_545
Ba3 O14 2.969548 1_555
Ba3 O16 2.969548 1_555
Ba3 O12 3.087483 1_555
Ba3 O2 3.087488 1_555
Ba3 O18 3.087488 1_555
Ba4 O9 2.859563 1_455
Ba4 O5 2.859563 1_565
Ba4 O3 2.859569 1_555
Ba4 O18 2.961770 1_555
Ba4 O2 2.961770 1_555
Ba4 O2 2.961770 1_565
Ba4 O18 2.961770 1_455
Ba4 O12 2.961770 1_565
Ba4 O12 2.961770 1_455
Ba4 O22 2.969053 1_555
Ba4 O16 2.969056 1_555
Ba4 O14 2.969056 1_555
Ba5 O21 2.938326 1_545
Ba5 O13 2.938326 1_445
Ba5 O19 2.938326 1_555
Ba5 O7 2.961622 1_545
Ba5 O15 2.961622 1_545
Ba5 O7 2.961622 1_445
Ba5 O15 2.961622 1_555
Ba5 O0 2.961622 1_445
Ba5 O0 2.961622 1_555
Ba5 O22 2.968520 1_545
Ba5 O16 2.968520 1_555
Ba5 O14 2.968520 1_445
Ba6 O8 2.820784 1_445
Ba6 O20 2.820784 1_555
Ba6 O23 2.820787 1_545
Ba6 O10 2.998804 1_455
Ba6 O6 2.998804 1_455
Ba6 O10 2.998804 1_445
Ba6 O6 2.998804 1_555
Ba6 O4 2.998804 1_555
Ba6 O4 2.998804 1_445
Ba6 O11 3.297600 1_456
Ba6 O1 3.297600 1_556
Ba6 O17 3.297600 1_446
Ba7 O8 2.753087 1_445
Ba7 O20 2.753087 1_555
Ba7 O23 2.753091 1_545
Ba7 O5 2.973655 1_455
Ba7 O9 2.973655 1_455
Ba7 O3 2.973658 1_555
Ba7 O3 2.973658 1_445
Ba7 O9 2.973661 1_445
Ba7 O5 2.973661 1_555
Ba7 O2 3.120934 1_555
Ba7 O18 3.120934 1_445
Ba7 O12 3.120936 1_455
Li0 O6 2.021814 1_565
Li0 O10 2.021814 1_455
Li0 O4 2.021819 1_555
Li0 O23 2.345787 1_555
Li0 O8 2.345794 1_555
Li0 O20 2.345794 1_555
Nb0 O3 2.049285 1_555
Nb0 O5 2.049285 1_555
Nb0 O9 2.049285 1_555
Nb0 O12 2.071847 1_555
Nb0 O2 2.071856 1_555
Nb0 O18 2.071856 1_555
Nb1 O21 2.067040 1_555
Nb1 O13 2.067045 1_555
Nb1 O19 2.067045 1_555
Nb1 O15 2.104646 1_555
Nb1 O7 2.104646 1_555
Nb1 O0 2.104650 1_555
Nb2 O22 2.068532 1_555
Nb2 O14 2.068536 1_555
Nb2 O16 2.068536 1_555
Nb2 O7 2.113831 1_555
Nb2 O15 2.113831 1_555
Nb2 O0 2.113835 1_555
Nb3 O23 1.924214 1_555
Nb3 O8 1.924223 1_555
Nb3 O20 1.924223 1_555
Nb3 O9 2.182719 1_455
Nb3 O5 2.182719 1_565
Nb3 O3 2.182727 1_555
Nb4 O6 1.927618 1_555
Nb4 O10 1.927618 1_555
Nb4 O4 1.927622 1_555
Nb4 O11 2.179141 1_556
Nb4 O1 2.179145 1_556
Nb4 O17 2.179145 1_556
Nb5 O11 2.014422 1_455
Nb5 O17 2.014422 1_445
Nb5 O1 2.014422 1_555
Nb5 O21 2.087344 1_545
Nb5 O13 2.087344 1_445
Nb5 O19 2.087344 1_555
Nb6 O18 2.063269 1_445
Nb6 O2 2.063269 1_555
Nb6 O12 2.063273 1_455
Nb6 O22 2.073716 1_545
Nb6 O16 2.073716 1_555
Nb6 O14 2.073716 1_445
