# generated using pymatgen
data_Fe9Cu3O16
_symmetry_space_group_name_H-M   'P 1'
_cell_length_a   6.01963533
_cell_length_b   12.06356033
_cell_length_c   10.36054322
_cell_angle_alpha   30.14182568
_cell_angle_beta   55.29540956
_cell_angle_gamma   60.38729501
_symmetry_Int_Tables_number   1
_chemical_formula_structural   Fe9Cu3O16
_chemical_formula_sum   'Fe9 Cu3 O16'
_cell_volume   310.58087419
_cell_formula_units_Z   1
loop_
 _symmetry_equiv_pos_site_id
 _symmetry_equiv_pos_as_xyz
  1  'x, y, z'
loop_
 _atom_site_type_symbol
 _atom_site_label
 _atom_site_symmetry_multiplicity
 _atom_site_fract_x
 _atom_site_fract_y
 _atom_site_fract_z
 _atom_site_occupancy
  Fe  Fe0  1  0.00823400  0.00510400  0.99568000  1
  Fe  Fe1  1  0.24540300  0.99665100  0.25034800  1
  Fe  Fe2  1  0.00459700  0.50334900  0.99965200  1
  Fe  Fe3  1  0.12028100  0.99667300  0.63185100  1
  Fe  Fe4  1  0.24176600  0.49489600  0.25432000  1
  Fe  Fe5  1  0.62500000  0.25000000  0.12500000  1
  Fe  Fe6  1  0.12971900  0.50332700  0.61814900  1
  Fe  Fe7  1  0.62500000  0.25000000  0.62500000  1
  Fe  Fe8  1  0.62500000  0.75000000  0.62500000  1
  Cu  Cu0  1  0.62318900  0.99733500  0.63026100  1
  Cu  Cu1  1  0.62500000  0.75000000  0.12500000  1
  Cu  Cu2  1  0.62681100  0.50266500  0.61973900  1
  O  O0  1  0.38408700  0.00128900  0.38054100  1
  O  O1  1  0.37841100  0.23737700  0.37624400  1
  O  O2  1  0.85274000  0.99890800  0.37878300  1
  O  O3  1  0.37135600  0.48812100  0.39533600  1
  O  O4  1  0.36616800  0.73601700  0.38979200  1
  O  O5  1  0.37400800  0.25873100  0.85773200  1
  O  O6  1  0.87599200  0.24126900  0.39226800  1
  O  O7  1  0.85623100  0.49457700  0.38303300  1
  O  O8  1  0.39726000  0.50109200  0.87121700  1
  O  O9  1  0.37472500  0.75764700  0.85767900  1
  O  O10  1  0.87158900  0.26262300  0.87375600  1
  O  O11  1  0.87527500  0.74235300  0.39232100  1
  O  O12  1  0.86591300  0.49871100  0.86945900  1
  O  O13  1  0.39376900  0.00542300  0.86696700  1
  O  O14  1  0.88383200  0.76398300  0.86020800  1
  O  O15  1  0.87864400  0.01187900  0.85466400  1
loop_
_geom_bond_atom_site_label_1
_geom_bond_atom_site_label_2
_geom_bond_distance
_geom_bond_site_symmetry_2
Fe0 O13 1.907940 1_555
Fe0 O15 1.943702 1_455
Fe0 O10 1.947750 1_455
Fe0 O11 1.951444 1_446
Fe1 O4 1.892637 1_555
Fe1 O5 1.931655 1_564
Fe1 O2 1.943192 1_455
Fe1 O0 1.994608 1_565
Fe2 O14 1.892637 1_455
Fe2 O6 1.931655 1_456
Fe2 O8 1.943192 1_555
Fe2 O12 1.994608 1_455
Fe3 O15 2.030669 1_465
Fe3 O14 2.032371 1_455
Fe3 O9 2.045012 1_555
Fe3 O6 2.056905 1_465
Fe3 O1 2.081511 1_565
Fe3 O0 2.105383 1_565
Fe4 O7 1.907940 1_455
Fe4 O3 1.943702 1_555
Fe4 O1 1.947750 1_555
Fe4 O9 1.951444 1_554
Fe5 O1 2.034787 1_555
Fe5 O10 2.034787 1_554
Fe5 O2 2.047836 1_545
Fe5 O8 2.047836 1_554
Fe5 O12 2.074566 1_554
Fe5 O0 2.074566 1_555
Fe6 O3 2.030669 1_555
Fe6 O4 2.032371 1_555
Fe6 O11 2.045012 1_455
Fe6 O5 2.056905 1_555
Fe6 O10 2.081511 1_455
Fe6 O12 2.105383 1_455
Fe7 O7 2.054198 1_555
Fe7 O13 2.054198 1_555
Fe7 O15 2.055539 1_555
Fe7 O3 2.055539 1_555
Fe7 O5 2.059497 1_555
Fe7 O6 2.059497 1_555
Fe8 O9 2.049722 1_555
Fe8 O11 2.049722 1_555
Fe8 O2 2.059360 1_555
Fe8 O8 2.059360 1_555
Fe8 O12 2.065399 1_555
Fe8 O0 2.065399 1_565
Cu0 O14 2.086600 1_555
Cu0 O13 2.086903 1_565
Cu0 O1 2.121466 1_565
Cu0 O2 2.130486 1_555
Cu0 O9 2.151079 1_555
Cu0 O6 2.158347 1_565
Cu1 O7 2.080889 1_555
Cu1 O13 2.080889 1_564
Cu1 O4 2.138775 1_555
Cu1 O14 2.138775 1_554
Cu1 O15 2.179454 1_564
Cu1 O3 2.179454 1_555
Cu2 O4 2.086600 1_555
Cu2 O7 2.086903 1_555
Cu2 O10 2.121466 1_555
Cu2 O8 2.130486 1_555
Cu2 O11 2.151079 1_555
Cu2 O5 2.158347 1_555
