# generated using pymatgen
data_CoH17S2N5ClO4
_symmetry_space_group_name_H-M   'P 1'
_cell_length_a   8.36685000
_cell_length_b   10.37744300
_cell_length_c   13.52081000
_cell_angle_alpha   90.00000000
_cell_angle_beta   90.00000000
_cell_angle_gamma   90.00000000
_symmetry_Int_Tables_number   1
_chemical_formula_structural   CoH17S2N5ClO4
_chemical_formula_sum   'Co4 H68 S8 N20 Cl4 O16'
_cell_volume   1173.96473067
_cell_formula_units_Z   4
loop_
 _symmetry_equiv_pos_site_id
 _symmetry_equiv_pos_as_xyz
  1  'x, y, z'
loop_
 _atom_site_type_symbol
 _atom_site_label
 _atom_site_symmetry_multiplicity
 _atom_site_fract_x
 _atom_site_fract_y
 _atom_site_fract_z
 _atom_site_occupancy
  Co  Co0  1  0.25000000  0.24555300  0.66469600  1
  Co  Co1  1  0.25000000  0.25444700  0.16469600  1
  Co  Co2  1  0.75000000  0.75444700  0.33530400  1
  Co  Co3  1  0.75000000  0.74555300  0.83530400  1
  H  H0  1  0.15094400  0.46480200  0.59380300  1
  H  H1  1  0.34905600  0.03519800  0.09380300  1
  H  H2  1  0.65094400  0.53519800  0.40619700  1
  H  H3  1  0.84905600  0.96480200  0.90619700  1
  H  H4  1  0.84905600  0.53519800  0.40619700  1
  H  H5  1  0.65094400  0.96480200  0.90619700  1
  H  H6  1  0.34905600  0.46480200  0.59380300  1
  H  H7  1  0.15094400  0.03519800  0.09380300  1
  H  H8  1  0.25000000  0.48763200  0.69700700  1
  H  H9  1  0.25000000  0.01236800  0.19700700  1
  H  H10  1  0.75000000  0.51236800  0.30299300  1
  H  H11  1  0.75000000  0.98763200  0.80299300  1
  H  H12  1  0.97192900  0.16707900  0.58347900  1
  H  H13  1  0.52807100  0.33292100  0.08347900  1
  H  H14  1  0.47192900  0.83292100  0.41652100  1
  H  H15  1  0.02807100  0.66707900  0.91652100  1
  H  H16  1  0.02807100  0.83292100  0.41652100  1
  H  H17  1  0.47192900  0.66707900  0.91652100  1
  H  H18  1  0.52807100  0.16707900  0.58347900  1
  H  H19  1  0.97192900  0.33292100  0.08347900  1
  H  H20  1  0.04659000  0.28220300  0.51192800  1
  H  H21  1  0.45341000  0.21779700  0.01192800  1
  H  H22  1  0.54659000  0.71779700  0.48807200  1
  H  H23  1  0.95341000  0.78220300  0.98807200  1
  H  H24  1  0.95341000  0.71779700  0.48807200  1
  H  H25  1  0.54659000  0.78220300  0.98807200  1
  H  H26  1  0.45341000  0.28220300  0.51192800  1
  H  H27  1  0.04659000  0.21779700  0.01192800  1
  H  H28  1  0.11770100  0.13465600  0.50689900  1
  H  H29  1  0.38229900  0.36534400  0.00689900  1
  H  H30  1  0.61770100  0.86534400  0.49310100  1
  H  H31  1  0.88229900  0.63465600  0.99310100  1
  H  H32  1  0.88229900  0.86534400  0.49310100  1
  H  H33  1  0.61770100  0.63465600  0.99310100  1
  H  H34  1  0.38229900  0.13465600  0.50689900  1
  H  H35  1  0.11770100  0.36534400  0.00689900  1
  H  H36  1  0.96249500  0.31034800  0.73063800  1
  H  H37  1  0.53750500  0.18965200  0.23063800  1
  H  H38  1  0.46249500  0.68965200  0.26936200  1
  H  H39  1  0.03750500  0.81034800  0.76936200  1
  H  H40  1  0.03750500  0.68965200  0.26936200  1
  H  H41  1  0.46249500  0.81034800  0.76936200  1
  H  H42  1  0.53750500  0.31034800  0.73063800  1
  H  H43  1  0.96249500  0.18965200  0.23063800  1
  H  H44  1  0.04128200  0.20833800  0.81109900  1
  H  H45  1  0.45871800  0.29166200  0.31109900  1
  H  H46  1  0.54128200  0.79166200  0.18890100  1
  H  H47  1  0.95871800  0.70833800  0.68890100  1
  H  H48  1  0.95871800  0.79166200  0.18890100  1
  H  H49  1  0.54128200  0.70833800  0.68890100  1
  H  H50  1  0.45871800  0.20833800  0.81109900  1
  H  H51  1  0.04128200  0.29166200  0.31109900  1
  H  H52  1  0.09951900  0.36101800  0.81025900  1
  H  H53  1  0.40048100  0.13898200  0.31025900  1
  H  H54  1  0.59951900  0.63898200  0.18974100  1
  H  H55  1  0.90048100  0.86101800  0.68974100  1
  H  H56  1  0.90048100  0.63898200  0.18974100  1
  H  H57  1  0.59951900  0.86101800  0.68974100  1
  H  H58  1  0.40048100  0.36101800  0.81025900  1
  H  H59  1  0.09951900  0.13898200  0.31025900  1
  H  H60  1  0.25000000  0.82520200  0.58878700  1
  H  H61  1  0.25000000  0.67479800  0.08878700  1
  H  H62  1  0.75000000  0.17479800  0.41121300  1
  H  H63  1  0.75000000  0.32520200  0.91121300  1
  H  H64  1  0.25000000  0.71547500  0.51173500  1
  H  H65  1  0.25000000  0.78452500  0.01173500  1
  H  H66  1  0.75000000  0.28452500  0.48826500  1
  H  H67  1  0.75000000  0.21547500  0.98826500  1
  S  S0  1  0.25000000  0.03064400  0.70273300  1
  S  S1  1  0.25000000  0.46935600  0.20273300  1
  S  S2  1  0.75000000  0.96935600  0.29726700  1
  S  S3  1  0.75000000  0.53064400  0.79726700  1
  S  S4  1  0.25000000  0.00147000  0.85595900  1
  S  S5  1  0.25000000  0.49853000  0.35595900  1
  S  S6  1  0.75000000  0.99853000  0.14404100  1
  S  S7  1  0.75000000  0.50147000  0.64404100  1
  N  N0  1  0.25000000  0.43529600  0.63237300  1
  N  N1  1  0.25000000  0.06470400  0.13237300  1
  N  N2  1  0.75000000  0.56470400  0.36762700  1
  N  N3  1  0.75000000  0.93529600  0.86762700  1
  N  N4  1  0.07635100  0.20425800  0.55478300  1
  N  N5  1  0.42364900  0.29574200  0.05478300  1
  N  N6  1  0.57635100  0.79574200  0.44521700  1
  N  N7  1  0.92364900  0.70425800  0.94521700  1
  N  N8  1  0.92364900  0.79574200  0.44521700  1
  N  N9  1  0.57635100  0.70425800  0.94521700  1
  N  N10  1  0.42364900  0.20425800  0.55478300  1
  N  N11  1  0.07635100  0.29574200  0.05478300  1
  N  N12  1  0.06673300  0.28471200  0.76551700  1
  N  N13  1  0.43326700  0.21528800  0.26551700  1
  N  N14  1  0.56673300  0.71528800  0.23448300  1
  N  N15  1  0.93326700  0.78471200  0.73448300  1
  N  N16  1  0.93326700  0.71528800  0.23448300  1
  N  N17  1  0.56673300  0.78471200  0.73448300  1
  N  N18  1  0.43326700  0.28471200  0.76551700  1
  N  N19  1  0.06673300  0.21528800  0.26551700  1
  Cl  Cl0  1  0.25000000  0.51291900  0.89724700  1
  Cl  Cl1  1  0.25000000  0.98708100  0.39724700  1
  Cl  Cl2  1  0.75000000  0.48708100  0.10275300  1
  Cl  Cl3  1  0.75000000  0.01291900  0.60275300  1
  O  O0  1  0.25000000  0.85871300  0.86183800  1
  O  O1  1  0.25000000  0.64128700  0.36183800  1
  O  O2  1  0.75000000  0.14128700  0.13816200  1
  O  O3  1  0.75000000  0.35871300  0.63816200  1
  O  O4  1  0.10322100  0.05848000  0.89806400  1
  O  O5  1  0.39677900  0.44152000  0.39806400  1
  O  O6  1  0.60322100  0.94152000  0.10193600  1
  O  O7  1  0.89677900  0.55848000  0.60193600  1
  O  O8  1  0.89677900  0.94152000  0.10193600  1
  O  O9  1  0.60322100  0.55848000  0.60193600  1
  O  O10  1  0.39677900  0.05848000  0.89806400  1
  O  O11  1  0.10322100  0.44152000  0.39806400  1
  O  O12  1  0.25000000  0.73150300  0.58312300  1
  O  O13  1  0.25000000  0.76849700  0.08312300  1
  O  O14  1  0.75000000  0.26849700  0.41687700  1
  O  O15  1  0.75000000  0.23150300  0.91687700  1
loop_
_geom_bond_atom_site_label_1
_geom_bond_atom_site_label_2
_geom_bond_distance
_geom_bond_site_symmetry_2
Co0 N0 2.016964 1_555
Co0 N18 2.091558 1_555
Co0 N12 2.091558 1_555
Co0 N10 2.122046 1_555
Co0 N4 2.122046 1_555
Co0 S0 2.288736 1_555
Co1 N1 2.016964 1_555
Co1 N19 2.091558 1_555
Co1 N13 2.091558 1_555
Co1 N11 2.122046 1_555
Co1 N5 2.122046 1_555
Co1 S1 2.288736 1_555
Co2 N2 2.016964 1_555
Co2 N14 2.091558 1_555
Co2 N16 2.091558 1_555
Co2 N6 2.122046 1_555
Co2 N8 2.122046 1_555
Co2 S2 2.288736 1_555
Co3 N3 2.016964 1_555
Co3 N15 2.091558 1_555
Co3 N17 2.091558 1_555
Co3 N9 2.122046 1_555
Co3 N7 2.122046 1_555
Co3 S3 2.288736 1_555
H0 N0 1.025965 1_555
H1 N1 1.025965 1_555
H2 N2 1.025965 1_555
H3 N3 1.025965 1_555
H4 N2 1.025965 1_555
H5 N3 1.025965 1_555
H6 N0 1.025965 1_555
H7 N1 1.025965 1_555
H8 N0 1.028922 1_555
H9 N1 1.028922 1_555
H10 N2 1.028922 1_555
H11 N3 1.028922 1_555
H12 N4 1.030883 1_655
H13 N5 1.030883 1_555
H14 N6 1.030883 1_555
H15 N7 1.030883 1_455
H16 N8 1.030883 1_455
H17 N9 1.030883 1_555
H18 N10 1.030883 1_555
H19 N11 1.030883 1_655
H20 N4 1.025679 1_555
H21 N5 1.025679 1_555
H22 N6 1.025679 1_555
H23 N7 1.025679 1_555
H24 N8 1.025679 1_555
H25 N9 1.025679 1_555
H26 N10 1.025679 1_555
H27 N11 1.025679 1_555
H28 N4 1.029837 1_555
H29 N5 1.029837 1_555
H30 N6 1.029837 1_555
H31 N7 1.029837 1_555
H32 N8 1.029837 1_555
H33 N9 1.029837 1_555
H34 N10 1.029837 1_555
H35 N11 1.029837 1_555
H36 N12 1.026552 1_655
H37 N13 1.026552 1_555
H38 N14 1.026552 1_555
H39 N15 1.026552 1_455
H40 N16 1.026552 1_455
H41 N17 1.026552 1_555
H42 N18 1.026552 1_555
H43 N19 1.026552 1_655
H44 N12 1.026324 1_555
H45 N13 1.026324 1_555
H46 N14 1.026324 1_555
H47 N15 1.026324 1_555
H48 N16 1.026324 1_555
H49 N17 1.026324 1_555
H50 N18 1.026324 1_555
H51 N19 1.026324 1_555
H52 N12 1.033564 1_555
H53 N13 1.033564 1_555
H54 N14 1.033564 1_555
H55 N15 1.033564 1_555
H56 N16 1.033564 1_555
H57 N17 1.033564 1_555
H58 N18 1.033564 1_555
H59 N19 1.033564 1_555
H60 O12 0.975367 1_555
H61 O13 0.975367 1_555
H62 O14 0.975367 1_555
H63 O15 0.975367 1_555
H64 O12 0.979450 1_555
H65 O13 0.979450 1_555
H66 O14 0.979450 1_555
H67 O15 0.979450 1_555
S0 S4 2.093744 1_555
S1 S5 2.093744 1_555
S2 S6 2.093744 1_555
S3 S7 2.093744 1_555
O0 S4 1.483584 1_565
O1 S5 1.483584 1_555
O2 S6 1.483584 1_545
O3 S7 1.483584 1_555
O4 S4 1.477255 1_555
O5 S5 1.477255 1_555
O6 S6 1.477255 1_555
O7 S7 1.477255 1_555
O8 S6 1.477255 1_555
O9 S7 1.477255 1_555
O10 S4 1.477255 1_555
O11 S5 1.477255 1_555
