# generated using pymatgen
data_FeSb3(PO4)4
_symmetry_space_group_name_H-M   'P 1'
_cell_length_a   6.92817300
_cell_length_b   4.98520600
_cell_length_c   10.23788269
_cell_angle_alpha   87.17433294
_cell_angle_beta   90.00000000
_cell_angle_gamma   90.00000000
_symmetry_Int_Tables_number   1
_chemical_formula_structural   FeSb3(PO4)4
_chemical_formula_sum   'Fe1 Sb3 P4 O16'
_cell_volume   353.16985344
_cell_formula_units_Z   1
loop_
 _symmetry_equiv_pos_site_id
 _symmetry_equiv_pos_as_xyz
  1  'x, y, z'
loop_
 _atom_site_type_symbol
 _atom_site_label
 _atom_site_symmetry_multiplicity
 _atom_site_fract_x
 _atom_site_fract_y
 _atom_site_fract_z
 _atom_site_occupancy
  Fe  Fe0  1  0.50000000  0.96894400  0.73127000  1
  Sb  Sb0  1  0.00000000  0.04562100  0.28131800  1
  Sb  Sb1  1  0.00000000  0.45466500  0.78341400  1
  Sb  Sb2  1  0.50000000  0.54607400  0.22288500  1
  P  P0  1  0.50000000  0.08983200  0.41315900  1
  P  P1  1  0.50000000  0.37783500  0.89152600  1
  P  P2  1  0.00000000  0.63122100  0.09117600  1
  P  P3  1  0.00000000  0.89973500  0.59965600  1
  O  O0  1  0.50000000  0.13516900  0.56041300  1
  O  O1  1  0.32714000  0.24149800  0.33998600  1
  O  O2  1  0.67286000  0.24149800  0.33998600  1
  O  O3  1  0.00000000  0.20613300  0.60101000  1
  O  O4  1  0.00000000  0.32489500  0.09750600  1
  O  O5  1  0.32697700  0.23846200  0.82109500  1
  O  O6  1  0.67302300  0.23846200  0.82109500  1
  O  O7  1  0.50000000  0.31485500  0.03847000  1
  O  O8  1  0.00000000  0.73944800  0.94834000  1
  O  O9  1  0.82713400  0.75361800  0.17346000  1
  O  O10  1  0.17286600  0.75361800  0.17346000  1
  O  O11  1  0.50000000  0.68317100  0.85959600  1
  O  O12  1  0.50000000  0.78789200  0.39433500  1
  O  O13  1  0.82434000  0.76392300  0.67872500  1
  O  O14  1  0.17566000  0.76392300  0.67872500  1
  O  O15  1  0.00000000  0.79951100  0.45939300  1
loop_
_geom_bond_atom_site_label_1
_geom_bond_atom_site_label_2
_geom_bond_distance
_geom_bond_site_symmetry_2
Fe0 O11 1.889733 1_555
Fe0 O0 1.898295 1_565
Fe0 O6 2.051768 1_565
Fe0 O5 2.051768 1_565
Fe0 O14 2.537246 1_555
Fe0 O13 2.537246 1_555
O0 P0 1.535396 1_555
O1 P0 1.584703 1_555
O1 Sb2 2.235514 1_555
O1 Sb0 2.551286 1_555
O2 P0 1.584703 1_555
O2 Sb2 2.235514 1_555
O2 Sb0 2.551286 1_655
O3 P3 1.528203 1_545
O3 Sb1 2.291396 1_555
O4 P2 1.525277 1_555
O4 Sb0 2.285029 1_555
O5 P1 1.577670 1_555
O5 Sb1 2.530087 1_555
O6 P1 1.577670 1_555
O6 Sb1 2.530087 1_655
O7 P1 1.521582 1_554
O7 Sb2 2.260054 1_555
O8 P2 1.533539 1_556
O8 Sb1 2.258962 1_555
O9 P2 1.602189 1_655
O9 Sb0 2.220637 1_665
O9 Sb2 2.532129 1_555
O10 P2 1.602189 1_555
O10 Sb0 2.220637 1_565
O10 Sb2 2.532129 1_555
O11 P1 1.541032 1_555
O12 P0 1.526914 1_565
O12 Sb2 2.177823 1_555
O13 P3 1.593972 1_655
O13 Sb1 2.200865 1_655
O14 P3 1.593972 1_555
O14 Sb1 2.200865 1_555
O15 P3 1.543522 1_555
O15 Sb0 2.146743 1_565
