# generated using pymatgen
data_La2Bi2O7
_symmetry_space_group_name_H-M   'P 1'
_cell_length_a   7.90108948
_cell_length_b   7.90108948
_cell_length_c   7.90108948
_cell_angle_alpha   60.00000000
_cell_angle_beta   60.00000000
_cell_angle_gamma   60.00000000
_symmetry_Int_Tables_number   1
_chemical_formula_structural   La2Bi2O7
_chemical_formula_sum   'La4 Bi4 O14'
_cell_volume   348.77547817
_cell_formula_units_Z   2
loop_
 _symmetry_equiv_pos_site_id
 _symmetry_equiv_pos_as_xyz
  1  'x, y, z'
loop_
 _atom_site_type_symbol
 _atom_site_label
 _atom_site_symmetry_multiplicity
 _atom_site_fract_x
 _atom_site_fract_y
 _atom_site_fract_z
 _atom_site_occupancy
  La  La0  1  0.62500000  0.12500000  0.12500000  1
  La  La1  1  0.12500000  0.12500000  0.12500000  1
  La  La2  1  0.12500000  0.62500000  0.12500000  1
  La  La3  1  0.12500000  0.12500000  0.62500000  1
  Bi  Bi0  1  0.62500000  0.62500000  0.12500000  1
  Bi  Bi1  1  0.62500000  0.62500000  0.62500000  1
  Bi  Bi2  1  0.62500000  0.12500000  0.62500000  1
  Bi  Bi3  1  0.12500000  0.62500000  0.62500000  1
  O  O0  1  0.71693744  0.28306256  0.28306256  1
  O  O1  1  0.71693744  0.71693744  0.28306256  1
  O  O2  1  0.28306256  0.71693744  0.28306256  1
  O  O3  1  0.00000000  0.00000000  0.00000000  1
  O  O4  1  0.71693744  0.28306256  0.71693744  1
  O  O5  1  0.96693744  0.53306256  0.53306256  1
  O  O6  1  0.28306256  0.71693744  0.71693744  1
  O  O7  1  0.53306256  0.96693744  0.53306256  1
  O  O8  1  0.25000000  0.25000000  0.25000000  1
  O  O9  1  0.96693744  0.53306256  0.96693744  1
  O  O10  1  0.53306256  0.53306256  0.96693744  1
  O  O11  1  0.96693744  0.96693744  0.53306256  1
  O  O12  1  0.53306256  0.96693744  0.96693744  1
  O  O13  1  0.28306256  0.28306256  0.71693744  1
loop_
_geom_bond_atom_site_label_1
_geom_bond_atom_site_label_2
_geom_bond_distance
_geom_bond_site_symmetry_2
La0 O3 2.419205 1_655
La0 O8 2.419205 1_555
La0 O12 2.649724 1_544
La0 O1 2.649724 1_545
La0 O10 2.649724 1_554
La0 O4 2.649724 1_554
La0 O7 2.649724 1_545
La0 O0 2.649724 1_555
La1 O8 2.419205 1_555
La1 O3 2.419205 1_555
La1 O12 2.649724 1_544
La1 O11 2.649724 1_445
La1 O0 2.649724 1_455
La1 O2 2.649724 1_545
La1 O13 2.649724 1_554
La1 O9 2.649724 1_454
La2 O3 2.419205 1_565
La2 O8 2.419205 1_555
La2 O6 2.649724 1_554
La2 O1 2.649724 1_455
La2 O5 2.649724 1_455
La2 O10 2.649724 1_554
La2 O9 2.649724 1_454
La2 O2 2.649724 1_555
La3 O8 2.419205 1_555
La3 O3 2.419205 1_556
La3 O11 2.649724 1_445
La3 O4 2.649724 1_455
La3 O5 2.649724 1_455
La3 O6 2.649724 1_545
La3 O7 2.649724 1_545
La3 O13 2.649724 1_555
Bi0 O2 2.226439 1_555
Bi0 O10 2.226439 1_554
Bi0 O9 2.226439 1_554
Bi0 O12 2.226439 1_554
Bi0 O0 2.226439 1_555
Bi0 O1 2.226439 1_555
Bi1 O10 2.226439 1_555
Bi1 O5 2.226439 1_555
Bi1 O6 2.226439 1_555
Bi1 O7 2.226439 1_555
Bi1 O4 2.226439 1_555
Bi1 O1 2.226439 1_555
Bi2 O13 2.226439 1_555
Bi2 O12 2.226439 1_545
Bi2 O7 2.226439 1_545
Bi2 O11 2.226439 1_545
Bi2 O0 2.226439 1_555
Bi2 O4 2.226439 1_555
Bi3 O9 2.226439 1_455
Bi3 O2 2.226439 1_555
Bi3 O5 2.226439 1_455
Bi3 O13 2.226439 1_555
Bi3 O11 2.226439 1_455
Bi3 O6 2.226439 1_555
