# generated using pymatgen
data_VOF
_symmetry_space_group_name_H-M   'P 1'
_cell_length_a   3.10456200
_cell_length_b   4.74847300
_cell_length_c   18.89640919
_cell_angle_alpha   89.97970616
_cell_angle_beta   90.00000000
_cell_angle_gamma   90.00000000
_symmetry_Int_Tables_number   1
_chemical_formula_structural   VOF
_chemical_formula_sum   'V8 O8 F8'
_cell_volume   278.56950195
_cell_formula_units_Z   8
loop_
 _symmetry_equiv_pos_site_id
 _symmetry_equiv_pos_as_xyz
  1  'x, y, z'
loop_
 _atom_site_type_symbol
 _atom_site_label
 _atom_site_symmetry_multiplicity
 _atom_site_fract_x
 _atom_site_fract_y
 _atom_site_fract_z
 _atom_site_occupancy
  V  V0  1  0.00000000  0.96266500  0.12480300  1
  V  V1  1  0.00000000  0.03733500  0.87519700  1
  V  V2  1  0.00000000  0.96558900  0.37477100  1
  V  V3  1  0.00000000  0.03441100  0.62522900  1
  V  V4  1  0.50000000  0.50000000  0.00000000  1
  V  V5  1  0.50000000  0.59005100  0.74954000  1
  V  V6  1  0.50000000  0.40994900  0.25046000  1
  V  V7  1  0.50000000  0.50000000  0.50000000  1
  O  O0  1  0.50000000  0.77849300  0.07511700  1
  O  O1  1  0.50000000  0.84397700  0.82642900  1
  O  O2  1  0.00000000  0.74801900  0.69837700  1
  O  O3  1  0.00000000  0.68561100  0.44960500  1
  O  O4  1  0.00000000  0.25198100  0.30162300  1
  O  O5  1  0.00000000  0.31438900  0.55039500  1
  O  O6  1  0.50000000  0.22150700  0.92488300  1
  O  O7  1  0.50000000  0.15602300  0.17357100  1
  F  F0  1  0.50000000  0.76276900  0.32385700  1
  F  F1  1  0.50000000  0.82629700  0.57607700  1
  F  F2  1  0.00000000  0.70904800  0.95153600  1
  F  F3  1  0.00000000  0.65393300  0.20417500  1
  F  F4  1  0.00000000  0.29095200  0.04846400  1
  F  F5  1  0.00000000  0.34606700  0.79582500  1
  F  F6  1  0.50000000  0.17370300  0.42392300  1
  F  F7  1  0.50000000  0.23723100  0.67614300  1
loop_
_geom_bond_atom_site_label_1
_geom_bond_atom_site_label_2
_geom_bond_distance
_geom_bond_site_symmetry_2
O0 V4 1.940343 1_555
O0 V0 2.014070 1_655
O0 V0 2.014070 1_555
O1 V5 1.888410 1_555
O1 V1 2.025443 1_565
O1 V1 2.025443 1_665
O2 V3 1.938720 1_565
O2 V5 1.976466 1_555
O2 V5 1.976466 1_455
O3 V2 1.940571 1_555
O3 V7 2.023027 1_555
O3 V7 2.023027 1_455
O4 V2 1.938720 1_545
O4 V6 1.976466 1_455
O4 V6 1.976466 1_555
O5 V3 1.940571 1_555
O5 V7 2.023027 1_555
O5 V7 2.023027 1_455
O6 V4 1.940343 1_556
O6 V1 2.014070 1_555
O6 V1 2.014070 1_655
O7 V6 1.888410 1_555
O7 V0 2.025443 1_545
O7 V0 2.025443 1_645
F0 V2 2.064797 1_655
F0 V2 2.064797 1_555
F0 V6 2.175331 1_555
F1 V3 2.061426 1_565
F1 V3 2.061426 1_665
F1 V7 2.113977 1_555
F2 V4 2.057422 1_456
F2 V4 2.057422 1_556
F2 V1 2.123525 1_565
F3 V0 2.096939 1_555
F3 V6 2.125102 1_455
F3 V6 2.125102 1_555
F4 V4 2.057422 1_455
F4 V4 2.057422 1_555
F4 V0 2.123525 1_545
F5 V1 2.096939 1_555
F5 V5 2.125102 1_555
F5 V5 2.125102 1_455
F6 V2 2.061426 1_645
F6 V2 2.061426 1_545
F6 V7 2.113977 1_555
F7 V3 2.064797 1_655
F7 V3 2.064797 1_555
F7 V5 2.175331 1_555
