# generated using pymatgen
data_V3(OF3)2
_symmetry_space_group_name_H-M   'P 1'
_cell_length_a   4.74209500
_cell_length_b   5.52880500
_cell_length_c   10.43454904
_cell_angle_alpha   83.85464210
_cell_angle_beta   90.00000000
_cell_angle_gamma   90.00000000
_symmetry_Int_Tables_number   1
_chemical_formula_structural   V3(OF3)2
_chemical_formula_sum   'V6 O4 F12'
_cell_volume   272.00215184
_cell_formula_units_Z   2
loop_
 _symmetry_equiv_pos_site_id
 _symmetry_equiv_pos_as_xyz
  1  'x, y, z'
loop_
 _atom_site_type_symbol
 _atom_site_label
 _atom_site_symmetry_multiplicity
 _atom_site_fract_x
 _atom_site_fract_y
 _atom_site_fract_z
 _atom_site_occupancy
  V  V0  1  0.50000000  0.50000000  0.00000000  1
  V  V1  1  0.98250700  0.26992100  0.24426000  1
  V  V2  1  0.48250700  0.73007900  0.25574000  1
  V  V3  1  0.00000000  0.50000000  0.50000000  1
  V  V4  1  0.51749300  0.26992100  0.74426000  1
  V  V5  1  0.01749300  0.73007900  0.75574000  1
  O  O0  1  0.70102300  0.47761400  0.17582500  1
  O  O1  1  0.20102300  0.52238600  0.32417500  1
  O  O2  1  0.79897700  0.47761400  0.67582500  1
  O  O3  1  0.29897700  0.52238600  0.82417500  1
  F  F0  1  0.19413800  0.29652800  0.07953200  1
  F  F1  1  0.32476200  0.77196500  0.07987900  1
  F  F2  1  0.76816500  0.97728400  0.19475300  1
  F  F3  1  0.26816500  0.02271600  0.30524700  1
  F  F4  1  0.82476200  0.22803500  0.42012100  1
  F  F5  1  0.69413800  0.70347200  0.42046800  1
  F  F6  1  0.30586200  0.29652800  0.57953200  1
  F  F7  1  0.17523800  0.77196500  0.57987900  1
  F  F8  1  0.73183500  0.97728400  0.69475300  1
  F  F9  1  0.23183500  0.02271600  0.80524700  1
  F  F10  1  0.67523800  0.22803500  0.92012100  1
  F  F11  1  0.80586200  0.70347200  0.92046800  1
loop_
_geom_bond_atom_site_label_1
_geom_bond_atom_site_label_2
_geom_bond_distance
_geom_bond_site_symmetry_2
O0 V1 1.853293 1_555
O0 V2 1.991646 1_555
O0 V0 2.059462 1_555
O1 V2 1.853293 1_555
O1 V1 1.991646 1_455
O1 V3 2.059462 1_555
O2 V4 1.853293 1_555
O2 V5 1.991646 1_655
O2 V3 2.059462 1_655
O3 V5 1.853293 1_555
O3 V4 1.991646 1_555
O3 V0 2.059462 1_556
F0 V0 1.964201 1_555
F0 V1 1.982209 1_455
F1 V2 1.972194 1_555
F1 V0 1.978521 1_555
F2 V2 1.980338 1_555
F2 V1 2.024016 1_565
F3 V1 1.980338 1_455
F3 V2 2.024016 1_545
F4 V1 1.972194 1_555
F4 V3 1.978521 1_655
F5 V3 1.964201 1_655
F5 V2 1.982209 1_555
F6 V3 1.964201 1_555
F6 V4 1.982209 1_555
F7 V5 1.972194 1_555
F7 V3 1.978521 1_555
F8 V5 1.980338 1_655
F8 V4 2.024016 1_565
F9 V4 1.980338 1_555
F9 V5 2.024016 1_545
F10 V4 1.972194 1_555
F10 V0 1.978521 1_556
F11 V0 1.964201 1_556
F11 V5 1.982209 1_655
