# generated using pymatgen
data_Fe5Ni(PO4)6
_symmetry_space_group_name_H-M   'P 1'
_cell_length_a   8.42649389
_cell_length_b   8.42649389
_cell_length_c   8.42649378
_cell_angle_alpha   62.01863739
_cell_angle_beta   62.01863739
_cell_angle_gamma   62.01863922
_symmetry_Int_Tables_number   1
_chemical_formula_structural   Fe5Ni(PO4)6
_chemical_formula_sum   'Fe5 Ni1 P6 O24'
_cell_volume   442.18362537
_cell_formula_units_Z   1
loop_
 _symmetry_equiv_pos_site_id
 _symmetry_equiv_pos_as_xyz
  1  'x, y, z'
loop_
 _atom_site_type_symbol
 _atom_site_label
 _atom_site_symmetry_multiplicity
 _atom_site_fract_x
 _atom_site_fract_y
 _atom_site_fract_z
 _atom_site_occupancy
  Fe  Fe0  1  0.99816100  0.99816100  0.99816100  1
  Fe  Fe1  1  0.35333800  0.35333800  0.35333800  1
  Fe  Fe2  1  0.49973200  0.49973200  0.49973200  1
  Fe  Fe3  1  0.14547500  0.14547500  0.14547500  1
  Fe  Fe4  1  0.64697300  0.64697300  0.64697300  1
  Ni  Ni0  1  0.85635400  0.85635400  0.85635400  1
  P  P0  1  0.45345500  0.75052300  0.04787500  1
  P  P1  1  0.75052300  0.04787500  0.45345500  1
  P  P2  1  0.04787500  0.45345500  0.75052300  1
  P  P3  1  0.95206100  0.54793400  0.24928800  1
  P  P4  1  0.24928800  0.95206100  0.54793400  1
  P  P5  1  0.54793400  0.24928800  0.95206100  1
  O  O0  1  0.67662800  0.89277600  0.49574000  1
  O  O1  1  0.89277600  0.49574000  0.67662800  1
  O  O2  1  0.49574000  0.67662800  0.89277600  1
  O  O3  1  0.24910000  0.90321900  0.06202400  1
  O  O4  1  0.60659000  0.82033600  0.01175500  1
  O  O5  1  0.43443000  0.59539600  0.25185200  1
  O  O6  1  0.90321900  0.06202400  0.24910000  1
  O  O7  1  0.59539600  0.25185200  0.43443000  1
  O  O8  1  0.99592900  0.39274100  0.17515800  1
  O  O9  1  0.25185200  0.43443000  0.59539600  1
  O  O10  1  0.93882900  0.74960000  0.09781000  1
  O  O11  1  0.17515800  0.99592900  0.39274100  1
  O  O12  1  0.82033600  0.01175500  0.60659000  1
  O  O13  1  0.06202400  0.24910000  0.90321900  1
  O  O14  1  0.74959800  0.56056500  0.40460600  1
  O  O15  1  0.01175500  0.60659000  0.82033600  1
  O  O16  1  0.40460600  0.74959800  0.56056500  1
  O  O17  1  0.09781000  0.93882900  0.74960000  1
  O  O18  1  0.56056500  0.40460600  0.74959800  1
  O  O19  1  0.39274100  0.17515800  0.99592900  1
  O  O20  1  0.74960000  0.09781000  0.93882900  1
  O  O21  1  0.50246900  0.32513700  0.10654100  1
  O  O22  1  0.10654100  0.50246900  0.32513700  1
  O  O23  1  0.32513700  0.10654100  0.50246900  1
loop_
_geom_bond_atom_site_label_1
_geom_bond_atom_site_label_2
_geom_bond_distance
_geom_bond_site_symmetry_2
Fe0 O17 2.068892 1_655
Fe0 O10 2.068892 1_556
Fe0 O20 2.068892 1_565
Fe0 O6 2.115956 1_566
Fe0 O13 2.115956 1_665
Fe0 O3 2.115956 1_656
Fe1 O21 1.921387 1_555
Fe1 O23 1.921387 1_555
Fe1 O22 1.921387 1_555
Fe1 O9 2.116923 1_555
Fe1 O5 2.116923 1_555
Fe1 O7 2.116923 1_555
Fe2 O18 2.093300 1_555
Fe2 O14 2.093300 1_555
Fe2 O16 2.093300 1_555
Fe2 O5 2.097099 1_555
Fe2 O9 2.097099 1_555
Fe2 O7 2.097099 1_555
Fe3 O11 1.929074 1_545
Fe3 O19 1.929074 1_554
Fe3 O8 1.929074 1_455
Fe3 O13 2.126575 1_554
Fe3 O6 2.126575 1_455
Fe3 O3 2.126575 1_545
Fe4 O2 1.920041 1_555
Fe4 O0 1.920041 1_555
Fe4 O1 1.920041 1_555
Fe4 O18 2.143887 1_555
Fe4 O14 2.143887 1_555
Fe4 O16 2.143887 1_555
Ni0 O12 1.968929 1_565
Ni0 O4 1.968929 1_556
Ni0 O15 1.968929 1_655
Ni0 O10 2.110608 1_556
Ni0 O17 2.110608 1_655
Ni0 O20 2.110608 1_565
O0 P1 1.530114 1_565
O1 P2 1.530114 1_655
O2 P0 1.530114 1_556
O3 P0 1.583426 1_555
O4 P0 1.509829 1_555
O5 P0 1.586973 1_555
O6 P1 1.583426 1_555
O7 P1 1.586973 1_555
O8 P3 1.527498 1_555
O9 P2 1.586973 1_555
O10 P3 1.565184 1_555
O11 P4 1.527498 1_555
O12 P1 1.509829 1_555
O13 P2 1.583426 1_555
O14 P3 1.581122 1_555
O15 P2 1.509829 1_555
O16 P4 1.581122 1_555
O17 P4 1.565184 1_555
O18 P5 1.581122 1_555
O19 P5 1.527498 1_555
O20 P5 1.565184 1_555
O21 P5 1.527329 1_554
O22 P3 1.527329 1_455
O23 P4 1.527329 1_545
