# generated using pymatgen
data_DyLuO3
_symmetry_space_group_name_H-M   'P 1'
_cell_length_a   5.61251000
_cell_length_b   5.87614300
_cell_length_c   8.23375000
_cell_angle_alpha   90.00000000
_cell_angle_beta   90.00000000
_cell_angle_gamma   90.00000000
_symmetry_Int_Tables_number   1
_chemical_formula_structural   DyLuO3
_chemical_formula_sum   'Dy4 Lu4 O12'
_cell_volume   271.54834507
_cell_formula_units_Z   4
loop_
 _symmetry_equiv_pos_site_id
 _symmetry_equiv_pos_as_xyz
  1  'x, y, z'
loop_
 _atom_site_type_symbol
 _atom_site_label
 _atom_site_symmetry_multiplicity
 _atom_site_fract_x
 _atom_site_fract_y
 _atom_site_fract_z
 _atom_site_occupancy
  Dy  Dy0  1  0.98695200  0.05313800  0.25000000  1
  Dy  Dy1  1  0.48695200  0.44686200  0.75000000  1
  Dy  Dy2  1  0.51304800  0.55313800  0.25000000  1
  Dy  Dy3  1  0.01304800  0.94686200  0.75000000  1
  Lu  Lu0  1  0.50000000  0.00000000  0.00000000  1
  Lu  Lu1  1  0.50000000  0.00000000  0.50000000  1
  Lu  Lu2  1  0.00000000  0.50000000  0.00000000  1
  Lu  Lu3  1  0.00000000  0.50000000  0.50000000  1
  O  O0  1  0.63929400  0.07140000  0.75000000  1
  O  O1  1  0.17995200  0.18368600  0.57228800  1
  O  O2  1  0.17995200  0.18368600  0.92771200  1
  O  O3  1  0.67995200  0.31631400  0.42771200  1
  O  O4  1  0.67995200  0.31631400  0.07228800  1
  O  O5  1  0.13929400  0.42860000  0.25000000  1
  O  O6  1  0.86070600  0.57140000  0.75000000  1
  O  O7  1  0.32004800  0.68368600  0.57228800  1
  O  O8  1  0.32004800  0.68368600  0.92771200  1
  O  O9  1  0.82004800  0.81631400  0.07228800  1
  O  O10  1  0.82004800  0.81631400  0.42771200  1
  O  O11  1  0.36070600  0.92860000  0.25000000  1
loop_
_geom_bond_atom_site_label_1
_geom_bond_atom_site_label_2
_geom_bond_distance
_geom_bond_site_symmetry_2
Dy0 O11 2.221682 1_645
Dy0 O9 2.226015 1_545
Dy0 O10 2.226015 1_545
Dy0 O5 2.366153 1_655
Dy0 O4 2.738881 1_555
Dy0 O3 2.738881 1_555
Dy0 O2 2.967090 1_654
Dy0 O1 2.967090 1_655
Dy1 O6 2.221682 1_555
Dy1 O7 2.226015 1_555
Dy1 O8 2.226015 1_555
Dy1 O0 2.366153 1_555
Dy1 O2 2.738881 1_555
Dy1 O1 2.738881 1_555
Dy1 O4 2.967090 1_556
Dy1 O3 2.967090 1_555
Dy2 O5 2.221682 1_555
Dy2 O3 2.226015 1_555
Dy2 O4 2.226015 1_555
Dy2 O11 2.366153 1_555
Dy2 O10 2.738881 1_555
Dy2 O9 2.738881 1_555
Dy2 O7 2.967090 1_555
Dy2 O8 2.967090 1_554
Dy3 O0 2.221682 1_465
Dy3 O2 2.226015 1_565
Dy3 O1 2.226015 1_565
Dy3 O6 2.366153 1_455
Dy3 O8 2.738881 1_555
Dy3 O7 2.738881 1_555
Dy3 O9 2.967090 1_456
Dy3 O10 2.967090 1_455
Lu0 O9 2.178506 1_545
Lu0 O2 2.178506 1_554
Lu0 O4 2.197525 1_555
Lu0 O8 2.197525 1_544
Lu0 O11 2.241514 1_545
Lu0 O0 2.241514 1_554
Lu1 O1 2.178506 1_555
Lu1 O10 2.178506 1_545
Lu1 O7 2.197525 1_545
Lu1 O3 2.197525 1_555
Lu1 O11 2.241514 1_545
Lu1 O0 2.241514 1_555
Lu2 O4 2.178506 1_455
Lu2 O8 2.178506 1_554
Lu2 O9 2.197525 1_455
Lu2 O2 2.197525 1_554
Lu2 O6 2.241514 1_454
Lu2 O5 2.241514 1_555
Lu3 O7 2.178506 1_555
Lu3 O3 2.178506 1_455
Lu3 O10 2.197525 1_455
Lu3 O1 2.197525 1_555
Lu3 O5 2.241514 1_555
Lu3 O6 2.241514 1_455
