# generated using pymatgen
data_Li2P2H2O7
_symmetry_space_group_name_H-M   'P 1'
_cell_length_a   10.13663003
_cell_length_b   10.13663003
_cell_length_c   10.13663062
_cell_angle_alpha   103.86025773
_cell_angle_beta   103.86025773
_cell_angle_gamma   103.86025630
_symmetry_Int_Tables_number   1
_chemical_formula_structural   Li2P2H2O7
_chemical_formula_sum   'Li12 P12 H12 O42'
_cell_volume   931.79374560
_cell_formula_units_Z   6
loop_
 _symmetry_equiv_pos_site_id
 _symmetry_equiv_pos_as_xyz
  1  'x, y, z'
loop_
 _atom_site_type_symbol
 _atom_site_label
 _atom_site_symmetry_multiplicity
 _atom_site_fract_x
 _atom_site_fract_y
 _atom_site_fract_z
 _atom_site_occupancy
  Li  Li0  1  0.50000000  0.80746100  0.19253900  1
  Li  Li1  1  0.80746100  0.19253900  0.50000000  1
  Li  Li2  1  0.19253900  0.50000000  0.80746100  1
  Li  Li3  1  0.19253900  0.80746100  0.50000000  1
  Li  Li4  1  0.80746100  0.50000000  0.19253900  1
  Li  Li5  1  0.50000000  0.19253900  0.80746100  1
  Li  Li6  1  0.23964000  0.79790000  0.23964000  1
  Li  Li7  1  0.79790000  0.23964000  0.23964000  1
  Li  Li8  1  0.23964000  0.23964000  0.79790000  1
  Li  Li9  1  0.76036000  0.20210000  0.76036000  1
  Li  Li10  1  0.20210000  0.76036000  0.76036000  1
  Li  Li11  1  0.76036000  0.76036000  0.20210000  1
  P  P0  1  0.29672700  0.11099000  0.48412400  1
  P  P1  1  0.11099000  0.48412400  0.29672700  1
  P  P2  1  0.48412400  0.29672700  0.11099000  1
  P  P3  1  0.48412400  0.11099000  0.29672700  1
  P  P4  1  0.11099000  0.29672700  0.48412400  1
  P  P5  1  0.29672700  0.48412400  0.11099000  1
  P  P6  1  0.70327300  0.88901000  0.51587600  1
  P  P7  1  0.88901000  0.51587600  0.70327300  1
  P  P8  1  0.51587600  0.70327300  0.88901000  1
  P  P9  1  0.51587600  0.88901000  0.70327300  1
  P  P10  1  0.88901000  0.70327300  0.51587600  1
  P  P11  1  0.70327300  0.51587600  0.88901000  1
  H  H0  1  0.97864800  0.71299100  0.07514900  1
  H  H1  1  0.71299100  0.07514900  0.97864800  1
  H  H2  1  0.07514900  0.97864800  0.71299100  1
  H  H3  1  0.07514900  0.71299100  0.97864800  1
  H  H4  1  0.71299100  0.97864800  0.07514900  1
  H  H5  1  0.97864800  0.07514900  0.71299100  1
  H  H6  1  0.02135200  0.28700900  0.92485100  1
  H  H7  1  0.28700900  0.92485100  0.02135200  1
  H  H8  1  0.92485100  0.02135200  0.28700900  1
  H  H9  1  0.92485100  0.28700900  0.02135200  1
  H  H10  1  0.28700900  0.02135200  0.92485100  1
  H  H11  1  0.02135200  0.92485100  0.28700900  1
  O  O0  1  0.21819400  0.95461000  0.40444700  1
  O  O1  1  0.95461000  0.40444700  0.21819400  1
  O  O2  1  0.40444700  0.21819400  0.95461000  1
  O  O3  1  0.40444700  0.95461000  0.21819400  1
  O  O4  1  0.95461000  0.21819400  0.40444700  1
  O  O5  1  0.21819400  0.40444700  0.95461000  1
  O  O6  1  0.78180600  0.04539000  0.59555300  1
  O  O7  1  0.04539000  0.59555300  0.78180600  1
  O  O8  1  0.59555300  0.78180600  0.04539000  1
  O  O9  1  0.59555300  0.04539000  0.78180600  1
  O  O10  1  0.04539000  0.78180600  0.59555300  1
  O  O11  1  0.78180600  0.59555300  0.04539000  1
  O  O12  1  0.64412200  0.15906500  0.33897400  1
  O  O13  1  0.15906500  0.33897400  0.64412200  1
  O  O14  1  0.33897400  0.64412200  0.15906500  1
  O  O15  1  0.33897400  0.15906500  0.64412200  1
  O  O16  1  0.15906500  0.64412200  0.33897400  1
  O  O17  1  0.64412200  0.33897400  0.15906500  1
  O  O18  1  0.35587800  0.84093500  0.66102600  1
  O  O19  1  0.84093500  0.66102600  0.35587800  1
  O  O20  1  0.66102600  0.35587800  0.84093500  1
  O  O21  1  0.66102600  0.84093500  0.35587800  1
  O  O22  1  0.84093500  0.35587800  0.66102600  1
  O  O23  1  0.35587800  0.66102600  0.84093500  1
  O  O24  1  0.43917500  0.16142900  0.43917500  1
  O  O25  1  0.16142900  0.43917500  0.43917500  1
  O  O26  1  0.43917500  0.43917500  0.16142900  1
  O  O27  1  0.56082500  0.83857100  0.56082500  1
  O  O28  1  0.83857100  0.56082500  0.56082500  1
  O  O29  1  0.56082500  0.56082500  0.83857100  1
  O  O30  1  0.79655800  0.58065000  0.79655800  1
  O  O31  1  0.58065000  0.79655800  0.79655800  1
  O  O32  1  0.79655800  0.79655800  0.58065000  1
  O  O33  1  0.20344200  0.41935000  0.20344200  1
  O  O34  1  0.41935000  0.20344200  0.20344200  1
  O  O35  1  0.20344200  0.20344200  0.41935000  1
  O  O36  1  0.07522900  0.75997200  0.07522900  1
  O  O37  1  0.75997200  0.07522900  0.07522900  1
  O  O38  1  0.07522900  0.07522900  0.75997200  1
  O  O39  1  0.92477100  0.24002800  0.92477100  1
  O  O40  1  0.24002800  0.92477100  0.92477100  1
  O  O41  1  0.92477100  0.92477100  0.24002800  1
loop_
_geom_bond_atom_site_label_1
_geom_bond_atom_site_label_2
_geom_bond_distance
_geom_bond_site_symmetry_2
Li0 O14 1.921312 1_555
Li0 O21 1.921312 1_555
Li0 O3 1.964094 1_555
Li0 O8 1.964094 1_555
Li1 O22 1.921312 1_555
Li1 O12 1.921312 1_555
Li1 O6 1.964094 1_555
Li1 O4 1.964094 1_555
Li2 O23 1.921312 1_555
Li2 O13 1.921312 1_555
Li2 O7 1.964094 1_555
Li2 O5 1.964094 1_555
Li3 O18 1.921312 1_555
Li3 O16 1.921312 1_555
Li3 O10 1.964094 1_555
Li3 O0 1.964094 1_555
Li4 O17 1.921312 1_555
Li4 O19 1.921312 1_555
Li4 O1 1.964094 1_555
Li4 O11 1.964094 1_555
Li5 O20 1.921312 1_555
Li5 O15 1.921312 1_555
Li5 O9 1.964094 1_555
Li5 O2 1.964094 1_555
Li6 O36 1.938575 1_555
Li6 O3 2.104638 1_555
Li6 O0 2.104638 1_555
Li6 O14 2.155651 1_555
Li6 O16 2.155651 1_555
Li7 O37 1.938575 1_555
Li7 O1 2.104638 1_555
Li7 O4 2.104638 1_555
Li7 O17 2.155651 1_555
Li7 O12 2.155651 1_555
Li8 O38 1.938575 1_555
Li8 O5 2.104638 1_555
Li8 O2 2.104638 1_555
Li8 O15 2.155651 1_555
Li8 O13 2.155651 1_555
Li9 O39 1.938575 1_555
Li9 O9 2.104638 1_555
Li9 O6 2.104638 1_555
Li9 O20 2.155651 1_555
Li9 O22 2.155651 1_555
Li10 O40 1.938575 1_555
Li10 O7 2.104638 1_555
Li10 O10 2.104638 1_555
Li10 O23 2.155651 1_555
Li10 O18 2.155651 1_555
Li11 O41 1.938575 1_555
Li11 O11 2.104638 1_555
Li11 O8 2.104638 1_555
Li11 O21 2.155651 1_555
Li11 O19 2.155651 1_555
H0 O36 0.980462 1_655
H1 O37 0.980462 1_556
H2 O38 0.980462 1_565
H3 O36 0.980462 1_556
H4 O37 0.980462 1_565
H5 O38 0.980462 1_655
H6 O39 0.980462 1_455
H7 O40 0.980462 1_554
H8 O41 0.980462 1_545
H9 O39 0.980462 1_554
H10 O40 0.980462 1_545
H11 O41 0.980462 1_455
O0 P0 1.507568 1_565
O1 P1 1.507568 1_655
O2 P2 1.507568 1_556
O3 P3 1.507568 1_565
O4 P4 1.507568 1_655
O5 P5 1.507568 1_556
O6 P6 1.507568 1_545
O7 P7 1.507568 1_455
O8 P8 1.507568 1_554
O9 P9 1.507568 1_545
O10 P10 1.507568 1_455
O11 P11 1.507568 1_554
O12 P3 1.496605 1_555
O13 P4 1.496605 1_555
O14 P5 1.496605 1_555
O15 P0 1.496605 1_555
O16 P1 1.496605 1_555
O17 P2 1.496605 1_555
O18 P9 1.496605 1_555
O19 P10 1.496605 1_555
O20 P11 1.496605 1_555
O21 P6 1.496605 1_555
O22 P7 1.496605 1_555
O23 P8 1.496605 1_555
O24 P0 1.620830 1_555
O24 P3 1.620831 1_555
O25 P4 1.620830 1_555
O25 P1 1.620831 1_555
O26 P2 1.620830 1_555
O26 P5 1.620830 1_555
O27 P6 1.620830 1_555
O27 P9 1.620831 1_555
O28 P10 1.620830 1_555
O28 P7 1.620831 1_555
O29 P8 1.620830 1_555
O29 P11 1.620830 1_555
O30 P7 1.620318 1_555
O30 P11 1.620318 1_555
O31 P9 1.620318 1_555
O31 P8 1.620318 1_555
O32 P6 1.620318 1_555
O32 P10 1.620318 1_555
O33 P1 1.620318 1_555
O33 P5 1.620318 1_555
O34 P3 1.620318 1_555
O34 P2 1.620318 1_555
O35 P4 1.620318 1_555
O35 P0 1.620318 1_555
