# generated using pymatgen
data_Ba3Y2Br12
_symmetry_space_group_name_H-M   'P 1'
_cell_length_a   13.00816300
_cell_length_b   13.50206100
_cell_length_c   19.14835529
_cell_angle_alpha   46.50935892
_cell_angle_beta   90.00000000
_cell_angle_gamma   90.00000000
_symmetry_Int_Tables_number   1
_chemical_formula_structural   Ba3Y2Br12
_chemical_formula_sum   'Ba12 Y8 Br48'
_cell_volume   2439.92809534
_cell_formula_units_Z   4
loop_
 _symmetry_equiv_pos_site_id
 _symmetry_equiv_pos_as_xyz
  1  'x, y, z'
loop_
 _atom_site_type_symbol
 _atom_site_label
 _atom_site_symmetry_multiplicity
 _atom_site_fract_x
 _atom_site_fract_y
 _atom_site_fract_z
 _atom_site_occupancy
  Ba  Ba0  1  0.28007000  0.16766100  0.30417900  1
  Ba  Ba1  1  0.88981900  0.29259700  0.19081100  1
  Ba  Ba2  1  0.50952000  0.28265500  0.02459700  1
  Ba  Ba3  1  0.00952000  0.71734500  0.47540300  1
  Ba  Ba4  1  0.38981900  0.70740300  0.30918900  1
  Ba  Ba5  1  0.78007000  0.83233900  0.19582100  1
  Ba  Ba6  1  0.21993000  0.16766100  0.80417900  1
  Ba  Ba7  1  0.61018100  0.29259700  0.69081100  1
  Ba  Ba8  1  0.99048000  0.28265500  0.52459700  1
  Ba  Ba9  1  0.49048000  0.71734500  0.97540300  1
  Ba  Ba10  1  0.11018100  0.70740300  0.80918900  1
  Ba  Ba11  1  0.71993000  0.83233900  0.69582100  1
  Y  Y0  1  0.64968900  0.87569200  0.43446200  1
  Y  Y1  1  0.32347300  0.66226800  0.64534000  1
  Y  Y2  1  0.14968900  0.12430800  0.06553800  1
  Y  Y3  1  0.82347300  0.33773200  0.85466000  1
  Y  Y4  1  0.17652700  0.66226800  0.14534000  1
  Y  Y5  1  0.85031100  0.87569200  0.93446200  1
  Y  Y6  1  0.67652700  0.33773200  0.35466000  1
  Y  Y7  1  0.35031100  0.12430800  0.56553800  1
  Br  Br0  1  0.75048700  0.08387400  0.42291800  1
  Br  Br1  1  0.37577700  0.41835000  0.08524100  1
  Br  Br2  1  0.04659200  0.05026500  0.35289300  1
  Br  Br3  1  0.07941500  0.34485800  0.03534700  1
  Br  Br4  1  0.34531000  0.60161900  0.81631300  1
  Br  Br5  1  0.88824200  0.56390500  0.81986900  1
  Br  Br6  1  0.52270200  0.79924100  0.58658000  1
  Br  Br7  1  0.52132300  0.07480600  0.28777600  1
  Br  Br8  1  0.80462000  0.73972000  0.57421800  1
  Br  Br9  1  0.11844400  0.58761100  0.69201000  1
  Br  Br10  1  0.27635800  0.78738600  0.45470000  1
  Br  Br11  1  0.79980700  0.95327500  0.30301300  1
  Br  Br12  1  0.29980700  0.04672500  0.19698700  1
  Br  Br13  1  0.77635800  0.21261400  0.04530000  1
  Br  Br14  1  0.61844400  0.41238900  0.80799000  1
  Br  Br15  1  0.30462000  0.26028000  0.92578200  1
  Br  Br16  1  0.02132300  0.92519400  0.21222400  1
  Br  Br17  1  0.02270200  0.20075900  0.91342000  1
  Br  Br18  1  0.38824200  0.43609500  0.68013100  1
  Br  Br19  1  0.57941500  0.65514200  0.46465300  1
  Br  Br20  1  0.84531000  0.39838100  0.68368700  1
  Br  Br21  1  0.54659200  0.94973500  0.14710700  1
  Br  Br22  1  0.87577700  0.58165000  0.41475900  1
  Br  Br23  1  0.25048700  0.91612600  0.07708200  1
  Br  Br24  1  0.74951300  0.08387400  0.92291800  1
  Br  Br25  1  0.12422300  0.41835000  0.58524100  1
  Br  Br26  1  0.45340800  0.05026500  0.85289300  1
  Br  Br27  1  0.15469000  0.60161900  0.31631300  1
  Br  Br28  1  0.42058500  0.34485800  0.53534700  1
  Br  Br29  1  0.61175800  0.56390500  0.31986900  1
  Br  Br30  1  0.97729800  0.79924100  0.08658000  1
  Br  Br31  1  0.97867700  0.07480600  0.78777600  1
  Br  Br32  1  0.69538000  0.73972000  0.07421800  1
  Br  Br33  1  0.38155600  0.58761100  0.19201000  1
  Br  Br34  1  0.22364200  0.78738600  0.95470000  1
  Br  Br35  1  0.70019300  0.95327500  0.80301300  1
  Br  Br36  1  0.20019300  0.04672500  0.69698700  1
  Br  Br37  1  0.72364200  0.21261400  0.54530000  1
  Br  Br38  1  0.88155600  0.41238900  0.30799000  1
  Br  Br39  1  0.19538000  0.26028000  0.42578200  1
  Br  Br40  1  0.47867700  0.92519400  0.71222400  1
  Br  Br41  1  0.47729800  0.20075900  0.41342000  1
  Br  Br42  1  0.11175800  0.43609500  0.18013100  1
  Br  Br43  1  0.65469000  0.39838100  0.18368700  1
  Br  Br44  1  0.92058500  0.65514200  0.96465300  1
  Br  Br45  1  0.95340800  0.94973500  0.64710700  1
  Br  Br46  1  0.62422300  0.58165000  0.91475900  1
  Br  Br47  1  0.24951300  0.91612600  0.57708200  1
loop_
_geom_bond_atom_site_label_1
_geom_bond_atom_site_label_2
_geom_bond_distance
_geom_bond_site_symmetry_2
Ba0 Br2 3.251386 1_555
Ba0 Br1 3.324148 1_555
Ba0 Br12 3.399787 1_555
Ba0 Br42 3.423722 1_555
Ba0 Br7 3.472924 1_555
Ba0 Br39 3.493933 1_555
Ba0 Br41 3.527630 1_555
Ba0 Br10 3.781864 1_545
Ba0 Br47 3.817172 1_545
Ba1 Br2 3.243316 1_655
Ba1 Br43 3.338484 1_555
Ba1 Br42 3.403715 1_655
Ba1 Br3 3.542733 1_655
Ba1 Br38 3.557767 1_555
Ba1 Br11 3.664478 1_545
Ba1 Br44 3.700912 1_554
Ba1 Br0 3.706706 1_555
Ba1 Br13 3.905109 1_555
Ba2 Br1 3.265050 1_555
Ba2 Br46 3.355628 1_554
Ba2 Br21 3.380361 1_545
Ba2 Br15 3.400372 1_554
Ba2 Br14 3.504076 1_554
Ba2 Br13 3.547365 1_555
Ba2 Br7 3.718661 1_555
Ba2 Br12 3.743243 1_555
Ba2 Br4 3.920975 1_554
Ba3 Br22 3.265050 1_455
Ba3 Br25 3.355628 1_555
Ba3 Br2 3.380361 1_565
Ba3 Br8 3.400372 1_455
Ba3 Br9 3.504076 1_555
Ba3 Br10 3.547365 1_555
Ba3 Br16 3.718661 1_555
Ba3 Br11 3.743243 1_455
Ba3 Br20 3.920975 1_455
Ba4 Br21 3.243316 1_555
Ba4 Br27 3.338484 1_555
Ba4 Br29 3.403715 1_555
Ba4 Br19 3.542733 1_555
Ba4 Br33 3.557767 1_555
Ba4 Br12 3.664478 1_565
Ba4 Br28 3.700912 1_555
Ba4 Br23 3.706706 1_555
Ba4 Br10 3.905109 1_555
Ba5 Br21 3.251386 1_555
Ba5 Br22 3.324148 1_555
Ba5 Br11 3.399787 1_555
Ba5 Br29 3.423722 1_555
Ba5 Br16 3.472924 1_655
Ba5 Br32 3.493933 1_555
Ba5 Br30 3.527630 1_555
Ba5 Br13 3.781864 1_565
Ba5 Br24 3.817172 1_564
Ba6 Br26 3.251386 1_555
Ba6 Br25 3.324148 1_555
Ba6 Br36 3.399787 1_555
Ba6 Br18 3.423722 1_555
Ba6 Br31 3.472924 1_455
Ba6 Br15 3.493933 1_555
Ba6 Br17 3.527630 1_555
Ba6 Br34 3.781864 1_545
Ba6 Br23 3.817172 1_546
Ba7 Br26 3.243316 1_555
Ba7 Br20 3.338484 1_555
Ba7 Br18 3.403715 1_555
Ba7 Br28 3.542733 1_555
Ba7 Br14 3.557767 1_555
Ba7 Br35 3.664478 1_545
Ba7 Br19 3.700912 1_555
Ba7 Br24 3.706706 1_555
Ba7 Br37 3.905109 1_555
Ba8 Br25 3.265050 1_655
Ba8 Br22 3.355628 1_555
Ba8 Br45 3.380361 1_545
Ba8 Br39 3.400372 1_655
Ba8 Br38 3.504076 1_555
Ba8 Br37 3.547365 1_555
Ba8 Br31 3.718661 1_555
Ba8 Br36 3.743243 1_655
Ba8 Br27 3.920975 1_655
Ba9 Br46 3.265050 1_555
Ba9 Br1 3.355628 1_556
Ba9 Br26 3.380361 1_565
Ba9 Br32 3.400372 1_556
Ba9 Br33 3.504076 1_556
Ba9 Br34 3.547365 1_555
Ba9 Br40 3.718661 1_555
Ba9 Br35 3.743243 1_555
Ba9 Br43 3.920975 1_556
Ba10 Br45 3.243316 1_455
Ba10 Br4 3.338484 1_555
Ba10 Br5 3.403715 1_455
Ba10 Br44 3.542733 1_455
Ba10 Br9 3.557767 1_555
Ba10 Br36 3.664478 1_565
Ba10 Br3 3.700912 1_556
Ba10 Br47 3.706706 1_555
Ba10 Br34 3.905109 1_555
Ba11 Br45 3.251386 1_555
Ba11 Br46 3.324148 1_555
Ba11 Br35 3.399787 1_555
Ba11 Br5 3.423722 1_555
Ba11 Br40 3.472924 1_555
Ba11 Br8 3.493933 1_555
Ba11 Br6 3.527630 1_555
Ba11 Br37 3.781864 1_565
Ba11 Br0 3.817172 1_565
Br0 Y6 2.866330 1_555
Br0 Y0 2.968825 1_545
Br3 Y2 2.769111 1_555
Br4 Y1 2.789116 1_555
Br5 Y3 2.771110 1_555
Br6 Y0 2.853063 1_555
Br6 Y1 2.922063 1_555
Br7 Y0 2.740654 1_545
Br8 Y0 2.798403 1_555
Br9 Y1 2.772711 1_555
Br10 Y1 2.840197 1_555
Br11 Y0 2.759844 1_555
Br12 Y2 2.759844 1_555
Br13 Y3 2.840197 1_554
Br14 Y3 2.772711 1_555
Br15 Y2 2.798403 1_556
Br16 Y2 2.740654 1_565
Br17 Y2 2.853063 1_556
Br17 Y3 2.922063 1_455
Br18 Y1 2.771110 1_555
Br19 Y0 2.769111 1_555
Br20 Y3 2.789116 1_555
Br23 Y4 2.866330 1_555
Br23 Y2 2.968825 1_565
Br24 Y3 2.866330 1_555
Br24 Y5 2.968825 1_545
Br27 Y4 2.789116 1_555
Br28 Y7 2.769111 1_555
Br29 Y6 2.771110 1_555
Br30 Y5 2.853063 1_554
Br30 Y4 2.922063 1_655
Br31 Y5 2.740654 1_545
Br32 Y5 2.798403 1_554
Br33 Y4 2.772711 1_555
Br34 Y4 2.840197 1_556
Br35 Y5 2.759844 1_555
Br36 Y7 2.759844 1_555
Br37 Y6 2.840197 1_555
Br38 Y6 2.772711 1_555
Br39 Y7 2.798403 1_555
Br40 Y7 2.740654 1_565
Br41 Y7 2.853063 1_555
Br41 Y6 2.922063 1_555
Br42 Y4 2.771110 1_555
Br43 Y6 2.789116 1_555
Br44 Y5 2.769111 1_555
Br47 Y1 2.866330 1_555
Br47 Y7 2.968825 1_565
