# generated using pymatgen
data_Pb2NCl5
_symmetry_space_group_name_H-M   'P 1'
_cell_length_a   8.00634100
_cell_length_b   8.77017100
_cell_length_c   12.51556141
_cell_angle_alpha   89.44582891
_cell_angle_beta   90.00000000
_cell_angle_gamma   90.00000000
_symmetry_Int_Tables_number   1
_chemical_formula_structural   Pb2NCl5
_chemical_formula_sum   'Pb8 N4 Cl20'
_cell_volume   878.76381517
_cell_formula_units_Z   4
loop_
 _symmetry_equiv_pos_site_id
 _symmetry_equiv_pos_as_xyz
  1  'x, y, z'
loop_
 _atom_site_type_symbol
 _atom_site_label
 _atom_site_symmetry_multiplicity
 _atom_site_fract_x
 _atom_site_fract_y
 _atom_site_fract_z
 _atom_site_occupancy
  Pb  Pb0  1  0.52496400  0.49647500  0.67459600  1
  Pb  Pb1  1  0.02496400  0.50352500  0.82540400  1
  Pb  Pb2  1  0.47503600  0.50352500  0.32540400  1
  Pb  Pb3  1  0.97503600  0.49647500  0.17459600  1
  Pb  Pb4  1  0.57068300  0.23653000  0.99592200  1
  Pb  Pb5  1  0.07068300  0.76347000  0.50407800  1
  Pb  Pb6  1  0.42931700  0.76347000  0.00407800  1
  Pb  Pb7  1  0.92931700  0.23653000  0.49592200  1
  N  N0  1  0.44281600  0.00689300  0.33601300  1
  N  N1  1  0.94281600  0.99310700  0.16398700  1
  N  N2  1  0.55718400  0.99310700  0.66398700  1
  N  N3  1  0.05718400  0.00689300  0.83601300  1
  Cl  Cl0  1  0.17444000  0.04371300  0.57904000  1
  Cl  Cl1  1  0.67444000  0.95628700  0.92096000  1
  Cl  Cl2  1  0.82556000  0.95628700  0.42096000  1
  Cl  Cl3  1  0.32556000  0.04371300  0.07904000  1
  Cl  Cl4  1  0.16874100  0.45986000  0.59212000  1
  Cl  Cl5  1  0.66874100  0.54014000  0.90788000  1
  Cl  Cl6  1  0.83125900  0.54014000  0.40788000  1
  Cl  Cl7  1  0.33125900  0.45986000  0.09212000  1
  Cl  Cl8  1  0.35000300  0.28468400  0.81921500  1
  Cl  Cl9  1  0.85000300  0.71531600  0.68078500  1
  Cl  Cl10  1  0.64999700  0.71531600  0.18078500  1
  Cl  Cl11  1  0.14999700  0.28468400  0.31921500  1
  Cl  Cl12  1  0.95362300  0.27974000  0.99817600  1
  Cl  Cl13  1  0.45362300  0.72026000  0.50182400  1
  Cl  Cl14  1  0.04637700  0.72026000  0.00182400  1
  Cl  Cl15  1  0.54637700  0.27974000  0.49817600  1
  Cl  Cl16  1  0.81728000  0.27836300  0.71200900  1
  Cl  Cl17  1  0.31728000  0.72163700  0.78799100  1
  Cl  Cl18  1  0.18272000  0.72163700  0.28799100  1
  Cl  Cl19  1  0.68272000  0.27836300  0.21200900  1
loop_
_geom_bond_atom_site_label_1
_geom_bond_atom_site_label_2
_geom_bond_distance
_geom_bond_site_symmetry_2
Cl0 Pb5 2.766870 1_545
Cl0 Pb7 2.785551 1_455
Cl1 Pb4 2.766870 1_565
Cl1 Pb6 2.785551 1_556
Cl2 Pb7 2.766870 1_565
Cl2 Pb5 2.785551 1_655
Cl3 Pb6 2.766870 1_545
Cl3 Pb4 2.785551 1_554
Cl4 Pb5 2.977215 1_555
Cl4 Pb7 3.000998 1_455
Cl4 Pb0 3.051096 1_555
Cl4 Pb1 3.165108 1_555
Cl5 Pb4 2.977215 1_555
Cl5 Pb6 3.000998 1_556
Cl5 Pb1 3.051096 1_655
Cl5 Pb0 3.165108 1_555
Cl6 Pb7 2.977215 1_555
Cl6 Pb5 3.000998 1_655
Cl6 Pb2 3.051096 1_555
Cl6 Pb3 3.165108 1_555
Cl7 Pb6 2.977215 1_555
Cl7 Pb4 3.000998 1_554
Cl7 Pb3 3.051096 1_455
Cl7 Pb2 3.165108 1_555
Cl8 Pb4 2.858868 1_555
Cl8 Pb0 2.936554 1_555
Cl8 Pb1 3.234939 1_555
Cl9 Pb5 2.858868 1_655
Cl9 Pb1 2.936554 1_655
Cl9 Pb0 3.234939 1_555
Cl10 Pb6 2.858868 1_555
Cl10 Pb2 2.936554 1_555
Cl10 Pb3 3.234939 1_555
Cl11 Pb7 2.858868 1_455
Cl11 Pb3 2.936554 1_455
Cl11 Pb2 3.234939 1_555
Cl12 Pb3 2.932383 1_556
Cl12 Pb1 2.961721 1_655
Cl12 Pb4 3.089442 1_555
Cl13 Pb2 2.932383 1_555
Cl13 Pb0 2.961721 1_555
Cl13 Pb5 3.089442 1_555
Cl14 Pb1 2.932383 1_554
Cl14 Pb3 2.961721 1_455
Cl14 Pb6 3.089442 1_555
Cl15 Pb0 2.932383 1_555
Cl15 Pb2 2.961721 1_555
Cl15 Pb7 3.089442 1_555
Cl16 Pb7 2.876190 1_555
Cl16 Pb1 2.955112 1_655
Cl16 Pb0 3.055883 1_555
Cl17 Pb6 2.876190 1_556
Cl17 Pb0 2.955112 1_555
Cl17 Pb1 3.055883 1_555
Cl18 Pb5 2.876190 1_555
Cl18 Pb3 2.955112 1_455
Cl18 Pb2 3.055883 1_555
Cl19 Pb4 2.876190 1_554
Cl19 Pb2 2.955112 1_555
Cl19 Pb3 3.055883 1_555
