# generated using pymatgen
data_Na2SnPCO7
_symmetry_space_group_name_H-M   'P 1'
_cell_length_a   6.91496500
_cell_length_b   5.57687300
_cell_length_c   9.14400747
_cell_angle_alpha   86.59731296
_cell_angle_beta   90.00000000
_cell_angle_gamma   90.00000000
_symmetry_Int_Tables_number   1
_chemical_formula_structural   Na2SnPCO7
_chemical_formula_sum   'Na4 Sn2 P2 C2 O14'
_cell_volume   352.00675357
_cell_formula_units_Z   2
loop_
 _symmetry_equiv_pos_site_id
 _symmetry_equiv_pos_as_xyz
  1  'x, y, z'
loop_
 _atom_site_type_symbol
 _atom_site_label
 _atom_site_symmetry_multiplicity
 _atom_site_fract_x
 _atom_site_fract_y
 _atom_site_fract_z
 _atom_site_occupancy
  Na  Na0  1  0.25819800  0.77632300  0.08343200  1
  Na  Na1  1  0.03433300  0.26002300  0.27319400  1
  Na  Na2  1  0.53433300  0.73997700  0.72680600  1
  Na  Na3  1  0.75819800  0.22367700  0.91656800  1
  Sn  Sn0  1  0.73864900  0.78366300  0.34098400  1
  Sn  Sn1  1  0.23864900  0.21633700  0.65901600  1
  P  P0  1  0.24715300  0.72504600  0.41850200  1
  P  P1  1  0.74715300  0.27495400  0.58149800  1
  C  C0  1  0.75191000  0.68824100  0.05126900  1
  C  C1  1  0.25191000  0.31175900  0.94873100  1
  O  O0  1  0.73901600  0.91107400  0.09273500  1
  O  O1  1  0.22945400  0.36177900  0.08126500  1
  O  O2  1  0.78512700  0.52035000  0.15567400  1
  O  O3  1  0.42366900  0.77979300  0.31429200  1
  O  O4  1  0.07228400  0.82399300  0.32375100  1
  O  O5  1  0.77028500  0.15576000  0.43397900  1
  O  O6  1  0.22191100  0.44850100  0.44905600  1
  O  O7  1  0.72191100  0.55149900  0.55094400  1
  O  O8  1  0.27028500  0.84424000  0.56602100  1
  O  O9  1  0.57228400  0.17600700  0.67624900  1
  O  O10  1  0.92366900  0.22020700  0.68570800  1
  O  O11  1  0.28512700  0.47965000  0.84432600  1
  O  O12  1  0.72945300  0.63822100  0.91873500  1
  O  O13  1  0.23901600  0.08892600  0.90726500  1
loop_
_geom_bond_atom_site_label_1
_geom_bond_atom_site_label_2
_geom_bond_distance
_geom_bond_site_symmetry_2
Na0 O13 2.306165 1_564
Na0 O1 2.321644 1_555
Na0 O3 2.402236 1_555
Na0 O4 2.573262 1_555
Na0 O11 2.825202 1_554
Na1 O1 2.259275 1_555
Na1 O6 2.360908 1_555
Na1 O5 2.394162 1_455
Na1 O2 2.459049 1_455
Na1 O4 2.462159 1_545
Na2 O12 2.259271 1_555
Na2 O7 2.360908 1_555
Na2 O8 2.394162 1_555
Na2 O11 2.459049 1_555
Na2 O9 2.462159 1_565
Na3 O0 2.306165 1_546
Na3 O12 2.321645 1_555
Na3 O10 2.402236 1_555
Na3 O9 2.573262 1_555
Na3 O2 2.825202 1_556
C0 O12 1.269151 1_554
C0 O2 1.317094 1_555
C0 O0 1.323624 1_555
C1 O1 1.269150 1_556
C1 O11 1.317094 1_555
C1 O13 1.323624 1_555
O0 Sn0 2.338009 1_555
O2 Sn0 2.329442 1_555
O3 P0 1.567343 1_555
O3 Sn0 2.191957 1_555
O4 P0 1.568630 1_555
O4 Sn0 2.322456 1_455
O5 P1 1.547082 1_555
O5 Sn0 2.299263 1_545
O6 P0 1.560746 1_555
O6 Sn1 2.254023 1_555
O7 P1 1.560746 1_555
O7 Sn0 2.254023 1_555
O8 P0 1.547082 1_555
O8 Sn1 2.299263 1_565
O9 P1 1.568630 1_555
O9 Sn1 2.322456 1_555
O10 P1 1.567343 1_555
O10 Sn1 2.191957 1_655
O11 Sn1 2.329442 1_555
O13 Sn1 2.338009 1_555
