# generated using pymatgen
data_NaNb6O16
_symmetry_space_group_name_H-M   'P 1'
_cell_length_a   9.19207197
_cell_length_b   9.19207197
_cell_length_c   3.93146500
_cell_angle_alpha   90.00000000
_cell_angle_beta   90.00000000
_cell_angle_gamma   110.13994950
_symmetry_Int_Tables_number   1
_chemical_formula_structural   NaNb6O16
_chemical_formula_sum   'Na1 Nb6 O16'
_cell_volume   311.87423280
_cell_formula_units_Z   1
loop_
 _symmetry_equiv_pos_site_id
 _symmetry_equiv_pos_as_xyz
  1  'x, y, z'
loop_
 _atom_site_type_symbol
 _atom_site_label
 _atom_site_symmetry_multiplicity
 _atom_site_fract_x
 _atom_site_fract_y
 _atom_site_fract_z
 _atom_site_occupancy
  Na  Na0  1  0.40318400  0.59681600  0.50000000  1
  Nb  Nb0  1  0.99698700  0.00301300  0.00000000  1
  Nb  Nb1  1  0.21124800  0.78875200  0.00000000  1
  Nb  Nb2  1  0.38116200  0.25899400  0.00000000  1
  Nb  Nb3  1  0.74100600  0.61883800  0.00000000  1
  Nb  Nb4  1  0.62798500  0.99993200  0.00000000  1
  Nb  Nb5  1  0.00006800  0.37201500  0.00000000  1
  O  O0  1  0.99733000  0.00267000  0.50000000  1
  O  O1  1  0.22365900  0.77634100  0.50000000  1
  O  O2  1  0.36767800  0.27806400  0.50000000  1
  O  O3  1  0.72193600  0.63232200  0.50000000  1
  O  O4  1  0.63271600  0.01214000  0.50000000  1
  O  O5  1  0.98786000  0.36728400  0.50000000  1
  O  O6  1  0.23238800  0.01238800  0.00000000  1
  O  O7  1  0.98761200  0.76761200  0.00000000  1
  O  O8  1  0.44268600  0.82151900  0.00000000  1
  O  O9  1  0.17848100  0.55731400  0.00000000  1
  O  O10  1  0.75921300  0.85124700  0.00000000  1
  O  O11  1  0.14875300  0.24078700  0.00000000  1
  O  O12  1  0.53580200  0.16607000  0.00000000  1
  O  O13  1  0.83393000  0.46419800  0.00000000  1
  O  O14  1  0.85976500  0.14023500  0.00000000  1
  O  O15  1  0.51655300  0.48344700  0.00000000  1
loop_
_geom_bond_atom_site_label_1
_geom_bond_atom_site_label_2
_geom_bond_distance
_geom_bond_site_symmetry_2
Na0 O15 2.604584 1_556
Na0 O15 2.604584 1_555
Na0 O1 2.705850 1_555
Na0 O9 2.783113 1_555
Na0 O9 2.783113 1_556
Na0 O8 2.783113 1_555
Na0 O8 2.783113 1_556
Na0 O2 2.834229 1_555
Na0 O3 2.834229 1_555
Nb0 O0 1.965739 1_555
Nb0 O0 1.965739 1_554
Nb0 O14 2.068248 1_555
Nb0 O6 2.135684 1_655
Nb0 O7 2.135684 1_545
Nb0 O11 2.150228 1_655
Nb0 O10 2.150228 1_545
Nb1 O1 1.974613 1_555
Nb1 O1 1.974613 1_554
Nb1 O6 1.997121 1_565
Nb1 O7 1.997121 1_455
Nb1 O8 2.043350 1_555
Nb1 O9 2.043350 1_555
Nb2 O12 1.893742 1_555
Nb2 O2 1.981201 1_555
Nb2 O2 1.981201 1_554
Nb2 O15 2.009329 1_555
Nb2 O11 2.084626 1_555
Nb2 O6 2.207694 1_555
Nb3 O13 1.893742 1_555
Nb3 O3 1.981201 1_554
Nb3 O3 1.981201 1_555
Nb3 O15 2.009329 1_555
Nb3 O10 2.084626 1_555
Nb3 O7 2.207694 1_555
Nb4 O8 1.914976 1_555
Nb4 O4 1.968560 1_565
Nb4 O4 1.968560 1_564
Nb4 O12 1.985274 1_565
Nb4 O14 2.076128 1_565
Nb4 O10 2.111463 1_555
Nb5 O9 1.914976 1_555
Nb5 O5 1.968560 1_455
Nb5 O5 1.968560 1_454
Nb5 O13 1.985274 1_455
Nb5 O14 2.076128 1_455
Nb5 O11 2.111463 1_555
