# generated using pymatgen
data_Cs3YO3
_symmetry_space_group_name_H-M   'P 1'
_cell_length_a   7.55992870
_cell_length_b   8.20788487
_cell_length_c   12.16593944
_cell_angle_alpha   84.97761534
_cell_angle_beta   90.00000000
_cell_angle_gamma   90.00000000
_symmetry_Int_Tables_number   1
_chemical_formula_structural   Cs3YO3
_chemical_formula_sum   'Cs12 Y4 O12'
_cell_volume   752.01058588
_cell_formula_units_Z   4
loop_
 _symmetry_equiv_pos_site_id
 _symmetry_equiv_pos_as_xyz
  1  'x, y, z'
loop_
 _atom_site_type_symbol
 _atom_site_label
 _atom_site_symmetry_multiplicity
 _atom_site_fract_x
 _atom_site_fract_y
 _atom_site_fract_z
 _atom_site_occupancy
  Cs  Cs0  1  0.33950334  0.35122874  0.07711659  1
  Cs  Cs1  1  0.62370481  0.93860996  0.15759645  1
  Cs  Cs2  1  0.81770775  0.37988312  0.19038445  1
  Cs  Cs3  1  0.31770775  0.62011688  0.30961555  1
  Cs  Cs4  1  0.12370481  0.06139004  0.34240355  1
  Cs  Cs5  1  0.83950334  0.64877126  0.42288341  1
  Cs  Cs6  1  0.16049666  0.35122874  0.57711659  1
  Cs  Cs7  1  0.87629519  0.93860996  0.65759645  1
  Cs  Cs8  1  0.68229225  0.37988312  0.69038445  1
  Cs  Cs9  1  0.18229225  0.62011688  0.80961555  1
  Cs  Cs10  1  0.37629519  0.06139004  0.84240355  1
  Cs  Cs11  1  0.66049666  0.64877126  0.92288341  1
  Y  Y0  1  0.08910098  0.84300037  0.06939884  1
  Y  Y1  1  0.58910098  0.15699963  0.43060116  1
  Y  Y2  1  0.41089902  0.84300037  0.56939884  1
  Y  Y3  1  0.91089902  0.15699963  0.93060116  1
  O  O0  1  0.34850090  0.75179666  0.05035390  1
  O  O1  1  0.05243303  0.10632571  0.08754853  1
  O  O2  1  0.94863852  0.70322626  0.19354435  1
  O  O3  1  0.44863852  0.29677374  0.30645565  1
  O  O4  1  0.55243303  0.89367429  0.41245147  1
  O  O5  1  0.84850090  0.24820334  0.44964610  1
  O  O6  1  0.15149910  0.75179666  0.55035390  1
  O  O7  1  0.44756697  0.10632571  0.58754853  1
  O  O8  1  0.55136148  0.70322626  0.69354435  1
  O  O9  1  0.05136148  0.29677374  0.80645565  1
  O  O10  1  0.94756697  0.89367429  0.91245147  1
  O  O11  1  0.65149910  0.24820334  0.94964610  1
loop_
_geom_bond_atom_site_label_1
_geom_bond_atom_site_label_2
_geom_bond_distance
_geom_bond_site_symmetry_2
Cs0 O3 2.906361 1_555
Cs0 O1 2.953301 1_555
Cs0 O11 2.985459 1_554
Cs0 O0 3.276116 1_555
Cs1 O0 2.955037 1_555
Cs1 O2 3.132129 1_555
Cs1 O4 3.136804 1_555
Cs1 O11 3.431649 1_564
Cs1 O1 3.594569 1_665
Cs2 O2 2.835951 1_555
Cs2 O3 3.174209 1_555
Cs2 O1 3.201165 1_655
Cs2 O5 3.251798 1_555
Cs2 O11 3.446618 1_554
Cs3 O3 2.835951 1_555
Cs3 O2 3.174209 1_455
Cs3 O4 3.201165 1_555
Cs3 O0 3.251798 1_555
Cs3 O6 3.446618 1_555
Cs4 O5 2.955037 1_455
Cs4 O3 3.132129 1_555
Cs4 O1 3.136804 1_555
Cs4 O6 3.431649 1_545
Cs4 O4 3.594569 1_545
Cs5 O2 2.906361 1_555
Cs5 O4 2.953301 1_555
Cs5 O6 2.985459 1_655
Cs5 O5 3.276116 1_555
Cs6 O9 2.906361 1_555
Cs6 O7 2.953301 1_555
Cs6 O5 2.985459 1_455
Cs6 O6 3.276116 1_555
Cs7 O6 2.955037 1_655
Cs7 O8 3.132129 1_555
Cs7 O10 3.136804 1_555
Cs7 O5 3.431649 1_565
Cs7 O7 3.594569 1_565
Cs8 O8 2.835951 1_555
Cs8 O9 3.174209 1_655
Cs8 O7 3.201165 1_555
Cs8 O11 3.251798 1_555
Cs8 O5 3.446618 1_555
Cs9 O9 2.835951 1_555
Cs9 O8 3.174209 1_555
Cs9 O10 3.201165 1_455
Cs9 O6 3.251798 1_555
Cs9 O0 3.446618 1_556
Cs10 O11 2.955037 1_555
Cs10 O9 3.132129 1_555
Cs10 O7 3.136804 1_555
Cs10 O0 3.431649 1_546
Cs10 O10 3.594569 1_445
Cs11 O8 2.906361 1_555
Cs11 O10 2.953301 1_555
Cs11 O0 2.985459 1_556
Cs11 O11 3.276116 1_555
O0 Y0 2.118994 1_555
O1 Y3 2.196513 1_454
O1 Y0 2.209201 1_545
O2 Y0 2.102747 1_655
O3 Y1 2.102747 1_555
O4 Y2 2.196513 1_555
O4 Y1 2.209201 1_565
O5 Y1 2.118994 1_555
O6 Y2 2.118994 1_555
O7 Y1 2.196513 1_555
O7 Y2 2.209201 1_545
O8 Y2 2.102747 1_555
O9 Y3 2.102747 1_455
O10 Y0 2.196513 1_656
O10 Y3 2.209201 1_565
O11 Y3 2.118994 1_555
