# generated using pymatgen
data_NaCa2V3Zn2O12
_symmetry_space_group_name_H-M   'P 1'
_cell_length_a   10.90971185
_cell_length_b   10.90971185
_cell_length_c   10.90971185
_cell_angle_alpha   109.47980178
_cell_angle_beta   109.47980178
_cell_angle_gamma   109.45405970
_symmetry_Int_Tables_number   1
_chemical_formula_structural   NaCa2V3Zn2O12
_chemical_formula_sum   'Na4 Ca8 V12 Zn8 O48'
_cell_volume   999.58083226
_cell_formula_units_Z   4
loop_
 _symmetry_equiv_pos_site_id
 _symmetry_equiv_pos_as_xyz
  1  'x, y, z'
loop_
 _atom_site_type_symbol
 _atom_site_label
 _atom_site_symmetry_multiplicity
 _atom_site_fract_x
 _atom_site_fract_y
 _atom_site_fract_z
 _atom_site_occupancy
  Na  Na0  1  0.00000000  0.50000000  0.50000000  1
  Na  Na1  1  0.25000000  0.25000000  0.00000000  1
  Na  Na2  1  0.50000000  0.00000000  0.50000000  1
  Na  Na3  1  0.75000000  0.75000000  0.00000000  1
  Ca  Ca0  1  0.00176700  0.37500000  0.12676700  1
  Ca  Ca1  1  0.12500000  0.99823300  0.37323300  1
  Ca  Ca2  1  0.50176700  0.37500000  0.62676700  1
  Ca  Ca3  1  0.12500000  0.49823300  0.87323300  1
  Ca  Ca4  1  0.24823300  0.87500000  0.87323300  1
  Ca  Ca5  1  0.62500000  0.75176700  0.62676700  1
  Ca  Ca6  1  0.74823300  0.87500000  0.37323300  1
  Ca  Ca7  1  0.62500000  0.25176700  0.12676700  1
  V  V0  1  0.00000000  0.00000000  0.00000000  1
  V  V1  1  0.99955300  0.87500000  0.62455300  1
  V  V2  1  0.12500000  0.24955300  0.62455300  1
  V  V3  1  0.25044700  0.37500000  0.37544700  1
  V  V4  1  0.12500000  0.74955300  0.12455300  1
  V  V5  1  0.25000000  0.75000000  0.50000000  1
  V  V6  1  0.50000000  0.50000000  0.00000000  1
  V  V7  1  0.49955300  0.87500000  0.12455300  1
  V  V8  1  0.62500000  0.00044700  0.87544700  1
  V  V9  1  0.62500000  0.50044700  0.37544700  1
  V  V10  1  0.75044700  0.37500000  0.87544700  1
  V  V11  1  0.75000000  0.25000000  0.50000000  1
  Zn  Zn0  1  0.87500000  0.12500000  0.25000000  1
  Zn  Zn1  1  0.87500000  0.62500000  0.25000000  1
  Zn  Zn2  1  0.87500000  0.12500000  0.75000000  1
  Zn  Zn3  1  0.87500000  0.62500000  0.75000000  1
  Zn  Zn4  1  0.37500000  0.62500000  0.75000000  1
  Zn  Zn5  1  0.37500000  0.12500000  0.75000000  1
  Zn  Zn6  1  0.37500000  0.62500000  0.25000000  1
  Zn  Zn7  1  0.37500000  0.12500000  0.25000000  1
  O  O0  1  0.98092700  0.74295200  0.16201400  1
  O  O1  1  0.89272000  0.33412700  0.87081000  1
  O  O2  1  0.98867800  0.13943500  0.95890200  1
  O  O3  1  0.97022500  0.01132200  0.15075700  1
  O  O4  1  0.96331700  0.83412700  0.44140700  1
  O  O5  1  0.97809000  0.10728000  0.44140700  1
  O  O6  1  0.06891300  0.33093800  0.33798600  1
  O  O7  1  0.28668300  0.22809000  0.37081000  1
  O  O8  1  0.25704800  0.41906200  0.23797500  1
  O  O9  1  0.16587300  0.60728000  0.12919000  1
  O  O10  1  0.18108700  0.01907300  0.76202500  1
  O  O11  1  0.88943500  0.43053300  0.65075700  1
  O  O12  1  0.06946700  0.61056500  0.34924300  1
  O  O13  1  0.08093800  0.24295200  0.76202500  1
  O  O14  1  0.27191000  0.21331700  0.62919000  1
  O  O15  1  0.16906200  0.43108700  0.66201400  1
  O  O16  1  0.18053300  0.02977500  0.04109800  1
  O  O17  1  0.99295200  0.73092700  0.66201400  1
  O  O18  1  0.26907300  0.93108700  0.26202500  1
  O  O19  1  0.39272000  0.52191000  0.55859300  1
  O  O20  1  0.38943500  0.73867800  0.45890200  1
  O  O21  1  0.26132200  0.72022500  0.65075700  1
  O  O22  1  0.47022500  0.31946700  0.95890200  1
  O  O23  1  0.08412700  0.71331700  0.94140700  1
  O  O24  1  0.66587300  0.53668300  0.55859300  1
  O  O25  1  0.27977500  0.93053300  0.54109800  1
  O  O26  1  0.48867800  0.52977500  0.84924300  1
  O  O27  1  0.36056500  0.51132200  0.04109800  1
  O  O28  1  0.35728000  0.72809000  0.94140700  1
  O  O29  1  0.48092700  0.31891300  0.23797500  1
  O  O30  1  0.75704800  0.51907300  0.83798600  1
  O  O31  1  0.56946700  0.22022500  0.45890200  1
  O  O32  1  0.58093800  0.81891300  0.83798600  1
  O  O33  1  0.47809000  0.03668300  0.87081000  1
  O  O34  1  0.66906200  0.00704800  0.73797500  1
  O  O35  1  0.68053300  0.63943500  0.15075700  1
  O  O36  1  0.86056500  0.81946700  0.84924300  1
  O  O37  1  0.56891300  0.23092700  0.73797500  1
  O  O38  1  0.58412700  0.64272000  0.37081000  1
  O  O39  1  0.49295200  0.83093800  0.26202500  1
  O  O40  1  0.46331700  0.02191000  0.12919000  1
  O  O41  1  0.68108700  0.91906200  0.16201400  1
  O  O42  1  0.77191000  0.14272000  0.05859300  1
  O  O43  1  0.78668300  0.41587300  0.05859300  1
  O  O44  1  0.77977500  0.23867800  0.34924300  1
  O  O45  1  0.76132200  0.11056500  0.54109800  1
  O  O46  1  0.85728000  0.91587300  0.62919000  1
  O  O47  1  0.76907300  0.50704800  0.33798600  1
loop_
_geom_bond_atom_site_label_1
_geom_bond_atom_site_label_2
_geom_bond_distance
_geom_bond_site_symmetry_2
Na0 O12 2.505997 1_555
Na0 O11 2.505997 1_455
Na0 O44 2.506001 1_455
Na0 O21 2.506001 1_555
Na0 O17 2.593630 1_455
Na0 O47 2.593630 1_455
Na0 O6 2.593630 1_555
Na0 O15 2.593630 1_555
Na1 O27 2.505997 1_555
Na1 O2 2.505997 1_454
Na1 O22 2.506007 1_554
Na1 O16 2.506007 1_555
Na1 O29 2.593630 1_555
Na1 O8 2.593630 1_555
Na1 O10 2.593630 1_554
Na1 O13 2.593630 1_554
Na2 O20 2.505997 1_545
Na2 O45 2.505997 1_555
Na2 O25 2.506007 1_545
Na2 O31 2.506007 1_555
Na2 O18 2.593630 1_545
Na2 O39 2.593630 1_545
Na2 O34 2.593630 1_555
Na2 O37 2.593630 1_555
Na3 O35 2.505997 1_555
Na3 O36 2.505997 1_554
Na3 O26 2.506001 1_554
Na3 O3 2.506001 1_565
Na3 O0 2.593630 1_555
Na3 O30 2.593630 1_554
Na3 O41 2.593630 1_555
Na3 O32 2.593630 1_554
Ca0 O8 2.434170 1_555
Ca0 O6 2.434170 1_555
Ca0 O43 2.451995 1_455
Ca0 O1 2.451995 1_454
Ca0 O2 2.533976 1_454
Ca0 O12 2.533976 1_555
Ca0 O9 2.555278 1_555
Ca0 O42 2.555278 1_455
Ca1 O18 2.434170 1_555
Ca1 O0 2.434170 1_455
Ca1 O5 2.451995 1_465
Ca1 O14 2.451995 1_565
Ca1 O25 2.533971 1_555
Ca1 O3 2.533972 1_465
Ca1 O7 2.555278 1_565
Ca1 O4 2.555278 1_455
Ca2 O30 2.434170 1_555
Ca2 O37 2.434170 1_555
Ca2 O19 2.451995 1_555
Ca2 O7 2.451995 1_555
Ca2 O31 2.533971 1_555
Ca2 O26 2.533972 1_555
Ca2 O24 2.555278 1_555
Ca2 O14 2.555278 1_555
Ca3 O13 2.434170 1_555
Ca3 O15 2.434170 1_555
Ca3 O9 2.451995 1_556
Ca3 O23 2.451995 1_555
Ca3 O11 2.533976 1_455
Ca3 O27 2.533976 1_556
Ca3 O28 2.555278 1_555
Ca3 O1 2.555278 1_455
Ca4 O10 2.434170 1_565
Ca4 O17 2.434170 1_455
Ca4 O28 2.451995 1_555
Ca4 O40 2.451995 1_566
Ca4 O16 2.533971 1_566
Ca4 O21 2.533972 1_555
Ca4 O23 2.555278 1_555
Ca4 O33 2.555278 1_565
Ca5 O34 2.434170 1_565
Ca5 O32 2.434170 1_555
Ca5 O38 2.451995 1_555
Ca5 O24 2.451995 1_555
Ca5 O36 2.533976 1_555
Ca5 O20 2.533976 1_555
Ca5 O19 2.555278 1_555
Ca5 O46 2.555278 1_555
Ca6 O39 2.434170 1_555
Ca6 O41 2.434170 1_555
Ca6 O4 2.451995 1_555
Ca6 O46 2.451995 1_555
Ca6 O35 2.533976 1_555
Ca6 O45 2.533976 1_565
Ca6 O5 2.555278 1_565
Ca6 O38 2.555278 1_555
Ca7 O29 2.434170 1_555
Ca7 O47 2.434170 1_555
Ca7 O42 2.451995 1_555
Ca7 O33 2.451995 1_554
Ca7 O22 2.533971 1_554
Ca7 O44 2.533972 1_555
Ca7 O43 2.555278 1_555
Ca7 O40 2.555278 1_555
O0 V4 1.736495 1_655
O0 Zn1 2.118001 1_555
O1 V10 1.763219 1_555
O1 Zn2 2.123804 1_555
O2 V0 1.753124 1_656
O2 Zn2 2.121889 1_555
O3 V0 1.753118 1_655
O3 Zn0 2.121898 1_555
O4 V1 1.763219 1_555
O4 Zn1 2.123804 1_555
O5 V2 1.763219 1_655
O5 Zn0 2.123804 1_555
O6 V3 1.736495 1_555
O6 Zn0 2.118001 1_455
O7 V3 1.763219 1_555
O7 Zn7 2.123804 1_555
O8 V3 1.736495 1_555
O8 Zn6 2.118001 1_555
O9 V4 1.763219 1_555
O9 Zn6 2.123804 1_555
O10 V1 1.736495 1_445
O10 Zn5 2.118001 1_555
O11 V11 1.753124 1_555
O11 Zn3 2.121889 1_555
O12 V5 1.753124 1_555
O12 Zn1 2.121889 1_455
O13 V2 1.736495 1_555
O13 Zn2 2.118001 1_455
O14 V2 1.763219 1_555
O14 Zn5 2.123804 1_555
O15 V2 1.736495 1_555
O15 Zn4 2.118001 1_555
O16 V0 1.753127 1_555
O16 Zn7 2.121887 1_555
O17 V1 1.736495 1_555
O17 Zn3 2.118001 1_555
O18 V4 1.736495 1_555
O18 Zn7 2.118001 1_565
O19 V3 1.763219 1_555
O19 Zn4 2.123804 1_555
O20 V5 1.753124 1_555
O20 Zn6 2.121889 1_555
O21 V5 1.753118 1_555
O21 Zn4 2.121898 1_555
O22 V6 1.753127 1_556
O22 Zn5 2.121887 1_555
O23 V4 1.763219 1_556
O23 Zn3 2.123804 1_455
O24 V9 1.763219 1_555
O24 Zn3 2.123804 1_555
O25 V5 1.753127 1_555
O25 Zn5 2.121887 1_565
O26 V6 1.753118 1_556
O26 Zn4 2.121898 1_555
O27 V6 1.753124 1_555
O27 Zn6 2.121889 1_555
O28 V7 1.763219 1_556
O28 Zn4 2.123804 1_555
O29 V9 1.736495 1_555
O29 Zn7 2.118001 1_555
O30 V10 1.736495 1_555
O30 Zn3 2.118001 1_555
O31 V11 1.753127 1_555
O31 Zn7 2.121887 1_555
O32 V8 1.736495 1_565
O32 Zn4 2.118001 1_555
O33 V8 1.763219 1_555
O33 Zn5 2.123804 1_555
O34 V8 1.736495 1_555
O34 Zn2 2.118001 1_555
O35 V6 1.753124 1_555
O35 Zn1 2.121889 1_555
O36 V0 1.753124 1_666
O36 Zn3 2.121889 1_555
O37 V10 1.736495 1_555
O37 Zn5 2.118001 1_555
O38 V9 1.763219 1_555
O38 Zn6 2.123804 1_555
O39 V7 1.736495 1_555
O39 Zn6 2.118001 1_555
O40 V7 1.763219 1_545
O40 Zn7 2.123804 1_555
O41 V7 1.736495 1_555
O41 Zn0 2.118001 1_565
O42 V8 1.763219 1_554
O42 Zn0 2.123804 1_555
O43 V10 1.763219 1_554
O43 Zn1 2.123804 1_555
O44 V11 1.753118 1_555
O44 Zn0 2.121898 1_555
O45 V11 1.753124 1_555
O45 Zn2 2.121889 1_555
O46 V1 1.763219 1_555
O46 Zn2 2.123804 1_565
O47 V9 1.736495 1_555
O47 Zn1 2.118001 1_555
