# generated using pymatgen
data_Na4V2C4SO16
_symmetry_space_group_name_H-M   'P 1'
_cell_length_a   9.96776413
_cell_length_b   9.89419559
_cell_length_c   9.89242805
_cell_angle_alpha   60.49851118
_cell_angle_beta   59.75952103
_cell_angle_gamma   59.74196780
_symmetry_Int_Tables_number   1
_chemical_formula_structural   Na4V2C4SO16
_chemical_formula_sum   'Na8 V4 C8 S2 O32'
_cell_volume   689.78946752
_cell_formula_units_Z   2
loop_
 _symmetry_equiv_pos_site_id
 _symmetry_equiv_pos_as_xyz
  1  'x, y, z'
loop_
 _atom_site_type_symbol
 _atom_site_label
 _atom_site_symmetry_multiplicity
 _atom_site_fract_x
 _atom_site_fract_y
 _atom_site_fract_z
 _atom_site_occupancy
  Na  Na0  1  0.04522000  0.45478000  0.45478000  1
  Na  Na1  1  0.78633300  0.21366700  0.21366700  1
  Na  Na2  1  0.21381400  0.21381400  0.78618600  1
  Na  Na3  1  0.78813700  0.21186300  0.78813700  1
  Na  Na4  1  0.21186300  0.78813700  0.21186300  1
  Na  Na5  1  0.78618600  0.78618600  0.21381400  1
  Na  Na6  1  0.45478000  0.04522000  0.04522000  1
  Na  Na7  1  0.21366700  0.78633300  0.78633300  1
  V  V0  1  0.62241000  0.62569000  0.62693600  1
  V  V1  1  0.12496400  0.62693600  0.62569000  1
  V  V2  1  0.62569000  0.62241000  0.12496400  1
  V  V3  1  0.62693600  0.12496400  0.62241000  1
  C  C0  1  0.84025900  0.83437500  0.48236300  1
  C  C1  1  0.84300300  0.48236300  0.83437500  1
  C  C2  1  0.48236300  0.84300300  0.84025900  1
  C  C3  1  0.83437500  0.84025900  0.84300300  1
  C  C4  1  0.76373800  0.41001400  0.41282200  1
  C  C5  1  0.41342600  0.41282200  0.41001400  1
  C  C6  1  0.41282200  0.41342600  0.76373800  1
  C  C7  1  0.41001400  0.76373800  0.41342600  1
  S  S0  1  0.00000000  0.00000000  0.00000000  1
  S  S1  1  0.25000000  0.25000000  0.25000000  1
  O  O0  1  0.06196800  0.06099100  0.81521800  1
  O  O1  1  0.06182300  0.81521800  0.06099100  1
  O  O2  1  0.81521800  0.06182300  0.06196800  1
  O  O3  1  0.06099100  0.06196800  0.06182300  1
  O  O4  1  0.98634600  0.72328300  0.47599500  1
  O  O5  1  0.81437700  0.47599500  0.72328300  1
  O  O6  1  0.73155300  0.80038300  0.48030900  1
  O  O7  1  0.98775400  0.48030900  0.80038300  1
  O  O8  1  0.73318200  0.48132100  0.97857100  1
  O  O9  1  0.80692600  0.97857100  0.48132100  1
  O  O10  1  0.48132100  0.73318200  0.80692600  1
  O  O11  1  0.97857100  0.80692600  0.73318200  1
  O  O12  1  0.75997700  0.43640800  0.27366400  1
  O  O13  1  0.52995100  0.27366400  0.43640800  1
  O  O14  1  0.48030900  0.98775400  0.73155300  1
  O  O15  1  0.80038300  0.73155300  0.98775400  1
  O  O16  1  0.76299600  0.26934900  0.52854500  1
  O  O17  1  0.43911000  0.52854500  0.26934900  1
  O  O18  1  0.72328300  0.98634600  0.81437700  1
  O  O19  1  0.47599500  0.81437700  0.98634600  1
  O  O20  1  0.26690800  0.43840900  0.52273200  1
  O  O21  1  0.77195100  0.52273200  0.43840900  1
  O  O22  1  0.43840900  0.26690800  0.77195100  1
  O  O23  1  0.52273200  0.77195100  0.26690800  1
  O  O24  1  0.52854500  0.43911000  0.76299600  1
  O  O25  1  0.26934900  0.76299600  0.43911000  1
  O  O26  1  0.27366400  0.52995100  0.75997700  1
  O  O27  1  0.43640800  0.75997700  0.52995100  1
  O  O28  1  0.19217300  0.18615300  0.18635200  1
  O  O29  1  0.43532200  0.18635200  0.18615300  1
  O  O30  1  0.18615300  0.19217300  0.43532200  1
  O  O31  1  0.18635200  0.43532200  0.19217300  1
loop_
_geom_bond_atom_site_label_1
_geom_bond_atom_site_label_2
_geom_bond_distance
_geom_bond_site_symmetry_2
Na0 O31 2.302891 1_555
Na0 O30 2.302891 1_555
Na0 O5 2.509970 1_455
Na0 O4 2.509973 1_455
Na0 O20 2.527699 1_555
Na0 O21 2.527699 1_455
Na1 O13 2.413694 1_555
Na1 O12 2.413694 1_555
Na1 O2 2.437501 1_555
Na1 O3 2.437501 1_655
Na1 O8 2.542398 1_554
Na1 O9 2.542398 1_545
Na2 O3 2.469934 1_556
Na2 O0 2.469934 1_555
Na2 O22 2.470308 1_555
Na2 O20 2.470308 1_555
Na2 O7 2.471408 1_455
Na2 O14 2.471409 1_545
Na3 O2 2.446761 1_556
Na3 O0 2.446761 1_655
Na3 O16 2.459049 1_555
Na3 O24 2.459049 1_555
Na3 O18 2.485601 1_545
Na3 O5 2.485611 1_555
Na4 O1 2.446761 1_555
Na4 O3 2.446761 1_565
Na4 O17 2.459049 1_555
Na4 O25 2.459049 1_555
Na4 O4 2.485606 1_455
Na4 O19 2.485608 1_554
Na5 O2 2.469934 1_565
Na5 O1 2.469934 1_655
Na5 O21 2.470308 1_555
Na5 O23 2.470308 1_555
Na5 O6 2.471404 1_555
Na5 O15 2.471414 1_554
Na6 O28 2.302891 1_555
Na6 O29 2.302891 1_555
Na6 O19 2.509963 1_544
Na6 O18 2.509968 1_544
Na6 O22 2.527699 1_554
Na6 O23 2.527699 1_545
Na7 O26 2.413694 1_555
Na7 O27 2.413694 1_555
Na7 O0 2.437501 1_565
Na7 O1 2.437501 1_556
Na7 O11 2.542398 1_455
Na7 O10 2.542398 1_555
C0 O9 1.287333 1_555
C0 O6 1.297610 1_555
C0 O4 1.302039 1_555
C1 O8 1.287333 1_555
C1 O7 1.297600 1_555
C1 O5 1.302033 1_555
C2 O10 1.287333 1_555
C2 O14 1.297603 1_555
C2 O19 1.302042 1_555
C3 O11 1.287333 1_555
C3 O15 1.297604 1_555
C3 O18 1.302038 1_555
C4 O12 1.285577 1_555
C4 O16 1.296241 1_555
C4 O21 1.305937 1_555
C5 O13 1.285577 1_555
C5 O17 1.296241 1_555
C5 O20 1.305937 1_555
C6 O26 1.285577 1_555
C6 O24 1.296241 1_555
C6 O22 1.305937 1_555
C7 O27 1.285577 1_555
C7 O25 1.296241 1_555
C7 O23 1.305937 1_555
O0 S0 1.496332 1_556
O1 S0 1.496332 1_565
O2 S0 1.496332 1_655
O3 S0 1.496332 1_555
O4 V1 2.086621 1_655
O5 V0 2.086629 1_555
O6 V0 2.027651 1_555
O7 V1 2.027657 1_655
O8 V2 2.028480 1_556
O9 V3 2.028480 1_565
O10 V0 2.028480 1_555
O11 V1 2.028480 1_655
O12 V2 2.043742 1_555
O13 V3 2.043742 1_555
O14 V3 2.027658 1_565
O15 V2 2.027650 1_556
O16 V3 2.029770 1_555
O17 V2 2.029770 1_555
O18 V3 2.086629 1_565
O19 V2 2.086623 1_556
O20 V1 2.068457 1_555
O21 V0 2.068457 1_555
O22 V3 2.068457 1_555
O23 V2 2.068457 1_555
O24 V0 2.029770 1_555
O25 V1 2.029770 1_555
O26 V1 2.043742 1_555
O27 V0 2.043742 1_555
O28 S1 1.500668 1_555
O29 S1 1.500668 1_555
O30 S1 1.500668 1_555
O31 S1 1.500668 1_555
