# generated using pymatgen
data_Li4V3(FeO6)2
_symmetry_space_group_name_H-M   'P 1'
_cell_length_a   9.23101000
_cell_length_b   8.93075900
_cell_length_c   15.30641312
_cell_angle_alpha   55.69211758
_cell_angle_beta   90.00000000
_cell_angle_gamma   90.00000000
_symmetry_Int_Tables_number   1
_chemical_formula_structural   Li4V3(FeO6)2
_chemical_formula_sum   'Li16 V12 Fe8 O48'
_cell_volume   1042.32219239
_cell_formula_units_Z   4
loop_
 _symmetry_equiv_pos_site_id
 _symmetry_equiv_pos_as_xyz
  1  'x, y, z'
loop_
 _atom_site_type_symbol
 _atom_site_label
 _atom_site_symmetry_multiplicity
 _atom_site_fract_x
 _atom_site_fract_y
 _atom_site_fract_z
 _atom_site_occupancy
  Li  Li0  1  0.91649100  0.13078300  0.80265600  1
  Li  Li1  1  0.48764900  0.77791600  0.15262800  1
  Li  Li2  1  0.34039800  0.38224700  0.51867400  1
  Li  Li3  1  0.22895400  0.50081100  0.30722900  1
  Li  Li4  1  0.72895400  0.49918900  0.19277100  1
  Li  Li5  1  0.84039800  0.61775300  0.98132600  1
  Li  Li6  1  0.98764900  0.22208400  0.34737200  1
  Li  Li7  1  0.41649100  0.86921700  0.69734400  1
  Li  Li8  1  0.58350900  0.13078300  0.30265600  1
  Li  Li9  1  0.01235100  0.77791600  0.65262800  1
  Li  Li10  1  0.15960200  0.38224700  0.01867400  1
  Li  Li11  1  0.27104600  0.50081100  0.80722900  1
  Li  Li12  1  0.77104600  0.49918900  0.69277100  1
  Li  Li13  1  0.65960200  0.61775300  0.48132600  1
  Li  Li14  1  0.51235100  0.22208400  0.84737200  1
  Li  Li15  1  0.08350900  0.86921700  0.19734400  1
  V  V0  1  0.74996800  0.94715000  0.01091100  1
  V  V1  1  0.62368200  0.22673100  0.65666800  1
  V  V2  1  0.88771500  0.53064400  0.36131000  1
  V  V3  1  0.12368200  0.77326900  0.84333200  1
  V  V4  1  0.38771500  0.46935600  0.13869000  1
  V  V5  1  0.24996800  0.05285000  0.48908900  1
  V  V6  1  0.75003200  0.94715000  0.51091100  1
  V  V7  1  0.61228500  0.53064400  0.86131000  1
  V  V8  1  0.87631800  0.22673100  0.15666800  1
  V  V9  1  0.11228500  0.46935600  0.63869000  1
  V  V10  1  0.37631800  0.77326900  0.34333200  1
  V  V11  1  0.25003200  0.05285000  0.98908900  1
  Fe  Fe0  1  0.53591500  0.36930500  0.38217100  1
  Fe  Fe1  1  0.03591500  0.63069500  0.11782900  1
  Fe  Fe2  1  0.96408500  0.36930500  0.88217100  1
  Fe  Fe3  1  0.46408500  0.63069500  0.61782900  1
  Fe  Fe4  1  0.47838100  0.85942600  0.89181100  1
  Fe  Fe5  1  0.97838100  0.14057400  0.60818900  1
  Fe  Fe6  1  0.02161900  0.85942600  0.39181100  1
  Fe  Fe7  1  0.52161900  0.14057400  0.10818900  1
  O  O0  1  0.12039400  0.88907200  0.05602100  1
  O  O1  1  0.34291400  0.04986000  0.89038000  1
  O  O2  1  0.12816300  0.33823600  0.58686800  1
  O  O3  1  0.41526900  0.63244400  0.29993400  1
  O  O4  1  0.63090700  0.99694000  0.90815200  1
  O  O5  1  0.81344500  0.21095900  0.66183800  1
  O  O6  1  0.57035800  0.34949400  0.52567100  1
  O  O7  1  0.01815800  0.61835000  0.26167100  1
  O  O8  1  0.72109200  0.52212300  0.31186500  1
  O  O9  1  0.82015600  0.72676900  0.06539200  1
  O  O10  1  0.52791600  0.02210100  0.72951200  1
  O  O11  1  0.94269100  0.30460200  0.45210200  1
  O  O12  1  0.02791600  0.97789900  0.77048800  1
  O  O13  1  0.44269100  0.69539800  0.04789800  1
  O  O14  1  0.32015600  0.27323100  0.43460800  1
  O  O15  1  0.22109200  0.47787700  0.18813500  1
  O  O16  1  0.07035800  0.65050600  0.97432900  1
  O  O17  1  0.51815800  0.38165000  0.23832900  1
  O  O18  1  0.31344500  0.78904100  0.83816200  1
  O  O19  1  0.13090700  0.00306000  0.59184800  1
  O  O20  1  0.62816300  0.66176400  0.91313200  1
  O  O21  1  0.84291400  0.95014000  0.60962000  1
  O  O22  1  0.91526900  0.36755600  0.20006600  1
  O  O23  1  0.62039400  0.11092800  0.44397900  1
  O  O24  1  0.37960600  0.88907200  0.55602100  1
  O  O25  1  0.08473100  0.63244400  0.79993400  1
  O  O26  1  0.15708600  0.04986000  0.39038000  1
  O  O27  1  0.37183700  0.33823600  0.08686800  1
  O  O28  1  0.86909300  0.99694000  0.40815200  1
  O  O29  1  0.68655500  0.21095900  0.16183800  1
  O  O30  1  0.48184200  0.61835000  0.76167100  1
  O  O31  1  0.92964200  0.34949400  0.02567100  1
  O  O32  1  0.77890800  0.52212300  0.81186500  1
  O  O33  1  0.67984400  0.72676900  0.56539200  1
  O  O34  1  0.55730900  0.30460200  0.95210200  1
  O  O35  1  0.97208400  0.02210100  0.22951200  1
  O  O36  1  0.05730900  0.69539800  0.54789800  1
  O  O37  1  0.47208400  0.97789900  0.27048800  1
  O  O38  1  0.17984400  0.27323100  0.93460800  1
  O  O39  1  0.27890800  0.47787700  0.68813500  1
  O  O40  1  0.98184200  0.38165000  0.73832900  1
  O  O41  1  0.42964200  0.65050600  0.47432900  1
  O  O42  1  0.18655500  0.78904100  0.33816200  1
  O  O43  1  0.36909300  0.00306000  0.09184800  1
  O  O44  1  0.58473100  0.36755600  0.70006600  1
  O  O45  1  0.87183700  0.66176400  0.41313200  1
  O  O46  1  0.65708600  0.95014000  0.10962000  1
  O  O47  1  0.87960600  0.11092800  0.94397900  1
loop_
_geom_bond_atom_site_label_1
_geom_bond_atom_site_label_2
_geom_bond_distance
_geom_bond_site_symmetry_2
Li0 O40 1.966262 1_555
Li0 O12 1.980520 1_645
Li0 O5 2.079318 1_555
Li0 O47 2.096233 1_555
Li1 O3 1.978873 1_555
Li1 O43 1.999360 1_565
Li1 O46 2.025837 1_555
Li1 O13 2.148670 1_555
Li2 O14 2.012648 1_555
Li2 O6 2.137251 1_555
Li2 O2 2.149366 1_555
Li2 O41 2.246310 1_555
Li3 O15 1.947068 1_555
Li3 O14 2.043030 1_555
Li3 O3 2.050478 1_555
Li3 O7 2.132926 1_555
Li4 O8 1.947068 1_555
Li4 O9 2.043030 1_555
Li4 O22 2.050478 1_555
Li4 O17 2.132926 1_555
Li5 O9 2.012648 1_556
Li5 O16 2.137251 1_655
Li5 O20 2.149366 1_555
Li5 O31 2.246310 1_556
Li6 O22 1.978873 1_555
Li6 O28 1.999360 1_545
Li6 O26 2.025837 1_655
Li6 O11 2.148670 1_555
Li7 O30 1.966262 1_555
Li7 O10 1.980520 1_565
Li7 O18 2.079318 1_555
Li7 O24 2.096233 1_555
Li8 O17 1.966262 1_555
Li8 O37 1.980520 1_545
Li8 O29 2.079318 1_555
Li8 O23 2.096233 1_555
Li9 O25 1.978873 1_555
Li9 O19 1.999360 1_565
Li9 O21 2.025837 1_455
Li9 O36 2.148670 1_555
Li10 O38 2.012648 1_554
Li10 O31 2.137251 1_455
Li10 O27 2.149366 1_555
Li10 O16 2.246310 1_554
Li11 O39 1.947068 1_555
Li11 O38 2.043030 1_555
Li11 O25 2.050478 1_555
Li11 O30 2.132926 1_555
Li12 O32 1.947068 1_555
Li12 O33 2.043030 1_555
Li12 O44 2.050478 1_555
Li12 O40 2.132926 1_555
Li13 O33 2.012648 1_555
Li13 O41 2.137251 1_555
Li13 O45 2.149366 1_555
Li13 O6 2.246310 1_555
Li14 O44 1.978873 1_555
Li14 O4 1.999360 1_545
Li14 O1 2.025837 1_555
Li14 O34 2.148670 1_555
Li15 O7 1.966262 1_555
Li15 O35 1.980520 1_465
Li15 O42 2.079318 1_555
Li15 O0 2.096233 1_555
Fe0 O8 2.070511 1_555
Fe0 O23 2.089698 1_555
Fe0 O6 2.125746 1_555
Fe0 O14 2.137952 1_555
Fe0 O17 2.147765 1_555
Fe0 O3 2.238925 1_555
Fe1 O15 2.070511 1_555
Fe1 O0 2.089698 1_555
Fe1 O16 2.125746 1_554
Fe1 O9 2.137952 1_455
Fe1 O7 2.147765 1_555
Fe1 O22 2.238925 1_455
Fe2 O32 2.070511 1_555
Fe2 O47 2.089698 1_555
Fe2 O31 2.125746 1_556
Fe2 O38 2.137952 1_655
Fe2 O40 2.147765 1_555
Fe2 O25 2.238925 1_655
Fe3 O39 2.070511 1_555
Fe3 O24 2.089698 1_555
Fe3 O41 2.125746 1_555
Fe3 O33 2.137952 1_555
Fe3 O30 2.147765 1_555
Fe3 O44 2.238925 1_555
Fe4 O4 1.974703 1_555
Fe4 O18 1.992341 1_555
Fe4 O13 2.004277 1_556
Fe4 O1 2.101114 1_565
Fe4 O10 2.103001 1_565
Fe4 O20 2.117773 1_555
Fe5 O19 1.974703 1_655
Fe5 O5 1.992341 1_555
Fe5 O11 2.004277 1_555
Fe5 O21 2.101114 1_545
Fe5 O12 2.103001 1_645
Fe5 O2 2.117773 1_655
Fe6 O28 1.974703 1_455
Fe6 O42 1.992341 1_555
Fe6 O36 2.004277 1_555
Fe6 O26 2.101114 1_565
Fe6 O35 2.103001 1_465
Fe6 O45 2.117773 1_455
Fe7 O43 1.974703 1_555
Fe7 O29 1.992341 1_555
Fe7 O34 2.004277 1_554
Fe7 O46 2.101114 1_545
Fe7 O37 2.103001 1_545
Fe7 O27 2.117773 1_555
O0 V11 1.712255 1_564
O1 V11 1.750451 1_555
O2 V9 1.751850 1_555
O3 V10 1.758989 1_555
O4 V0 1.758167 1_556
O5 V1 1.755564 1_555
O6 V1 1.728178 1_555
O7 V2 1.744354 1_455
O8 V2 1.734718 1_555
O9 V0 1.771639 1_555
O10 V1 1.751414 1_555
O11 V2 1.761126 1_555
O12 V3 1.751414 1_555
O13 V4 1.761126 1_555
O14 V5 1.771639 1_555
O15 V4 1.734718 1_555
O16 V3 1.728178 1_555
O17 V4 1.744354 1_555
O18 V3 1.755564 1_555
O19 V5 1.758167 1_555
O20 V7 1.751850 1_555
O21 V6 1.750451 1_555
O22 V8 1.758989 1_555
O23 V6 1.712255 1_545
O24 V5 1.712255 1_565
O25 V3 1.758989 1_555
O26 V5 1.750451 1_555
O27 V4 1.751850 1_555
O28 V6 1.758167 1_555
O29 V8 1.755564 1_555
O30 V7 1.744354 1_555
O31 V8 1.728178 1_555
O32 V7 1.734718 1_555
O33 V6 1.771639 1_555
O34 V7 1.761126 1_555
O35 V8 1.751414 1_555
O36 V9 1.761126 1_555
O37 V10 1.751414 1_555
O38 V11 1.771639 1_555
O39 V9 1.734718 1_555
O40 V9 1.744354 1_655
O41 V10 1.728178 1_555
O42 V10 1.755564 1_555
O43 V11 1.758167 1_554
O44 V1 1.758989 1_555
O45 V2 1.751850 1_555
O46 V0 1.750451 1_555
O47 V0 1.712255 1_546
