# generated using pymatgen
data_LiVSiO4
_symmetry_space_group_name_H-M   'P 1'
_cell_length_a   4.90699200
_cell_length_b   9.15840900
_cell_length_c   6.31108200
_cell_angle_alpha   89.99916864
_cell_angle_beta   89.99993774
_cell_angle_gamma   89.99998207
_symmetry_Int_Tables_number   1
_chemical_formula_structural   LiVSiO4
_chemical_formula_sum   'Li4 V4 Si4 O16'
_cell_volume   283.62153781
_cell_formula_units_Z   4
loop_
 _symmetry_equiv_pos_site_id
 _symmetry_equiv_pos_as_xyz
  1  'x, y, z'
loop_
 _atom_site_type_symbol
 _atom_site_label
 _atom_site_symmetry_multiplicity
 _atom_site_fract_x
 _atom_site_fract_y
 _atom_site_fract_z
 _atom_site_occupancy
  Li  Li0  1  0.47785800  0.16635100  0.75002000  1
  Li  Li1  1  0.97785600  0.33365700  0.24998700  1
  Li  Li2  1  0.02214200  0.66634800  0.75002100  1
  Li  Li3  1  0.52214100  0.83365200  0.24998600  1
  V  V0  1  0.00006100  0.00002900  0.49991900  1
  V  V1  1  0.49991500  0.50000600  0.49992000  1
  V  V2  1  0.99991500  0.00001000  0.00005500  1
  V  V3  1  0.50012800  0.49990200  0.00004100  1
  Si  Si0  1  0.47676900  0.17816000  0.24991700  1
  Si  Si1  1  0.97676600  0.32184900  0.75008400  1
  Si  Si2  1  0.02323300  0.67815400  0.24991600  1
  Si  Si3  1  0.52323000  0.82184200  0.75008800  1
  O  O0  1  0.80231300  0.12467700  0.24997700  1
  O  O1  1  0.30231400  0.37532700  0.75002800  1
  O  O2  1  0.69768300  0.62467600  0.24997700  1
  O  O3  1  0.19768600  0.87533100  0.75002800  1
  O  O4  1  0.90912300  0.14164800  0.74997500  1
  O  O5  1  0.40912900  0.35835000  0.25002800  1
  O  O6  1  0.59086700  0.64165100  0.74997600  1
  O  O7  1  0.09087600  0.85835700  0.25002800  1
  O  O8  1  0.32921300  0.11860200  0.03507800  1
  O  O9  1  0.32919000  0.11857000  0.46492000  1
  O  O10  1  0.82922800  0.38140100  0.96492300  1
  O  O11  1  0.82919900  0.38143700  0.53509400  1
  O  O12  1  0.17077700  0.61859900  0.03508700  1
  O  O13  1  0.17079600  0.61857000  0.46491100  1
  O  O14  1  0.67081000  0.88143600  0.53508700  1
  O  O15  1  0.67078300  0.88140400  0.96493000  1
loop_
_geom_bond_atom_site_label_1
_geom_bond_atom_site_label_2
_geom_bond_distance
_geom_bond_site_symmetry_2
Li0 O8 1.989905 1_556
Li0 O9 1.990264 1_555
Li0 O1 2.098800 1_555
Li0 O4 2.128273 1_555
Li1 O10 1.989900 1_554
Li1 O11 1.990280 1_555
Li1 O0 2.098832 1_555
Li1 O5 2.128302 1_655
Li2 O12 1.989934 1_556
Li2 O13 1.990288 1_555
Li2 O3 2.098859 1_555
Li2 O6 2.128316 1_455
Li3 O15 1.989895 1_554
Li3 O14 1.990277 1_555
Li3 O2 2.098796 1_555
Li3 O7 2.128275 1_555
O0 Si0 1.670851 1_555
O0 V2 2.175232 1_555
O0 V0 2.175530 1_655
O1 Si1 1.670857 1_455
O1 V3 2.175673 1_556
O1 V1 2.176116 1_555
O2 Si2 1.670866 1_655
O2 V1 2.175682 1_555
O2 V3 2.175710 1_555
O3 Si3 1.670867 1_555
O3 V2 2.176140 1_466
O3 V0 2.176265 1_565
O4 Si1 1.683403 1_555
O4 V0 2.090903 1_655
O4 V2 2.090945 1_556
O5 Si0 1.683301 1_555
O5 V1 2.090174 1_555
O5 V3 2.090230 1_555
O6 Si3 1.683307 1_555
O6 V1 2.091067 1_555
O6 V3 2.091449 1_556
O7 Si2 1.683420 1_555
O7 V0 2.090290 1_565
O7 V2 2.090698 1_465
O8 Si0 1.631005 1_555
O8 V2 1.959469 1_455
O9 Si0 1.631999 1_555
O9 V0 1.958506 1_555
O10 Si1 1.630946 1_555
O10 V3 1.958273 1_556
O11 Si1 1.631900 1_555
O11 V1 1.959400 1_555
O12 Si2 1.630916 1_555
O12 V3 1.960232 1_555
O13 Si2 1.631905 1_555
O13 V1 1.958589 1_555
O14 Si3 1.632003 1_555
O14 V0 1.959384 1_665
O15 Si3 1.631027 1_555
O15 V2 1.958942 1_566
