# generated using pymatgen
data_MnCr2Ni3(PO4)6
_symmetry_space_group_name_H-M   'P 1'
_cell_length_a   8.35814548
_cell_length_b   8.35814548
_cell_length_c   8.35814558
_cell_angle_alpha   61.86949419
_cell_angle_beta   61.86949419
_cell_angle_gamma   61.86949302
_symmetry_Int_Tables_number   1
_chemical_formula_structural   MnCr2Ni3(PO4)6
_chemical_formula_sum   'Mn1 Cr2 Ni3 P6 O24'
_cell_volume   430.15230028
_cell_formula_units_Z   1
loop_
 _symmetry_equiv_pos_site_id
 _symmetry_equiv_pos_as_xyz
  1  'x, y, z'
loop_
 _atom_site_type_symbol
 _atom_site_label
 _atom_site_symmetry_multiplicity
 _atom_site_fract_x
 _atom_site_fract_y
 _atom_site_fract_z
 _atom_site_occupancy
  Mn  Mn0  1  0.14250700  0.14250700  0.14250700  1
  Cr  Cr0  1  0.99834000  0.99834000  0.99834000  1
  Cr  Cr1  1  0.49962400  0.49962400  0.49962400  1
  Ni  Ni0  1  0.85686300  0.85686300  0.85686300  1
  Ni  Ni1  1  0.64185200  0.64185200  0.64185200  1
  Ni  Ni2  1  0.35809000  0.35809000  0.35809000  1
  P  P0  1  0.74963800  0.45350900  0.04926000  1
  P  P1  1  0.45350900  0.04926000  0.74963800  1
  P  P2  1  0.04926000  0.74963800  0.45350900  1
  P  P3  1  0.95391500  0.25123500  0.54379500  1
  P  P4  1  0.54379500  0.95391500  0.25123500  1
  P  P5  1  0.25123500  0.54379500  0.95391500  1
  O  O0  1  0.89589000  0.68107800  0.48450700  1
  O  O1  1  0.68107800  0.48450700  0.89589000  1
  O  O2  1  0.94643900  0.09251200  0.74498300  1
  O  O3  1  0.48450700  0.89589000  0.68107800  1
  O  O4  1  0.99781200  0.17879000  0.38346300  1
  O  O5  1  0.74807000  0.39808000  0.56094700  1
  O  O6  1  0.74498300  0.94643900  0.09251200  1
  O  O7  1  0.56094700  0.74807000  0.39808000  1
  O  O8  1  0.82192500  0.60700600  0.01255200  1
  O  O9  1  0.39808000  0.56094700  0.74807000  1
  O  O10  1  0.91187900  0.24656800  0.06172600  1
  O  O11  1  0.60700600  0.01255200  0.82192500  1
  O  O12  1  0.38346300  0.99781200  0.17879000  1
  O  O13  1  0.09251200  0.74498300  0.94643900  1
  O  O14  1  0.60197100  0.43166700  0.25491900  1
  O  O15  1  0.17879000  0.38346300  0.99781200  1
  O  O16  1  0.43166700  0.25491900  0.60197100  1
  O  O17  1  0.24656800  0.06172600  0.91187900  1
  O  O18  1  0.25491900  0.60197100  0.43166700  1
  O  O19  1  0.01255200  0.82192500  0.60700600  1
  O  O20  1  0.50603800  0.10308300  0.32946600  1
  O  O21  1  0.06172600  0.91187900  0.24656800  1
  O  O22  1  0.32946600  0.50603800  0.10308300  1
  O  O23  1  0.10308300  0.32946600  0.50603800  1
loop_
_geom_bond_atom_site_label_1
_geom_bond_atom_site_label_2
_geom_bond_distance
_geom_bond_site_symmetry_2
Mn0 O12 1.882528 1_545
Mn0 O15 1.882528 1_554
Mn0 O4 1.882528 1_455
Mn0 O10 2.005155 1_455
Mn0 O21 2.005155 1_545
Mn0 O17 2.005155 1_554
Cr0 O13 2.065057 1_655
Cr0 O6 2.065057 1_556
Cr0 O2 2.065057 1_565
Cr0 O10 2.090229 1_566
Cr0 O17 2.090229 1_665
Cr0 O21 2.090229 1_656
Cr1 O18 2.055487 1_555
Cr1 O16 2.055487 1_555
Cr1 O14 2.055487 1_555
Cr1 O5 2.055875 1_555
Cr1 O7 2.055875 1_555
Cr1 O9 2.055875 1_555
Ni0 O11 1.947814 1_565
Ni0 O8 1.947814 1_556
Ni0 O19 1.947814 1_655
Ni0 O13 2.075534 1_655
Ni0 O2 2.075534 1_565
Ni0 O6 2.075534 1_556
Ni1 O3 1.990507 1_555
Ni1 O0 1.990507 1_555
Ni1 O1 1.990507 1_555
Ni1 O5 2.103375 1_555
Ni1 O9 2.103375 1_555
Ni1 O7 2.103375 1_555
Ni2 O20 1.961055 1_555
Ni2 O23 1.961055 1_555
Ni2 O22 1.961055 1_555
Ni2 O18 2.073965 1_555
Ni2 O14 2.073965 1_555
Ni2 O16 2.073965 1_555
O0 P2 1.509380 1_655
O1 P0 1.509380 1_556
O2 P3 1.570672 1_555
O3 P1 1.509380 1_565
O4 P3 1.545668 1_555
O5 P3 1.558572 1_555
O6 P4 1.570672 1_555
O7 P4 1.558572 1_555
O8 P0 1.513305 1_555
O9 P5 1.558572 1_555
O10 P0 1.610269 1_555
O11 P1 1.513305 1_555
O12 P4 1.545668 1_555
O13 P5 1.570672 1_555
O14 P0 1.558003 1_555
O15 P5 1.545668 1_555
O16 P1 1.558003 1_555
O17 P1 1.610269 1_555
O18 P2 1.558003 1_555
O19 P2 1.513305 1_555
O20 P4 1.511520 1_545
O21 P2 1.610269 1_555
O22 P5 1.511520 1_554
O23 P3 1.511520 1_455
