# generated using pymatgen
data_TeP4H26(NO5)4
_symmetry_space_group_name_H-M   'P 1'
_cell_length_a   22.32792800
_cell_length_b   6.88645500
_cell_length_c   7.94975780
_cell_angle_alpha   63.76884252
_cell_angle_beta   90.00000000
_cell_angle_gamma   90.00000000
_symmetry_Int_Tables_number   1
_chemical_formula_structural   TeP4H26(NO5)4
_chemical_formula_sum   'Te2 P8 H52 N8 O40'
_cell_volume   1096.47633500
_cell_formula_units_Z   2
loop_
 _symmetry_equiv_pos_site_id
 _symmetry_equiv_pos_as_xyz
  1  'x, y, z'
loop_
 _atom_site_type_symbol
 _atom_site_label
 _atom_site_symmetry_multiplicity
 _atom_site_fract_x
 _atom_site_fract_y
 _atom_site_fract_z
 _atom_site_occupancy
  Te  Te0  1  0.00000000  0.00000000  0.00000000  1
  Te  Te1  1  0.50000000  0.00000000  0.50000000  1
  P  P0  1  0.21345000  0.51094400  0.48285900  1
  P  P1  1  0.28655000  0.51094400  0.98285900  1
  P  P2  1  0.78655000  0.48905600  0.51714100  1
  P  P3  1  0.71345000  0.48905600  0.01714100  1
  P  P4  1  0.12138700  0.28399100  0.36325400  1
  P  P5  1  0.37861300  0.28399100  0.86325400  1
  P  P6  1  0.87861300  0.71600900  0.63674600  1
  P  P7  1  0.62138700  0.71600900  0.13674600  1
  H  H0  1  0.20823700  0.14391900  0.96347700  1
  H  H1  1  0.29176300  0.14391900  0.46347700  1
  H  H2  1  0.79176300  0.85608100  0.03652300  1
  H  H3  1  0.70823700  0.85608100  0.53652300  1
  H  H4  1  0.86727400  0.90646400  0.01771200  1
  H  H5  1  0.63272600  0.90646400  0.51771200  1
  H  H6  1  0.13272600  0.09353600  0.98228800  1
  H  H7  1  0.36727400  0.09353600  0.48228800  1
  H  H8  1  0.17329000  0.04562900  0.82617400  1
  H  H9  1  0.32671000  0.04562900  0.32617400  1
  H  H10  1  0.82671000  0.95437100  0.17382600  1
  H  H11  1  0.67329000  0.95437100  0.67382600  1
  H  H12  1  0.68334200  0.11243000  0.44405000  1
  H  H13  1  0.81665800  0.11243000  0.94405000  1
  H  H14  1  0.31665800  0.88757000  0.55595000  1
  H  H15  1  0.18334200  0.88757000  0.05595000  1
  H  H16  1  0.94842000  0.24971100  0.51947100  1
  H  H17  1  0.55158000  0.24971100  0.01947100  1
  H  H18  1  0.05158000  0.75028900  0.48052900  1
  H  H19  1  0.44842000  0.75028900  0.98052900  1
  H  H20  1  0.42149800  0.87437700  0.10654000  1
  H  H21  1  0.07850200  0.87437700  0.60654000  1
  H  H22  1  0.57850200  0.12562300  0.89346000  1
  H  H23  1  0.92149800  0.12562300  0.39346000  1
  H  H24  1  0.95570700  0.37079000  0.28388500  1
  H  H25  1  0.54429300  0.37079000  0.78388500  1
  H  H26  1  0.04429300  0.62921000  0.71611500  1
  H  H27  1  0.45570700  0.62921000  0.21611500  1
  H  H28  1  0.88599700  0.34849600  0.38115500  1
  H  H29  1  0.61400300  0.34849600  0.88115500  1
  H  H30  1  0.11400300  0.65150400  0.61884500  1
  H  H31  1  0.38599700  0.65150400  0.11884500  1
  H  H32  1  0.03586600  0.15264700  0.66939100  1
  H  H33  1  0.46413400  0.15264700  0.16939100  1
  H  H34  1  0.96413400  0.84735300  0.33060900  1
  H  H35  1  0.53586600  0.84735300  0.83060900  1
  H  H36  1  0.93629600  0.74425300  0.91721500  1
  H  H37  1  0.56370400  0.74425300  0.41721500  1
  H  H38  1  0.06370400  0.25574700  0.08278500  1
  H  H39  1  0.43629600  0.25574700  0.58278500  1
  H  H40  1  0.06004800  0.65929900  0.07647200  1
  H  H41  1  0.43995200  0.65929900  0.57647200  1
  H  H42  1  0.93995200  0.34070100  0.92352800  1
  H  H43  1  0.56004800  0.34070100  0.42352800  1
  H  H44  1  0.77576100  0.34534500  0.25470400  1
  H  H45  1  0.72423900  0.34534500  0.75470400  1
  H  H46  1  0.22423900  0.65465500  0.74529600  1
  H  H47  1  0.27576100  0.65465500  0.24529600  1
  H  H48  1  0.79890600  0.77414300  0.78369300  1
  H  H49  1  0.70109400  0.77414300  0.28369300  1
  H  H50  1  0.20109400  0.22585700  0.21630700  1
  H  H51  1  0.29890600  0.22585700  0.71630700  1
  N  N0  1  0.32505700  0.04210100  0.45635300  1
  N  N1  1  0.17494300  0.04210100  0.95635300  1
  N  N2  1  0.67494300  0.95789900  0.54364700  1
  N  N3  1  0.82505700  0.95789900  0.04364700  1
  N  N4  1  0.92836400  0.27651200  0.39284900  1
  N  N5  1  0.57163600  0.27651200  0.89284900  1
  N  N6  1  0.07163600  0.72348800  0.60715100  1
  N  N7  1  0.42836400  0.72348800  0.10715100  1
  O  O0  1  0.99520100  0.15123300  0.72618100  1
  O  O1  1  0.50479900  0.15123300  0.22618100  1
  O  O2  1  0.00479900  0.84876700  0.27381900  1
  O  O3  1  0.49520100  0.84876700  0.77381900  1
  O  O4  1  0.43451400  0.19673200  0.48593600  1
  O  O5  1  0.06548600  0.19673200  0.98593600  1
  O  O6  1  0.56548600  0.80326800  0.51406400  1
  O  O7  1  0.93451400  0.80326800  0.01406400  1
  O  O8  1  0.05984800  0.81040200  0.97258700  1
  O  O9  1  0.44015200  0.81040200  0.47258700  1
  O  O10  1  0.94015200  0.18959800  0.02741300  1
  O  O11  1  0.55984800  0.18959800  0.52741300  1
  O  O12  1  0.31237000  0.58350500  0.12172800  1
  O  O13  1  0.18763000  0.58350500  0.62172800  1
  O  O14  1  0.68763000  0.41649500  0.87827200  1
  O  O15  1  0.81237000  0.41649500  0.37827200  1
  O  O16  1  0.24835700  0.30080700  0.56376300  1
  O  O17  1  0.25164300  0.30080700  0.06376300  1
  O  O18  1  0.75164300  0.69919300  0.43623700  1
  O  O19  1  0.74835700  0.69919300  0.93623700  1
  O  O20  1  0.25051300  0.70338400  0.32923700  1
  O  O21  1  0.24948700  0.70338400  0.82923700  1
  O  O22  1  0.74948700  0.29661600  0.67076300  1
  O  O23  1  0.75051300  0.29661600  0.17076300  1
  O  O24  1  0.57479500  0.61673700  0.29078700  1
  O  O25  1  0.92520500  0.61673700  0.79078700  1
  O  O26  1  0.42520500  0.38326300  0.70921300  1
  O  O27  1  0.07479500  0.38326300  0.20921300  1
  O  O28  1  0.09815700  0.14402000  0.55905600  1
  O  O29  1  0.40184300  0.14402000  0.05905600  1
  O  O30  1  0.90184300  0.85598000  0.44094400  1
  O  O31  1  0.59815700  0.85598000  0.94094400  1
  O  O32  1  0.16984300  0.14705100  0.31785200  1
  O  O33  1  0.33015700  0.14705100  0.81785200  1
  O  O34  1  0.83015700  0.85294900  0.68214800  1
  O  O35  1  0.66984300  0.85294900  0.18214800  1
  O  O36  1  0.15727000  0.49228900  0.35960400  1
  O  O37  1  0.34273000  0.49228900  0.85960400  1
  O  O38  1  0.84273000  0.50771100  0.64039600  1
  O  O39  1  0.65727000  0.50771100  0.14039600  1
loop_
_geom_bond_atom_site_label_1
_geom_bond_atom_site_label_2
_geom_bond_distance
_geom_bond_site_symmetry_2
H0 N1 1.040464 1_555
H1 N0 1.040464 1_555
H2 N3 1.040464 1_555
H3 N2 1.040464 1_555
H4 N3 1.058799 1_555
H5 N2 1.058799 1_555
H6 N1 1.058799 1_555
H7 N0 1.058799 1_555
H8 N1 1.025050 1_555
H9 N0 1.025050 1_555
H10 N3 1.025050 1_555
H11 N2 1.025050 1_555
H12 N2 1.024549 1_545
H13 N3 1.024549 1_546
H14 N0 1.024549 1_565
H15 N1 1.024549 1_564
H16 N4 1.040979 1_555
H17 N5 1.040979 1_554
H18 N6 1.040979 1_555
H19 N7 1.040979 1_556
H20 N7 1.048224 1_555
H21 N6 1.048224 1_555
H22 N5 1.048224 1_555
H23 N4 1.048224 1_555
H24 N4 1.023453 1_555
H25 N5 1.023453 1_555
H26 N6 1.023453 1_555
H27 N7 1.023453 1_555
H28 N4 1.052849 1_555
H28 O15 1.706707 1_555
H29 N5 1.052849 1_555
H29 O14 1.706707 1_555
H30 N6 1.052849 1_555
H30 O13 1.706707 1_555
H31 N7 1.052849 1_555
H31 O12 1.706707 1_555
H32 O0 1.012142 1_455
H32 O28 1.659328 1_555
H33 O1 1.012142 1_555
H33 O29 1.659328 1_555
H34 O2 1.012142 1_655
H34 O30 1.659328 1_555
H35 O3 1.012142 1_555
H35 O31 1.659328 1_555
H36 O7 1.017907 1_556
H36 O25 1.619509 1_555
H37 O6 1.017907 1_555
H37 O24 1.619509 1_555
H38 O5 1.017907 1_554
H38 O27 1.619509 1_555
H39 O4 1.017907 1_555
H39 O26 1.619509 1_555
H40 O8 1.002584 1_554
H41 O9 1.002584 1_555
H42 O10 1.002584 1_556
H43 O11 1.002584 1_555
H44 O23 1.036175 1_555
H44 O15 1.516140 1_555
H45 O22 1.036175 1_555
H45 O14 1.516140 1_555
H46 O21 1.036175 1_555
H46 O13 1.516140 1_555
H47 O20 1.036175 1_555
H47 O12 1.516140 1_555
H48 O34 1.022642 1_555
H48 O19 1.567664 1_555
H49 O35 1.022642 1_555
H49 O18 1.567664 1_555
H50 O32 1.022642 1_555
H50 O17 1.567664 1_555
H51 O33 1.022642 1_555
H51 O16 1.567664 1_555
O0 Te0 1.957171 1_656
O1 Te1 1.957171 1_555
O2 Te0 1.957171 1_565
O3 Te1 1.957171 1_565
O4 Te1 1.962646 1_555
O5 Te0 1.962646 1_556
O6 Te1 1.962646 1_565
O7 Te0 1.962646 1_665
O8 Te0 1.946641 1_566
O9 Te1 1.946641 1_565
O10 Te0 1.946641 1_655
O11 Te1 1.946641 1_555
O12 P1 1.512764 1_554
O13 P0 1.512764 1_555
O14 P3 1.512764 1_556
O15 P2 1.512764 1_555
O16 P0 1.514092 1_555
O17 P1 1.514092 1_554
O18 P2 1.514092 1_555
O19 P3 1.514092 1_556
O20 P0 1.581720 1_555
O21 P1 1.581720 1_555
O22 P2 1.581720 1_555
O23 P3 1.581720 1_555
O24 P7 1.519590 1_555
O25 P6 1.519590 1_555
O26 P5 1.519590 1_555
O27 P4 1.519590 1_555
O28 P4 1.514842 1_555
O29 P5 1.514842 1_554
O30 P6 1.514842 1_555
O31 P7 1.514842 1_556
O32 P4 1.578297 1_555
O33 P5 1.578297 1_555
O34 P6 1.578297 1_555
O35 P7 1.578297 1_555
O36 P0 1.631366 1_555
O36 P4 1.632042 1_555
O37 P1 1.631366 1_555
O37 P5 1.632042 1_555
O38 P2 1.631366 1_555
O38 P6 1.632042 1_555
O39 P3 1.631366 1_555
O39 P7 1.632042 1_555
