# generated using pymatgen
data_VH11N3Cl5
_symmetry_space_group_name_H-M   'P 1'
_cell_length_a   6.96778700
_cell_length_b   10.70147500
_cell_length_c   13.78923100
_cell_angle_alpha   90.00000000
_cell_angle_beta   90.00000000
_cell_angle_gamma   90.00000000
_symmetry_Int_Tables_number   1
_chemical_formula_structural   VH11N3Cl5
_chemical_formula_sum   'V4 H44 N12 Cl20'
_cell_volume   1028.20226080
_cell_formula_units_Z   4
loop_
 _symmetry_equiv_pos_site_id
 _symmetry_equiv_pos_as_xyz
  1  'x, y, z'
loop_
 _atom_site_type_symbol
 _atom_site_label
 _atom_site_symmetry_multiplicity
 _atom_site_fract_x
 _atom_site_fract_y
 _atom_site_fract_z
 _atom_site_occupancy
  V  V0  1  0.31221100  0.25000000  0.61177800  1
  V  V1  1  0.18778900  0.25000000  0.11177800  1
  V  V2  1  0.68778900  0.75000000  0.38822200  1
  V  V3  1  0.81221100  0.75000000  0.88822200  1
  H  H0  1  0.44312300  0.25000000  0.42684700  1
  H  H1  1  0.05687700  0.25000000  0.92684700  1
  H  H2  1  0.55687700  0.75000000  0.57315300  1
  H  H3  1  0.94312300  0.75000000  0.07315300  1
  H  H4  1  0.59479000  0.32728700  0.49542000  1
  H  H5  1  0.90521000  0.17271300  0.99542000  1
  H  H6  1  0.40521000  0.82728700  0.50458000  1
  H  H7  1  0.09479000  0.67271300  0.00458000  1
  H  H8  1  0.40521000  0.67271300  0.50458000  1
  H  H9  1  0.09479000  0.82728700  0.00458000  1
  H  H10  1  0.59479000  0.17271300  0.49542000  1
  H  H11  1  0.90521000  0.32728700  0.99542000  1
  H  H12  1  0.75568500  0.52583700  0.59443200  1
  H  H13  1  0.74431500  0.97416300  0.09443200  1
  H  H14  1  0.24431500  0.02583700  0.40556800  1
  H  H15  1  0.25568500  0.47416300  0.90556800  1
  H  H16  1  0.24431500  0.47416300  0.40556800  1
  H  H17  1  0.25568500  0.02583700  0.90556800  1
  H  H18  1  0.75568500  0.97416300  0.59443200  1
  H  H19  1  0.74431500  0.52583700  0.09443200  1
  H  H20  1  0.98762500  0.51858100  0.62913800  1
  H  H21  1  0.51237500  0.98141900  0.12913800  1
  H  H22  1  0.01237500  0.01858100  0.37086200  1
  H  H23  1  0.48762500  0.48141900  0.87086200  1
  H  H24  1  0.01237500  0.48141900  0.37086200  1
  H  H25  1  0.48762500  0.01858100  0.87086200  1
  H  H26  1  0.98762500  0.98141900  0.62913800  1
  H  H27  1  0.51237500  0.51858100  0.12913800  1
  H  H28  1  0.82905800  0.41020900  0.66903500  1
  H  H29  1  0.67094200  0.08979100  0.16903500  1
  H  H30  1  0.17094200  0.91020900  0.33096500  1
  H  H31  1  0.32905800  0.58979100  0.83096500  1
  H  H32  1  0.17094200  0.58979100  0.33096500  1
  H  H33  1  0.32905800  0.91020900  0.83096500  1
  H  H34  1  0.82905800  0.08979100  0.66903500  1
  H  H35  1  0.67094200  0.41020900  0.16903500  1
  H  H36  1  0.81435500  0.55790900  0.71000200  1
  H  H37  1  0.68564500  0.94209100  0.21000200  1
  H  H38  1  0.18564500  0.05790900  0.28999800  1
  H  H39  1  0.31435500  0.44209100  0.78999800  1
  H  H40  1  0.18564500  0.44209100  0.28999800  1
  H  H41  1  0.31435500  0.05790900  0.78999800  1
  H  H42  1  0.81435500  0.94209100  0.71000200  1
  H  H43  1  0.68564500  0.55790900  0.21000200  1
  N  N0  1  0.50810700  0.25000000  0.49357200  1
  N  N1  1  0.99189300  0.25000000  0.99357200  1
  N  N2  1  0.49189300  0.75000000  0.50642800  1
  N  N3  1  0.00810700  0.75000000  0.00642800  1
  N  N4  1  0.84640400  0.50329900  0.65031200  1
  N  N5  1  0.65359600  0.99670100  0.15031200  1
  N  N6  1  0.15359600  0.00329900  0.34968800  1
  N  N7  1  0.34640400  0.49670100  0.84968800  1
  N  N8  1  0.15359600  0.49670100  0.34968800  1
  N  N9  1  0.34640400  0.00329900  0.84968800  1
  N  N10  1  0.84640400  0.99670100  0.65031200  1
  N  N11  1  0.65359600  0.50329900  0.15031200  1
  Cl  Cl0  1  0.31930300  0.47625400  0.60528100  1
  Cl  Cl1  1  0.18069700  0.02374600  0.10528100  1
  Cl  Cl2  1  0.68069700  0.97625400  0.39471900  1
  Cl  Cl3  1  0.81930300  0.52374600  0.89471900  1
  Cl  Cl4  1  0.68069700  0.52374600  0.39471900  1
  Cl  Cl5  1  0.81930300  0.97625400  0.89471900  1
  Cl  Cl6  1  0.31930300  0.02374600  0.60528100  1
  Cl  Cl7  1  0.18069700  0.47625400  0.10528100  1
  Cl  Cl8  1  0.05100500  0.25000000  0.50193800  1
  Cl  Cl9  1  0.44899500  0.25000000  0.00193800  1
  Cl  Cl10  1  0.94899500  0.75000000  0.49806200  1
  Cl  Cl11  1  0.55100500  0.75000000  0.99806200  1
  Cl  Cl12  1  0.10519400  0.25000000  0.75077500  1
  Cl  Cl13  1  0.39480600  0.25000000  0.25077500  1
  Cl  Cl14  1  0.89480600  0.75000000  0.24922500  1
  Cl  Cl15  1  0.60519400  0.75000000  0.74922500  1
  Cl  Cl16  1  0.58856700  0.25000000  0.71406600  1
  Cl  Cl17  1  0.91143300  0.25000000  0.21406600  1
  Cl  Cl18  1  0.41143300  0.75000000  0.28593400  1
  Cl  Cl19  1  0.08856700  0.75000000  0.78593400  1
loop_
_geom_bond_atom_site_label_1
_geom_bond_atom_site_label_2
_geom_bond_distance
_geom_bond_site_symmetry_2
H0 N0 1.025467 1_555
H1 N1 1.025467 1_455
H2 N2 1.025467 1_555
H3 N3 1.025467 1_655
H4 N0 1.024461 1_555
H5 N1 1.024461 1_555
H6 N2 1.024461 1_555
H7 N3 1.024461 1_555
H8 N2 1.024461 1_555
H9 N3 1.024461 1_555
H10 N0 1.024461 1_555
H11 N1 1.024461 1_555
H12 N4 1.025413 1_555
H13 N5 1.025413 1_555
H14 N6 1.025413 1_555
H15 N7 1.025413 1_555
H16 N8 1.025413 1_555
H17 N9 1.025413 1_555
H18 N10 1.025413 1_555
H19 N11 1.025413 1_555
H20 N4 1.039349 1_555
H21 N5 1.039349 1_555
H22 N6 1.039349 1_555
H23 N7 1.039349 1_555
H24 N8 1.039349 1_555
H25 N9 1.039349 1_555
H26 N10 1.039349 1_555
H27 N11 1.039349 1_555
H28 N4 1.036184 1_555
H29 N5 1.036184 1_545
H30 N6 1.036184 1_565
H31 N7 1.036184 1_555
H32 N8 1.036184 1_555
H33 N9 1.036184 1_565
H34 N10 1.036184 1_545
H35 N11 1.036184 1_555
H36 N4 1.033856 1_555
H37 N5 1.033856 1_555
H38 N6 1.033856 1_555
H39 N7 1.033856 1_555
H40 N8 1.033856 1_555
H41 N9 1.033856 1_555
H42 N10 1.033856 1_555
H43 N11 1.033856 1_555
N0 V0 2.126011 1_555
N1 V1 2.126011 1_656
N2 V2 2.126011 1_555
N3 V3 2.126011 1_454
Cl0 V0 2.423412 1_555
Cl1 V1 2.423412 1_555
Cl2 V2 2.423412 1_555
Cl3 V3 2.423412 1_555
Cl4 V2 2.423412 1_555
Cl5 V3 2.423412 1_555
Cl6 V0 2.423412 1_555
Cl7 V1 2.423412 1_555
Cl8 V0 2.367814 1_555
Cl9 V1 2.367814 1_555
Cl10 V2 2.367814 1_555
Cl11 V3 2.367814 1_555
Cl12 V0 2.398803 1_555
Cl13 V1 2.398803 1_555
Cl14 V2 2.398803 1_555
Cl15 V3 2.398803 1_555
Cl16 V0 2.386908 1_555
Cl17 V1 2.386908 1_655
Cl18 V2 2.386908 1_555
Cl19 V3 2.386908 1_455
