# generated using pymatgen
data_K2FeOF5
_symmetry_space_group_name_H-M   'P 1'
_cell_length_a   6.23542385
_cell_length_b   6.23542385
_cell_length_c   8.14509064
_cell_angle_alpha   84.25914193
_cell_angle_beta   84.25914193
_cell_angle_gamma   79.57755783
_symmetry_Int_Tables_number   1
_chemical_formula_structural   K2FeOF5
_chemical_formula_sum   'K4 Fe2 O2 F10'
_cell_volume   308.80989969
_cell_formula_units_Z   2
loop_
 _symmetry_equiv_pos_site_id
 _symmetry_equiv_pos_as_xyz
  1  'x, y, z'
loop_
 _atom_site_type_symbol
 _atom_site_label
 _atom_site_symmetry_multiplicity
 _atom_site_fract_x
 _atom_site_fract_y
 _atom_site_fract_z
 _atom_site_occupancy
  K  K0  1  0.30103700  0.29261200  0.03537800  1
  K  K1  1  0.70738800  0.69896300  0.46462200  1
  K  K2  1  0.69896300  0.70738800  0.96462200  1
  K  K3  1  0.29261200  0.30103700  0.53537800  1
  Fe  Fe0  1  0.81292400  0.18707600  0.25000000  1
  Fe  Fe1  1  0.18707600  0.81292400  0.75000000  1
  O  O0  1  0.01925800  0.98074200  0.25000000  1
  O  O1  1  0.98074200  0.01925800  0.75000000  1
  F  F0  1  0.86759900  0.27856000  0.03078700  1
  F  F1  1  0.72144000  0.13240100  0.46921300  1
  F  F2  1  0.13240100  0.72144000  0.96921300  1
  F  F3  1  0.27856000  0.86759900  0.53078700  1
  F  F4  1  0.98227300  0.38019300  0.30600200  1
  F  F5  1  0.61980700  0.01772700  0.19399800  1
  F  F6  1  0.01772700  0.61980700  0.69399800  1
  F  F7  1  0.38019300  0.98227300  0.80600200  1
  F  F8  1  0.56553800  0.43446200  0.25000000  1
  F  F9  1  0.43446200  0.56553800  0.75000000  1
loop_
_geom_bond_atom_site_label_1
_geom_bond_atom_site_label_2
_geom_bond_distance
_geom_bond_site_symmetry_2
K0 O0 3.141063 1_545
K1 O0 3.141063 1_655
K2 O1 3.141063 1_565
K3 O1 3.141063 1_455
Fe0 O0 1.646717 1_645
Fe1 O1 1.646717 1_465
F0 Fe0 1.836980 1_555
F0 K2 2.711786 1_554
F0 K0 2.723977 1_655
F1 Fe0 1.836980 1_555
F1 K3 2.711786 1_555
F1 K1 2.723977 1_545
F2 Fe1 1.836980 1_555
F2 K0 2.711786 1_556
F2 K2 2.723977 1_455
F3 Fe1 1.836980 1_555
F3 K1 2.711786 1_555
F3 K3 2.723977 1_565
F4 Fe0 1.854575 1_555
F4 K1 2.719554 1_555
F4 K3 2.769826 1_655
F4 K0 2.842400 1_655
F5 Fe0 1.854575 1_555
F5 K0 2.719554 1_555
F5 K2 2.769826 1_544
F5 K1 2.842400 1_545
F6 Fe1 1.854575 1_555
F6 K3 2.719554 1_555
F6 K1 2.769826 1_455
F6 K2 2.842400 1_455
F7 Fe1 1.854575 1_555
F7 K2 2.719554 1_555
F7 K0 2.769826 1_566
F7 K3 2.842400 1_565
F8 Fe0 1.974347 1_555
F8 K0 2.823521 1_555
F8 K1 2.823521 1_555
F8 K3 2.885358 1_555
F8 K2 2.885358 1_554
F9 Fe1 1.974347 1_555
F9 K2 2.823521 1_555
F9 K3 2.823521 1_555
F9 K0 2.885358 1_556
F9 K1 2.885358 1_555
