# generated using pymatgen
data_Li12Co3NiP4(CO7)4
_symmetry_space_group_name_H-M   'P 1'
_cell_length_a   6.43653500
_cell_length_b   8.39961500
_cell_length_c   9.98563851
_cell_angle_alpha   85.01264677
_cell_angle_beta   90.00000000
_cell_angle_gamma   90.00000000
_symmetry_Int_Tables_number   1
_chemical_formula_structural   Li12Co3NiP4(CO7)4
_chemical_formula_sum   'Li12 Co3 Ni1 P4 C4 O28'
_cell_volume   537.82372689
_cell_formula_units_Z   1
loop_
 _symmetry_equiv_pos_site_id
 _symmetry_equiv_pos_as_xyz
  1  'x, y, z'
loop_
 _atom_site_type_symbol
 _atom_site_label
 _atom_site_symmetry_multiplicity
 _atom_site_fract_x
 _atom_site_fract_y
 _atom_site_fract_z
 _atom_site_occupancy
  Li  Li0  1  0.00000000  0.90260200  0.61719200  1
  Li  Li1  1  0.00000000  0.90185000  0.11742800  1
  Li  Li2  1  0.22868800  0.72273300  0.87482800  1
  Li  Li3  1  0.77131200  0.72273300  0.87482800  1
  Li  Li4  1  0.22989600  0.72306900  0.37573200  1
  Li  Li5  1  0.77010400  0.72306900  0.37573200  1
  Li  Li6  1  0.72865400  0.27725700  0.62296800  1
  Li  Li7  1  0.27134600  0.27725700  0.62296800  1
  Li  Li8  1  0.72941100  0.27719700  0.12466700  1
  Li  Li9  1  0.27058900  0.27719700  0.12466700  1
  Li  Li10  1  0.50000000  0.09790300  0.88286900  1
  Li  Li11  1  0.50000000  0.09809900  0.38281000  1
  Co  Co0  1  0.50000000  0.66831100  0.60455200  1
  Co  Co1  1  0.50000000  0.66835900  0.10516300  1
  Co  Co2  1  0.00000000  0.33084200  0.89477400  1
  Ni  Ni0  1  0.00000000  0.33204700  0.39666800  1
  P  P0  1  0.00000000  0.58575200  0.63836800  1
  P  P1  1  0.00000000  0.58513100  0.14022100  1
  P  P2  1  0.50000000  0.41289800  0.86035500  1
  P  P3  1  0.50000000  0.41258100  0.36071100  1
  C  C0  1  0.50000000  0.96291600  0.64937800  1
  C  C1  1  0.50000000  0.96343900  0.14928800  1
  C  C2  1  0.00000000  0.03675900  0.85090600  1
  C  C3  1  0.00000000  0.03990200  0.35100700  1
  O  O0  1  0.50000000  0.92703800  0.52601300  1
  O  O1  1  0.00000000  0.88981800  0.81993700  1
  O  O2  1  0.50000000  0.92687400  0.02610000  1
  O  O3  1  0.50000000  0.84535800  0.74428900  1
  O  O4  1  0.00000000  0.89260200  0.32043100  1
  O  O5  1  0.50000000  0.84583600  0.24429900  1
  O  O6  1  0.18731100  0.69178800  0.58696600  1
  O  O7  1  0.81268900  0.69178800  0.58696600  1
  O  O8  1  0.18754300  0.69147300  0.08897600  1
  O  O9  1  0.81245700  0.69147300  0.08897600  1
  O  O10  1  0.50000000  0.58033400  0.91429100  1
  O  O11  1  0.00000000  0.56532300  0.79506400  1
  O  O12  1  0.50000000  0.58031300  0.41355300  1
  O  O13  1  0.00000000  0.56297900  0.29670500  1
  O  O14  1  0.50000000  0.43366400  0.70381600  1
  O  O15  1  0.00000000  0.41908000  0.58484400  1
  O  O16  1  0.50000000  0.43393200  0.20343800  1
  O  O17  1  0.00000000  0.41974500  0.08501600  1
  O  O18  1  0.31268600  0.30786100  0.91224200  1
  O  O19  1  0.68731400  0.30786100  0.91224200  1
  O  O20  1  0.68722800  0.30827200  0.41300400  1
  O  O21  1  0.31277200  0.30827200  0.41300400  1
  O  O22  1  0.00000000  0.15389800  0.75609700  1
  O  O23  1  0.50000000  0.10943000  0.68041500  1
  O  O24  1  0.00000000  0.15695900  0.25633300  1
  O  O25  1  0.00000000  0.07241400  0.97430200  1
  O  O26  1  0.50000000  0.10982800  0.18001700  1
  O  O27  1  0.00000000  0.07588500  0.47458400  1
loop_
_geom_bond_atom_site_label_1
_geom_bond_atom_site_label_2
_geom_bond_distance
_geom_bond_site_symmetry_2
Li0 O27 1.945763 1_565
Li0 O1 2.018040 1_555
Li0 O6 2.184756 1_555
Li0 O7 2.184756 1_455
Li1 O25 1.933690 1_564
Li1 O4 2.021843 1_555
Li1 O9 2.178935 1_455
Li1 O8 2.178935 1_555
Li2 O1 2.074371 1_555
Li2 O10 2.133911 1_555
Li2 O8 2.148075 1_556
Li2 O11 2.175394 1_555
Li2 O3 2.361400 1_555
Li3 O1 2.074371 1_655
Li3 O10 2.133911 1_555
Li3 O9 2.148075 1_556
Li3 O11 2.175394 1_655
Li3 O3 2.361400 1_555
Li4 O4 2.094191 1_555
Li4 O6 2.120608 1_555
Li4 O12 2.127022 1_555
Li4 O13 2.192043 1_555
Li4 O5 2.360732 1_555
Li5 O4 2.094191 1_655
Li5 O7 2.120608 1_555
Li5 O12 2.127022 1_555
Li5 O13 2.192043 1_655
Li5 O5 2.360732 1_555
Li6 O23 2.083671 1_555
Li6 O20 2.107091 1_555
Li6 O15 2.129679 1_655
Li6 O14 2.174432 1_555
Li6 O22 2.377341 1_655
Li7 O23 2.083671 1_555
Li7 O21 2.107091 1_555
Li7 O15 2.129679 1_555
Li7 O14 2.174432 1_555
Li7 O22 2.377341 1_555
Li8 O26 2.080177 1_555
Li8 O17 2.131044 1_655
Li8 O19 2.131725 1_554
Li8 O16 2.170794 1_555
Li8 O24 2.356079 1_655
Li9 O26 2.080177 1_555
Li9 O17 2.131044 1_555
Li9 O18 2.131725 1_554
Li9 O16 2.170794 1_555
Li9 O24 2.356079 1_555
Li10 O2 1.937042 1_546
Li10 O23 2.015524 1_555
Li10 O19 2.177093 1_555
Li10 O18 2.177093 1_555
Li11 O0 1.937035 1_545
Li11 O26 2.018840 1_555
Li11 O21 2.179967 1_555
Li11 O20 2.179967 1_555
Co0 O6 2.028398 1_555
Co0 O7 2.028398 1_555
Co0 O12 2.104530 1_555
Co0 O3 2.125884 1_555
Co0 O14 2.127780 1_555
Co0 O0 2.245341 1_555
Co1 O8 2.025599 1_555
Co1 O9 2.025599 1_555
Co1 O10 2.103440 1_554
Co1 O16 2.122354 1_555
Co1 O5 2.124323 1_555
Co1 O2 2.245066 1_555
Co2 O18 2.027917 1_555
Co2 O19 2.027917 1_455
Co2 O17 2.100739 1_556
Co2 O22 2.117649 1_555
Co2 O11 2.128266 1_555
Co2 O25 2.245629 1_555
Ni0 O21 2.028219 1_555
Ni0 O20 2.028219 1_455
Ni0 O15 2.074639 1_555
Ni0 O13 2.102933 1_555
Ni0 O24 2.117769 1_555
Ni0 O27 2.223493 1_555
C0 O0 1.293403 1_555
C0 O23 1.294950 1_565
C0 O3 1.307880 1_555
C1 O26 1.292943 1_565
C1 O2 1.293519 1_555
C1 O5 1.308799 1_555
C2 O25 1.293114 1_555
C2 O1 1.298216 1_545
C2 O22 1.304774 1_555
C3 O27 1.295741 1_555
C3 O4 1.299894 1_545
C3 O24 1.303408 1_555
O6 P0 1.559103 1_555
O7 P0 1.559103 1_655
O8 P1 1.561217 1_555
O9 P1 1.561217 1_655
O10 P2 1.549107 1_555
O11 P0 1.559191 1_555
O12 P3 1.546816 1_555
O13 P1 1.557487 1_555
O14 P2 1.557700 1_555
O15 P0 1.541332 1_555
O16 P3 1.565111 1_555
O17 P1 1.538458 1_555
O18 P2 1.555947 1_555
O19 P2 1.555947 1_555
O20 P3 1.553395 1_555
O21 P3 1.553395 1_555
