# generated using pymatgen
data_V2(SO4)3
_symmetry_space_group_name_H-M   'P 1'
_cell_length_a   8.68476200
_cell_length_b   8.50329400
_cell_length_c   14.60751118
_cell_angle_alpha   54.96074182
_cell_angle_beta   90.00000000
_cell_angle_gamma   90.00000000
_symmetry_Int_Tables_number   1
_chemical_formula_structural   V2(SO4)3
_chemical_formula_sum   'V8 S12 O48'
_cell_volume   883.23719351
_cell_formula_units_Z   4
loop_
 _symmetry_equiv_pos_site_id
 _symmetry_equiv_pos_as_xyz
  1  'x, y, z'
loop_
 _atom_site_type_symbol
 _atom_site_label
 _atom_site_symmetry_multiplicity
 _atom_site_fract_x
 _atom_site_fract_y
 _atom_site_fract_z
 _atom_site_occupancy
  V  V0  1  0.53259600  0.36831500  0.88276500  1
  V  V1  1  0.96218500  0.13540200  0.11629900  1
  V  V2  1  0.03259600  0.63168500  0.61723500  1
  V  V3  1  0.46218500  0.86459800  0.38370100  1
  V  V4  1  0.53781500  0.13540200  0.61629900  1
  V  V5  1  0.96740400  0.36831500  0.38276500  1
  V  V6  1  0.03781500  0.86459800  0.88370100  1
  V  V7  1  0.46740400  0.63168500  0.11723500  1
  S  S0  1  0.24790800  0.45853700  0.00745400  1
  S  S1  1  0.38210500  0.75019100  0.64886500  1
  S  S2  1  0.11128100  0.03577200  0.35518400  1
  S  S3  1  0.61128100  0.96422800  0.14481600  1
  S  S4  1  0.88210500  0.24980900  0.85113500  1
  S  S5  1  0.74790800  0.54146300  0.49254600  1
  S  S6  1  0.25209200  0.45853700  0.50745400  1
  S  S7  1  0.11789500  0.75019100  0.14886500  1
  S  S8  1  0.38871900  0.03577200  0.85518400  1
  S  S9  1  0.88871900  0.96422800  0.64481600  1
  S  S10  1  0.61789500  0.24980900  0.35113500  1
  S  S11  1  0.75209200  0.54146300  0.99254600  1
  O  O0  1  0.86680800  0.38766500  0.06220500  1
  O  O1  1  0.88105500  0.81582400  0.62085800  1
  O  O2  1  0.57775800  0.10855800  0.32615600  1
  O  O3  1  0.69047900  0.52524600  0.90292200  1
  O  O4  1  0.37029200  0.48058300  0.93121700  1
  O  O5  1  0.21540800  0.71148000  0.67161300  1
  O  O6  1  0.41830900  0.82797700  0.53204800  1
  O  O7  1  0.99609800  0.09076700  0.26831400  1
  O  O8  1  0.17295700  0.26934900  0.06130200  1
  O  O9  1  0.26551700  0.01799100  0.31759400  1
  O  O10  1  0.06713500  0.84660600  0.45670900  1
  O  O11  1  0.47408500  0.57133800  0.72256600  1
  O  O12  1  0.97408500  0.42866200  0.77743400  1
  O  O13  1  0.56713500  0.15339400  0.04329100  1
  O  O14  1  0.76551700  0.98200900  0.18240600  1
  O  O15  1  0.67295700  0.73065100  0.43869800  1
  O  O16  1  0.91830900  0.17202300  0.96795200  1
  O  O17  1  0.49609800  0.90923300  0.23168600  1
  O  O18  1  0.71540800  0.28852000  0.82838700  1
  O  O19  1  0.87029200  0.51941700  0.56878300  1
  O  O20  1  0.19047900  0.47475400  0.59707800  1
  O  O21  1  0.38105500  0.18417600  0.87914200  1
  O  O22  1  0.07775800  0.89144200  0.17384400  1
  O  O23  1  0.36680800  0.61233500  0.43779500  1
  O  O24  1  0.63319200  0.38766500  0.56220500  1
  O  O25  1  0.92224200  0.10855800  0.82615600  1
  O  O26  1  0.61894500  0.81582400  0.12085800  1
  O  O27  1  0.80952100  0.52524600  0.40292200  1
  O  O28  1  0.12970800  0.48058300  0.43121700  1
  O  O29  1  0.28459200  0.71148000  0.17161300  1
  O  O30  1  0.50390200  0.09076700  0.76831400  1
  O  O31  1  0.08169100  0.82797700  0.03204800  1
  O  O32  1  0.32704300  0.26934900  0.56130200  1
  O  O33  1  0.23448300  0.01799100  0.81759400  1
  O  O34  1  0.43286500  0.84660600  0.95670900  1
  O  O35  1  0.02591500  0.57133800  0.22256600  1
  O  O36  1  0.52591500  0.42866200  0.27743400  1
  O  O37  1  0.93286500  0.15339400  0.54329100  1
  O  O38  1  0.73448300  0.98200900  0.68240600  1
  O  O39  1  0.82704300  0.73065100  0.93869800  1
  O  O40  1  0.00390200  0.90923300  0.73168600  1
  O  O41  1  0.58169100  0.17202300  0.46795200  1
  O  O42  1  0.78459200  0.28852000  0.32838700  1
  O  O43  1  0.62970800  0.51941700  0.06878300  1
  O  O44  1  0.30952100  0.47475400  0.09707800  1
  O  O45  1  0.42224200  0.89144200  0.67384400  1
  O  O46  1  0.11894500  0.18417600  0.37914200  1
  O  O47  1  0.13319200  0.61233500  0.93779500  1
loop_
_geom_bond_atom_site_label_1
_geom_bond_atom_site_label_2
_geom_bond_distance
_geom_bond_site_symmetry_2
O0 S11 1.486687 1_554
O0 V1 1.991358 1_555
O1 S9 1.492136 1_555
O1 V2 2.069241 1_655
O2 S10 1.483417 1_555
O2 V3 2.003777 1_545
O3 S11 1.492182 1_555
O3 V0 2.049073 1_555
O4 S0 1.471498 1_556
O4 V0 2.043287 1_555
O5 S1 1.479553 1_555
O5 V2 2.056928 1_555
O6 S1 1.467019 1_555
O6 V3 2.040373 1_555
O7 S2 1.465676 1_655
O7 V1 2.047907 1_555
O8 S0 1.475598 1_555
O8 V1 2.059792 1_455
O9 S2 1.487941 1_555
O9 V3 2.026035 1_545
O10 S2 1.481396 1_565
O10 V2 2.001894 1_555
O11 S1 1.493327 1_555
O11 V0 2.018853 1_555
O12 S4 1.493327 1_555
O12 V2 2.018853 1_655
O13 S3 1.481396 1_545
O13 V0 2.001894 1_554
O14 S3 1.487941 1_555
O14 V1 2.026035 1_565
O15 S5 1.475598 1_555
O15 V3 2.059792 1_555
O16 S4 1.467019 1_555
O16 V1 2.040373 1_556
O17 S3 1.465676 1_555
O17 V3 2.047907 1_555
O18 S4 1.479553 1_555
O18 V0 2.056928 1_555
O19 S5 1.471498 1_555
O19 V2 2.043287 1_655
O20 S6 1.492182 1_555
O20 V2 2.049073 1_555
O21 S8 1.492136 1_555
O21 V0 2.069241 1_555
O22 S7 1.483417 1_555
O22 V1 2.003777 1_465
O23 S6 1.486687 1_555
O23 V3 1.991358 1_555
O24 S5 1.486687 1_555
O24 V4 1.991358 1_555
O25 S4 1.483417 1_555
O25 V6 2.003777 1_645
O26 S3 1.492136 1_555
O26 V7 2.069241 1_555
O27 S5 1.492182 1_555
O27 V5 2.049073 1_555
O28 S6 1.471498 1_555
O28 V5 2.043287 1_455
O29 S7 1.479553 1_555
O29 V7 2.056928 1_555
O30 S8 1.465676 1_555
O30 V4 2.047907 1_555
O31 S7 1.467019 1_555
O31 V6 2.040373 1_554
O32 S6 1.475598 1_555
O32 V4 2.059792 1_555
O33 S8 1.487941 1_555
O33 V6 2.026035 1_545
O34 S8 1.481396 1_565
O34 V7 2.001894 1_556
O35 S7 1.493327 1_555
O35 V5 2.018853 1_455
O36 S10 1.493327 1_555
O36 V7 2.018853 1_555
O37 S9 1.481396 1_545
O37 V5 2.001894 1_555
O38 S9 1.487941 1_555
O38 V4 2.026035 1_565
O39 S11 1.475598 1_555
O39 V6 2.059792 1_655
O40 S9 1.465676 1_455
O40 V6 2.047907 1_555
O41 S10 1.467019 1_555
O41 V4 2.040373 1_555
O42 S10 1.479553 1_555
O42 V5 2.056928 1_555
O43 S11 1.471498 1_554
O43 V7 2.043287 1_555
O44 S0 1.492182 1_555
O44 V7 2.049073 1_555
O45 S1 1.483417 1_555
O45 V4 2.003777 1_565
O46 S2 1.492136 1_555
O46 V5 2.069241 1_455
O47 S0 1.486687 1_556
O47 V6 1.991358 1_555
