# generated using pymatgen
data_LiVCr(P2O7)2
_symmetry_space_group_name_H-M   'P 1'
_cell_length_a   4.88695370
_cell_length_b   8.07423918
_cell_length_c   7.00852136
_cell_angle_alpha   90.05237566
_cell_angle_beta   107.61050303
_cell_angle_gamma   89.61704687
_symmetry_Int_Tables_number   1
_chemical_formula_structural   LiVCr(P2O7)2
_chemical_formula_sum   'Li1 V1 Cr1 P4 O14'
_cell_volume   263.57897278
_cell_formula_units_Z   1
loop_
 _symmetry_equiv_pos_site_id
 _symmetry_equiv_pos_as_xyz
  1  'x, y, z'
loop_
 _atom_site_type_symbol
 _atom_site_label
 _atom_site_symmetry_multiplicity
 _atom_site_fract_x
 _atom_site_fract_y
 _atom_site_fract_z
 _atom_site_occupancy
  Li  Li0  1  0.16683600  0.86738800  0.67547600  1
  V  V0  1  0.20437000  0.49528100  0.72431300  1
  Cr  Cr0  1  0.78561200  0.00496700  0.27214300  1
  P  P0  1  0.39801000  0.18277000  0.51692700  1
  P  P1  1  0.23072800  0.77974800  0.09309300  1
  P  P2  1  0.77404900  0.27987800  0.91103600  1
  P  P3  1  0.60100800  0.67924600  0.48030100  1
  O  O0  1  0.04108600  0.33461600  0.85208800  1
  O  O1  1  0.14692800  0.68714900  0.89046200  1
  O  O2  1  0.16983900  0.04791100  0.48845300  1
  O  O3  1  0.26561300  0.35662500  0.52026100  1
  O  O4  1  0.38816500  0.67859100  0.60508200  1
  O  O5  1  0.57919900  0.43209200  0.90438400  1
  O  O6  1  0.60405200  0.14835400  0.74409900  1
  O  O7  1  0.42132300  0.64485300  0.25162400  1
  O  O8  1  0.41715600  0.92798400  0.07938300  1
  O  O9  1  0.57866800  0.17862900  0.37710800  1
  O  O10  1  0.74430500  0.84911500  0.49113600  1
  O  O11  1  0.82161800  0.53950500  0.53979300  1
  O  O12  1  0.86804000  0.18454800  0.10356600  1
  O  O13  1  0.96929800  0.82342800  0.15606800  1
loop_
_geom_bond_atom_site_label_1
_geom_bond_atom_site_label_2
_geom_bond_distance
_geom_bond_site_symmetry_2
Li0 O2 1.964247 1_565
Li0 O4 2.009120 1_555
Li0 O10 2.084270 1_455
Li0 O1 2.119479 1_555
Cr0 O9 1.989831 1_555
Cr0 O12 1.989851 1_555
Cr0 O8 1.998804 1_545
Cr0 O13 2.009540 1_545
Cr0 O10 2.043122 1_545
Cr0 O2 2.056591 1_655
O0 P2 1.550262 1_455
O0 V0 1.889415 1_555
O1 P1 1.547180 1_556
O1 V0 2.005849 1_555
O2 P0 1.532984 1_555
O3 P0 1.544872 1_555
O3 V0 1.907807 1_555
O4 P3 1.548306 1_555
O4 V0 2.042032 1_555
O5 P2 1.541743 1_555
O5 V0 1.948919 1_555
O6 P2 1.614982 1_555
O6 P0 1.628812 1_555
O7 P3 1.602400 1_555
O7 P1 1.628124 1_555
O8 P1 1.529569 1_555
O9 P0 1.504613 1_555
O10 P3 1.535520 1_555
O11 P3 1.523758 1_555
O11 V0 1.956241 1_655
O12 P2 1.498778 1_554
O13 P1 1.512061 1_655
