# generated using pymatgen
data_Li24TiCr11O36
_symmetry_space_group_name_H-M   'P 1'
_cell_length_a   8.74853039
_cell_length_b   8.74853039
_cell_length_c   11.70648646
_cell_angle_alpha   60.43127086
_cell_angle_beta   60.43127086
_cell_angle_gamma   59.78106659
_symmetry_Int_Tables_number   1
_chemical_formula_structural   Li24TiCr11O36
_chemical_formula_sum   'Li24 Ti1 Cr11 O36'
_cell_volume   636.57466139
_cell_formula_units_Z   1
loop_
 _symmetry_equiv_pos_site_id
 _symmetry_equiv_pos_as_xyz
  1  'x, y, z'
loop_
 _atom_site_type_symbol
 _atom_site_label
 _atom_site_symmetry_multiplicity
 _atom_site_fract_x
 _atom_site_fract_y
 _atom_site_fract_z
 _atom_site_occupancy
  Li  Li0  1  0.82723500  0.17549000  0.74979100  1
  Li  Li1  1  0.83357300  0.49891000  0.50000200  1
  Li  Li2  1  0.50162500  0.16456100  0.25084500  1
  Li  Li3  1  0.49597200  0.83705700  0.24996100  1
  Li  Li4  1  0.49822900  0.16953000  0.99810100  1
  Li  Li5  1  0.16294300  0.50402800  0.75003900  1
  Li  Li6  1  0.50328800  0.49064300  0.75116500  1
  Li  Li7  1  0.49871800  0.16815000  0.74913300  1
  Li  Li8  1  0.16738300  0.83261700  0.50000000  1
  Li  Li9  1  0.17351600  0.16385200  0.24939200  1
  Li  Li10  1  0.16895700  0.83086700  0.24836300  1
  Li  Li11  1  0.15722000  0.50528700  0.25106400  1
  Li  Li12  1  0.16913300  0.83104300  0.75163700  1
  Li  Li13  1  0.83950500  0.82579600  0.25132200  1
  Li  Li14  1  0.83185000  0.50128200  0.25086700  1
  Li  Li15  1  0.82451000  0.17276500  0.25020900  1
  Li  Li16  1  0.83047000  0.50177100  0.00189900  1
  Li  Li17  1  0.49471300  0.84278000  0.74893600  1
  Li  Li18  1  0.83614800  0.82648400  0.75060800  1
  Li  Li19  1  0.83543900  0.49837500  0.74915500  1
  Li  Li20  1  0.50109000  0.16642700  0.49999800  1
  Li  Li21  1  0.50935700  0.49671200  0.24883500  1
  Li  Li22  1  0.16644100  0.83355900  0.00000000  1
  Li  Li23  1  0.17420400  0.16049500  0.74867800  1
  Ti  Ti0  1  0.49923600  0.50076400  0.00000000  1
  Cr  Cr0  1  0.50887700  0.83143000  0.49978300  1
  Cr  Cr1  1  0.49461800  0.50538200  0.50000000  1
  Cr  Cr2  1  0.16722800  0.15937100  0.49959000  1
  Cr  Cr3  1  0.16857000  0.49112300  0.50021700  1
  Cr  Cr4  1  0.16516500  0.50114200  0.99758100  1
  Cr  Cr5  1  0.16518100  0.17272000  0.99378200  1
  Cr  Cr6  1  0.82982200  0.17017800  0.50000000  1
  Cr  Cr7  1  0.84062900  0.83277200  0.50041000  1
  Cr  Cr8  1  0.82728000  0.83481900  0.00621800  1
  Cr  Cr9  1  0.83813600  0.16186400  0.00000000  1
  Cr  Cr10  1  0.49885800  0.83483500  0.00241900  1
  O  O0  1  0.66284600  0.33080300  0.61431100  1
  O  O1  1  0.64223100  0.67534700  0.38754300  1
  O  O2  1  0.68606400  0.99459600  0.11364600  1
  O  O3  1  0.35757500  0.66034100  0.61188900  1
  O  O4  1  0.67282300  0.33479800  0.88472400  1
  O  O5  1  0.32465300  0.35776900  0.61245700  1
  O  O6  1  0.33440300  0.00573300  0.38555600  1
  O  O7  1  0.33965900  0.64242500  0.38811100  1
  O  O8  1  0.32831800  0.35515900  0.11264700  1
  O  O9  1  0.33205500  0.99560300  0.11200000  1
  O  O10  1  0.02261400  0.32909500  0.61206000  1
  O  O11  1  0.33254300  0.64589400  0.88682900  1
  O  O12  1  0.99939200  0.02395400  0.61297000  1
  O  O13  1  0.99426700  0.66559700  0.61444400  1
  O  O14  1  0.31681900  0.33480700  0.88422700  1
  O  O15  1  0.99575200  0.31321900  0.38794200  1
  O  O16  1  0.00928300  0.66732500  0.38550000  1
  O  O17  1  0.97604600  0.00060800  0.38703000  1
  O  O18  1  0.02841900  0.32942600  0.11012100  1
  O  O19  1  0.99243400  0.66731100  0.11599900  1
  O  O20  1  0.99292600  0.02334300  0.11181700  1
  O  O21  1  0.68678100  0.00424800  0.61205800  1
  O  O22  1  0.00439700  0.66794500  0.88800000  1
  O  O23  1  0.00540400  0.31393600  0.88635400  1
  O  O24  1  0.66693400  0.69181700  0.61178600  1
  O  O25  1  0.97665700  0.00707400  0.88818300  1
  O  O26  1  0.66919700  0.33715400  0.38568900  1
  O  O27  1  0.67090500  0.97738600  0.38794000  1
  O  O28  1  0.66519300  0.68318100  0.11577300  1
  O  O29  1  0.66520200  0.32717700  0.11527600  1
  O  O30  1  0.67057400  0.97158100  0.88987900  1
  O  O31  1  0.33267500  0.99071700  0.61450000  1
  O  O32  1  0.64484100  0.67168200  0.88735300  1
  O  O33  1  0.30818300  0.33306600  0.38821400  1
  O  O34  1  0.35410600  0.66745700  0.11317100  1
  O  O35  1  0.33268900  0.00756600  0.88400100  1
loop_
_geom_bond_atom_site_label_1
_geom_bond_atom_site_label_2
_geom_bond_distance
_geom_bond_site_symmetry_2
Li0 O12 2.072747 1_555
Li0 O25 2.073623 1_555
Li0 O4 2.105708 1_555
Li0 O0 2.141768 1_555
Li0 O10 2.186539 1_655
Li0 O30 2.259580 1_545
Li1 O15 2.078268 1_555
Li1 O10 2.099435 1_655
Li1 O0 2.116778 1_555
Li1 O1 2.118109 1_555
Li1 O24 2.122759 1_555
Li1 O16 2.151214 1_655
Li2 O6 2.040723 1_555
Li2 O29 2.042091 1_555
Li2 O27 2.182035 1_545
Li2 O33 2.183039 1_555
Li2 O2 2.185945 1_545
Li2 O8 2.215879 1_555
Li3 O1 2.048338 1_555
Li3 O28 2.063322 1_555
Li3 O9 2.159021 1_555
Li3 O6 2.166328 1_565
Li3 O2 2.174653 1_555
Li3 O7 2.197347 1_555
Li4 O14 2.064533 1_555
Li4 O8 2.096909 1_556
Li4 O2 2.119264 1_546
Li4 O4 2.124493 1_555
Li4 O9 2.125531 1_546
Li4 O30 2.128171 1_545
Li5 O5 2.048338 1_555
Li5 O14 2.063322 1_555
Li5 O22 2.159021 1_555
Li5 O13 2.166328 1_455
Li5 O23 2.174653 1_555
Li5 O3 2.197347 1_555
Li6 O3 2.060272 1_555
Li6 O11 2.084126 1_555
Li6 O0 2.123590 1_555
Li6 O14 2.140388 1_555
Li6 O4 2.156973 1_555
Li6 O24 2.281712 1_555
Li7 O35 2.043982 1_555
Li7 O0 2.044795 1_555
Li7 O14 2.148389 1_555
Li7 O21 2.151383 1_555
Li7 O5 2.207511 1_555
Li7 O30 2.231218 1_545
Li8 O7 2.105711 1_555
Li8 O3 2.105711 1_555
Li8 O17 2.121580 1_465
Li8 O12 2.121580 1_465
Li8 O13 2.125260 1_455
Li8 O6 2.125260 1_565
Li9 O18 2.056342 1_555
Li9 O15 2.076894 1_455
Li9 O6 2.124546 1_555
Li9 O8 2.166928 1_555
Li9 O9 2.181052 1_545
Li9 O17 2.255117 1_455
Li10 O16 2.026660 1_555
Li10 O9 2.052488 1_555
Li10 O34 2.131698 1_555
Li10 O17 2.200244 1_465
Li10 O7 2.212596 1_555
Li10 O20 2.219213 1_465
Li11 O33 2.072292 1_555
Li11 O8 2.078188 1_555
Li11 O16 2.122771 1_555
Li11 O19 2.137347 1_455
Li11 O15 2.210105 1_455
Li11 O34 2.245212 1_555
Li12 O31 2.026660 1_555
Li12 O22 2.052488 1_555
Li12 O11 2.131698 1_555
Li12 O12 2.200244 1_465
Li12 O3 2.212596 1_555
Li12 O25 2.219213 1_465
Li13 O27 2.070814 1_555
Li13 O2 2.090734 1_555
Li13 O19 2.104915 1_555
Li13 O16 2.162406 1_655
Li13 O1 2.180104 1_555
Li13 O20 2.200349 1_565
Li14 O19 2.043982 1_555
Li14 O26 2.044795 1_555
Li14 O28 2.148389 1_555
Li14 O15 2.151383 1_555
Li14 O1 2.207511 1_555
Li14 O18 2.231218 1_655
Li15 O17 2.072747 1_555
Li15 O20 2.073623 1_555
Li15 O29 2.105708 1_555
Li15 O26 2.141768 1_555
Li15 O27 2.186539 1_545
Li15 O18 2.259580 1_655
Li16 O28 2.064533 1_555
Li16 O32 2.096909 1_554
Li16 O23 2.119264 1_654
Li16 O29 2.124493 1_555
Li16 O22 2.125531 1_654
Li16 O18 2.128171 1_655
Li17 O24 2.072292 1_555
Li17 O32 2.078188 1_555
Li17 O31 2.122771 1_555
Li17 O35 2.137347 1_565
Li17 O21 2.210105 1_565
Li17 O11 2.245212 1_555
Li18 O30 2.056342 1_555
Li18 O21 2.076894 1_565
Li18 O13 2.124546 1_555
Li18 O32 2.166928 1_555
Li18 O22 2.181052 1_655
Li18 O12 2.255117 1_565
Li19 O13 2.040723 1_555
Li19 O4 2.042091 1_555
Li19 O10 2.182035 1_655
Li19 O24 2.183039 1_555
Li19 O23 2.185945 1_655
Li19 O32 2.215879 1_555
Li20 O21 2.078268 1_555
Li20 O27 2.099435 1_545
Li20 O26 2.116778 1_555
Li20 O5 2.118109 1_555
Li20 O33 2.122759 1_555
Li20 O31 2.151214 1_545
Li21 O7 2.060272 1_555
Li21 O34 2.084126 1_555
Li21 O26 2.123590 1_555
Li21 O28 2.140388 1_555
Li21 O29 2.156973 1_555
Li21 O33 2.281712 1_555
Li22 O11 2.099387 1_554
Li22 O34 2.099387 1_555
Li22 O25 2.102687 1_464
Li22 O20 2.102687 1_465
Li22 O19 2.125107 1_455
Li22 O35 2.125107 1_564
Li23 O10 2.070814 1_555
Li23 O23 2.090734 1_555
Li23 O35 2.104915 1_555
Li23 O31 2.162406 1_545
Li23 O5 2.180104 1_555
Li23 O25 2.200349 1_455
Cr0 O1 1.899040 1_555
Cr0 O24 1.905713 1_555
Cr0 O27 1.922070 1_555
Cr0 O31 1.939889 1_555
Cr0 O3 2.013949 1_555
Cr0 O6 2.025406 1_565
Cr1 O3 1.886114 1_555
Cr1 O7 1.886114 1_555
Cr1 O1 1.983662 1_555
Cr1 O5 1.983662 1_555
Cr1 O0 1.988313 1_555
Cr1 O26 1.988313 1_555
Cr2 O6 1.895485 1_555
Cr2 O12 1.896542 1_455
Cr2 O33 1.968197 1_555
Cr2 O31 1.973472 1_545
Cr2 O10 1.983269 1_555
Cr2 O15 1.984129 1_455
Cr3 O5 1.899040 1_555
Cr3 O33 1.905713 1_555
Cr3 O10 1.922070 1_555
Cr3 O16 1.939889 1_555
Cr3 O7 2.013949 1_555
Cr3 O13 2.025406 1_455
Cr4 O22 1.902742 1_555
Cr4 O18 1.929751 1_556
Cr4 O11 1.949705 1_555
Cr4 O8 1.961526 1_556
Cr4 O14 1.965573 1_555
Cr4 O19 2.007173 1_456
Cr5 O23 1.877490 1_555
Cr5 O35 1.931133 1_555
Cr5 O18 1.936297 1_556
Cr5 O14 1.958338 1_555
Cr5 O20 2.008288 1_456
Cr5 O9 2.011976 1_546
Cr6 O15 1.929549 1_555
Cr6 O21 1.929549 1_555
Cr6 O0 1.938974 1_555
Cr6 O26 1.938974 1_555
Cr6 O12 1.985561 1_555
Cr6 O17 1.985561 1_555
Cr7 O13 1.895485 1_555
Cr7 O17 1.896542 1_565
Cr7 O24 1.968197 1_555
Cr7 O16 1.973472 1_655
Cr7 O27 1.983269 1_555
Cr7 O21 1.984129 1_565
Cr8 O2 1.877490 1_555
Cr8 O19 1.931133 1_555
Cr8 O30 1.936297 1_554
Cr8 O28 1.958338 1_555
Cr8 O25 2.008288 1_564
Cr8 O22 2.011976 1_654
Cr9 O20 1.883560 1_555
Cr9 O25 1.883560 1_554
Cr9 O29 1.977453 1_555
Cr9 O4 1.977453 1_554
Cr9 O2 1.993190 1_545
Cr9 O23 1.993190 1_654
Cr10 O9 1.902742 1_555
Cr10 O30 1.929751 1_554
Cr10 O34 1.949705 1_555
Cr10 O32 1.961526 1_554
Cr10 O28 1.965573 1_555
Cr10 O35 2.007173 1_564
O4 Ti0 1.981703 1_556
O8 Ti0 1.977596 1_555
O11 Ti0 1.968954 1_556
O29 Ti0 1.981703 1_555
O32 Ti0 1.977596 1_556
O34 Ti0 1.968954 1_555
