# generated using pymatgen
data_Li2MnSiCO7
_symmetry_space_group_name_H-M   'P 1'
_cell_length_a   8.09609042
_cell_length_b   8.09699586
_cell_length_c   9.53100218
_cell_angle_alpha   107.09093160
_cell_angle_beta   107.08863946
_cell_angle_gamma   102.58543568
_symmetry_Int_Tables_number   1
_chemical_formula_structural   Li2MnSiCO7
_chemical_formula_sum   'Li8 Mn4 Si4 C4 O28'
_cell_volume   538.25607934
_cell_formula_units_Z   4
loop_
 _symmetry_equiv_pos_site_id
 _symmetry_equiv_pos_as_xyz
  1  'x, y, z'
loop_
 _atom_site_type_symbol
 _atom_site_label
 _atom_site_symmetry_multiplicity
 _atom_site_fract_x
 _atom_site_fract_y
 _atom_site_fract_z
 _atom_site_occupancy
  Li  Li0  1  0.47403000  0.97835200  0.23588500  1
  Li  Li1  1  0.97393900  0.47834000  0.23581600  1
  Li  Li2  1  0.22833300  0.22387900  0.23585500  1
  Li  Li3  1  0.72831500  0.72390500  0.23585400  1
  Li  Li4  1  0.02600100  0.52159500  0.76410800  1
  Li  Li5  1  0.52610500  0.02166400  0.76415900  1
  Li  Li6  1  0.27168500  0.27609100  0.76414300  1
  Li  Li7  1  0.77168300  0.77607300  0.76415300  1
  Mn  Mn0  1  0.44527800  0.69540200  0.34013900  1
  Mn  Mn1  1  0.05470200  0.80463100  0.65992200  1
  Mn  Mn2  1  0.94533100  0.19550700  0.34012200  1
  Mn  Mn3  1  0.55453200  0.30446200  0.65967600  1
  Si  Si0  1  0.69653400  0.44654500  0.42494800  1
  Si  Si1  1  0.19645400  0.94645600  0.42492300  1
  Si  Si2  1  0.80346000  0.05346900  0.57505500  1
  Si  Si3  1  0.30351800  0.55355700  0.57510100  1
  C  C0  1  0.76823600  0.01825200  0.05581100  1
  C  C1  1  0.26815700  0.51815600  0.05573500  1
  C  C2  1  0.73177900  0.48174100  0.94417100  1
  C  C3  1  0.23187100  0.98183100  0.94427900  1
  O  O0  1  0.32200800  0.07197200  0.09030900  1
  O  O1  1  0.82190900  0.57188500  0.09021600  1
  O  O2  1  0.17806500  0.42802500  0.90970300  1
  O  O3  1  0.67814200  0.92809500  0.90978100  1
  O  O4  1  0.91434300  0.16442100  0.11433100  1
  O  O5  1  0.41427400  0.66431500  0.11428000  1
  O  O6  1  0.58567000  0.33559300  0.88565800  1
  O  O7  1  0.08574400  0.83569100  0.88576800  1
  O  O8  1  0.72698600  0.97700300  0.16834900  1
  O  O9  1  0.22688400  0.47689200  0.16825700  1
  O  O10  1  0.77302300  0.52301600  0.83164300  1
  O  O11  1  0.27311000  0.02307900  0.83173700  1
  O  O12  1  0.65339600  0.90346000  0.39941400  1
  O  O13  1  0.15348800  0.40358700  0.39943100  1
  O  O14  1  0.84659600  0.59652600  0.60060700  1
  O  O15  1  0.34651500  0.09644300  0.60056500  1
  O  O16  1  0.54987900  0.29948300  0.45755400  1
  O  O17  1  0.04990500  0.79950400  0.45769000  1
  O  O18  1  0.95010000  0.20051000  0.54242600  1
  O  O19  1  0.45012200  0.70051800  0.54238700  1
  O  O20  1  0.59395500  0.54689200  0.31844400  1
  O  O21  1  0.09400100  0.04695100  0.31850100  1
  O  O22  1  0.79689200  0.34413500  0.31834000  1
  O  O23  1  0.29677600  0.84402500  0.31828200  1
  O  O24  1  0.70309100  0.15590300  0.68162900  1
  O  O25  1  0.20318600  0.65596600  0.68174100  1
  O  O26  1  0.90601600  0.95312900  0.68158300  1
  O  O27  1  0.40597900  0.45307200  0.68152000  1
loop_
_geom_bond_atom_site_label_1
_geom_bond_atom_site_label_2
_geom_bond_distance
_geom_bond_site_symmetry_2
Li0 O0 2.008917 1_565
Li0 O23 2.084061 1_555
Li0 O12 2.124814 1_555
Li0 O8 2.321404 1_555
Li0 O5 2.333477 1_555
Li0 O16 2.629536 1_565
Li1 O1 2.008658 1_555
Li1 O22 2.083322 1_555
Li1 O13 2.125374 1_655
Li1 O9 2.321528 1_655
Li1 O4 2.332715 1_555
Li1 O17 2.630385 1_655
Li2 O0 2.008554 1_555
Li2 O21 2.084067 1_555
Li2 O13 2.126296 1_555
Li2 O9 2.322502 1_555
Li2 O4 2.333246 1_455
Li2 O16 2.632297 1_555
Li3 O1 2.009081 1_555
Li3 O20 2.084257 1_555
Li3 O12 2.125934 1_555
Li3 O8 2.322579 1_555
Li3 O5 2.333483 1_555
Li3 O17 2.633135 1_655
Li4 O2 2.008908 1_555
Li4 O25 2.083640 1_555
Li4 O14 2.125022 1_455
Li4 O10 2.321638 1_455
Li4 O7 2.333985 1_555
Li4 O18 2.629237 1_455
Li5 O3 2.008955 1_545
Li5 O24 2.083159 1_555
Li5 O15 2.125563 1_555
Li5 O11 2.321984 1_555
Li5 O6 2.332847 1_555
Li5 O19 2.629821 1_545
Li6 O2 2.008427 1_555
Li6 O27 2.084052 1_555
Li6 O15 2.125971 1_555
Li6 O11 2.322451 1_555
Li6 O6 2.333137 1_555
Li6 O18 2.632635 1_455
Li7 O3 2.008723 1_555
Li7 O26 2.084250 1_555
Li7 O14 2.125786 1_555
Li7 O10 2.322193 1_555
Li7 O7 2.333634 1_655
Li7 O19 2.632752 1_555
Mn0 O23 1.888843 1_555
Mn0 O20 1.889056 1_555
Mn0 O19 1.904449 1_555
Mn0 O12 1.907976 1_555
Mn0 O5 2.024040 1_555
Mn0 O9 2.042330 1_555
Mn1 O25 1.888970 1_555
Mn1 O26 1.889007 1_455
Mn1 O17 1.904379 1_555
Mn1 O14 1.908062 1_455
Mn1 O7 2.023899 1_555
Mn1 O11 2.041972 1_565
Mn2 O22 1.888418 1_555
Mn2 O21 1.889210 1_655
Mn2 O18 1.905410 1_555
Mn2 O13 1.908202 1_655
Mn2 O4 2.023428 1_555
Mn2 O8 2.041830 1_545
Mn3 O24 1.888869 1_555
Mn3 O27 1.889003 1_555
Mn3 O16 1.903995 1_555
Mn3 O15 1.907641 1_555
Mn3 O6 2.024891 1_555
Mn3 O10 2.043072 1_555
C0 O3 1.255469 1_544
C0 O4 1.313477 1_555
C0 O8 1.321375 1_545
C1 O2 1.255455 1_554
C1 O5 1.313452 1_555
C1 O9 1.321363 1_555
C2 O1 1.255603 1_556
C2 O6 1.313395 1_555
C2 O10 1.321354 1_555
C3 O0 1.255498 1_566
C3 O7 1.313444 1_555
C3 O11 1.321369 1_565
O12 Si2 1.649315 1_565
O13 Si3 1.649312 1_555
O14 Si0 1.649347 1_555
O15 Si1 1.649264 1_545
O16 Si0 1.656041 1_555
O17 Si1 1.655899 1_555
O18 Si2 1.655995 1_555
O19 Si3 1.655909 1_555
O20 Si0 1.632081 1_555
O21 Si1 1.632104 1_545
O22 Si0 1.632101 1_555
O23 Si1 1.632139 1_555
O24 Si2 1.632055 1_555
O25 Si3 1.632120 1_555
O26 Si2 1.632097 1_565
O27 Si3 1.632050 1_555
