# generated using pymatgen
data_Mn3(Ni17O20)2
_symmetry_space_group_name_H-M   'P 1'
_cell_length_a   5.96249833
_cell_length_b   5.96249833
_cell_length_c   21.47797525
_cell_angle_alpha   97.97869945
_cell_angle_beta   97.97869945
_cell_angle_gamma   90.00000000
_symmetry_Int_Tables_number   1
_chemical_formula_structural   Mn3(Ni17O20)2
_chemical_formula_sum   'Mn3 Ni34 O40'
_cell_volume   748.71567956
_cell_formula_units_Z   1
loop_
 _symmetry_equiv_pos_site_id
 _symmetry_equiv_pos_as_xyz
  1  'x, y, z'
loop_
 _atom_site_type_symbol
 _atom_site_label
 _atom_site_symmetry_multiplicity
 _atom_site_fract_x
 _atom_site_fract_y
 _atom_site_fract_z
 _atom_site_occupancy
  Mn  Mn0  1  0.59966500  0.59966500  0.19932900  1
  Mn  Mn1  1  0.20000000  0.20000000  0.40000000  1
  Mn  Mn2  1  0.80033500  0.80033500  0.60067100  1
  Ni  Ni0  1  0.50017700  0.00017700  0.00035400  1
  Ni  Ni1  1  0.99932400  0.99932400  0.99864800  1
  Ni  Ni2  1  0.00017700  0.50017700  0.00035400  1
  Ni  Ni3  1  0.49993600  0.49993600  0.99987100  1
  Ni  Ni4  1  0.80718300  0.80718300  0.10106600  1
  Ni  Ni5  1  0.29388400  0.80718300  0.10106600  1
  Ni  Ni6  1  0.80718300  0.29388400  0.10106600  1
  Ni  Ni7  1  0.29388400  0.29388400  0.10106600  1
  Ni  Ni8  1  0.10020700  0.60020700  0.20041400  1
  Ni  Ni9  1  0.60020700  0.10020700  0.20041400  1
  Ni  Ni10  1  0.39976900  0.39976900  0.29993300  1
  Ni  Ni11  1  0.90016500  0.39976900  0.29993300  1
  Ni  Ni12  1  0.90016500  0.90016500  0.29993300  1
  Ni  Ni13  1  0.39976900  0.90016500  0.29993300  1
  Ni  Ni14  1  0.70000000  0.20000000  0.40000000  1
  Ni  Ni15  1  0.20000000  0.70000000  0.40000000  1
  Ni  Ni16  1  0.49983500  0.49983500  0.50006700  1
  Ni  Ni17  1  0.00023100  0.00023100  0.50006700  1
  Ni  Ni18  1  0.00023100  0.49983500  0.50006700  1
  Ni  Ni19  1  0.49983500  0.00023100  0.50006700  1
  Ni  Ni20  1  0.29979300  0.79979300  0.59958600  1
  Ni  Ni21  1  0.79979300  0.29979300  0.59958600  1
  Ni  Ni22  1  0.59281700  0.10611600  0.69893400  1
  Ni  Ni23  1  0.59281700  0.59281700  0.69893400  1
  Ni  Ni24  1  0.10611600  0.10611600  0.69893400  1
  Ni  Ni25  1  0.10611600  0.59281700  0.69893400  1
  Ni  Ni26  1  0.39982300  0.89982300  0.79964600  1
  Ni  Ni27  1  0.90006400  0.90006400  0.80012900  1
  Ni  Ni28  1  0.40067600  0.40067600  0.80135200  1
  Ni  Ni29  1  0.89982300  0.39982300  0.79964600  1
  Ni  Ni30  1  0.70000000  0.20000000  0.90000000  1
  Ni  Ni31  1  0.70000000  0.70000000  0.90000000  1
  Ni  Ni32  1  0.20000000  0.20000000  0.90000000  1
  Ni  Ni33  1  0.20000000  0.70000000  0.90000000  1
  O  O0  1  0.74755500  0.25270800  0.00026300  1
  O  O1  1  0.25270800  0.25270800  0.00026300  1
  O  O2  1  0.25270800  0.74755500  0.00026300  1
  O  O3  1  0.74755500  0.74755500  0.00026300  1
  O  O4  1  0.04684100  0.04684100  0.09368300  1
  O  O5  1  0.55044900  0.05044900  0.10089800  1
  O  O6  1  0.05044900  0.55044900  0.10089800  1
  O  O7  1  0.55262000  0.55262000  0.10523900  1
  O  O8  1  0.37095300  0.82961500  0.20056800  1
  O  O9  1  0.82961500  0.82961500  0.20056800  1
  O  O10  1  0.82961500  0.37095300  0.20056800  1
  O  O11  1  0.37095300  0.37095300  0.20056800  1
  O  O12  1  0.64520300  0.64520300  0.29040600  1
  O  O13  1  0.15020500  0.65020500  0.30041000  1
  O  O14  1  0.65020500  0.15020500  0.30041000  1
  O  O15  1  0.15416000  0.15416000  0.30832100  1
  O  O16  1  0.97045100  0.42954900  0.40000000  1
  O  O17  1  0.42954900  0.42954900  0.40000000  1
  O  O18  1  0.42954900  0.97045100  0.40000000  1
  O  O19  1  0.97045100  0.97045100  0.40000000  1
  O  O20  1  0.24584000  0.24584000  0.49167900  1
  O  O21  1  0.74979500  0.24979500  0.49959000  1
  O  O22  1  0.24979500  0.74979500  0.49959000  1
  O  O23  1  0.75479700  0.75479700  0.50959400  1
  O  O24  1  0.57038500  0.02904700  0.59943200  1
  O  O25  1  0.02904700  0.02904700  0.59943200  1
  O  O26  1  0.57038500  0.57038500  0.59943200  1
  O  O27  1  0.02904700  0.57038500  0.59943200  1
  O  O28  1  0.84738000  0.84738000  0.69476100  1
  O  O29  1  0.34955100  0.84955100  0.69910200  1
  O  O30  1  0.84955100  0.34955100  0.69910200  1
  O  O31  1  0.35315900  0.35315900  0.70631700  1
  O  O32  1  0.14729200  0.65244500  0.79973700  1
  O  O33  1  0.65244500  0.14729200  0.79973700  1
  O  O34  1  0.14729200  0.14729200  0.79973700  1
  O  O35  1  0.65244500  0.65244500  0.79973700  1
  O  O36  1  0.45008000  0.45008000  0.90016100  1
  O  O37  1  0.95000000  0.45000000  0.90000000  1
  O  O38  1  0.45000000  0.95000000  0.90000000  1
  O  O39  1  0.94992000  0.94992000  0.89983900  1
loop_
_geom_bond_atom_site_label_1
_geom_bond_atom_site_label_2
_geom_bond_distance
_geom_bond_site_symmetry_2
Mn0 O12 1.918091 1_555
Mn0 O9 1.933947 1_555
Mn0 O10 1.933951 1_555
Mn0 O8 1.933951 1_555
Mn0 O11 1.933956 1_555
Mn0 O7 1.981545 1_555
Mn1 O20 1.930769 1_555
Mn1 O15 1.930769 1_555
Mn1 O17 1.935614 1_555
Mn1 O18 1.935614 1_545
Mn1 O16 1.935614 1_455
Mn1 O19 1.935614 1_445
Mn2 O23 1.918091 1_555
Mn2 O26 1.933947 1_555
Mn2 O27 1.933951 1_655
Mn2 O24 1.933951 1_565
Mn2 O25 1.933956 1_665
Mn2 O28 1.981545 1_555
Ni0 O2 2.108174 1_545
Ni0 O0 2.108174 1_555
Ni0 O3 2.108174 1_545
Ni0 O1 2.108174 1_555
Ni0 O38 2.113465 1_544
Ni0 O5 2.117466 1_555
Ni1 O4 2.001446 1_666
Ni1 O39 2.080927 1_555
Ni1 O1 2.130059 1_666
Ni1 O2 2.130059 1_656
Ni1 O0 2.130059 1_566
Ni1 O3 2.130059 1_556
Ni2 O0 2.108174 1_455
Ni2 O3 2.108174 1_455
Ni2 O1 2.108174 1_555
Ni2 O2 2.108174 1_555
Ni2 O37 2.113465 1_454
Ni2 O6 2.117466 1_555
Ni3 O3 2.086348 1_556
Ni3 O2 2.086352 1_556
Ni3 O0 2.086352 1_556
Ni3 O1 2.086356 1_556
Ni3 O36 2.099902 1_555
Ni3 O7 2.219060 1_556
Ni4 O4 2.057865 1_665
Ni4 O9 2.108146 1_555
Ni4 O6 2.108810 1_655
Ni4 O5 2.108810 1_565
Ni4 O3 2.124346 1_555
Ni4 O7 2.165915 1_555
Ni5 O4 2.057874 1_565
Ni5 O8 2.108145 1_555
Ni5 O5 2.108806 1_565
Ni5 O6 2.108814 1_555
Ni5 O2 2.124346 1_555
Ni5 O7 2.165915 1_555
Ni6 O4 2.057874 1_655
Ni6 O10 2.108145 1_555
Ni6 O6 2.108806 1_655
Ni6 O5 2.108814 1_555
Ni6 O0 2.124346 1_555
Ni6 O7 2.165915 1_555
Ni7 O4 2.057882 1_555
Ni7 O11 2.108145 1_555
Ni7 O5 2.108810 1_555
Ni7 O6 2.108810 1_555
Ni7 O1 2.124346 1_555
Ni7 O7 2.165915 1_555
Ni8 O6 2.095817 1_555
Ni8 O13 2.105926 1_555
Ni8 O9 2.115256 1_455
Ni8 O10 2.115256 1_455
Ni8 O11 2.115256 1_555
Ni8 O8 2.115256 1_555
Ni9 O5 2.095817 1_555
Ni9 O14 2.105926 1_555
Ni9 O9 2.115256 1_545
Ni9 O8 2.115256 1_545
Ni9 O11 2.115256 1_555
Ni9 O10 2.115256 1_555
Ni10 O11 2.100021 1_555
Ni10 O14 2.108086 1_555
Ni10 O13 2.108086 1_555
Ni10 O15 2.113795 1_555
Ni10 O17 2.114329 1_555
Ni10 O12 2.119246 1_555
Ni11 O10 2.100021 1_555
Ni11 O13 2.108082 1_655
Ni11 O14 2.108090 1_555
Ni11 O15 2.113786 1_655
Ni11 O16 2.114329 1_555
Ni11 O12 2.119250 1_555
Ni12 O9 2.100021 1_555
Ni12 O14 2.108086 1_565
Ni12 O13 2.108086 1_655
Ni12 O15 2.113778 1_665
Ni12 O19 2.114329 1_555
Ni12 O12 2.119254 1_555
Ni13 O8 2.100021 1_555
Ni13 O14 2.108082 1_565
Ni13 O13 2.108090 1_555
Ni13 O15 2.113786 1_565
Ni13 O18 2.114329 1_555
Ni13 O12 2.119250 1_555
Ni14 O21 2.097375 1_555
Ni14 O14 2.097375 1_555
Ni14 O18 2.115103 1_545
Ni14 O17 2.115103 1_555
Ni14 O16 2.115103 1_555
Ni14 O19 2.115103 1_545
Ni15 O22 2.097375 1_555
Ni15 O13 2.097375 1_555
Ni15 O17 2.115103 1_555
Ni15 O18 2.115103 1_555
Ni15 O16 2.115103 1_455
Ni15 O19 2.115103 1_455
Ni16 O26 2.100021 1_555
Ni16 O21 2.108086 1_555
Ni16 O22 2.108086 1_555
Ni16 O20 2.113778 1_555
Ni16 O17 2.114329 1_555
Ni16 O23 2.119254 1_555
Ni17 O25 2.100021 1_555
Ni17 O22 2.108086 1_545
Ni17 O21 2.108086 1_455
Ni17 O20 2.113795 1_555
Ni17 O19 2.114329 1_445
Ni17 O23 2.119246 1_445
Ni18 O27 2.100021 1_555
Ni18 O21 2.108082 1_455
Ni18 O22 2.108090 1_555
Ni18 O20 2.113786 1_555
Ni18 O16 2.114329 1_455
Ni18 O23 2.119250 1_455
Ni19 O24 2.100021 1_555
Ni19 O22 2.108082 1_545
Ni19 O21 2.108090 1_555
Ni19 O20 2.113786 1_555
Ni19 O18 2.114329 1_545
Ni19 O23 2.119250 1_545
Ni20 O29 2.095817 1_555
Ni20 O22 2.105926 1_555
Ni20 O24 2.115256 1_565
Ni20 O26 2.115256 1_555
Ni20 O25 2.115256 1_565
Ni20 O27 2.115256 1_555
Ni21 O30 2.095817 1_555
Ni21 O21 2.105926 1_555
Ni21 O24 2.115256 1_555
Ni21 O27 2.115256 1_655
Ni21 O26 2.115256 1_555
Ni21 O25 2.115256 1_655
Ni22 O31 2.057874 1_555
Ni22 O24 2.108145 1_555
Ni22 O29 2.108806 1_545
Ni22 O30 2.108814 1_555
Ni22 O33 2.124346 1_555
Ni22 O28 2.165915 1_545
Ni23 O31 2.057865 1_555
Ni23 O26 2.108146 1_555
Ni23 O30 2.108810 1_555
Ni23 O29 2.108810 1_555
Ni23 O35 2.124346 1_555
Ni23 O28 2.165915 1_555
Ni24 O31 2.057882 1_555
Ni24 O25 2.108145 1_555
Ni24 O29 2.108810 1_545
Ni24 O30 2.108810 1_455
Ni24 O34 2.124346 1_555
Ni24 O28 2.165915 1_445
Ni25 O31 2.057874 1_555
Ni25 O27 2.108145 1_555
Ni25 O30 2.108806 1_455
Ni25 O29 2.108814 1_555
Ni25 O32 2.124346 1_555
Ni25 O28 2.165915 1_455
Ni26 O34 2.108174 1_565
Ni26 O32 2.108174 1_555
Ni26 O33 2.108174 1_565
Ni26 O35 2.108174 1_555
Ni26 O38 2.113465 1_555
Ni26 O29 2.117466 1_555
Ni27 O35 2.086348 1_555
Ni27 O32 2.086352 1_655
Ni27 O33 2.086352 1_565
Ni27 O34 2.086356 1_665
Ni27 O39 2.099902 1_555
Ni27 O28 2.219060 1_555
Ni28 O31 2.001446 1_555
Ni28 O36 2.080927 1_555
Ni28 O34 2.130059 1_555
Ni28 O32 2.130059 1_555
Ni28 O33 2.130059 1_555
Ni28 O35 2.130059 1_555
Ni29 O34 2.108174 1_655
Ni29 O32 2.108174 1_655
Ni29 O33 2.108174 1_555
Ni29 O35 2.108174 1_555
Ni29 O37 2.113465 1_555
Ni29 O30 2.117466 1_555
Ni30 O38 2.108061 1_545
Ni30 O37 2.108061 1_555
Ni30 O36 2.108064 1_555
Ni30 O39 2.108064 1_545
Ni30 O0 2.111660 1_556
Ni30 O33 2.111660 1_555
Ni31 O37 2.108061 1_555
Ni31 O38 2.108061 1_555
Ni31 O36 2.108068 1_555
Ni31 O39 2.108068 1_555
Ni31 O3 2.111660 1_556
Ni31 O35 2.111660 1_555
Ni32 O36 2.108060 1_555
Ni32 O39 2.108060 1_445
Ni32 O37 2.108061 1_455
Ni32 O38 2.108062 1_545
Ni32 O1 2.111660 1_556
Ni32 O34 2.111660 1_555
Ni33 O37 2.108061 1_455
Ni33 O38 2.108061 1_555
Ni33 O36 2.108064 1_555
Ni33 O39 2.108064 1_455
Ni33 O2 2.111660 1_556
Ni33 O32 2.111660 1_555
