# generated using pymatgen
data_Fe5Te(PO4)6
_symmetry_space_group_name_H-M   'P 1'
_cell_length_a   8.55911884
_cell_length_b   8.55911884
_cell_length_c   8.55911885
_cell_angle_alpha   61.43273961
_cell_angle_beta   61.43273961
_cell_angle_gamma   61.43273944
_symmetry_Int_Tables_number   1
_chemical_formula_structural   Fe5Te(PO4)6
_chemical_formula_sum   'Fe5 Te1 P6 O24'
_cell_volume   457.64225835
_cell_formula_units_Z   1
loop_
 _symmetry_equiv_pos_site_id
 _symmetry_equiv_pos_as_xyz
  1  'x, y, z'
loop_
 _atom_site_type_symbol
 _atom_site_label
 _atom_site_symmetry_multiplicity
 _atom_site_fract_x
 _atom_site_fract_y
 _atom_site_fract_z
 _atom_site_occupancy
  Fe  Fe0  1  0.00256100  0.00256100  0.00256100  1
  Fe  Fe1  1  0.35223000  0.35223000  0.35223000  1
  Fe  Fe2  1  0.49841900  0.49841900  0.49841900  1
  Fe  Fe3  1  0.14396300  0.14396300  0.14396300  1
  Fe  Fe4  1  0.64650400  0.64650400  0.64650400  1
  Te  Te0  1  0.85444700  0.85444700  0.85444700  1
  P  P0  1  0.74833400  0.05486600  0.44499300  1
  P  P1  1  0.05486600  0.44499300  0.74833400  1
  P  P2  1  0.44499300  0.74833400  0.05486600  1
  P  P3  1  0.53770100  0.25621100  0.95232600  1
  P  P4  1  0.95232600  0.53770100  0.25621100  1
  P  P5  1  0.25621100  0.95232600  0.53770100  1
  O  O0  1  0.89313400  0.50026200  0.68232600  1
  O  O1  1  0.50026200  0.68232600  0.89313400  1
  O  O2  1  0.68232600  0.89313400  0.50026200  1
  O  O3  1  0.90504600  0.06576600  0.25250700  1
  O  O4  1  0.81792000  0.02762800  0.59510000  1
  O  O5  1  0.59034300  0.25303200  0.43196700  1
  O  O6  1  0.06576600  0.25250700  0.90504600  1
  O  O7  1  0.25303200  0.43196700  0.59034300  1
  O  O8  1  0.38724100  0.18122600  0.99668200  1
  O  O9  1  0.43196700  0.59034300  0.25303200  1
  O  O10  1  0.73811900  0.10180500  0.94233500  1
  O  O11  1  0.99668200  0.38724100  0.18122600  1
  O  O12  1  0.02762800  0.59510000  0.81792000  1
  O  O13  1  0.25250700  0.90504600  0.06576600  1
  O  O14  1  0.55734700  0.40881000  0.74901200  1
  O  O15  1  0.59510000  0.81792000  0.02762800  1
  O  O16  1  0.74901200  0.55734700  0.40881000  1
  O  O17  1  0.94233500  0.73811900  0.10180500  1
  O  O18  1  0.40881000  0.74901200  0.55734700  1
  O  O19  1  0.18122600  0.99668200  0.38724100  1
  O  O20  1  0.10180500  0.94233500  0.73811900  1
  O  O21  1  0.33109300  0.10223000  0.49650300  1
  O  O22  1  0.49650300  0.33109300  0.10223000  1
  O  O23  1  0.10223000  0.49650300  0.33109300  1
loop_
_geom_bond_atom_site_label_1
_geom_bond_atom_site_label_2
_geom_bond_distance
_geom_bond_site_symmetry_2
Fe0 O13 2.129155 1_545
Fe0 O6 2.129155 1_554
Fe0 O3 2.129155 1_455
Fe0 O10 2.229019 1_454
Fe0 O17 2.229019 1_445
Fe0 O20 2.229019 1_544
Fe1 O23 1.940558 1_555
Fe1 O21 1.940558 1_555
Fe1 O22 1.940558 1_555
Fe1 O5 2.112205 1_555
Fe1 O7 2.112205 1_555
Fe1 O9 2.112205 1_555
Fe2 O5 2.118459 1_555
Fe2 O7 2.118460 1_555
Fe2 O9 2.118460 1_555
Fe2 O18 2.129414 1_555
Fe2 O16 2.129414 1_555
Fe2 O14 2.129414 1_555
Fe3 O11 1.940830 1_455
Fe3 O8 1.940830 1_554
Fe3 O19 1.940830 1_545
Fe3 O13 2.095257 1_545
Fe3 O6 2.095257 1_554
Fe3 O3 2.095257 1_455
Fe4 O0 1.960041 1_555
Fe4 O2 1.960041 1_555
Fe4 O1 1.960041 1_555
Fe4 O18 2.151382 1_555
Fe4 O16 2.151382 1_555
Fe4 O14 2.151382 1_555
O0 P1 1.524892 1_655
O1 P2 1.524892 1_556
O2 P0 1.524892 1_565
O3 P0 1.543167 1_555
O4 P0 1.540237 1_555
O4 Te0 2.072686 1_545
O5 P0 1.577233 1_555
O6 P1 1.543167 1_555
O7 P1 1.577233 1_555
O8 P3 1.518005 1_555
O9 P2 1.577233 1_555
O10 P3 1.579914 1_555
O10 Te0 2.197821 1_545
O11 P4 1.518005 1_555
O12 P1 1.540237 1_555
O12 Te0 2.072686 1_455
O13 P2 1.543167 1_555
O14 P3 1.587109 1_555
O15 P2 1.540237 1_555
O15 Te0 2.072686 1_554
O16 P4 1.587109 1_555
O17 P4 1.579914 1_555
O17 Te0 2.197821 1_554
O18 P5 1.587109 1_555
O19 P5 1.518005 1_555
O20 P5 1.579914 1_555
O20 Te0 2.197821 1_455
O21 P5 1.522814 1_545
O22 P3 1.522814 1_554
O23 P4 1.522814 1_455
