# generated using pymatgen
data_Na4Ti3O8
_symmetry_space_group_name_H-M   'P 1'
_cell_length_a   6.11380306
_cell_length_b   6.11380306
_cell_length_c   6.54064166
_cell_angle_alpha   61.70783070
_cell_angle_beta   61.70783070
_cell_angle_gamma   60.49963370
_symmetry_Int_Tables_number   1
_chemical_formula_structural   Na4Ti3O8
_chemical_formula_sum   'Na4 Ti3 O8'
_cell_volume   177.89448536
_cell_formula_units_Z   1
loop_
 _symmetry_equiv_pos_site_id
 _symmetry_equiv_pos_as_xyz
  1  'x, y, z'
loop_
 _atom_site_type_symbol
 _atom_site_label
 _atom_site_symmetry_multiplicity
 _atom_site_fract_x
 _atom_site_fract_y
 _atom_site_fract_z
 _atom_site_occupancy
  Na  Na0  1  0.00000000  0.00000000  0.00000000  1
  Na  Na1  1  0.50000000  0.00000000  0.00000000  1
  Na  Na2  1  0.00000000  0.50000000  0.00000000  1
  Na  Na3  1  0.50000000  0.50000000  0.50000000  1
  Ti  Ti0  1  0.50000000  0.00000000  0.50000000  1
  Ti  Ti1  1  0.00000000  0.50000000  0.50000000  1
  Ti  Ti2  1  0.00000000  0.00000000  0.50000000  1
  O  O0  1  0.76631700  0.76631700  0.70024600  1
  O  O1  1  0.25177100  0.25177100  0.69353500  1
  O  O2  1  0.19292800  0.75044000  0.31256100  1
  O  O3  1  0.75044000  0.19292800  0.31256100  1
  O  O4  1  0.80707200  0.24956000  0.68743900  1
  O  O5  1  0.24956000  0.80707200  0.68743900  1
  O  O6  1  0.74822900  0.74822900  0.30646500  1
  O  O7  1  0.23368300  0.23368300  0.29975400  1
loop_
_geom_bond_atom_site_label_1
_geom_bond_atom_site_label_2
_geom_bond_distance
_geom_bond_site_symmetry_2
Na0 O1 2.289230 1_554
Na0 O6 2.289230 1_445
Na0 O3 2.335635 1_455
Na0 O5 2.335635 1_544
Na0 O2 2.335635 1_545
Na0 O4 2.335635 1_454
Na1 O7 2.423700 1_555
Na1 O0 2.423700 1_544
Na1 O2 2.501586 1_545
Na1 O4 2.501586 1_554
Na1 O6 2.519657 1_545
Na1 O1 2.519657 1_554
Na2 O7 2.423700 1_555
Na2 O0 2.423700 1_454
Na2 O3 2.501586 1_455
Na2 O5 2.501586 1_554
Na2 O6 2.519657 1_455
Na2 O1 2.519657 1_554
Na3 O6 2.198845 1_555
Na3 O1 2.198845 1_555
Na3 O3 2.223357 1_555
Na3 O4 2.223357 1_555
Na3 O5 2.223357 1_555
Na3 O2 2.223357 1_555
O0 Ti2 2.064076 1_665
O0 Ti0 2.089106 1_565
O0 Ti1 2.089106 1_655
O1 Ti0 2.000057 1_555
O1 Ti1 2.000057 1_555
O2 Ti2 1.962698 1_565
O2 Ti1 1.966512 1_555
O3 Ti2 1.962698 1_655
O3 Ti0 1.966512 1_555
O4 Ti2 1.962698 1_655
O4 Ti1 1.966512 1_655
O5 Ti2 1.962698 1_565
O5 Ti0 1.966512 1_565
O6 Ti0 2.000057 1_565
O6 Ti1 2.000057 1_655
O7 Ti2 2.064076 1_555
O7 Ti0 2.089106 1_555
O7 Ti1 2.089106 1_555
