# generated using pymatgen
data_Mn4OF8
_symmetry_space_group_name_H-M   'P 1'
_cell_length_a   5.48593384
_cell_length_b   5.48593384
_cell_length_c   15.01527800
_cell_angle_alpha   87.36286180
_cell_angle_beta   87.36286180
_cell_angle_gamma   59.17519966
_symmetry_Int_Tables_number   1
_chemical_formula_structural   Mn4OF8
_chemical_formula_sum   'Mn8 O2 F16'
_cell_volume   387.51323174
_cell_formula_units_Z   2
loop_
 _symmetry_equiv_pos_site_id
 _symmetry_equiv_pos_as_xyz
  1  'x, y, z'
loop_
 _atom_site_type_symbol
 _atom_site_label
 _atom_site_symmetry_multiplicity
 _atom_site_fract_x
 _atom_site_fract_y
 _atom_site_fract_z
 _atom_site_occupancy
  Mn  Mn0  1  0.29799500  0.35806600  0.53341500  1
  Mn  Mn1  1  0.66796100  0.68415500  0.17832600  1
  Mn  Mn2  1  0.35806600  0.29799500  0.03341500  1
  Mn  Mn3  1  0.66657000  0.65750800  0.98614800  1
  Mn  Mn4  1  0.65750800  0.66657000  0.48614800  1
  Mn  Mn5  1  0.32385300  0.34555200  0.31959100  1
  Mn  Mn6  1  0.34555200  0.32385300  0.81959100  1
  Mn  Mn7  1  0.68415500  0.66796100  0.67832600  1
  O  O0  1  0.44218500  0.90889400  0.07888000  1
  O  O1  1  0.90889400  0.44218500  0.57888000  1
  F  F0  1  0.36167500  0.68532300  0.57331500  1
  F  F1  1  0.01695800  0.38521200  0.92342400  1
  F  F2  1  0.41896300  0.96109700  0.75416800  1
  F  F3  1  0.68532300  0.36167500  0.07331500  1
  F  F4  1  0.38521200  0.01695800  0.42342400  1
  F  F5  1  0.00002600  0.60195600  0.41990100  1
  F  F6  1  0.02463400  0.60649800  0.74149300  1
  F  F7  1  0.96109700  0.41896300  0.25416800  1
  F  F8  1  0.37829100  0.63378400  0.24176100  1
  F  F9  1  0.38700700  0.56207700  0.92742700  1
  F  F10  1  0.61649500  0.98854700  0.58750500  1
  F  F11  1  0.60195600  0.00002600  0.91990100  1
  F  F12  1  0.60649800  0.02463400  0.24149300  1
  F  F13  1  0.56207700  0.38700700  0.42742700  1
  F  F14  1  0.98854700  0.61649500  0.08750500  1
  F  F15  1  0.63378400  0.37829100  0.74176100  1
loop_
_geom_bond_atom_site_label_1
_geom_bond_atom_site_label_2
_geom_bond_distance
_geom_bond_site_symmetry_2
Mn0 O1 2.029981 1_455
Mn1 O0 1.928636 1_555
Mn2 O0 2.029981 1_545
Mn3 O0 1.906605 1_556
Mn4 O1 1.906605 1_555
Mn7 O1 1.928636 1_555
F0 Mn4 2.000831 1_555
F0 Mn0 2.113079 1_555
F0 Mn7 2.386459 1_555
F1 Mn3 1.957937 1_455
F1 Mn6 2.227417 1_555
F1 Mn2 2.398411 1_556
F2 Mn7 1.902067 1_555
F2 Mn6 2.099917 1_565
F3 Mn3 2.000831 1_554
F3 Mn2 2.113079 1_555
F3 Mn1 2.386459 1_555
F4 Mn4 1.957937 1_545
F4 Mn5 2.227417 1_555
F4 Mn0 2.398411 1_555
F5 Mn4 1.955434 1_455
F5 Mn5 2.188819 1_555
F5 Mn0 2.274305 1_555
F6 Mn7 1.997570 1_455
F6 Mn6 2.025817 1_555
F7 Mn1 1.902067 1_555
F7 Mn5 2.099917 1_655
F8 Mn1 1.948178 1_555
F8 Mn5 2.058386 1_555
F9 Mn3 2.096041 1_555
F9 Mn2 2.158017 1_556
F9 Mn6 2.216895 1_555
F10 Mn0 2.042326 1_565
F10 Mn7 2.060924 1_555
F10 Mn4 2.301165 1_555
F11 Mn3 1.955434 1_545
F11 Mn6 2.188819 1_555
F11 Mn2 2.274305 1_556
F12 Mn1 1.997570 1_545
F12 Mn5 2.025817 1_555
F13 Mn4 2.096041 1_555
F13 Mn0 2.158017 1_555
F13 Mn5 2.216895 1_555
F14 Mn2 2.042326 1_655
F14 Mn1 2.060924 1_555
F14 Mn3 2.301165 1_554
F15 Mn7 1.948178 1_555
F15 Mn6 2.058386 1_555
