# generated using pymatgen
data_Li3V2(O2F)2
_symmetry_space_group_name_H-M   'P 1'
_cell_length_a   5.93706900
_cell_length_b   6.03219996
_cell_length_c   15.07458003
_cell_angle_alpha   80.25103232
_cell_angle_beta   85.17375532
_cell_angle_gamma   60.75174218
_symmetry_Int_Tables_number   1
_chemical_formula_structural   Li3V2(O2F)2
_chemical_formula_sum   'Li12 V8 O16 F8'
_cell_volume   464.24367156
_cell_formula_units_Z   4
loop_
 _symmetry_equiv_pos_site_id
 _symmetry_equiv_pos_as_xyz
  1  'x, y, z'
loop_
 _atom_site_type_symbol
 _atom_site_label
 _atom_site_symmetry_multiplicity
 _atom_site_fract_x
 _atom_site_fract_y
 _atom_site_fract_z
 _atom_site_occupancy
  Li  Li0  1  0.12097200  0.78416500  0.82955900  1
  Li  Li1  1  0.70007300  0.20296400  0.83181900  1
  Li  Li2  1  0.33340500  0.47794100  0.69297300  1
  Li  Li3  1  0.16153100  0.23983500  0.84096600  1
  Li  Li4  1  0.16346600  0.49953800  0.33621100  1
  Li  Li5  1  0.50594600  0.00132200  0.96103100  1
  Li  Li6  1  0.67059900  0.00641800  0.33086400  1
  Li  Li7  1  0.97886400  0.52875300  0.96392600  1
  Li  Li8  1  0.35923200  0.97237800  0.71000800  1
  Li  Li9  1  0.15636200  0.00974400  0.33268700  1
  Li  Li10  1  0.50436300  0.53227600  0.95445700  1
  Li  Li11  1  0.83386400  0.49642000  0.71154500  1
  V  V0  1  0.50008900  0.25097200  0.49733200  1
  V  V1  1  0.99557400  0.75599300  0.50670100  1
  V  V2  1  0.32352900  0.24968500  0.16338200  1
  V  V3  1  0.50492300  0.75048800  0.49059100  1
  V  V4  1  0.83386200  0.74455000  0.16978100  1
  V  V5  1  0.99293100  0.25613100  0.50331900  1
  V  V6  1  0.33467700  0.74618000  0.16839600  1
  V  V7  1  0.82286400  0.25105300  0.16574700  1
  O  O0  1  0.31098200  0.62576800  0.42760100  1
  O  O1  1  0.16635700  0.60471300  0.10344800  1
  O  O2  1  0.16652600  0.39069900  0.56883600  1
  O  O3  1  0.49410600  0.36528000  0.23992600  1
  O  O4  1  0.84580600  0.10406000  0.42846200  1
  O  O5  1  0.68007500  0.87511000  0.56448500  1
  O  O6  1  0.66984000  0.12111100  0.10249500  1
  O  O7  1  0.99798400  0.89204700  0.24388400  1
  O  O8  1  0.31977100  0.13121500  0.42236500  1
  O  O9  1  0.16396600  0.12919200  0.10024400  1
  O  O10  1  0.17478000  0.89553900  0.56305300  1
  O  O11  1  0.49410000  0.89558500  0.23958800  1
  O  O12  1  0.85199000  0.61471100  0.42685300  1
  O  O13  1  0.68521000  0.38089400  0.56336400  1
  O  O14  1  0.66747400  0.60120600  0.10087900  1
  O  O15  1  0.00334900  0.36933200  0.23922500  1
  F  F0  1  0.33082400  0.36430100  0.92301800  1
  F  F1  1  0.48270200  0.15188500  0.75588900  1
  F  F2  1  0.83429100  0.87446800  0.91612500  1
  F  F3  1  0.03167900  0.60260600  0.75586800  1
  F  F4  1  0.32576200  0.87649900  0.91188300  1
  F  F5  1  0.49350700  0.62324300  0.74177100  1
  F  F6  1  0.83318900  0.37073700  0.91118900  1
  F  F7  1  0.01193600  0.13299400  0.75492300  1
loop_
_geom_bond_atom_site_label_1
_geom_bond_atom_site_label_2
_geom_bond_distance
_geom_bond_site_symmetry_2
Li2 O2 2.432159 1_555
Li4 O12 2.100069 1_455
Li4 O0 2.110633 1_555
Li4 O8 2.166810 1_555
Li4 O3 2.231867 1_555
Li4 O15 2.238409 1_555
Li4 O7 2.312845 1_455
Li6 O7 2.130799 1_545
Li6 O11 2.162646 1_545
Li6 O3 2.164121 1_555
Li6 O4 2.177898 1_555
Li6 O8 2.267973 1_555
Li6 O12 2.335461 1_545
Li9 O7 2.089569 1_445
Li9 O8 2.134590 1_555
Li9 O4 2.147767 1_455
Li9 O15 2.184062 1_555
Li9 O11 2.229123 1_545
Li9 O0 2.296877 1_545
O0 V1 2.012353 1_455
O0 V3 2.016405 1_555
O0 V0 2.095285 1_555
O1 V2 1.951213 1_555
O1 V4 1.983584 1_455
O1 V6 1.991571 1_555
O2 V5 1.989199 1_455
O2 V1 2.009604 1_455
O2 V0 2.027701 1_555
O3 V2 2.000605 1_555
O3 V7 2.028394 1_555
O3 V6 2.131987 1_555
O4 V1 2.025713 1_545
O4 V5 2.043834 1_555
O4 V0 2.061957 1_555
O5 V1 1.845509 1_555
O5 V3 2.032170 1_555
O5 V0 2.084319 1_565
O6 V7 1.855725 1_555
O6 V2 2.009143 1_555
O6 V4 2.088345 1_545
O7 V7 2.073687 1_565
O7 V6 2.074269 1_655
O7 V4 2.087071 1_555
O8 V0 2.044715 1_555
O8 V5 2.075233 1_455
O8 V3 2.112799 1_545
O9 V2 1.841326 1_555
O9 V7 2.017726 1_455
O9 V6 2.122214 1_545
O10 V1 1.957456 1_455
O10 V5 1.978189 1_465
O10 V3 2.021931 1_555
O11 V2 2.039291 1_565
O11 V4 2.044037 1_555
O11 V6 2.047412 1_555
O12 V3 2.030789 1_555
O12 V1 2.032696 1_555
O12 V5 2.063203 1_555
O13 V5 1.825467 1_555
O13 V0 2.025589 1_555
O13 V3 2.087352 1_555
O14 V7 1.953669 1_555
O14 V6 1.994787 1_555
O14 V4 2.028268 1_555
O15 V2 2.003660 1_555
O15 V7 2.024506 1_455
O15 V4 2.092984 1_455
F0 Li10 1.891508 1_555
F0 Li5 1.911622 1_555
F0 Li7 1.922382 1_455
F0 Li3 2.089254 1_555
F0 Li1 2.346121 1_555
F0 Li0 2.440317 1_555
F1 Li8 1.817369 1_545
F1 Li2 1.832962 1_555
F1 Li1 1.956312 1_555
F1 Li3 2.095851 1_555
F2 Li5 1.827478 1_565
F2 Li7 1.857676 1_555
F2 Li0 1.964069 1_655
F2 Li1 1.987766 1_565
F3 Li11 1.802253 1_455
F3 Li2 1.820087 1_555
F3 Li0 1.947564 1_555
F3 Li3 2.143782 1_555
F4 Li10 1.832881 1_555
F4 Li5 1.835662 1_565
F4 Li3 2.047146 1_565
F4 Li0 2.116208 1_555
F5 Li11 1.824466 1_555
F5 Li2 1.833854 1_555
F5 Li8 1.839108 1_555
F5 Li0 2.330238 1_555
F5 Li1 2.418752 1_555
F6 Li10 1.824363 1_555
F6 Li7 1.861854 1_555
F6 Li3 1.993964 1_655
F6 Li1 2.105030 1_555
F7 Li8 1.919307 1_545
F7 Li11 1.928034 1_455
F7 Li3 1.980618 1_555
F7 Li1 1.997738 1_455
F7 Li0 2.025415 1_545
