# generated using pymatgen
data_Li3MnSi2O7
_symmetry_space_group_name_H-M   'P 1'
_cell_length_a   13.04681500
_cell_length_b   8.53741800
_cell_length_c   8.59223608
_cell_angle_alpha   61.47700418
_cell_angle_beta   90.00000000
_cell_angle_gamma   90.00000000
_symmetry_Int_Tables_number   1
_chemical_formula_structural   Li3MnSi2O7
_chemical_formula_sum   'Li18 Mn6 Si12 O42'
_cell_volume   840.89364495
_cell_formula_units_Z   6
loop_
 _symmetry_equiv_pos_site_id
 _symmetry_equiv_pos_as_xyz
  1  'x, y, z'
loop_
 _atom_site_type_symbol
 _atom_site_label
 _atom_site_symmetry_multiplicity
 _atom_site_fract_x
 _atom_site_fract_y
 _atom_site_fract_z
 _atom_site_occupancy
  Li  Li0  1  0.10059200  0.02735700  0.66143600  1
  Li  Li1  1  0.43574200  0.02769100  0.66497100  1
  Li  Li2  1  0.78213600  0.33119700  0.34355200  1
  Li  Li3  1  0.26651400  0.33914700  0.31917800  1
  Li  Li4  1  0.53607300  0.99892000  0.00163300  1
  Li  Li5  1  0.03607300  0.00108000  0.99836700  1
  Li  Li6  1  0.43243900  0.31368400  0.01694800  1
  Li  Li7  1  0.10517000  0.31147200  0.01900200  1
  Li  Li8  1  0.10009700  0.66882300  0.30366700  1
  Li  Li9  1  0.43524100  0.67013500  0.30357200  1
  Li  Li10  1  0.93524100  0.32986500  0.69642800  1
  Li  Li11  1  0.60009700  0.33117700  0.69633300  1
  Li  Li12  1  0.60517000  0.68852800  0.98099800  1
  Li  Li13  1  0.93243900  0.68631600  0.98305200  1
  Li  Li14  1  0.76651400  0.66085300  0.68082200  1
  Li  Li15  1  0.28213600  0.66880300  0.65644800  1
  Li  Li16  1  0.93574200  0.97230900  0.33502900  1
  Li  Li17  1  0.60059200  0.97264300  0.33856400  1
  Mn  Mn0  1  0.76881400  0.01746000  0.97387200  1
  Mn  Mn1  1  0.26881400  0.98254000  0.02612800  1
  Mn  Mn2  1  0.49133800  0.33504200  0.33187900  1
  Mn  Mn3  1  0.04356400  0.33600800  0.33186100  1
  Mn  Mn4  1  0.54356400  0.66399200  0.66813900  1
  Mn  Mn5  1  0.99133800  0.66495800  0.66812100  1
  Si  Si0  1  0.65383400  0.02232300  0.65249700  1
  Si  Si1  1  0.87929900  0.02084900  0.65229600  1
  Si  Si2  1  0.87889200  0.32595700  0.03243200  1
  Si  Si3  1  0.65658400  0.32460500  0.03442000  1
  Si  Si4  1  0.88120100  0.65345000  0.32869700  1
  Si  Si5  1  0.65356500  0.64866200  0.32904500  1
  Si  Si6  1  0.15356500  0.35133800  0.67095500  1
  Si  Si7  1  0.38120100  0.34655000  0.67130300  1
  Si  Si8  1  0.15658400  0.67539500  0.96558000  1
  Si  Si9  1  0.37889200  0.67404300  0.96756800  1
  Si  Si10  1  0.37929900  0.97915100  0.34770400  1
  Si  Si11  1  0.15383400  0.97767700  0.34750300  1
  O  O0  1  0.15108300  0.13769000  0.79228400  1
  O  O1  1  0.37907800  0.13794700  0.78994000  1
  O  O2  1  0.76689600  0.12163200  0.56949600  1
  O  O3  1  0.96258800  0.18227900  0.57837000  1
  O  O4  1  0.57061800  0.18052600  0.58287400  1
  O  O5  1  0.39662200  0.12771500  0.41436100  1
  O  O6  1  0.14065200  0.12652100  0.41415100  1
  O  O7  1  0.16105300  0.07306300  0.13024200  1
  O  O8  1  0.13579900  0.42125300  0.45673700  1
  O  O9  1  0.37103500  0.07963800  0.12855400  1
  O  O10  1  0.39816300  0.42260000  0.45548200  1
  O  O11  1  0.96629500  0.24557700  0.19117400  1
  O  O12  1  0.56774700  0.24311900  0.18987700  1
  O  O13  1  0.76809000  0.29359100  0.14297800  1
  O  O14  1  0.65786600  0.19969600  0.93572400  1
  O  O15  1  0.76731800  0.56427400  0.31699200  1
  O  O16  1  0.87535200  0.20413600  0.93169700  1
  O  O17  1  0.56984700  0.56100000  0.24613500  1
  O  O18  1  0.96358800  0.56590200  0.24616300  1
  O  O19  1  0.38818200  0.46631400  0.10652400  1
  O  O20  1  0.14449300  0.46823000  0.10689400  1
  O  O21  1  0.64449300  0.53177000  0.89310600  1
  O  O22  1  0.88818200  0.53368600  0.89347600  1
  O  O23  1  0.46358800  0.43409800  0.75383700  1
  O  O24  1  0.06984700  0.43900000  0.75386500  1
  O  O25  1  0.37535200  0.79586400  0.06830300  1
  O  O26  1  0.26731800  0.43572600  0.68300800  1
  O  O27  1  0.15786600  0.80030400  0.06427600  1
  O  O28  1  0.26809000  0.70640900  0.85702200  1
  O  O29  1  0.06774700  0.75688100  0.81012300  1
  O  O30  1  0.46629500  0.75442300  0.80882600  1
  O  O31  1  0.89816300  0.57740000  0.54451800  1
  O  O32  1  0.87103500  0.92036200  0.87144600  1
  O  O33  1  0.63579900  0.57874700  0.54326300  1
  O  O34  1  0.66105300  0.92693700  0.86975800  1
  O  O35  1  0.64065200  0.87347900  0.58584900  1
  O  O36  1  0.89662200  0.87228500  0.58563900  1
  O  O37  1  0.07061800  0.81947400  0.41712600  1
  O  O38  1  0.46258800  0.81772100  0.42163000  1
  O  O39  1  0.26689600  0.87836800  0.43050400  1
  O  O40  1  0.87907800  0.86205300  0.21006000  1
  O  O41  1  0.65108300  0.86231000  0.20771600  1
loop_
_geom_bond_atom_site_label_1
_geom_bond_atom_site_label_2
_geom_bond_distance
_geom_bond_site_symmetry_2
Li0 O0 1.896477 1_555
Li0 O6 1.945890 1_555
Li0 O29 2.081016 1_545
Li0 O3 2.144544 1_455
Li1 O1 1.884365 1_555
Li1 O5 1.967315 1_555
Li1 O30 2.091796 1_545
Li1 O4 2.101825 1_555
Li2 O15 1.901414 1_555
Li2 O13 1.906598 1_555
Li2 O2 1.921538 1_555
Li3 O19 2.267716 1_555
Li3 O20 2.270717 1_555
Li3 O6 2.289744 1_555
Li3 O5 2.323533 1_555
Li3 O8 2.363901 1_555
Li3 O10 2.371974 1_555
Li4 O41 2.185160 1_555
Li4 O14 2.203809 1_564
Li4 O34 2.232810 1_554
Li5 O0 2.185160 1_555
Li5 O27 2.203809 1_546
Li5 O7 2.232810 1_556
Li6 O19 1.892503 1_555
Li6 O9 1.929778 1_555
Li6 O23 2.028120 1_554
Li6 O12 2.198231 1_555
Li7 O20 1.894679 1_555
Li7 O7 1.931332 1_555
Li7 O24 2.053983 1_554
Li7 O11 2.234509 1_455
Li8 O8 1.938886 1_555
Li8 O27 1.963135 1_555
Li8 O37 1.987454 1_555
Li8 O18 2.145415 1_455
Li9 O10 1.941503 1_555
Li9 O25 1.943412 1_555
Li9 O38 1.991110 1_555
Li9 O17 2.152901 1_555
Li10 O31 1.941503 1_555
Li10 O16 1.943412 1_555
Li10 O3 1.991110 1_555
Li10 O24 2.152901 1_655
Li11 O33 1.938886 1_555
Li11 O14 1.963135 1_555
Li11 O4 1.987454 1_555
Li11 O23 2.145415 1_555
Li12 O21 1.894679 1_555
Li12 O34 1.931332 1_555
Li12 O17 2.053983 1_556
Li12 O30 2.234509 1_555
Li13 O22 1.892503 1_555
Li13 O32 1.929778 1_555
Li13 O18 2.028120 1_556
Li13 O29 2.198231 1_655
Li14 O22 2.267716 1_555
Li14 O21 2.270717 1_555
Li14 O35 2.289744 1_555
Li14 O36 2.323533 1_555
Li14 O33 2.363901 1_555
Li14 O31 2.371974 1_555
Li15 O26 1.901414 1_555
Li15 O28 1.906598 1_555
Li15 O39 1.921538 1_555
Li16 O40 1.884365 1_555
Li16 O36 1.967315 1_555
Li16 O11 2.091796 1_565
Li16 O37 2.101825 1_655
Li17 O41 1.896477 1_555
Li17 O35 1.945890 1_555
Li17 O12 2.081016 1_565
Li17 O38 2.144544 1_555
Mn0 O32 1.984209 1_545
Mn0 O34 2.008594 1_545
Mn0 O16 2.012905 1_555
Mn0 O14 2.033792 1_555
Mn0 O40 2.318803 1_546
Mn0 O41 2.368377 1_546
Mn1 O9 1.984209 1_565
Mn1 O7 2.008594 1_565
Mn1 O25 2.012905 1_555
Mn1 O27 2.033792 1_555
Mn1 O1 2.318803 1_564
Mn1 O0 2.368377 1_564
Mn2 O10 1.980565 1_555
Mn2 O17 1.988985 1_555
Mn2 O5 1.991065 1_555
Mn2 O12 2.003204 1_555
Mn2 O4 2.178090 1_555
Mn2 O19 2.178111 1_555
Mn3 O8 1.968442 1_555
Mn3 O11 1.991199 1_455
Mn3 O6 2.023711 1_555
Mn3 O18 2.025569 1_455
Mn3 O20 2.158876 1_555
Mn3 O3 2.161028 1_455
Mn4 O33 1.968442 1_555
Mn4 O30 1.991199 1_555
Mn4 O35 2.023711 1_555
Mn4 O23 2.025569 1_555
Mn4 O21 2.158876 1_555
Mn4 O38 2.161028 1_555
Mn5 O31 1.980565 1_555
Mn5 O24 1.988985 1_655
Mn5 O36 1.991065 1_555
Mn5 O29 2.003204 1_655
Mn5 O37 2.178090 1_655
Mn5 O22 2.178111 1_555
O0 Si6 1.612091 1_555
O1 Si7 1.574109 1_555
O2 Si1 1.677050 1_555
O2 Si0 1.681042 1_555
O3 Si1 1.627166 1_555
O4 Si0 1.609105 1_555
O5 Si10 1.637552 1_545
O6 Si11 1.633178 1_545
O7 Si11 1.644689 1_545
O8 Si6 1.657898 1_555
O9 Si10 1.658464 1_545
O10 Si7 1.661152 1_555
O11 Si2 1.654611 1_555
O12 Si3 1.650472 1_555
O13 Si2 1.678596 1_555
O13 Si3 1.679498 1_555
O14 Si3 1.649327 1_556
O15 Si5 1.674405 1_555
O15 Si4 1.694255 1_555
O16 Si2 1.640936 1_556
O17 Si5 1.664269 1_555
O18 Si4 1.650194 1_555
O19 Si9 1.600999 1_554
O20 Si8 1.605115 1_554
O21 Si3 1.605115 1_556
O22 Si2 1.600999 1_556
O23 Si7 1.650194 1_555
O24 Si6 1.664269 1_555
O25 Si9 1.640936 1_554
O26 Si6 1.674405 1_555
O26 Si7 1.694255 1_555
O27 Si8 1.649327 1_554
O28 Si9 1.678596 1_555
O28 Si8 1.679498 1_555
O29 Si8 1.650472 1_555
O30 Si9 1.654611 1_555
O31 Si4 1.661152 1_555
O32 Si1 1.658464 1_565
O33 Si5 1.657898 1_555
O34 Si0 1.644689 1_565
O35 Si0 1.633178 1_565
O36 Si1 1.637552 1_565
O37 Si11 1.609105 1_555
O38 Si10 1.627166 1_555
O39 Si10 1.677050 1_555
O39 Si11 1.681042 1_555
O40 Si4 1.574109 1_555
O41 Si5 1.612091 1_555
