# generated using pymatgen
data_V2Fe3Te(PO4)6
_symmetry_space_group_name_H-M   'P 1'
_cell_length_a   8.60597556
_cell_length_b   8.60597556
_cell_length_c   8.60597528
_cell_angle_alpha   61.06134477
_cell_angle_beta   61.06134477
_cell_angle_gamma   61.06134924
_symmetry_Int_Tables_number   1
_chemical_formula_structural   V2Fe3Te(PO4)6
_chemical_formula_sum   'V2 Fe3 Te1 P6 O24'
_cell_volume   461.46787824
_cell_formula_units_Z   1
loop_
 _symmetry_equiv_pos_site_id
 _symmetry_equiv_pos_as_xyz
  1  'x, y, z'
loop_
 _atom_site_type_symbol
 _atom_site_label
 _atom_site_symmetry_multiplicity
 _atom_site_fract_x
 _atom_site_fract_y
 _atom_site_fract_z
 _atom_site_occupancy
  V  V0  1  0.00217700  0.00217700  0.00217700  1
  V  V1  1  0.49869300  0.49869300  0.49869300  1
  Fe  Fe0  1  0.35306600  0.35306600  0.35306600  1
  Fe  Fe1  1  0.14667200  0.14667200  0.14667200  1
  Fe  Fe2  1  0.64509000  0.64509000  0.64509000  1
  Te  Te0  1  0.85216500  0.85216500  0.85216500  1
  P  P0  1  0.74740100  0.05257500  0.44271800  1
  P  P1  1  0.05257500  0.44271800  0.74740100  1
  P  P2  1  0.44271800  0.74740100  0.05257500  1
  P  P3  1  0.53999100  0.25781400  0.95388800  1
  P  P4  1  0.95388800  0.53999100  0.25781400  1
  P  P5  1  0.25781400  0.95388800  0.53999100  1
  O  O0  1  0.88996200  0.49954500  0.68400400  1
  O  O1  1  0.49954500  0.68400400  0.88996200  1
  O  O2  1  0.68400400  0.88996200  0.49954500  1
  O  O3  1  0.90640600  0.06586600  0.24869500  1
  O  O4  1  0.82021300  0.02427100  0.59110700  1
  O  O5  1  0.59094400  0.24830900  0.42890400  1
  O  O6  1  0.06586600  0.24869500  0.90640600  1
  O  O7  1  0.24830900  0.42890400  0.59094400  1
  O  O8  1  0.39283000  0.17896200  0.99720900  1
  O  O9  1  0.42890400  0.59094400  0.24830900  1
  O  O10  1  0.74228000  0.10199300  0.94335200  1
  O  O11  1  0.99720900  0.39283000  0.17896200  1
  O  O12  1  0.02427100  0.59110700  0.82021300  1
  O  O13  1  0.24869500  0.90640600  0.06586600  1
  O  O14  1  0.56031800  0.40877000  0.75324400  1
  O  O15  1  0.59110700  0.82021300  0.02427100  1
  O  O16  1  0.75324400  0.56031800  0.40877000  1
  O  O17  1  0.94335200  0.74228000  0.10199300  1
  O  O18  1  0.40877000  0.75324400  0.56031800  1
  O  O19  1  0.17896200  0.99720900  0.39283000  1
  O  O20  1  0.10199300  0.94335200  0.74228000  1
  O  O21  1  0.33190700  0.10441500  0.49424400  1
  O  O22  1  0.49424400  0.33190700  0.10441500  1
  O  O23  1  0.10441500  0.49424400  0.33190700  1
loop_
_geom_bond_atom_site_label_1
_geom_bond_atom_site_label_2
_geom_bond_distance
_geom_bond_site_symmetry_2
Fe0 O22 1.932710 1_555
Fe0 O21 1.932710 1_555
Fe0 O23 1.932710 1_555
Fe0 O7 2.089777 1_555
Fe0 O9 2.089777 1_555
Fe0 O5 2.089777 1_555
Fe1 O19 1.950964 1_545
Fe1 O8 1.950964 1_554
Fe1 O11 1.950964 1_455
Fe1 O6 2.138625 1_554
Fe1 O3 2.138625 1_455
Fe1 O13 2.138625 1_545
Fe2 O1 1.960768 1_555
Fe2 O2 1.960768 1_555
Fe2 O0 1.960768 1_555
Fe2 O14 2.116976 1_555
Fe2 O16 2.116976 1_555
Fe2 O18 2.116976 1_555
O0 P1 1.521066 1_655
O1 P2 1.521066 1_556
O2 P0 1.521066 1_565
O3 P0 1.558565 1_555
O3 V0 2.115792 1_655
O4 P0 1.551920 1_555
O4 Te0 2.073714 1_545
O5 P0 1.559087 1_555
O5 V1 2.183947 1_555
O6 P1 1.558565 1_555
O6 V0 2.115792 1_556
O7 P1 1.559087 1_555
O7 V1 2.183947 1_555
O8 P3 1.527532 1_555
O9 P2 1.559087 1_555
O9 V1 2.183947 1_555
O10 P3 1.594640 1_555
O10 V0 2.193730 1_656
O10 Te0 2.253818 1_545
O11 P4 1.527532 1_555
O12 P1 1.551920 1_555
O12 Te0 2.073714 1_455
O13 P2 1.558565 1_555
O13 V0 2.115792 1_565
O14 P3 1.567375 1_555
O14 V1 2.183041 1_555
O15 P2 1.551920 1_555
O15 Te0 2.073714 1_554
O16 P4 1.567375 1_555
O16 V1 2.183041 1_555
O17 P4 1.594640 1_555
O17 V0 2.193730 1_665
O17 Te0 2.253818 1_554
O18 P5 1.567375 1_555
O18 V1 2.183041 1_555
O19 P5 1.527532 1_555
O20 P5 1.594640 1_555
O20 V0 2.193730 1_566
O20 Te0 2.253818 1_455
O21 P5 1.517435 1_545
O22 P3 1.517435 1_554
O23 P4 1.517435 1_455
