# generated using pymatgen
data_Sr4Cu2O7
_symmetry_space_group_name_H-M   'P 1'
_cell_length_a   5.44949814
_cell_length_b   6.72667554
_cell_length_c   10.74960988
_cell_angle_alpha   66.31693909
_cell_angle_beta   90.00000000
_cell_angle_gamma   90.00000000
_symmetry_Int_Tables_number   1
_chemical_formula_structural   Sr4Cu2O7
_chemical_formula_sum   'Sr8 Cu4 O14'
_cell_volume   360.86229269
_cell_formula_units_Z   2
loop_
 _symmetry_equiv_pos_site_id
 _symmetry_equiv_pos_as_xyz
  1  'x, y, z'
loop_
 _atom_site_type_symbol
 _atom_site_label
 _atom_site_symmetry_multiplicity
 _atom_site_fract_x
 _atom_site_fract_y
 _atom_site_fract_z
 _atom_site_occupancy
  Sr  Sr0  1  0.76591961  0.28751833  0.56008365  1
  Sr  Sr1  1  0.72454899  0.71237184  0.20480038  1
  Sr  Sr2  1  0.73408039  0.28751833  0.06008365  1
  Sr  Sr3  1  0.22454899  0.28762816  0.29519962  1
  Sr  Sr4  1  0.23408039  0.71248167  0.43991635  1
  Sr  Sr5  1  0.77545101  0.71237184  0.70480038  1
  Sr  Sr6  1  0.27545101  0.28762816  0.79519962  1
  Sr  Sr7  1  0.26591961  0.71248167  0.93991635  1
  Cu  Cu0  1  0.74340025  0.99929092  0.38272831  1
  Cu  Cu1  1  0.25659975  0.00070908  0.61727169  1
  Cu  Cu2  1  0.75659975  0.99929092  0.88272831  1
  Cu  Cu3  1  0.24340025  0.00070908  0.11727169  1
  O  O0  1  0.72638445  0.30799211  0.31056269  1
  O  O1  1  0.73493114  0.69053275  0.46439850  1
  O  O2  1  0.49253107  0.99921387  0.27408479  1
  O  O3  1  -0.00000000  0.00000000  0.50000000  1
  O  O4  1  0.50000000  0.00000000  0.00000000  1
  O  O5  1  0.99253107  0.00078613  0.22591521  1
  O  O6  1  0.26506886  0.30946725  0.53560150  1
  O  O7  1  0.50746893  0.00078613  0.72591521  1
  O  O8  1  0.22638445  0.69200789  0.18943731  1
  O  O9  1  0.76506886  0.69053275  0.96439850  1
  O  O10  1  0.77361555  0.30799211  0.81056269  1
  O  O11  1  0.23493114  0.30946725  0.03560150  1
  O  O12  1  0.27361555  0.69200789  0.68943731  1
  O  O13  1  0.00746893  0.99921387  0.77408479  1
loop_
_geom_bond_atom_site_label_1
_geom_bond_atom_site_label_2
_geom_bond_distance
_geom_bond_site_symmetry_2
Cu0 O2 1.798169 1_555
Cu0 O3 1.883981 1_665
Cu0 O1 1.903062 1_555
Cu0 O0 1.904803 1_565
Cu0 O5 2.161291 1_565
Cu1 O7 1.798169 1_555
Cu1 O3 1.883981 1_555
Cu1 O6 1.903062 1_555
Cu1 O12 1.904803 1_545
Cu1 O13 2.161291 1_545
Cu2 O13 1.798169 1_655
Cu2 O4 1.883981 1_566
Cu2 O9 1.903062 1_555
Cu2 O10 1.904803 1_565
Cu2 O7 2.161291 1_565
Cu3 O5 1.798169 1_455
Cu3 O4 1.883981 1_555
Cu3 O11 1.903062 1_555
Cu3 O8 1.904803 1_545
Cu3 O2 2.161291 1_545
O0 Sr1 2.491459 1_555
O0 Sr0 2.638770 1_555
O0 Sr3 2.726547 1_655
O0 Sr3 2.746466 1_555
O0 Sr2 2.751084 1_555
O1 Sr0 2.489103 1_555
O1 Sr5 2.655851 1_555
O1 Sr4 2.731091 1_655
O1 Sr1 2.735466 1_555
O1 Sr4 2.740326 1_555
O2 Sr4 2.473738 1_555
O2 Sr3 2.510342 1_565
O2 Sr1 2.651558 1_555
O2 Sr2 2.683595 1_565
O3 Sr3 2.581786 1_555
O3 Sr5 2.581786 1_445
O3 Sr0 2.605455 1_455
O3 Sr4 2.605455 1_545
O4 Sr1 2.581786 1_545
O4 Sr6 2.581786 1_554
O4 Sr2 2.605455 1_555
O4 Sr7 2.605455 1_544
O5 Sr2 2.473738 1_555
O5 Sr1 2.510342 1_545
O5 Sr3 2.651558 1_655
O5 Sr4 2.683595 1_645
O6 Sr4 2.489103 1_555
O6 Sr3 2.655851 1_555
O6 Sr0 2.731091 1_455
O6 Sr6 2.735466 1_555
O6 Sr0 2.740326 1_555
O7 Sr0 2.473738 1_555
O7 Sr5 2.510342 1_545
O7 Sr6 2.651558 1_555
O7 Sr7 2.683595 1_545
O8 Sr3 2.491459 1_555
O8 Sr7 2.638770 1_554
O8 Sr1 2.726547 1_555
O8 Sr1 2.746466 1_455
O8 Sr4 2.751084 1_555
O9 Sr2 2.489103 1_556
O9 Sr1 2.655851 1_556
O9 Sr7 2.731091 1_555
O9 Sr5 2.735466 1_555
O9 Sr7 2.740326 1_655
O10 Sr5 2.491459 1_555
O10 Sr2 2.638770 1_556
O10 Sr6 2.726547 1_555
O10 Sr6 2.746466 1_655
O10 Sr0 2.751084 1_555
O11 Sr7 2.489103 1_554
O11 Sr6 2.655851 1_554
O11 Sr2 2.731091 1_555
O11 Sr3 2.735466 1_555
O11 Sr2 2.740326 1_455
O12 Sr6 2.491459 1_555
O12 Sr4 2.638770 1_555
O12 Sr5 2.726547 1_455
O12 Sr5 2.746466 1_555
O12 Sr7 2.751084 1_555
O13 Sr7 2.473738 1_555
O13 Sr6 2.510342 1_565
O13 Sr5 2.651558 1_455
O13 Sr0 2.683595 1_465
