# generated using pymatgen
data_LiV4O5F7
_symmetry_space_group_name_H-M   'P 1'
_cell_length_a   5.14683800
_cell_length_b   5.33954745
_cell_length_c   7.58296122
_cell_angle_alpha   86.83283750
_cell_angle_beta   89.47336438
_cell_angle_gamma   87.85469520
_symmetry_Int_Tables_number   1
_chemical_formula_structural   LiV4O5F7
_chemical_formula_sum   'Li1 V4 O5 F7'
_cell_volume   207.92387674
_cell_formula_units_Z   1
loop_
 _symmetry_equiv_pos_site_id
 _symmetry_equiv_pos_as_xyz
  1  'x, y, z'
loop_
 _atom_site_type_symbol
 _atom_site_label
 _atom_site_symmetry_multiplicity
 _atom_site_fract_x
 _atom_site_fract_y
 _atom_site_fract_z
 _atom_site_occupancy
  Li  Li0  1  0.49325400  0.08315900  0.80189900  1
  V  V0  1  0.01208000  0.97317800  0.50232600  1
  V  V1  1  0.47514500  0.46850400  0.49907800  1
  V  V2  1  0.48473200  0.51657200  0.02618900  1
  V  V3  1  0.99509600  0.00466900  0.00407100  1
  O  O0  1  0.20676900  0.71402000  0.54197900  1
  O  O1  1  0.29832000  0.20788700  0.55241400  1
  O  O2  1  0.29337800  0.81895300  0.94326400  1
  O  O3  1  0.41166400  0.49679700  0.24660100  1
  O  O4  1  0.71814200  0.20641400  0.02507300  1
  F  F0  1  0.10305000  0.01163400  0.25159500  1
  F  F1  1  0.21188500  0.30583700  0.93814600  1
  F  F2  1  0.58937000  0.48485100  0.74685200  1
  F  F3  1  0.69911000  0.78394600  0.45694500  1
  F  F4  1  0.80375000  0.28632200  0.44929700  1
  F  F5  1  0.80287000  0.69800700  0.05167600  1
  F  F6  1  0.86995300  0.99462500  0.74260100  1
loop_
_geom_bond_atom_site_label_1
_geom_bond_atom_site_label_2
_geom_bond_distance
_geom_bond_site_symmetry_2
Li0 O2 2.029498 1_545
Li0 O4 2.202930 1_556
Li0 O1 2.207901 1_555
O0 V0 1.692660 1_555
O0 V1 1.906740 1_555
O1 V1 1.718774 1_555
O1 V0 2.021483 1_545
O2 V3 1.864500 1_466
O2 V2 1.937107 1_556
O3 V2 1.708213 1_555
O3 V1 1.941859 1_555
O4 V3 1.765637 1_555
O4 V2 2.009562 1_555
F0 V0 1.955494 1_545
F0 V3 1.965077 1_455
F1 V2 1.975467 1_556
F1 V3 2.028819 1_456
F1 Li0 2.134859 1_555
F2 V1 1.981320 1_555
F2 V2 2.194847 1_556
F2 Li0 2.235189 1_555
F3 V0 1.975985 1_655
F3 V1 2.084915 1_555
F4 V1 1.963380 1_555
F4 V0 1.976498 1_645
F5 V2 1.949936 1_555
F5 V3 1.959526 1_565
F6 V0 1.964731 1_655
F6 Li0 2.030637 1_565
F6 V3 2.094447 1_566
