# generated using pymatgen
data_Hf2N2O
_symmetry_space_group_name_H-M   'P 1'
_cell_length_a   8.64742078
_cell_length_b   8.67010164
_cell_length_c   8.68902345
_cell_angle_alpha   109.52160885
_cell_angle_beta   109.42631288
_cell_angle_gamma   109.32468777
_symmetry_Int_Tables_number   1
_chemical_formula_structural   Hf2N2O
_chemical_formula_sum   'Hf16 N16 O8'
_cell_volume   502.35717468
_cell_formula_units_Z   8
loop_
 _symmetry_equiv_pos_site_id
 _symmetry_equiv_pos_as_xyz
  1  'x, y, z'
loop_
 _atom_site_type_symbol
 _atom_site_label
 _atom_site_symmetry_multiplicity
 _atom_site_fract_x
 _atom_site_fract_y
 _atom_site_fract_z
 _atom_site_occupancy
  Hf  Hf0  1  0.21910436  0.25813268  0.97710584  1
  Hf  Hf1  1  0.99575375  0.48888346  0.99152591  1
  Hf  Hf2  1  0.75290952  0.97239934  0.72163189  1
  Hf  Hf3  1  0.24493561  0.53173180  0.78362972  1
  Hf  Hf4  1  0.53783775  0.78343665  0.25219947  1
  Hf  Hf5  1  0.03843928  0.28191820  0.25288077  1
  Hf  Hf6  1  0.51221485  0.01906985  0.00582760  1
  Hf  Hf7  1  0.72285900  0.25569316  0.47044984  1
  Hf  Hf8  1  0.49974860  0.49039984  0.50189915  1
  Hf  Hf9  1  0.28849381  0.75330283  0.54128019  1
  Hf  Hf10  1  0.98909189  0.99070750  0.48366940  1
  Hf  Hf11  1  0.46651061  0.21025739  0.74798935  1
  Hf  Hf12  1  0.95268660  0.70985000  0.74065796  1
  Hf  Hf13  1  0.25090911  0.03877963  0.29174048  1
  Hf  Hf14  1  0.74361538  0.46219060  0.20920076  1
  Hf  Hf15  1  0.78538299  0.74737200  0.03179453  1
  N  N0  1  0.27674255  0.53540632  0.04807358  1
  N  N1  1  0.26100186  0.49242663  0.53799449  1
  N  N2  1  0.76940917  0.04353027  0.51307082  1
  N  N3  1  0.27586058  0.26188187  0.22883675  1
  N  N4  1  0.46410259  0.23656053  0.00695120  1
  N  N5  1  0.97025606  0.46107337  0.72985158  1
  N  N6  1  0.22254134  0.94949259  0.48909011  1
  N  N7  1  0.73051083  0.74312604  0.77530038  1
  N  N8  1  0.77147139  0.22678171  0.23716004  1
  N  N9  1  0.98980379  0.03220289  0.26100971  1
  N  N10  1  0.54195096  0.00413022  0.77125542  1
  N  N11  1  0.74197128  0.51919639  0.46746956  1
  N  N12  1  0.75579957  0.72709858  0.26967744  1
  N  N13  1  0.95419598  0.22740167  0.96504504  1
  N  N14  1  0.51109633  0.26897639  0.54216365  1
  N  N15  1  0.73093691  0.46780646  0.95342486  1
  O  O0  1  0.48137705  0.72651485  0.45020207  1
  O  O1  1  0.05005671  0.77445109  0.03759636  1
  O  O2  1  0.23433391  0.27216763  0.72565355  1
  O  O3  1  0.44729789  0.98079942  0.21735691  1
  O  O4  1  0.22908481  0.77637305  0.76761437  1
  O  O5  1  0.01998269  0.96699762  0.74023620  1
  O  O6  1  0.53215412  0.76375961  0.98936515  1
  O  O7  1  0.03756250  0.54771490  0.27211391  1
loop_
_geom_bond_atom_site_label_1
_geom_bond_atom_site_label_2
_geom_bond_distance
_geom_bond_site_symmetry_2
Hf0 N3 2.062531 1_556
Hf0 N0 2.102297 1_556
Hf0 N4 2.126010 1_556
Hf0 N13 2.178832 1_455
Hf0 O5 2.205982 1_545
Hf0 O2 2.272511 1_555
Hf1 N13 2.092576 1_555
Hf1 N5 2.131053 1_555
Hf1 N15 2.136662 1_555
Hf1 N0 2.175525 1_656
Hf1 O7 2.189843 1_656
Hf1 O1 2.225741 1_656
Hf2 N13 2.066431 1_565
Hf2 N10 2.089398 1_565
Hf2 N2 2.131996 1_565
Hf2 N7 2.152021 1_555
Hf2 O5 2.278244 1_655
Hf2 O0 2.294244 1_555
Hf3 N5 2.083955 1_455
Hf3 O2 2.098037 1_555
Hf3 N1 2.105536 1_555
Hf3 O6 2.178912 1_555
Hf3 N0 2.209354 1_556
Hf3 O4 2.216768 1_555
Hf4 N12 2.069456 1_555
Hf4 O0 2.099671 1_555
Hf4 N0 2.107518 1_555
Hf4 O3 2.169778 1_555
Hf4 N2 2.192942 1_565
Hf4 O6 2.215071 1_554
Hf5 N9 2.094912 1_455
Hf5 N8 2.143112 1_455
Hf5 N1 2.157376 1_555
Hf5 N13 2.186155 1_454
Hf5 N3 2.187712 1_555
Hf5 O7 2.256913 1_555
Hf6 N8 2.054428 1_555
Hf6 N4 2.058776 1_555
Hf6 N10 2.105090 1_554
Hf6 O3 2.184958 1_545
Hf6 O6 2.237736 1_544
Hf6 O4 2.239387 1_544
Hf7 N5 2.101602 1_555
Hf7 N2 2.128152 1_555
Hf7 N14 2.146039 1_555
Hf7 N8 2.155341 1_555
Hf7 N11 2.244965 1_555
Hf7 O3 2.333939 1_545
Hf8 N14 2.090035 1_555
Hf8 N3 2.137096 1_555
Hf8 N11 2.158659 1_555
Hf8 N1 2.193640 1_555
Hf8 N7 2.213731 1_555
Hf8 O0 2.280384 1_555
Hf9 N6 2.099952 1_555
Hf9 O0 2.115145 1_555
Hf9 N10 2.133993 1_565
Hf9 O7 2.152636 1_555
Hf9 O4 2.156086 1_555
Hf9 N1 2.183947 1_555
Hf10 N9 2.084264 1_565
Hf10 N12 2.088969 1_555
Hf10 N6 2.151891 1_655
Hf10 N2 2.168933 1_565
Hf10 O5 2.242756 1_655
Hf10 O2 2.247889 1_665
Hf11 N14 2.131561 1_555
Hf11 N10 2.141421 1_555
Hf11 N15 2.154714 1_555
Hf11 N4 2.192457 1_556
Hf11 O2 2.209174 1_555
Hf11 N6 2.215872 1_545
Hf12 N11 2.047994 1_555
Hf12 O5 2.111280 1_655
Hf12 N7 2.135073 1_555
Hf12 O4 2.173751 1_655
Hf12 N5 2.185228 1_555
Hf12 O1 2.226341 1_656
Hf13 O1 2.139455 1_545
Hf13 N3 2.143756 1_555
Hf13 O3 2.152326 1_545
Hf13 N6 2.154345 1_545
Hf13 N14 2.156222 1_555
Hf13 N9 2.162447 1_455
Hf14 N4 2.122472 1_555
Hf14 N12 2.135140 1_555
Hf14 N11 2.136607 1_555
Hf14 O7 2.206169 1_655
Hf14 N15 2.206222 1_554
Hf14 N8 2.213742 1_555
Hf15 N7 2.103259 1_554
Hf15 N15 2.118684 1_554
Hf15 O6 2.157578 1_554
Hf15 N9 2.161431 1_565
Hf15 O1 2.203569 1_655
Hf15 N12 2.221147 1_555
