# generated using pymatgen
data_Li7VO5F
_symmetry_space_group_name_H-M   'P 1'
_cell_length_a   5.59113500
_cell_length_b   5.59565193
_cell_length_c   10.79765141
_cell_angle_alpha   89.00030857
_cell_angle_beta   88.71638434
_cell_angle_gamma   60.39483906
_symmetry_Int_Tables_number   1
_chemical_formula_structural   Li7VO5F
_chemical_formula_sum   'Li14 V2 O10 F2'
_cell_volume   293.63248802
_cell_formula_units_Z   2
loop_
 _symmetry_equiv_pos_site_id
 _symmetry_equiv_pos_as_xyz
  1  'x, y, z'
loop_
 _atom_site_type_symbol
 _atom_site_label
 _atom_site_symmetry_multiplicity
 _atom_site_fract_x
 _atom_site_fract_y
 _atom_site_fract_z
 _atom_site_occupancy
  Li  Li0  1  0.35663500  0.98231000  0.75797500  1
  Li  Li1  1  0.39293300  0.62971900  0.62956000  1
  Li  Li2  1  0.65113900  0.66958800  0.42844600  1
  Li  Li3  1  0.67079100  0.64811700  0.90860400  1
  Li  Li4  1  0.95360500  0.73214000  0.75728100  1
  Li  Li5  1  0.70652300  0.29162600  0.76956700  1
  Li  Li6  1  0.99259200  0.38735700  0.62743900  1
  Li  Li7  1  0.26822400  0.68596100  0.26671100  1
  Li  Li8  1  0.01032300  0.34228100  0.25864000  1
  Li  Li9  1  0.34716800  0.31440500  0.40993000  1
  Li  Li10  1  0.31526100  0.34428000  0.92899600  1
  Li  Li11  1  0.61277400  0.38137900  0.12805700  1
  Li  Li12  1  0.36967000  0.02627900  0.12822100  1
  Li  Li13  1  0.70493600  0.00093700  0.26118800  1
  V  V0  1  0.00869100  0.98106500  0.99521500  1
  V  V1  1  0.98354400  0.00673000  0.49537200  1
  O  O0  1  0.02692400  0.00111600  0.66858800  1
  O  O1  1  0.30422400  0.68442500  0.45223400  1
  O  O2  1  0.69908400  0.98182100  0.44051200  1
  O  O3  1  0.67734600  0.63658200  0.72158900  1
  O  O4  1  0.98937400  0.69546600  0.93783900  1
  O  O5  1  0.99530600  0.31287100  0.44788700  1
  O  O6  1  0.35854400  0.31737100  0.22258900  1
  O  O7  1  0.31284700  0.00006600  0.94880200  1
  O  O8  1  0.68424200  0.29951200  0.95206700  1
  O  O9  1  0.00257600  0.02509200  0.16842100  1
  F  F0  1  0.63614000  0.67825700  0.21884800  1
  F  F1  1  0.31622900  0.35701400  0.71917900  1
loop_
_geom_bond_atom_site_label_1
_geom_bond_atom_site_label_2
_geom_bond_distance
_geom_bond_site_symmetry_2
Li0 O3 1.918271 1_555
Li0 O0 2.055594 1_565
Li0 O7 2.067828 1_565
Li1 O3 1.910519 1_555
Li1 O1 1.969234 1_555
Li1 O0 2.115240 1_565
Li2 O2 1.900951 1_555
Li2 O1 1.911653 1_555
Li2 O5 1.984849 1_555
Li3 O4 1.958843 1_555
Li3 O8 1.963596 1_555
Li3 O3 2.020413 1_555
Li3 O7 2.041767 1_565
Li4 O3 1.915758 1_555
Li4 O4 1.961126 1_555
Li4 O0 1.972875 1_665
Li5 O3 1.917978 1_555
Li5 O8 1.971604 1_555
Li5 O0 2.034106 1_655
Li6 O3 1.904087 1_555
Li6 O5 1.988289 1_555
Li6 O0 2.113234 1_655
Li7 O6 1.931403 1_555
Li7 O1 2.017227 1_555
Li7 O9 2.036915 1_565
Li8 O6 1.913472 1_555
Li8 O5 2.050352 1_455
Li8 O9 2.058939 1_555
Li9 O2 1.957966 1_545
Li9 O5 2.004691 1_455
Li9 O1 2.022419 1_555
Li9 O6 2.022454 1_555
Li10 O4 1.910954 1_455
Li10 O7 1.940868 1_555
Li10 O8 1.972587 1_555
Li11 O6 1.901551 1_555
Li11 O8 1.948353 1_554
Li11 O9 2.152607 1_655
Li12 O6 1.910562 1_555
Li12 O7 1.989757 1_554
Li12 O9 2.091543 1_555
Li13 O6 1.918849 1_555
Li13 O2 1.937802 1_545
Li13 O9 1.983385 1_655
O0 V1 1.889095 1_455
O1 V1 1.865815 1_465
O2 V1 1.778759 1_565
O4 V0 1.776943 1_655
O5 V1 1.811334 1_555
O7 V0 1.814670 1_545
O8 V0 1.870325 1_645
O9 V0 1.887980 1_544
F0 Li11 2.003692 1_555
F0 Li12 2.025298 1_565
F0 Li8 2.054725 1_655
F0 Li13 2.083283 1_565
F0 Li7 2.089499 1_555
F0 Li2 2.265383 1_555
F1 Li1 2.006330 1_555
F1 Li6 2.013761 1_455
F1 Li0 2.031823 1_545
F1 Li5 2.109309 1_555
F1 Li4 2.115154 1_455
F1 Li10 2.265377 1_555
