# generated using pymatgen
data_LiCrPO4
_symmetry_space_group_name_H-M   'P 1'
_cell_length_a   4.98795800
_cell_length_b   7.24224800
_cell_length_c   9.98860000
_cell_angle_alpha   90.00000000
_cell_angle_beta   90.00000000
_cell_angle_gamma   90.00000000
_symmetry_Int_Tables_number   1
_chemical_formula_structural   LiCrPO4
_chemical_formula_sum   'Li4 Cr4 P4 O16'
_cell_volume   360.82847457
_cell_formula_units_Z   4
loop_
 _symmetry_equiv_pos_site_id
 _symmetry_equiv_pos_as_xyz
  1  'x, y, z'
loop_
 _atom_site_type_symbol
 _atom_site_label
 _atom_site_symmetry_multiplicity
 _atom_site_fract_x
 _atom_site_fract_y
 _atom_site_fract_z
 _atom_site_occupancy
  Li  Li0  1  0.19774300  0.28615000  0.15320900  1
  Li  Li1  1  0.69774300  0.78615000  0.34679100  1
  Li  Li2  1  0.30225700  0.28615000  0.65320900  1
  Li  Li3  1  0.80225700  0.78615000  0.84679100  1
  Cr  Cr0  1  0.21407800  0.78581700  0.14243500  1
  Cr  Cr1  1  0.71407800  0.28581700  0.35756500  1
  Cr  Cr2  1  0.28592200  0.78581700  0.64243500  1
  Cr  Cr3  1  0.78592200  0.28581700  0.85756500  1
  P  P0  1  0.68987300  0.53679900  0.09399300  1
  P  P1  1  0.18987300  0.03679900  0.40600700  1
  P  P2  1  0.81012700  0.53679900  0.59399300  1
  P  P3  1  0.31012700  0.03679900  0.90600700  1
  O  O0  1  0.24386700  0.04314700  0.05859000  1
  O  O1  1  0.38152600  0.52650300  0.12019500  1
  O  O2  1  0.81927200  0.36069000  0.15476500  1
  O  O3  1  0.79428600  0.71901500  0.15667900  1
  O  O4  1  0.29428600  0.21901500  0.34332100  1
  O  O5  1  0.31927200  0.86069000  0.34523500  1
  O  O6  1  0.88152600  0.02650300  0.37980500  1
  O  O7  1  0.74386700  0.54314700  0.44141000  1
  O  O8  1  0.25613300  0.04314700  0.55859000  1
  O  O9  1  0.11847400  0.52650300  0.62019500  1
  O  O10  1  0.68072800  0.36069000  0.65476500  1
  O  O11  1  0.70571400  0.71901500  0.65667900  1
  O  O12  1  0.20571400  0.21901500  0.84332100  1
  O  O13  1  0.18072800  0.86069000  0.84523500  1
  O  O14  1  0.61847400  0.02650300  0.87980500  1
  O  O15  1  0.75613300  0.54314700  0.94141000  1
loop_
_geom_bond_atom_site_label_1
_geom_bond_atom_site_label_2
_geom_bond_distance
_geom_bond_site_symmetry_2
Li0 O2 1.963529 1_455
Li0 O1 1.994770 1_555
Li0 O0 2.010813 1_555
Li0 O4 2.018493 1_555
Li1 O5 1.963529 1_555
Li1 O6 1.994770 1_565
Li1 O7 2.010813 1_555
Li1 O3 2.018493 1_555
Li2 O10 1.963529 1_555
Li2 O9 1.994770 1_555
Li2 O8 2.010813 1_555
Li2 O12 2.018493 1_555
Li3 O13 1.963529 1_655
Li3 O14 1.994770 1_565
Li3 O15 2.010813 1_555
Li3 O11 2.018493 1_555
Cr0 O0 2.048574 1_565
Cr0 O1 2.067340 1_555
Cr0 O3 2.153773 1_455
Cr0 O5 2.161657 1_555
Cr1 O7 2.048574 1_555
Cr1 O6 2.067340 1_555
Cr1 O4 2.153773 1_555
Cr1 O2 2.161657 1_555
Cr2 O8 2.048574 1_565
Cr2 O9 2.067340 1_555
Cr2 O11 2.153773 1_555
Cr2 O13 2.161657 1_555
Cr3 O15 2.048574 1_555
Cr3 O14 2.067340 1_555
Cr3 O12 2.153773 1_655
Cr3 O10 2.161657 1_555
O0 P3 1.560191 1_554
O1 P0 1.561912 1_555
O2 P0 1.552991 1_555
O3 P0 1.550737 1_555
O4 P1 1.550737 1_555
O5 P1 1.552991 1_565
O6 P1 1.561912 1_655
O7 P2 1.560191 1_555
O8 P1 1.560191 1_555
O9 P2 1.561912 1_455
O10 P2 1.552991 1_555
O11 P2 1.550737 1_555
O12 P3 1.550737 1_555
O13 P3 1.552991 1_565
O14 P3 1.561912 1_555
O15 P0 1.560191 1_556
