# generated using pymatgen
data_Li4Mn2P4H3O16
_symmetry_space_group_name_H-M   'P 1'
_cell_length_a   5.00215400
_cell_length_b   7.67719259
_cell_length_c   8.24532310
_cell_angle_alpha   91.26490366
_cell_angle_beta   92.33917101
_cell_angle_gamma   100.28625533
_symmetry_Int_Tables_number   1
_chemical_formula_structural   Li4Mn2P4H3O16
_chemical_formula_sum   'Li4 Mn2 P4 H3 O16'
_cell_volume   311.15344439
_cell_formula_units_Z   1
loop_
 _symmetry_equiv_pos_site_id
 _symmetry_equiv_pos_as_xyz
  1  'x, y, z'
loop_
 _atom_site_type_symbol
 _atom_site_label
 _atom_site_symmetry_multiplicity
 _atom_site_fract_x
 _atom_site_fract_y
 _atom_site_fract_z
 _atom_site_occupancy
  Li  Li0  1  0.13634300  0.68887700  0.65110300  1
  Li  Li1  1  0.37814600  0.84268300  0.12737100  1
  Li  Li2  1  0.60616100  0.16118100  0.87546800  1
  Li  Li3  1  0.86268600  0.31134400  0.34544300  1
  Mn  Mn0  1  0.99733700  0.49624000  0.00233300  1
  Mn  Mn1  1  0.49852700  0.00238800  0.49802600  1
  P  P0  1  0.10657200  0.25471300  0.67147300  1
  P  P1  1  0.36354200  0.23512000  0.15065200  1
  P  P2  1  0.63601900  0.75785900  0.84740100  1
  P  P3  1  0.89004400  0.74556400  0.32852600  1
  H  H0  1  0.43040800  0.43996000  0.57804700  1
  H  H1  1  0.56362400  0.55375600  0.41147800  1
  H  H2  1  0.95805000  0.97965600  0.98588400  1
  O  O0  1  0.11361300  0.82768600  0.45188800  1
  O  O1  1  0.98357300  0.30507300  0.83039700  1
  O  O2  1  0.13982800  0.35659200  0.17122900  1
  O  O3  1  0.24071800  0.44550900  0.59489600  1
  O  O4  1  0.41019400  0.67049500  0.95325600  1
  O  O5  1  0.53010600  0.79734100  0.67760000  1
  O  O6  1  0.24052700  0.05584500  0.06582500  1
  O  O7  1  0.33945800  0.15295700  0.69430000  1
  O  O8  1  0.65728800  0.84727700  0.30495700  1
  O  O9  1  0.76390700  0.94619100  0.93151000  1
  O  O10  1  0.46842800  0.20704000  0.32571900  1
  O  O11  1  0.59479600  0.33319700  0.05094200  1
  O  O12  1  0.75853700  0.55630700  0.40894000  1
  O  O13  1  0.86519600  0.64469400  0.83026600  1
  O  O14  1  0.00944900  0.69368000  0.16872000  1
  O  O15  1  0.88580000  0.17267400  0.54645300  1
loop_
_geom_bond_atom_site_label_1
_geom_bond_atom_site_label_2
_geom_bond_distance
_geom_bond_site_symmetry_2
Li0 O0 1.987960 1_555
Li0 O5 1.997946 1_555
Li0 O13 2.039196 1_455
Li0 O3 2.075602 1_555
Li1 O6 1.954473 1_565
Li1 O4 1.960842 1_554
Li1 O8 1.976918 1_555
Li1 O14 2.035010 1_555
Li2 O11 1.946723 1_556
Li2 O7 1.954038 1_555
Li2 O9 2.007336 1_545
Li2 O1 2.062303 1_555
Li2 O6 2.494937 1_556
Li3 O10 1.990247 1_555
Li3 O15 1.999975 1_555
Li3 O2 2.029411 1_655
Li3 O12 2.100232 1_555
Mn0 O2 1.963307 1_655
Mn0 O13 2.003140 1_554
Mn0 O1 2.008117 1_554
Mn0 O14 2.012966 1_655
Mn0 O11 2.229305 1_555
Mn0 O4 2.307339 1_654
Mn1 O15 2.151888 1_555
Mn1 O0 2.155501 1_545
Mn1 O10 2.162227 1_555
Mn1 O5 2.206341 1_545
Mn1 O7 2.222469 1_555
Mn1 O8 2.222645 1_545
H0 O3 0.972822 1_555
H1 O12 0.972770 1_555
H2 O9 1.039411 1_555
H2 O6 1.544322 1_666
O0 P3 1.519798 1_455
O1 P0 1.540621 1_655
O2 P1 1.591210 1_555
O3 P0 1.648910 1_555
O4 P2 1.524276 1_555
O5 P2 1.532408 1_555
O6 P1 1.543382 1_555
O7 P0 1.521961 1_555
O8 P3 1.521839 1_555
O9 P2 1.603088 1_555
O10 P1 1.548449 1_555
O11 P1 1.541062 1_555
O12 P3 1.649315 1_555
O13 P2 1.566024 1_555
O14 P3 1.541964 1_455
O15 P0 1.519494 1_655
