# generated using pymatgen
data_Li2Mn2OF6
_symmetry_space_group_name_H-M   'P 1'
_cell_length_a   5.23864031
_cell_length_b   5.23830811
_cell_length_c   11.17984135
_cell_angle_alpha   79.44991389
_cell_angle_beta   100.54780882
_cell_angle_gamma   77.73789158
_symmetry_Int_Tables_number   1
_chemical_formula_structural   Li2Mn2OF6
_chemical_formula_sum   'Li4 Mn4 O2 F12'
_cell_volume   286.75253705
_cell_formula_units_Z   2
loop_
 _symmetry_equiv_pos_site_id
 _symmetry_equiv_pos_as_xyz
  1  'x, y, z'
loop_
 _atom_site_type_symbol
 _atom_site_label
 _atom_site_symmetry_multiplicity
 _atom_site_fract_x
 _atom_site_fract_y
 _atom_site_fract_z
 _atom_site_occupancy
  Li  Li0  1  0.44599700  0.92158000  0.70604100  1
  Li  Li1  1  0.07835600  0.55399900  0.20604500  1
  Li  Li2  1  0.09364700  0.50220100  0.79013800  1
  Li  Li3  1  0.49759600  0.90641400  0.29012900  1
  Mn  Mn0  1  0.10840600  0.60708000  0.49917900  1
  Mn  Mn1  1  0.65790000  0.38904100  0.94070400  1
  Mn  Mn2  1  0.39307500  0.89143600  0.99923600  1
  Mn  Mn3  1  0.61100200  0.34197700  0.44083300  1
  O  O0  1  0.32472100  0.62501500  0.92031600  1
  O  O1  1  0.37499400  0.67534000  0.42032300  1
  F  F0  1  0.22531600  0.69088200  0.65718100  1
  F  F1  1  0.86857500  0.43039300  0.57719700  1
  F  F2  1  0.73646600  0.62167800  0.80170700  1
  F  F3  1  0.30913000  0.77465800  0.15715700  1
  F  F4  1  0.56983700  0.13130400  0.07720400  1
  F  F5  1  0.42512700  0.12836000  0.84358000  1
  F  F6  1  0.39820000  0.21077000  0.56726500  1
  F  F7  1  0.99175300  0.14932100  0.94650500  1
  F  F8  1  0.37831600  0.26356000  0.30181100  1
  F  F9  1  0.87150100  0.57513800  0.34357200  1
  F  F10  1  0.78933300  0.60156600  0.06721300  1
  F  F11  1  0.85075000  0.00829200  0.44666600  1
loop_
_geom_bond_atom_site_label_1
_geom_bond_atom_site_label_2
_geom_bond_distance
_geom_bond_site_symmetry_2
Li2 O0 2.006487 1_555
Li3 O1 2.005891 1_555
Mn0 O1 1.844690 1_555
Mn1 O0 1.860398 1_555
Mn2 O0 1.844423 1_555
Mn3 O1 1.860937 1_555
F0 Mn0 1.920983 1_555
F0 Li0 1.923340 1_555
F0 Li2 1.946566 1_555
F1 Mn0 1.948190 1_655
F1 Mn3 2.032310 1_555
F2 Li2 1.878940 1_655
F2 Li0 1.923749 1_555
F2 Mn1 1.955249 1_555
F3 Mn2 1.920343 1_554
F3 Li1 1.923659 1_555
F3 Li3 1.946516 1_555
F4 Mn2 1.948295 1_544
F4 Mn1 2.032800 1_554
F5 Mn2 2.000355 1_545
F5 Li0 2.042253 1_545
F5 Li2 2.225888 1_555
F5 Mn1 2.301340 1_555
F6 Li0 1.897536 1_545
F6 Mn3 2.063906 1_555
F6 Mn0 2.203049 1_555
F7 Mn1 1.906729 1_555
F7 Mn2 2.154221 1_645
F7 Li2 2.517010 1_655
F8 Li3 1.878922 1_545
F8 Li1 1.924132 1_555
F8 Mn3 1.955281 1_555
F9 Mn0 1.999751 1_655
F9 Li1 2.042523 1_655
F9 Li3 2.225555 1_555
F9 Mn3 2.302460 1_555
F10 Li1 1.897728 1_655
F10 Mn1 2.063852 1_554
F10 Mn2 2.203025 1_554
F11 Mn3 1.905977 1_555
F11 Mn0 2.153289 1_645
