# generated using pymatgen
data_Li2AlNiO4
_symmetry_space_group_name_H-M   'P 1'
_cell_length_a   4.96963900
_cell_length_b   5.52313300
_cell_length_c   6.14838900
_cell_angle_alpha   90.00000000
_cell_angle_beta   90.00000000
_cell_angle_gamma   90.00000000
_symmetry_Int_Tables_number   1
_chemical_formula_structural   Li2AlNiO4
_chemical_formula_sum   'Li4 Al2 Ni2 O8'
_cell_volume   168.76084084
_cell_formula_units_Z   2
loop_
 _symmetry_equiv_pos_site_id
 _symmetry_equiv_pos_as_xyz
  1  'x, y, z'
loop_
 _atom_site_type_symbol
 _atom_site_label
 _atom_site_symmetry_multiplicity
 _atom_site_fract_x
 _atom_site_fract_y
 _atom_site_fract_z
 _atom_site_occupancy
  Li  Li0  1  0.99315000  0.33499100  0.25046400  1
  Li  Li1  1  0.49315000  0.66500900  0.24953600  1
  Li  Li2  1  0.99315000  0.33499100  0.74953600  1
  Li  Li3  1  0.49315000  0.66500900  0.75046400  1
  Al  Al0  1  0.49813000  0.16195400  0.00000000  1
  Al  Al1  1  0.99813000  0.83804600  0.50000000  1
  Ni  Ni0  1  0.99637000  0.83380600  0.00000000  1
  Ni  Ni1  1  0.49637000  0.16619400  0.50000000  1
  O  O0  1  0.85751100  0.14702700  0.00000000  1
  O  O1  1  0.37167900  0.86006800  0.00000000  1
  O  O2  1  0.89498900  0.68094800  0.25967200  1
  O  O3  1  0.39498900  0.31905200  0.24032800  1
  O  O4  1  0.87167900  0.13993200  0.50000000  1
  O  O5  1  0.35751100  0.85297300  0.50000000  1
  O  O6  1  0.39498900  0.31905200  0.75967200  1
  O  O7  1  0.89498900  0.68094800  0.74032800  1
loop_
_geom_bond_atom_site_label_1
_geom_bond_atom_site_label_2
_geom_bond_distance
_geom_bond_site_symmetry_2
Li0 O4 1.969511 1_555
Li0 O2 1.972868 1_555
Li0 O0 1.975748 1_555
Li0 O3 1.999905 1_655
Li1 O1 1.969511 1_555
Li1 O3 1.972868 1_555
Li1 O5 1.975748 1_555
Li1 O2 1.999905 1_555
Li2 O4 1.969511 1_555
Li2 O7 1.972868 1_555
Li2 O0 1.975748 1_556
Li2 O6 1.999905 1_655
Li3 O1 1.969511 1_556
Li3 O6 1.972868 1_555
Li3 O5 1.975748 1_555
Li3 O7 1.999905 1_555
Al0 O1 1.781849 1_545
Al0 O0 1.787896 1_555
Al0 O3 1.788569 1_555
Al0 O6 1.788569 1_554
Al1 O4 1.781849 1_565
Al1 O5 1.787896 1_655
Al1 O2 1.788569 1_555
Al1 O7 1.788569 1_555
Ni0 O0 1.862518 1_565
Ni0 O1 1.870782 1_655
Ni0 O7 1.875000 1_554
Ni0 O2 1.875000 1_555
Ni1 O5 1.862518 1_545
Ni1 O4 1.870782 1_555
Ni1 O6 1.875000 1_555
Ni1 O3 1.875000 1_555
