# generated using pymatgen
data_Li2Fe2(SiO3)3
_symmetry_space_group_name_H-M   'P 1'
_cell_length_a   6.28087300
_cell_length_b   9.65450000
_cell_length_c   12.38980400
_cell_angle_alpha   90.00000000
_cell_angle_beta   90.00000000
_cell_angle_gamma   90.00000000
_symmetry_Int_Tables_number   1
_chemical_formula_structural   Li2Fe2(SiO3)3
_chemical_formula_sum   'Li8 Fe8 Si12 O36'
_cell_volume   751.30146383
_cell_formula_units_Z   4
loop_
 _symmetry_equiv_pos_site_id
 _symmetry_equiv_pos_as_xyz
  1  'x, y, z'
loop_
 _atom_site_type_symbol
 _atom_site_label
 _atom_site_symmetry_multiplicity
 _atom_site_fract_x
 _atom_site_fract_y
 _atom_site_fract_z
 _atom_site_occupancy
  Li  Li0  1  0.14856500  0.55893500  0.08400800  1
  Li  Li1  1  0.14856500  0.94106500  0.08400800  1
  Li  Li2  1  0.64856500  0.05893500  0.41599200  1
  Li  Li3  1  0.64856500  0.44106500  0.41599200  1
  Li  Li4  1  0.35143500  0.55893500  0.58400800  1
  Li  Li5  1  0.35143500  0.94106500  0.58400800  1
  Li  Li6  1  0.85143500  0.05893500  0.91599200  1
  Li  Li7  1  0.85143500  0.44106500  0.91599200  1
  Fe  Fe0  1  0.70168900  0.50242600  0.16375100  1
  Fe  Fe1  1  0.70168900  0.99757400  0.16375100  1
  Fe  Fe2  1  0.20168900  0.00242600  0.33624900  1
  Fe  Fe3  1  0.20168900  0.49757400  0.33624900  1
  Fe  Fe4  1  0.79831100  0.50242600  0.66375100  1
  Fe  Fe5  1  0.79831100  0.99757400  0.66375100  1
  Fe  Fe6  1  0.29831100  0.00242600  0.83624900  1
  Fe  Fe7  1  0.29831100  0.49757400  0.83624900  1
  Si  Si0  1  0.53491800  0.75000000  0.03595200  1
  Si  Si1  1  0.03594700  0.25000000  0.08116700  1
  Si  Si2  1  0.43281600  0.25000000  0.21439100  1
  Si  Si3  1  0.93281600  0.75000000  0.28560900  1
  Si  Si4  1  0.53594700  0.75000000  0.41883300  1
  Si  Si5  1  0.03491800  0.25000000  0.46404800  1
  Si  Si6  1  0.96508200  0.75000000  0.53595200  1
  Si  Si7  1  0.46405300  0.25000000  0.58116700  1
  Si  Si8  1  0.06718400  0.25000000  0.71439100  1
  Si  Si9  1  0.56718400  0.75000000  0.78560900  1
  Si  Si10  1  0.96405300  0.75000000  0.91883300  1
  Si  Si11  1  0.46508200  0.25000000  0.96404800  1
  O  O0  1  0.79972200  0.75000000  0.02492500  1
  O  O1  1  0.91435900  0.10264400  0.07237600  1
  O  O2  1  0.91435900  0.39735600  0.07237600  1
  O  O3  1  0.45879900  0.60877200  0.09569100  1
  O  O4  1  0.45879900  0.89122800  0.09569100  1
  O  O5  1  0.53941100  0.25000000  0.09335900  1
  O  O6  1  0.99761600  0.89527200  0.22581800  1
  O  O7  1  0.99761600  0.60472800  0.22581800  1
  O  O8  1  0.17223700  0.25000000  0.19667700  1
  O  O9  1  0.67223700  0.75000000  0.30332300  1
  O  O10  1  0.49761600  0.10472800  0.27418200  1
  O  O11  1  0.49761600  0.39527200  0.27418200  1
  O  O12  1  0.03941100  0.75000000  0.40664100  1
  O  O13  1  0.95879900  0.10877200  0.40430900  1
  O  O14  1  0.95879900  0.39122800  0.40430900  1
  O  O15  1  0.41435900  0.60264400  0.42762400  1
  O  O16  1  0.41435900  0.89735600  0.42762400  1
  O  O17  1  0.29972200  0.25000000  0.47507500  1
  O  O18  1  0.70027800  0.75000000  0.52492500  1
  O  O19  1  0.58564100  0.10264400  0.57237600  1
  O  O20  1  0.58564100  0.39735600  0.57237600  1
  O  O21  1  0.04120100  0.60877200  0.59569100  1
  O  O22  1  0.04120100  0.89122800  0.59569100  1
  O  O23  1  0.96058900  0.25000000  0.59335900  1
  O  O24  1  0.50238400  0.60472800  0.72581800  1
  O  O25  1  0.50238400  0.89527200  0.72581800  1
  O  O26  1  0.32776300  0.25000000  0.69667700  1
  O  O27  1  0.82776300  0.75000000  0.80332300  1
  O  O28  1  0.00238400  0.10472800  0.77418200  1
  O  O29  1  0.00238400  0.39527200  0.77418200  1
  O  O30  1  0.46058900  0.75000000  0.90664100  1
  O  O31  1  0.54120100  0.10877200  0.90430900  1
  O  O32  1  0.54120100  0.39122800  0.90430900  1
  O  O33  1  0.08564100  0.60264400  0.92762400  1
  O  O34  1  0.08564100  0.89735600  0.92762400  1
  O  O35  1  0.20027800  0.25000000  0.97507500  1
loop_
_geom_bond_atom_site_label_1
_geom_bond_atom_site_label_2
_geom_bond_distance
_geom_bond_site_symmetry_2
Li0 O3 2.012279 1_555
Li0 O33 2.021989 1_554
Li0 O7 2.044842 1_455
Li0 O2 2.148989 1_455
Li1 O4 2.012279 1_555
Li1 O34 2.021989 1_554
Li1 O6 2.044842 1_455
Li1 O1 2.148989 1_465
Li2 O13 2.012279 1_555
Li2 O19 2.021989 1_555
Li2 O10 2.044842 1_555
Li2 O16 2.148989 1_545
Li3 O14 2.012279 1_555
Li3 O20 2.021989 1_555
Li3 O11 2.044842 1_555
Li3 O15 2.148989 1_555
Li4 O21 2.012279 1_555
Li4 O15 2.021989 1_555
Li4 O24 2.044842 1_555
Li4 O20 2.148989 1_555
Li5 O22 2.012279 1_555
Li5 O16 2.021989 1_555
Li5 O25 2.044842 1_555
Li5 O19 2.148989 1_565
Li6 O31 2.012279 1_555
Li6 O1 2.021989 1_556
Li6 O28 2.044842 1_655
Li6 O34 2.148989 1_645
Li7 O32 2.012279 1_555
Li7 O2 2.021989 1_556
Li7 O29 2.044842 1_655
Li7 O33 2.148989 1_655
Fe0 O3 2.023007 1_555
Fe0 O2 2.023594 1_555
Fe0 O11 2.141296 1_555
Fe0 O7 2.240882 1_555
Fe1 O4 2.023007 1_555
Fe1 O1 2.023594 1_565
Fe1 O10 2.141296 1_565
Fe1 O6 2.240882 1_555
Fe2 O13 2.023007 1_455
Fe2 O16 2.023594 1_545
Fe2 O6 2.141296 1_445
Fe2 O10 2.240882 1_555
Fe3 O14 2.023007 1_455
Fe3 O15 2.023594 1_555
Fe3 O7 2.141296 1_455
Fe3 O11 2.240882 1_555
Fe4 O21 2.023007 1_655
Fe4 O20 2.023594 1_555
Fe4 O29 2.141296 1_655
Fe4 O24 2.240882 1_555
Fe5 O22 2.023007 1_655
Fe5 O19 2.023594 1_565
Fe5 O28 2.141296 1_665
Fe5 O25 2.240882 1_555
Fe6 O31 2.023007 1_555
Fe6 O34 2.023594 1_545
Fe6 O25 2.141296 1_545
Fe6 O28 2.240882 1_555
Fe7 O32 2.023007 1_555
Fe7 O33 2.023594 1_555
Fe7 O24 2.141296 1_555
Fe7 O29 2.240882 1_555
O0 Si0 1.668802 1_555
O0 Si10 1.671263 1_554
O1 Si1 1.618332 1_655
O2 Si1 1.618332 1_655
O3 Si0 1.623421 1_555
O4 Si0 1.623421 1_555
O5 Si2 1.642234 1_555
O5 Si11 1.668771 1_554
O6 Si3 1.637534 1_555
O7 Si3 1.637534 1_555
O8 Si2 1.651313 1_555
O8 Si1 1.667618 1_555
O9 Si3 1.651313 1_555
O9 Si4 1.667618 1_555
O10 Si2 1.637534 1_555
O11 Si2 1.637534 1_555
O12 Si3 1.642234 1_455
O12 Si6 1.668771 1_455
O13 Si5 1.623421 1_655
O14 Si5 1.623421 1_655
O15 Si4 1.618332 1_555
O16 Si4 1.618332 1_555
O17 Si5 1.668802 1_555
O17 Si7 1.671263 1_555
O18 Si6 1.668802 1_555
O18 Si4 1.671263 1_555
O19 Si7 1.618332 1_555
O20 Si7 1.618332 1_555
O21 Si6 1.623421 1_455
O22 Si6 1.623421 1_455
O23 Si8 1.642234 1_655
O23 Si5 1.668771 1_655
O24 Si9 1.637534 1_555
O25 Si9 1.637534 1_555
O26 Si8 1.651313 1_555
O26 Si7 1.667618 1_555
O27 Si9 1.651313 1_555
O27 Si10 1.667618 1_555
O28 Si8 1.637534 1_555
O29 Si8 1.637534 1_555
O30 Si9 1.642234 1_555
O30 Si0 1.668771 1_556
O31 Si11 1.623421 1_555
O32 Si11 1.623421 1_555
O33 Si10 1.618332 1_455
O34 Si10 1.618332 1_455
O35 Si11 1.668802 1_555
O35 Si1 1.671263 1_556
