# generated using pymatgen
data_Na3CuO2
_symmetry_space_group_name_H-M   'P 1'
_cell_length_a   8.68570884
_cell_length_b   5.75123865
_cell_length_c   7.65202388
_cell_angle_alpha   68.52839076
_cell_angle_beta   90.00000000
_cell_angle_gamma   90.00000000
_symmetry_Int_Tables_number   1
_chemical_formula_structural   Na3CuO2
_chemical_formula_sum   'Na12 Cu4 O8'
_cell_volume   355.71778719
_cell_formula_units_Z   4
loop_
 _symmetry_equiv_pos_site_id
 _symmetry_equiv_pos_as_xyz
  1  'x, y, z'
loop_
 _atom_site_type_symbol
 _atom_site_label
 _atom_site_symmetry_multiplicity
 _atom_site_fract_x
 _atom_site_fract_y
 _atom_site_fract_z
 _atom_site_occupancy
  Na  Na0  1  0.96845922  0.75363368  0.50093261  1
  Na  Na1  1  0.53030357  0.74204178  0.62447177  1
  Na  Na2  1  0.71567090  0.23842945  0.68750074  1
  Na  Na3  1  0.03030357  0.25795822  0.87552823  1
  Na  Na4  1  0.21567090  0.76157055  0.81249926  1
  Na  Na5  1  0.46845922  0.24636632  0.99906739  1
  Na  Na6  1  0.53154078  0.75363368  0.00093261  1
  Na  Na7  1  0.78432910  0.23842945  0.18750074  1
  Na  Na8  1  0.96969643  0.74204178  0.12447177  1
  Na  Na9  1  0.28432910  0.76157055  0.31249926  1
  Na  Na10  1  0.46969643  0.25795822  0.37552823  1
  Na  Na11  1  0.03154078  0.24636632  0.49906739  1
  Cu  Cu0  1  0.32154756  0.29481136  0.67354388  1
  Cu  Cu1  1  0.82154756  0.70518864  0.82645612  1
  Cu  Cu2  1  0.17845244  0.29481136  0.17354388  1
  Cu  Cu3  1  0.67845244  0.70518864  0.32645612  1
  O  O0  1  0.17680431  0.52913937  0.61753272  1
  O  O1  1  0.46401258  0.05532056  0.72145398  1
  O  O2  1  0.67680431  0.47086063  0.88246728  1
  O  O3  1  0.96401258  0.94467944  0.77854602  1
  O  O4  1  0.03598742  0.05532056  0.22145398  1
  O  O5  1  0.32319569  0.52913937  0.11753272  1
  O  O6  1  0.53598742  0.94467944  0.27854602  1
  O  O7  1  0.82319569  0.47086063  0.38246728  1
loop_
_geom_bond_atom_site_label_1
_geom_bond_atom_site_label_2
_geom_bond_distance
_geom_bond_site_symmetry_2
Na0 O0 2.212344 1_655
Na0 O4 2.282884 1_665
Na0 O7 2.477452 1_555
Na0 O3 2.725829 1_555
Na1 O1 2.259952 1_565
Na1 O2 2.386408 1_555
Na1 O6 2.471643 1_555
Na2 O2 2.363606 1_555
Na2 O1 2.398767 1_555
Na2 O7 2.413106 1_555
Na2 O3 2.670323 1_545
Na3 O3 2.259952 1_445
Na3 O0 2.386408 1_555
Na3 O4 2.471643 1_556
Na4 O0 2.363606 1_555
Na4 O3 2.398767 1_455
Na4 O5 2.413106 1_556
Na4 O1 2.670323 1_565
Na5 O2 2.212344 1_555
Na5 O6 2.282884 1_546
Na5 O5 2.477452 1_556
Na5 O1 2.725829 1_555
Na6 O5 2.212344 1_555
Na6 O1 2.282884 1_564
Na6 O2 2.477452 1_554
Na6 O6 2.725829 1_555
Na7 O7 2.363606 1_555
Na7 O4 2.398767 1_655
Na7 O2 2.413106 1_554
Na7 O6 2.670323 1_545
Na8 O4 2.259952 1_665
Na8 O7 2.386408 1_555
Na8 O3 2.471643 1_554
Na9 O5 2.363606 1_555
Na9 O6 2.398767 1_555
Na9 O0 2.413106 1_555
Na9 O4 2.670323 1_565
Na10 O6 2.259952 1_545
Na10 O5 2.386408 1_555
Na10 O1 2.471643 1_555
Na11 O7 2.212344 1_455
Na11 O3 2.282884 1_445
Na11 O0 2.477452 1_555
Na11 O4 2.725829 1_555
Cu0 O0 1.776968 1_555
Cu0 O1 1.786914 1_555
Cu1 O2 1.776968 1_555
Cu1 O3 1.786914 1_555
Cu2 O5 1.776968 1_555
Cu2 O4 1.786914 1_555
Cu3 O7 1.776968 1_555
Cu3 O6 1.786914 1_555
