# generated using pymatgen
data_Li11Mn12(BO3)12
_symmetry_space_group_name_H-M   'P 1'
_cell_length_a   9.10014300
_cell_length_b   9.11414255
_cell_length_c   11.64177566
_cell_angle_alpha   88.45024985
_cell_angle_beta   112.80362759
_cell_angle_gamma   119.75093442
_symmetry_Int_Tables_number   1
_chemical_formula_structural   Li11Mn12(BO3)12
_chemical_formula_sum   'Li11 Mn12 B12 O36'
_cell_volume   756.11690262
_cell_formula_units_Z   1
loop_
 _symmetry_equiv_pos_site_id
 _symmetry_equiv_pos_as_xyz
  1  'x, y, z'
loop_
 _atom_site_type_symbol
 _atom_site_label
 _atom_site_symmetry_multiplicity
 _atom_site_fract_x
 _atom_site_fract_y
 _atom_site_fract_z
 _atom_site_occupancy
  Li  Li0  1  0.50996300  0.92408900  0.08603700  1
  Li  Li1  1  0.42914700  0.55357500  0.33237300  1
  Li  Li2  1  0.17500300  0.25644000  0.08279600  1
  Li  Li3  1  0.09309400  0.88700500  0.33387700  1
  Li  Li4  1  0.16426300  0.75723300  0.58335600  1
  Li  Li5  1  0.84156600  0.58997700  0.08281700  1
  Li  Li6  1  0.76565900  0.22114300  0.33546600  1
  Li  Li7  1  0.12431200  0.38553200  0.83132400  1
  Li  Li8  1  0.79081700  0.72107000  0.83177200  1
  Li  Li9  1  0.49821300  0.42396200  0.58181600  1
  Li  Li10  1  0.45568100  0.05343800  0.83056800  1
  Mn  Mn0  1  0.18897700  0.92989300  0.11657600  1
  Mn  Mn1  1  0.79028500  0.90001000  0.37286400  1
  Mn  Mn2  1  0.52455000  0.59888800  0.11792600  1
  Mn  Mn3  1  0.13912300  0.72836000  0.86629000  1
  Mn  Mn4  1  0.45821800  0.22853100  0.36734800  1
  Mn  Mn5  1  0.85364500  0.41312300  0.61784100  1
  Mn  Mn6  1  0.12790100  0.56570900  0.36790600  1
  Mn  Mn7  1  0.53585900  0.77579600  0.61406000  1
  Mn  Mn8  1  0.85660500  0.26319200  0.11712700  1
  Mn  Mn9  1  0.47377900  0.39911300  0.86773700  1
  Mn  Mn10  1  0.18003700  0.10222300  0.61816100  1
  Mn  Mn11  1  0.80599000  0.06655200  0.86354200  1
  B  B0  1  0.46178000  0.90192700  0.36844000  1
  B  B1  1  0.19130600  0.59759400  0.12421900  1
  B  B2  1  0.86403100  0.75413200  0.62191000  1
  B  B3  1  0.85861600  0.93153800  0.12505100  1
  B  B4  1  0.80008900  0.57071300  0.37532200  1
  B  B5  1  0.52549200  0.26513200  0.12485000  1
  B  B6  1  0.48051900  0.73941300  0.87439100  1
  B  B7  1  0.20772700  0.44138400  0.62644000  1
  B  B8  1  0.14397000  0.07130100  0.87419900  1
  B  B9  1  0.13337000  0.23856000  0.37418700  1
  B  B10  1  0.81092800  0.40385500  0.87463900  1
  B  B11  1  0.52390900  0.09788200  0.62483300  1
  O  O0  1  0.33415200  0.95719800  0.33250800  1
  O  O1  1  0.25582700  0.75106000  0.07964300  1
  O  O2  1  0.41103500  0.74142200  0.40487300  1
  O  O3  1  0.27693100  0.50385200  0.13976500  1
  O  O4  1  0.70916600  0.87341800  0.15938900  1
  O  O5  1  0.91318600  0.90325200  0.57156700  1
  O  O6  1  0.70068900  0.66989100  0.63774300  1
  O  O7  1  0.06900300  0.90739900  0.90430700  1
  O  O8  1  0.67333200  0.62629400  0.33178400  1
  O  O9  1  0.98542600  0.69230600  0.65789000  1
  O  O10  1  0.94281400  0.83658900  0.13918800  1
  O  O11  1  0.37441600  0.20548000  0.15757700  1
  O  O12  1  0.59012400  0.41933100  0.08102000  1
  O  O13  1  0.98218700  0.67483300  0.38924600  1
  O  O14  1  0.74316500  0.40726800  0.40774200  1
  O  O15  1  0.94941000  0.45595900  0.83138600  1
  O  O16  1  0.41736000  0.84505100  0.88901800  1
  O  O17  1  0.64651300  0.03912700  0.66121300  1
  O  O18  1  0.61014100  0.17135000  0.13815200  1
  O  O19  1  0.03988400  0.53882300  0.15620300  1
  O  O20  1  0.25495000  0.59282200  0.57880200  1
  O  O21  1  0.05097700  0.35628200  0.64685400  1
  O  O22  1  0.40529400  0.57650400  0.90724800  1
  O  O23  1  0.63301800  0.00091700  0.36737200  1
  O  O24  1  0.61951100  0.79291300  0.83145000  1
  O  O25  1  0.08637200  0.17930800  0.89298300  1
  O  O26  1  0.00682000  0.29421700  0.33098100  1
  O  O27  1  0.32624400  0.37448200  0.65620300  1
  O  O28  1  0.92286100  0.08461800  0.08016900  1
  O  O29  1  0.31551400  0.34262100  0.38805000  1
  O  O30  1  0.07592700  0.07582100  0.40739500  1
  O  O31  1  0.28082800  0.12594100  0.82809400  1
  O  O32  1  0.75040000  0.51167200  0.88943000  1
  O  O33  1  0.57259100  0.25219800  0.57922700  1
  O  O34  1  0.35684000  0.00802000  0.63668900  1
  O  O35  1  0.73444200  0.24118500  0.90656100  1
loop_
_geom_bond_atom_site_label_1
_geom_bond_atom_site_label_2
_geom_bond_distance
_geom_bond_site_symmetry_2
Li0 O4 1.959148 1_555
Li0 O18 1.970796 1_565
Li0 O1 2.023427 1_555
Li0 O16 2.116258 1_554
Li1 O29 1.914430 1_555
Li1 O8 1.981675 1_555
Li1 O2 2.033905 1_555
Li1 O3 2.043616 1_555
Li2 O11 1.963857 1_555
Li2 O3 1.978188 1_555
Li2 O28 2.024898 1_455
Li2 O25 2.041452 1_554
Li3 O13 1.916628 1_455
Li3 O0 1.963523 1_555
Li3 O30 2.041702 1_565
Li3 O10 2.061195 1_455
Li4 O9 1.965381 1_455
Li4 O34 1.984696 1_565
Li4 O20 2.048119 1_555
Li4 O13 2.090566 1_455
Li5 O19 1.955159 1_655
Li5 O10 1.971632 1_555
Li5 O12 2.021823 1_555
Li5 O32 2.077920 1_554
Li6 O23 1.877870 1_555
Li6 O26 1.974563 1_655
Li6 O14 2.045215 1_555
Li6 O18 2.093913 1_555
Li7 O25 1.908477 1_555
Li7 O21 1.967716 1_555
Li7 O15 1.990016 1_455
Li7 O22 2.064757 1_555
Li8 O32 1.911434 1_555
Li8 O24 1.966559 1_555
Li8 O7 2.039490 1_655
Li8 O6 2.057634 1_555
Li9 O27 1.931666 1_555
Li9 O6 1.973104 1_555
Li9 O33 1.994929 1_555
Li9 O29 2.088634 1_555
Li10 O16 1.910121 1_545
Li10 O31 1.994078 1_555
Li10 O35 2.044526 1_555
Li10 O34 2.045041 1_555
Mn0 O10 2.089252 1_455
Mn0 O1 2.106250 1_555
Mn0 O11 2.149003 1_565
Mn0 O7 2.248266 1_554
Mn0 O0 2.293438 1_555
Mn1 O23 2.032306 1_565
Mn1 O5 2.137365 1_555
Mn1 O30 2.139406 1_665
Mn1 O8 2.149379 1_555
Mn1 O4 2.283194 1_555
Mn2 O3 2.094672 1_555
Mn2 O12 2.103524 1_555
Mn2 O4 2.140288 1_555
Mn2 O22 2.231375 1_554
Mn2 O8 2.275774 1_555
Mn3 O16 2.106054 1_555
Mn3 O7 2.134750 1_555
Mn3 O15 2.136904 1_455
Mn3 O9 2.215186 1_455
Mn3 O1 2.259423 1_556
Mn4 O29 2.102880 1_555
Mn4 O0 2.117328 1_545
Mn4 O14 2.121963 1_555
Mn4 O11 2.239358 1_555
Mn4 O33 2.242785 1_555
Mn5 O21 2.012672 1_655
Mn5 O33 2.077549 1_555
Mn5 O9 2.175406 1_555
Mn5 O14 2.245851 1_555
Mn5 O15 2.264454 1_555
Mn6 O13 2.094473 1_455
Mn6 O2 2.114511 1_555
Mn6 O26 2.122757 1_555
Mn6 O20 2.230409 1_555
Mn6 O19 2.254668 1_555
Mn7 O17 2.078399 1_565
Mn7 O6 2.087958 1_555
Mn7 O20 2.115905 1_555
Mn7 O2 2.205213 1_555
Mn7 O24 2.327859 1_555
Mn8 O18 2.083794 1_555
Mn8 O28 2.100108 1_555
Mn8 O19 2.148238 1_655
Mn8 O35 2.231180 1_554
Mn8 O26 2.272290 1_655
Mn9 O32 2.100291 1_555
Mn9 O22 2.115743 1_555
Mn9 O31 2.142464 1_555
Mn9 O27 2.255083 1_555
Mn9 O12 2.261310 1_556
Mn10 O5 2.035062 1_445
Mn10 O27 2.109459 1_555
Mn10 O34 2.112890 1_555
Mn10 O31 2.226048 1_555
Mn10 O30 2.231550 1_555
Mn11 O25 2.103006 1_655
Mn11 O35 2.128944 1_555
Mn11 O24 2.144272 1_545
Mn11 O17 2.176910 1_555
Mn11 O28 2.299546 1_556
B0 O23 1.364372 1_565
B0 O0 1.403686 1_555
B0 O2 1.407460 1_555
B1 O3 1.383078 1_555
B1 O1 1.397248 1_555
B1 O19 1.406674 1_555
B2 O6 1.380227 1_555
B2 O5 1.395530 1_555
B2 O9 1.399898 1_555
B3 O10 1.384075 1_555
B3 O28 1.396138 1_565
B3 O4 1.408911 1_555
B4 O13 1.382845 1_555
B4 O8 1.398907 1_555
B4 O14 1.408961 1_555
B5 O18 1.379053 1_555
B5 O12 1.398178 1_555
B5 O11 1.408495 1_555
B6 O16 1.385735 1_555
B6 O24 1.397268 1_555
B6 O22 1.408189 1_555
B7 O21 1.359259 1_555
B7 O20 1.397120 1_555
B7 O27 1.416560 1_555
B8 O25 1.379910 1_555
B8 O7 1.401926 1_545
B8 O31 1.405472 1_555
B9 O29 1.383368 1_555
B9 O26 1.397684 1_555
B9 O30 1.406704 1_555
B10 O32 1.385106 1_555
B10 O15 1.397210 1_555
B10 O35 1.402573 1_555
B11 O34 1.386380 1_555
B11 O17 1.387575 1_555
B11 O33 1.407063 1_555
