# generated using pymatgen
data_Li2V3FeO8
_symmetry_space_group_name_H-M   'P 1'
_cell_length_a   5.90489725
_cell_length_b   5.90489725
_cell_length_c   9.61075800
_cell_angle_alpha   90.00000000
_cell_angle_beta   90.00000000
_cell_angle_gamma   119.33502686
_symmetry_Int_Tables_number   1
_chemical_formula_structural   Li2V3FeO8
_chemical_formula_sum   'Li4 V6 Fe2 O16'
_cell_volume   292.13542093
_cell_formula_units_Z   2
loop_
 _symmetry_equiv_pos_site_id
 _symmetry_equiv_pos_as_xyz
  1  'x, y, z'
loop_
 _atom_site_type_symbol
 _atom_site_label
 _atom_site_symmetry_multiplicity
 _atom_site_fract_x
 _atom_site_fract_y
 _atom_site_fract_z
 _atom_site_occupancy
  Li  Li0  1  0.33423200  0.66576800  0.89421000  1
  Li  Li1  1  0.99692600  0.00307400  0.99534700  1
  Li  Li2  1  0.00307400  0.99692600  0.49534700  1
  Li  Li3  1  0.66576800  0.33423200  0.39421000  1
  V  V0  1  0.16522300  0.34119600  0.21562200  1
  V  V1  1  0.65880400  0.83477700  0.21562200  1
  V  V2  1  0.17104600  0.82895400  0.21027000  1
  V  V3  1  0.82895400  0.17104600  0.71027000  1
  V  V4  1  0.34119600  0.16522300  0.71562200  1
  V  V5  1  0.83477700  0.65880400  0.71562200  1
  Fe  Fe0  1  0.33878600  0.66121400  0.49185300  1
  Fe  Fe1  1  0.66121400  0.33878600  0.99185300  1
  O  O0  1  0.17003200  0.32297600  0.60396800  1
  O  O1  1  0.48115600  0.51884400  0.33699800  1
  O  O2  1  0.34314000  0.65686000  0.09997100  1
  O  O3  1  0.99576000  0.00424000  0.30993300  1
  O  O4  1  0.00424000  0.99576000  0.80993300  1
  O  O5  1  0.67702400  0.82996800  0.60396800  1
  O  O6  1  0.03920800  0.50864800  0.33715900  1
  O  O7  1  0.49135200  0.96079200  0.33715900  1
  O  O8  1  0.83316800  0.16683200  0.10252900  1
  O  O9  1  0.16683200  0.83316800  0.60252900  1
  O  O10  1  0.50864800  0.03920800  0.83715900  1
  O  O11  1  0.96079200  0.49135200  0.83715900  1
  O  O12  1  0.65686000  0.34314000  0.59997100  1
  O  O13  1  0.32297600  0.17003200  0.10396800  1
  O  O14  1  0.51884400  0.48115600  0.83699800  1
  O  O15  1  0.82996800  0.67702400  0.10396800  1
loop_
_geom_bond_atom_site_label_1
_geom_bond_atom_site_label_2
_geom_bond_distance
_geom_bond_site_symmetry_2
Li0 O14 1.960464 1_555
Li0 O2 1.979603 1_556
Li0 O11 1.999663 1_455
Li0 O10 1.999663 1_565
Li1 O4 1.783528 1_645
Li1 O8 1.961470 1_556
Li1 O13 1.977036 1_656
Li1 O15 1.977036 1_546
Li2 O3 1.783528 1_465
Li2 O9 1.961470 1_555
Li2 O0 1.977036 1_565
Li2 O5 1.977036 1_455
Li3 O1 1.960464 1_555
Li3 O12 1.979603 1_555
Li3 O7 1.999663 1_545
Li3 O6 1.999663 1_655
Fe0 O0 2.047672 1_555
Fe0 O5 2.047672 1_555
Fe0 O9 2.050257 1_555
Fe0 O1 2.078686 1_555
Fe0 O6 2.142365 1_555
Fe0 O7 2.142365 1_555
Fe1 O15 2.047672 1_556
Fe1 O13 2.047672 1_556
Fe1 O8 2.050257 1_556
Fe1 O14 2.078686 1_555
Fe1 O10 2.142365 1_555
Fe1 O11 2.142365 1_555
O0 V4 1.990790 1_555
O0 V3 2.033350 1_455
O1 V1 2.005978 1_555
O1 V0 2.005978 1_555
O2 V1 1.973512 1_555
O2 V0 1.973512 1_555
O2 V2 2.049601 1_555
O3 V0 1.957269 1_655
O3 V1 1.957269 1_545
O3 V2 2.027265 1_645
O4 V4 1.957269 1_565
O4 V5 1.957269 1_455
O4 V3 2.027265 1_465
O5 V5 1.990790 1_555
O5 V3 2.033350 1_565
O6 V0 1.901758 1_555
O6 V2 2.056162 1_555
O7 V1 1.901758 1_555
O7 V2 2.056162 1_555
O8 V1 2.026800 1_545
O8 V0 2.026800 1_655
O9 V5 2.026800 1_455
O9 V4 2.026800 1_565
O10 V4 1.901758 1_555
O10 V3 2.056162 1_555
O11 V5 1.901758 1_555
O11 V3 2.056162 1_555
O12 V5 1.973512 1_555
O12 V4 1.973512 1_555
O12 V3 2.049601 1_555
O13 V0 1.990790 1_555
O13 V2 2.033350 1_545
O14 V5 2.005978 1_555
O14 V4 2.005978 1_555
O15 V1 1.990790 1_555
O15 V2 2.033350 1_655
