# generated using pymatgen
data_Li3MnBPO7
_symmetry_space_group_name_H-M   'P 1'
_cell_length_a   5.01265746
_cell_length_b   8.31245390
_cell_length_c   13.39616701
_cell_angle_alpha   90.00308739
_cell_angle_beta   89.99815836
_cell_angle_gamma   83.96889714
_symmetry_Int_Tables_number   1
_chemical_formula_structural   Li3MnBPO7
_chemical_formula_sum   'Li12 Mn4 B4 P4 O28'
_cell_volume   555.09502499
_cell_formula_units_Z   4
loop_
 _symmetry_equiv_pos_site_id
 _symmetry_equiv_pos_as_xyz
  1  'x, y, z'
loop_
 _atom_site_type_symbol
 _atom_site_label
 _atom_site_symmetry_multiplicity
 _atom_site_fract_x
 _atom_site_fract_y
 _atom_site_fract_z
 _atom_site_occupancy
  Li  Li0  1  0.77156100  0.09854100  0.12501400  1
  Li  Li1  1  0.77143700  0.09857400  0.62500600  1
  Li  Li2  1  0.22829100  0.90145800  0.37499000  1
  Li  Li3  1  0.22844100  0.90136800  0.87501200  1
  Li  Li4  1  0.25213200  0.24274800  0.00320200  1
  Li  Li5  1  0.25171200  0.24268000  0.50309900  1
  Li  Li6  1  0.25172500  0.24250500  0.24695500  1
  Li  Li7  1  0.25208800  0.24281700  0.74683800  1
  Li  Li8  1  0.74816200  0.75746700  0.25304000  1
  Li  Li9  1  0.74787500  0.75717200  0.75320000  1
  Li  Li10  1  0.74779000  0.75723100  0.49678600  1
  Li  Li11  1  0.74806200  0.75718700  0.99682600  1
  Mn  Mn0  1  0.78176600  0.32587400  0.87500300  1
  Mn  Mn1  1  0.21778100  0.67400900  0.62490000  1
  Mn  Mn2  1  0.78214300  0.32598100  0.37487500  1
  Mn  Mn3  1  0.21798500  0.67395300  0.12509600  1
  B  B0  1  0.69932100  0.04439500  0.37498800  1
  B  B1  1  0.69958500  0.04430900  0.87500900  1
  B  B2  1  0.30070900  0.95563400  0.12503400  1
  B  B3  1  0.30057600  0.95575400  0.62497400  1
  P  P0  1  0.74903700  0.41477300  0.12503300  1
  P  P1  1  0.74893900  0.41483900  0.62502600  1
  P  P2  1  0.25099500  0.58525300  0.37500000  1
  P  P3  1  0.25117200  0.58516400  0.87498100  1
  O  O0  1  0.37056100  0.10783300  0.12502000  1
  O  O1  1  0.37050400  0.10790900  0.62496100  1
  O  O2  1  0.62941300  0.89223200  0.37497100  1
  O  O3  1  0.62943700  0.89216500  0.87503500  1
  O  O4  1  0.95850200  0.09175100  0.37496800  1
  O  O5  1  0.95867200  0.09161100  0.87497400  1
  O  O6  1  0.04157700  0.90825100  0.12507100  1
  O  O7  1  0.04145300  0.90841000  0.62499200  1
  O  O8  1  0.50557800  0.18156800  0.37499500  1
  O  O9  1  0.50567300  0.18146900  0.87501300  1
  O  O10  1  0.49452800  0.81848700  0.12503700  1
  O  O11  1  0.49436500  0.81854000  0.62493300  1
  O  O12  1  0.43822200  0.45843500  0.12499200  1
  O  O13  1  0.43800500  0.45854500  0.62501700  1
  O  O14  1  0.56187800  0.54154800  0.37503800  1
  O  O15  1  0.56212800  0.54154200  0.87500800  1
  O  O16  1  0.12449600  0.42294300  0.37490700  1
  O  O17  1  0.12473300  0.42281500  0.87488900  1
  O  O18  1  0.87553000  0.57703200  0.12514500  1
  O  O19  1  0.87535600  0.57715700  0.62510400  1
  O  O20  1  0.83697900  0.30646200  0.03439400  1
  O  O21  1  0.83677800  0.30652900  0.53436200  1
  O  O22  1  0.83674700  0.30629400  0.21556600  1
  O  O23  1  0.83666000  0.30633900  0.71553800  1
  O  O24  1  0.16318900  0.69375700  0.28447300  1
  O  O25  1  0.16341600  0.69368900  0.78445800  1
  O  O26  1  0.16301500  0.69356900  0.46560300  1
  O  O27  1  0.16332200  0.69343300  0.96565200  1
loop_
_geom_bond_atom_site_label_1
_geom_bond_atom_site_label_2
_geom_bond_distance
_geom_bond_site_symmetry_2
Li0 O6 1.970809 1_645
Li0 O0 2.003433 1_555
Li0 O22 2.163087 1_555
Li0 O20 2.165101 1_555
Li1 O7 1.970044 1_645
Li1 O1 2.003074 1_555
Li1 O23 2.163062 1_555
Li1 O21 2.165421 1_555
Li2 O4 1.970141 1_465
Li2 O2 2.004081 1_555
Li2 O24 2.162374 1_555
Li2 O26 2.164665 1_555
Li3 O5 1.969777 1_465
Li3 O3 2.003463 1_555
Li3 O25 2.162412 1_555
Li3 O27 2.164994 1_555
Li4 O0 2.033115 1_555
Li4 O20 2.134024 1_455
Li4 O9 2.165025 1_554
Li4 O17 2.324293 1_554
Li5 O1 2.033392 1_555
Li5 O21 2.133333 1_455
Li5 O8 2.164799 1_555
Li5 O16 2.323907 1_555
Li6 O0 2.033674 1_555
Li6 O22 2.133839 1_455
Li6 O8 2.163940 1_555
Li6 O16 2.322294 1_555
Li7 O1 2.033576 1_555
Li7 O23 2.135422 1_455
Li7 O9 2.165209 1_555
Li7 O17 2.321150 1_555
Li8 O2 2.033930 1_555
Li8 O24 2.134092 1_655
Li8 O10 2.163047 1_555
Li8 O18 2.321859 1_555
Li9 O3 2.033519 1_555
Li9 O25 2.135802 1_655
Li9 O11 2.166004 1_555
Li9 O19 2.321813 1_555
Li10 O2 2.033394 1_555
Li10 O26 2.134280 1_655
Li10 O11 2.164296 1_555
Li10 O19 2.324551 1_555
Li11 O3 2.033328 1_555
Li11 O27 2.134535 1_655
Li11 O10 2.165270 1_556
Li11 O18 2.324874 1_556
Mn0 O9 1.924915 1_555
Mn0 O17 1.973834 1_655
Mn0 O15 2.002813 1_555
Mn0 O5 2.053162 1_555
Mn0 O20 2.156972 1_556
Mn0 O23 2.157789 1_555
Mn1 O11 1.927578 1_555
Mn1 O19 1.970983 1_455
Mn1 O13 2.002736 1_555
Mn1 O7 2.053238 1_555
Mn1 O26 2.155532 1_555
Mn1 O25 2.158782 1_555
Mn2 O8 1.926819 1_555
Mn2 O16 1.971109 1_655
Mn2 O14 2.003546 1_555
Mn2 O4 2.052005 1_555
Mn2 O22 2.155626 1_555
Mn2 O21 2.157918 1_555
Mn3 O10 1.927434 1_555
Mn3 O18 1.971406 1_455
Mn3 O12 2.003141 1_555
Mn3 O6 2.052597 1_555
Mn3 O24 2.156703 1_555
Mn3 O27 2.157379 1_554
B0 O2 1.347508 1_545
B0 O4 1.396534 1_555
B0 O8 1.417965 1_555
B1 O3 1.347787 1_545
B1 O5 1.395911 1_555
B1 O9 1.418395 1_555
B2 O0 1.347696 1_565
B2 O6 1.396383 1_555
B2 O10 1.418035 1_555
B3 O1 1.347480 1_565
B3 O7 1.396217 1_555
B3 O11 1.418353 1_555
O12 P0 1.562144 1_555
O13 P1 1.562771 1_555
O14 P2 1.562521 1_555
O15 P3 1.562789 1_555
O16 P2 1.549897 1_555
O17 P3 1.550043 1_555
O18 P0 1.549495 1_555
O19 P1 1.549752 1_555
O20 P0 1.547800 1_555
O21 P1 1.547943 1_555
O22 P0 1.547297 1_555
O23 P1 1.547185 1_555
O24 P2 1.547456 1_555
O25 P3 1.547455 1_555
O26 P2 1.547487 1_555
O27 P3 1.547841 1_555
