# generated using pymatgen
data_TeH5O6
_symmetry_space_group_name_H-M   'P 1'
_cell_length_a   9.39801400
_cell_length_b   6.52801200
_cell_length_c   8.38072298
_cell_angle_alpha   80.56236048
_cell_angle_beta   90.00000000
_cell_angle_gamma   90.00000000
_symmetry_Int_Tables_number   1
_chemical_formula_structural   TeH5O6
_chemical_formula_sum   'Te4 H20 O24'
_cell_volume   507.20093586
_cell_formula_units_Z   4
loop_
 _symmetry_equiv_pos_site_id
 _symmetry_equiv_pos_as_xyz
  1  'x, y, z'
loop_
 _atom_site_type_symbol
 _atom_site_label
 _atom_site_symmetry_multiplicity
 _atom_site_fract_x
 _atom_site_fract_y
 _atom_site_fract_z
 _atom_site_occupancy
  Te  Te0  1  0.00000000  0.00000000  0.00000000  1
  Te  Te1  1  0.50000000  0.00000000  0.50000000  1
  Te  Te2  1  0.00000000  0.50000000  0.50000000  1
  Te  Te3  1  0.50000000  0.50000000  0.00000000  1
  H  H0  1  0.71102500  0.76611400  0.53414500  1
  H  H1  1  0.78897500  0.76611400  0.03414500  1
  H  H2  1  0.28897500  0.23388600  0.46585500  1
  H  H3  1  0.21102500  0.23388600  0.96585500  1
  H  H4  1  0.88991100  0.02685300  0.72425300  1
  H  H5  1  0.61008900  0.02685300  0.22425400  1
  H  H6  1  0.11008900  0.97314700  0.27574700  1
  H  H7  1  0.38991100  0.97314700  0.77574700  1
  H  H8  1  0.90966000  0.34732900  0.87484100  1
  H  H9  1  0.59034000  0.34732900  0.37484100  1
  H  H10  1  0.09034000  0.65267100  0.12515900  1
  H  H11  1  0.40966000  0.65267100  0.62515900  1
  H  H12  1  0.95392400  0.68615900  0.73771300  1
  H  H13  1  0.54607600  0.68615900  0.23771300  1
  H  H14  1  0.04607600  0.31384100  0.26228700  1
  H  H15  1  0.45392400  0.31384100  0.76228700  1
  H  H16  1  0.66423000  0.70865500  0.79747500  1
  H  H17  1  0.83577000  0.70865500  0.29747500  1
  H  H18  1  0.33577000  0.29134500  0.20252500  1
  H  H19  1  0.16423000  0.29134500  0.70252500  1
  O  O0  1  0.84351200  0.83646700  0.11248100  1
  O  O1  1  0.65648800  0.83646700  0.61248100  1
  O  O2  1  0.15648800  0.16353300  0.88751900  1
  O  O3  1  0.34351200  0.16353300  0.38751900  1
  O  O4  1  0.94325800  0.91706500  0.79448300  1
  O  O5  1  0.55674200  0.91706500  0.29448300  1
  O  O6  1  0.05674200  0.08293500  0.20551700  1
  O  O7  1  0.44325800  0.08293500  0.70551700  1
  O  O8  1  0.62298800  0.24100000  0.46717200  1
  O  O9  1  0.87701200  0.24100000  0.96717200  1
  O  O10  1  0.37701200  0.75900000  0.53282800  1
  O  O11  1  0.12298800  0.75900000  0.03282800  1
  O  O12  1  0.90644400  0.23049800  0.54096200  1
  O  O13  1  0.59355600  0.23049800  0.04096200  1
  O  O14  1  0.09355600  0.76950200  0.45903800  1
  O  O15  1  0.40644400  0.76950200  0.95903800  1
  O  O16  1  0.55761400  0.53914000  0.21702900  1
  O  O17  1  0.94238600  0.53914000  0.71702900  1
  O  O18  1  0.44238600  0.46086000  0.78297100  1
  O  O19  1  0.05761400  0.46086000  0.28297100  1
  O  O20  1  0.67308500  0.64807200  0.91640200  1
  O  O21  1  0.82691500  0.64807200  0.41640200  1
  O  O22  1  0.32691500  0.35192800  0.08359800  1
  O  O23  1  0.17308500  0.35192800  0.58359800  1
loop_
_geom_bond_atom_site_label_1
_geom_bond_atom_site_label_2
_geom_bond_distance
_geom_bond_site_symmetry_2
H0 O1 1.001754 1_555
H1 O0 1.001754 1_555
H2 O3 1.001754 1_555
H3 O2 1.001754 1_555
H4 O4 0.986457 1_545
H5 O5 0.986453 1_545
H6 O6 0.986457 1_565
H7 O7 0.986457 1_565
H8 O9 0.999282 1_555
H9 O8 0.999282 1_555
H10 O11 0.999282 1_555
H11 O10 0.999282 1_555
H12 O17 1.008698 1_555
H12 O4 1.656419 1_555
H13 O16 1.008698 1_555
H13 O5 1.656419 1_555
H14 O19 1.008698 1_555
H14 O6 1.656419 1_555
H15 O18 1.008698 1_555
H15 O7 1.656419 1_555
H16 O20 1.013639 1_555
H16 O1 1.637349 1_555
H17 O21 1.013639 1_555
H17 O0 1.637349 1_555
H18 O22 1.013639 1_555
H18 O3 1.637349 1_555
H19 O23 1.013639 1_555
H19 O2 1.637349 1_555
O0 Te0 1.964979 1_665
O1 Te1 1.964979 1_565
O2 Te0 1.964979 1_556
O3 Te1 1.964979 1_555
O4 Te0 1.962114 1_666
O5 Te1 1.962114 1_565
O6 Te0 1.962114 1_555
O7 Te1 1.962114 1_555
O8 Te1 1.935158 1_555
O9 Te0 1.935158 1_656
O10 Te1 1.935158 1_565
O11 Te0 1.935158 1_565
O12 Te2 1.946285 1_655
O13 Te3 1.946285 1_555
O14 Te2 1.946285 1_555
O15 Te3 1.946285 1_556
O16 Te3 1.954256 1_555
O17 Te2 1.954256 1_655
O18 Te3 1.954256 1_556
O19 Te2 1.954256 1_555
O20 Te3 1.961917 1_556
O21 Te2 1.961917 1_655
O22 Te3 1.961917 1_555
O23 Te2 1.961917 1_555
