# generated using pymatgen
data_VSb3(PO4)4
_symmetry_space_group_name_H-M   'P 1'
_cell_length_a   4.89385151
_cell_length_b   10.17102120
_cell_length_c   6.85555853
_cell_angle_alpha   89.95998115
_cell_angle_beta   90.15569799
_cell_angle_gamma   94.51696624
_symmetry_Int_Tables_number   1
_chemical_formula_structural   VSb3(PO4)4
_chemical_formula_sum   'V1 Sb3 P4 O16'
_cell_volume   340.17746684
_cell_formula_units_Z   1
loop_
 _symmetry_equiv_pos_site_id
 _symmetry_equiv_pos_as_xyz
  1  'x, y, z'
loop_
 _atom_site_type_symbol
 _atom_site_label
 _atom_site_symmetry_multiplicity
 _atom_site_fract_x
 _atom_site_fract_y
 _atom_site_fract_z
 _atom_site_occupancy
  V  V0  1  0.93111500  0.27130000  0.24853100  1
  Sb  Sb0  1  0.09495900  0.71547800  0.75067300  1
  Sb  Sb1  1  0.40629200  0.20134400  0.74920500  1
  Sb  Sb2  1  0.58873100  0.79702200  0.25085400  1
  P  P0  1  0.11734900  0.59910200  0.24967100  1
  P  P1  1  0.32227100  0.10158100  0.25038100  1
  P  P2  1  0.69056600  0.91128200  0.74959900  1
  P  P3  1  0.86934400  0.39085400  0.75054300  1
  O  O0  1  0.12328600  0.44944100  0.25017700  1
  O  O1  1  0.28327800  0.66909600  0.07565900  1
  O  O2  1  0.28556300  0.66934600  0.42295000  1
  O  O3  1  0.18086800  0.37457500  0.74997500  1
  O  O4  1  0.37437300  0.89958700  0.75034800  1
  O  O5  1  0.18652000  0.17648500  0.07666800  1
  O  O6  1  0.18783700  0.17660600  0.42384100  1
  O  O7  1  0.24842600  0.95396900  0.25043300  1
  O  O8  1  0.79249600  0.05557800  0.74958400  1
  O  O9  1  0.80672200  0.82738300  0.57487700  1
  O  O10  1  0.80920400  0.82712300  0.92354800  1
  O  O11  1  0.63454500  0.13252600  0.25027900  1
  O  O12  1  0.81467700  0.62932200  0.25030000  1
  O  O13  1  0.71955700  0.31724300  0.57124700  1
  O  O14  1  0.72141500  0.31722300  0.93015500  1
  O  O15  1  0.81060800  0.53653600  0.75050200  1
loop_
_geom_bond_atom_site_label_1
_geom_bond_atom_site_label_2
_geom_bond_distance
_geom_bond_site_symmetry_2
O0 P0 1.524770 1_555
O0 V0 1.974603 1_455
O1 P0 1.581886 1_555
O1 Sb2 2.248583 1_555
O1 Sb0 2.468110 1_554
O2 P0 1.581936 1_555
O2 Sb2 2.232367 1_555
O2 Sb0 2.493957 1_555
O3 P3 1.546442 1_455
O3 Sb1 2.151205 1_555
O4 P2 1.542620 1_555
O4 Sb0 2.230035 1_555
O5 P1 1.585612 1_555
O5 V0 2.019883 1_455
O5 Sb1 2.495988 1_554
O6 P1 1.585507 1_555
O6 V0 2.032554 1_455
O6 Sb1 2.475292 1_555
O7 P1 1.516323 1_565
O7 Sb2 2.395931 1_555
O8 P2 1.512442 1_545
O8 Sb1 2.492308 1_555
O9 P2 1.602380 1_555
O9 Sb0 2.231461 1_655
O9 Sb2 2.470643 1_555
O10 P2 1.601558 1_555
O10 Sb0 2.216011 1_655
O10 Sb2 2.500598 1_556
O11 P1 1.535829 1_555
O11 V0 1.943265 1_555
O12 P0 1.536323 1_655
O12 Sb2 2.104551 1_555
O13 P3 1.587043 1_555
O13 Sb1 2.225268 1_555
O13 V0 2.505010 1_555
O14 P3 1.587233 1_555
O14 Sb1 2.238665 1_555
O14 V0 2.469247 1_556
O15 P3 1.531420 1_555
O15 Sb0 2.202278 1_655
