# generated using pymatgen
data_CrO
_symmetry_space_group_name_H-M   'P 1'
_cell_length_a   5.75698000
_cell_length_b   5.75698000
_cell_length_c   5.81641700
_cell_angle_alpha   90.00000000
_cell_angle_beta   90.00000000
_cell_angle_gamma   90.00000000
_symmetry_Int_Tables_number   1
_chemical_formula_structural   CrO
_chemical_formula_sum   'Cr8 O8'
_cell_volume   192.77245423
_cell_formula_units_Z   8
loop_
 _symmetry_equiv_pos_site_id
 _symmetry_equiv_pos_as_xyz
  1  'x, y, z'
loop_
 _atom_site_type_symbol
 _atom_site_label
 _atom_site_symmetry_multiplicity
 _atom_site_fract_x
 _atom_site_fract_y
 _atom_site_fract_z
 _atom_site_occupancy
  Cr  Cr0  1  0.00000000  0.00000000  0.25000000  1
  Cr  Cr1  1  0.00000000  0.00000000  0.75000000  1
  Cr  Cr2  1  0.00000000  0.50000000  0.50000000  1
  Cr  Cr3  1  0.24741000  0.45876200  0.00000000  1
  Cr  Cr4  1  0.45876200  0.75259000  0.50000000  1
  Cr  Cr5  1  0.50000000  0.00000000  0.00000000  1
  Cr  Cr6  1  0.54123800  0.24741000  0.50000000  1
  Cr  Cr7  1  0.75259000  0.54123800  0.00000000  1
  O  O0  1  0.19061600  0.69345100  0.26413600  1
  O  O1  1  0.19061600  0.69345100  0.73586400  1
  O  O2  1  0.30654900  0.19061600  0.23586400  1
  O  O3  1  0.30654900  0.19061600  0.76413600  1
  O  O4  1  0.69345100  0.80938400  0.23586400  1
  O  O5  1  0.69345100  0.80938400  0.76413600  1
  O  O6  1  0.80938400  0.30654900  0.26413600  1
  O  O7  1  0.80938400  0.30654900  0.73586400  1
loop_
_geom_bond_atom_site_label_1
_geom_bond_atom_site_label_2
_geom_bond_distance
_geom_bond_site_symmetry_2
Cr0 O2 2.079782 1_555
Cr0 O6 2.079782 1_455
Cr0 O0 2.079782 1_545
Cr0 O4 2.079782 1_445
Cr1 O3 2.079782 1_555
Cr1 O7 2.079782 1_455
Cr1 O1 2.079782 1_545
Cr1 O5 2.079782 1_445
Cr2 O1 2.080049 1_555
Cr2 O0 2.080049 1_555
Cr2 O7 2.080049 1_455
Cr2 O6 2.080049 1_455
Cr3 O0 2.071876 1_555
Cr3 O1 2.071876 1_554
Cr3 O2 2.093089 1_555
Cr3 O3 2.093089 1_554
Cr4 O5 2.071876 1_555
Cr4 O4 2.071876 1_555
Cr4 O1 2.093089 1_555
Cr4 O0 2.093089 1_555
Cr5 O4 2.080049 1_545
Cr5 O2 2.080049 1_555
Cr5 O5 2.080049 1_544
Cr5 O3 2.080049 1_554
Cr6 O3 2.071876 1_555
Cr6 O2 2.071876 1_555
Cr6 O7 2.093089 1_555
Cr6 O6 2.093089 1_555
Cr7 O6 2.071876 1_555
Cr7 O7 2.071876 1_554
Cr7 O4 2.093089 1_555
Cr7 O5 2.093089 1_554
