# generated using pymatgen
data_LiMn2OF3
_symmetry_space_group_name_H-M   'P 1'
_cell_length_a   6.32931277
_cell_length_b   6.35237111
_cell_length_c   8.84265800
_cell_angle_alpha   90.00135922
_cell_angle_beta   89.99651668
_cell_angle_gamma   90.51924451
_symmetry_Int_Tables_number   1
_chemical_formula_structural   LiMn2OF3
_chemical_formula_sum   'Li4 Mn8 O4 F12'
_cell_volume   355.51457740
_cell_formula_units_Z   4
loop_
 _symmetry_equiv_pos_site_id
 _symmetry_equiv_pos_as_xyz
  1  'x, y, z'
loop_
 _atom_site_type_symbol
 _atom_site_label
 _atom_site_symmetry_multiplicity
 _atom_site_fract_x
 _atom_site_fract_y
 _atom_site_fract_z
 _atom_site_occupancy
  Li  Li0  1  0.00059500  0.73896200  0.86172600  1
  Li  Li1  1  0.49989800  0.26223400  0.38825900  1
  Li  Li2  1  0.49951100  0.76085800  0.36196000  1
  Li  Li3  1  0.00020700  0.23762200  0.88853700  1
  Mn  Mn0  1  0.50102100  0.04020700  0.73377900  1
  Mn  Mn1  1  0.50082800  0.53994100  0.01506900  1
  Mn  Mn2  1  0.99908700  0.96040400  0.51609700  1
  Mn  Mn3  1  0.99873000  0.45983200  0.23319300  1
  Mn  Mn4  1  0.75005300  0.99914800  0.12553200  1
  Mn  Mn5  1  0.75003500  0.50023400  0.62493800  1
  Mn  Mn6  1  0.25057500  0.99980500  0.12544500  1
  Mn  Mn7  1  0.24947400  0.50016200  0.62464300  1
  O  O0  1  0.49976600  0.79809600  0.13820000  1
  O  O1  1  0.00034900  0.19991800  0.11219700  1
  O  O2  1  0.00012400  0.70155800  0.63809400  1
  O  O3  1  0.49956500  0.29961200  0.61214200  1
  F  F0  1  0.50117000  0.26007000  0.14228700  1
  F  F1  1  0.99960800  0.74040100  0.10731800  1
  F  F2  1  0.99905100  0.24036800  0.64254600  1
  F  F3  1  0.50046900  0.75995800  0.60739800  1
  F  F4  1  0.26384800  0.50964600  0.37047000  1
  F  F5  1  0.73525500  0.51182500  0.37019000  1
  F  F6  1  0.73464400  0.01163000  0.38016400  1
  F  F7  1  0.26462300  0.00997700  0.37966200  1
  F  F8  1  0.76477300  0.98817900  0.87038700  1
  F  F9  1  0.23597100  0.99048400  0.87086500  1
  F  F10  1  0.23507400  0.49045400  0.87909400  1
  F  F11  1  0.76569400  0.48841300  0.87981000  1
loop_
_geom_bond_atom_site_label_1
_geom_bond_atom_site_label_2
_geom_bond_distance
_geom_bond_site_symmetry_2
Li0 O2 1.991718 1_555
Li1 O3 1.993906 1_555
Li2 O0 1.992727 1_555
Li3 O1 1.992206 1_556
Mn0 O3 1.967921 1_555
Mn1 O0 1.968481 1_555
Mn2 O2 1.966662 1_655
Mn3 O1 1.967511 1_655
Mn4 O1 2.028182 1_665
Mn4 O0 2.028918 1_555
Mn5 O3 2.028188 1_555
Mn5 O2 2.029273 1_655
Mn6 O1 2.043150 1_565
Mn6 O0 2.044204 1_555
Mn7 O3 2.043850 1_555
Mn7 O2 2.044062 1_555
F0 Mn1 2.103902 1_555
F0 Li1 2.175104 1_555
F0 Mn6 2.285555 1_545
F0 Mn4 2.301715 1_545
F1 Mn3 2.101282 1_555
F1 Li0 2.171714 1_654
F1 Mn6 2.284028 1_655
F1 Mn4 2.295521 1_555
F2 Mn2 2.100713 1_545
F2 Li3 2.175298 1_655
F2 Mn7 2.283285 1_655
F2 Mn5 2.297947 1_555
F3 Mn0 2.101900 1_565
F3 Li2 2.170341 1_555
F3 Mn7 2.285390 1_555
F3 Mn5 2.299665 1_555
F4 Mn3 2.092847 1_455
F4 Li2 2.175750 1_555
F4 Li1 2.183935 1_555
F4 Mn7 2.250186 1_555
F5 Mn3 2.089803 1_555
F5 Li1 2.171532 1_555
F5 Li2 2.185639 1_555
F5 Mn5 2.255828 1_555
F6 Mn2 2.088603 1_545
F6 Li2 2.176104 1_545
F6 Li1 2.188552 1_555
F6 Mn4 2.255153 1_545
F7 Mn2 2.090330 1_445
F7 Li1 2.178950 1_555
F7 Li2 2.186690 1_545
F7 Mn6 2.250620 1_545
F8 Mn0 2.089377 1_565
F8 Li3 2.171243 1_665
F8 Li0 2.186954 1_655
F8 Mn4 2.259176 1_556
F9 Mn0 2.091330 1_565
F9 Li0 2.176154 1_555
F9 Li3 2.181329 1_565
F9 Mn6 2.253821 1_556
F10 Mn1 2.089125 1_556
F10 Li3 2.180141 1_555
F10 Li0 2.181889 1_555
F10 Mn7 2.252686 1_555
F11 Mn1 2.087520 1_556
F11 Li0 2.173995 1_655
F11 Li3 2.188612 1_655
F11 Mn5 2.257211 1_555
