# generated using pymatgen
data_Li3FeF6
_symmetry_space_group_name_H-M   'P 1'
_cell_length_a   8.30245731
_cell_length_b   8.30245731
_cell_length_c   9.89452400
_cell_angle_alpha   84.67153079
_cell_angle_beta   84.67153079
_cell_angle_gamma   62.35593390
_symmetry_Int_Tables_number   1
_chemical_formula_structural   Li3FeF6
_chemical_formula_sum   'Li18 Fe6 F36'
_cell_volume   600.61116723
_cell_formula_units_Z   6
loop_
 _symmetry_equiv_pos_site_id
 _symmetry_equiv_pos_as_xyz
  1  'x, y, z'
loop_
 _atom_site_type_symbol
 _atom_site_label
 _atom_site_symmetry_multiplicity
 _atom_site_fract_x
 _atom_site_fract_y
 _atom_site_fract_z
 _atom_site_occupancy
  Li  Li0  1  0.94089495  0.65421788  0.93306506  1
  Li  Li1  1  0.65421788  0.94089495  0.43306506  1
  Li  Li2  1  0.46930329  0.87069262  0.95328308  1
  Li  Li3  1  0.87069262  0.46930329  0.45328308  1
  Li  Li4  1  0.99263496  0.29826906  0.73010627  1
  Li  Li5  1  0.29826906  0.99263496  0.23010627  1
  Li  Li6  1  0.67154575  0.36254697  0.97479859  1
  Li  Li7  1  0.36254697  0.67154575  0.47479859  1
  Li  Li8  1  0.18402149  0.81597851  0.75000000  1
  Li  Li9  1  0.81597851  0.18402149  0.25000000  1
  Li  Li10  1  0.63745303  0.32845425  0.52520141  1
  Li  Li11  1  0.32845425  0.63745303  0.02520141  1
  Li  Li12  1  0.70173094  0.00736504  0.76989373  1
  Li  Li13  1  0.00736504  0.70173094  0.26989373  1
  Li  Li14  1  0.12930738  0.53069671  0.54671692  1
  Li  Li15  1  0.53069671  0.12930738  0.04671692  1
  Li  Li16  1  0.34578212  0.05910505  0.56693494  1
  Li  Li17  1  0.05910505  0.34578212  0.06693494  1
  Fe  Fe0  1  0.65614696  0.66243764  0.71103837  1
  Fe  Fe1  1  0.66243764  0.65614696  0.21103837  1
  Fe  Fe2  1  0.00000000  -0.00000000  0.50000000  1
  Fe  Fe3  1  0.00000000  -0.00000000  -0.00000000  1
  Fe  Fe4  1  0.33756236  0.34385304  0.78896163  1
  Fe  Fe5  1  0.34385304  0.33756236  0.28896163  1
  F  F0  1  0.93026485  0.91953520  0.67211922  1
  F  F1  1  0.91953520  0.93026485  0.17211922  1
  F  F2  1  0.72495100  0.77220488  0.84974937  1
  F  F3  1  0.58415433  0.90073104  0.61376719  1
  F  F4  1  0.77220488  0.72495100  0.34974937  1
  F  F5  1  0.89684267  0.56784172  0.61813976  1
  F  F6  1  0.90073104  0.58415433  0.11376719  1
  F  F7  1  0.56784172  0.89684267  0.11813976  1
  F  F8  1  0.75646232  0.43372293  0.81298289  1
  F  F9  1  0.42506428  0.74886528  0.81386776  1
  F  F10  1  0.43372293  0.75646232  0.31298289  1
  F  F11  1  0.74886528  0.42506428  0.31386776  1
  F  F12  1  0.58851162  0.57277832  0.56448249  1
  F  F13  1  0.91294125  0.24432139  0.56274958  1
  F  F14  1  0.24230212  0.90536191  0.56854267  1
  F  F15  1  0.57277832  0.58851162  0.06448249  1
  F  F16  1  0.24432139  0.91294125  0.06274958  1
  F  F17  1  0.90536191  0.24230212  0.06854267  1
  F  F18  1  0.09463809  0.75769788  0.93145733  1
  F  F19  1  0.75567861  0.08705875  0.93725042  1
  F  F20  1  0.42722168  0.41148838  0.93551751  1
  F  F21  1  0.75769788  0.09463809  0.43145733  1
  F  F22  1  0.08705875  0.75567861  0.43725042  1
  F  F23  1  0.41148838  0.42722168  0.43551751  1
  F  F24  1  0.25113472  0.57493572  0.68613224  1
  F  F25  1  0.56627707  0.24353768  0.68701711  1
  F  F26  1  0.57493572  0.25113472  0.18613224  1
  F  F27  1  0.24353768  0.56627707  0.18701711  1
  F  F28  1  0.43215828  0.10315733  0.88186024  1
  F  F29  1  0.09926896  0.41584567  0.88623281  1
  F  F30  1  0.10315733  0.43215828  0.38186024  1
  F  F31  1  0.22779512  0.27504900  0.65025063  1
  F  F32  1  0.41584567  0.09926896  0.38623281  1
  F  F33  1  0.27504900  0.22779512  0.15025063  1
  F  F34  1  0.08046480  0.06973515  0.82788078  1
  F  F35  1  0.06973515  0.08046480  0.32788078  1
loop_
_geom_bond_atom_site_label_1
_geom_bond_atom_site_label_2
_geom_bond_distance
_geom_bond_site_symmetry_2
F0 Li12 1.890491 1_565
F0 Fe2 1.909535 1_665
F0 Li8 2.066216 1_655
F1 Li13 1.890491 1_655
F1 Fe3 1.909535 1_665
F1 Li9 2.066216 1_565
F2 Li0 1.829843 1_555
F2 Li12 1.966181 1_565
F2 Fe0 1.975239 1_555
F2 Li2 2.089090 1_555
F3 Li16 1.871571 1_565
F3 Li1 1.876824 1_555
F3 Fe0 1.963053 1_555
F3 Li12 2.336489 1_565
F4 Li1 1.829843 1_555
F4 Li13 1.966181 1_655
F4 Fe1 1.975239 1_555
F4 Li3 2.089090 1_555
F5 Li14 1.885301 1_655
F5 Fe0 1.947231 1_555
F5 Li3 1.963578 1_555
F5 Li4 2.218195 1_555
F6 Li17 1.871571 1_655
F6 Li0 1.876824 1_554
F6 Fe1 1.963053 1_555
F6 Li13 2.336489 1_655
F7 Li15 1.885301 1_565
F7 Fe1 1.947231 1_555
F7 Li2 1.963578 1_554
F7 Li5 2.218195 1_555
F8 Li6 1.846880 1_555
F8 Li4 1.899562 1_555
F8 Fe0 1.910400 1_555
F9 Fe0 1.930413 1_555
F9 Li2 1.938770 1_555
F9 Li8 1.962024 1_555
F9 Li11 2.426765 1_556
F10 Li7 1.846880 1_555
F10 Li5 1.899562 1_555
F10 Fe1 1.910400 1_555
F11 Fe1 1.930413 1_555
F11 Li3 1.938770 1_555
F11 Li9 1.962024 1_555
F11 Li10 2.426765 1_555
F12 Fe0 1.926617 1_555
F12 Li7 1.930275 1_555
F12 Li10 1.945040 1_555
F12 Li3 2.294873 1_555
F13 Fe2 1.952595 1_655
F13 Li3 1.967752 1_555
F13 Li4 1.999175 1_555
F13 Li10 2.117649 1_555
F14 Li16 1.838209 1_565
F14 Fe2 1.952414 1_565
F14 Li8 1.983134 1_555
F14 Li7 1.997379 1_555
F15 Fe1 1.926617 1_555
F15 Li6 1.930275 1_554
F15 Li11 1.945040 1_555
F15 Li2 2.294873 1_554
F16 Fe3 1.952595 1_565
F16 Li2 1.967752 1_554
F16 Li5 1.999175 1_555
F16 Li11 2.117649 1_555
F17 Li17 1.838209 1_655
F17 Fe3 1.952414 1_655
F17 Li9 1.983134 1_555
F17 Li6 1.997379 1_554
F18 Li0 1.838209 1_455
F18 Fe3 1.952414 1_566
F18 Li8 1.983134 1_555
F18 Li11 1.997379 1_556
F19 Fe3 1.952595 1_656
F19 Li15 1.967752 1_556
F19 Li12 1.999175 1_555
F19 Li6 2.117649 1_555
F20 Fe4 1.926617 1_555
F20 Li11 1.930275 1_556
F20 Li6 1.945040 1_555
F20 Li15 2.294873 1_556
F21 Li1 1.838209 1_545
F21 Fe2 1.952414 1_655
F21 Li9 1.983134 1_555
F21 Li10 1.997379 1_555
F22 Fe2 1.952595 1_565
F22 Li14 1.967752 1_555
F22 Li13 1.999175 1_555
F22 Li7 2.117649 1_555
F23 Fe5 1.926617 1_555
F23 Li10 1.930275 1_555
F23 Li7 1.945040 1_555
F23 Li14 2.294873 1_555
F24 Fe4 1.930413 1_555
F24 Li14 1.938770 1_555
F24 Li8 1.962024 1_555
F24 Li7 2.426765 1_555
F25 Li10 1.846880 1_555
F25 Li12 1.899562 1_555
F25 Fe4 1.910400 1_555
F26 Fe5 1.930413 1_555
F26 Li15 1.938770 1_555
F26 Li9 1.962024 1_555
F26 Li6 2.426765 1_554
F27 Li11 1.846880 1_555
F27 Li13 1.899562 1_555
F27 Fe5 1.910400 1_555
F28 Li2 1.885301 1_545
F28 Fe4 1.947231 1_555
F28 Li15 1.963578 1_556
F28 Li12 2.218195 1_555
F29 Li0 1.871571 1_455
F29 Li17 1.876824 1_556
F29 Fe4 1.963053 1_555
F29 Li4 2.336489 1_455
F30 Li3 1.885301 1_455
F30 Fe5 1.947231 1_555
F30 Li14 1.963578 1_555
F30 Li13 2.218195 1_555
F31 Li16 1.829843 1_555
F31 Li4 1.966181 1_455
F31 Fe4 1.975239 1_555
F31 Li14 2.089090 1_555
F32 Li1 1.871571 1_545
F32 Li16 1.876824 1_555
F32 Fe5 1.963053 1_555
F32 Li5 2.336489 1_545
F33 Li17 1.829843 1_555
F33 Li5 1.966181 1_545
F33 Fe5 1.975239 1_555
F33 Li15 2.089090 1_555
F34 Li4 1.890491 1_455
F34 Fe3 1.909535 1_556
F34 Li8 2.066216 1_545
F35 Li5 1.890491 1_545
F35 Fe2 1.909535 1_555
F35 Li9 2.066216 1_455
