# generated using pymatgen
data_NbV2Fe3(PO4)6
_symmetry_space_group_name_H-M   'P 1'
_cell_length_a   8.67653530
_cell_length_b   8.67653530
_cell_length_c   8.67653559
_cell_angle_alpha   60.11938661
_cell_angle_beta   60.11938661
_cell_angle_gamma   60.11938939
_symmetry_Int_Tables_number   1
_chemical_formula_structural   NbV2Fe3(PO4)6
_chemical_formula_sum   'Nb1 V2 Fe3 P6 O24'
_cell_volume   463.12381198
_cell_formula_units_Z   1
loop_
 _symmetry_equiv_pos_site_id
 _symmetry_equiv_pos_as_xyz
  1  'x, y, z'
loop_
 _atom_site_type_symbol
 _atom_site_label
 _atom_site_symmetry_multiplicity
 _atom_site_fract_x
 _atom_site_fract_y
 _atom_site_fract_z
 _atom_site_occupancy
  Nb  Nb0  1  0.14381800  0.14381800  0.14381800  1
  V  V0  1  0.99722500  0.99722500  0.99722500  1
  V  V1  1  0.49944500  0.49944500  0.49944500  1
  Fe  Fe0  1  0.64505400  0.64505400  0.64505400  1
  Fe  Fe1  1  0.85322800  0.85322800  0.85322800  1
  Fe  Fe2  1  0.35495500  0.35495500  0.35495500  1
  P  P0  1  0.95442600  0.25239100  0.55049600  1
  P  P1  1  0.55049600  0.95442600  0.25239100  1
  P  P2  1  0.25239100  0.55049600  0.95442600  1
  P  P3  1  0.74386700  0.46199100  0.04285800  1
  P  P4  1  0.46199100  0.04285800  0.74386700  1
  P  P5  1  0.04285800  0.74386700  0.46199100  1
  O  O0  1  0.50499200  0.11335000  0.31185400  1
  O  O1  1  0.31185400  0.50499200  0.11335000  1
  O  O2  1  0.11335000  0.31185400  0.50499200  1
  O  O3  1  0.93982400  0.08671700  0.73893000  1
  O  O4  1  0.00405100  0.18743600  0.38443800  1
  O  O5  1  0.76216300  0.41171300  0.55612600  1
  O  O6  1  0.73893000  0.93982400  0.08671700  1
  O  O7  1  0.55612600  0.76216300  0.41171300  1
  O  O8  1  0.81274300  0.61245800  0.00382000  1
  O  O9  1  0.41171300  0.55612600  0.76216300  1
  O  O10  1  0.91083100  0.26281000  0.06162100  1
  O  O11  1  0.61245800  0.00382000  0.81274300  1
  O  O12  1  0.38443800  0.00405100  0.18743600  1
  O  O13  1  0.08671700  0.73893100  0.93982400  1
  O  O14  1  0.58658800  0.44089700  0.23816200  1
  O  O15  1  0.18743600  0.38443800  0.00405100  1
  O  O16  1  0.44089700  0.23816200  0.58658800  1
  O  O17  1  0.26281000  0.06162100  0.91083100  1
  O  O18  1  0.23816200  0.58658800  0.44089700  1
  O  O19  1  0.00382000  0.81274300  0.61245800  1
  O  O20  1  0.06162100  0.91083100  0.26281000  1
  O  O21  1  0.88507700  0.68975600  0.49390700  1
  O  O22  1  0.68975600  0.49390700  0.88507700  1
  O  O23  1  0.49390700  0.88507700  0.68975600  1
loop_
_geom_bond_atom_site_label_1
_geom_bond_atom_site_label_2
_geom_bond_distance
_geom_bond_site_symmetry_2
Nb0 O15 1.944186 1_555
Nb0 O12 1.944186 1_555
Nb0 O4 1.944186 1_555
Nb0 O20 2.069879 1_545
Nb0 O10 2.069879 1_455
Nb0 O17 2.069879 1_554
Fe0 O21 1.945278 1_555
Fe0 O23 1.945278 1_555
Fe0 O22 1.945278 1_555
Fe0 O9 2.110058 1_555
Fe0 O5 2.110058 1_555
Fe0 O7 2.110058 1_555
Fe1 O8 1.936204 1_556
Fe1 O11 1.936204 1_565
Fe1 O19 1.936204 1_655
Fe1 O3 2.103469 1_565
Fe1 O6 2.103469 1_556
Fe1 O13 2.103471 1_655
Fe2 O2 1.950878 1_555
Fe2 O0 1.950878 1_555
Fe2 O1 1.950878 1_555
Fe2 O14 2.081627 1_555
Fe2 O18 2.081627 1_555
Fe2 O16 2.081627 1_555
O0 P1 1.512250 1_545
O1 P2 1.512250 1_554
O2 P0 1.512250 1_455
O3 P0 1.545579 1_555
O3 V0 2.206001 1_545
O4 P0 1.590004 1_455
O5 P0 1.544188 1_555
O5 V1 2.243307 1_555
O6 P1 1.545579 1_555
O6 V0 2.206001 1_554
O7 P1 1.544188 1_555
O7 V1 2.243307 1_555
O8 P3 1.520315 1_555
O9 P2 1.544188 1_555
O9 V1 2.243307 1_555
O10 P3 1.603724 1_555
O10 V0 2.308376 1_544
O11 P4 1.520315 1_555
O12 P1 1.590004 1_545
O13 P2 1.545584 1_555
O13 V0 2.205993 1_455
O14 P3 1.550160 1_555
O14 V1 2.241882 1_555
O15 P2 1.590004 1_554
O16 P4 1.550160 1_555
O16 V1 2.241882 1_555
O17 P4 1.603724 1_555
O17 V0 2.308376 1_445
O18 P5 1.550160 1_555
O18 V1 2.241882 1_555
O19 P5 1.520315 1_555
O20 P5 1.603724 1_555
O20 V0 2.308376 1_454
O21 P5 1.518022 1_655
O22 P3 1.518022 1_556
O23 P4 1.518022 1_565
