# generated using pymatgen
data_K6Na2V2S7O30
_symmetry_space_group_name_H-M   'P 1'
_cell_length_a   9.70917100
_cell_length_b   9.70917100
_cell_length_c   30.08617200
_cell_angle_alpha   90.00000000
_cell_angle_beta   90.00000000
_cell_angle_gamma   90.00000000
_symmetry_Int_Tables_number   1
_chemical_formula_structural   K6Na2V2S7O30
_chemical_formula_sum   'K24 Na8 V8 S28 O120'
_cell_volume   2836.16330744
_cell_formula_units_Z   4
loop_
 _symmetry_equiv_pos_site_id
 _symmetry_equiv_pos_as_xyz
  1  'x, y, z'
loop_
 _atom_site_type_symbol
 _atom_site_label
 _atom_site_symmetry_multiplicity
 _atom_site_fract_x
 _atom_site_fract_y
 _atom_site_fract_z
 _atom_site_occupancy
  K  K0  1  0.06383900  0.94085900  0.81227500  1
  K  K1  1  0.99126800  0.67632800  0.40421800  1
  K  K2  1  0.91743300  0.39627000  0.51864900  1
  K  K3  1  0.60373000  0.08256700  0.98135100  1
  K  K4  1  0.93616100  0.05914100  0.31227500  1
  K  K5  1  0.00873200  0.32367200  0.90421800  1
  K  K6  1  0.89627000  0.58256700  0.76864900  1
  K  K7  1  0.56383900  0.55914100  0.43772500  1
  K  K8  1  0.55914100  0.56383900  0.56227500  1
  K  K9  1  0.44085900  0.43616100  0.06227500  1
  K  K10  1  0.08256700  0.60373000  0.01864900  1
  K  K11  1  0.17632800  0.50873200  0.65421800  1
  K  K12  1  0.41743300  0.10373000  0.73135100  1
  K  K13  1  0.58256700  0.89627000  0.23135100  1
  K  K14  1  0.49126800  0.82367200  0.84578200  1
  K  K15  1  0.43616100  0.44085900  0.93772500  1
  K  K16  1  0.94085900  0.06383900  0.18772500  1
  K  K17  1  0.50873200  0.17632800  0.34578200  1
  K  K18  1  0.67632800  0.99126800  0.59578200  1
  K  K19  1  0.39627000  0.91743300  0.48135100  1
  K  K20  1  0.10373000  0.41743300  0.26864900  1
  K  K21  1  0.05914100  0.93616100  0.68772500  1
  K  K22  1  0.82367200  0.49126800  0.15421800  1
  K  K23  1  0.32367200  0.00873200  0.09578200  1
  Na  Na0  1  0.34032100  0.22724600  0.57236500  1
  Na  Na1  1  0.72724600  0.15967900  0.82236500  1
  Na  Na2  1  0.22724600  0.34032100  0.42763500  1
  Na  Na3  1  0.77275400  0.65967900  0.92763500  1
  Na  Na4  1  0.65967900  0.77275400  0.07236500  1
  Na  Na5  1  0.84032100  0.27275400  0.67763500  1
  Na  Na6  1  0.15967900  0.72724600  0.17763500  1
  Na  Na7  1  0.27275400  0.84032100  0.32236500  1
  V  V0  1  0.32754500  0.42931200  0.81461700  1
  V  V1  1  0.67245500  0.57068800  0.31461700  1
  V  V2  1  0.92931200  0.17245500  0.06461700  1
  V  V3  1  0.17245500  0.92931200  0.93538300  1
  V  V4  1  0.57068800  0.67245500  0.68538300  1
  V  V5  1  0.42931200  0.32754500  0.18538300  1
  V  V6  1  0.82754500  0.07068800  0.43538300  1
  V  V7  1  0.07068800  0.82754500  0.56461700  1
  S  S0  1  0.71299400  0.28700600  0.25000000  1
  S  S1  1  0.21299400  0.21299400  0.00000000  1
  S  S2  1  0.14739900  0.38693200  0.13152400  1
  S  S3  1  0.76645700  0.44075000  0.02656400  1
  S  S4  1  0.99013900  0.85290700  0.09557700  1
  S  S5  1  0.35290700  0.50986100  0.34557700  1
  S  S6  1  0.78700600  0.78700600  0.50000000  1
  S  S7  1  0.35260100  0.88693200  0.61847600  1
  S  S8  1  0.05925000  0.26645700  0.77656400  1
  S  S9  1  0.85260100  0.61306800  0.63152400  1
  S  S10  1  0.23354300  0.55925000  0.52656400  1
  S  S11  1  0.28700600  0.71299400  0.75000000  1
  S  S12  1  0.85290700  0.99013900  0.90442300  1
  S  S13  1  0.88693200  0.35260100  0.38152400  1
  S  S14  1  0.64709300  0.49013900  0.84557700  1
  S  S15  1  0.11306800  0.64739900  0.88152400  1
  S  S16  1  0.55925000  0.23354300  0.47343600  1
  S  S17  1  0.73354300  0.94075000  0.72343600  1
  S  S18  1  0.14709300  0.00986100  0.40442300  1
  S  S19  1  0.38693200  0.14739900  0.86847600  1
  S  S20  1  0.61306800  0.85260100  0.36847600  1
  S  S21  1  0.50986100  0.35290700  0.65442300  1
  S  S22  1  0.49013900  0.64709300  0.15442300  1
  S  S23  1  0.94075000  0.73354300  0.27656400  1
  S  S24  1  0.26645700  0.05925000  0.22343600  1
  S  S25  1  0.00986100  0.14709300  0.59557700  1
  S  S26  1  0.64739900  0.11306800  0.11847600  1
  S  S27  1  0.44075000  0.76645700  0.97343600  1
  O  O0  1  0.88128200  0.82203300  0.53858000  1
  O  O1  1  0.21591600  0.53561600  0.87460700  1
  O  O2  1  0.29971700  0.27661100  0.85578900  1
  O  O3  1  0.82203300  0.88128200  0.46142000  1
  O  O4  1  0.18871100  0.10689900  0.43899800  1
  O  O5  1  0.11871800  0.17796700  0.03858000  1
  O  O6  1  0.18211800  0.46066000  0.09062600  1
  O  O7  1  0.97815900  0.21764800  0.81514800  1
  O  O8  1  0.39310100  0.68871100  0.18899800  1
  O  O9  1  0.65603800  0.33990200  0.48884000  1
  O  O10  1  0.17796700  0.11871800  0.96142000  1
  O  O11  1  0.02110600  0.61191800  0.91850500  1
  O  O12  1  0.68006100  0.02811800  0.75920500  1
  O  O13  1  0.80782800  0.94932400  0.85947700  1
  O  O14  1  0.03934000  0.68211800  0.84062600  1
  O  O15  1  0.64615100  0.81070400  0.51565100  1
  O  O16  1  0.81391800  0.13312400  0.91453400  1
  O  O17  1  0.18608200  0.86687600  0.41453400  1
  O  O18  1  0.34396200  0.66009800  0.98884000  1
  O  O19  1  0.18929600  0.35384900  0.98434900  1
  O  O20  1  0.72338900  0.70028300  0.64421100  1
  O  O21  1  0.13312400  0.81391800  0.08546600  1
  O  O22  1  0.71591600  0.96438400  0.37539300  1
  O  O23  1  0.66009800  0.34396200  0.01116000  1
  O  O24  1  0.38808200  0.97889400  0.58149500  1
  O  O25  1  0.11191800  0.47889400  0.16850500  1
  O  O26  1  0.52110600  0.88808200  0.33149500  1
  O  O27  1  0.02811800  0.68006100  0.24079500  1
  O  O28  1  0.33990200  0.65603800  0.51116000  1
  O  O29  1  0.31993900  0.97188200  0.25920500  1
  O  O30  1  0.09024000  0.85116500  0.97380400  1
  O  O31  1  0.21764800  0.97815900  0.18485200  1
  O  O32  1  0.89310100  0.81128900  0.06100200  1
  O  O33  1  0.63312400  0.68608200  0.16453400  1
  O  O34  1  0.94932400  0.80782800  0.14052300  1
  O  O35  1  0.28408400  0.03561600  0.87539300  1
  O  O36  1  0.67796700  0.38128200  0.28858000  1
  O  O37  1  0.81788200  0.53934000  0.59062600  1
  O  O38  1  0.81070400  0.64615100  0.48434900  1
  O  O39  1  0.53934000  0.81788200  0.40937400  1
  O  O40  1  0.18006100  0.47188200  0.49079500  1
  O  O41  1  0.97188200  0.31993900  0.74079500  1
  O  O42  1  0.36687600  0.31391800  0.66453400  1
  O  O43  1  0.81993900  0.52811800  0.99079500  1
  O  O44  1  0.20028300  0.77661100  0.89421100  1
  O  O45  1  0.48345700  0.49155600  0.84862900  1
  O  O46  1  0.68871100  0.39310100  0.81100200  1
  O  O47  1  0.53561600  0.21591600  0.12539300  1
  O  O48  1  0.78235200  0.02184100  0.68485200  1
  O  O49  1  0.51654300  0.50844400  0.34862900  1
  O  O50  1  0.01654300  0.99155600  0.90137100  1
  O  O51  1  0.50844400  0.51654300  0.65137100  1
  O  O52  1  0.10689900  0.18871100  0.56100200  1
  O  O53  1  0.28235200  0.47815900  0.56514800  1
  O  O54  1  0.77661100  0.20028300  0.10578900  1
  O  O55  1  0.52811800  0.81993900  0.00920500  1
  O  O56  1  0.32203300  0.61871800  0.78858000  1
  O  O57  1  0.61191800  0.02110600  0.08149500  1
  O  O58  1  0.52184100  0.71764800  0.93485200  1
  O  O59  1  0.68929600  0.14615100  0.26565100  1
  O  O60  1  0.59024000  0.64883500  0.27619600  1
  O  O61  1  0.64119600  0.10433500  0.45624700  1
  O  O62  1  0.47815900  0.28235200  0.43485200  1
  O  O63  1  0.00844400  0.98345700  0.59862900  1
  O  O64  1  0.61871800  0.32203300  0.21142000  1
  O  O65  1  0.31391800  0.36687600  0.33546600  1
  O  O66  1  0.30782800  0.55067600  0.39052300  1
  O  O67  1  0.31128900  0.60689900  0.31100200  1
  O  O68  1  0.96438400  0.71591600  0.62460700  1
  O  O69  1  0.35384900  0.18929600  0.01565100  1
  O  O70  1  0.68211800  0.03934000  0.15937400  1
  O  O71  1  0.03561600  0.28408400  0.12460700  1
  O  O72  1  0.44932400  0.69217200  0.10947700  1
  O  O73  1  0.81128900  0.89310100  0.93899800  1
  O  O74  1  0.99155600  0.01654300  0.09862900  1
  O  O75  1  0.79971700  0.22338900  0.39421100  1
  O  O76  1  0.22338900  0.79971700  0.60578900  1
  O  O77  1  0.47188200  0.18006100  0.50920500  1
  O  O78  1  0.16009800  0.15603800  0.23884000  1
  O  O79  1  0.85384900  0.31070400  0.23434900  1
  O  O80  1  0.40976000  0.35116500  0.77619600  1
  O  O81  1  0.96066000  0.31788200  0.34062600  1
  O  O82  1  0.10433500  0.64119600  0.54375300  1
  O  O83  1  0.19217200  0.05067600  0.35947700  1
  O  O84  1  0.68608200  0.63312400  0.83546600  1
  O  O85  1  0.31070400  0.85384900  0.76565100  1
  O  O86  1  0.27661100  0.29971700  0.14421100  1
  O  O87  1  0.05067600  0.19217200  0.64052300  1
  O  O88  1  0.35116500  0.40976000  0.22380400  1
  O  O89  1  0.46066000  0.18211800  0.90937400  1
  O  O90  1  0.55067600  0.30782800  0.60947700  1
  O  O91  1  0.71764800  0.52184100  0.06514800  1
  O  O92  1  0.78408400  0.46438400  0.37460700  1
  O  O93  1  0.84396200  0.83990200  0.26116000  1
  O  O94  1  0.89566500  0.35880400  0.04375300  1
  O  O95  1  0.85880400  0.60433500  0.29375300  1
  O  O96  1  0.14615100  0.68929600  0.73434900  1
  O  O97  1  0.46438400  0.78408400  0.62539300  1
  O  O98  1  0.14883500  0.90976000  0.52619600  1
  O  O99  1  0.98345700  0.00844400  0.40137100  1
  O  O100  1  0.47889400  0.11191800  0.83149500  1
  O  O101  1  0.69217200  0.44932400  0.89052300  1
  O  O102  1  0.64883500  0.59024000  0.72380400  1
  O  O103  1  0.83990200  0.84396200  0.73884000  1
  O  O104  1  0.02184100  0.78235200  0.31514800  1
  O  O105  1  0.38128200  0.67796700  0.71142000  1
  O  O106  1  0.88808200  0.52110600  0.66850500  1
  O  O107  1  0.49155600  0.48345700  0.15137100  1
  O  O108  1  0.60689900  0.31128900  0.68899800  1
  O  O109  1  0.14119600  0.39566500  0.79375300  1
  O  O110  1  0.15603800  0.16009800  0.76116000  1
  O  O111  1  0.35880400  0.89566500  0.95624700  1
  O  O112  1  0.39566500  0.14119600  0.20624700  1
  O  O113  1  0.70028300  0.72338900  0.35578900  1
  O  O114  1  0.90976000  0.14883500  0.47380400  1
  O  O115  1  0.86687600  0.18608200  0.58546600  1
  O  O116  1  0.85116500  0.09024000  0.02619600  1
  O  O117  1  0.60433500  0.85880400  0.70624700  1
  O  O118  1  0.31788200  0.96066000  0.65937400  1
  O  O119  1  0.97889400  0.38808200  0.41850500  1
loop_
_geom_bond_atom_site_label_1
_geom_bond_atom_site_label_2
_geom_bond_distance
_geom_bond_site_symmetry_2
K0 O14 2.663662 1_555
K0 O50 2.763792 1_555
K0 O110 2.774418 1_565
K0 O7 2.814529 1_465
K0 O13 2.863913 1_455
K0 O85 2.902803 1_555
K0 O35 3.004211 1_565
K0 O103 3.239408 1_455
K1 O17 2.663976 1_655
K1 O119 2.833995 1_555
K1 O104 2.885998 1_655
K1 O38 2.995234 1_555
K1 O92 3.012422 1_555
K1 O3 3.101858 1_555
K1 O113 3.211486 1_555
K1 O99 3.226600 1_565
K1 O66 3.332376 1_655
K2 O9 2.746803 1_555
K2 O37 2.748318 1_555
K2 O114 2.756338 1_555
K2 O40 2.782663 1_655
K2 O38 2.832824 1_555
K2 O115 2.906337 1_555
K2 O52 3.011444 1_655
K2 O119 3.072504 1_555
K2 O82 3.085203 1_655
K3 O23 2.746803 1_556
K3 O89 2.748318 1_555
K3 O116 2.756338 1_556
K3 O55 2.782663 1_546
K3 O69 2.832824 1_556
K3 O16 2.906337 1_555
K3 O73 3.011444 1_545
K3 O57 3.072504 1_556
K3 O111 3.085203 1_545
K4 O81 2.663662 1_555
K4 O99 2.763792 1_555
K4 O93 2.774418 1_545
K4 O104 2.814529 1_645
K4 O83 2.863913 1_655
K4 O59 2.902803 1_555
K4 O22 3.004211 1_545
K4 O78 3.239408 1_655
K5 O16 2.663976 1_455
K5 O11 2.833995 1_555
K5 O7 2.885998 1_455
K5 O19 2.995234 1_555
K5 O1 3.012422 1_555
K5 O10 3.101858 1_555
K5 O2 3.211486 1_555
K5 O50 3.226600 1_545
K5 O101 3.332376 1_455
K6 O103 2.746803 1_555
K6 O14 2.748318 1_655
K6 O102 2.756338 1_555
K6 O41 2.782663 1_555
K6 O96 2.832824 1_655
K6 O84 2.906337 1_555
K6 O46 3.011444 1_555
K6 O106 3.072504 1_555
K6 O109 3.085203 1_655
K7 O39 2.663662 1_555
K7 O49 2.763792 1_555
K7 O9 2.774418 1_555
K7 O62 2.814529 1_555
K7 O66 2.863913 1_555
K7 O38 2.902803 1_555
K7 O92 3.004211 1_555
K7 O28 3.239408 1_555
K8 O37 2.663662 1_555
K8 O51 2.763792 1_555
K8 O28 2.774418 1_555
K8 O53 2.814529 1_555
K8 O90 2.863913 1_555
K8 O15 2.902803 1_555
K8 O97 3.004211 1_555
K8 O9 3.239408 1_555
K9 O6 2.663662 1_555
K9 O107 2.763792 1_555
K9 O23 2.774418 1_555
K9 O91 2.814529 1_555
K9 O72 2.863913 1_555
K9 O69 2.902803 1_555
K9 O47 3.004211 1_555
K9 O18 3.239408 1_554
K10 O18 2.746803 1_554
K10 O6 2.748318 1_555
K10 O30 2.756338 1_554
K10 O43 2.782663 1_454
K10 O19 2.832824 1_554
K10 O21 2.906337 1_555
K10 O32 3.011444 1_455
K10 O11 3.072504 1_554
K10 O94 3.085203 1_455
K11 O42 2.663976 1_555
K11 O106 2.833995 1_455
K11 O53 2.885998 1_555
K11 O96 2.995234 1_555
K11 O68 3.012422 1_455
K11 O105 3.101858 1_555
K11 O76 3.211486 1_555
K11 O51 3.226600 1_555
K11 O87 3.332376 1_555
K12 O110 2.746803 1_555
K12 O118 2.748318 1_545
K12 O80 2.756338 1_555
K12 O12 2.782663 1_555
K12 O85 2.832824 1_545
K12 O42 2.906337 1_555
K12 O108 3.011444 1_555
K12 O100 3.072504 1_555
K12 O117 3.085203 1_545
K13 O93 2.746803 1_555
K13 O70 2.748318 1_565
K13 O60 2.756338 1_555
K13 O29 2.782663 1_555
K13 O59 2.832824 1_565
K13 O33 2.906337 1_555
K13 O8 3.011444 1_555
K13 O26 3.072504 1_555
K13 O112 3.085203 1_565
K14 O84 2.663976 1_555
K14 O100 2.833995 1_565
K14 O58 2.885998 1_555
K14 O85 2.995234 1_555
K14 O35 3.012422 1_565
K14 O56 3.101858 1_555
K14 O44 3.211486 1_555
K14 O45 3.226600 1_555
K14 O13 3.332376 1_555
K15 O89 2.663662 1_555
K15 O45 2.763792 1_555
K15 O18 2.774418 1_555
K15 O58 2.814529 1_555
K15 O101 2.863913 1_555
K15 O19 2.902803 1_555
K15 O1 3.004211 1_555
K15 O23 3.239408 1_556
K16 O70 2.663662 1_555
K16 O74 2.763792 1_555
K16 O78 2.774418 1_655
K16 O31 2.814529 1_645
K16 O34 2.863913 1_545
K16 O79 2.902803 1_555
K16 O71 3.004211 1_655
K16 O93 3.239408 1_545
K17 O65 2.663976 1_555
K17 O26 2.833995 1_545
K17 O62 2.885998 1_555
K17 O59 2.995234 1_555
K17 O22 3.012422 1_545
K17 O36 3.101858 1_555
K17 O75 3.211486 1_555
K17 O49 3.226600 1_555
K17 O83 3.332376 1_555
K18 O115 2.663976 1_565
K18 O24 2.833995 1_555
K18 O48 2.885998 1_565
K18 O15 2.995234 1_555
K18 O97 3.012422 1_555
K18 O0 3.101858 1_555
K18 O20 3.211486 1_555
K18 O63 3.226600 1_655
K18 O90 3.332376 1_565
K19 O28 2.746803 1_555
K19 O39 2.748318 1_555
K19 O98 2.756338 1_555
K19 O77 2.782663 1_565
K19 O15 2.832824 1_555
K19 O17 2.906337 1_555
K19 O4 3.011444 1_565
K19 O24 3.072504 1_555
K19 O61 3.085203 1_565
K20 O78 2.746803 1_555
K20 O81 2.748318 1_455
K20 O88 2.756338 1_555
K20 O27 2.782663 1_555
K20 O79 2.832824 1_455
K20 O65 2.906337 1_555
K20 O67 3.011444 1_555
K20 O25 3.072504 1_555
K20 O95 3.085203 1_455
K21 O118 2.663662 1_555
K21 O63 2.763792 1_555
K21 O103 2.774418 1_455
K21 O48 2.814529 1_465
K21 O87 2.863913 1_565
K21 O96 2.902803 1_555
K21 O68 3.004211 1_455
K21 O110 3.239408 1_565
K22 O33 2.663976 1_555
K22 O25 2.833995 1_655
K22 O91 2.885998 1_555
K22 O79 2.995234 1_555
K22 O71 3.012422 1_655
K22 O64 3.101858 1_555
K22 O54 3.211486 1_555
K22 O107 3.226600 1_555
K22 O34 3.332376 1_555
K23 O21 2.663976 1_545
K23 O57 2.833995 1_555
K23 O31 2.885998 1_545
K23 O69 2.995234 1_555
K23 O47 3.012422 1_555
K23 O5 3.101858 1_555
K23 O86 3.211486 1_555
K23 O74 3.226600 1_455
K23 O72 3.332376 1_545
Na0 O52 2.322311 1_555
Na0 O77 2.335042 1_555
Na0 O90 2.455629 1_555
Na0 O24 2.470793 1_545
Na0 O53 2.509738 1_555
Na0 O42 2.909333 1_555
Na1 O46 2.322311 1_555
Na1 O12 2.335042 1_555
Na1 O13 2.455629 1_545
Na1 O100 2.470793 1_555
Na1 O7 2.509738 1_555
Na1 O16 2.909333 1_555
Na2 O4 2.322311 1_555
Na2 O40 2.335042 1_555
Na2 O66 2.455629 1_555
Na2 O119 2.470793 1_455
Na2 O62 2.509738 1_555
Na2 O65 2.909333 1_555
Na3 O73 2.322311 1_555
Na3 O43 2.335042 1_555
Na3 O101 2.455629 1_555
Na3 O11 2.470793 1_655
Na3 O58 2.509738 1_555
Na3 O84 2.909333 1_555
Na4 O32 2.322311 1_555
Na4 O55 2.335042 1_555
Na4 O72 2.455629 1_555
Na4 O57 2.470793 1_565
Na4 O91 2.509738 1_555
Na4 O33 2.909333 1_555
Na5 O108 2.322311 1_555
Na5 O41 2.335042 1_555
Na5 O87 2.455629 1_655
Na5 O106 2.470793 1_555
Na5 O48 2.509738 1_555
Na5 O115 2.909333 1_555
Na6 O8 2.322311 1_555
Na6 O27 2.335042 1_555
Na6 O34 2.455629 1_455
Na6 O25 2.470793 1_555
Na6 O31 2.509738 1_555
Na6 O21 2.909333 1_555
Na7 O67 2.322311 1_555
Na7 O29 2.335042 1_555
Na7 O83 2.455629 1_565
Na7 O26 2.470793 1_555
Na7 O104 2.509738 1_555
Na7 O17 2.909333 1_555
O0 S6 1.516835 1_555
O0 V7 1.999584 1_655
O1 S15 1.489419 1_555
O1 V0 2.344677 1_555
O2 S19 1.560967 1_555
O2 V0 1.950769 1_555
O3 S6 1.516835 1_555
O3 V6 1.999584 1_565
O4 S18 1.460485 1_555
O5 S1 1.516835 1_555
O5 V2 1.999584 1_455
O6 S2 1.462907 1_555
O7 S8 1.480547 1_655
O8 S22 1.460485 1_555
O9 S16 1.471143 1_555
O10 S1 1.516835 1_556
O10 V3 1.999584 1_545
O11 S15 1.467588 1_555
O12 S17 1.465368 1_545
O13 S12 1.475530 1_555
O14 S15 1.462907 1_555
O15 S6 1.464567 1_555
O16 S12 1.470755 1_545
O17 S18 1.470755 1_565
O18 S27 1.471143 1_555
O19 S1 1.464567 1_556
O20 S9 1.560967 1_555
O20 V4 1.950769 1_555
O21 S4 1.470755 1_455
O22 S20 1.489419 1_555
O22 V6 2.344677 1_565
O23 S3 1.471143 1_555
O24 S7 1.467588 1_555
O25 S2 1.467588 1_555
O26 S20 1.467588 1_555
O27 S23 1.465368 1_455
O28 S10 1.471143 1_555
O29 S24 1.465368 1_565
O30 V3 1.596583 1_555
O31 S24 1.480547 1_565
O32 S4 1.460485 1_555
O33 S22 1.470755 1_555
O34 S4 1.475530 1_555
O35 S19 1.489419 1_555
O35 V3 2.344677 1_545
O36 S0 1.516835 1_555
O36 V1 1.999584 1_555
O37 S9 1.462907 1_555
O38 S6 1.464567 1_555
O39 S20 1.462907 1_555
O40 S10 1.465368 1_555
O41 S8 1.465368 1_655
O42 S21 1.470755 1_555
O43 S3 1.465368 1_556
O44 S15 1.560967 1_555
O44 V3 1.950769 1_555
O45 S14 1.591481 1_555
O45 V0 1.924543 1_555
O46 S14 1.460485 1_555
O47 S26 1.489419 1_555
O47 V5 2.344677 1_555
O48 S17 1.480547 1_545
O49 S5 1.591481 1_555
O49 V1 1.924543 1_555
O50 S12 1.591481 1_455
O50 V3 1.924543 1_555
O51 S21 1.591481 1_555
O51 V4 1.924543 1_555
O52 S25 1.460485 1_555
O53 S10 1.480547 1_555
O54 S26 1.560967 1_555
O54 V2 1.950769 1_555
O55 S27 1.465368 1_554
O56 S11 1.516835 1_555
O56 V0 1.999584 1_555
O57 S26 1.467588 1_555
O58 S27 1.480547 1_555
O59 S0 1.464567 1_555
O60 V1 1.596583 1_555
O61 S16 1.572973 1_555
O61 V6 1.942755 1_555
O62 S16 1.480547 1_555
O63 S25 1.591481 1_565
O63 V7 1.924543 1_555
O64 S0 1.516835 1_555
O64 V5 1.999584 1_555
O65 S5 1.470755 1_555
O66 S5 1.475530 1_555
O67 S5 1.460485 1_555
O68 S9 1.489419 1_555
O68 V7 2.344677 1_655
O69 S1 1.464567 1_555
O70 S26 1.462907 1_555
O71 S2 1.489419 1_555
O71 V2 2.344677 1_455
O72 S22 1.475530 1_555
O73 S12 1.460485 1_555
O74 S4 1.591481 1_545
O74 V2 1.924543 1_555
O75 S13 1.560967 1_555
O75 V6 1.950769 1_555
O76 S7 1.560967 1_555
O76 V7 1.950769 1_555
O77 S16 1.465368 1_555
O78 S24 1.471143 1_555
O79 S0 1.464567 1_555
O80 V0 1.596583 1_555
O81 S13 1.462907 1_555
O82 S10 1.572973 1_555
O82 V7 1.942755 1_555
O83 S18 1.475530 1_555
O84 S14 1.470755 1_555
O85 S11 1.464567 1_555
O86 S2 1.560967 1_555
O86 V5 1.950769 1_555
O87 S25 1.475530 1_555
O88 V5 1.596583 1_555
O89 S19 1.462907 1_555
O90 S21 1.475530 1_555
O91 S3 1.480547 1_555
O92 S13 1.489419 1_555
O92 V1 2.344677 1_555
O93 S23 1.471143 1_555
O94 S3 1.572973 1_555
O94 V2 1.942755 1_555
O95 S23 1.572973 1_555
O95 V1 1.942755 1_555
O96 S11 1.464567 1_555
O97 S7 1.489419 1_555
O97 V4 2.344677 1_555
O98 V7 1.596583 1_555
O99 S18 1.591481 1_655
O99 V6 1.924543 1_555
O100 S19 1.467588 1_555
O101 S14 1.475530 1_555
O102 V4 1.596583 1_555
O103 S17 1.471143 1_555
O104 S23 1.480547 1_455
O105 S11 1.516835 1_555
O105 V4 1.999584 1_555
O106 S9 1.467588 1_555
O107 S22 1.591481 1_555
O107 V5 1.924543 1_555
O108 S21 1.460485 1_555
O109 S8 1.572973 1_555
O109 V0 1.942755 1_555
O110 S8 1.471143 1_555
O111 S27 1.572973 1_555
O111 V3 1.942755 1_555
O112 S24 1.572973 1_555
O112 V5 1.942755 1_555
O113 S20 1.560967 1_555
O113 V1 1.950769 1_555
O114 V6 1.596583 1_555
O115 S25 1.470755 1_655
O116 V2 1.596583 1_555
O117 S17 1.572973 1_555
O117 V4 1.942755 1_555
O118 S7 1.462907 1_555
O119 S13 1.467588 1_555
