# generated using pymatgen
data_PH6SN3
_symmetry_space_group_name_H-M   'P 1'
_cell_length_a   9.35893300
_cell_length_b   9.74982100
_cell_length_c   10.64147400
_cell_angle_alpha   90.00000000
_cell_angle_beta   90.00000000
_cell_angle_gamma   90.00000000
_symmetry_Int_Tables_number   1
_chemical_formula_structural   PH6SN3
_chemical_formula_sum   'P8 H48 S8 N24'
_cell_volume   971.01238421
_cell_formula_units_Z   8
loop_
 _symmetry_equiv_pos_site_id
 _symmetry_equiv_pos_as_xyz
  1  'x, y, z'
loop_
 _atom_site_type_symbol
 _atom_site_label
 _atom_site_symmetry_multiplicity
 _atom_site_fract_x
 _atom_site_fract_y
 _atom_site_fract_z
 _atom_site_occupancy
  P  P0  1  0.83465600  0.41275900  0.34367100  1
  P  P1  1  0.33465600  0.08724100  0.65632900  1
  P  P2  1  0.16534400  0.91275900  0.15632900  1
  P  P3  1  0.66534400  0.58724100  0.84367100  1
  P  P4  1  0.16534400  0.58724100  0.65632900  1
  P  P5  1  0.66534400  0.91275900  0.34367100  1
  P  P6  1  0.83465600  0.08724100  0.84367100  1
  P  P7  1  0.33465600  0.41275900  0.15632900  1
  H  H0  1  0.00889800  0.54494800  0.25670100  1
  H  H1  1  0.50889800  0.95505200  0.74329900  1
  H  H2  1  0.99110200  0.04494800  0.24329900  1
  H  H3  1  0.49110200  0.45505200  0.75670100  1
  H  H4  1  0.99110200  0.45505200  0.74329900  1
  H  H5  1  0.49110200  0.04494800  0.25670100  1
  H  H6  1  0.00889800  0.95505200  0.75670100  1
  H  H7  1  0.50889800  0.54494800  0.24329900  1
  H  H8  1  0.85898500  0.63582900  0.28502500  1
  H  H9  1  0.35898500  0.86417100  0.71497500  1
  H  H10  1  0.14101500  0.13582900  0.21497500  1
  H  H11  1  0.64101500  0.36417100  0.78502500  1
  H  H12  1  0.14101500  0.36417100  0.71497500  1
  H  H13  1  0.64101500  0.13582900  0.28502500  1
  H  H14  1  0.85898500  0.86417100  0.78502500  1
  H  H15  1  0.35898500  0.63582900  0.21497500  1
  H  H16  1  0.00491100  0.35863900  0.49356700  1
  H  H17  1  0.50491100  0.14136100  0.50643300  1
  H  H18  1  0.99508900  0.85863900  0.00643300  1
  H  H19  1  0.49508900  0.64136100  0.99356700  1
  H  H20  1  0.99508900  0.64136100  0.50643300  1
  H  H21  1  0.49508900  0.85863900  0.49356700  1
  H  H22  1  0.00491100  0.14136100  0.99356700  1
  H  H23  1  0.50491100  0.35863900  0.00643300  1
  H  H24  1  0.93717100  0.21722200  0.42302200  1
  H  H25  1  0.43717100  0.28277800  0.57697800  1
  H  H26  1  0.06282900  0.71722200  0.07697800  1
  H  H27  1  0.56282900  0.78277800  0.92302200  1
  H  H28  1  0.06282900  0.78277800  0.57697800  1
  H  H29  1  0.56282900  0.71722200  0.42302200  1
  H  H30  1  0.93717100  0.28277800  0.92302200  1
  H  H31  1  0.43717100  0.21722200  0.07697800  1
  H  H32  1  0.89031700  0.30036300  0.16241000  1
  H  H33  1  0.39031700  0.19963700  0.83759000  1
  H  H34  1  0.10968300  0.80036300  0.33759000  1
  H  H35  1  0.60968300  0.69963700  0.66241000  1
  H  H36  1  0.10968300  0.69963700  0.83759000  1
  H  H37  1  0.60968300  0.80036300  0.16241000  1
  H  H38  1  0.89031700  0.19963700  0.66241000  1
  H  H39  1  0.39031700  0.30036300  0.33759000  1
  H  H40  1  0.71629200  0.34381700  0.16583600  1
  H  H41  1  0.21629200  0.15618300  0.83416400  1
  H  H42  1  0.28370800  0.84381700  0.33416400  1
  H  H43  1  0.78370800  0.65618300  0.66583600  1
  H  H44  1  0.28370800  0.65618300  0.83416400  1
  H  H45  1  0.78370800  0.84381700  0.16583600  1
  H  H46  1  0.71629200  0.15618300  0.66583600  1
  H  H47  1  0.21629200  0.34381700  0.33416400  1
  S  S0  1  0.65239300  0.45483200  0.42786200  1
  S  S1  1  0.15239300  0.04516800  0.57213800  1
  S  S2  1  0.34760700  0.95483200  0.07213800  1
  S  S3  1  0.84760700  0.54516800  0.92786200  1
  S  S4  1  0.34760700  0.54516800  0.57213800  1
  S  S5  1  0.84760700  0.95483200  0.42786200  1
  S  S6  1  0.65239300  0.04516800  0.92786200  1
  S  S7  1  0.15239300  0.45483200  0.07213800  1
  N  N0  1  0.92432000  0.55924900  0.31744000  1
  N  N1  1  0.42432000  0.94075100  0.68256000  1
  N  N2  1  0.07568000  0.05924900  0.18256000  1
  N  N3  1  0.57568000  0.44075100  0.81744000  1
  N  N4  1  0.07568000  0.44075100  0.68256000  1
  N  N5  1  0.57568000  0.05924900  0.31744000  1
  N  N6  1  0.92432000  0.94075100  0.81744000  1
  N  N7  1  0.42432000  0.55924900  0.18256000  1
  N  N8  1  0.96139600  0.31932400  0.41265800  1
  N  N9  1  0.46139600  0.18067600  0.58734200  1
  N  N10  1  0.03860400  0.81932400  0.08734200  1
  N  N11  1  0.53860400  0.68067600  0.91265800  1
  N  N12  1  0.03860400  0.68067600  0.58734200  1
  N  N13  1  0.53860400  0.81932400  0.41265800  1
  N  N14  1  0.96139600  0.18067600  0.91265800  1
  N  N15  1  0.46139600  0.31932400  0.08734200  1
  N  N16  1  0.80255800  0.31412400  0.21822500  1
  N  N17  1  0.30255800  0.18587600  0.78177500  1
  N  N18  1  0.19744200  0.81412400  0.28177500  1
  N  N19  1  0.69744200  0.68587600  0.71822500  1
  N  N20  1  0.19744200  0.68587600  0.78177500  1
  N  N21  1  0.69744200  0.81412400  0.21822500  1
  N  N22  1  0.80255800  0.18587600  0.71822500  1
  N  N23  1  0.30255800  0.31412400  0.28177500  1
loop_
_geom_bond_atom_site_label_1
_geom_bond_atom_site_label_2
_geom_bond_distance
_geom_bond_site_symmetry_2
P0 S0 1.969935 1_555
P1 S1 1.969935 1_555
P2 S2 1.969935 1_555
P3 S3 1.969935 1_555
P4 S4 1.969935 1_555
P5 S5 1.969935 1_555
P6 S6 1.969935 1_555
P7 S7 1.969935 1_555
H0 N0 1.031397 1_455
H1 N1 1.031397 1_555
H2 N2 1.031397 1_655
H3 N3 1.031397 1_555
H4 N4 1.031397 1_655
H5 N5 1.031397 1_555
H6 N6 1.031397 1_455
H7 N7 1.031397 1_555
H8 N0 1.024866 1_555
H9 N1 1.024866 1_555
H10 N2 1.024866 1_555
H11 N3 1.024866 1_555
H12 N4 1.024866 1_555
H13 N5 1.024866 1_555
H14 N6 1.024866 1_555
H15 N7 1.024866 1_555
H16 N8 1.026689 1_455
H17 N9 1.026689 1_555
H18 N10 1.026689 1_655
H19 N11 1.026689 1_555
H20 N12 1.026689 1_655
H21 N13 1.026689 1_555
H22 N14 1.026689 1_455
H23 N15 1.026689 1_555
H24 N8 1.026907 1_555
H25 N9 1.026907 1_555
H26 N10 1.026907 1_555
H27 N11 1.026907 1_555
H28 N12 1.026907 1_555
H29 N13 1.026907 1_555
H30 N14 1.026907 1_555
H31 N15 1.026907 1_555
H32 N16 1.022431 1_555
H33 N17 1.022431 1_555
H34 N18 1.022431 1_555
H35 N19 1.022431 1_555
H36 N20 1.022431 1_555
H37 N21 1.022431 1_555
H38 N22 1.022431 1_555
H39 N23 1.022431 1_555
H40 N16 1.022956 1_555
H41 N17 1.022956 1_555
H42 N18 1.022956 1_555
H43 N19 1.022956 1_555
H44 N20 1.022956 1_555
H45 N21 1.022956 1_555
H46 N22 1.022956 1_555
H47 N23 1.022956 1_555
N0 P0 1.679883 1_555
N1 P1 1.679883 1_565
N2 P2 1.679883 1_545
N3 P3 1.679883 1_555
N4 P4 1.679883 1_555
N5 P5 1.679883 1_545
N6 P6 1.679883 1_565
N7 P7 1.679883 1_555
N8 P0 1.666063 1_555
N9 P1 1.666063 1_555
N10 P2 1.666063 1_555
N11 P3 1.666063 1_555
N12 P4 1.666063 1_555
N13 P5 1.666063 1_555
N14 P6 1.666063 1_555
N15 P7 1.666063 1_555
N16 P0 1.672452 1_555
N17 P1 1.672452 1_555
N18 P2 1.672452 1_555
N19 P3 1.672452 1_555
N20 P4 1.672452 1_555
N21 P5 1.672452 1_555
N22 P6 1.672452 1_555
N23 P7 1.672452 1_555
