# generated using pymatgen
data_LiFeF3
_symmetry_space_group_name_H-M   'P 1'
_cell_length_a   5.27220100
_cell_length_b   5.36776833
_cell_length_c   10.05507842
_cell_angle_alpha   95.35879639
_cell_angle_beta   100.39341787
_cell_angle_gamma   118.91149969
_symmetry_Int_Tables_number   1
_chemical_formula_structural   LiFeF3
_chemical_formula_sum   'Li4 Fe4 F12'
_cell_volume   239.55489290
_cell_formula_units_Z   4
loop_
 _symmetry_equiv_pos_site_id
 _symmetry_equiv_pos_as_xyz
  1  'x, y, z'
loop_
 _atom_site_type_symbol
 _atom_site_label
 _atom_site_symmetry_multiplicity
 _atom_site_fract_x
 _atom_site_fract_y
 _atom_site_fract_z
 _atom_site_occupancy
  Li  Li0  1  0.20187800  0.50076000  0.92978000  1
  Li  Li1  1  0.96837600  0.29355300  0.56727200  1
  Li  Li2  1  0.03849400  0.72679400  0.44345300  1
  Li  Li3  1  0.77783000  0.50004400  0.06717800  1
  Fe  Fe0  1  0.57738600  0.91930100  0.24803200  1
  Fe  Fe1  1  0.24013700  0.26272600  0.25182900  1
  Fe  Fe2  1  0.74914300  0.74158100  0.74799200  1
  Fe  Fe3  1  0.42600200  0.07240700  0.75191200  1
  F  F0  1  0.01945800  0.99003000  0.62126200  1
  F  F1  1  0.83419900  0.12914800  0.85942400  1
  F  F2  1  0.52193700  0.46547500  0.88104300  1
  F  F3  1  0.33675400  0.67937700  0.63010500  1
  F  F4  1  0.67543700  0.35401800  0.63995800  1
  F  F5  1  0.98308800  0.31599600  0.37560200  1
  F  F6  1  0.15990900  0.80835000  0.86212000  1
  F  F7  1  0.17407700  0.53130300  0.11940100  1
  F  F8  1  0.50227000  0.19562700  0.14048100  1
  F  F9  1  0.63947100  0.64854900  0.36042600  1
  F  F10  1  0.32527400  0.98955300  0.36514800  1
  F  F11  1  0.84888000  0.87520800  0.13758000  1
loop_
_geom_bond_atom_site_label_1
_geom_bond_atom_site_label_2
_geom_bond_distance
_geom_bond_site_symmetry_2
F0 Li1 1.886368 1_465
F0 Fe3 2.115311 1_565
F0 Fe2 2.137366 1_455
F0 Li2 2.221066 1_555
F1 Li0 1.933885 1_655
F1 Fe2 2.065366 1_545
F1 Fe3 2.087635 1_555
F2 Li0 1.927032 1_555
F2 Li3 2.034568 1_556
F2 Fe3 2.147761 1_555
F2 Fe2 2.157135 1_555
F3 Li1 1.970774 1_455
F3 Fe3 2.126472 1_565
F3 Fe2 2.130247 1_555
F3 Li2 2.339070 1_555
F4 Li1 1.967847 1_555
F4 Fe3 2.052191 1_555
F4 Fe2 2.074320 1_555
F5 Li1 1.955279 1_555
F5 Fe1 2.093810 1_655
F5 Li2 2.106513 1_655
F5 Fe0 2.202412 1_545
F6 Li0 1.935609 1_555
F6 Fe3 2.033902 1_565
F6 Fe2 2.100322 1_455
F7 Li0 1.936330 1_554
F7 Li3 1.979142 1_455
F7 Fe1 2.156269 1_555
F7 Fe0 2.180436 1_555
F8 Li3 1.907859 1_555
F8 Fe0 2.058989 1_545
F8 Fe1 2.063371 1_555
F9 Li2 1.935335 1_655
F9 Fe0 2.032192 1_555
F9 Fe1 2.108586 1_555
F10 Li2 1.862868 1_555
F10 Fe0 2.064502 1_555
F10 Fe1 2.100915 1_565
F11 Li3 1.898805 1_555
F11 Fe0 2.047030 1_555
F11 Fe1 2.109839 1_665
