# generated using pymatgen
data_Li12Mn3CrP4(CO7)4
_symmetry_space_group_name_H-M   'P 1'
_cell_length_a   6.56663700
_cell_length_b   8.58611700
_cell_length_c   10.00993226
_cell_angle_alpha   85.57578069
_cell_angle_beta   90.00000000
_cell_angle_gamma   90.00000000
_symmetry_Int_Tables_number   1
_chemical_formula_structural   Li12Mn3CrP4(CO7)4
_chemical_formula_sum   'Li12 Mn3 Cr1 P4 C4 O28'
_cell_volume   562.69741761
_cell_formula_units_Z   1
loop_
 _symmetry_equiv_pos_site_id
 _symmetry_equiv_pos_as_xyz
  1  'x, y, z'
loop_
 _atom_site_type_symbol
 _atom_site_label
 _atom_site_symmetry_multiplicity
 _atom_site_fract_x
 _atom_site_fract_y
 _atom_site_fract_z
 _atom_site_occupancy
  Li  Li0  1  0.00000000  0.90786200  0.62093900  1
  Li  Li1  1  0.00000000  0.90759400  0.12012000  1
  Li  Li2  1  0.22206600  0.72678100  0.87719200  1
  Li  Li3  1  0.77793400  0.72678100  0.87719200  1
  Li  Li4  1  0.22129200  0.72657800  0.37664200  1
  Li  Li5  1  0.77870800  0.72657800  0.37664200  1
  Li  Li6  1  0.72378400  0.27302400  0.62373100  1
  Li  Li7  1  0.27621600  0.27302400  0.62373100  1
  Li  Li8  1  0.72349500  0.27333200  0.12296900  1
  Li  Li9  1  0.27650500  0.27333200  0.12296900  1
  Li  Li10  1  0.50000000  0.09165000  0.87957700  1
  Li  Li11  1  0.50000000  0.09010400  0.37908400  1
  Mn  Mn0  1  0.50000000  0.65977000  0.61135400  1
  Mn  Mn1  1  0.50000000  0.66025600  0.11015700  1
  Mn  Mn2  1  0.00000000  0.34086400  0.88932600  1
  Cr  Cr0  1  0.00000000  0.33499700  0.39220100  1
  P  P0  1  0.00000000  0.59001000  0.63953100  1
  P  P1  1  0.00000000  0.59006600  0.14042700  1
  P  P2  1  0.50000000  0.41025800  0.86017100  1
  P  P3  1  0.50000000  0.41158600  0.35908000  1
  C  C0  1  0.50000000  0.96700100  0.64765900  1
  C  C1  1  0.50000000  0.96696500  0.14801500  1
  C  C2  1  0.00000000  0.03320800  0.85224900  1
  C  C3  1  0.00000000  0.03199800  0.35299800  1
  O  O0  1  0.50000000  0.93069200  0.52511600  1
  O  O1  1  0.00000000  0.88796600  0.82208000  1
  O  O2  1  0.50000000  0.93085000  0.02524000  1
  O  O3  1  0.50000000  0.85611400  0.74463300  1
  O  O4  1  0.00000000  0.88774000  0.32062700  1
  O  O5  1  0.50000000  0.85595600  0.24478700  1
  O  O6  1  0.18454700  0.68924400  0.58565400  1
  O  O7  1  0.81545300  0.68924400  0.58565400  1
  O  O8  1  0.18464900  0.68908600  0.08517500  1
  O  O9  1  0.81535100  0.68908600  0.08517500  1
  O  O10  1  0.50000000  0.57884100  0.90549200  1
  O  O11  1  0.00000000  0.57685100  0.79633900  1
  O  O12  1  0.50000000  0.57914400  0.40590400  1
  O  O13  1  0.00000000  0.57953600  0.29650000  1
  O  O14  1  0.50000000  0.42335500  0.70332800  1
  O  O15  1  0.00000000  0.42151600  0.59384300  1
  O  O16  1  0.50000000  0.42364900  0.20275000  1
  O  O17  1  0.00000000  0.42171500  0.09394900  1
  O  O18  1  0.31556900  0.31085300  0.91418500  1
  O  O19  1  0.68443100  0.31085300  0.91418500  1
  O  O20  1  0.68633200  0.31271300  0.41276700  1
  O  O21  1  0.31366800  0.31271300  0.41276700  1
  O  O22  1  0.00000000  0.14419700  0.75539600  1
  O  O23  1  0.50000000  0.11233600  0.67757900  1
  O  O24  1  0.00000000  0.14524000  0.25782700  1
  O  O25  1  0.00000000  0.06927000  0.97496100  1
  O  O26  1  0.50000000  0.11215300  0.17813200  1
  O  O27  1  0.00000000  0.06547000  0.47599600  1
loop_
_geom_bond_atom_site_label_1
_geom_bond_atom_site_label_2
_geom_bond_distance
_geom_bond_site_symmetry_2
Li0 O27 1.906140 1_565
Li0 O1 2.007468 1_555
Li0 O6 2.284525 1_555
Li0 O7 2.284525 1_455
Li0 O22 2.520014 1_565
Li1 O25 1.930575 1_564
Li1 O4 2.001142 1_555
Li1 O8 2.283353 1_555
Li1 O9 2.283353 1_455
Li1 O24 2.549017 1_565
Li2 O1 2.056283 1_555
Li2 O8 2.096534 1_556
Li2 O11 2.144614 1_555
Li2 O10 2.229165 1_555
Li2 O3 2.469301 1_555
Li3 O1 2.056283 1_655
Li3 O9 2.096534 1_556
Li3 O11 2.144614 1_655
Li3 O10 2.229165 1_555
Li3 O3 2.469301 1_555
Li4 O4 2.054531 1_555
Li4 O6 2.105894 1_555
Li4 O13 2.122591 1_555
Li4 O12 2.231725 1_555
Li4 O5 2.469689 1_555
Li5 O4 2.054531 1_655
Li5 O7 2.105894 1_555
Li5 O13 2.122591 1_655
Li5 O12 2.231725 1_555
Li5 O5 2.469689 1_555
Li6 O23 2.058832 1_555
Li6 O20 2.127208 1_555
Li6 O14 2.149188 1_555
Li6 O15 2.223986 1_655
Li6 O22 2.454692 1_655
Li7 O23 2.058832 1_555
Li7 O21 2.127208 1_555
Li7 O14 2.149188 1_555
Li7 O15 2.223986 1_555
Li7 O22 2.454692 1_555
Li8 O26 2.063024 1_555
Li8 O19 2.105577 1_554
Li8 O16 2.148584 1_555
Li8 O17 2.224240 1_655
Li8 O24 2.469739 1_655
Li9 O26 2.063024 1_555
Li9 O18 2.105577 1_554
Li9 O16 2.148584 1_555
Li9 O17 2.224240 1_555
Li9 O24 2.469739 1_555
Li10 O2 1.929143 1_546
Li10 O23 2.016077 1_555
Li10 O19 2.286844 1_555
Li10 O18 2.286844 1_555
Li10 O3 2.517125 1_545
Li11 O0 1.923932 1_545
Li11 O26 2.005813 1_555
Li11 O20 2.315920 1_555
Li11 O21 2.315920 1_555
Li11 O5 2.503180 1_545
Mn0 O6 2.100273 1_555
Mn0 O7 2.100273 1_555
Mn0 O14 2.163266 1_555
Mn0 O12 2.219963 1_555
Mn0 O3 2.229099 1_555
Mn0 O0 2.417940 1_555
Mn1 O9 2.098202 1_555
Mn1 O8 2.098202 1_555
Mn1 O16 2.166953 1_555
Mn1 O10 2.215108 1_554
Mn1 O5 2.233586 1_555
Mn1 O2 2.411597 1_555
Mn2 O18 2.100607 1_555
Mn2 O19 2.100607 1_455
Mn2 O11 2.163548 1_555
Mn2 O17 2.212839 1_556
Mn2 O22 2.235607 1_555
Mn2 O25 2.421638 1_555
Cr0 O21 2.077368 1_555
Cr0 O20 2.077368 1_455
Cr0 O24 2.191317 1_555
Cr0 O15 2.203907 1_555
Cr0 O13 2.239612 1_555
Cr0 O27 2.399908 1_555
C0 O0 1.288741 1_555
C0 O23 1.305573 1_565
C0 O3 1.306197 1_555
C1 O2 1.290471 1_555
C1 O26 1.304944 1_565
C1 O5 1.305514 1_555
C2 O25 1.289716 1_555
C2 O1 1.305554 1_545
C2 O22 1.305955 1_555
C3 O27 1.285708 1_555
C3 O4 1.304257 1_545
C3 O24 1.307681 1_555
O6 P0 1.553869 1_555
O7 P0 1.553869 1_655
O8 P1 1.557686 1_555
O9 P1 1.557686 1_655
O10 P2 1.549934 1_555
O11 P0 1.564981 1_555
O12 P3 1.547093 1_555
O13 P1 1.557916 1_555
O14 P2 1.565334 1_555
O15 P0 1.550548 1_555
O16 P3 1.560284 1_555
O17 P1 1.552295 1_555
O18 P2 1.554460 1_555
O19 P2 1.554460 1_555
O20 P3 1.560846 1_555
O21 P3 1.560846 1_555
