# generated using pymatgen
data_Li2VO2F
_symmetry_space_group_name_H-M   'P 1'
_cell_length_a   6.01711266
_cell_length_b   6.01711266
_cell_length_c   8.99466178
_cell_angle_alpha   60.03298538
_cell_angle_beta   60.03298538
_cell_angle_gamma   60.05213887
_symmetry_Int_Tables_number   1
_chemical_formula_structural   Li2VO2F
_chemical_formula_sum   'Li8 V4 O8 F4'
_cell_volume   230.48012558
_cell_formula_units_Z   4
loop_
 _symmetry_equiv_pos_site_id
 _symmetry_equiv_pos_as_xyz
  1  'x, y, z'
loop_
 _atom_site_type_symbol
 _atom_site_label
 _atom_site_symmetry_multiplicity
 _atom_site_fract_x
 _atom_site_fract_y
 _atom_site_fract_z
 _atom_site_occupancy
  Li  Li0  1  0.87105000  0.41861600  0.86196400  1
  Li  Li1  1  0.91082400  0.91082400  0.84501500  1
  Li  Li2  1  0.41861600  0.87105000  0.86196400  1
  Li  Li3  1  0.41758700  0.41758700  0.86280200  1
  Li  Li4  1  0.58419600  0.58419600  0.14350500  1
  Li  Li5  1  0.58263800  0.11912900  0.14254300  1
  Li  Li6  1  0.09313400  0.09313400  0.14852800  1
  Li  Li7  1  0.11912900  0.58263800  0.14254300  1
  V  V0  1  0.76028800  0.25005300  0.49340500  1
  V  V1  1  0.74811500  0.74811500  0.50348300  1
  V  V2  1  0.25005300  0.76028800  0.49340500  1
  V  V3  1  0.25055200  0.25055200  0.49156900  1
  O  O0  1  0.84704200  0.84704200  0.64718000  1
  O  O1  1  0.84866300  0.33503800  0.64669400  1
  O  O2  1  0.65583600  0.15813300  0.35505300  1
  O  O3  1  0.65323500  0.65323500  0.35581200  1
  O  O4  1  0.49952400  0.49952400  0.00269000  1
  O  O5  1  0.15813300  0.65583600  0.35505300  1
  O  O6  1  0.33503800  0.84866300  0.64669400  1
  O  O7  1  0.16042000  0.16042000  0.34243200  1
  F  F0  1  0.00166800  0.50053400  0.99708900  1
  F  F1  1  0.00146200  0.00146200  0.99898300  1
  F  F2  1  0.50053400  0.00166800  0.99708900  1
  F  F3  1  0.33442200  0.33442200  0.66424300  1
loop_
_geom_bond_atom_site_label_1
_geom_bond_atom_site_label_2
_geom_bond_distance
_geom_bond_site_symmetry_2
Li0 O4 1.881193 1_556
Li0 O1 2.306777 1_555
Li0 O0 2.308757 1_555
Li1 O0 2.229933 1_555
Li1 O6 2.236511 1_655
Li1 O1 2.236511 1_565
Li2 O4 1.881193 1_556
Li2 O6 2.306777 1_555
Li2 O0 2.308757 1_555
Li3 O4 1.884534 1_556
Li3 O1 2.322586 1_555
Li3 O6 2.322586 1_555
Li4 O4 1.916207 1_555
Li4 O5 2.285089 1_555
Li4 O2 2.285089 1_555
Li4 O3 2.397732 1_555
Li5 O4 1.918509 1_555
Li5 O7 2.236403 1_555
Li5 O2 2.301116 1_555
Li5 O3 2.443732 1_545
Li6 O7 2.223563 1_555
Li6 O5 2.311406 1_545
Li6 O2 2.311406 1_455
Li7 O4 1.918509 1_555
Li7 O7 2.236403 1_555
Li7 O5 2.301116 1_555
Li7 O3 2.443732 1_455
O0 V2 2.042729 1_655
O0 V0 2.042729 1_565
O0 V1 2.066447 1_555
O1 V0 2.038041 1_555
O1 V3 2.040464 1_655
O1 V1 2.069261 1_555
O2 V0 2.016319 1_555
O2 V3 2.025019 1_555
O2 V1 2.063921 1_545
O3 V2 2.017120 1_555
O3 V0 2.017120 1_555
O3 V1 2.063158 1_555
O5 V2 2.016319 1_555
O5 V3 2.025019 1_555
O5 V1 2.063921 1_455
O6 V2 2.038041 1_555
O6 V3 2.040464 1_565
O6 V1 2.069261 1_555
O7 V2 2.025001 1_545
O7 V0 2.025001 1_455
O7 V3 2.033453 1_555
F0 Li6 2.057590 1_556
F0 Li0 2.068196 1_455
F0 Li1 2.071392 1_455
F0 Li3 2.075217 1_555
F0 Li7 2.091255 1_556
F0 Li4 2.095879 1_456
F1 Li6 2.050382 1_556
F1 Li1 2.078182 1_445
F1 Li0 2.084287 1_455
F1 Li2 2.084287 1_545
F1 Li7 2.097759 1_546
F1 Li5 2.097759 1_456
F2 Li6 2.057590 1_556
F2 Li2 2.068196 1_545
F2 Li1 2.071392 1_545
F2 Li3 2.075217 1_555
F2 Li5 2.091255 1_556
F2 Li4 2.095879 1_546
F3 V0 2.175339 1_555
F3 V2 2.175339 1_555
F3 V3 2.177597 1_555
F3 Li3 2.392948 1_555
F3 Li2 2.393637 1_545
F3 Li0 2.393637 1_455
