# generated using pymatgen
data_Fe2O3F
_symmetry_space_group_name_H-M   'P 1'
_cell_length_a   4.69800788
_cell_length_b   4.69800788
_cell_length_c   15.03249100
_cell_angle_alpha   90.00000000
_cell_angle_beta   90.00000000
_cell_angle_gamma   94.27848968
_symmetry_Int_Tables_number   1
_chemical_formula_structural   Fe2O3F
_chemical_formula_sum   'Fe10 O15 F5'
_cell_volume   330.86167039
_cell_formula_units_Z   5
loop_
 _symmetry_equiv_pos_site_id
 _symmetry_equiv_pos_as_xyz
  1  'x, y, z'
loop_
 _atom_site_type_symbol
 _atom_site_label
 _atom_site_symmetry_multiplicity
 _atom_site_fract_x
 _atom_site_fract_y
 _atom_site_fract_z
 _atom_site_occupancy
  Fe  Fe0  1  0.99728900  0.00271100  0.60059500  1
  Fe  Fe1  1  0.99728900  0.00271100  0.39940500  1
  Fe  Fe2  1  0.98503000  0.01497000  0.19922100  1
  Fe  Fe3  1  0.98332000  0.01668000  0.00000000  1
  Fe  Fe4  1  0.98503000  0.01497000  0.80077900  1
  Fe  Fe5  1  0.46331100  0.53668900  0.50000000  1
  Fe  Fe6  1  0.52036600  0.47963400  0.09968900  1
  Fe  Fe7  1  0.52598900  0.47401100  0.29986200  1
  Fe  Fe8  1  0.52036600  0.47963400  0.90031100  1
  Fe  Fe9  1  0.52598900  0.47401100  0.70013800  1
  O  O0  1  0.81550500  0.18449500  0.30202600  1
  O  O1  1  0.80979000  0.19021000  0.09997400  1
  O  O2  1  0.80979000  0.19021000  0.90002600  1
  O  O3  1  0.81550500  0.18449500  0.69797400  1
  O  O4  1  0.30166400  0.31176000  0.60091700  1
  O  O5  1  0.30166400  0.31176000  0.39908300  1
  O  O6  1  0.31250500  0.30203900  0.19923700  1
  O  O7  1  0.30822700  0.30704500  0.00000000  1
  O  O8  1  0.31250500  0.30203900  0.80076300  1
  O  O9  1  0.68824000  0.69833600  0.60091700  1
  O  O10  1  0.68824000  0.69833600  0.39908300  1
  O  O11  1  0.69796100  0.68749500  0.19923700  1
  O  O12  1  0.69295500  0.69177300  0.00000000  1
  O  O13  1  0.69796100  0.68749500  0.80076300  1
  O  O14  1  0.17324800  0.82675300  0.50000000  1
  F  F0  1  0.79548500  0.20451500  0.50000000  1
  F  F1  1  0.19174400  0.80825600  0.09889100  1
  F  F2  1  0.19564600  0.80435400  0.29687600  1
  F  F3  1  0.19564600  0.80435400  0.70312400  1
  F  F4  1  0.19174400  0.80825600  0.90110900  1
loop_
_geom_bond_atom_site_label_1
_geom_bond_atom_site_label_2
_geom_bond_distance
_geom_bond_site_symmetry_2
Fe0 O3 1.926237 1_555
Fe0 O14 1.937887 1_645
Fe0 O9 1.960375 1_545
Fe0 O4 1.960375 1_655
Fe1 O0 1.926237 1_555
Fe1 O14 1.937887 1_645
Fe1 O5 1.960375 1_655
Fe1 O10 1.960375 1_545
Fe2 O1 1.919000 1_555
Fe2 O0 1.936892 1_555
Fe2 O6 1.968806 1_655
Fe2 O11 1.968806 1_545
Fe3 O1 1.920156 1_555
Fe3 O2 1.920156 1_554
Fe3 O7 1.969804 1_655
Fe3 O12 1.969804 1_545
Fe4 O2 1.919000 1_555
Fe4 O3 1.936892 1_555
Fe4 O8 1.968806 1_655
Fe4 O13 1.968806 1_545
Fe5 O4 1.968508 1_555
Fe5 O9 1.968508 1_555
Fe5 O5 1.968508 1_555
Fe5 O10 1.968508 1_555
Fe5 O14 1.997773 1_555
Fe6 O11 1.941018 1_555
Fe6 O6 1.941018 1_555
Fe6 O12 1.943157 1_555
Fe6 O7 1.943157 1_555
Fe6 O1 1.993373 1_555
Fe7 O5 1.948467 1_555
Fe7 O10 1.948467 1_555
Fe7 O6 1.955975 1_555
Fe7 O11 1.955975 1_555
Fe7 O0 1.994267 1_555
Fe8 O13 1.941018 1_555
Fe8 O8 1.941018 1_555
Fe8 O12 1.943157 1_556
Fe8 O7 1.943157 1_556
Fe8 O2 1.993373 1_555
Fe9 O4 1.948467 1_555
Fe9 O9 1.948467 1_555
Fe9 O8 1.955975 1_555
Fe9 O13 1.955975 1_555
Fe9 O3 1.994267 1_555
F0 Fe0 2.053910 1_555
F0 Fe1 2.053910 1_555
F0 Fe5 2.287803 1_555
F1 Fe3 2.066531 1_465
F1 Fe2 2.074044 1_465
F1 Fe6 2.263371 1_555
F2 Fe1 2.059584 1_465
F2 Fe2 2.063789 1_465
F2 Fe7 2.275635 1_555
F3 Fe0 2.059584 1_465
F3 Fe4 2.063789 1_465
F3 Fe9 2.275635 1_555
F4 Fe3 2.066531 1_466
F4 Fe4 2.074044 1_465
F4 Fe8 2.263371 1_555
