# generated using pymatgen
data_MgB2H6O7
_symmetry_space_group_name_H-M   'P 1'
_cell_length_a   7.69188600
_cell_length_b   7.69188600
_cell_length_c   8.22368500
_cell_angle_alpha   90.00000000
_cell_angle_beta   90.00000000
_cell_angle_gamma   90.00000000
_symmetry_Int_Tables_number   1
_chemical_formula_structural   MgB2H6O7
_chemical_formula_sum   'Mg4 B8 H24 O28'
_cell_volume   486.55522958
_cell_formula_units_Z   4
loop_
 _symmetry_equiv_pos_site_id
 _symmetry_equiv_pos_as_xyz
  1  'x, y, z'
loop_
 _atom_site_type_symbol
 _atom_site_label
 _atom_site_symmetry_multiplicity
 _atom_site_fract_x
 _atom_site_fract_y
 _atom_site_fract_z
 _atom_site_occupancy
  Mg  Mg0  1  0.75000000  0.25000000  0.75000000  1
  Mg  Mg1  1  0.75000000  0.75000000  0.25000000  1
  Mg  Mg2  1  0.25000000  0.25000000  0.25000000  1
  Mg  Mg3  1  0.25000000  0.75000000  0.75000000  1
  B  B0  1  0.61378200  0.12238200  0.10599200  1
  B  B1  1  0.62238200  0.88621800  0.60599200  1
  B  B2  1  0.87761800  0.61378200  0.89400800  1
  B  B3  1  0.88621800  0.37761800  0.39400800  1
  B  B4  1  0.11378200  0.62238200  0.39400800  1
  B  B5  1  0.12238200  0.38621800  0.89400800  1
  B  B6  1  0.37761800  0.11378200  0.60599200  1
  B  B7  1  0.38621800  0.87761800  0.10599200  1
  H  H0  1  0.53875700  0.13679000  0.34736500  1
  H  H1  1  0.60390000  0.63989400  0.68565300  1
  H  H2  1  0.63989400  0.39610000  0.31434700  1
  H  H3  1  0.63523800  0.69724000  0.95625000  1
  H  H4  1  0.63679000  0.96124300  0.84736500  1
  H  H5  1  0.69724000  0.36476200  0.04375000  1
  H  H6  1  0.80276000  0.13523800  0.45625000  1
  H  H7  1  0.86321000  0.53875700  0.65263500  1
  H  H8  1  0.86010600  0.10390000  0.18565300  1
  H  H9  1  0.86476200  0.80276000  0.54375000  1
  H  H10  1  0.89610000  0.86010600  0.81434700  1
  H  H11  1  0.96124300  0.36321000  0.15263500  1
  H  H12  1  0.03875700  0.63679000  0.15263500  1
  H  H13  1  0.10390000  0.13989400  0.81434700  1
  H  H14  1  0.13523800  0.19724000  0.54375000  1
  H  H15  1  0.13989400  0.89610000  0.18565300  1
  H  H16  1  0.13679000  0.46124300  0.65263500  1
  H  H17  1  0.19724000  0.86476200  0.45625000  1
  H  H18  1  0.30276000  0.63523800  0.04375000  1
  H  H19  1  0.36321000  0.03875700  0.84736500  1
  H  H20  1  0.36476200  0.30276000  0.95625000  1
  H  H21  1  0.36010600  0.60390000  0.31434700  1
  H  H22  1  0.39610000  0.36010600  0.68565300  1
  H  H23  1  0.46124300  0.86321000  0.34736500  1
  O  O0  1  0.50000000  0.00000000  0.01658500  1
  O  O1  1  0.50000000  0.00000000  0.51658500  1
  O  O2  1  0.52461500  0.73828800  0.66635600  1
  O  O3  1  0.52048400  0.20808900  0.24759000  1
  O  O4  1  0.65883100  0.26447700  0.99051300  1
  O  O5  1  0.70808900  0.97951600  0.74759000  1
  O  O6  1  0.73828800  0.47538500  0.33364400  1
  O  O7  1  0.73552300  0.65883100  0.00948700  1
  O  O8  1  0.76447700  0.84116900  0.49051300  1
  O  O9  1  0.76171200  0.02461500  0.16635600  1
  O  O10  1  0.79191100  0.52048400  0.75241000  1
  O  O11  1  0.84116900  0.23552300  0.50948700  1
  O  O12  1  0.97538500  0.76171200  0.83364400  1
  O  O13  1  0.97951600  0.29191100  0.25241000  1
  O  O14  1  0.00000000  0.50000000  0.48341500  1
  O  O15  1  0.00000000  0.50000000  0.98341500  1
  O  O16  1  0.02048400  0.70808900  0.25241000  1
  O  O17  1  0.02461500  0.23828800  0.83364400  1
  O  O18  1  0.15883100  0.76447700  0.50948700  1
  O  O19  1  0.20808900  0.47951600  0.75241000  1
  O  O20  1  0.23828800  0.97538500  0.16635600  1
  O  O21  1  0.23552300  0.15883100  0.49051300  1
  O  O22  1  0.26447700  0.34116900  0.00948700  1
  O  O23  1  0.26171200  0.52461500  0.33364400  1
  O  O24  1  0.29191100  0.02048400  0.74759000  1
  O  O25  1  0.34116900  0.73552300  0.99051300  1
  O  O26  1  0.47951600  0.79191100  0.24759000  1
  O  O27  1  0.47538500  0.26171200  0.66635600  1
loop_
_geom_bond_atom_site_label_1
_geom_bond_atom_site_label_2
_geom_bond_distance
_geom_bond_site_symmetry_2
Mg0 O4 2.101492 1_555
Mg0 O11 2.101492 1_555
Mg0 O5 2.105453 1_545
Mg0 O10 2.105453 1_555
Mg0 O27 2.223311 1_555
Mg0 O17 2.223311 1_655
Mg1 O8 2.101492 1_555
Mg1 O7 2.101492 1_555
Mg1 O26 2.105453 1_555
Mg1 O16 2.105453 1_655
Mg1 O6 2.223311 1_555
Mg1 O9 2.223311 1_565
Mg2 O22 2.101492 1_555
Mg2 O21 2.101492 1_555
Mg2 O13 2.105453 1_455
Mg2 O3 2.105453 1_555
Mg2 O20 2.223311 1_545
Mg2 O23 2.223311 1_555
Mg3 O18 2.101492 1_555
Mg3 O25 2.101492 1_555
Mg3 O19 2.105453 1_555
Mg3 O24 2.105453 1_565
Mg3 O12 2.223311 1_455
Mg3 O2 2.223311 1_555
B0 O9 1.451440 1_555
B0 O0 1.480780 1_555
B0 O4 1.488802 1_554
B0 O3 1.518411 1_555
B1 O2 1.451440 1_555
B1 O1 1.480780 1_565
B1 O8 1.488802 1_555
B1 O5 1.518411 1_555
B2 O12 1.451440 1_555
B2 O15 1.480780 1_655
B2 O7 1.488802 1_556
B2 O10 1.518411 1_555
B3 O6 1.451440 1_555
B3 O14 1.480780 1_655
B3 O11 1.488802 1_555
B3 O13 1.518411 1_555
B4 O23 1.451440 1_555
B4 O14 1.480780 1_555
B4 O18 1.488802 1_555
B4 O16 1.518411 1_555
B5 O17 1.451440 1_555
B5 O15 1.480780 1_555
B5 O22 1.488802 1_556
B5 O19 1.518411 1_555
B6 O27 1.451440 1_555
B6 O1 1.480780 1_555
B6 O21 1.488802 1_555
B6 O24 1.518411 1_555
B7 O20 1.451440 1_555
B7 O0 1.480780 1_565
B7 O25 1.488802 1_554
B7 O26 1.518411 1_555
H0 O3 0.996882 1_555
H1 O2 0.984836 1_555
H2 O6 0.984836 1_555
H3 O7 0.934871 1_556
H4 O5 0.996882 1_555
H5 O4 0.934871 1_554
H6 O11 0.934871 1_555
H7 O10 0.996882 1_555
H8 O9 0.984836 1_555
H9 O8 0.934871 1_555
H10 O12 0.984836 1_555
H11 O13 0.996882 1_555
H12 O16 0.996882 1_555
H13 O17 0.984836 1_555
H14 O21 0.934871 1_555
H15 O20 0.984836 1_555
H16 O19 0.996882 1_555
H17 O18 0.934871 1_555
H18 O25 0.934871 1_554
H19 O24 0.996882 1_555
H20 O22 0.934871 1_556
H21 O23 0.984836 1_555
H22 O27 0.984836 1_555
H23 O26 0.996882 1_555
