# generated using pymatgen
data_Li7Mn8(BO3)8
_symmetry_space_group_name_H-M   'P 1'
_cell_length_a   5.24928800
_cell_length_b   9.14671789
_cell_length_c   11.53834801
_cell_angle_alpha   111.48063050
_cell_angle_beta   102.18051708
_cell_angle_gamma   89.90015050
_symmetry_Int_Tables_number   1
_chemical_formula_structural   Li7Mn8(BO3)8
_chemical_formula_sum   'Li7 Mn8 B8 O24'
_cell_volume   502.17405991
_cell_formula_units_Z   1
loop_
 _symmetry_equiv_pos_site_id
 _symmetry_equiv_pos_as_xyz
  1  'x, y, z'
loop_
 _atom_site_type_symbol
 _atom_site_label
 _atom_site_symmetry_multiplicity
 _atom_site_fract_x
 _atom_site_fract_y
 _atom_site_fract_z
 _atom_site_occupancy
  Li  Li0  1  0.97040200  0.95751100  0.08440000  1
  Li  Li1  1  0.73072800  0.75701900  0.33536100  1
  Li  Li2  1  0.70920900  0.71210900  0.58691200  1
  Li  Li3  1  0.51236800  0.49111000  0.83936400  1
  Li  Li4  1  0.22636500  0.25563300  0.33146400  1
  Li  Li5  1  0.21550500  0.21745600  0.59788200  1
  Li  Li6  1  0.01719700  0.98835700  0.83553200  1
  Mn  Mn0  1  0.98142700  0.63704000  0.12189400  1
  Mn  Mn1  1  0.75944400  0.43623000  0.36412400  1
  Mn  Mn2  1  0.72678400  0.05479600  0.61628700  1
  Mn  Mn3  1  0.47721300  0.15449600  0.11396500  1
  Mn  Mn4  1  0.52253400  0.84290300  0.87059000  1
  Mn  Mn5  1  0.25012600  0.93683200  0.36670400  1
  Mn  Mn6  1  0.23291300  0.55717700  0.61772500  1
  Mn  Mn7  1  0.01410800  0.34232600  0.86848100  1
  B  B0  1  0.96133200  0.30462400  0.11348000  1
  B  B1  1  0.76230300  0.11414600  0.37800600  1
  B  B2  1  0.73946200  0.39751000  0.63355800  1
  B  B3  1  0.48345600  0.82633800  0.13059700  1
  B  B4  1  0.51304000  0.17864800  0.86435100  1
  B  B5  1  0.27451300  0.60862700  0.37894100  1
  B  B6  1  0.23359000  0.89189100  0.62682700  1
  B  B7  1  0.03025700  0.68094100  0.87515500  1
  O  O0  1  0.97988500  0.88787100  0.64240800  1
  O  O1  1  0.74002100  0.34633700  0.16001000  1
  O  O2  1  0.91105400  0.29490600  0.67461400  1
  O  O3  1  0.83296200  0.50025800  0.58628200  1
  O  O4  1  0.62935100  0.71426500  0.15530500  1
  O  O5  1  0.58285000  0.92550900  0.07934400  1
  O  O6  1  0.92578100  0.82362200  0.88985500  1
  O  O7  1  0.89938200  0.56877100  0.90407600  1
  O  O8  1  0.66075200  0.99816000  0.41296500  1
  O  O9  1  0.59341900  0.20832100  0.33217400  1
  O  O10  1  0.75832800  0.15034700  0.83175300  1
  O  O11  1  0.54203600  0.63339800  0.39797000  1
  O  O12  1  0.48441000  0.39002600  0.64296600  1
  O  O13  1  0.23290800  0.84588000  0.15834700  1
  O  O14  1  0.40365100  0.78661800  0.65799700  1
  O  O15  1  0.32202400  0.00166600  0.58351500  1
  O  O16  1  0.09515300  0.18175600  0.13103400  1
  O  O17  1  0.05257500  0.39729200  0.05329700  1
  O  O18  1  0.38926500  0.30730800  0.85716900  1
  O  O19  1  0.17137900  0.48774000  0.40751000  1
  O  O20  1  0.39853300  0.07205500  0.90271400  1
  O  O21  1  0.10440500  0.70307900  0.33370600  1
  O  O22  1  0.26237000  0.64728300  0.83483100  1
  O  O23  1  0.03054400  0.13496900  0.39452900  1
loop_
_geom_bond_atom_site_label_1
_geom_bond_atom_site_label_2
_geom_bond_distance
_geom_bond_site_symmetry_2
Li0 O13 1.950987 1_655
Li0 O16 1.993263 1_665
Li0 O5 2.041382 1_555
Li0 O6 2.087884 1_554
Li1 O11 1.919787 1_555
Li1 O4 1.921328 1_555
Li1 O21 2.024092 1_655
Li1 O8 2.119230 1_555
Li2 O14 1.962613 1_555
Li2 O0 1.970657 1_555
Li2 O11 2.021522 1_555
Li2 O3 2.040633 1_555
Li3 O18 1.897083 1_555
Li3 O22 1.945416 1_555
Li3 O7 2.041021 1_555
Li3 O12 2.082619 1_555
Li4 O23 1.926654 1_555
Li4 O9 1.973023 1_555
Li4 O19 2.025061 1_555
Li4 O16 2.112875 1_555
Li5 O12 1.962437 1_555
Li5 O2 1.993387 1_455
Li5 O15 2.007868 1_555
Li5 O23 2.182207 1_555
Li6 O6 1.927351 1_455
Li6 O10 2.014724 1_465
Li6 O20 2.027283 1_565
Li6 O0 2.040854 1_455
Mn0 O4 2.039579 1_555
Mn0 O17 2.103691 1_655
Mn0 O13 2.180480 1_655
Mn0 O21 2.238073 1_655
Mn0 O7 2.299281 1_554
Mn1 O11 2.091034 1_555
Mn1 O19 2.126600 1_655
Mn1 O9 2.132840 1_555
Mn1 O1 2.171148 1_555
Mn1 O3 2.355102 1_555
Mn2 O0 2.085223 1_545
Mn2 O15 2.103210 1_555
Mn2 O8 2.158620 1_545
Mn2 O2 2.205031 1_555
Mn2 O10 2.282002 1_555
Mn3 O16 2.062070 1_555
Mn3 O1 2.069023 1_555
Mn3 O5 2.081004 1_545
Mn3 O20 2.216007 1_554
Mn3 O9 2.323528 1_555
Mn4 O6 2.095242 1_555
Mn4 O22 2.113503 1_555
Mn4 O20 2.117151 1_565
Mn4 O5 2.195223 1_556
Mn4 O14 2.258724 1_555
Mn5 O23 2.106862 1_565
Mn5 O8 2.131935 1_555
Mn5 O21 2.141973 1_555
Mn5 O13 2.218952 1_555
Mn5 O15 2.295254 1_565
Mn6 O12 2.078942 1_555
Mn6 O3 2.086733 1_455
Mn6 O14 2.130743 1_555
Mn6 O19 2.220992 1_555
Mn6 O22 2.302902 1_555
Mn7 O17 1.968357 1_556
Mn7 O18 2.018279 1_555
Mn7 O2 2.064975 1_455
Mn7 O10 2.070968 1_455
Mn7 O7 2.073251 1_455
B0 O1 1.376607 1_555
B0 O16 1.378917 1_655
B0 O17 1.415233 1_655
B1 O23 1.384325 1_655
B1 O9 1.393088 1_555
B1 O8 1.406582 1_545
B2 O12 1.369692 1_555
B2 O3 1.382651 1_555
B2 O2 1.434953 1_555
B3 O4 1.355650 1_555
B3 O5 1.403380 1_555
B3 O13 1.413926 1_555
B4 O18 1.363800 1_555
B4 O20 1.392192 1_555
B4 O10 1.413598 1_555
B5 O11 1.380645 1_555
B5 O21 1.395355 1_555
B5 O19 1.403105 1_555
B6 O0 1.383232 1_455
B6 O15 1.392997 1_565
B6 O14 1.403064 1_555
B7 O6 1.381076 1_455
B7 O22 1.388825 1_555
B7 O7 1.409226 1_455
