# generated using pymatgen
data_Li4Fe5Ni3O16
_symmetry_space_group_name_H-M   'P 1'
_cell_length_a   5.86197497
_cell_length_b   5.86197497
_cell_length_c   9.45438456
_cell_angle_alpha   89.51246379
_cell_angle_beta   89.51246379
_cell_angle_gamma   59.60552104
_symmetry_Int_Tables_number   1
_chemical_formula_structural   Li4Fe5Ni3O16
_chemical_formula_sum   'Li4 Fe5 Ni3 O16'
_cell_volume   280.21465058
_cell_formula_units_Z   1
loop_
 _symmetry_equiv_pos_site_id
 _symmetry_equiv_pos_as_xyz
  1  'x, y, z'
loop_
 _atom_site_type_symbol
 _atom_site_label
 _atom_site_symmetry_multiplicity
 _atom_site_fract_x
 _atom_site_fract_y
 _atom_site_fract_z
 _atom_site_occupancy
  Li  Li0  1  0.66411300  0.66411300  0.10739400  1
  Li  Li1  1  0.99453700  0.99453700  0.00666300  1
  Li  Li2  1  0.99875200  0.99875200  0.50313700  1
  Li  Li3  1  0.33620400  0.33620400  0.60367300  1
  Fe  Fe0  1  0.33926100  0.83046900  0.78557400  1
  Fe  Fe1  1  0.67013000  0.67013000  0.51062400  1
  Fe  Fe2  1  0.83046900  0.33926100  0.78557400  1
  Fe  Fe3  1  0.17054800  0.17054800  0.28514000  1
  Fe  Fe4  1  0.33277100  0.33277100  0.01209300  1
  Ni  Ni0  1  0.82932700  0.82932700  0.78789000  1
  Ni  Ni1  1  0.16932400  0.66011000  0.28698600  1
  Ni  Ni2  1  0.66011000  0.16932400  0.28698600  1
  O  O0  1  0.33348400  0.84004800  0.39951300  1
  O  O1  1  0.51896700  0.51896700  0.65735300  1
  O  O2  1  0.66634800  0.66634800  0.89618300  1
  O  O3  1  0.99597700  0.99597700  0.69244800  1
  O  O4  1  0.99545200  0.99545200  0.19572800  1
  O  O5  1  0.84004800  0.33348400  0.39951300  1
  O  O6  1  0.51906200  0.96441800  0.65674500  1
  O  O7  1  0.96441800  0.51906200  0.65674500  1
  O  O8  1  0.16328300  0.16328300  0.90115000  1
  O  O9  1  0.83870200  0.83870200  0.39884400  1
  O  O10  1  0.03574600  0.47934500  0.15819300  1
  O  O11  1  0.47934500  0.03574600  0.15819300  1
  O  O12  1  0.33727500  0.33727500  0.39176300  1
  O  O13  1  0.16654300  0.66688300  0.90219600  1
  O  O14  1  0.47891600  0.47891600  0.16353400  1
  O  O15  1  0.66688300  0.16654300  0.90219600  1
loop_
_geom_bond_atom_site_label_1
_geom_bond_atom_site_label_2
_geom_bond_distance
_geom_bond_site_symmetry_2
Li0 O10 1.941901 1_655
Li0 O11 1.941901 1_565
Li0 O14 1.952394 1_555
Li0 O2 1.996777 1_554
Li1 O4 1.787609 1_555
Li1 O15 1.933105 1_564
Li1 O13 1.933105 1_654
Li1 O8 1.977030 1_664
Li2 O3 1.789765 1_555
Li2 O9 1.911784 1_555
Li2 O5 1.952206 1_565
Li2 O0 1.952206 1_655
Li3 O1 1.932128 1_555
Li3 O6 1.943492 1_545
Li3 O7 1.943492 1_455
Li3 O12 2.003401 1_555
Fe0 O3 1.950883 1_455
Fe0 O2 1.961091 1_555
Fe0 O1 1.995763 1_555
Fe0 O6 2.002570 1_555
Fe0 O8 2.011202 1_565
Fe0 O13 2.026281 1_555
Fe1 O5 2.004607 1_555
Fe1 O0 2.004607 1_555
Fe1 O9 2.005576 1_555
Fe1 O6 2.035334 1_555
Fe1 O7 2.035334 1_555
Fe1 O1 2.060949 1_555
Fe2 O3 1.950883 1_545
Fe2 O2 1.961091 1_555
Fe2 O1 1.995763 1_555
Fe2 O7 2.002570 1_555
Fe2 O8 2.011202 1_655
Fe2 O15 2.026281 1_555
Fe3 O10 1.968081 1_555
Fe3 O11 1.968081 1_555
Fe3 O4 1.979193 1_445
Fe3 O12 1.981593 1_555
Fe3 O5 1.986062 1_455
Fe3 O0 1.986062 1_545
Fe4 O13 1.978991 1_554
Fe4 O15 1.978991 1_554
Fe4 O8 2.027002 1_554
Fe4 O10 2.035498 1_555
Fe4 O11 2.035498 1_555
Fe4 O14 2.074193 1_555
Ni0 O3 1.912739 1_555
Ni0 O2 1.940122 1_555
Ni0 O6 2.009129 1_555
Ni0 O7 2.009129 1_555
Ni0 O13 2.023933 1_655
Ni0 O15 2.023933 1_565
Ni1 O4 1.898989 1_455
Ni1 O12 1.905599 1_555
Ni1 O14 1.954099 1_555
Ni1 O9 1.975209 1_455
Ni1 O10 2.023970 1_555
Ni1 O0 2.057685 1_555
Ni2 O4 1.898989 1_545
Ni2 O12 1.905599 1_555
Ni2 O14 1.954099 1_555
Ni2 O9 1.975209 1_545
Ni2 O11 2.023970 1_555
Ni2 O5 2.057685 1_555
