# generated using pymatgen
data_LiMn2OF5
_symmetry_space_group_name_H-M   'P 1'
_cell_length_a   4.73219700
_cell_length_b   17.29305697
_cell_length_c   5.12000657
_cell_angle_alpha   88.54703147
_cell_angle_beta   90.00000000
_cell_angle_gamma   90.00000000
_symmetry_Int_Tables_number   1
_chemical_formula_structural   LiMn2OF5
_chemical_formula_sum   'Li4 Mn8 O4 F20'
_cell_volume   418.85668146
_cell_formula_units_Z   4
loop_
 _symmetry_equiv_pos_site_id
 _symmetry_equiv_pos_as_xyz
  1  'x, y, z'
loop_
 _atom_site_type_symbol
 _atom_site_label
 _atom_site_symmetry_multiplicity
 _atom_site_fract_x
 _atom_site_fract_y
 _atom_site_fract_z
 _atom_site_occupancy
  Li  Li0  1  0.01035000  0.38179500  0.25124700  1
  Li  Li1  1  0.98923300  0.61082300  0.74640400  1
  Li  Li2  1  0.48965000  0.88179500  0.25124700  1
  Li  Li3  1  0.51076700  0.11082300  0.74640400  1
  Mn  Mn0  1  0.01003400  0.28161600  0.76436500  1
  Mn  Mn1  1  0.01797800  0.05521100  0.24941100  1
  Mn  Mn2  1  0.04448100  0.70996400  0.22501200  1
  Mn  Mn3  1  0.99948000  0.94578000  0.75743900  1
  Mn  Mn4  1  0.45551900  0.20996400  0.22501200  1
  Mn  Mn5  1  0.48202200  0.55521100  0.24941100  1
  Mn  Mn6  1  0.48996600  0.78161600  0.76436500  1
  Mn  Mn7  1  0.50052000  0.44578000  0.75743900  1
  O  O0  1  0.26234400  0.78498000  0.06777800  1
  O  O1  1  0.24389300  0.62823700  0.08432200  1
  O  O2  1  0.25610700  0.12823700  0.08432200  1
  O  O3  1  0.23765600  0.28498000  0.06777800  1
  F  F0  1  0.23701600  0.95943400  0.08423500  1
  F  F1  1  0.23234000  0.04452700  0.56911100  1
  F  F2  1  0.26295200  0.20943600  0.56239100  1
  F  F3  1  0.22655200  0.37125500  0.58283100  1
  F  F4  1  0.27344800  0.87125500  0.58283100  1
  F  F5  1  0.23704800  0.70943600  0.56239100  1
  F  F6  1  0.26298400  0.45943400  0.08423500  1
  F  F7  1  0.26766000  0.54452700  0.56911100  1
  F  F8  1  0.71075500  0.47276800  0.40935800  1
  F  F9  1  0.71128300  0.54274300  0.93052900  1
  F  F10  1  0.77139400  0.29103600  0.45240600  1
  F  F11  1  0.78619800  0.70683800  0.93577100  1
  F  F12  1  0.71339800  0.13578300  0.40550200  1
  F  F13  1  0.71415200  0.86777500  0.92188600  1
  F  F14  1  0.78584800  0.36777500  0.92188600  1
  F  F15  1  0.78660200  0.63578300  0.40550200  1
  F  F16  1  0.72860600  0.79103600  0.45240600  1
  F  F17  1  0.71380200  0.20683800  0.93577100  1
  F  F18  1  0.78871700  0.04274300  0.93052900  1
  F  F19  1  0.78924500  0.97276800  0.40935800  1
loop_
_geom_bond_atom_site_label_1
_geom_bond_atom_site_label_2
_geom_bond_distance
_geom_bond_site_symmetry_2
Li0 O3 2.218611 1_555
Li1 O1 2.136064 1_656
Li2 O0 2.218611 1_555
Li3 O2 2.136064 1_556
Mn0 O3 1.892489 1_556
Mn1 O2 1.877483 1_555
Mn2 O0 1.827813 1_555
Mn2 O1 1.859689 1_555
Mn4 O3 1.827813 1_555
Mn4 O2 1.859689 1_555
Mn5 O1 1.877483 1_555
Mn6 O0 1.892489 1_556
F0 Li2 1.976069 1_555
F0 Mn3 2.034430 1_454
F0 Mn1 2.145669 1_565
F1 Mn1 1.930581 1_555
F1 Li3 1.981700 1_555
F1 Mn3 2.230819 1_445
F2 Mn4 1.952828 1_555
F2 Mn0 2.031094 1_555
F2 Li3 2.255998 1_555
F3 Li0 1.986583 1_555
F3 Mn7 2.049245 1_555
F3 Mn0 2.059988 1_555
F4 Li2 1.986583 1_555
F4 Mn3 2.049245 1_455
F4 Mn6 2.059988 1_555
F5 Mn2 1.952828 1_555
F5 Mn6 2.031094 1_555
F5 Li1 2.255998 1_455
F6 Li0 1.976069 1_555
F6 Mn7 2.034430 1_554
F6 Mn5 2.145669 1_555
F7 Mn5 1.930581 1_555
F7 Li1 1.981700 1_455
F7 Mn7 2.230819 1_555
F8 Mn5 1.953367 1_555
F8 Mn7 2.083641 1_555
F8 Li0 2.281420 1_655
F9 Mn5 1.976614 1_556
F9 Li1 1.987096 1_555
F9 Mn7 2.160350 1_555
F10 Mn0 1.959539 1_655
F10 Li0 2.172741 1_655
F10 Mn4 2.374491 1_555
F11 Mn2 1.921973 1_656
F11 Mn6 2.085657 1_555
F11 Li1 2.168348 1_555
F12 Mn4 1.982093 1_555
F12 Li3 2.028316 1_555
F12 Mn1 2.171174 1_655
F13 Li2 2.012932 1_556
F13 Mn6 2.014161 1_555
F13 Mn3 2.072217 1_555
F14 Li0 2.012932 1_656
F14 Mn0 2.014161 1_655
F14 Mn7 2.072217 1_555
F15 Mn2 1.982093 1_655
F15 Li1 2.028316 1_555
F15 Mn5 2.171174 1_555
F16 Mn6 1.959539 1_555
F16 Li2 2.172741 1_555
F16 Mn2 2.374491 1_655
F17 Mn4 1.921973 1_556
F17 Mn0 2.085657 1_655
F17 Li3 2.168348 1_555
F18 Mn1 1.976614 1_656
F18 Li3 1.987096 1_555
F18 Mn3 2.160350 1_545
F19 Mn1 1.953367 1_665
F19 Mn3 2.083641 1_555
F19 Li2 2.281420 1_555
