# generated using pymatgen
data_Li6Ni11(OF12)2
_symmetry_space_group_name_H-M   'P 1'
_cell_length_a   7.96501500
_cell_length_b   7.97203150
_cell_length_c   8.61896893
_cell_angle_alpha   106.25872969
_cell_angle_beta   106.56191300
_cell_angle_gamma   86.48577798
_symmetry_Int_Tables_number   1
_chemical_formula_structural   Li6Ni11(OF12)2
_chemical_formula_sum   'Li6 Ni11 O2 F24'
_cell_volume   503.49503995
_cell_formula_units_Z   1
loop_
 _symmetry_equiv_pos_site_id
 _symmetry_equiv_pos_as_xyz
  1  'x, y, z'
loop_
 _atom_site_type_symbol
 _atom_site_label
 _atom_site_symmetry_multiplicity
 _atom_site_fract_x
 _atom_site_fract_y
 _atom_site_fract_z
 _atom_site_occupancy
  Li  Li0  1  0.88839900  0.58025600  0.75233800  1
  Li  Li1  1  0.79593100  0.93989300  0.54649100  1
  Li  Li2  1  0.28720100  0.66193300  0.10209700  1
  Li  Li3  1  0.71681200  0.33770400  0.89111500  1
  Li  Li4  1  0.19919200  0.04269300  0.44166800  1
  Li  Li5  1  0.11016200  0.43680700  0.26357100  1
  Ni  Ni0  1  0.86637600  0.74227000  0.14575300  1
  Ni  Ni1  1  0.77814500  0.15849400  0.25247400  1
  Ni  Ni2  1  0.99576000  0.99061100  0.00182200  1
  Ni  Ni3  1  0.69061400  0.52380000  0.29555900  1
  Ni  Ni4  1  0.54803300  0.29941500  0.47045700  1
  Ni  Ni5  1  0.63004800  0.90907000  0.88142300  1
  Ni  Ni6  1  0.39376900  0.10087300  0.12706600  1
  Ni  Ni7  1  0.45908100  0.70009500  0.52308800  1
  Ni  Ni8  1  0.29908000  0.45869400  0.69129100  1
  Ni  Ni9  1  0.21607800  0.84765000  0.75493300  1
  Ni  Ni10  1  0.13360300  0.24812500  0.84105500  1
  O  O0  1  0.84734000  0.78260700  0.92654100  1
  O  O1  1  0.56343000  0.29551500  0.24421700  1
  F  F0  1  0.99329300  0.00101600  0.24596200  1
  F  F1  1  0.91620000  0.38060300  0.32187900  1
  F  F2  1  0.91518700  0.37415300  0.82580000  1
  F  F3  1  0.83948700  0.74951500  0.37477200  1
  F  F4  1  0.76030000  0.14278200  0.47741600  1
  F  F5  1  0.70533300  0.53287900  0.06874600  1
  F  F6  1  0.61007600  0.93584800  0.11878100  1
  F  F7  1  0.67842100  0.54541200  0.55040200  1
  F  F8  1  0.77337900  0.14029600  0.99285200  1
  F  F9  1  0.61880100  0.90777100  0.64675900  1
  F  F10  1  0.52173000  0.32821300  0.70118300  1
  F  F11  1  0.47698100  0.67824000  0.29570300  1
  F  F12  1  0.37388800  0.09383300  0.35261600  1
  F  F13  1  0.23218500  0.86947100  0.00800400  1
  F  F14  1  0.44177600  0.70542700  0.76786700  1
  F  F15  1  0.31959500  0.46794900  0.45862600  1
  F  F16  1  0.36505600  0.07433500  0.87273700  1
  F  F17  1  0.15120300  0.22210200  0.07992600  1
  F  F18  1  0.29066600  0.45938400  0.92119900  1
  F  F19  1  0.24585400  0.84837700  0.53288400  1
  F  F20  1  0.15671700  0.23683500  0.61351000  1
  F  F21  1  0.09665400  0.62674600  0.17676900  1
  F  F22  1  0.09297600  0.62007600  0.68258800  1
  F  F23  1  0.00518600  0.00223100  0.76005900  1
loop_
_geom_bond_atom_site_label_1
_geom_bond_atom_site_label_2
_geom_bond_distance
_geom_bond_site_symmetry_2
Li0 O0 1.955142 1_555
Ni0 O0 1.966486 1_554
Ni1 O1 1.966774 1_555
Ni2 O0 1.941328 1_554
Ni3 O1 2.013344 1_555
Ni4 O1 1.979962 1_555
Ni5 O0 1.945503 1_555
Ni6 O1 1.963488 1_555
F0 Li4 1.954763 1_655
F0 Ni1 2.065790 1_555
F0 Ni2 2.088231 1_545
F0 Ni0 2.187011 1_545
F1 Li5 1.869129 1_655
F1 Ni1 1.993189 1_555
F1 Ni3 2.060169 1_555
F2 Li3 1.884917 1_555
F2 Li0 1.899633 1_555
F2 Ni10 1.944867 1_655
F3 Li1 1.893323 1_555
F3 Ni0 2.030068 1_555
F3 Ni3 2.054795 1_555
F4 Li1 1.854103 1_545
F4 Ni1 2.022370 1_555
F4 Ni4 2.036325 1_555
F5 Li3 1.871295 1_554
F5 Ni0 2.007257 1_555
F5 Ni3 2.012839 1_555
F6 Ni5 2.047663 1_554
F6 Ni6 2.108049 1_565
F6 Ni1 2.129995 1_565
F6 Ni0 2.479336 1_555
F7 Li0 2.007568 1_555
F7 Ni7 2.071761 1_555
F7 Ni4 2.117620 1_555
F7 Ni3 2.184334 1_555
F8 Li3 1.977149 1_555
F8 Ni5 2.065238 1_545
F8 Ni2 2.069248 1_546
F8 Ni1 2.190923 1_556
F9 Li1 1.914738 1_555
F9 Ni5 1.995991 1_555
F9 Ni7 1.998144 1_555
F10 Li3 1.896011 1_555
F10 Ni8 1.992883 1_555
F10 Ni4 2.006785 1_555
F11 Li2 1.884396 1_555
F11 Ni7 1.963835 1_555
F11 Ni3 2.038328 1_555
F12 Li4 1.882844 1_555
F12 Ni6 2.011237 1_555
F12 Ni4 2.045725 1_555
F13 Li2 2.011699 1_555
F13 Ni2 2.056773 1_455
F13 Ni9 2.105977 1_554
F13 Ni6 2.142582 1_565
F14 Ni9 2.058222 1_555
F14 Ni5 2.101016 1_555
F14 Ni7 2.141651 1_555
F14 Ni8 2.171597 1_555
F15 Li5 1.972032 1_555
F15 Ni7 2.071817 1_555
F15 Ni8 2.079576 1_555
F15 Ni4 2.190301 1_555
F16 Ni9 2.062354 1_545
F16 Ni6 2.088686 1_556
F16 Ni10 2.237048 1_555
F16 Ni5 2.412582 1_545
F17 Li5 2.061858 1_555
F17 Ni10 2.091051 1_554
F17 Ni6 2.091726 1_555
F17 Ni2 2.121576 1_445
F18 Li2 1.910078 1_556
F18 Ni10 1.998199 1_555
F18 Ni8 2.000175 1_555
F19 Li4 1.897552 1_565
F19 Ni9 1.996043 1_555
F19 Ni7 2.017093 1_555
F20 Li4 1.908247 1_555
F20 Ni10 1.998320 1_555
F20 Ni8 2.002984 1_555
F21 Li5 1.852719 1_555
F21 Li2 1.872565 1_555
F21 Ni0 1.983695 1_455
F22 Li0 1.961136 1_455
F22 Ni9 1.969188 1_555
F22 Ni8 2.020064 1_555
F23 Ni9 2.024899 1_545
F23 Li1 2.062396 1_445
F23 Ni10 2.109189 1_555
F23 Ni2 2.134092 1_446
