# generated using pymatgen
data_Li6VFe3(PO4)6
_symmetry_space_group_name_H-M   'P 1'
_cell_length_a   8.59986400
_cell_length_b   8.62984148
_cell_length_c   8.64599594
_cell_angle_alpha   61.53641723
_cell_angle_beta   61.41682925
_cell_angle_gamma   61.37435318
_symmetry_Int_Tables_number   1
_chemical_formula_structural   Li6VFe3(PO4)6
_chemical_formula_sum   'Li6 V1 Fe3 P6 O24'
_cell_volume   468.42297828
_cell_formula_units_Z   1
loop_
 _symmetry_equiv_pos_site_id
 _symmetry_equiv_pos_as_xyz
  1  'x, y, z'
loop_
 _atom_site_type_symbol
 _atom_site_label
 _atom_site_symmetry_multiplicity
 _atom_site_fract_x
 _atom_site_fract_y
 _atom_site_fract_z
 _atom_site_occupancy
  Li  Li0  1  0.97396300  0.00254300  0.99285400  1
  Li  Li1  1  0.25011200  0.65147300  0.84744200  1
  Li  Li2  1  0.52471500  0.50555200  0.49700700  1
  Li  Li3  1  0.74277000  0.34699700  0.15769500  1
  Li  Li4  1  0.34747100  0.16094500  0.73754900  1
  Li  Li5  1  0.15905200  0.74249600  0.34673200  1
  V  V0  1  0.14318400  0.14653000  0.14633100  1
  Fe  Fe0  1  0.85405900  0.86281100  0.85394200  1
  Fe  Fe1  1  0.64672900  0.64497000  0.63772200  1
  Fe  Fe2  1  0.35277900  0.35072900  0.35149100  1
  P  P0  1  0.95097300  0.55029700  0.24882700  1
  P  P1  1  0.54932000  0.25178900  0.94950200  1
  P  P2  1  0.24981700  0.95302800  0.54776200  1
  P  P3  1  0.74882600  0.04174600  0.45929000  1
  P  P4  1  0.45748200  0.74828000  0.03873200  1
  P  P5  1  0.04485300  0.46304500  0.74985800  1
  O  O0  1  0.87249300  0.50477500  0.70851200  1
  O  O1  1  0.69647200  0.88083500  0.49193600  1
  O  O2  1  0.95348300  0.73037300  0.07731500  1
  O  O3  1  0.47002400  0.70385500  0.87973800  1
  O  O4  1  0.76173600  0.56989300  0.40720900  1
  O  O5  1  0.98407400  0.38700900  0.19374600  1
  O  O6  1  0.73870400  0.09243800  0.92972000  1
  O  O7  1  0.54917000  0.42297600  0.76795100  1
  O  O8  1  0.40768700  0.75961800  0.56918000  1
  O  O9  1  0.80323000  0.00871900  0.61898500  1
  O  O10  1  0.90749500  0.06723500  0.26525400  1
  O  O11  1  0.62820200  0.79220600  0.99593300  1
  O  O12  1  0.38712400  0.19545000  0.98502300  1
  O  O13  1  0.09322300  0.93060900  0.74140300  1
  O  O14  1  0.18953900  0.98810100  0.39050400  1
  O  O15  1  0.58639700  0.23518800  0.43694400  1
  O  O16  1  0.43733400  0.58626800  0.23060500  1
  O  O17  1  0.26686100  0.91089300  0.07126100  1
  O  O18  1  0.02986700  0.62033800  0.79879500  1
  O  O19  1  0.23352500  0.43637400  0.58409200  1
  O  O20  1  0.51740100  0.30677400  0.11280500  1
  O  O21  1  0.06824900  0.26953300  0.90780700  1
  O  O22  1  0.30804600  0.11309500  0.51530900  1
  O  O23  1  0.11356300  0.51322100  0.30823700  1
loop_
_geom_bond_atom_site_label_1
_geom_bond_atom_site_label_2
_geom_bond_distance
_geom_bond_site_symmetry_2
Li0 O6 2.035266 1_555
Li0 O13 2.169459 1_645
Li0 O2 2.172430 1_546
Li0 O10 2.417561 1_556
Li0 O21 2.472167 1_655
Li0 O17 2.577560 1_646
Li1 O13 2.104290 1_555
Li1 O8 2.108895 1_555
Li1 O18 2.279095 1_555
Li1 O3 2.302996 1_555
Li1 O2 2.386518 1_456
Li1 O7 2.390889 1_555
Li2 O4 2.055527 1_555
Li2 O7 2.185479 1_555
Li2 O8 2.190531 1_555
Li2 O15 2.387538 1_555
Li2 O16 2.445501 1_555
Li2 O19 2.528661 1_555
Li3 O15 2.117696 1_555
Li3 O10 2.131629 1_555
Li3 O20 2.349542 1_555
Li3 O5 2.435336 1_555
Li3 O16 2.453582 1_555
Li3 O21 2.597455 1_654
Li4 O19 2.092023 1_555
Li4 O21 2.141882 1_555
Li4 O22 2.343380 1_555
Li4 O15 2.439577 1_555
Li4 O12 2.487144 1_555
Li5 O16 2.110133 1_555
Li5 O17 2.126715 1_555
Li5 O23 2.381732 1_555
Li5 O19 2.463635 1_555
Li5 O14 2.469087 1_555
Li5 O10 2.607190 1_465
Fe0 O9 1.946126 1_565
Fe0 O11 1.946887 1_555
Fe0 O6 2.017998 1_565
Fe0 O18 2.030192 1_655
Fe0 O13 2.053013 1_655
Fe0 O2 2.075314 1_556
Fe1 O1 1.946210 1_555
Fe1 O0 1.946390 1_555
Fe1 O4 2.025039 1_555
Fe1 O3 2.043759 1_555
Fe1 O8 2.052824 1_555
Fe1 O7 2.054729 1_555
Fe2 O23 1.952070 1_555
Fe2 O22 1.955892 1_555
Fe2 O20 1.960347 1_555
Fe2 O19 2.087931 1_555
Fe2 O15 2.091688 1_555
Fe2 O16 2.101625 1_555
O0 P5 1.525599 1_655
O1 P3 1.521363 1_565
O2 P0 1.555423 1_555
O3 P4 1.539210 1_556
O4 P0 1.541711 1_555
O5 P0 1.555356 1_555
O5 V0 1.974976 1_655
O6 P1 1.544205 1_555
O7 P1 1.560801 1_555
O8 P2 1.561439 1_555
O9 P3 1.523737 1_555
O10 P3 1.571682 1_555
O10 V0 2.073141 1_655
O11 P4 1.521793 1_556
O12 P1 1.540755 1_555
O12 V0 2.003015 1_556
O13 P2 1.561249 1_555
O14 P2 1.529966 1_555
O14 V0 2.004196 1_565
O15 P3 1.578553 1_555
O16 P4 1.575779 1_555
O17 P4 1.570527 1_555
O17 V0 2.052520 1_565
O18 P5 1.538135 1_555
O19 P5 1.572004 1_555
O20 P1 1.561083 1_554
O21 P5 1.568877 1_555
O21 V0 2.079574 1_556
O22 P2 1.548070 1_545
O23 P0 1.556677 1_455
