# generated using pymatgen
data_ScBiO3
_symmetry_space_group_name_H-M   'P 1'
_cell_length_a   5.60061700
_cell_length_b   5.90965100
_cell_length_c   8.10409300
_cell_angle_alpha   90.00000000
_cell_angle_beta   90.00000000
_cell_angle_gamma   90.00000000
_symmetry_Int_Tables_number   1
_chemical_formula_structural   ScBiO3
_chemical_formula_sum   'Sc4 Bi4 O12'
_cell_volume   268.22677288
_cell_formula_units_Z   4
loop_
 _symmetry_equiv_pos_site_id
 _symmetry_equiv_pos_as_xyz
  1  'x, y, z'
loop_
 _atom_site_type_symbol
 _atom_site_label
 _atom_site_symmetry_multiplicity
 _atom_site_fract_x
 _atom_site_fract_y
 _atom_site_fract_z
 _atom_site_occupancy
  Sc  Sc0  1  0.00000000  0.50000000  0.00000000  1
  Sc  Sc1  1  0.00000000  0.50000000  0.50000000  1
  Sc  Sc2  1  0.50000000  0.00000000  0.00000000  1
  Sc  Sc3  1  0.50000000  0.00000000  0.50000000  1
  Bi  Bi0  1  0.01056700  0.04560500  0.25000000  1
  Bi  Bi1  1  0.48943300  0.54560500  0.25000000  1
  Bi  Bi2  1  0.51056700  0.45439500  0.75000000  1
  Bi  Bi3  1  0.98943300  0.95439500  0.75000000  1
  O  O0  1  0.11534800  0.53708900  0.75000000  1
  O  O1  1  0.18647500  0.80692900  0.05771600  1
  O  O2  1  0.18647500  0.80692900  0.44228400  1
  O  O3  1  0.31352500  0.30692900  0.05771600  1
  O  O4  1  0.31352500  0.30692900  0.44228400  1
  O  O5  1  0.38465200  0.03708900  0.75000000  1
  O  O6  1  0.61534800  0.96291100  0.25000000  1
  O  O7  1  0.68647500  0.69307100  0.55771600  1
  O  O8  1  0.68647500  0.69307100  0.94228400  1
  O  O9  1  0.81352500  0.19307100  0.55771600  1
  O  O10  1  0.81352500  0.19307100  0.94228400  1
  O  O11  1  0.88465200  0.46291100  0.25000000  1
loop_
_geom_bond_atom_site_label_1
_geom_bond_atom_site_label_2
_geom_bond_distance
_geom_bond_site_symmetry_2
Bi0 O6 2.266775 1_445
Bi0 O1 2.321283 1_545
Bi0 O2 2.321283 1_545
Bi0 O11 2.564980 1_455
Bi0 O4 2.773480 1_555
Bi0 O3 2.773480 1_555
Bi0 O9 2.862890 1_455
Bi0 O10 2.862890 1_454
Bi1 O11 2.266775 1_555
Bi1 O3 2.321283 1_555
Bi1 O4 2.321283 1_555
Bi1 O6 2.564980 1_555
Bi1 O1 2.773480 1_555
Bi1 O2 2.773480 1_555
Bi1 O8 2.862890 1_554
Bi1 O7 2.862890 1_555
Bi2 O0 2.266775 1_555
Bi2 O8 2.321283 1_555
Bi2 O7 2.321283 1_555
Bi2 O5 2.564980 1_555
Bi2 O9 2.773480 1_555
Bi2 O10 2.773480 1_555
Bi2 O4 2.862890 1_555
Bi2 O3 2.862890 1_556
Bi3 O5 2.266775 1_665
Bi3 O10 2.321283 1_565
Bi3 O9 2.321283 1_565
Bi3 O0 2.564980 1_655
Bi3 O7 2.773480 1_555
Bi3 O8 2.773480 1_555
Bi3 O2 2.862890 1_655
Bi3 O1 2.862890 1_656
O0 Sc1 2.137792 1_555
O0 Sc0 2.137792 1_556
O1 Sc0 2.144650 1_555
O1 Sc2 2.145675 1_565
O2 Sc1 2.144650 1_555
O2 Sc3 2.145675 1_565
O3 Sc2 2.144650 1_555
O3 Sc0 2.145675 1_555
O4 Sc3 2.144650 1_555
O4 Sc1 2.145675 1_555
O5 Sc2 2.137792 1_556
O5 Sc3 2.137792 1_555
O6 Sc2 2.137792 1_565
O6 Sc3 2.137792 1_565
O7 Sc3 2.144650 1_565
O7 Sc1 2.145675 1_655
O8 Sc2 2.144650 1_566
O8 Sc0 2.145675 1_656
O9 Sc1 2.144650 1_655
O9 Sc3 2.145675 1_555
O10 Sc0 2.144650 1_656
O10 Sc2 2.145675 1_556
O11 Sc1 2.137792 1_655
O11 Sc0 2.137792 1_655
