# generated using pymatgen
data_Ni4P2O9
_symmetry_space_group_name_H-M   'P 1'
_cell_length_a   6.34730300
_cell_length_b   8.46451800
_cell_length_c   13.26822800
_cell_angle_alpha   90.00000000
_cell_angle_beta   90.00000000
_cell_angle_gamma   90.00000000
_symmetry_Int_Tables_number   1
_chemical_formula_structural   Ni4P2O9
_chemical_formula_sum   'Ni16 P8 O36'
_cell_volume   712.86023477
_cell_formula_units_Z   4
loop_
 _symmetry_equiv_pos_site_id
 _symmetry_equiv_pos_as_xyz
  1  'x, y, z'
loop_
 _atom_site_type_symbol
 _atom_site_label
 _atom_site_symmetry_multiplicity
 _atom_site_fract_x
 _atom_site_fract_y
 _atom_site_fract_z
 _atom_site_occupancy
  Ni  Ni0  1  0.75000000  0.07321800  0.91636400  1
  Ni  Ni1  1  0.25000000  0.14501300  0.56435100  1
  Ni  Ni2  1  0.51543400  0.14350100  0.35415900  1
  Ni  Ni3  1  0.98456600  0.14350100  0.35415900  1
  Ni  Ni4  1  0.01543400  0.35649900  0.85415900  1
  Ni  Ni5  1  0.48456600  0.35649900  0.85415900  1
  Ni  Ni6  1  0.75000000  0.35498700  0.06435100  1
  Ni  Ni7  1  0.25000000  0.42678200  0.41636400  1
  Ni  Ni8  1  0.75000000  0.57321800  0.58363600  1
  Ni  Ni9  1  0.25000000  0.64501300  0.93564900  1
  Ni  Ni10  1  0.51543400  0.64350100  0.14584100  1
  Ni  Ni11  1  0.98456600  0.64350100  0.14584100  1
  Ni  Ni12  1  0.01543400  0.85649900  0.64584100  1
  Ni  Ni13  1  0.48456600  0.85649900  0.64584100  1
  Ni  Ni14  1  0.75000000  0.85498700  0.43564900  1
  Ni  Ni15  1  0.25000000  0.92678200  0.08363600  1
  P  P0  1  0.25000000  0.00607900  0.84461800  1
  P  P1  1  0.75000000  0.16590400  0.57635600  1
  P  P2  1  0.25000000  0.33409600  0.07635600  1
  P  P3  1  0.75000000  0.49392100  0.34461800  1
  P  P4  1  0.25000000  0.50607900  0.65538200  1
  P  P5  1  0.75000000  0.66590400  0.92364400  1
  P  P6  1  0.25000000  0.83409600  0.42364400  1
  P  P7  1  0.75000000  0.99392100  0.15538200  1
  O  O0  1  0.54558500  0.09610300  0.62409200  1
  O  O1  1  0.95441500  0.09610300  0.62409200  1
  O  O2  1  0.75000000  0.10902500  0.46082500  1
  O  O3  1  0.75000000  0.09162800  0.25568900  1
  O  O4  1  0.04940800  0.11075700  0.85062600  1
  O  O5  1  0.45059200  0.11075700  0.85062600  1
  O  O6  1  0.75000000  0.11516600  0.06792200  1
  O  O7  1  0.25000000  0.15678400  0.08604200  1
  O  O8  1  0.25000000  0.19357000  0.41757500  1
  O  O9  1  0.75000000  0.30643000  0.91757500  1
  O  O10  1  0.75000000  0.34321600  0.58604200  1
  O  O11  1  0.25000000  0.38483400  0.56792200  1
  O  O12  1  0.54940800  0.38924300  0.35062600  1
  O  O13  1  0.95059200  0.38924300  0.35062600  1
  O  O14  1  0.25000000  0.40837200  0.75568900  1
  O  O15  1  0.25000000  0.39097500  0.96082500  1
  O  O16  1  0.04558500  0.40389700  0.12409200  1
  O  O17  1  0.45441500  0.40389700  0.12409200  1
  O  O18  1  0.54558500  0.59610300  0.87590800  1
  O  O19  1  0.95441500  0.59610300  0.87590800  1
  O  O20  1  0.75000000  0.60902500  0.03917500  1
  O  O21  1  0.75000000  0.59162800  0.24431100  1
  O  O22  1  0.04940800  0.61075700  0.64937400  1
  O  O23  1  0.45059200  0.61075700  0.64937400  1
  O  O24  1  0.75000000  0.61516600  0.43207800  1
  O  O25  1  0.25000000  0.65678400  0.41395800  1
  O  O26  1  0.25000000  0.69357000  0.08242500  1
  O  O27  1  0.75000000  0.80643000  0.58242500  1
  O  O28  1  0.75000000  0.84321600  0.91395800  1
  O  O29  1  0.25000000  0.88483400  0.93207800  1
  O  O30  1  0.54940800  0.88924300  0.14937400  1
  O  O31  1  0.95059200  0.88924300  0.14937400  1
  O  O32  1  0.25000000  0.90837200  0.74431100  1
  O  O33  1  0.25000000  0.89097500  0.53917500  1
  O  O34  1  0.04558500  0.90389700  0.37590800  1
  O  O35  1  0.45441500  0.90389700  0.37590800  1
loop_
_geom_bond_atom_site_label_1
_geom_bond_atom_site_label_2
_geom_bond_distance
_geom_bond_site_symmetry_2
Ni0 O28 1.947118 1_545
Ni0 O9 1.974093 1_555
Ni0 O6 2.042013 1_556
Ni0 O4 2.115039 1_655
Ni0 O5 2.115039 1_555
Ni1 O8 1.990357 1_555
Ni1 O11 2.030522 1_555
Ni1 O1 2.078390 1_455
Ni1 O0 2.078390 1_555
Ni1 O33 2.176100 1_545
Ni2 O8 1.930315 1_555
Ni2 O3 2.028916 1_555
Ni2 O2 2.074814 1_555
Ni2 O35 2.084850 1_545
Ni2 O12 2.091761 1_555
Ni3 O8 1.930315 1_655
Ni3 O3 2.028916 1_555
Ni3 O2 2.074814 1_555
Ni3 O34 2.084850 1_645
Ni3 O13 2.091761 1_555
Ni4 O9 1.930315 1_455
Ni4 O14 2.028916 1_555
Ni4 O15 2.074814 1_555
Ni4 O19 2.084850 1_455
Ni4 O4 2.091761 1_555
Ni5 O9 1.930315 1_555
Ni5 O14 2.028916 1_555
Ni5 O15 2.074814 1_555
Ni5 O18 2.084850 1_555
Ni5 O5 2.091761 1_555
Ni6 O9 1.990357 1_554
Ni6 O6 2.030522 1_555
Ni6 O16 2.078390 1_655
Ni6 O17 2.078390 1_555
Ni6 O20 2.176100 1_555
Ni7 O25 1.947118 1_555
Ni7 O8 1.974093 1_555
Ni7 O11 2.042013 1_555
Ni7 O12 2.115039 1_555
Ni7 O13 2.115039 1_455
Ni8 O10 1.947118 1_555
Ni8 O27 1.974093 1_555
Ni8 O24 2.042013 1_555
Ni8 O22 2.115039 1_655
Ni8 O23 2.115039 1_555
Ni9 O26 1.990357 1_556
Ni9 O29 2.030522 1_555
Ni9 O18 2.078390 1_555
Ni9 O19 2.078390 1_455
Ni9 O15 2.176100 1_555
Ni10 O26 1.930315 1_555
Ni10 O21 2.028916 1_555
Ni10 O20 2.074814 1_555
Ni10 O17 2.084850 1_555
Ni10 O30 2.091761 1_555
Ni11 O26 1.930315 1_655
Ni11 O21 2.028916 1_555
Ni11 O20 2.074814 1_555
Ni11 O16 2.084850 1_655
Ni11 O31 2.091761 1_555
Ni12 O27 1.930315 1_455
Ni12 O32 2.028916 1_555
Ni12 O33 2.074814 1_555
Ni12 O1 2.084850 1_465
Ni12 O22 2.091761 1_555
Ni13 O27 1.930315 1_555
Ni13 O32 2.028916 1_555
Ni13 O33 2.074814 1_555
Ni13 O0 2.084850 1_565
Ni13 O23 2.091761 1_555
Ni14 O27 1.990357 1_555
Ni14 O24 2.030522 1_555
Ni14 O35 2.078390 1_555
Ni14 O34 2.078390 1_655
Ni14 O2 2.176100 1_565
Ni15 O7 1.947118 1_565
Ni15 O26 1.974093 1_555
Ni15 O29 2.042013 1_554
Ni15 O31 2.115039 1_455
Ni15 O30 2.115039 1_555
O0 P1 1.560034 1_555
O1 P1 1.560034 1_555
O2 P1 1.606722 1_555
O3 P7 1.566935 1_545
O4 P0 1.553229 1_555
O5 P0 1.553229 1_555
O6 P7 1.549152 1_545
O7 P2 1.506353 1_555
O10 P1 1.506353 1_555
O11 P4 1.549152 1_555
O12 P3 1.553229 1_555
O13 P3 1.553229 1_555
O14 P4 1.566935 1_555
O15 P2 1.606722 1_556
O16 P2 1.560034 1_555
O17 P2 1.560034 1_555
O18 P5 1.560034 1_555
O19 P5 1.560034 1_555
O20 P5 1.606722 1_554
O21 P3 1.566935 1_555
O22 P4 1.553229 1_555
O23 P4 1.553229 1_555
O24 P3 1.549152 1_555
O25 P6 1.506353 1_555
O28 P5 1.506353 1_555
O29 P0 1.549152 1_565
O30 P7 1.553229 1_555
O31 P7 1.553229 1_555
O32 P0 1.566935 1_565
O33 P6 1.606722 1_555
O34 P6 1.560034 1_555
O35 P6 1.560034 1_555
