# generated using pymatgen
data_Li2CrO4
_symmetry_space_group_name_H-M   'P 1'
_cell_length_a   5.06825000
_cell_length_b   5.36152800
_cell_length_c   6.65923300
_cell_angle_alpha   90.00000000
_cell_angle_beta   90.00000000
_cell_angle_gamma   90.00000000
_symmetry_Int_Tables_number   1
_chemical_formula_structural   Li2CrO4
_chemical_formula_sum   'Li4 Cr2 O8'
_cell_volume   180.95509602
_cell_formula_units_Z   2
loop_
 _symmetry_equiv_pos_site_id
 _symmetry_equiv_pos_as_xyz
  1  'x, y, z'
loop_
 _atom_site_type_symbol
 _atom_site_label
 _atom_site_symmetry_multiplicity
 _atom_site_fract_x
 _atom_site_fract_y
 _atom_site_fract_z
 _atom_site_occupancy
  Li  Li0  1  0.99252600  0.32204100  0.24640400  1
  Li  Li1  1  0.49252600  0.67795900  0.25359600  1
  Li  Li2  1  0.49252600  0.67795900  0.74640400  1
  Li  Li3  1  0.99252600  0.32204100  0.75359600  1
  Cr  Cr0  1  0.00170600  0.82188000  0.00000000  1
  Cr  Cr1  1  0.50170600  0.17812000  0.50000000  1
  O  O0  1  0.91589000  0.12110600  0.00000000  1
  O  O1  1  0.32859400  0.79610100  0.00000000  1
  O  O2  1  0.88433000  0.67833100  0.20324800  1
  O  O3  1  0.38433000  0.32166900  0.29675200  1
  O  O4  1  0.82859400  0.20389900  0.50000000  1
  O  O5  1  0.41589000  0.87889400  0.50000000  1
  O  O6  1  0.38433000  0.32166900  0.70324800  1
  O  O7  1  0.88433000  0.67833100  0.79675200  1
loop_
_geom_bond_atom_site_label_1
_geom_bond_atom_site_label_2
_geom_bond_distance
_geom_bond_site_symmetry_2
Li0 O4 1.985806 1_555
Li0 O0 2.000976 1_555
Li0 O2 2.008079 1_555
Li0 O3 2.013867 1_655
Li1 O1 1.985806 1_555
Li1 O5 2.000976 1_555
Li1 O3 2.008079 1_555
Li1 O2 2.013867 1_555
Li2 O1 1.985806 1_556
Li2 O5 2.000976 1_555
Li2 O6 2.008079 1_555
Li2 O7 2.013867 1_555
Li3 O4 1.985806 1_555
Li3 O0 2.000976 1_556
Li3 O7 2.008079 1_555
Li3 O6 2.013867 1_655
Cr0 O0 1.662220 1_465
Cr0 O1 1.662505 1_555
Cr0 O2 1.666776 1_455
Cr0 O7 1.666776 1_454
Cr1 O5 1.662220 1_545
Cr1 O4 1.662505 1_555
Cr1 O6 1.666776 1_555
Cr1 O3 1.666776 1_555
