# generated using pymatgen
data_Li2V3FeO8
_symmetry_space_group_name_H-M   'P 1'
_cell_length_a   5.95026386
_cell_length_b   5.95026386
_cell_length_c   5.95026338
_cell_angle_alpha   59.89224508
_cell_angle_beta   59.89224508
_cell_angle_gamma   59.89224568
_symmetry_Int_Tables_number   1
_chemical_formula_structural   Li2V3FeO8
_chemical_formula_sum   'Li2 V3 Fe1 O8'
_cell_volume   148.60403870
_cell_formula_units_Z   1
loop_
 _symmetry_equiv_pos_site_id
 _symmetry_equiv_pos_as_xyz
  1  'x, y, z'
loop_
 _atom_site_type_symbol
 _atom_site_label
 _atom_site_symmetry_multiplicity
 _atom_site_fract_x
 _atom_site_fract_y
 _atom_site_fract_z
 _atom_site_occupancy
  Li  Li0  1  0.12101800  0.12101800  0.12101800  1
  Li  Li1  1  0.50061000  0.50061000  0.50061000  1
  V  V0  1  0.49596000  0.01436000  0.49596000  1
  V  V1  1  0.01436000  0.49596000  0.49596000  1
  V  V2  1  0.49596000  0.49596000  0.01436000  1
  Fe  Fe0  1  0.87989400  0.87989400  0.87989400  1
  O  O0  1  0.25815900  0.25815900  0.25815900  1
  O  O1  1  0.24947900  0.24947900  0.71481700  1
  O  O2  1  0.71481700  0.24947900  0.24947900  1
  O  O3  1  0.24947900  0.71481700  0.24947900  1
  O  O4  1  0.75006700  0.27481100  0.75006700  1
  O  O5  1  0.27481100  0.75006700  0.75006700  1
  O  O6  1  0.75006700  0.75006700  0.27481100  1
  O  O7  1  0.74532000  0.74532000  0.74532000  1
loop_
_geom_bond_atom_site_label_1
_geom_bond_atom_site_label_2
_geom_bond_distance
_geom_bond_site_symmetry_2
Li0 O1 1.972204 1_554
Li0 O3 1.972204 1_545
Li0 O2 1.972204 1_455
Li0 O0 2.000471 1_555
Li1 O4 2.102500 1_555
Li1 O5 2.102500 1_555
Li1 O6 2.102500 1_555
Li1 O3 2.123436 1_555
Li1 O2 2.123436 1_555
Li1 O1 2.123436 1_555
Fe0 O6 1.916168 1_556
Fe0 O5 1.916168 1_655
Fe0 O4 1.916168 1_565
Fe0 O7 1.963027 1_555
O0 V1 1.999689 1_555
O0 V0 1.999689 1_555
O0 V2 1.999689 1_555
O1 V0 1.912401 1_555
O1 V1 1.912401 1_555
O2 V2 1.912401 1_555
O2 V0 1.912401 1_555
O3 V2 1.912401 1_555
O3 V1 1.912401 1_555
O4 V2 2.045806 1_556
O4 V1 2.045806 1_655
O5 V2 2.045806 1_556
O5 V0 2.045806 1_565
O6 V1 2.045806 1_655
O6 V0 2.045806 1_565
O7 V1 2.099640 1_655
O7 V0 2.099640 1_565
O7 V2 2.099640 1_556
