# generated using pymatgen
data_Li12VCr3P4(CO7)4
_symmetry_space_group_name_H-M   'P 1'
_cell_length_a   6.48831300
_cell_length_b   8.60011900
_cell_length_c   10.01045261
_cell_angle_alpha   85.45602644
_cell_angle_beta   90.00000000
_cell_angle_gamma   90.00000000
_symmetry_Int_Tables_number   1
_chemical_formula_structural   Li12VCr3P4(CO7)4
_chemical_formula_sum   'Li12 V1 Cr3 P4 C4 O28'
_cell_volume   556.83016395
_cell_formula_units_Z   1
loop_
 _symmetry_equiv_pos_site_id
 _symmetry_equiv_pos_as_xyz
  1  'x, y, z'
loop_
 _atom_site_type_symbol
 _atom_site_label
 _atom_site_symmetry_multiplicity
 _atom_site_fract_x
 _atom_site_fract_y
 _atom_site_fract_z
 _atom_site_occupancy
  Li  Li0  1  0.00000000  0.91021500  0.62063600  1
  Li  Li1  1  0.00000000  0.90833900  0.11983400  1
  Li  Li2  1  0.22455400  0.72614400  0.87648000  1
  Li  Li3  1  0.77544600  0.72614400  0.87648000  1
  Li  Li4  1  0.22515700  0.72514500  0.37620300  1
  Li  Li5  1  0.77484300  0.72514500  0.37620300  1
  Li  Li6  1  0.72172100  0.27400000  0.62302300  1
  Li  Li7  1  0.27827900  0.27400000  0.62302300  1
  Li  Li8  1  0.72321300  0.27469000  0.12426600  1
  Li  Li9  1  0.27678700  0.27469000  0.12426600  1
  Li  Li10  1  0.50000000  0.09239000  0.87917200  1
  Li  Li11  1  0.50000000  0.09418000  0.37933700  1
  V  V0  1  0.00000000  0.32978700  0.39626700  1
  Cr  Cr0  1  0.50000000  0.66484100  0.60725600  1
  Cr  Cr1  1  0.50000000  0.66411100  0.10885400  1
  Cr  Cr2  1  0.00000000  0.33473300  0.89207100  1
  P  P0  1  0.00000000  0.58876300  0.64085700  1
  P  P1  1  0.00000000  0.58679900  0.14279100  1
  P  P2  1  0.50000000  0.41107600  0.85831600  1
  P  P3  1  0.50000000  0.41003200  0.35928500  1
  C  C0  1  0.50000000  0.96870700  0.64709600  1
  C  C1  1  0.50000000  0.96885400  0.14748500  1
  C  C2  1  0.00000000  0.03162000  0.85168000  1
  C  C3  1  0.00000000  0.03521200  0.35046700  1
  O  O0  1  0.50000000  0.93583400  0.52373100  1
  O  O1  1  0.00000000  0.88645000  0.82206900  1
  O  O2  1  0.50000000  0.93496800  0.02384600  1
  O  O3  1  0.50000000  0.85459000  0.74197100  1
  O  O4  1  0.00000000  0.88992300  0.32281500  1
  O  O5  1  0.50000000  0.85547300  0.24263300  1
  O  O6  1  0.18704600  0.68906900  0.58642600  1
  O  O7  1  0.81295400  0.68906900  0.58642600  1
  O  O8  1  0.18638100  0.68792700  0.08844700  1
  O  O9  1  0.81361900  0.68792700  0.08844700  1
  O  O10  1  0.50000000  0.57821100  0.90545900  1
  O  O11  1  0.00000000  0.57681300  0.79635200  1
  O  O12  1  0.50000000  0.57788800  0.40595300  1
  O  O13  1  0.00000000  0.57241100  0.29939200  1
  O  O14  1  0.50000000  0.42065700  0.70270600  1
  O  O15  1  0.00000000  0.42303700  0.59135800  1
  O  O16  1  0.50000000  0.42135000  0.20339500  1
  O  O17  1  0.00000000  0.42138600  0.09420000  1
  O  O18  1  0.31295900  0.31181500  0.91372100  1
  O  O19  1  0.68704100  0.31181500  0.91372100  1
  O  O20  1  0.68432200  0.30974300  0.41503100  1
  O  O21  1  0.31567800  0.30974300  0.41503100  1
  O  O22  1  0.00000000  0.14235100  0.75504600  1
  O  O23  1  0.50000000  0.11172400  0.67976100  1
  O  O24  1  0.00000000  0.14626700  0.25435400  1
  O  O25  1  0.00000000  0.06697800  0.97451900  1
  O  O26  1  0.50000000  0.11216300  0.17911800  1
  O  O27  1  0.00000000  0.07480100  0.47272400  1
loop_
_geom_bond_atom_site_label_1
_geom_bond_atom_site_label_2
_geom_bond_distance
_geom_bond_site_symmetry_2
Li0 O27 1.965659 1_565
Li0 O1 2.010593 1_555
Li0 O6 2.304450 1_555
Li0 O7 2.304450 1_455
Li0 O22 2.494314 1_565
Li1 O25 1.913885 1_564
Li1 O4 2.025547 1_555
Li1 O8 2.290999 1_555
Li1 O9 2.290999 1_455
Li1 O24 2.537107 1_565
Li2 O1 2.049671 1_555
Li2 O8 2.135712 1_556
Li2 O11 2.139797 1_555
Li2 O10 2.199610 1_555
Li2 O3 2.447783 1_555
Li3 O1 2.049671 1_655
Li3 O9 2.135712 1_556
Li3 O11 2.139797 1_655
Li3 O10 2.199610 1_555
Li3 O3 2.447783 1_555
Li4 O4 2.075577 1_555
Li4 O6 2.117207 1_555
Li4 O13 2.147282 1_555
Li4 O12 2.193813 1_555
Li4 O5 2.446770 1_555
Li5 O4 2.075577 1_655
Li5 O7 2.117207 1_555
Li5 O13 2.147282 1_655
Li5 O12 2.193813 1_555
Li5 O5 2.446770 1_555
Li6 O23 2.052860 1_555
Li6 O20 2.094535 1_555
Li6 O14 2.110931 1_555
Li6 O15 2.222386 1_655
Li6 O22 2.459977 1_655
Li7 O23 2.052860 1_555
Li7 O21 2.094535 1_555
Li7 O14 2.110931 1_555
Li7 O15 2.222386 1_555
Li7 O22 2.459977 1_555
Li8 O26 2.056966 1_555
Li8 O16 2.115211 1_555
Li8 O19 2.119573 1_554
Li8 O17 2.201647 1_655
Li8 O24 2.431654 1_655
Li9 O26 2.056966 1_555
Li9 O16 2.115211 1_555
Li9 O18 2.119573 1_554
Li9 O17 2.201647 1_555
Li9 O24 2.431654 1_555
Li10 O2 1.902542 1_546
Li10 O23 1.989937 1_555
Li10 O18 2.292788 1_555
Li10 O19 2.292788 1_555
Li10 O3 2.552229 1_545
Li11 O0 1.905759 1_545
Li11 O26 1.997987 1_555
Li11 O20 2.258257 1_555
Li11 O21 2.258257 1_555
Li11 O5 2.555832 1_545
Cr0 O7 2.050151 1_555
Cr0 O6 2.050151 1_555
Cr0 O3 2.197790 1_555
Cr0 O12 2.204257 1_555
Cr0 O14 2.237205 1_555
Cr0 O0 2.412863 1_555
Cr1 O8 2.053704 1_555
Cr1 O9 2.053704 1_555
Cr1 O5 2.202518 1_555
Cr1 O10 2.220290 1_554
Cr1 O16 2.222925 1_555
Cr1 O2 2.415819 1_555
Cr2 O19 2.049948 1_455
Cr2 O18 2.049948 1_555
Cr2 O17 2.210983 1_556
Cr2 O11 2.221806 1_555
Cr2 O22 2.231256 1_555
Cr2 O25 2.383819 1_555
C0 O0 1.288534 1_555
C0 O23 1.297482 1_565
C0 O3 1.310536 1_555
C1 O2 1.293807 1_555
C1 O26 1.296575 1_565
C1 O5 1.307995 1_555
C2 O25 1.289888 1_555
C2 O22 1.302566 1_555
C2 O1 1.305834 1_545
C3 O27 1.296050 1_555
C3 O24 1.300881 1_555
C3 O4 1.301032 1_545
O6 P0 1.561866 1_555
O7 P0 1.561866 1_655
O8 P1 1.561980 1_555
O9 P1 1.561980 1_655
O10 P2 1.547984 1_555
O11 P0 1.551819 1_555
O12 P3 1.552105 1_555
O13 P1 1.562720 1_555
O13 V0 2.230179 1_555
O14 P2 1.553372 1_555
O15 P0 1.545576 1_555
O15 V0 2.169173 1_555
O16 P3 1.555847 1_555
O17 P1 1.539465 1_555
O18 P2 1.560161 1_555
O19 P2 1.560161 1_555
O20 P3 1.552198 1_555
O20 V0 2.062780 1_655
O21 P3 1.552198 1_555
O21 V0 2.062780 1_555
O24 V0 2.205543 1_555
O27 V0 2.264665 1_555
