# generated using pymatgen
data_Ti3Mn2Sn(PO4)6
_symmetry_space_group_name_H-M   'P 1'
_cell_length_a   8.70212029
_cell_length_b   8.70212029
_cell_length_c   8.70212047
_cell_angle_alpha   60.27583243
_cell_angle_beta   60.27583243
_cell_angle_gamma   60.27583266
_symmetry_Int_Tables_number   1
_chemical_formula_structural   Ti3Mn2Sn(PO4)6
_chemical_formula_sum   'Ti3 Mn2 Sn1 P6 O24'
_cell_volume   468.88146211
_cell_formula_units_Z   1
loop_
 _symmetry_equiv_pos_site_id
 _symmetry_equiv_pos_as_xyz
  1  'x, y, z'
loop_
 _atom_site_type_symbol
 _atom_site_label
 _atom_site_symmetry_multiplicity
 _atom_site_fract_x
 _atom_site_fract_y
 _atom_site_fract_z
 _atom_site_occupancy
  Ti  Ti0  1  0.85515800  0.85515800  0.85515800  1
  Ti  Ti1  1  0.64508300  0.64508300  0.64508300  1
  Ti  Ti2  1  0.35663600  0.35663600  0.35663600  1
  Mn  Mn0  1  0.99510000  0.99510000  0.99510000  1
  Mn  Mn1  1  0.50003200  0.50003200  0.50003200  1
  Sn  Sn0  1  0.14473400  0.14473400  0.14473400  1
  P  P0  1  0.95515500  0.25258900  0.54570200  1
  P  P1  1  0.04265000  0.74914100  0.45854600  1
  P  P2  1  0.74914100  0.45854600  0.04265000  1
  P  P3  1  0.45854600  0.04265000  0.74914100  1
  P  P4  1  0.54570200  0.95515500  0.25258900  1
  P  P5  1  0.25258900  0.54570200  0.95515500  1
  O  O0  1  0.49769300  0.88381200  0.69007200  1
  O  O1  1  0.88381200  0.69007200  0.49769300  1
  O  O2  1  0.73605200  0.93976100  0.08829600  1
  O  O3  1  0.69007200  0.49769300  0.88381200  1
  O  O4  1  0.39055200  0.98456500  0.19329100  1
  O  O5  1  0.56357000  0.76309100  0.41406600  1
  O  O6  1  0.08829600  0.73605200  0.93976100  1
  O  O7  1  0.41406600  0.56357000  0.76309100  1
  O  O8  1  0.00270600  0.81278100  0.61437500  1
  O  O9  1  0.76309100  0.41406600  0.56357000  1
  O  O10  1  0.05677900  0.91166900  0.26318000  1
  O  O11  1  0.81278100  0.61437500  0.00270600  1
  O  O12  1  0.19329100  0.39055200  0.98456500  1
  O  O13  1  0.93976100  0.08829600  0.73605200  1
  O  O14  1  0.23508200  0.58875900  0.44084300  1
  O  O15  1  0.98456500  0.19329100  0.39055200  1
  O  O16  1  0.58875900  0.44084300  0.23508200  1
  O  O17  1  0.91166900  0.26318000  0.05677900  1
  O  O18  1  0.44084300  0.23508200  0.58875900  1
  O  O19  1  0.61437500  0.00270600  0.81278100  1
  O  O20  1  0.31013200  0.50216900  0.11617700  1
  O  O21  1  0.26318000  0.05677900  0.91166900  1
  O  O22  1  0.11617700  0.31013200  0.50216900  1
  O  O23  1  0.50216900  0.11617700  0.31013200  1
loop_
_geom_bond_atom_site_label_1
_geom_bond_atom_site_label_2
_geom_bond_distance
_geom_bond_site_symmetry_2
Mn0 O2 2.201732 1_556
Mn0 O6 2.201732 1_655
Mn0 O13 2.201732 1_565
Mn0 O21 2.330907 1_665
Mn0 O17 2.330907 1_566
Mn0 O10 2.330907 1_656
Mn1 O18 2.279320 1_555
Mn1 O14 2.279320 1_555
Mn1 O16 2.279320 1_555
Mn1 O5 2.291818 1_555
Mn1 O9 2.291818 1_555
Mn1 O7 2.291818 1_555
O0 P3 1.534538 1_565
O0 Ti1 1.944332 1_555
O1 P1 1.534538 1_655
O1 Ti1 1.944332 1_555
O2 P4 1.557958 1_555
O2 Ti0 2.090826 1_554
O3 P2 1.534538 1_556
O3 Ti1 1.944332 1_555
O4 P4 1.540097 1_555
O4 Sn0 2.013161 1_565
O5 P4 1.556336 1_555
O5 Ti1 2.060027 1_555
O6 P5 1.557958 1_555
O6 Ti0 2.090826 1_455
O7 P5 1.556336 1_555
O7 Ti1 2.060027 1_555
O8 P1 1.533874 1_555
O8 Ti0 1.950330 1_455
O9 P0 1.556336 1_555
O9 Ti1 2.060027 1_555
O10 P1 1.576872 1_555
O10 Sn0 2.108480 1_565
O11 P2 1.533874 1_555
O11 Ti0 1.950329 1_554
O12 P5 1.540097 1_555
O12 Sn0 2.013161 1_556
O13 P0 1.557958 1_555
O13 Ti0 2.090826 1_545
O14 P1 1.554207 1_555
O14 Ti2 2.077609 1_555
O15 P0 1.540097 1_555
O15 Sn0 2.013161 1_655
O16 P2 1.554207 1_555
O16 Ti2 2.077609 1_555
O17 P2 1.576872 1_555
O17 Sn0 2.108480 1_655
O18 P3 1.554207 1_555
O18 Ti2 2.077609 1_555
O19 P3 1.533874 1_555
O19 Ti0 1.950329 1_545
O20 P5 1.529381 1_554
O20 Ti2 1.962093 1_555
O21 P3 1.576872 1_555
O21 Sn0 2.108480 1_556
O22 P0 1.529381 1_455
O22 Ti2 1.962093 1_555
O23 P4 1.529381 1_545
O23 Ti2 1.962093 1_555
