# generated using pymatgen
data_CaAs2H6F18
_symmetry_space_group_name_H-M   'P 1'
_cell_length_a   15.13080100
_cell_length_b   9.70463700
_cell_length_c   9.81053048
_cell_angle_alpha   71.50798739
_cell_angle_beta   90.00000000
_cell_angle_gamma   90.00000000
_symmetry_Int_Tables_number   1
_chemical_formula_structural   CaAs2H6F18
_chemical_formula_sum   'Ca4 As8 H24 F72'
_cell_volume   1366.18824140
_cell_formula_units_Z   4
loop_
 _symmetry_equiv_pos_site_id
 _symmetry_equiv_pos_as_xyz
  1  'x, y, z'
loop_
 _atom_site_type_symbol
 _atom_site_label
 _atom_site_symmetry_multiplicity
 _atom_site_fract_x
 _atom_site_fract_y
 _atom_site_fract_z
 _atom_site_occupancy
  Ca  Ca0  1  0.00780600  0.29741500  0.30947300  1
  Ca  Ca1  1  0.49219400  0.79741500  0.30947300  1
  Ca  Ca2  1  0.50780600  0.20258500  0.69052700  1
  Ca  Ca3  1  0.99219400  0.70258500  0.69052700  1
  As  As0  1  0.67773400  0.41612800  0.10008100  1
  As  As1  1  0.82226600  0.91612800  0.10008100  1
  As  As2  1  0.35024800  0.12310300  0.38750300  1
  As  As3  1  0.14975200  0.62310300  0.38750300  1
  As  As4  1  0.85024800  0.37689700  0.61249700  1
  As  As5  1  0.64975200  0.87689700  0.61249700  1
  As  As6  1  0.17773400  0.08387200  0.89991900  1
  As  As7  1  0.32226600  0.58387200  0.89991900  1
  H  H0  1  0.51973600  0.10896200  0.09295400  1
  H  H1  1  0.94712100  0.16205000  0.07406400  1
  H  H2  1  0.14707400  0.29415800  0.09448200  1
  H  H3  1  0.98026400  0.60896200  0.09295400  1
  H  H4  1  0.55287900  0.66205000  0.07406400  1
  H  H5  1  0.35292600  0.79415800  0.09448200  1
  H  H6  1  0.60061400  0.30964600  0.37521200  1
  H  H7  1  0.84010900  0.16296900  0.45607500  1
  H  H8  1  0.48781700  0.47276900  0.34539000  1
  H  H9  1  0.98781700  0.02723100  0.65461000  1
  H  H10  1  0.34010900  0.33703100  0.54392500  1
  H  H11  1  0.89938600  0.80964600  0.37521200  1
  H  H12  1  0.10061400  0.19035400  0.62478800  1
  H  H13  1  0.65989100  0.66296900  0.45607500  1
  H  H14  1  0.01218300  0.97276900  0.34539000  1
  H  H15  1  0.51218300  0.52723100  0.65461000  1
  H  H16  1  0.15989100  0.83703100  0.54392500  1
  H  H17  1  0.39938600  0.69035400  0.62478800  1
  H  H18  1  0.64707400  0.20584200  0.90551800  1
  H  H19  1  0.44712100  0.33795000  0.92593600  1
  H  H20  1  0.01973600  0.39103800  0.90704600  1
  H  H21  1  0.85292600  0.70584200  0.90551800  1
  H  H22  1  0.05287900  0.83795000  0.92593600  1
  H  H23  1  0.48026400  0.89103800  0.90704600  1
  F  F0  1  0.62419000  0.30122000  0.01233300  1
  F  F1  1  0.96123400  0.26138500  0.07025800  1
  F  F2  1  0.54598000  0.02028800  0.15028900  1
  F  F3  1  0.77834200  0.33572800  0.08555900  1
  F  F4  1  0.77635900  0.01682900  0.20085200  1
  F  F5  1  0.31195000  0.44489800  0.06244300  1
  F  F6  1  0.87581000  0.80122000  0.01233300  1
  F  F7  1  0.56851800  0.48945000  0.11875200  1
  F  F8  1  0.28584300  0.13103000  0.23858500  1
  F  F9  1  0.13118900  0.34951300  0.15693000  1
  F  F10  1  0.05029800  0.05647400  0.31673600  1
  F  F11  1  0.53876600  0.76138500  0.07025800  1
  F  F12  1  0.65240200  0.27251900  0.26930300  1
  F  F13  1  0.95402000  0.52028800  0.15028900  1
  F  F14  1  0.43629600  0.21926200  0.27721800  1
  F  F15  1  0.72165800  0.83572800  0.08555900  1
  F  F16  1  0.72364100  0.51682900  0.20085200  1
  F  F17  1  0.18805000  0.94489800  0.06244300  1
  F  F18  1  0.87963600  0.15223900  0.38234900  1
  F  F19  1  0.93148200  0.98945000  0.11875200  1
  F  F20  1  0.21415700  0.63103000  0.23858500  1
  F  F21  1  0.36881100  0.84951300  0.15693000  1
  F  F22  1  0.30665700  0.28903600  0.40490800  1
  F  F23  1  0.44970200  0.55647400  0.31673600  1
  F  F24  1  0.84759800  0.77251900  0.26930300  1
  F  F25  1  0.26918300  0.02506300  0.50528000  1
  F  F26  1  0.06370400  0.71926200  0.27721800  1
  F  F27  1  0.09975100  0.45423800  0.38623700  1
  F  F28  1  0.41979000  0.11007000  0.54184500  1
  F  F29  1  0.62036400  0.65223900  0.38234900  1
  F  F30  1  0.06064800  0.15988700  0.55776900  1
  F  F31  1  0.56064800  0.34011300  0.44223100  1
  F  F32  1  0.91979000  0.38993000  0.45815500  1
  F  F33  1  0.59975100  0.04576200  0.61376300  1
  F  F34  1  0.19334300  0.78903600  0.40490800  1
  F  F35  1  0.76918300  0.47493700  0.49472000  1
  F  F36  1  0.23081700  0.52506300  0.50528000  1
  F  F37  1  0.80665700  0.21096400  0.59509200  1
  F  F38  1  0.40024900  0.95423800  0.38623700  1
  F  F39  1  0.08021000  0.61007000  0.54184500  1
  F  F40  1  0.43935200  0.65988700  0.55776900  1
  F  F41  1  0.93935200  0.84011300  0.44223100  1
  F  F42  1  0.37963600  0.34776100  0.61765100  1
  F  F43  1  0.58021000  0.88993000  0.45815500  1
  F  F44  1  0.90024900  0.54576200  0.61376300  1
  F  F45  1  0.93629600  0.28073800  0.72278200  1
  F  F46  1  0.73081700  0.97493700  0.49472000  1
  F  F47  1  0.15240200  0.22748100  0.73069700  1
  F  F48  1  0.55029800  0.44352600  0.68326400  1
  F  F49  1  0.69334300  0.71096400  0.59509200  1
  F  F50  1  0.63118800  0.15048700  0.84307000  1
  F  F51  1  0.78584300  0.36897000  0.76141500  1
  F  F52  1  0.06851800  0.01055000  0.88124800  1
  F  F53  1  0.12036400  0.84776100  0.61765100  1
  F  F54  1  0.81195000  0.05510200  0.93755700  1
  F  F55  1  0.27635900  0.48317100  0.79914800  1
  F  F56  1  0.27834200  0.16427200  0.91444100  1
  F  F57  1  0.56370400  0.78073800  0.72278200  1
  F  F58  1  0.04598000  0.47971200  0.84971100  1
  F  F59  1  0.34759800  0.72748100  0.73069700  1
  F  F60  1  0.46123400  0.23861500  0.92974200  1
  F  F61  1  0.94970200  0.94352600  0.68326400  1
  F  F62  1  0.86881100  0.65048700  0.84307000  1
  F  F63  1  0.71415700  0.86897000  0.76141500  1
  F  F64  1  0.43148200  0.51055000  0.88124800  1
  F  F65  1  0.12419000  0.19878000  0.98766700  1
  F  F66  1  0.68805000  0.55510200  0.93755700  1
  F  F67  1  0.22364100  0.98317100  0.79914800  1
  F  F68  1  0.22165800  0.66427200  0.91444100  1
  F  F69  1  0.45402000  0.97971200  0.84971100  1
  F  F70  1  0.03876600  0.73861500  0.92974200  1
  F  F71  1  0.37581000  0.69878000  0.98766700  1
loop_
_geom_bond_atom_site_label_1
_geom_bond_atom_site_label_2
_geom_bond_distance
_geom_bond_site_symmetry_2
Ca0 F9 2.345316 1_555
Ca0 F32 2.353308 1_455
Ca0 F27 2.354964 1_555
Ca0 F18 2.370249 1_455
Ca0 F13 2.374160 1_455
Ca0 F10 2.404194 1_555
Ca0 F30 2.508373 1_555
Ca0 F1 2.578168 1_455
Ca1 F21 2.345316 1_555
Ca1 F43 2.353308 1_555
Ca1 F38 2.354964 1_555
Ca1 F29 2.370249 1_555
Ca1 F2 2.374160 1_565
Ca1 F23 2.404194 1_555
Ca1 F40 2.508373 1_555
Ca1 F11 2.578168 1_555
Ca2 F50 2.345304 1_555
Ca2 F28 2.353308 1_555
Ca2 F33 2.354964 1_555
Ca2 F42 2.370249 1_555
Ca2 F69 2.374160 1_545
Ca2 F48 2.404194 1_555
Ca2 F31 2.508373 1_555
Ca2 F60 2.578168 1_555
Ca3 F62 2.345316 1_555
Ca3 F39 2.353308 1_655
Ca3 F44 2.354964 1_555
Ca3 F53 2.370249 1_655
Ca3 F58 2.374160 1_655
Ca3 F61 2.404194 1_555
Ca3 F41 2.508373 1_555
Ca3 F70 2.578168 1_655
As0 F3 1.736935 1_555
As0 F66 1.738243 1_554
As0 F16 1.740047 1_555
As0 F0 1.802756 1_555
As0 F7 1.831228 1_555
As0 F12 1.837843 1_555
As1 F15 1.736935 1_555
As1 F54 1.738243 1_564
As1 F4 1.740047 1_565
As1 F6 1.802756 1_555
As1 F19 1.831228 1_555
As1 F24 1.837843 1_555
As2 F8 1.737438 1_555
As2 F25 1.745694 1_555
As2 F14 1.759582 1_555
As2 F22 1.797703 1_555
As2 F38 1.808596 1_545
As2 F28 1.815055 1_555
As3 F20 1.737438 1_555
As3 F36 1.745694 1_555
As3 F26 1.759582 1_555
As3 F34 1.797703 1_555
As3 F27 1.808596 1_555
As3 F39 1.815055 1_555
As4 F51 1.737438 1_555
As4 F35 1.745694 1_555
As4 F45 1.759582 1_555
As4 F37 1.797703 1_555
As4 F44 1.808596 1_555
As4 F32 1.815055 1_555
As5 F63 1.737438 1_555
As5 F46 1.745694 1_555
As5 F57 1.759582 1_555
As5 F49 1.797703 1_555
As5 F33 1.808596 1_565
As5 F43 1.815055 1_555
As6 F56 1.736935 1_555
As6 F17 1.738243 1_546
As6 F67 1.740047 1_545
As6 F65 1.802756 1_555
As6 F52 1.831228 1_555
As6 F47 1.837843 1_555
As7 F68 1.736935 1_555
As7 F5 1.738243 1_556
As7 F55 1.740047 1_555
As7 F71 1.802756 1_555
As7 F64 1.831228 1_555
As7 F59 1.837843 1_555
F0 H18 1.640137 1_554
F1 H1 0.976461 1_555
F2 H0 0.952662 1_555
F6 H21 1.640137 1_554
F7 H4 1.608745 1_555
F9 H2 0.964605 1_555
F10 H14 0.962620 1_545
F11 H4 0.976461 1_555
F12 H6 1.435578 1_555
F13 H3 0.952662 1_555
F18 H7 0.969260 1_555
F19 H1 1.608745 1_565
F21 H5 0.964605 1_555
F22 H10 1.654126 1_555
F23 H8 0.962620 1_555
F24 H11 1.435578 1_555
F29 H13 0.969260 1_555
F30 H12 1.004350 1_555
F31 H6 1.004350 1_555
F34 H16 1.654126 1_555
F37 H7 1.654126 1_555
F40 H17 1.004350 1_555
F41 H11 1.004350 1_555
F42 H10 0.969260 1_555
F47 H12 1.435578 1_555
F48 H15 0.962620 1_555
F49 H13 1.654126 1_555
F50 H18 0.964609 1_555
F52 H22 1.608745 1_545
F53 H16 0.969260 1_555
F58 H20 0.952662 1_555
F59 H17 1.435578 1_555
F60 H19 0.976461 1_555
F61 H9 0.962620 1_565
F62 H21 0.964605 1_555
F64 H19 1.608745 1_555
F65 H2 1.640137 1_556
F69 H23 0.952662 1_555
F70 H22 0.976461 1_555
F71 H5 1.640137 1_556
