# generated using pymatgen
data_Na3Mn2P2(CO7)2
_symmetry_space_group_name_H-M   'P 1'
_cell_length_a   5.18667300
_cell_length_b   6.58318525
_cell_length_c   8.92424616
_cell_angle_alpha   91.14345315
_cell_angle_beta   91.45100036
_cell_angle_gamma   90.37665768
_symmetry_Int_Tables_number   1
_chemical_formula_structural   Na3Mn2P2(CO7)2
_chemical_formula_sum   'Na3 Mn2 P2 C2 O14'
_cell_volume   304.55085221
_cell_formula_units_Z   1
loop_
 _symmetry_equiv_pos_site_id
 _symmetry_equiv_pos_as_xyz
  1  'x, y, z'
loop_
 _atom_site_type_symbol
 _atom_site_label
 _atom_site_symmetry_multiplicity
 _atom_site_fract_x
 _atom_site_fract_y
 _atom_site_fract_z
 _atom_site_occupancy
  Na  Na0  1  0.24121900  0.48069700  0.75682800  1
  Na  Na1  1  0.75674000  0.50721000  0.24154900  1
  Na  Na2  1  0.75380100  0.98972600  0.23902800  1
  Mn  Mn0  1  0.78868600  0.76262700  0.65682700  1
  Mn  Mn1  1  0.21760400  0.24977700  0.34975200  1
  P  P0  1  0.71188900  0.25329100  0.57673200  1
  P  P1  1  0.28646200  0.75041500  0.42778600  1
  C  C0  1  0.73120500  0.74787500  0.92543200  1
  C  C1  1  0.26832300  0.24733700  0.07509400  1
  O  O0  1  0.28886100  0.25324600  0.93824200  1
  O  O1  1  0.95585100  0.75386800  0.86106300  1
  O  O2  1  0.53942900  0.74996600  0.82639100  1
  O  O3  1  0.77759100  0.06724600  0.67011500  1
  O  O4  1  0.78672700  0.44322400  0.67345100  1
  O  O5  1  0.41650700  0.26365800  0.53627300  1
  O  O6  1  0.14117300  0.74409800  0.57574000  1
  O  O7  1  0.85460500  0.25112100  0.42451600  1
  O  O8  1  0.58537700  0.75153600  0.46265300  1
  O  O9  1  0.21884600  0.56302300  0.32561800  1
  O  O10  1  0.21527600  0.93670800  0.33249500  1
  O  O11  1  0.46494900  0.24543300  0.17357100  1
  O  O12  1  0.04640100  0.24409300  0.14607200  1
  O  O13  1  0.70390000  0.74172200  0.06391400  1
loop_
_geom_bond_atom_site_label_1
_geom_bond_atom_site_label_2
_geom_bond_distance
_geom_bond_site_symmetry_2
Na0 O0 2.237317 1_555
Na0 O2 2.406534 1_555
Na0 O6 2.443149 1_555
Na0 O4 2.463245 1_455
Na0 O1 2.515552 1_455
Na0 O5 2.595705 1_555
Na1 O13 2.247849 1_555
Na1 O11 2.346449 1_555
Na1 O7 2.417678 1_555
Na1 O12 2.454306 1_655
Na1 O9 2.515720 1_655
Na1 O8 2.692856 1_555
Na1 O9 2.930835 1_555
Na2 O13 2.246531 1_555
Na2 O11 2.334007 1_565
Na2 O7 2.409430 1_565
Na2 O12 2.425126 1_665
Na2 O10 2.543228 1_655
Na2 O8 2.720261 1_555
Mn0 O6 1.986803 1_655
Mn0 O1 2.000487 1_555
Mn0 O8 2.005364 1_555
Mn0 O3 2.007792 1_565
Mn0 O2 2.017642 1_555
Mn0 O4 2.110843 1_555
Mn1 O5 1.936265 1_555
Mn1 O12 2.002249 1_555
Mn1 O7 2.013362 1_455
Mn1 O11 2.054156 1_555
Mn1 O10 2.063603 1_545
Mn1 O9 2.077629 1_555
C0 O13 1.248921 1_556
C0 O1 1.312765 1_555
C0 O2 1.314130 1_555
C1 O0 1.229987 1_554
C1 O12 1.328048 1_555
C1 O11 1.329581 1_555
O3 P0 1.530535 1_555
O4 P0 1.546827 1_555
O5 P0 1.567337 1_555
O6 P1 1.537908 1_555
O7 P0 1.563236 1_555
O8 P1 1.573488 1_555
O9 P1 1.552226 1_555
O10 P1 1.547656 1_555
