# generated using pymatgen
data_Li4CrFe3O8
_symmetry_space_group_name_H-M   'P 1'
_cell_length_a   5.98892817
_cell_length_b   5.98892817
_cell_length_c   5.16863748
_cell_angle_alpha   73.24156127
_cell_angle_beta   73.24156127
_cell_angle_gamma   59.71770568
_symmetry_Int_Tables_number   1
_chemical_formula_structural   Li4CrFe3O8
_chemical_formula_sum   'Li4 Cr1 Fe3 O8'
_cell_volume   150.98241750
_cell_formula_units_Z   1
loop_
 _symmetry_equiv_pos_site_id
 _symmetry_equiv_pos_as_xyz
  1  'x, y, z'
loop_
 _atom_site_type_symbol
 _atom_site_label
 _atom_site_symmetry_multiplicity
 _atom_site_fract_x
 _atom_site_fract_y
 _atom_site_fract_z
 _atom_site_occupancy
  Li  Li0  1  0.00000000  0.50000000  0.00000000  1
  Li  Li1  1  0.50000000  0.00000000  0.00000000  1
  Li  Li2  1  0.24944700  0.24944700  0.50211700  1
  Li  Li3  1  0.75055300  0.75055300  0.49788300  1
  Cr  Cr0  1  0.00000000  0.00000000  0.00000000  1
  Fe  Fe0  1  0.50000000  0.50000000  0.00000000  1
  Fe  Fe1  1  0.24984500  0.75015500  0.50000000  1
  Fe  Fe2  1  0.75015500  0.24984500  0.50000000  1
  O  O0  1  0.36275800  0.86483000  0.75812700  1
  O  O1  1  0.86483000  0.36275800  0.75812700  1
  O  O2  1  0.11346200  0.11346200  0.25545000  1
  O  O3  1  0.38532700  0.38532700  0.74214700  1
  O  O4  1  0.88653800  0.88653800  0.74455000  1
  O  O5  1  0.13517000  0.63724200  0.24187300  1
  O  O6  1  0.61467300  0.61467300  0.25785300  1
  O  O7  1  0.63724200  0.13517000  0.24187300  1
loop_
_geom_bond_atom_site_label_1
_geom_bond_atom_site_label_2
_geom_bond_distance
_geom_bond_site_symmetry_2
Li0 O6 2.174670 1_455
Li0 O3 2.174670 1_554
Li0 O4 2.175391 1_454
Li0 O2 2.175391 1_555
Li0 O5 2.177383 1_555
Li0 O1 2.177383 1_454
Li1 O3 2.174670 1_554
Li1 O6 2.174670 1_545
Li1 O4 2.175391 1_544
Li1 O2 2.175391 1_555
Li1 O7 2.177383 1_555
Li1 O0 2.177383 1_544
Li2 O3 2.167004 1_555
Li2 O0 2.168170 1_545
Li2 O1 2.168170 1_455
Li2 O7 2.190417 1_555
Li2 O5 2.190417 1_555
Li2 O2 2.195086 1_555
Li3 O6 2.167004 1_555
Li3 O5 2.168170 1_655
Li3 O7 2.168170 1_565
Li3 O0 2.190417 1_555
Li3 O1 2.190417 1_555
Li3 O4 2.195086 1_555
Cr0 O2 2.041370 1_555
Cr0 O4 2.041370 1_444
Cr0 O0 2.044937 1_544
Cr0 O1 2.044937 1_454
Cr0 O7 2.044937 1_455
Cr0 O5 2.044937 1_545
Fe0 O5 2.053925 1_555
Fe0 O7 2.053925 1_555
Fe0 O0 2.053925 1_554
Fe0 O1 2.053925 1_554
Fe0 O6 2.061756 1_555
Fe0 O3 2.061756 1_554
Fe1 O2 2.053306 1_565
Fe1 O4 2.053306 1_455
Fe1 O3 2.054120 1_555
Fe1 O6 2.054120 1_555
Fe1 O5 2.055722 1_555
Fe1 O0 2.055722 1_555
Fe2 O2 2.053306 1_655
Fe2 O4 2.053306 1_545
Fe2 O3 2.054120 1_555
Fe2 O6 2.054120 1_555
Fe2 O1 2.055722 1_555
Fe2 O7 2.055722 1_555
