# generated using pymatgen
data_SrH3C3O7
_symmetry_space_group_name_H-M   'P 1'
_cell_length_a   17.04841100
_cell_length_b   5.80551900
_cell_length_c   8.06929771
_cell_angle_alpha   52.01934086
_cell_angle_beta   90.00000000
_cell_angle_gamma   90.00000000
_symmetry_Int_Tables_number   1
_chemical_formula_structural   SrH3C3O7
_chemical_formula_sum   'Sr4 H12 C12 O28'
_cell_volume   629.51681922
_cell_formula_units_Z   4
loop_
 _symmetry_equiv_pos_site_id
 _symmetry_equiv_pos_as_xyz
  1  'x, y, z'
loop_
 _atom_site_type_symbol
 _atom_site_label
 _atom_site_symmetry_multiplicity
 _atom_site_fract_x
 _atom_site_fract_y
 _atom_site_fract_z
 _atom_site_occupancy
  Sr  Sr0  1  0.08151900  0.85680000  0.37896500  1
  Sr  Sr1  1  0.41848100  0.85680000  0.87896500  1
  Sr  Sr2  1  0.91848100  0.14320000  0.62103500  1
  Sr  Sr3  1  0.58151900  0.14320000  0.12103500  1
  H  H0  1  0.43073700  0.24382400  0.28152500  1
  H  H1  1  0.06926300  0.24382400  0.78152500  1
  H  H2  1  0.56926300  0.75617600  0.71847500  1
  H  H3  1  0.93073700  0.75617600  0.21847500  1
  H  H4  1  0.39602500  0.17251900  0.12879100  1
  H  H5  1  0.10397500  0.17251900  0.62879100  1
  H  H6  1  0.60397500  0.82748100  0.87120900  1
  H  H7  1  0.89602500  0.82748100  0.37120900  1
  H  H8  1  0.25415900  0.35622800  0.64483200  1
  H  H9  1  0.24584100  0.35622800  0.14483200  1
  H  H10  1  0.74584100  0.64377200  0.35516800  1
  H  H11  1  0.75415900  0.64377200  0.85516800  1
  C  C0  1  0.26188500  0.94558800  0.12954100  1
  C  C1  1  0.23811500  0.94558800  0.62954100  1
  C  C2  1  0.73811500  0.05441200  0.87045900  1
  C  C3  1  0.76188500  0.05441200  0.37045900  1
  C  C4  1  0.98219000  0.50939500  0.08520500  1
  C  C5  1  0.51781000  0.50939500  0.58520500  1
  C  C6  1  0.01781000  0.49060500  0.91479500  1
  C  C7  1  0.48219000  0.49060500  0.41479500  1
  C  C8  1  0.22082400  0.68813800  0.15133800  1
  C  C9  1  0.27917600  0.68813800  0.65133800  1
  C  C10  1  0.77917600  0.31186200  0.84866200  1
  C  C11  1  0.72082400  0.31186200  0.34866200  1
  O  O0  1  0.26950600  0.54137400  0.11946600  1
  O  O1  1  0.23049400  0.54137400  0.61946600  1
  O  O2  1  0.73049400  0.45862600  0.88053400  1
  O  O3  1  0.76950600  0.45862600  0.38053400  1
  O  O4  1  0.21896800  0.07935400  0.17480400  1
  O  O5  1  0.28103200  0.07935400  0.67480400  1
  O  O6  1  0.78103200  0.92064600  0.82519600  1
  O  O7  1  0.71896800  0.92064600  0.32519600  1
  O  O8  1  0.93594300  0.71409100  0.35865500  1
  O  O9  1  0.56405700  0.71409100  0.85865500  1
  O  O10  1  0.06405700  0.28590900  0.64134500  1
  O  O11  1  0.43594300  0.28590900  0.14134500  1
  O  O12  1  0.99216200  0.29289700  0.27661200  1
  O  O13  1  0.50783800  0.29289700  0.77661200  1
  O  O14  1  0.00783800  0.70710300  0.72338800  1
  O  O15  1  0.49216200  0.70710300  0.22338800  1
  O  O16  1  0.33268100  0.99562300  0.07434000  1
  O  O17  1  0.16731900  0.99562300  0.57434000  1
  O  O18  1  0.66731900  0.00437700  0.92566000  1
  O  O19  1  0.83268100  0.00437700  0.42566000  1
  O  O20  1  0.94539700  0.74254200  0.01742900  1
  O  O21  1  0.55460300  0.74254200  0.51742900  1
  O  O22  1  0.05460300  0.25745800  0.98257100  1
  O  O23  1  0.44539700  0.25745800  0.48257100  1
  O  O24  1  0.15080500  0.63239200  0.19685400  1
  O  O25  1  0.34919500  0.63239200  0.69685400  1
  O  O26  1  0.84919500  0.36760800  0.80314600  1
  O  O27  1  0.65080500  0.36760800  0.30314600  1
loop_
_geom_bond_atom_site_label_1
_geom_bond_atom_site_label_2
_geom_bond_distance
_geom_bond_site_symmetry_2
H0 O11 1.003458 1_555
H0 O23 1.690749 1_555
H1 O10 1.003458 1_555
H1 O22 1.690749 1_555
H2 O9 1.003458 1_555
H2 O21 1.690749 1_555
H3 O8 1.003458 1_555
H3 O20 1.690749 1_555
H4 O11 0.994391 1_555
H5 O10 0.994391 1_555
H6 O9 0.994391 1_555
H7 O8 0.994391 1_555
H8 O1 1.043659 1_555
H8 O5 1.540662 1_555
H9 O0 1.043659 1_555
H9 O4 1.540662 1_555
H10 O3 1.043659 1_555
H10 O7 1.540662 1_555
H11 O2 1.043659 1_555
H11 O6 1.540662 1_555
C0 O16 1.257095 1_555
C0 O4 1.273152 1_565
C1 O17 1.257095 1_555
C1 O5 1.273152 1_565
C2 O18 1.257095 1_555
C2 O6 1.273152 1_545
C3 O19 1.257095 1_555
C3 O7 1.273152 1_545
C4 O12 1.266842 1_555
C4 O20 1.270248 1_555
C5 O13 1.266842 1_555
C5 O21 1.270248 1_555
C6 O14 1.266842 1_555
C6 O22 1.270248 1_555
C7 O15 1.266842 1_555
C7 O23 1.270248 1_555
C8 O24 1.232188 1_555
C8 O0 1.323118 1_555
C9 O25 1.232188 1_555
C9 O1 1.323118 1_555
C10 O26 1.232188 1_555
C10 O2 1.323118 1_555
C11 O27 1.232188 1_555
C11 O3 1.323118 1_555
O0 Sr1 3.032508 1_554
O1 Sr0 3.032508 1_555
O2 Sr3 3.032508 1_556
O3 Sr2 3.032508 1_555
O4 Sr0 2.693437 1_545
O5 Sr1 2.693437 1_545
O6 Sr2 2.693437 1_565
O7 Sr3 2.693437 1_565
O8 Sr2 2.630460 1_555
O8 Sr0 2.653284 1_655
O9 Sr3 2.630460 1_556
O9 Sr1 2.653284 1_555
O10 Sr0 2.630460 1_555
O10 Sr2 2.653284 1_455
O11 Sr1 2.630460 1_554
O11 Sr3 2.653284 1_555
O12 Sr0 2.615168 1_645
O12 Sr2 2.661694 1_555
O13 Sr1 2.615168 1_545
O13 Sr3 2.661694 1_556
O14 Sr2 2.615168 1_465
O14 Sr0 2.661694 1_555
O15 Sr3 2.615168 1_565
O15 Sr1 2.661694 1_554
O16 Sr1 2.615052 1_554
O17 Sr0 2.615052 1_555
O18 Sr3 2.615052 1_556
O19 Sr2 2.615052 1_555
O20 Sr2 2.587463 1_564
O21 Sr3 2.587463 1_565
O22 Sr0 2.587463 1_546
O23 Sr1 2.587463 1_545
O24 Sr0 2.758324 1_555
O25 Sr1 2.758324 1_555
O26 Sr2 2.758324 1_555
O27 Sr3 2.758324 1_555
