# generated using pymatgen
data_Li2Ni2BiO6
_symmetry_space_group_name_H-M   'P 1'
_cell_length_a   5.31023372
_cell_length_b   5.31023372
_cell_length_c   10.15965100
_cell_angle_alpha   90.00000000
_cell_angle_beta   90.00000000
_cell_angle_gamma   119.44264952
_symmetry_Int_Tables_number   1
_chemical_formula_structural   Li2Ni2BiO6
_chemical_formula_sum   'Li4 Ni4 Bi2 O12'
_cell_volume   249.48733130
_cell_formula_units_Z   2
loop_
 _symmetry_equiv_pos_site_id
 _symmetry_equiv_pos_as_xyz
  1  'x, y, z'
loop_
 _atom_site_type_symbol
 _atom_site_label
 _atom_site_symmetry_multiplicity
 _atom_site_fract_x
 _atom_site_fract_y
 _atom_site_fract_z
 _atom_site_occupancy
  Li  Li0  1  0.15476300  0.65476300  0.75000000  1
  Li  Li1  1  0.34523700  0.84523700  0.25000000  1
  Li  Li2  1  0.65476300  0.15476300  0.75000000  1
  Li  Li3  1  0.84523700  0.34523700  0.25000000  1
  Ni  Ni0  1  0.33497600  0.66502400  0.00000000  1
  Ni  Ni1  1  0.83497600  0.16502400  0.50000000  1
  Ni  Ni2  1  0.16502400  0.83497600  0.50000000  1
  Ni  Ni3  1  0.66502400  0.33497600  0.00000000  1
  Bi  Bi0  1  0.00000000  0.00000000  0.00000000  1
  Bi  Bi1  1  0.50000000  0.50000000  0.50000000  1
  O  O0  1  0.15190700  0.15190700  0.60062300  1
  O  O1  1  0.34809300  0.34809300  0.10062300  1
  O  O2  1  0.65190700  0.65190700  0.89937700  1
  O  O3  1  0.97507600  0.33482500  0.88871600  1
  O  O4  1  0.84809300  0.84809300  0.39937700  1
  O  O5  1  0.16517500  0.52492400  0.38871600  1
  O  O6  1  0.47507600  0.83482500  0.61128400  1
  O  O7  1  0.66517500  0.02492400  0.11128400  1
  O  O8  1  0.02492400  0.66517500  0.11128400  1
  O  O9  1  0.33482500  0.97507600  0.88871600  1
  O  O10  1  0.52492400  0.16517500  0.38871600  1
  O  O11  1  0.83482500  0.47507600  0.61128400  1
loop_
_geom_bond_atom_site_label_1
_geom_bond_atom_site_label_2
_geom_bond_distance
_geom_bond_site_symmetry_2
Li0 O11 2.046780 1_455
Li0 O3 2.046780 1_455
Li0 O6 2.048093 1_555
Li0 O9 2.048093 1_555
Li1 O7 2.046780 1_565
Li1 O10 2.046780 1_565
Li1 O8 2.048093 1_555
Li1 O5 2.048093 1_555
Li2 O6 2.046780 1_545
Li2 O9 2.046780 1_545
Li2 O11 2.048093 1_555
Li2 O3 2.048093 1_555
Li3 O8 2.046780 1_655
Li3 O5 2.046780 1_655
Li3 O7 2.048093 1_555
Li3 O10 2.048093 1_555
Ni0 O8 1.997589 1_555
Ni0 O9 1.997589 1_554
Ni0 O1 1.999399 1_555
Ni0 O2 1.999399 1_554
Ni0 O3 2.170448 1_454
Ni0 O7 2.170448 1_565
Ni1 O11 1.997589 1_555
Ni1 O10 1.997589 1_555
Ni1 O4 1.999399 1_545
Ni1 O0 1.999399 1_655
Ni1 O6 2.170448 1_545
Ni1 O5 2.170448 1_655
Ni2 O6 1.997589 1_555
Ni2 O5 1.997589 1_555
Ni2 O0 1.999399 1_565
Ni2 O4 1.999399 1_455
Ni2 O11 2.170448 1_455
Ni2 O10 2.170448 1_565
Ni3 O7 1.997589 1_555
Ni3 O3 1.997589 1_554
Ni3 O1 1.999399 1_555
Ni3 O2 1.999399 1_554
Ni3 O8 2.170448 1_655
Ni3 O9 2.170448 1_544
Bi0 O2 2.125936 1_444
Bi0 O1 2.125936 1_555
Bi0 O9 2.165275 1_544
Bi0 O3 2.165275 1_454
Bi0 O7 2.165275 1_455
Bi0 O8 2.165275 1_545
Bi1 O4 2.125936 1_555
Bi1 O0 2.125936 1_555
Bi1 O10 2.165275 1_555
Bi1 O5 2.165275 1_555
Bi1 O11 2.165275 1_555
Bi1 O6 2.165275 1_555
