# generated using pymatgen
data_LiMn2(PO4)2
_symmetry_space_group_name_H-M   'P 1'
_cell_length_a   5.11706200
_cell_length_b   8.78362100
_cell_length_c   10.09603763
_cell_angle_alpha   55.47744254
_cell_angle_beta   90.00000000
_cell_angle_gamma   90.00000000
_symmetry_Int_Tables_number   1
_chemical_formula_structural   LiMn2(PO4)2
_chemical_formula_sum   'Li2 Mn4 P4 O16'
_cell_volume   373.87065648
_cell_formula_units_Z   2
loop_
 _symmetry_equiv_pos_site_id
 _symmetry_equiv_pos_as_xyz
  1  'x, y, z'
loop_
 _atom_site_type_symbol
 _atom_site_label
 _atom_site_symmetry_multiplicity
 _atom_site_fract_x
 _atom_site_fract_y
 _atom_site_fract_z
 _atom_site_occupancy
  Li  Li0  1  0.56103300  0.49708800  0.00497100  1
  Li  Li1  1  0.43896700  0.49708800  0.50497100  1
  Mn  Mn0  1  0.05799900  0.49886600  0.24220400  1
  Mn  Mn1  1  0.45324900  0.00157900  0.75822500  1
  Mn  Mn2  1  0.54675100  0.00157900  0.25822500  1
  Mn  Mn3  1  0.94200100  0.49886600  0.74220400  1
  P  P0  1  0.54309700  0.74599800  0.12952200  1
  P  P1  1  0.95586100  0.24979200  0.62159800  1
  P  P2  1  0.04413900  0.24979200  0.12159800  1
  P  P3  1  0.45690300  0.74599800  0.62952200  1
  O  O0  1  0.83721500  0.70905100  0.17550500  1
  O  O1  1  0.65702600  0.25956800  0.64366900  1
  O  O2  1  0.38910300  0.57917500  0.27801100  1
  O  O3  1  0.91323300  0.42028400  0.11307300  1
  O  O4  1  0.06989300  0.06755200  0.75976600  1
  O  O5  1  0.48322000  0.73999400  0.98195300  1
  O  O6  1  0.93010700  0.06755200  0.25976600  1
  O  O7  1  0.02377300  0.27880500  0.45913900  1
  O  O8  1  0.53516800  0.92976500  0.60050700  1
  O  O9  1  0.34297400  0.25956800  0.14366900  1
  O  O10  1  0.61089700  0.57917500  0.77801100  1
  O  O11  1  0.97622700  0.27880500  0.95913900  1
  O  O12  1  0.16278500  0.70905100  0.67550500  1
  O  O13  1  0.51678000  0.73999400  0.48195300  1
  O  O14  1  0.46483200  0.92976500  0.10050700  1
  O  O15  1  0.08676700  0.42028400  0.61307300  1
loop_
_geom_bond_atom_site_label_1
_geom_bond_atom_site_label_2
_geom_bond_distance
_geom_bond_site_symmetry_2
Li0 O10 1.990686 1_554
Li0 O3 2.014883 1_555
Li0 O5 2.050066 1_554
Li0 O9 2.060864 1_555
Li1 O2 1.990686 1_555
Li1 O15 2.014883 1_555
Li1 O13 2.050066 1_555
Li1 O1 2.060864 1_555
Mn0 O0 1.931087 1_455
Mn0 O3 1.935149 1_455
Mn0 O7 1.940444 1_555
Mn0 O2 1.946256 1_555
Mn1 O4 2.048013 1_555
Mn1 O8 2.060966 1_545
Mn1 O5 2.126563 1_545
Mn1 O1 2.142290 1_555
Mn2 O6 2.048013 1_555
Mn2 O14 2.060966 1_545
Mn2 O13 2.126563 1_545
Mn2 O9 2.142290 1_555
Mn3 O12 1.931087 1_655
Mn3 O15 1.935149 1_655
Mn3 O11 1.940444 1_555
Mn3 O10 1.946256 1_555
O0 P0 1.554079 1_555
O1 P1 1.554682 1_555
O2 P0 1.589222 1_555
O3 P2 1.597697 1_655
O4 P1 1.522416 1_455
O5 P0 1.550937 1_556
O6 P2 1.522416 1_655
O7 P1 1.549892 1_455
O8 P3 1.521743 1_555
O9 P2 1.554682 1_555
O10 P3 1.589222 1_555
O11 P2 1.549892 1_656
O12 P3 1.554079 1_555
O13 P3 1.550937 1_555
O14 P0 1.521743 1_555
O15 P1 1.597697 1_455
