# generated using pymatgen
data_Na5LiMn2P2(CO7)2
_symmetry_space_group_name_H-M   'P 1'
_cell_length_a   5.16002000
_cell_length_b   8.96060779
_cell_length_c   13.62493286
_cell_angle_alpha   90.23518252
_cell_angle_beta   90.11956698
_cell_angle_gamma   90.20035579
_symmetry_Int_Tables_number   1
_chemical_formula_structural   Na5LiMn2P2(CO7)2
_chemical_formula_sum   'Na10 Li2 Mn4 P4 C4 O28'
_cell_volume   629.96431825
_cell_formula_units_Z   2
loop_
 _symmetry_equiv_pos_site_id
 _symmetry_equiv_pos_as_xyz
  1  'x, y, z'
loop_
 _atom_site_type_symbol
 _atom_site_label
 _atom_site_symmetry_multiplicity
 _atom_site_fract_x
 _atom_site_fract_y
 _atom_site_fract_z
 _atom_site_occupancy
  Na  Na0  1  0.23979100  0.08305900  0.87503800  1
  Na  Na1  1  0.23979600  0.08205000  0.37575300  1
  Na  Na2  1  0.75183500  0.25859200  0.99933700  1
  Na  Na3  1  0.75232300  0.25892200  0.75081300  1
  Na  Na4  1  0.75198600  0.25875400  0.49881400  1
  Na  Na5  1  0.75225600  0.25852400  0.25097900  1
  Na  Na6  1  0.24732800  0.74107400  0.74762500  1
  Na  Na7  1  0.24765500  0.74182400  0.25017300  1
  Na  Na8  1  0.24772400  0.74155600  0.00121400  1
  Na  Na9  1  0.76014600  0.91585000  0.62311000  1
  Li  Li0  1  0.24013100  0.73316200  0.50348900  1
  Li  Li1  1  0.75576100  0.91456600  0.12511400  1
  Mn  Mn0  1  0.22188400  0.36191300  0.62483100  1
  Mn  Mn1  1  0.22247500  0.36154800  0.12531500  1
  Mn  Mn2  1  0.77754300  0.63978500  0.87514200  1
  Mn  Mn3  1  0.77875300  0.64082100  0.37611700  1
  P  P0  1  0.29901600  0.41328200  0.37646900  1
  P  P1  1  0.29781400  0.41085000  0.87516600  1
  P  P2  1  0.70278500  0.59089900  0.62352000  1
  P  P3  1  0.70252900  0.59353000  0.12529100  1
  C  C0  1  0.26362500  0.05682200  0.62244900  1
  C  C1  1  0.26524000  0.05496700  0.12522000  1
  C  C2  1  0.73478400  0.93914100  0.37629700  1
  C  C3  1  0.73554600  0.94012300  0.87473100  1
  O  O0  1  0.71445500  0.08470700  0.87475000  1
  O  O1  1  0.71323200  0.08382200  0.37481100  1
  O  O2  1  0.02931200  0.10720500  0.12500700  1
  O  O3  1  0.03733100  0.12043300  0.62462300  1
  O  O4  1  0.46267800  0.14659600  0.12536100  1
  O  O5  1  0.47054200  0.14081000  0.62518200  1
  O  O6  1  0.21466700  0.31859100  0.96663100  1
  O  O7  1  0.21517400  0.31869800  0.78307100  1
  O  O8  1  0.21664300  0.31863900  0.46691600  1
  O  O9  1  0.21106800  0.32340000  0.28391800  1
  O  O10  1  0.59941100  0.42801400  0.87546200  1
  O  O11  1  0.60092300  0.42828200  0.37493500  1
  O  O12  1  0.81811200  0.43094800  0.62514900  1
  O  O13  1  0.82465800  0.43487000  0.12494500  1
  O  O14  1  0.17729000  0.56911600  0.87503400  1
  O  O15  1  0.18336300  0.57343100  0.38057500  1
  O  O16  1  0.39943700  0.57734500  0.61854600  1
  O  O17  1  0.40154500  0.57287800  0.12524000  1
  O  O18  1  0.78081600  0.68155000  0.71669600  1
  O  O19  1  0.79977000  0.68200100  0.53387100  1
  O  O20  1  0.78513100  0.68799200  0.21636500  1
  O  O21  1  0.78347100  0.68795900  0.03448800  1
  O  O22  1  0.52891800  0.85624000  0.87433600  1
  O  O23  1  0.52832100  0.85486500  0.37784900  1
  O  O24  1  0.96263700  0.87790000  0.87478500  1
  O  O25  1  0.96238000  0.87743600  0.37634900  1
  O  O26  1  0.30673800  0.91255400  0.12532400  1
  O  O27  1  0.28325600  0.91210500  0.61777900  1
loop_
_geom_bond_atom_site_label_1
_geom_bond_atom_site_label_2
_geom_bond_distance
_geom_bond_site_symmetry_2
Na0 O24 2.325150 1_445
Na0 O0 2.449280 1_555
Na0 O6 2.451408 1_555
Na0 O7 2.463227 1_555
Na0 O22 2.525423 1_545
Na0 O0 2.710831 1_455
Na1 O25 2.322195 1_445
Na1 O1 2.442996 1_555
Na1 O8 2.456044 1_555
Na1 O9 2.507648 1_555
Na1 O23 2.526452 1_545
Na1 O1 2.717187 1_455
Na2 O0 2.306776 1_555
Na2 O13 2.352885 1_556
Na2 O10 2.407442 1_555
Na2 O6 2.487700 1_655
Na2 O4 2.489184 1_556
Na2 O2 2.616173 1_656
Na2 O6 2.859670 1_555
Na3 O0 2.312465 1_555
Na3 O12 2.333082 1_555
Na3 O10 2.407377 1_555
Na3 O5 2.475512 1_555
Na3 O7 2.483724 1_655
Na3 O3 2.581598 1_655
Na3 O7 2.859357 1_555
Na4 O1 2.307859 1_555
Na4 O12 2.330690 1_555
Na4 O11 2.405793 1_555
Na4 O5 2.490996 1_555
Na4 O8 2.494548 1_655
Na4 O3 2.581100 1_655
Na4 O8 2.848657 1_555
Na5 O1 2.314884 1_555
Na5 O13 2.367725 1_555
Na5 O11 2.401813 1_555
Na5 O9 2.475502 1_655
Na5 O4 2.476434 1_555
Na5 O2 2.613977 1_655
Na5 O9 2.889997 1_555
Na6 O27 2.352565 1_555
Na6 O14 2.353506 1_555
Na6 O16 2.419523 1_555
Na6 O22 2.474095 1_555
Na6 O18 2.498334 1_455
Na6 O24 2.582378 1_455
Na6 O18 2.837832 1_555
Na7 O26 2.312410 1_555
Na7 O15 2.358928 1_555
Na7 O17 2.410957 1_555
Na7 O23 2.472710 1_555
Na7 O20 2.475159 1_455
Na7 O25 2.569990 1_455
Na7 O20 2.854715 1_555
Na8 O26 2.296361 1_555
Na8 O14 2.333863 1_554
Na8 O17 2.407038 1_555
Na8 O22 2.482818 1_554
Na8 O21 2.484580 1_455
Na8 O24 2.577438 1_454
Na8 O21 2.843289 1_555
Na9 O3 2.321192 1_665
Na9 O19 2.427776 1_555
Na9 O27 2.461790 1_555
Na9 O18 2.463334 1_555
Na9 O5 2.513574 1_565
Na9 O27 2.700709 1_655
Li0 O15 2.216829 1_555
Li0 O27 2.240746 1_555
Li0 O16 2.259040 1_555
Li0 O19 2.354344 1_455
Li0 O23 2.519051 1_555
Li0 O25 2.597519 1_455
Li1 O2 2.225992 1_665
Li1 O26 2.316983 1_555
Li1 O21 2.377051 1_555
Li1 O20 2.390125 1_555
Li1 O4 2.575236 1_565
Mn0 O16 2.135996 1_555
Mn0 O12 2.175445 1_455
Mn0 O8 2.184772 1_555
Mn0 O7 2.192395 1_555
Mn0 O3 2.361031 1_555
Mn0 O5 2.364185 1_555
Mn1 O17 2.104153 1_555
Mn1 O13 2.157512 1_455
Mn1 O9 2.190090 1_555
Mn1 O6 2.194762 1_554
Mn1 O4 2.294081 1_555
Mn1 O2 2.484280 1_555
Mn2 O10 2.105622 1_555
Mn2 O14 2.159832 1_655
Mn2 O18 2.192617 1_555
Mn2 O21 2.211966 1_556
Mn2 O22 2.329254 1_555
Mn2 O24 2.334642 1_555
Mn3 O11 2.111105 1_555
Mn3 O15 2.176192 1_655
Mn3 O19 2.181748 1_555
Mn3 O20 2.219263 1_555
Mn3 O23 2.316485 1_555
Mn3 O25 2.319266 1_555
C0 O3 1.301503 1_555
C0 O27 1.302361 1_545
C0 O5 1.304503 1_555
C1 O26 1.294692 1_545
C1 O2 1.305810 1_555
C1 O4 1.306208 1_555
C2 O25 1.299797 1_555
C2 O1 1.301815 1_565
C2 O23 1.303954 1_555
C3 O24 1.299438 1_555
C3 O0 1.300502 1_565
C3 O22 1.302354 1_555
O6 P1 1.558441 1_555
O7 P1 1.557232 1_555
O8 P0 1.557806 1_555
O9 P0 1.559312 1_555
O10 P1 1.563288 1_555
O11 P0 1.563356 1_555
O12 P2 1.554035 1_555
O13 P3 1.557108 1_555
O14 P1 1.550526 1_555
O15 P0 1.556937 1_555
O16 P2 1.570863 1_555
O17 P3 1.563425 1_555
O18 P2 1.555866 1_555
O19 P2 1.554570 1_555
O20 P3 1.557096 1_555
O21 P3 1.558622 1_555
