# generated using pymatgen
data_NbVO4
_symmetry_space_group_name_H-M   'P 1'
_cell_length_a   6.27118769
_cell_length_b   6.27118769
_cell_length_c   6.27118769
_cell_angle_alpha   133.40917327
_cell_angle_beta   133.40917327
_cell_angle_gamma   68.01229274
_symmetry_Int_Tables_number   1
_chemical_formula_structural   NbVO4
_chemical_formula_sum   'Nb2 V2 O8'
_cell_volume   127.90384660
_cell_formula_units_Z   2
loop_
 _symmetry_equiv_pos_site_id
 _symmetry_equiv_pos_as_xyz
  1  'x, y, z'
loop_
 _atom_site_type_symbol
 _atom_site_label
 _atom_site_symmetry_multiplicity
 _atom_site_fract_x
 _atom_site_fract_y
 _atom_site_fract_z
 _atom_site_occupancy
  Nb  Nb0  1  0.25000000  0.75000000  0.50000000  1
  Nb  Nb1  1  0.50000000  0.50000000  0.00000000  1
  V  V0  1  0.00000000  0.00000000  0.00000000  1
  V  V1  1  0.75000000  0.25000000  0.50000000  1
  O  O0  1  0.57544800  0.57394100  0.47068300  1
  O  O1  1  0.32394100  0.35325800  0.49849200  1
  O  O2  1  0.85476500  0.82544800  0.50150800  1
  O  O3  1  0.64674200  0.14523500  0.97068300  1
  O  O4  1  0.10325800  0.10476500  0.52931700  1
  O  O5  1  0.89523500  0.42455200  0.99849200  1
  O  O6  1  0.42605900  0.89674200  0.00150800  1
  O  O7  1  0.17455200  0.67605900  0.02931700  1
loop_
_geom_bond_atom_site_label_1
_geom_bond_atom_site_label_2
_geom_bond_distance
_geom_bond_site_symmetry_2
Nb0 O0 1.991894 1_555
Nb0 O4 1.991894 1_565
Nb0 O5 1.991894 1_454
Nb0 O6 1.991899 1_556
Nb0 O1 2.348456 1_555
Nb0 O7 2.348460 1_555
Nb0 O3 2.348460 1_565
Nb0 O2 2.348463 1_455
Nb1 O7 1.991894 1_555
Nb1 O3 1.991894 1_554
Nb1 O2 1.991894 1_555
Nb1 O1 1.991899 1_554
Nb1 O6 2.348456 1_555
Nb1 O0 2.348460 1_555
Nb1 O4 2.348460 1_554
Nb1 O5 2.348463 1_554
O0 V1 1.982565 1_555
O0 V0 2.497309 1_666
O1 V0 1.982564 1_555
O1 V1 2.497306 1_555
O2 V0 1.982559 1_666
O2 V1 2.497313 1_565
O3 V0 1.982565 1_656
O3 V1 2.497309 1_556
O4 V1 1.982565 1_455
O4 V0 2.497309 1_555
O5 V1 1.982559 1_555
O5 V0 2.497313 1_656
O6 V1 1.982564 1_565
O6 V0 2.497306 1_565
O7 V0 1.982565 1_565
O7 V1 2.497309 1_454
