# generated using pymatgen
data_Li5Mn2(PO4)3
_symmetry_space_group_name_H-M   'P 1'
_cell_length_a   8.94775300
_cell_length_b   8.99869879
_cell_length_c   12.50760971
_cell_angle_alpha   86.64414273
_cell_angle_beta   89.35433510
_cell_angle_gamma   89.80005298
_symmetry_Int_Tables_number   1
_chemical_formula_structural   Li5Mn2(PO4)3
_chemical_formula_sum   'Li20 Mn8 P12 O48'
_cell_volume   1005.29458790
_cell_formula_units_Z   4
loop_
 _symmetry_equiv_pos_site_id
 _symmetry_equiv_pos_as_xyz
  1  'x, y, z'
loop_
 _atom_site_type_symbol
 _atom_site_label
 _atom_site_symmetry_multiplicity
 _atom_site_fract_x
 _atom_site_fract_y
 _atom_site_fract_z
 _atom_site_occupancy
  Li  Li0  1  0.48101400  0.05126600  0.65312800  1
  Li  Li1  1  0.96590100  0.08528600  0.31355100  1
  Li  Li2  1  0.27414800  0.16040400  0.22952100  1
  Li  Li3  1  0.22041200  0.19859700  0.82574300  1
  Li  Li4  1  0.72099000  0.28374200  0.66053700  1
  Li  Li5  1  0.77154700  0.33567600  0.27005200  1
  Li  Li6  1  0.46821800  0.40832200  0.19051400  1
  Li  Li7  1  0.74461000  0.41603000  0.81188300  1
  Li  Li8  1  0.03215800  0.46174300  0.82616800  1
  Li  Li9  1  0.97919600  0.53166800  0.16428600  1
  Li  Li10  1  0.24923800  0.57800800  0.18812400  1
  Li  Li11  1  0.54066800  0.59658300  0.80032000  1
  Li  Li12  1  0.22785700  0.65755500  0.73307700  1
  Li  Li13  1  0.26944500  0.66586000  0.37257200  1
  Li  Li14  1  0.79702800  0.78246400  0.15110900  1
  Li  Li15  1  0.40932900  0.84549600  0.25811000  1
  Li  Li16  1  0.72227000  0.86127600  0.76091700  1
  Li  Li17  1  0.08907000  0.94215700  0.69473600  1
  Li  Li18  1  0.76014700  0.91454000  0.30325400  1
  Li  Li19  1  0.50946400  0.04072300  0.33807100  1
  Mn  Mn0  1  0.96099700  0.23529800  0.09211000  1
  Mn  Mn1  1  0.44128800  0.28629300  0.41981200  1
  Mn  Mn2  1  0.05108400  0.26007600  0.60404100  1
  Mn  Mn3  1  0.53024900  0.22590100  0.90270400  1
  Mn  Mn4  1  0.47642400  0.73211900  0.06802000  1
  Mn  Mn5  1  0.96140000  0.74199000  0.40832500  1
  Mn  Mn6  1  0.55158100  0.74513900  0.58714200  1
  Mn  Mn7  1  0.03545300  0.76088500  0.90548400  1
  P  P0  1  0.74952600  0.05868800  0.50910100  1
  P  P1  1  0.61968800  0.09941600  0.15523100  1
  P  P2  1  0.90054300  0.10556700  0.84013700  1
  P  P3  1  0.11675500  0.39623000  0.34615800  1
  P  P4  1  0.40173400  0.40535900  0.67173800  1
  P  P5  1  0.24995300  0.44764200  0.99564500  1
  P  P6  1  0.75695900  0.53414300  0.00380300  1
  P  P7  1  0.59221400  0.60735400  0.32992200  1
  P  P8  1  0.88133900  0.60408400  0.66005500  1
  P  P9  1  0.08693200  0.88975500  0.16504200  1
  P  P10  1  0.37898100  0.90133500  0.84409600  1
  P  P11  1  0.25305200  0.95609800  0.48840600  1
  O  O0  1  0.14089300  0.04496100  0.55334700  1
  O  O1  1  0.11421800  0.06096200  0.15549700  1
  O  O2  1  0.31184400  0.05014500  0.38497900  1
  O  O3  1  0.40147700  0.06925900  0.80703700  1
  O  O4  1  0.61867400  0.12053500  0.43798900  1
  O  O5  1  0.61866000  0.10928700  0.03419800  1
  O  O6  1  0.77603800  0.13970900  0.20097300  1
  O  O7  1  0.02586500  0.13300100  0.75284500  1
  O  O8  1  0.75033900  0.18203100  0.80574900  1
  O  O9  1  0.83250700  0.19100300  0.55278700  1
  O  O10  1  0.49509100  0.19279600  0.20826600  1
  O  O11  1  0.96121300  0.17796700  0.93928300  1
  O  O12  1  0.99383000  0.30276600  0.29540400  1
  O  O13  1  0.46216000  0.31943400  0.57627900  1
  O  O14  1  0.27595600  0.35931200  0.29743700  1
  O  O15  1  0.30848900  0.30050100  0.95408300  1
  O  O16  1  0.12751500  0.37974600  0.46740600  1
  O  O17  1  0.24386300  0.35085300  0.70610100  1
  O  O18  1  0.52396500  0.37618800  0.75919100  1
  O  O19  1  0.11954200  0.41932100  0.07920500  1
  O  O20  1  0.80604700  0.43716900  0.10597300  1
  O  O21  1  0.60366600  0.43436900  0.33873900  1
  O  O22  1  0.89623300  0.43357100  0.69611700  1
  O  O23  1  0.63553700  0.45750900  0.93990500  1
  O  O24  1  0.37052700  0.52380000  0.06441800  1
  O  O25  1  0.08997700  0.56440800  0.30732700  1
  O  O26  1  0.39654900  0.57811400  0.65230800  1
  O  O27  1  0.19961200  0.55495200  0.90063600  1
  O  O28  1  0.89123000  0.56487800  0.92610700  1
  O  O29  1  0.47115400  0.64151600  0.23994700  1
  O  O30  1  0.74496600  0.67749500  0.29873500  1
  O  O31  1  0.87992000  0.62649700  0.53820500  1
  O  O32  1  0.69748400  0.68440100  0.04338600  1
  O  O33  1  0.72540400  0.65412900  0.70503100  1
  O  O34  1  0.52104100  0.67584200  0.42905700  1
  O  O35  1  0.01076500  0.68644000  0.71377500  1
  O  O36  1  0.01886800  0.81669600  0.06790500  1
  O  O37  1  0.50483200  0.81108300  0.79095600  1
  O  O38  1  0.18046400  0.81291300  0.44870100  1
  O  O39  1  0.23258200  0.80654500  0.19765500  1
  O  O40  1  0.96313800  0.86817000  0.25461200  1
  O  O41  1  0.22293400  0.85175800  0.80342600  1
  O  O42  1  0.38028800  0.88037100  0.96675200  1
  O  O43  1  0.38664300  0.91371100  0.56158500  1
  O  O44  1  0.59048200  0.93483300  0.20485400  1
  O  O45  1  0.68528400  0.95698800  0.60444800  1
  O  O46  1  0.87912600  0.93386400  0.85294900  1
  O  O47  1  0.85033100  0.96814100  0.43339500  1
loop_
_geom_bond_atom_site_label_1
_geom_bond_atom_site_label_2
_geom_bond_distance
_geom_bond_site_symmetry_2
Li0 O43 1.936805 1_545
Li0 O3 2.059919 1_555
Li0 O45 2.110862 1_545
Li0 O13 2.550485 1_555
Li1 O12 1.973346 1_555
Li1 O47 2.053083 1_545
Li1 O40 2.128522 1_545
Li1 O6 2.252996 1_555
Li1 O1 2.388863 1_655
Li2 O1 1.959993 1_555
Li2 O10 2.011728 1_555
Li2 O14 2.025874 1_555
Li2 O2 2.159979 1_555
Li3 O17 1.978746 1_555
Li3 O3 2.011051 1_555
Li3 O15 2.060249 1_555
Li3 O7 2.077490 1_555
Li4 O9 1.898403 1_555
Li4 O8 2.004971 1_555
Li4 O22 2.138998 1_555
Li4 O18 2.320228 1_555
Li4 O13 2.566630 1_555
Li5 O21 1.958115 1_555
Li5 O6 2.008727 1_555
Li5 O12 2.035489 1_555
Li5 O20 2.215705 1_555
Li6 O10 1.953492 1_555
Li6 O24 2.040638 1_555
Li6 O14 2.197016 1_555
Li6 O29 2.222404 1_555
Li6 O21 2.250414 1_555
Li7 O23 1.920423 1_555
Li7 O22 1.972955 1_555
Li7 O8 2.111990 1_555
Li7 O18 2.126637 1_555
Li7 O28 2.415547 1_555
Li7 O33 2.464485 1_555
Li8 O27 1.986896 1_555
Li8 O28 2.026339 1_455
Li8 O22 2.069879 1_455
Li8 O35 2.402461 1_555
Li9 O20 1.939761 1_555
Li9 O19 1.954091 1_655
Li9 O25 2.091401 1_655
Li10 O24 1.963824 1_555
Li10 O25 2.049529 1_555
Li10 O39 2.071696 1_555
Li10 O29 2.183996 1_555
Li10 O14 2.342760 1_555
Li10 O19 2.348766 1_555
Li11 O37 1.952523 1_555
Li11 O33 2.076119 1_555
Li11 O18 2.084123 1_555
Li11 O23 2.259436 1_555
Li11 O26 2.282341 1_555
Li12 O26 1.962798 1_555
Li12 O35 1.974537 1_555
Li12 O41 2.002196 1_555
Li12 O27 2.252047 1_555
Li13 O38 1.847900 1_555
Li13 O25 2.050634 1_555
Li13 O34 2.370627 1_555
Li13 O29 2.455492 1_555
Li13 O39 2.487375 1_555
Li14 O32 1.886568 1_555
Li14 O30 2.073188 1_555
Li14 O40 2.155949 1_555
Li14 O36 2.244593 1_655
Li14 O44 2.410319 1_555
Li15 O39 1.804874 1_555
Li15 O44 1.907722 1_555
Li15 O29 1.940565 1_555
Li16 O46 1.962746 1_555
Li16 O37 2.024907 1_555
Li16 O33 2.028749 1_555
Li16 O45 2.120532 1_555
Li17 O41 1.960857 1_555
Li17 O7 1.981780 1_565
Li17 O0 1.997795 1_565
Li17 O35 2.405435 1_555
Li18 O47 1.912493 1_555
Li18 O40 1.960301 1_555
Li18 O44 1.966378 1_555
Li18 O30 2.141975 1_555
Li18 O6 2.335988 1_565
Li19 O4 1.780463 1_555
Li19 O2 1.859983 1_555
Li19 O10 2.066035 1_555
Li19 O44 2.088931 1_545
Mn0 O11 2.008820 1_554
Mn0 O19 2.181905 1_655
Mn0 O1 2.198444 1_655
Mn0 O6 2.270429 1_555
Mn0 O20 2.294809 1_555
Mn0 O12 2.668175 1_555
Mn1 O13 2.007668 1_555
Mn1 O21 2.176437 1_555
Mn1 O4 2.178924 1_555
Mn1 O14 2.211226 1_555
Mn1 O2 2.486763 1_555
Mn2 O16 2.076368 1_555
Mn2 O7 2.136750 1_555
Mn2 O9 2.169274 1_455
Mn2 O0 2.217271 1_555
Mn2 O17 2.335329 1_555
Mn2 O22 2.417225 1_455
Mn3 O5 2.062383 1_556
Mn3 O18 2.184421 1_555
Mn3 O15 2.193935 1_555
Mn3 O3 2.232969 1_555
Mn3 O8 2.345509 1_555
Mn3 O23 2.363243 1_555
Mn4 O42 1.985635 1_554
Mn4 O32 2.046360 1_555
Mn4 O24 2.106474 1_555
Mn4 O29 2.254746 1_555
Mn4 O44 2.777786 1_555
Mn5 O31 2.007872 1_555
Mn5 O38 2.138513 1_655
Mn5 O40 2.174787 1_555
Mn5 O47 2.298055 1_555
Mn5 O25 2.379864 1_655
Mn5 O30 2.475256 1_555
Mn6 O43 2.125923 1_555
Mn6 O34 2.128574 1_555
Mn6 O26 2.166405 1_555
Mn6 O33 2.272740 1_555
Mn6 O45 2.276484 1_555
Mn6 O37 2.678992 1_555
Mn7 O36 2.124470 1_556
Mn7 O46 2.167272 1_455
Mn7 O28 2.190432 1_455
Mn7 O41 2.225169 1_555
Mn7 O27 2.363778 1_555
Mn7 O35 2.539321 1_555
O0 P11 1.535717 1_545
O1 P9 1.558162 1_545
O2 P11 1.589346 1_545
O3 P10 1.567419 1_545
O4 P0 1.559699 1_555
O5 P1 1.511368 1_555
O6 P1 1.569014 1_555
O7 P2 1.566274 1_455
O8 P2 1.560985 1_555
O9 P0 1.535909 1_555
O10 P1 1.559197 1_555
O11 P2 1.539215 1_555
O12 P3 1.550756 1_655
O13 P4 1.551243 1_555
O14 P3 1.584842 1_555
O15 P5 1.538621 1_555
O16 P3 1.519200 1_555
O17 P4 1.545052 1_555
O18 P4 1.566165 1_555
O19 P5 1.569168 1_554
O20 P6 1.570629 1_555
O21 P7 1.557188 1_555
O22 P8 1.579391 1_555
O23 P6 1.544021 1_556
O24 P5 1.571188 1_554
O25 P3 1.580400 1_555
O26 P4 1.559943 1_555
O27 P5 1.556342 1_555
O28 P6 1.552041 1_556
O29 P7 1.587126 1_555
O30 P7 1.543966 1_555
O31 P8 1.525780 1_555
O32 P6 1.556912 1_555
O33 P8 1.572773 1_555
O34 P7 1.546538 1_555
O35 P8 1.556805 1_455
O36 P9 1.546680 1_555
O37 P10 1.552213 1_555
O38 P11 1.554566 1_555
O39 P9 1.547550 1_555
O40 P9 1.570931 1_655
O41 P10 1.566616 1_555
O42 P10 1.534860 1_555
O43 P11 1.546832 1_555
O44 P1 1.593237 1_565
O45 P0 1.565441 1_565
O46 P2 1.556321 1_565
O47 P0 1.562064 1_565
