# generated using pymatgen
data_Li6Fe(BO3)3
_symmetry_space_group_name_H-M   'P 1'
_cell_length_a   16.50047500
_cell_length_b   6.43980900
_cell_length_c   7.03248989
_cell_angle_alpha   76.11985951
_cell_angle_beta   90.00000000
_cell_angle_gamma   90.00000000
_symmetry_Int_Tables_number   1
_chemical_formula_structural   Li6Fe(BO3)3
_chemical_formula_sum   'Li24 Fe4 B12 O36'
_cell_volume   725.45115801
_cell_formula_units_Z   4
loop_
 _symmetry_equiv_pos_site_id
 _symmetry_equiv_pos_as_xyz
  1  'x, y, z'
loop_
 _atom_site_type_symbol
 _atom_site_label
 _atom_site_symmetry_multiplicity
 _atom_site_fract_x
 _atom_site_fract_y
 _atom_site_fract_z
 _atom_site_occupancy
  Li  Li0  1  0.00445500  0.32085800  0.06919200  1
  Li  Li1  1  0.44552600  0.40565600  0.13637400  1
  Li  Li2  1  0.49554500  0.82085800  0.06919200  1
  Li  Li3  1  0.53810300  0.05456700  0.30429800  1
  Li  Li4  1  0.05447400  0.90565600  0.13637400  1
  Li  Li5  1  0.29335800  0.36583200  0.27123000  1
  Li  Li6  1  0.96189700  0.55456700  0.30429800  1
  Li  Li7  1  0.70638800  0.04959400  0.41180900  1
  Li  Li8  1  0.03095300  0.17110100  0.45759000  1
  Li  Li9  1  0.20664200  0.86583200  0.27123000  1
  Li  Li10  1  0.79361200  0.54959400  0.41180900  1
  Li  Li11  1  0.46904700  0.67110100  0.45759000  1
  Li  Li12  1  0.53095300  0.32889900  0.54241000  1
  Li  Li13  1  0.20638800  0.45040600  0.58819100  1
  Li  Li14  1  0.79335800  0.13416800  0.72877000  1
  Li  Li15  1  0.96904700  0.82889900  0.54241000  1
  Li  Li16  1  0.29361200  0.95040600  0.58819100  1
  Li  Li17  1  0.03810300  0.44543300  0.69570200  1
  Li  Li18  1  0.70664200  0.63416800  0.72877000  1
  Li  Li19  1  0.94552600  0.09434400  0.86362600  1
  Li  Li20  1  0.46189700  0.94543300  0.69570200  1
  Li  Li21  1  0.50445500  0.17914200  0.93080800  1
  Li  Li22  1  0.55447400  0.59434400  0.86362600  1
  Li  Li23  1  0.99554500  0.67914200  0.93080800  1
  Fe  Fe0  1  0.81666000  0.33130300  0.07494400  1
  Fe  Fe1  1  0.68334000  0.83130300  0.07494400  1
  Fe  Fe2  1  0.31666000  0.16869700  0.92505600  1
  Fe  Fe3  1  0.18334000  0.66869700  0.92505600  1
  B  B0  1  0.63695100  0.34410400  0.08199300  1
  B  B1  1  0.86304900  0.84410400  0.08199300  1
  B  B2  1  0.12453700  0.50068700  0.27957300  1
  B  B3  1  0.88237400  0.18905700  0.43100100  1
  B  B4  1  0.37546300  0.00068700  0.27957300  1
  B  B5  1  0.61762600  0.68905700  0.43100100  1
  B  B6  1  0.38237400  0.31094300  0.56899900  1
  B  B7  1  0.62453700  0.99931300  0.72042700  1
  B  B8  1  0.11762600  0.81094300  0.56899900  1
  B  B9  1  0.87546300  0.49931300  0.72042700  1
  B  B10  1  0.13695100  0.15589600  0.91800700  1
  B  B11  1  0.36304900  0.65589600  0.91800700  1
  O  O0  1  0.33379600  0.44875400  0.99089000  1
  O  O1  1  0.42383600  0.04342500  0.11350100  1
  O  O2  1  0.55450800  0.31973600  0.10154800  1
  O  O3  1  0.69144600  0.17464900  0.11841200  1
  O  O4  1  0.16620400  0.94875400  0.99089000  1
  O  O5  1  0.07616400  0.54342500  0.11350100  1
  O  O6  1  0.29497100  0.06056800  0.24158800  1
  O  O7  1  0.94549200  0.81973600  0.10154800  1
  O  O8  1  0.80855400  0.67464900  0.11841200  1
  O  O9  1  0.93238400  0.26749300  0.27185400  1
  O  O10  1  0.20502900  0.56056800  0.24158800  1
  O  O11  1  0.56761600  0.76749300  0.27185400  1
  O  O12  1  0.80066100  0.23572600  0.39588200  1
  O  O13  1  0.41515600  0.42393300  0.39495900  1
  O  O14  1  0.59394900  0.08395900  0.53687000  1
  O  O15  1  0.09394900  0.41604100  0.46313000  1
  O  O16  1  0.69933900  0.73572600  0.39588200  1
  O  O17  1  0.91515600  0.07606700  0.60504100  1
  O  O18  1  0.08484400  0.92393300  0.39495900  1
  O  O19  1  0.30066100  0.26427400  0.60411800  1
  O  O20  1  0.90605100  0.58395900  0.53687000  1
  O  O21  1  0.40605100  0.91604100  0.46313000  1
  O  O22  1  0.58484400  0.57606700  0.60504100  1
  O  O23  1  0.19933900  0.76427400  0.60411800  1
  O  O24  1  0.43238400  0.23250700  0.72814600  1
  O  O25  1  0.79497100  0.43943200  0.75841200  1
  O  O26  1  0.06761600  0.73250700  0.72814600  1
  O  O27  1  0.19144600  0.32535100  0.88158800  1
  O  O28  1  0.05450800  0.18026400  0.89845200  1
  O  O29  1  0.70502900  0.93943200  0.75841200  1
  O  O30  1  0.92383600  0.45657500  0.88649900  1
  O  O31  1  0.83379600  0.05124600  0.00911000  1
  O  O32  1  0.30855400  0.82535100  0.88158800  1
  O  O33  1  0.44549200  0.68026400  0.89845200  1
  O  O34  1  0.57616400  0.95657500  0.88649900  1
  O  O35  1  0.66620400  0.55124600  0.00911000  1
loop_
_geom_bond_atom_site_label_1
_geom_bond_atom_site_label_2
_geom_bond_distance
_geom_bond_site_symmetry_2
Li0 O9 1.824436 1_455
Li0 O28 1.861502 1_554
Li0 O30 1.909283 1_454
Li0 O5 1.940549 1_555
Li1 O2 1.914385 1_555
Li1 O13 1.916923 1_555
Li1 O0 2.094376 1_554
Li1 O33 2.123025 1_554
Li1 O1 2.403221 1_555
Li2 O11 1.824436 1_555
Li2 O33 1.861502 1_554
Li2 O34 1.909283 1_554
Li2 O1 1.940549 1_565
Li3 O14 1.925759 1_555
Li3 O2 1.963194 1_555
Li3 O11 1.977190 1_545
Li3 O1 2.325224 1_555
Li3 O21 2.512585 1_545
Li4 O7 1.914385 1_455
Li4 O18 1.916923 1_555
Li4 O4 2.094376 1_554
Li4 O28 2.123025 1_564
Li4 O5 2.403221 1_555
Li5 O10 1.901295 1_555
Li5 O6 2.026156 1_555
Li5 O0 2.027816 1_554
Li5 O13 2.256613 1_555
Li5 O19 2.277741 1_555
Li6 O20 1.925759 1_555
Li6 O7 1.963194 1_555
Li6 O9 1.977190 1_555
Li6 O5 2.325224 1_655
Li6 O15 2.512585 1_655
Li7 O12 1.950548 1_555
Li7 O3 2.041903 1_555
Li7 O16 2.054299 1_545
Li7 O14 2.087579 1_555
Li7 O29 2.369696 1_545
Li8 O15 1.897254 1_555
Li8 O18 1.963324 1_545
Li8 O9 2.085121 1_455
Li8 O17 2.190006 1_455
Li9 O6 1.901295 1_565
Li9 O10 2.026156 1_555
Li9 O4 2.027816 1_554
Li9 O18 2.256613 1_555
Li9 O23 2.277741 1_555
Li10 O16 1.950548 1_555
Li10 O8 2.041903 1_555
Li10 O12 2.054299 1_555
Li10 O20 2.087579 1_555
Li10 O25 2.369696 1_555
Li11 O21 1.897254 1_555
Li11 O13 1.963324 1_555
Li11 O11 2.085121 1_555
Li11 O22 2.190006 1_555
Li12 O14 1.897254 1_555
Li12 O22 1.963324 1_555
Li12 O24 2.085121 1_555
Li12 O13 2.190006 1_555
Li13 O19 1.950548 1_555
Li13 O27 2.041903 1_555
Li13 O23 2.054299 1_555
Li13 O15 2.087579 1_555
Li13 O10 2.369696 1_555
Li14 O29 1.901295 1_545
Li14 O25 2.026156 1_555
Li14 O31 2.027816 1_556
Li14 O17 2.256613 1_555
Li14 O12 2.277741 1_555
Li15 O20 1.897254 1_555
Li15 O17 1.963324 1_565
Li15 O26 2.085121 1_655
Li15 O18 2.190006 1_655
Li16 O23 1.950548 1_555
Li16 O32 2.041903 1_555
Li16 O19 2.054299 1_565
Li16 O21 2.087579 1_555
Li16 O6 2.369696 1_565
Li17 O15 1.925759 1_555
Li17 O28 1.963194 1_555
Li17 O26 1.977190 1_555
Li17 O30 2.325224 1_455
Li17 O20 2.512585 1_455
Li18 O25 1.901295 1_555
Li18 O29 2.026156 1_555
Li18 O35 2.027816 1_556
Li18 O22 2.256613 1_555
Li18 O16 2.277741 1_555
Li19 O28 1.914385 1_655
Li19 O17 1.916923 1_555
Li19 O31 2.094376 1_556
Li19 O7 2.123025 1_546
Li19 O30 2.403221 1_555
Li20 O21 1.925759 1_555
Li20 O33 1.963194 1_555
Li20 O24 1.977190 1_565
Li20 O34 2.325224 1_555
Li20 O14 2.512585 1_565
Li21 O24 1.824436 1_555
Li21 O2 1.861502 1_556
Li21 O1 1.909283 1_556
Li21 O34 1.940549 1_545
Li22 O33 1.914385 1_555
Li22 O22 1.916923 1_555
Li22 O35 2.094376 1_556
Li22 O2 2.123025 1_556
Li22 O34 2.403221 1_555
Li23 O26 1.824436 1_655
Li23 O7 1.861502 1_556
Li23 O5 1.909283 1_656
Li23 O30 1.940549 1_555
Fe0 O31 1.986849 1_555
Fe0 O25 2.196448 1_554
Fe0 O12 2.208177 1_555
Fe0 O30 2.240883 1_554
Fe0 O3 2.287343 1_555
Fe0 O8 2.307490 1_555
Fe0 O9 2.336583 1_555
Fe1 O35 1.986849 1_555
Fe1 O29 2.196448 1_554
Fe1 O16 2.208177 1_555
Fe1 O34 2.240883 1_554
Fe1 O8 2.287343 1_555
Fe1 O3 2.307490 1_565
Fe1 O11 2.336583 1_555
Fe2 O0 1.986849 1_555
Fe2 O6 2.196448 1_556
Fe2 O19 2.208177 1_555
Fe2 O1 2.240883 1_556
Fe2 O27 2.287343 1_555
Fe2 O32 2.307490 1_545
Fe2 O24 2.336583 1_555
Fe3 O4 1.986849 1_555
Fe3 O10 2.196448 1_556
Fe3 O23 2.208177 1_555
Fe3 O5 2.240883 1_556
Fe3 O32 2.287343 1_555
Fe3 O27 2.307490 1_555
Fe3 O26 2.336583 1_555
B0 O2 1.372491 1_555
B0 O3 1.389566 1_555
B0 O35 1.395383 1_555
B1 O7 1.372491 1_555
B1 O8 1.389566 1_555
B1 O31 1.395383 1_565
B2 O15 1.371351 1_555
B2 O5 1.386581 1_555
B2 O10 1.390913 1_555
B3 O17 1.375782 1_555
B3 O9 1.384721 1_555
B3 O12 1.390550 1_555
B4 O21 1.371351 1_545
B4 O1 1.386581 1_555
B4 O6 1.390913 1_555
B5 O22 1.375782 1_555
B5 O11 1.384721 1_555
B5 O16 1.390550 1_555
B6 O13 1.375782 1_555
B6 O24 1.384721 1_555
B6 O19 1.390550 1_555
B7 O14 1.371351 1_565
B7 O34 1.386581 1_555
B7 O29 1.390913 1_555
B8 O18 1.375782 1_555
B8 O26 1.384721 1_555
B8 O23 1.390550 1_555
B9 O20 1.371351 1_555
B9 O30 1.386581 1_555
B9 O25 1.390913 1_555
B10 O28 1.372491 1_555
B10 O27 1.389566 1_555
B10 O4 1.395383 1_545
B11 O33 1.372491 1_555
B11 O32 1.389566 1_555
B11 O0 1.395383 1_555
