# generated using pymatgen
data_V4O7F5
_symmetry_space_group_name_H-M   'P 1'
_cell_length_a   5.11398684
_cell_length_b   5.21298881
_cell_length_c   8.85823981
_cell_angle_alpha   73.34836792
_cell_angle_beta   73.84708772
_cell_angle_gamma   61.39671548
_symmetry_Int_Tables_number   1
_chemical_formula_structural   V4O7F5
_chemical_formula_sum   'V4 O7 F5'
_cell_volume   195.82606409
_cell_formula_units_Z   1
loop_
 _symmetry_equiv_pos_site_id
 _symmetry_equiv_pos_as_xyz
  1  'x, y, z'
loop_
 _atom_site_type_symbol
 _atom_site_label
 _atom_site_symmetry_multiplicity
 _atom_site_fract_x
 _atom_site_fract_y
 _atom_site_fract_z
 _atom_site_occupancy
  V  V0  1  0.21516845  0.27528005  0.22968522  1
  V  V1  1  0.04616671  0.01618072  0.98524010  1
  V  V2  1  0.45479039  0.50499040  0.48824817  1
  V  V3  1  0.74707594  0.71427090  0.74266311  1
  O  O0  1  0.10157285  0.64353282  0.58710843  1
  O  O1  1  0.08711593  0.06925110  0.17320528  1
  O  O2  1  0.59913755  0.57637916  0.66468800  1
  O  O3  1  0.42331685  0.39490892  0.33799674  1
  O  O4  1  0.41301037  0.84160079  0.91554869  1
  O  O5  1  0.95388882  0.36546479  0.88431361  1
  O  O6  1  0.05889395  0.60137683  0.12140742  1
  F  F0  1  0.46865189  0.85841953  0.38060398  1
  F  F1  1  0.58535763  0.13840564  0.09397350  1
  F  F2  1  0.56386626  0.12204137  0.62416005  1
  F  F3  1  0.91523366  0.91194774  0.84159998  1
  F  F4  1  0.92900174  0.32832525  0.41739772  1
loop_
_geom_bond_atom_site_label_1
_geom_bond_atom_site_label_2
_geom_bond_distance
_geom_bond_site_symmetry_2
O0 V2 1.668711 1_555
O0 V3 1.892741 1_455
O1 V0 1.731004 1_555
O1 V1 1.845597 1_554
O2 V3 1.631628 1_555
O2 V2 2.089151 1_555
O3 V2 1.664943 1_555
O3 V0 1.997326 1_555
O4 V1 1.664841 1_565
O4 V3 1.935374 1_555
O5 V1 1.678225 1_655
O5 V3 1.894414 1_555
O6 V0 1.624720 1_555
O6 V1 2.132867 1_564
F0 V2 1.841027 1_555
F0 V0 2.189073 1_565
F1 V0 1.862855 1_555
F1 V1 2.130314 1_654
F2 V2 1.917264 1_555
F2 V3 1.964644 1_545
F3 V1 1.892416 1_665
F3 V3 2.086850 1_555
F4 V0 1.872202 1_655
F4 V2 2.114036 1_555
