# generated using pymatgen
data_LiCoSnO4
_symmetry_space_group_name_H-M   'P 1'
_cell_length_a   5.94763533
_cell_length_b   5.94736037
_cell_length_c   8.46442766
_cell_angle_alpha   86.90335777
_cell_angle_beta   86.90313601
_cell_angle_gamma   89.08854499
_symmetry_Int_Tables_number   1
_chemical_formula_structural   LiCoSnO4
_chemical_formula_sum   'Li4 Co4 Sn4 O16'
_cell_volume   298.51079023
_cell_formula_units_Z   4
loop_
 _symmetry_equiv_pos_site_id
 _symmetry_equiv_pos_as_xyz
  1  'x, y, z'
loop_
 _atom_site_type_symbol
 _atom_site_label
 _atom_site_symmetry_multiplicity
 _atom_site_fract_x
 _atom_site_fract_y
 _atom_site_fract_z
 _atom_site_occupancy
  Li  Li0  1  0.25232737  0.49753128  0.37489558  1
  Li  Li1  1  0.75246867  0.99764020  0.87504674  1
  Li  Li2  1  0.74782796  0.50219549  0.62501158  1
  Li  Li3  1  0.24763661  0.00236655  0.12502918  1
  Co  Co0  1  0.49996318  0.99994671  0.50000080  1
  Co  Co1  1  0.25007326  0.75002797  0.75000014  1
  Co  Co2  1  0.99996673  0.50000047  0.99999011  1
  Co  Co3  1  0.74999299  0.25002240  0.25000817  1
  Sn  Sn0  1  0.74997126  0.75005004  0.24999987  1
  Sn  Sn1  1  0.25011538  0.25007710  0.74994874  1
  Sn  Sn2  1  0.99991800  0.99989623  0.50004946  1
  Sn  Sn3  1  0.49997734  0.50001119  0.00000085  1
  O  O0  1  0.02487309  0.51518953  0.76957834  1
  O  O1  1  0.52477260  0.01517982  0.26960768  1
  O  O2  1  0.73479631  0.22514671  0.48042583  1
  O  O3  1  0.23481080  0.72521879  0.98039559  1
  O  O4  1  0.26513229  0.77478878  0.51963330  1
  O  O5  1  0.76512105  0.27484621  0.01963150  1
  O  O6  1  0.97513652  0.48488375  0.23036967  1
  O  O7  1  0.47522098  0.98488346  0.73037107  1
  O  O8  1  0.97711217  0.01113479  0.25561366  1
  O  O9  1  0.47724375  0.51115809  0.75556900  1
  O  O10  1  0.73882926  0.77276518  0.49442001  1
  O  O11  1  0.23885511  0.27286474  0.99438338  1
  O  O12  1  0.26105911  0.22711481  0.50554458  1
  O  O13  1  0.76108369  0.72719107  0.00557168  1
  O  O14  1  0.02290845  0.98894525  0.74447224  1
  O  O15  1  0.52280406  0.48892640  0.24443025  1
loop_
_geom_bond_atom_site_label_1
_geom_bond_atom_site_label_2
_geom_bond_distance
_geom_bond_site_symmetry_2
Li0 O15 1.903043 1_555
Li0 O12 1.903563 1_555
Li0 O6 2.109970 1_455
Li0 O4 2.111421 1_555
Li1 O13 1.903126 1_556
Li1 O14 1.903384 1_655
Li1 O5 2.110291 1_566
Li1 O7 2.111088 1_555
Li2 O9 1.904078 1_555
Li2 O10 1.904116 1_555
Li2 O0 2.109646 1_655
Li2 O2 2.109717 1_555
Li3 O8 1.903859 1_455
Li3 O11 1.903957 1_554
Li3 O1 2.110061 1_555
Li3 O3 2.110350 1_544
Co0 O4 1.944714 1_555
Co0 O7 1.944875 1_555
Co0 O2 1.944893 1_565
Co0 O1 1.945069 1_565
Co0 O10 1.945435 1_555
Co0 O12 1.945535 1_565
Co1 O7 1.944774 1_555
Co1 O4 1.944848 1_555
Co1 O0 1.944913 1_555
Co1 O3 1.945088 1_555
Co1 O9 1.945399 1_555
Co1 O14 1.945571 1_555
Co2 O5 1.944763 1_556
Co2 O6 1.944962 1_556
Co2 O3 1.945018 1_655
Co2 O0 1.945241 1_655
Co2 O11 1.945348 1_655
Co2 O13 1.945544 1_556
Co3 O6 1.944783 1_555
Co3 O5 1.944937 1_555
Co3 O1 1.945016 1_555
Co3 O8 1.945273 1_555
Co3 O2 1.945287 1_555
Co3 O15 1.945622 1_555
O0 Sn1 2.060434 1_555
O1 Sn0 2.060332 1_545
O2 Sn2 2.060520 1_545
O3 Sn3 2.060547 1_556
O4 Sn2 2.060370 1_455
O5 Sn3 2.060302 1_555
O6 Sn0 2.060388 1_555
O7 Sn1 2.060248 1_565
O8 Sn2 2.078162 1_545
O8 Sn0 2.078473 1_545
O9 Sn3 2.078090 1_556
O9 Sn1 2.078412 1_555
O10 Sn0 2.077978 1_555
O10 Sn2 2.078479 1_555
O11 Sn1 2.078135 1_555
O11 Sn3 2.078681 1_556
O12 Sn1 2.078044 1_555
O12 Sn2 2.078949 1_445
O13 Sn0 2.078151 1_555
O13 Sn3 2.078702 1_555
O14 Sn2 2.078222 1_455
O14 Sn1 2.078832 1_565
O15 Sn3 2.078144 1_555
O15 Sn0 2.078716 1_555
