# generated using pymatgen
data_SrCd(IO2)4
_symmetry_space_group_name_H-M   'P 1'
_cell_length_a   8.62242100
_cell_length_b   15.41216500
_cell_length_c   20.78463800
_cell_angle_alpha   90.00000000
_cell_angle_beta   90.00000000
_cell_angle_gamma   90.00000000
_symmetry_Int_Tables_number   1
_chemical_formula_structural   SrCd(IO2)4
_chemical_formula_sum   'Sr8 Cd8 I32 O64'
_cell_volume   2762.07418428
_cell_formula_units_Z   8
loop_
 _symmetry_equiv_pos_site_id
 _symmetry_equiv_pos_as_xyz
  1  'x, y, z'
loop_
 _atom_site_type_symbol
 _atom_site_label
 _atom_site_symmetry_multiplicity
 _atom_site_fract_x
 _atom_site_fract_y
 _atom_site_fract_z
 _atom_site_occupancy
  Sr  Sr0  1  0.26583700  0.51955900  0.94970300  1
  Sr  Sr1  1  0.76583700  0.98044100  0.55029700  1
  Sr  Sr2  1  0.73416300  0.48044100  0.44970300  1
  Sr  Sr3  1  0.23416300  0.01955900  0.05029700  1
  Sr  Sr4  1  0.73416300  0.48044100  0.05029700  1
  Sr  Sr5  1  0.23416300  0.01955900  0.44970300  1
  Sr  Sr6  1  0.26583700  0.51955900  0.55029700  1
  Sr  Sr7  1  0.76583700  0.98044100  0.94970300  1
  Cd  Cd0  1  0.65221400  0.78415500  0.25000000  1
  Cd  Cd1  1  0.15221400  0.71584500  0.25000000  1
  Cd  Cd2  1  0.34778600  0.21584500  0.75000000  1
  Cd  Cd3  1  0.84778600  0.28415500  0.75000000  1
  Cd  Cd4  1  0.34382300  0.28251300  0.25000000  1
  Cd  Cd5  1  0.84382300  0.21748700  0.25000000  1
  Cd  Cd6  1  0.65617700  0.71748700  0.75000000  1
  Cd  Cd7  1  0.15617700  0.78251300  0.75000000  1
  I  I0  1  0.56127200  0.08081600  0.25000000  1
  I  I1  1  0.06127200  0.41918400  0.25000000  1
  I  I2  1  0.43872800  0.91918400  0.75000000  1
  I  I3  1  0.93872800  0.58081600  0.75000000  1
  I  I4  1  0.86055500  0.64495700  0.25000000  1
  I  I5  1  0.36055500  0.85504300  0.25000000  1
  I  I6  1  0.13944500  0.35504300  0.75000000  1
  I  I7  1  0.63944500  0.14495700  0.75000000  1
  I  I8  1  0.48976600  0.65226900  0.08980200  1
  I  I9  1  0.98976600  0.84773100  0.41019800  1
  I  I10  1  0.51023400  0.34773100  0.58980200  1
  I  I11  1  0.01023400  0.15226900  0.91019800  1
  I  I12  1  0.51023400  0.34773100  0.91019800  1
  I  I13  1  0.01023400  0.15226900  0.58980200  1
  I  I14  1  0.48976600  0.65226900  0.41019800  1
  I  I15  1  0.98976600  0.84773100  0.08980200  1
  I  I16  1  0.42255600  0.57709100  0.25000000  1
  I  I17  1  0.92255600  0.92290900  0.25000000  1
  I  I18  1  0.57744400  0.42290900  0.75000000  1
  I  I19  1  0.07744400  0.07709100  0.75000000  1
  I  I20  1  0.49515300  0.16692200  0.10070500  1
  I  I21  1  0.99515300  0.33307800  0.39929500  1
  I  I22  1  0.50484700  0.83307800  0.60070500  1
  I  I23  1  0.00484700  0.66692200  0.89929500  1
  I  I24  1  0.50484700  0.83307800  0.89929500  1
  I  I25  1  0.00484700  0.66692200  0.60070500  1
  I  I26  1  0.49515300  0.16692200  0.39929500  1
  I  I27  1  0.99515300  0.33307800  0.10070500  1
  I  I28  1  0.13278400  0.14130300  0.25000000  1
  I  I29  1  0.63278400  0.35869700  0.25000000  1
  I  I30  1  0.86721600  0.85869700  0.75000000  1
  I  I31  1  0.36721600  0.64130300  0.75000000  1
  O  O0  1  0.19552400  0.36806300  0.31558200  1
  O  O1  1  0.69552400  0.13193700  0.18441800  1
  O  O2  1  0.80447600  0.63193700  0.81558200  1
  O  O3  1  0.30447600  0.86806300  0.68441800  1
  O  O4  1  0.80447600  0.63193700  0.68441800  1
  O  O5  1  0.30447600  0.86806300  0.81558200  1
  O  O6  1  0.19552400  0.36806300  0.18441800  1
  O  O7  1  0.69552400  0.13193700  0.31558200  1
  O  O8  1  0.49259800  0.95639900  0.49361800  1
  O  O9  1  0.99259800  0.54360100  0.00638200  1
  O  O10  1  0.50740200  0.04360100  0.99361800  1
  O  O11  1  0.00740200  0.45639900  0.50638200  1
  O  O12  1  0.50740200  0.04360100  0.50638200  1
  O  O13  1  0.00740200  0.45639900  0.99361800  1
  O  O14  1  0.49259800  0.95639900  0.00638200  1
  O  O15  1  0.99259800  0.54360100  0.49361800  1
  O  O16  1  0.02805800  0.09117200  0.51370600  1
  O  O17  1  0.52805800  0.40882800  0.98629400  1
  O  O18  1  0.97194200  0.90882800  0.01370600  1
  O  O19  1  0.47194200  0.59117200  0.48629400  1
  O  O20  1  0.97194200  0.90882800  0.48629400  1
  O  O21  1  0.47194200  0.59117200  0.01370600  1
  O  O22  1  0.02805800  0.09117200  0.98629400  1
  O  O23  1  0.52805800  0.40882800  0.51370600  1
  O  O24  1  0.78811500  0.87554600  0.18476500  1
  O  O25  1  0.28811500  0.62445400  0.31523500  1
  O  O26  1  0.21188500  0.12445400  0.68476500  1
  O  O27  1  0.71188500  0.37554600  0.81523500  1
  O  O28  1  0.21188500  0.12445400  0.81523500  1
  O  O29  1  0.71188500  0.37554600  0.68476500  1
  O  O30  1  0.78811500  0.87554600  0.31523500  1
  O  O31  1  0.28811500  0.62445400  0.18476500  1
  O  O32  1  0.05974500  0.94370500  0.13622000  1
  O  O33  1  0.55974500  0.55629500  0.36378000  1
  O  O34  1  0.94025500  0.05629500  0.63622000  1
  O  O35  1  0.44025500  0.44370500  0.86378000  1
  O  O36  1  0.94025500  0.05629500  0.86378000  1
  O  O37  1  0.44025500  0.44370500  0.63622000  1
  O  O38  1  0.05974500  0.94370500  0.36378000  1
  O  O39  1  0.55974500  0.55629500  0.13622000  1
  O  O40  1  0.82403600  0.20422200  0.57884100  1
  O  O41  1  0.32403600  0.29577800  0.92115900  1
  O  O42  1  0.17596400  0.79577800  0.07884100  1
  O  O43  1  0.67596400  0.70422200  0.42115900  1
  O  O44  1  0.17596400  0.79577800  0.42115900  1
  O  O45  1  0.67596400  0.70422200  0.07884100  1
  O  O46  1  0.82403600  0.20422200  0.92115900  1
  O  O47  1  0.32403600  0.29577800  0.57884100  1
  O  O48  1  0.30305100  0.18573000  0.06145000  1
  O  O49  1  0.80305100  0.31427000  0.43855000  1
  O  O50  1  0.69694900  0.81427000  0.56145000  1
  O  O51  1  0.19694900  0.68573000  0.93855000  1
  O  O52  1  0.69694900  0.81427000  0.93855000  1
  O  O53  1  0.19694900  0.68573000  0.56145000  1
  O  O54  1  0.30305100  0.18573000  0.43855000  1
  O  O55  1  0.80305100  0.31427000  0.06145000  1
  O  O56  1  0.92832100  0.43649400  0.35756100  1
  O  O57  1  0.42832100  0.06350600  0.14243900  1
  O  O58  1  0.07167900  0.56350600  0.85756100  1
  O  O59  1  0.57167900  0.93649400  0.64243900  1
  O  O60  1  0.07167900  0.56350600  0.64243900  1
  O  O61  1  0.57167900  0.93649400  0.85756100  1
  O  O62  1  0.92832100  0.43649400  0.14243900  1
  O  O63  1  0.42832100  0.06350600  0.35756100  1
loop_
_geom_bond_atom_site_label_1
_geom_bond_atom_site_label_2
_geom_bond_distance
_geom_bond_site_symmetry_2
Cd0 O30 2.279363 1_555
Cd0 O24 2.279363 1_555
Cd0 I5 2.741877 1_555
Cd0 I4 2.798135 1_555
Cd1 O25 2.279363 1_555
Cd1 O31 2.279363 1_555
Cd1 I4 2.741877 1_455
Cd1 I5 2.798135 1_555
Cd2 O28 2.279363 1_555
Cd2 O26 2.279363 1_555
Cd2 I7 2.741877 1_555
Cd2 I6 2.798135 1_555
Cd3 O27 2.279363 1_555
Cd3 O29 2.279363 1_555
Cd3 I6 2.741877 1_655
Cd3 I7 2.798135 1_555
Cd4 O6 2.287263 1_555
Cd4 O0 2.287263 1_555
Cd4 I29 2.754349 1_555
Cd4 I28 2.836846 1_555
Cd5 O7 2.287263 1_555
Cd5 O1 2.287263 1_555
Cd5 I28 2.754349 1_655
Cd5 I29 2.836846 1_555
Cd6 O2 2.287263 1_555
Cd6 O4 2.287263 1_555
Cd6 I31 2.754349 1_555
Cd6 I30 2.836846 1_555
Cd7 O5 2.287263 1_555
Cd7 O3 2.287263 1_555
Cd7 I30 2.754349 1_455
Cd7 I31 2.836846 1_555
I0 O7 1.954171 1_555
I0 O1 1.954171 1_555
I0 O63 2.526518 1_555
I0 O57 2.526518 1_555
I1 O0 1.954171 1_555
I1 O6 1.954171 1_555
I1 O56 2.526518 1_455
I1 O62 2.526518 1_455
I2 O5 1.954171 1_555
I2 O3 1.954171 1_555
I2 O61 2.526518 1_555
I2 O59 2.526518 1_555
I3 O2 1.954171 1_555
I3 O4 1.954171 1_555
I3 O58 2.526518 1_655
I3 O60 2.526518 1_655
I8 O45 1.808478 1_555
I8 O21 1.847118 1_555
I8 O39 1.866230 1_555
I8 O31 2.665088 1_555
I9 O44 1.808478 1_655
I9 O20 1.847118 1_555
I9 O38 1.866230 1_655
I9 O30 2.665088 1_555
I10 O47 1.808478 1_555
I10 O23 1.847118 1_555
I10 O37 1.866230 1_555
I10 O29 2.665088 1_555
I11 O46 1.808478 1_455
I11 O22 1.847118 1_555
I11 O36 1.866230 1_455
I11 O28 2.665088 1_555
I12 O41 1.808478 1_555
I12 O17 1.847118 1_555
I12 O35 1.866230 1_555
I12 O27 2.665088 1_555
I13 O40 1.808478 1_455
I13 O16 1.847118 1_555
I13 O34 1.866230 1_455
I13 O26 2.665088 1_555
I14 O43 1.808478 1_555
I14 O19 1.847118 1_555
I14 O33 1.866230 1_555
I14 O25 2.665088 1_555
I15 O42 1.808478 1_655
I15 O18 1.847118 1_555
I15 O32 1.866230 1_655
I15 O24 2.665088 1_555
I16 O25 1.927443 1_555
I16 O31 1.927443 1_555
I16 O39 2.663573 1_555
I16 O33 2.663573 1_555
I17 O30 1.927443 1_555
I17 O24 1.927443 1_555
I17 O32 2.663573 1_655
I17 O38 2.663573 1_655
I18 O27 1.927443 1_555
I18 O29 1.927443 1_555
I18 O37 2.663573 1_555
I18 O35 2.663573 1_555
I19 O28 1.927443 1_555
I19 O26 1.927443 1_555
I19 O34 2.663573 1_455
I19 O36 2.663573 1_455
I20 O48 1.869045 1_555
I20 O57 1.903917 1_555
I20 O1 2.510583 1_555
I21 O49 1.869045 1_555
I21 O56 1.903917 1_555
I21 O0 2.510583 1_655
I22 O50 1.869045 1_555
I22 O59 1.903917 1_555
I22 O3 2.510583 1_555
I23 O51 1.869045 1_555
I23 O58 1.903917 1_555
I23 O2 2.510583 1_455
I24 O52 1.869045 1_555
I24 O61 1.903917 1_555
I24 O5 2.510583 1_555
I25 O53 1.869045 1_555
I25 O60 1.903917 1_555
I25 O4 2.510583 1_455
I26 O54 1.869045 1_555
I26 O63 1.903917 1_555
I26 O7 2.510583 1_555
I27 O55 1.869045 1_555
I27 O62 1.903917 1_555
I27 O6 2.510583 1_655
O8 Sr5 2.597340 1_565
O8 Sr1 2.660029 1_555
O9 Sr4 2.597340 1_555
O9 Sr0 2.660029 1_654
O10 O14 1.375840 1_546
O10 Sr7 2.597340 1_545
O10 Sr3 2.660029 1_556
O11 O15 1.375840 1_455
O11 Sr6 2.597340 1_555
O11 Sr2 2.660029 1_455
O12 O8 1.375840 1_545
O12 Sr1 2.597340 1_545
O12 Sr5 2.660029 1_555
O13 O9 1.375840 1_456
O13 Sr0 2.597340 1_555
O13 Sr4 2.660029 1_456
O14 Sr3 2.597340 1_565
O14 Sr7 2.660029 1_554
O15 Sr2 2.597340 1_555
O15 Sr6 2.660029 1_655
O16 Sr5 2.479111 1_555
O16 Sr1 2.933076 1_445
O17 Sr4 2.479111 1_556
O17 Sr0 2.933076 1_555
O18 Sr7 2.479111 1_554
O18 Sr3 2.933076 1_665
O19 Sr6 2.479111 1_555
O19 Sr2 2.933076 1_555
O20 Sr1 2.479111 1_555
O20 Sr5 2.933076 1_665
O21 Sr0 2.479111 1_554
O21 Sr4 2.933076 1_555
O22 Sr3 2.479111 1_556
O22 Sr7 2.933076 1_445
O23 Sr2 2.479111 1_555
O23 Sr6 2.933076 1_555
O32 Sr3 2.611097 1_565
O33 Sr2 2.611097 1_555
O34 Sr1 2.611097 1_545
O35 Sr0 2.611097 1_555
O36 Sr7 2.611097 1_545
O37 Sr6 2.611097 1_555
O38 Sr5 2.611097 1_565
O39 Sr4 2.611097 1_555
O48 Sr3 2.639233 1_555
O49 Sr2 2.639233 1_555
O50 Sr1 2.639233 1_555
O51 Sr0 2.639233 1_555
O52 Sr7 2.639233 1_555
O53 Sr6 2.639233 1_555
O54 Sr5 2.639233 1_555
O55 Sr4 2.639233 1_555
O56 Sr2 2.632331 1_555
O57 Sr3 2.632331 1_555
O58 Sr0 2.632331 1_555
O59 Sr1 2.632331 1_555
O60 Sr6 2.632331 1_555
O61 Sr7 2.632331 1_555
O62 Sr4 2.632331 1_555
O63 Sr5 2.632331 1_555
