# generated using pymatgen
data_KTcO4
_symmetry_space_group_name_H-M   'P 1'
_cell_length_a   5.63457647
_cell_length_b   5.63457451
_cell_length_c   7.45778148
_cell_angle_alpha   112.19530501
_cell_angle_beta   112.19530102
_cell_angle_gamma   90.00000014
_symmetry_Int_Tables_number   1
_chemical_formula_structural   KTcO4
_chemical_formula_sum   'K2 Tc2 O8'
_cell_volume   200.15190577
_cell_formula_units_Z   2
loop_
 _symmetry_equiv_pos_site_id
 _symmetry_equiv_pos_as_xyz
  1  'x, y, z'
loop_
 _atom_site_type_symbol
 _atom_site_label
 _atom_site_symmetry_multiplicity
 _atom_site_fract_x
 _atom_site_fract_y
 _atom_site_fract_z
 _atom_site_occupancy
  K  K0  1  0.37500000  0.12500000  0.75000000  1
  K  K1  1  0.62500000  0.87500000  0.25000000  1
  Tc  Tc0  1  0.87500000  0.62500000  0.75000000  1
  Tc  Tc1  1  0.12500000  0.37500000  0.25000000  1
  O  O0  1  0.91599605  0.32780596  0.59551553  1
  O  O1  1  0.26770957  0.41599605  0.09551553  1
  O  O2  1  0.82780596  0.17951948  0.09551553  1
  O  O3  1  0.67951948  0.76770957  0.59551553  1
  O  O4  1  0.32048052  0.23229043  0.40448447  1
  O  O5  1  0.17219404  0.82048052  0.90448447  1
  O  O6  1  0.73229043  0.58400395  0.90448447  1
  O  O7  1  0.08400395  0.67219404  0.40448447  1
loop_
_geom_bond_atom_site_label_1
_geom_bond_atom_site_label_2
_geom_bond_distance
_geom_bond_site_symmetry_2
K0 O7 2.771010 1_545
K0 O1 2.771010 1_556
K0 O4 2.771010 1_555
K0 O2 2.771011 1_556
K0 O6 2.839988 1_555
K0 O5 2.839988 1_545
K0 O3 2.839988 1_545
K0 O0 2.839988 1_455
K1 O0 2.771010 1_565
K1 O6 2.771010 1_554
K1 O3 2.771010 1_555
K1 O5 2.771011 1_554
K1 O1 2.839988 1_555
K1 O2 2.839988 1_565
K1 O4 2.839988 1_565
K1 O7 2.839988 1_655
O0 Tc0 1.711233 1_555
O1 Tc1 1.711233 1_555
O2 Tc1 1.711233 1_655
O3 Tc0 1.711233 1_555
O4 Tc1 1.711233 1_555
O5 Tc0 1.711233 1_455
O6 Tc0 1.711233 1_555
O7 Tc1 1.711233 1_555
