# generated using pymatgen
data_CsSi3HO7
_symmetry_space_group_name_H-M   'P 1'
_cell_length_a   4.99321500
_cell_length_b   10.54835100
_cell_length_c   14.39865700
_cell_angle_alpha   90.00000000
_cell_angle_beta   90.00000000
_cell_angle_gamma   90.00000000
_symmetry_Int_Tables_number   1
_chemical_formula_structural   CsSi3HO7
_chemical_formula_sum   'Cs4 Si12 H4 O28'
_cell_volume   758.37991986
_cell_formula_units_Z   4
loop_
 _symmetry_equiv_pos_site_id
 _symmetry_equiv_pos_as_xyz
  1  'x, y, z'
loop_
 _atom_site_type_symbol
 _atom_site_label
 _atom_site_symmetry_multiplicity
 _atom_site_fract_x
 _atom_site_fract_y
 _atom_site_fract_z
 _atom_site_occupancy
  Cs  Cs0  1  0.03062700  0.08123500  0.74986500  1
  Cs  Cs1  1  0.46937300  0.91876500  0.24986500  1
  Cs  Cs2  1  0.53062700  0.41876500  0.25013500  1
  Cs  Cs3  1  0.96937300  0.58123500  0.75013500  1
  Si  Si0  1  0.02115600  0.91609400  0.00779000  1
  Si  Si1  1  0.02583000  0.65130400  0.10765800  1
  Si  Si2  1  0.10295300  0.20384300  0.05584500  1
  Si  Si3  1  0.39704700  0.79615700  0.55584500  1
  Si  Si4  1  0.47417000  0.34869600  0.60765800  1
  Si  Si5  1  0.47884400  0.08390600  0.50779000  1
  Si  Si6  1  0.52115600  0.58390600  0.99221000  1
  Si  Si7  1  0.52583000  0.84869600  0.89234200  1
  Si  Si8  1  0.60295300  0.29615700  0.94415500  1
  Si  Si9  1  0.89704700  0.70384300  0.44415500  1
  Si  Si10  1  0.97417000  0.15130400  0.39234200  1
  Si  Si11  1  0.97884400  0.41609400  0.49221000  1
  H  H0  1  0.02682000  0.69569800  0.28682200  1
  H  H1  1  0.47318000  0.30430200  0.78682200  1
  H  H2  1  0.52682000  0.80430200  0.71317800  1
  H  H3  1  0.97318000  0.19569800  0.21317800  1
  O  O0  1  0.02586700  0.25946000  0.15692700  1
  O  O1  1  0.05435200  0.80574800  0.08647900  1
  O  O2  1  0.09316300  0.75031700  0.52881900  1
  O  O3  1  0.09871000  0.61967400  0.21225800  1
  O  O4  1  0.10072200  0.04765000  0.05955500  1
  O  O5  1  0.21378000  0.88916200  0.91814800  1
  O  O6  1  0.21388000  0.57671700  0.03003000  1
  O  O7  1  0.28612000  0.42328300  0.53003000  1
  O  O8  1  0.28622000  0.11083800  0.41814800  1
  O  O9  1  0.39927800  0.95235000  0.55955500  1
  O  O10  1  0.40129000  0.38032600  0.71225800  1
  O  O11  1  0.40683700  0.24968300  0.02881900  1
  O  O12  1  0.44564800  0.19425200  0.58647900  1
  O  O13  1  0.47413300  0.74054000  0.65692700  1
  O  O14  1  0.52586700  0.24054000  0.84307300  1
  O  O15  1  0.55435200  0.69425200  0.91352100  1
  O  O16  1  0.59316300  0.74968300  0.47118100  1
  O  O17  1  0.59871000  0.88032600  0.78774200  1
  O  O18  1  0.60072200  0.45235000  0.94044500  1
  O  O19  1  0.71378000  0.61083800  0.08185200  1
  O  O20  1  0.71388000  0.92328300  0.96997000  1
  O  O21  1  0.78612000  0.07671700  0.46997000  1
  O  O22  1  0.78622000  0.38916200  0.58185200  1
  O  O23  1  0.89927800  0.54765000  0.44044500  1
  O  O24  1  0.90129000  0.11967400  0.28774200  1
  O  O25  1  0.90683700  0.25031700  0.97118100  1
  O  O26  1  0.94564800  0.30574800  0.41352100  1
  O  O27  1  0.97413300  0.75946000  0.34307300  1
loop_
_geom_bond_atom_site_label_1
_geom_bond_atom_site_label_2
_geom_bond_distance
_geom_bond_site_symmetry_2
Cs0 O17 3.072434 1_445
Cs0 H1 3.271509 1_555
Cs0 O14 3.277171 1_555
Cs0 O5 3.288223 1_545
Cs0 O14 3.313186 1_455
Cs0 O12 3.354106 1_555
Cs0 O9 3.570073 1_545
Cs0 O17 3.582565 1_545
Cs0 O25 3.703758 1_455
Cs1 O24 3.072434 1_565
Cs1 H0 3.271509 1_555
Cs1 O27 3.277171 1_455
Cs1 O8 3.288223 1_565
Cs1 O27 3.313186 1_555
Cs1 O1 3.354106 1_555
Cs1 O4 3.570073 1_565
Cs1 O24 3.582565 1_465
Cs1 O16 3.703758 1_555
Cs2 O3 3.072434 1_555
Cs2 H3 3.271509 1_555
Cs2 O0 3.277171 1_655
Cs2 O19 3.288223 1_555
Cs2 O0 3.313186 1_555
Cs2 O26 3.354106 1_555
Cs2 O23 3.570073 1_555
Cs2 O3 3.582565 1_655
Cs2 O11 3.703758 1_555
Cs3 O10 3.072434 1_655
Cs3 H2 3.271509 1_555
Cs3 O13 3.277171 1_555
Cs3 O22 3.288223 1_555
Cs3 O13 3.313186 1_655
Cs3 O15 3.354106 1_555
Cs3 O18 3.570073 1_555
Cs3 O10 3.582565 1_555
Cs3 O2 3.703758 1_655
H0 O27 1.085164 1_455
H0 O3 1.387301 1_555
H1 O14 1.085164 1_555
H1 O10 1.387301 1_555
H2 O13 1.085164 1_555
H2 O17 1.387301 1_555
H3 O0 1.085164 1_655
H3 O24 1.387301 1_555
O0 Si2 1.615751 1_555
O1 Si0 1.632796 1_555
O1 Si1 1.663532 1_555
O2 Si9 1.638697 1_455
O2 Si3 1.639394 1_555
O3 Si1 1.584955 1_555
O4 Si0 1.624527 1_545
O4 Si2 1.648482 1_555
O5 Si0 1.634552 1_556
O5 Si7 1.657722 1_555
O6 Si6 1.629833 1_554
O6 Si1 1.658318 1_555
O7 Si11 1.629833 1_455
O7 Si4 1.658318 1_555
O8 Si5 1.634552 1_555
O8 Si10 1.657722 1_455
O9 Si5 1.624527 1_565
O9 Si3 1.648482 1_555
O10 Si4 1.584955 1_555
O11 Si8 1.638697 1_554
O11 Si2 1.639394 1_555
O12 Si5 1.632796 1_555
O12 Si4 1.663532 1_555
O13 Si3 1.615751 1_555
O14 Si8 1.615751 1_555
O15 Si6 1.632796 1_555
O15 Si7 1.663532 1_555
O16 Si3 1.638697 1_555
O16 Si9 1.639394 1_555
O17 Si7 1.584955 1_555
O18 Si6 1.624527 1_555
O18 Si8 1.648482 1_555
O19 Si6 1.634552 1_554
O19 Si1 1.657722 1_655
O20 Si0 1.629833 1_656
O20 Si7 1.658318 1_555
O21 Si5 1.629833 1_555
O21 Si10 1.658318 1_555
O22 Si11 1.634552 1_555
O22 Si4 1.657722 1_555
O23 Si11 1.624527 1_555
O23 Si9 1.648482 1_555
O24 Si10 1.584955 1_555
O25 Si2 1.638697 1_656
O25 Si8 1.639394 1_555
O26 Si11 1.632796 1_555
O26 Si10 1.663532 1_555
O27 Si9 1.615751 1_555
