# generated using pymatgen
data_Na2FePCO7
_symmetry_space_group_name_H-M   'P 1'
_cell_length_a   6.53056700
_cell_length_b   10.36318100
_cell_length_c   10.49619138
_cell_angle_alpha   59.78900096
_cell_angle_beta   90.00000000
_cell_angle_gamma   90.00000000
_symmetry_Int_Tables_number   1
_chemical_formula_structural   Na2FePCO7
_chemical_formula_sum   'Na8 Fe4 P4 C4 O28'
_cell_volume   613.87370495
_cell_formula_units_Z   4
loop_
 _symmetry_equiv_pos_site_id
 _symmetry_equiv_pos_as_xyz
  1  'x, y, z'
loop_
 _atom_site_type_symbol
 _atom_site_label
 _atom_site_symmetry_multiplicity
 _atom_site_fract_x
 _atom_site_fract_y
 _atom_site_fract_z
 _atom_site_occupancy
  Na  Na0  1  0.26053100  0.08026600  0.57736000  1
  Na  Na1  1  0.23946900  0.08026600  0.07736000  1
  Na  Na2  1  0.48644400  0.26350600  0.74143700  1
  Na  Na3  1  0.01355600  0.26350600  0.24143700  1
  Na  Na4  1  0.98644400  0.73649400  0.75856300  1
  Na  Na5  1  0.51355600  0.73649400  0.25856300  1
  Na  Na6  1  0.76053100  0.91973400  0.92264000  1
  Na  Na7  1  0.73946900  0.91973400  0.42264000  1
  Fe  Fe0  1  0.75311700  0.34549400  0.93541800  1
  Fe  Fe1  1  0.74688300  0.34549400  0.43541800  1
  Fe  Fe2  1  0.25311700  0.65450600  0.56458200  1
  Fe  Fe3  1  0.24688300  0.65450600  0.06458200  1
  P  P0  1  0.25183900  0.42423000  0.93326300  1
  P  P1  1  0.24816100  0.42423000  0.43326300  1
  P  P2  1  0.75183900  0.57577000  0.56673700  1
  P  P3  1  0.74816100  0.57577000  0.06673700  1
  C  C0  1  0.75671600  0.06464500  0.60297300  1
  C  C1  1  0.74328400  0.06464500  0.10297300  1
  C  C2  1  0.25671600  0.93535500  0.89702700  1
  C  C3  1  0.24328400  0.93535500  0.39702700  1
  O  O0  1  0.26208800  0.07571600  0.81320100  1
  O  O1  1  0.23791200  0.07571600  0.31320100  1
  O  O2  1  0.73366600  0.12867000  0.95848600  1
  O  O3  1  0.76633400  0.12867000  0.45848600  1
  O  O4  1  0.73978000  0.15699900  0.65320700  1
  O  O5  1  0.76022000  0.15699900  0.15320700  1
  O  O6  1  0.06147400  0.32246900  0.96183900  1
  O  O7  1  0.43865400  0.32619400  0.94619400  1
  O  O8  1  0.06134600  0.32619400  0.44619400  1
  O  O9  1  0.43852600  0.32246900  0.46183900  1
  O  O10  1  0.74219500  0.43194400  0.71913800  1
  O  O11  1  0.75780500  0.43194400  0.21913800  1
  O  O12  1  0.24842500  0.46909100  0.55465500  1
  O  O13  1  0.25157500  0.46909100  0.05465500  1
  O  O14  1  0.74842500  0.53090900  0.94534500  1
  O  O15  1  0.75157500  0.53090900  0.44534500  1
  O  O16  1  0.24219500  0.56805600  0.78086200  1
  O  O17  1  0.25780500  0.56805600  0.28086200  1
  O  O18  1  0.56147400  0.67753100  0.53816100  1
  O  O19  1  0.93865400  0.67380600  0.55380600  1
  O  O20  1  0.93852600  0.67753100  0.03816100  1
  O  O21  1  0.56134600  0.67380600  0.05380600  1
  O  O22  1  0.23978000  0.84300100  0.84679300  1
  O  O23  1  0.26022000  0.84300100  0.34679300  1
  O  O24  1  0.23366600  0.87133000  0.54151400  1
  O  O25  1  0.26633400  0.87133000  0.04151400  1
  O  O26  1  0.76208800  0.92428400  0.68679900  1
  O  O27  1  0.73791200  0.92428400  0.18679900  1
loop_
_geom_bond_atom_site_label_1
_geom_bond_atom_site_label_2
_geom_bond_distance
_geom_bond_site_symmetry_2
Na0 O24 2.383373 1_545
Na0 O0 2.452065 1_555
Na0 O9 2.461434 1_555
Na0 O8 2.559629 1_555
Na0 O22 2.657811 1_545
Na0 O1 2.800585 1_555
Na1 O25 2.383373 1_545
Na1 O1 2.452065 1_555
Na1 O6 2.461434 1_554
Na1 O7 2.559629 1_554
Na1 O23 2.657811 1_545
Na1 O0 2.800585 1_554
Na2 O0 2.241916 1_555
Na2 O10 2.340971 1_555
Na2 O4 2.416960 1_555
Na2 O7 2.558020 1_555
Na2 O2 2.558440 1_555
Na2 O12 2.568136 1_555
Na2 O9 2.697996 1_555
Na3 O1 2.241916 1_555
Na3 O11 2.340971 1_455
Na3 O5 2.416960 1_455
Na3 O8 2.558020 1_555
Na3 O3 2.558440 1_455
Na3 O13 2.568136 1_555
Na3 O6 2.697996 1_554
Na4 O26 2.241916 1_555
Na4 O16 2.340971 1_655
Na4 O22 2.416960 1_655
Na4 O19 2.558020 1_555
Na4 O24 2.558440 1_655
Na4 O14 2.568136 1_555
Na4 O20 2.697996 1_556
Na5 O27 2.241916 1_555
Na5 O17 2.340971 1_555
Na5 O23 2.416960 1_555
Na5 O21 2.558020 1_555
Na5 O25 2.558440 1_555
Na5 O15 2.568136 1_555
Na5 O18 2.697996 1_555
Na6 O2 2.383373 1_565
Na6 O26 2.452065 1_555
Na6 O20 2.461434 1_556
Na6 O21 2.559629 1_556
Na6 O4 2.657811 1_565
Na6 O27 2.800585 1_556
Na7 O3 2.383373 1_565
Na7 O27 2.452065 1_555
Na7 O18 2.461434 1_555
Na7 O19 2.559629 1_555
Na7 O5 2.657811 1_565
Na7 O26 2.800585 1_555
Fe0 O14 1.976209 1_555
Fe0 O10 1.978484 1_555
Fe0 O6 2.030375 1_655
Fe0 O7 2.060920 1_555
Fe0 O5 2.133000 1_556
Fe0 O2 2.139203 1_555
Fe1 O15 1.976209 1_555
Fe1 O11 1.978484 1_555
Fe1 O9 2.030375 1_555
Fe1 O8 2.060920 1_655
Fe1 O4 2.133000 1_555
Fe1 O3 2.139203 1_555
Fe2 O12 1.976209 1_555
Fe2 O16 1.978484 1_555
Fe2 O18 2.030375 1_555
Fe2 O19 2.060920 1_455
Fe2 O23 2.133000 1_555
Fe2 O24 2.139203 1_555
Fe3 O13 1.976209 1_555
Fe3 O17 1.978484 1_555
Fe3 O20 2.030375 1_455
Fe3 O21 2.060920 1_555
Fe3 O22 2.133000 1_554
Fe3 O25 2.139203 1_555
C0 O26 1.266182 1_545
C0 O4 1.309236 1_555
C0 O3 1.315861 1_555
C1 O27 1.266182 1_545
C1 O5 1.309236 1_555
C1 O2 1.315861 1_554
C2 O0 1.266182 1_565
C2 O22 1.309236 1_555
C2 O25 1.315861 1_556
C3 O1 1.266182 1_565
C3 O23 1.309236 1_555
C3 O24 1.315861 1_555
O6 P0 1.558615 1_555
O7 P0 1.549275 1_555
O8 P1 1.549275 1_555
O9 P1 1.558615 1_555
O10 P2 1.544320 1_555
O11 P3 1.544320 1_555
O12 P1 1.560685 1_555
O13 P0 1.560685 1_554
O14 P3 1.560685 1_556
O15 P2 1.560685 1_555
O16 P0 1.544320 1_555
O17 P1 1.544320 1_555
O18 P2 1.558615 1_555
O19 P2 1.549275 1_555
O20 P3 1.558615 1_555
O21 P3 1.549275 1_555
