# generated using pymatgen
data_Li2Mn(PO3)4
_symmetry_space_group_name_H-M   'P 1'
_cell_length_a   9.53097300
_cell_length_b   8.07374200
_cell_length_c   15.59872603
_cell_angle_alpha   59.02130273
_cell_angle_beta   90.00000000
_cell_angle_gamma   90.00000000
_symmetry_Int_Tables_number   1
_chemical_formula_structural   Li2Mn(PO3)4
_chemical_formula_sum   'Li8 Mn4 P16 O48'
_cell_volume   1029.11477452
_cell_formula_units_Z   4
loop_
 _symmetry_equiv_pos_site_id
 _symmetry_equiv_pos_as_xyz
  1  'x, y, z'
loop_
 _atom_site_type_symbol
 _atom_site_label
 _atom_site_symmetry_multiplicity
 _atom_site_fract_x
 _atom_site_fract_y
 _atom_site_fract_z
 _atom_site_occupancy
  Li  Li0  1  0.69138900  0.45653500  0.67852500  1
  Li  Li1  1  0.19138900  0.54346500  0.82147500  1
  Li  Li2  1  0.24911100  0.49425200  0.01030500  1
  Li  Li3  1  0.75088900  0.50574800  0.98969500  1
  Li  Li4  1  0.80861100  0.45653500  0.17852500  1
  Li  Li5  1  0.30861100  0.54346500  0.32147500  1
  Li  Li6  1  0.25088900  0.49425200  0.51030500  1
  Li  Li7  1  0.74911100  0.50574800  0.48969500  1
  Mn  Mn0  1  0.75012500  0.88506600  0.99538100  1
  Mn  Mn1  1  0.24987500  0.11493400  0.00461900  1
  Mn  Mn2  1  0.74987500  0.88506600  0.49538100  1
  Mn  Mn3  1  0.25012500  0.11493400  0.50461900  1
  P  P0  1  0.49742300  0.19140500  0.63922000  1
  P  P1  1  0.99280300  0.53198600  0.63947200  1
  P  P2  1  0.99013100  0.89240800  0.65365800  1
  P  P3  1  0.49454100  0.80525500  0.65267300  1
  P  P4  1  0.49013100  0.10759200  0.84634200  1
  P  P5  1  0.99454100  0.19474500  0.84732700  1
  P  P6  1  0.99742300  0.80859500  0.86078000  1
  P  P7  1  0.49280300  0.46801400  0.86052800  1
  P  P8  1  0.50719700  0.53198600  0.13947200  1
  P  P9  1  0.00257700  0.19140500  0.13922000  1
  P  P10  1  0.00545900  0.80525500  0.15267300  1
  P  P11  1  0.50986900  0.89240800  0.15365800  1
  P  P12  1  0.50545900  0.19474500  0.34732700  1
  P  P13  1  0.00986900  0.10759200  0.34634200  1
  P  P14  1  0.00719700  0.46801400  0.36052800  1
  P  P15  1  0.50257700  0.80859500  0.36078000  1
  O  O0  1  0.38188200  0.26368200  0.56210000  1
  O  O1  1  0.86322300  0.60269400  0.57335200  1
  O  O2  1  0.38196800  0.86989300  0.57532900  1
  O  O3  1  0.87704000  0.97144200  0.57670300  1
  O  O4  1  0.12336000  0.48341800  0.60616300  1
  O  O5  1  0.62714200  0.31271900  0.61680800  1
  O  O6  1  0.12434500  0.00139700  0.63626400  1
  O  O7  1  0.62413700  0.71382300  0.63936100  1
  O  O8  1  0.54491200  0.97583900  0.67005900  1
  O  O9  1  0.03392800  0.67240200  0.68175100  1
  O  O10  1  0.42345800  0.15647100  0.74061600  1
  O  O11  1  0.92432800  0.34875300  0.74033100  1
  O  O12  1  0.92345800  0.84352900  0.75938400  1
  O  O13  1  0.42432800  0.65124700  0.75966900  1
  O  O14  1  0.53392800  0.32759800  0.81824900  1
  O  O15  1  0.04491200  0.02416100  0.82994100  1
  O  O16  1  0.62434500  0.99860300  0.86373600  1
  O  O17  1  0.12413700  0.28617700  0.86063900  1
  O  O18  1  0.62336000  0.51658200  0.89383700  1
  O  O19  1  0.12714200  0.68728100  0.88319200  1
  O  O20  1  0.37704000  0.02855800  0.92329700  1
  O  O21  1  0.88196800  0.13010700  0.92467100  1
  O  O22  1  0.36322300  0.39730600  0.92664800  1
  O  O23  1  0.88188200  0.73631800  0.93790000  1
  O  O24  1  0.63677700  0.60269400  0.07335200  1
  O  O25  1  0.11811800  0.26368200  0.06210000  1
  O  O26  1  0.11803200  0.86989300  0.07532900  1
  O  O27  1  0.62296000  0.97144200  0.07670300  1
  O  O28  1  0.37664000  0.48341800  0.10616300  1
  O  O29  1  0.87285800  0.31271900  0.11680800  1
  O  O30  1  0.87586300  0.71382300  0.13936100  1
  O  O31  1  0.37565500  0.00139700  0.13626400  1
  O  O32  1  0.46607200  0.67240200  0.18175100  1
  O  O33  1  0.95508800  0.97583900  0.17005900  1
  O  O34  1  0.57567200  0.34875300  0.24033100  1
  O  O35  1  0.07654200  0.15647100  0.24061600  1
  O  O36  1  0.07567200  0.65124700  0.25966900  1
  O  O37  1  0.57654200  0.84352900  0.25938400  1
  O  O38  1  0.96607200  0.32759800  0.31824900  1
  O  O39  1  0.45508800  0.02416100  0.32994100  1
  O  O40  1  0.87565500  0.99860300  0.36373600  1
  O  O41  1  0.37586300  0.28617700  0.36063900  1
  O  O42  1  0.87664000  0.51658200  0.39383700  1
  O  O43  1  0.37285800  0.68728100  0.38319200  1
  O  O44  1  0.61803200  0.13010700  0.42467100  1
  O  O45  1  0.12296000  0.02855800  0.42329700  1
  O  O46  1  0.13677700  0.39730600  0.42664800  1
  O  O47  1  0.61811800  0.73631800  0.43790000  1
loop_
_geom_bond_atom_site_label_1
_geom_bond_atom_site_label_2
_geom_bond_distance
_geom_bond_site_symmetry_2
Li0 O7 1.947500 1_555
Li0 O5 1.949546 1_555
Li0 O1 2.184775 1_555
Li0 O14 2.398035 1_555
Li0 O11 2.398349 1_555
Li1 O17 1.947500 1_555
Li1 O19 1.949546 1_555
Li1 O22 2.184775 1_555
Li1 O9 2.398035 1_555
Li1 O13 2.398349 1_555
Li2 O28 1.893726 1_555
Li2 O25 2.031897 1_555
Li2 O19 2.128517 1_554
Li2 O22 2.133040 1_554
Li3 O18 1.893726 1_555
Li3 O23 2.031897 1_555
Li3 O29 2.128517 1_556
Li3 O24 2.133040 1_556
Li4 O30 1.947500 1_555
Li4 O29 1.949546 1_555
Li4 O24 2.184775 1_555
Li4 O38 2.398035 1_555
Li4 O34 2.398349 1_555
Li5 O41 1.947500 1_555
Li5 O43 1.949546 1_555
Li5 O46 2.184775 1_555
Li5 O32 2.398035 1_555
Li5 O36 2.398349 1_555
Li6 O4 1.893726 1_555
Li6 O0 2.031897 1_555
Li6 O43 2.128517 1_555
Li6 O46 2.133040 1_555
Li7 O42 1.893726 1_555
Li7 O47 2.031897 1_555
Li7 O5 2.128517 1_555
Li7 O1 2.133040 1_555
Mn0 O21 2.112646 1_565
Mn0 O27 2.115447 1_556
Mn0 O16 2.134588 1_555
Mn0 O23 2.220745 1_555
Mn0 O24 2.233696 1_556
Mn0 O30 2.279305 1_556
Mn1 O26 2.112646 1_545
Mn1 O20 2.115447 1_554
Mn1 O31 2.134588 1_555
Mn1 O25 2.220745 1_555
Mn1 O22 2.233696 1_554
Mn1 O17 2.279305 1_554
Mn2 O44 2.112646 1_565
Mn2 O3 2.115447 1_555
Mn2 O40 2.134588 1_555
Mn2 O47 2.220745 1_555
Mn2 O1 2.233696 1_555
Mn2 O7 2.279305 1_555
Mn3 O2 2.112646 1_545
Mn3 O45 2.115447 1_555
Mn3 O6 2.134588 1_555
Mn3 O0 2.220745 1_555
Mn3 O46 2.233696 1_555
Mn3 O41 2.279305 1_555
O0 P0 1.509204 1_555
O1 P1 1.519479 1_555
O2 P3 1.493632 1_555
O3 P2 1.490438 1_555
O4 P1 1.477102 1_455
O5 P0 1.502537 1_555
O6 P2 1.496153 1_445
O7 P3 1.507155 1_555
O8 P3 1.607904 1_555
O8 P0 1.613527 1_565
O9 P1 1.625878 1_455
O9 P2 1.649277 1_455
O10 P4 1.615359 1_555
O10 P0 1.618300 1_555
O11 P5 1.625768 1_555
O11 P1 1.641246 1_555
O12 P2 1.615359 1_555
O12 P6 1.618300 1_555
O13 P3 1.625768 1_555
O13 P7 1.641246 1_555
O14 P7 1.625878 1_555
O14 P4 1.649277 1_555
O15 P5 1.607904 1_455
O15 P6 1.613527 1_445
O16 P4 1.496153 1_565
O17 P5 1.507155 1_455
O18 P7 1.477102 1_555
O19 P6 1.502537 1_455
O20 P4 1.490438 1_555
O21 P5 1.493632 1_555
O22 P7 1.519479 1_555
O23 P6 1.509204 1_555
O24 P8 1.519479 1_555
O25 P9 1.509204 1_555
O26 P10 1.493632 1_555
O27 P11 1.490438 1_555
O28 P8 1.477102 1_555
O29 P9 1.502537 1_655
O30 P10 1.507155 1_655
O31 P11 1.496153 1_545
O32 P8 1.625878 1_555
O32 P11 1.649277 1_555
O33 P10 1.607904 1_655
O33 P9 1.613527 1_665
O34 P12 1.625768 1_555
O34 P8 1.641246 1_555
O35 P13 1.615359 1_555
O35 P9 1.618300 1_555
O36 P10 1.625768 1_555
O36 P14 1.641246 1_555
O37 P11 1.615359 1_555
O37 P15 1.618300 1_555
O38 P14 1.625878 1_655
O38 P13 1.649277 1_655
O39 P12 1.607904 1_555
O39 P15 1.613527 1_545
O40 P13 1.496153 1_665
O41 P12 1.507155 1_555
O42 P14 1.477102 1_655
O43 P15 1.502537 1_555
O44 P12 1.493632 1_555
O45 P13 1.490438 1_555
O46 P14 1.519479 1_555
O47 P15 1.509204 1_555
