# generated using pymatgen
data_LiNiSbO4
_symmetry_space_group_name_H-M   'P 1'
_cell_length_a   6.05658700
_cell_length_b   8.63105911
_cell_length_c   6.21168947
_cell_angle_alpha   89.99959308
_cell_angle_beta   90.00001469
_cell_angle_gamma   89.99999891
_symmetry_Int_Tables_number   1
_chemical_formula_structural   LiNiSbO4
_chemical_formula_sum   'Li4 Ni4 Sb4 O16'
_cell_volume   324.71457874
_cell_formula_units_Z   4
loop_
 _symmetry_equiv_pos_site_id
 _symmetry_equiv_pos_as_xyz
  1  'x, y, z'
loop_
 _atom_site_type_symbol
 _atom_site_label
 _atom_site_symmetry_multiplicity
 _atom_site_fract_x
 _atom_site_fract_y
 _atom_site_fract_z
 _atom_site_occupancy
  Li  Li0  1  0.25000000  0.10728500  0.99999900  1
  Li  Li1  1  0.75000000  0.60731000  0.49999900  1
  Li  Li2  1  0.75000000  0.89271500  0.00000200  1
  Li  Li3  1  0.25000000  0.39268900  0.50000200  1
  Ni  Ni0  1  0.99999900  0.99999900  0.50001200  1
  Ni  Ni1  1  0.49999600  0.99999500  0.50000500  1
  Ni  Ni2  1  0.50000200  0.50001000  0.99999500  1
  Ni  Ni3  1  0.00000500  0.49999800  0.99998400  1
  Sb  Sb0  1  0.75000000  0.24999400  0.25001100  1
  Sb  Sb1  1  0.24999900  0.75000600  0.74999000  1
  Sb  Sb2  1  0.74999900  0.24999300  0.74998900  1
  Sb  Sb3  1  0.24999900  0.75000600  0.25001100  1
  O  O0  1  0.52382600  0.25222600  0.00000000  1
  O  O1  1  0.02380800  0.75220800  0.50000000  1
  O  O2  1  0.97617400  0.25222600  0.00000000  1
  O  O3  1  0.47619200  0.75220800  0.50000000  1
  O  O4  1  0.02382700  0.74777400  0.99999900  1
  O  O5  1  0.52380700  0.24779200  0.50000100  1
  O  O6  1  0.47617300  0.74777400  0.00000000  1
  O  O7  1  0.97619300  0.24779200  0.50000100  1
  O  O8  1  0.75000000  0.47747400  0.22972000  1
  O  O9  1  0.25000000  0.97747500  0.72974000  1
  O  O10  1  0.75000000  0.47747400  0.77026600  1
  O  O11  1  0.25000000  0.97747500  0.27024800  1
  O  O12  1  0.25000100  0.52252700  0.77027800  1
  O  O13  1  0.75000000  0.02252400  0.27026100  1
  O  O14  1  0.25000000  0.52252700  0.22973400  1
  O  O15  1  0.75000000  0.02252400  0.72975400  1
loop_
_geom_bond_atom_site_label_1
_geom_bond_atom_site_label_2
_geom_bond_distance
_geom_bond_site_symmetry_2
Li0 O11 2.018244 1_546
Li0 O9 2.018309 1_545
Li0 O2 2.077365 1_456
Li0 O0 2.077365 1_556
Li1 O10 2.018461 1_555
Li1 O8 2.018537 1_555
Li1 O3 2.077055 1_555
Li1 O1 2.077055 1_655
Li2 O15 2.018234 1_564
Li2 O13 2.018304 1_565
Li2 O4 2.077370 1_654
Li2 O6 2.077370 1_555
Li3 O14 2.018476 1_555
Li3 O12 2.018531 1_555
Li3 O5 2.077045 1_555
Li3 O7 2.077045 1_455
Ni0 O9 2.089683 1_655
Ni0 O15 2.089736 1_565
Ni0 O13 2.089772 1_565
Ni0 O11 2.089838 1_655
Ni0 O1 2.143555 1_655
Ni0 O7 2.143571 1_565
Ni1 O9 2.089688 1_555
Ni1 O13 2.089768 1_565
Ni1 O11 2.089782 1_555
Ni1 O15 2.089791 1_565
Ni1 O3 2.143518 1_555
Ni1 O5 2.143607 1_565
Ni2 O12 2.089630 1_555
Ni2 O8 2.089666 1_556
Ni2 O10 2.089686 1_555
Ni2 O14 2.089730 1_556
Ni2 O6 2.143330 1_556
Ni2 O0 2.143500 1_556
Ni3 O12 2.089572 1_555
Ni3 O10 2.089660 1_455
Ni3 O8 2.089735 1_456
Ni3 O14 2.089756 1_556
Ni3 O2 2.143400 1_456
Ni3 O4 2.143431 1_555
O0 Sb2 2.070895 1_554
O0 Sb0 2.070898 1_555
O1 Sb3 2.070862 1_555
O1 Sb1 2.070866 1_555
O2 Sb0 2.070898 1_555
O2 Sb2 2.070902 1_554
O3 Sb3 2.070869 1_555
O3 Sb1 2.070874 1_555
O4 Sb1 2.070881 1_555
O4 Sb3 2.070895 1_556
O5 Sb2 2.070861 1_555
O5 Sb0 2.070874 1_555
O6 Sb1 2.070893 1_554
O6 Sb3 2.070899 1_555
O7 Sb2 2.070869 1_555
O7 Sb0 2.070874 1_555
O8 Sb0 1.967434 1_555
O9 Sb1 1.967323 1_555
O10 Sb2 1.967439 1_555
O11 Sb3 1.967320 1_555
O12 Sb1 1.967424 1_555
O13 Sb0 1.967331 1_555
O14 Sb3 1.967422 1_555
O15 Sb2 1.967319 1_555
