# generated using pymatgen
data_Co2O3F
_symmetry_space_group_name_H-M   'P 1'
_cell_length_a   9.25208999
_cell_length_b   9.25208999
_cell_length_c   4.38752077
_cell_angle_alpha   87.46389071
_cell_angle_beta   87.46389071
_cell_angle_gamma   36.99874312
_symmetry_Int_Tables_number   1
_chemical_formula_structural   Co2O3F
_chemical_formula_sum   'Co8 O12 F4'
_cell_volume   225.77506933
_cell_formula_units_Z   4
loop_
 _symmetry_equiv_pos_site_id
 _symmetry_equiv_pos_as_xyz
  1  'x, y, z'
loop_
 _atom_site_type_symbol
 _atom_site_label
 _atom_site_symmetry_multiplicity
 _atom_site_fract_x
 _atom_site_fract_y
 _atom_site_fract_z
 _atom_site_occupancy
  Co  Co0  1  0.74318300  0.74318300  0.47407000  1
  Co  Co1  1  0.25681700  0.25681700  0.52593000  1
  Co  Co2  1  0.00000000  0.00000000  0.50000000  1
  Co  Co3  1  0.50000000  0.50000000  0.50000000  1
  Co  Co4  1  0.37069000  0.87888400  0.00087300  1
  Co  Co5  1  0.12111600  0.62931000  0.99912700  1
  Co  Co6  1  0.87888400  0.37069000  0.00087300  1
  Co  Co7  1  0.62931000  0.12111600  0.99912700  1
  O  O0  1  0.07692900  0.07692900  0.81179400  1
  O  O1  1  0.32829100  0.32829100  0.80900500  1
  O  O2  1  0.95305100  0.45080900  0.69503700  1
  O  O3  1  0.70217100  0.19983700  0.69307300  1
  O  O4  1  0.45080900  0.95305100  0.69503700  1
  O  O5  1  0.19983700  0.70217100  0.69307300  1
  O  O6  1  0.80016300  0.29782900  0.30692700  1
  O  O7  1  0.04694900  0.54919100  0.30496300  1
  O  O8  1  0.54919100  0.04694900  0.30496300  1
  O  O9  1  0.29782900  0.80016300  0.30692700  1
  O  O10  1  0.92307100  0.92307100  0.18820600  1
  O  O11  1  0.67170900  0.67170900  0.19099500  1
  F  F0  1  0.81900300  0.81900300  0.77946800  1
  F  F1  1  0.57233300  0.57233300  0.78659300  1
  F  F2  1  0.42766700  0.42766700  0.21340700  1
  F  F3  1  0.18099700  0.18099700  0.22053200  1
loop_
_geom_bond_atom_site_label_1
_geom_bond_atom_site_label_2
_geom_bond_distance
_geom_bond_site_symmetry_2
Co0 O11 1.805827 1_555
Co0 O7 1.883268 1_655
Co0 O8 1.883268 1_565
Co0 O2 1.890060 1_555
Co0 O4 1.890060 1_555
Co0 F0 1.931842 1_555
Co1 O1 1.805827 1_555
Co1 O4 1.883268 1_545
Co1 O2 1.883268 1_455
Co1 O7 1.890060 1_555
Co1 O8 1.890060 1_555
Co1 F3 1.931842 1_555
Co2 O9 1.877040 1_545
Co2 O6 1.877040 1_455
Co2 O3 1.877040 1_455
Co2 O5 1.877040 1_545
Co2 O0 1.966250 1_555
Co2 O10 1.966250 1_445
Co3 F2 1.827897 1_555
Co3 F1 1.827897 1_555
Co3 O9 1.887725 1_555
Co3 O6 1.887725 1_555
Co3 O3 1.887725 1_555
Co3 O5 1.887725 1_555
Co4 O9 1.845439 1_555
Co4 O4 1.861157 1_554
Co4 O0 1.882278 1_564
Co4 O11 1.914047 1_555
Co4 F1 2.009376 1_554
Co4 F3 2.018645 1_565
Co5 O5 1.845439 1_555
Co5 O7 1.861157 1_556
Co5 O10 1.882278 1_456
Co5 O1 1.914047 1_555
Co5 F2 2.009376 1_556
Co5 F0 2.018645 1_455
Co6 O6 1.845439 1_555
Co6 O2 1.861157 1_554
Co6 O0 1.882278 1_654
Co6 O11 1.914047 1_555
Co6 F1 2.009376 1_554
Co6 F3 2.018645 1_655
Co7 O3 1.845439 1_555
Co7 O8 1.861157 1_556
Co7 O10 1.882278 1_546
Co7 O1 1.914047 1_555
Co7 F2 2.009376 1_556
Co7 F0 2.018645 1_545
