# generated using pymatgen
data_La2ThTa(ClO2)3
_symmetry_space_group_name_H-M   'P 1'
_cell_length_a   16.44985500
_cell_length_b   9.44742300
_cell_length_c   9.44836778
_cell_angle_alpha   60.00353529
_cell_angle_beta   90.00000000
_cell_angle_gamma   90.00000000
_symmetry_Int_Tables_number   1
_chemical_formula_structural   La2ThTa(ClO2)3
_chemical_formula_sum   'La12 Th6 Ta6 Cl18 O36'
_cell_volume   1271.68142254
_cell_formula_units_Z   6
loop_
 _symmetry_equiv_pos_site_id
 _symmetry_equiv_pos_as_xyz
  1  'x, y, z'
loop_
 _atom_site_type_symbol
 _atom_site_label
 _atom_site_symmetry_multiplicity
 _atom_site_fract_x
 _atom_site_fract_y
 _atom_site_fract_z
 _atom_site_occupancy
  La  La0  1  0.50000000  0.59258300  0.08655800  1
  La  La1  1  0.83327100  0.31788100  0.59378700  1
  La  La2  1  0.16672900  0.31788100  0.59378700  1
  La  La3  1  0.00000000  0.91645900  0.67737800  1
  La  La4  1  0.83424800  0.08789700  0.31793500  1
  La  La5  1  0.50000000  0.09179700  0.31426600  1
  La  La6  1  0.16575200  0.08789700  0.31793500  1
  La  La7  1  0.66762800  0.68104700  0.40630100  1
  La  La8  1  0.33237200  0.68104700  0.40630100  1
  La  La9  1  0.00000000  0.40447300  0.91164100  1
  La  La10  1  0.33334800  0.40569500  0.91157300  1
  La  La11  1  0.66665200  0.40569500  0.91157300  1
  Th  Th0  1  0.83265500  0.58582000  0.08750300  1
  Th  Th1  1  0.16734500  0.58582000  0.08750300  1
  Th  Th2  1  0.50000000  0.32701600  0.58821500  1
  Th  Th3  1  0.66587600  0.91240000  0.67394700  1
  Th  Th4  1  0.33412400  0.91240000  0.67394700  1
  Th  Th5  1  0.00000000  0.67599100  0.41513300  1
  Ta  Ta0  1  0.00000000  0.33419200  0.33499000  1
  Ta  Ta1  1  0.66658900  0.33215400  0.33416300  1
  Ta  Ta2  1  0.33341100  0.33215400  0.33416300  1
  Ta  Ta3  1  0.83329900  0.66615700  0.66795100  1
  Ta  Ta4  1  0.50000000  0.66640500  0.66724000  1
  Ta  Ta5  1  0.16670100  0.66615700  0.66795100  1
  Cl  Cl0  1  0.00000000  0.75989200  0.05034700  1
  Cl  Cl1  1  0.66746200  0.76283500  0.04334500  1
  Cl  Cl2  1  0.33253800  0.76283500  0.04334500  1
  Cl  Cl3  1  0.00000000  0.19111200  0.75989800  1
  Cl  Cl4  1  0.66529100  0.18797300  0.76011700  1
  Cl  Cl5  1  0.33470900  0.18797300  0.76011700  1
  Cl  Cl6  1  0.83184200  0.94834500  0.81151000  1
  Cl  Cl7  1  0.50000000  0.95691500  0.80633600  1
  Cl  Cl8  1  0.16815800  0.94834500  0.81151000  1
  Cl  Cl9  1  0.00000000  0.04453800  0.19323700  1
  Cl  Cl10  1  0.66715500  0.04886900  0.19230600  1
  Cl  Cl11  1  0.33284500  0.04886900  0.19230600  1
  Cl  Cl12  1  0.83450500  0.80589100  0.23692700  1
  Cl  Cl13  1  0.50000000  0.80750500  0.24238100  1
  Cl  Cl14  1  0.16549500  0.80589100  0.23692700  1
  Cl  Cl15  1  0.50000000  0.23987600  0.94768600  1
  Cl  Cl16  1  0.83360800  0.24114600  0.95034500  1
  Cl  Cl17  1  0.16639200  0.24114600  0.95034500  1
  O  O0  1  0.07777100  0.48449100  0.36175000  1
  O  O1  1  0.74543400  0.48014900  0.35704300  1
  O  O2  1  0.41310100  0.47211200  0.37150600  1
  O  O3  1  0.92222900  0.48449100  0.36175000  1
  O  O4  1  0.58689900  0.47211200  0.37150600  1
  O  O5  1  0.25456600  0.48014900  0.35704300  1
  O  O6  1  0.92080100  0.36990900  0.15726200  1
  O  O7  1  0.58964800  0.36315300  0.15962800  1
  O  O8  1  0.07919900  0.36990900  0.15726200  1
  O  O9  1  0.74787200  0.36863400  0.15672100  1
  O  O10  1  0.41035200  0.36315300  0.15962800  1
  O  O11  1  0.25212800  0.36863400  0.15672100  1
  O  O12  1  0.92111000  0.16029600  0.47679500  1
  O  O13  1  0.25767600  0.15206600  0.48095600  1
  O  O14  1  0.07889000  0.16029600  0.47679500  1
  O  O15  1  0.58771900  0.15526300  0.48521900  1
  O  O16  1  0.74232400  0.15206600  0.48095600  1
  O  O17  1  0.41228100  0.15526300  0.48521900  1
  O  O18  1  0.75329300  0.84310100  0.52803400  1
  O  O19  1  0.42069000  0.84399700  0.52574800  1
  O  O20  1  0.08799100  0.83742100  0.51956300  1
  O  O21  1  0.91200900  0.83742100  0.51956300  1
  O  O22  1  0.57931000  0.84399700  0.52574800  1
  O  O23  1  0.24670700  0.84310100  0.52803400  1
  O  O24  1  0.90922500  0.63224500  0.84812100  1
  O  O25  1  0.42060100  0.64124400  0.83800200  1
  O  O26  1  0.75447200  0.64061300  0.84493700  1
  O  O27  1  0.57939900  0.64124400  0.83800200  1
  O  O28  1  0.09077500  0.63224500  0.84812100  1
  O  O29  1  0.24552800  0.64061300  0.84493700  1
  O  O30  1  0.57710600  0.51827300  0.63528800  1
  O  O31  1  0.91441300  0.52530200  0.63179200  1
  O  O32  1  0.75642300  0.52324600  0.63627000  1
  O  O33  1  0.42289400  0.51827300  0.63528800  1
  O  O34  1  0.24357700  0.52324600  0.63627000  1
  O  O35  1  0.08558700  0.52530200  0.63179200  1
loop_
_geom_bond_atom_site_label_1
_geom_bond_atom_site_label_2
_geom_bond_distance
_geom_bond_site_symmetry_2
La0 O7 2.419348 1_555
La0 O10 2.419348 1_555
La0 O27 2.520504 1_554
La0 O25 2.520504 1_554
La0 O4 2.742869 1_555
La0 O2 2.742869 1_555
La1 O3 2.444373 1_555
La1 O1 2.452063 1_555
La1 O32 2.510401 1_555
La1 O31 2.540504 1_555
La1 O12 2.677994 1_555
La1 O16 2.738349 1_555
La2 O0 2.444373 1_555
La2 O5 2.452063 1_555
La2 O34 2.510401 1_555
La2 O35 2.540504 1_555
La2 O14 2.677994 1_555
La2 O13 2.738349 1_555
La3 O20 2.447305 1_555
La3 O21 2.447305 1_455
La3 O12 2.493431 1_465
La3 O14 2.493431 1_565
La3 O28 2.776828 1_555
La3 O24 2.776828 1_455
La4 O12 2.406019 1_555
La4 O16 2.441354 1_555
La4 O21 2.521419 1_545
La4 O18 2.544040 1_545
La4 O9 2.708125 1_555
La4 O6 2.717718 1_555
La5 O17 2.453362 1_555
La5 O15 2.453362 1_555
La5 O22 2.549118 1_545
La5 O19 2.549118 1_545
La5 O7 2.671396 1_555
La5 O10 2.671396 1_555
La6 O14 2.406019 1_555
La6 O13 2.441354 1_555
La6 O20 2.521419 1_545
La6 O23 2.544040 1_545
La6 O11 2.708125 1_555
La6 O8 2.717718 1_555
La7 O32 2.416262 1_555
La7 O30 2.436467 1_555
La7 O1 2.517987 1_555
La7 O4 2.533129 1_555
La7 O18 2.722747 1_555
La7 O22 2.737063 1_555
La8 O34 2.416262 1_555
La8 O33 2.436467 1_555
La8 O5 2.517987 1_555
La8 O2 2.533129 1_555
La8 O23 2.722747 1_555
La8 O19 2.737063 1_555
La9 O28 2.434978 1_555
La9 O24 2.434978 1_455
La9 O8 2.536129 1_556
La9 O6 2.536129 1_456
La9 O35 2.694178 1_555
La9 O31 2.694178 1_455
La10 O25 2.438988 1_555
La10 O29 2.451892 1_555
La10 O10 2.513405 1_556
La10 O11 2.541996 1_556
La10 O34 2.700308 1_555
La10 O33 2.709111 1_555
La11 O27 2.438988 1_555
La11 O26 2.451892 1_555
La11 O7 2.513405 1_556
La11 O9 2.541996 1_556
La11 O32 2.700308 1_555
La11 O30 2.709111 1_555
Cl0 La3 3.064996 1_554
Cl0 Th5 3.126642 1_555
Cl0 Th1 3.135023 1_555
Cl0 Th0 3.135023 1_455
Cl1 Th3 3.040997 1_554
Cl1 Th0 3.107634 1_555
Cl1 La0 3.112179 1_555
Cl1 La7 3.115753 1_555
Cl2 Th4 3.040997 1_554
Cl2 Th1 3.107634 1_555
Cl2 La0 3.112179 1_555
Cl2 La8 3.115753 1_555
Cl3 La9 3.001387 1_555
Cl3 La3 3.059994 1_545
Cl3 La2 3.088747 1_555
Cl3 La1 3.088747 1_455
Cl4 La11 3.036830 1_555
Cl4 Th3 3.091982 1_545
Cl4 Th2 3.102139 1_555
Cl4 La1 3.111752 1_555
Cl5 La10 3.036830 1_555
Cl5 Th4 3.091982 1_545
Cl5 Th2 3.102139 1_555
Cl5 La2 3.111752 1_555
Cl6 La1 3.039662 1_565
Cl6 Th0 3.098410 1_556
Cl6 Th3 3.114406 1_555
Cl6 La3 3.119346 1_655
Cl7 Th2 3.044282 1_565
Cl7 Th4 3.116563 1_555
Cl7 Th3 3.116563 1_555
Cl7 La0 3.121723 1_556
Cl8 La2 3.039662 1_565
Cl8 Th1 3.098410 1_556
Cl8 Th4 3.114406 1_555
Cl8 La3 3.119346 1_555
Cl9 Th5 3.036373 1_545
Cl9 La6 3.077797 1_555
Cl9 La4 3.077797 1_455
Cl9 La9 3.097686 1_554
Cl10 La7 3.022957 1_545
Cl10 La11 3.075571 1_554
Cl10 La5 3.085503 1_555
Cl10 La4 3.088303 1_555
Cl11 La8 3.022957 1_545
Cl11 La10 3.075571 1_554
Cl11 La5 3.085503 1_555
Cl11 La6 3.088303 1_555
Cl12 Th0 3.041678 1_555
Cl12 La7 3.098451 1_555
Cl12 Th5 3.112278 1_655
Cl12 La4 3.118162 1_565
Cl13 La0 3.046214 1_555
Cl13 La5 3.082042 1_565
Cl13 La8 3.095070 1_555
Cl13 La7 3.095070 1_555
Cl14 Th1 3.041678 1_555
Cl14 La8 3.098451 1_555
Cl14 Th5 3.112278 1_555
Cl14 La6 3.118162 1_565
Cl15 La5 3.018045 1_556
Cl15 Th2 3.068807 1_555
Cl15 La10 3.090526 1_555
Cl15 La11 3.090526 1_555
Cl16 La4 3.021751 1_556
Cl16 La1 3.071319 1_555
Cl16 La9 3.072829 1_655
Cl16 La11 3.086125 1_555
Cl17 La6 3.021751 1_556
Cl17 La2 3.071319 1_555
Cl17 La9 3.072829 1_555
Cl17 La10 3.086125 1_555
O0 Ta0 2.018859 1_555
O0 Th5 2.465081 1_555
O0 Th1 2.705834 1_555
O1 Ta1 1.996502 1_555
O1 Th0 2.645525 1_555
O2 Ta2 2.014379 1_555
O2 Th2 2.304008 1_555
O3 Ta0 2.018859 1_655
O3 Th5 2.465081 1_655
O3 Th0 2.705834 1_555
O4 Ta1 2.014379 1_555
O4 Th2 2.304008 1_555
O5 Ta2 1.996502 1_555
O5 Th1 2.645525 1_555
O6 Ta0 2.016049 1_655
O6 Th0 2.313737 1_555
O7 Ta1 1.980965 1_555
O8 Ta0 2.016049 1_555
O8 Th1 2.313737 1_555
O9 Ta1 2.034608 1_555
O9 Th0 2.289352 1_555
O10 Ta2 1.980965 1_555
O11 Ta2 2.034608 1_555
O11 Th1 2.289352 1_555
O12 Ta0 1.994324 1_655
O13 Ta2 2.002728 1_555
O13 Th4 2.429996 1_545
O14 Ta0 1.994324 1_555
O15 Ta1 2.031784 1_555
O15 Th3 2.450742 1_545
O15 Th2 2.690900 1_555
O16 Ta1 2.002728 1_555
O16 Th3 2.429996 1_545
O17 Ta2 2.031784 1_555
O17 Th4 2.450742 1_545
O17 Th2 2.690900 1_555
O18 Ta3 2.016064 1_555
O18 Th3 2.302087 1_555
O19 Ta4 2.015323 1_555
O19 Th4 2.304525 1_555
O20 Ta5 1.997947 1_555
O20 Th5 2.626634 1_555
O21 Ta3 1.997947 1_555
O21 Th5 2.626634 1_655
O22 Ta4 2.015323 1_555
O22 Th3 2.304525 1_555
O23 Ta5 2.016064 1_555
O23 Th4 2.302087 1_555
O24 Ta3 2.003774 1_555
O24 Th0 2.429521 1_556
O25 Ta4 1.995509 1_555
O25 Th4 2.649211 1_555
O26 Ta3 2.032853 1_555
O26 Th0 2.447110 1_556
O26 Th3 2.679411 1_555
O27 Ta4 1.995509 1_555
O27 Th3 2.649211 1_555
O28 Ta5 2.003774 1_555
O28 Th1 2.429521 1_556
O29 Ta5 2.032853 1_555
O29 Th1 2.447110 1_556
O29 Th4 2.679411 1_555
O30 Ta4 2.020120 1_555
O30 Th2 2.423839 1_555
O31 Ta3 2.030395 1_555
O31 Th5 2.299006 1_655
O32 Ta3 1.978836 1_555
O33 Ta4 2.020120 1_555
O33 Th2 2.423839 1_555
O34 Ta5 1.978836 1_555
O35 Ta5 2.030395 1_555
O35 Th5 2.299006 1_555
