# generated using pymatgen
data_CsZn3(PO4)3
_symmetry_space_group_name_H-M   'P 1'
_cell_length_a   5.26929900
_cell_length_b   8.20269300
_cell_length_c   15.15506962
_cell_angle_alpha   95.32269094
_cell_angle_beta   89.97618578
_cell_angle_gamma   108.19427626
_symmetry_Int_Tables_number   1
_chemical_formula_structural   CsZn3(PO4)3
_chemical_formula_sum   'Cs2 Zn6 P6 O24'
_cell_volume   619.32372402
_cell_formula_units_Z   2
loop_
 _symmetry_equiv_pos_site_id
 _symmetry_equiv_pos_as_xyz
  1  'x, y, z'
loop_
 _atom_site_type_symbol
 _atom_site_label
 _atom_site_symmetry_multiplicity
 _atom_site_fract_x
 _atom_site_fract_y
 _atom_site_fract_z
 _atom_site_occupancy
  Cs  Cs0  1  0.79014600  0.09360700  0.74537300  1
  Cs  Cs1  1  0.20985400  0.90639300  0.25462700  1
  Zn  Zn0  1  0.51212900  0.58026800  0.86179100  1
  Zn  Zn1  1  0.48787100  0.41973200  0.13820900  1
  Zn  Zn2  1  0.13377700  0.83317400  0.57350700  1
  Zn  Zn3  1  0.86622300  0.16682600  0.42649300  1
  Zn  Zn4  1  0.12544000  0.82167900  0.95147000  1
  Zn  Zn5  1  0.87456000  0.17832100  0.04853000  1
  P  P0  1  0.36769700  0.22018800  0.93892000  1
  P  P1  1  0.63230300  0.77981200  0.06108000  1
  P  P2  1  0.05919900  0.65746600  0.75353300  1
  P  P3  1  0.94080100  0.34253400  0.24646700  1
  P  P4  1  0.39027400  0.24057800  0.54218600  1
  P  P5  1  0.60972600  0.75942200  0.45781400  1
  O  O0  1  0.37127000  0.33579400  0.86382700  1
  O  O1  1  0.62873000  0.66420600  0.13617300  1
  O  O2  1  0.73179200  0.70420600  0.97156500  1
  O  O3  1  0.26820800  0.29579400  0.02843500  1
  O  O4  1  0.22704000  0.68908500  0.84409600  1
  O  O5  1  0.77296000  0.31091500  0.15590400  1
  O  O6  1  0.78159900  0.67497200  0.77532300  1
  O  O7  1  0.21840100  0.32502800  0.22467700  1
  O  O8  1  0.75011700  0.74885200  0.54576900  1
  O  O9  1  0.24988300  0.25114800  0.45423100  1
  O  O10  1  0.32928800  0.77533800  0.47438200  1
  O  O11  1  0.67071200  0.22466200  0.52561800  1
  O  O12  1  0.21975600  0.08876900  0.59149600  1
  O  O13  1  0.78024400  0.91123100  0.40850400  1
  O  O14  1  0.20994100  0.79800300  0.69476100  1
  O  O15  1  0.79005900  0.20199700  0.30523900  1
  O  O16  1  0.35221200  0.79501800  0.04547600  1
  O  O17  1  0.64778800  0.20498200  0.95452400  1
  O  O18  1  0.15504200  0.04428500  0.91057200  1
  O  O19  1  0.84495800  0.95571500  0.08942800  1
  O  O20  1  0.01683500  0.47425500  0.71015700  1
  O  O21  1  0.98316500  0.52574500  0.28984300  1
  O  O22  1  0.42885600  0.41099600  0.60251500  1
  O  O23  1  0.57114400  0.58900400  0.39748500  1
loop_
_geom_bond_atom_site_label_1
_geom_bond_atom_site_label_2
_geom_bond_distance
_geom_bond_site_symmetry_2
Cs0 O20 3.072494 1_655
Cs0 O12 3.255603 1_655
Cs0 O18 3.287302 1_655
Cs0 O14 3.292751 1_545
Cs0 O17 3.366456 1_555
Cs0 O0 3.477047 1_655
Cs0 O6 3.491781 1_545
Cs1 O21 3.072494 1_455
Cs1 O13 3.255603 1_455
Cs1 O19 3.287302 1_455
Cs1 O15 3.292751 1_565
Cs1 O16 3.366456 1_555
Cs1 O1 3.477047 1_455
Cs1 O7 3.491781 1_565
O0 P0 1.543949 1_555
O0 Zn0 1.911867 1_555
O1 P1 1.543949 1_555
O1 Zn1 1.911867 1_555
O2 P1 1.595671 1_556
O2 Zn0 2.023344 1_555
O2 Zn4 2.032122 1_655
O3 P0 1.595671 1_554
O3 Zn1 2.023344 1_555
O3 Zn5 2.032122 1_455
O4 P2 1.588989 1_555
O4 Zn0 2.001846 1_555
O4 Zn4 2.037659 1_555
O5 P3 1.588989 1_555
O5 Zn1 2.001846 1_555
O5 Zn5 2.037659 1_555
O6 P2 1.546383 1_655
O6 Zn0 1.958405 1_555
O7 P3 1.546383 1_455
O7 Zn1 1.958405 1_555
O8 P5 1.547215 1_555
O8 Zn2 1.953361 1_655
O9 P4 1.547215 1_555
O9 Zn3 1.953361 1_455
O10 P5 1.542014 1_555
O10 Zn2 1.927390 1_555
O11 P4 1.542014 1_555
O11 Zn3 1.927390 1_555
O12 P4 1.545893 1_555
O12 Zn2 1.994008 1_545
O13 P5 1.545893 1_555
O13 Zn3 1.994008 1_565
O14 P2 1.539889 1_555
O14 Zn2 1.947407 1_555
O15 P3 1.539889 1_555
O15 Zn3 1.947407 1_555
O16 P1 1.539621 1_555
O16 Zn4 1.930743 1_554
O17 P0 1.539621 1_555
O17 Zn5 1.930743 1_556
O18 P0 1.548487 1_555
O18 Zn4 1.942856 1_545
O19 P1 1.548487 1_555
O19 Zn5 1.942856 1_565
O20 P2 1.532247 1_555
O21 P3 1.532247 1_555
O22 P4 1.554640 1_555
O23 P5 1.554640 1_555
