# generated using pymatgen
data_Mn5Fe3O16
_symmetry_space_group_name_H-M   'P 1'
_cell_length_a   5.86203231
_cell_length_b   5.84415172
_cell_length_c   8.89959068
_cell_angle_alpha   90.01306631
_cell_angle_beta   89.45709795
_cell_angle_gamma   119.88362786
_symmetry_Int_Tables_number   1
_chemical_formula_structural   Mn5Fe3O16
_chemical_formula_sum   'Mn5 Fe3 O16'
_cell_volume   264.33404675
_cell_formula_units_Z   1
loop_
 _symmetry_equiv_pos_site_id
 _symmetry_equiv_pos_as_xyz
  1  'x, y, z'
loop_
 _atom_site_type_symbol
 _atom_site_label
 _atom_site_symmetry_multiplicity
 _atom_site_fract_x
 _atom_site_fract_y
 _atom_site_fract_z
 _atom_site_occupancy
  Mn  Mn0  1  0.33569000  0.66782100  0.48725900  1
  Mn  Mn1  1  0.66060800  0.83027500  0.21139500  1
  Mn  Mn2  1  0.66537500  0.33249000  0.98678600  1
  Mn  Mn3  1  0.83212100  0.66469900  0.71060400  1
  Mn  Mn4  1  0.83213900  0.16759600  0.71056100  1
  Fe  Fe0  1  0.16319600  0.83188500  0.20777400  1
  Fe  Fe1  1  0.16340500  0.33130800  0.20785400  1
  Fe  Fe2  1  0.33026800  0.16504700  0.70704900  1
  O  O0  1  0.16520100  0.83069500  0.60033400  1
  O  O1  1  0.04580900  0.52277000  0.34755600  1
  O  O2  1  0.34081300  0.67076500  0.09863900  1
  O  O3  1  0.99093600  0.99500900  0.31546900  1
  O  O4  1  0.99303500  0.99663700  0.81632100  1
  O  O5  1  0.16510700  0.33487700  0.60016700  1
  O  O6  1  0.48452200  0.95644500  0.34358200  1
  O  O7  1  0.48488200  0.52834400  0.34364500  1
  O  O8  1  0.34092600  0.17052300  0.10122400  1
  O  O9  1  0.67043900  0.83527500  0.60055200  1
  O  O10  1  0.52490100  0.48154900  0.84123600  1
  O  O11  1  0.52547100  0.04340900  0.84139800  1
  O  O12  1  0.67454900  0.33732800  0.60060800  1
  O  O13  1  0.82686300  0.66284700  0.09850300  1
  O  O14  1  0.95709600  0.47858800  0.83858100  1
  O  O15  1  0.82665100  0.16401600  0.09862400  1
loop_
_geom_bond_atom_site_label_1
_geom_bond_atom_site_label_2
_geom_bond_distance
_geom_bond_site_symmetry_2
Mn0 O7 1.936896 1_555
Mn0 O6 1.937713 1_555
Mn0 O1 1.938071 1_555
Mn0 O5 1.959249 1_555
Mn0 O0 1.961122 1_555
Mn0 O9 1.987057 1_555
Mn1 O2 1.919403 1_555
Mn1 O3 1.926205 1_555
Mn1 O7 1.930457 1_555
Mn1 O6 1.930841 1_555
Mn1 O13 1.961607 1_555
Mn1 O15 1.962002 1_565
Mn2 O8 1.928817 1_556
Mn2 O15 1.949279 1_556
Mn2 O13 1.951364 1_556
Mn2 O11 1.959437 1_555
Mn2 O10 1.962239 1_555
Mn2 O14 1.973791 1_555
Mn3 O12 1.930579 1_555
Mn3 O4 1.931505 1_555
Mn3 O10 1.944385 1_555
Mn3 O0 1.947603 1_655
Mn3 O9 1.952138 1_555
Mn3 O14 1.956352 1_555
Mn4 O12 1.930176 1_555
Mn4 O4 1.931314 1_545
Mn4 O11 1.942903 1_555
Mn4 O5 1.947663 1_655
Mn4 O9 1.952219 1_545
Mn4 O14 1.956046 1_555
Fe0 O3 1.946183 1_455
Fe0 O8 1.956731 1_565
Fe0 O2 1.967594 1_555
Fe0 O13 1.975813 1_455
Fe0 O1 2.007642 1_555
Fe0 O6 2.053079 1_555
Fe1 O3 1.950538 1_445
Fe1 O8 1.954908 1_555
Fe1 O2 1.971732 1_555
Fe1 O15 1.977496 1_455
Fe1 O1 2.006174 1_555
Fe1 O7 2.053756 1_555
Fe2 O0 1.946504 1_545
Fe2 O5 1.950045 1_555
Fe2 O4 1.961529 1_445
Fe2 O12 1.980786 1_555
Fe2 O10 2.017692 1_555
Fe2 O11 2.020198 1_555
