# generated using pymatgen
data_RbDyS2
_symmetry_space_group_name_H-M   'P 1'
_cell_length_a   8.00336143
_cell_length_b   8.00336143
_cell_length_c   8.00336095
_cell_angle_alpha   29.37970466
_cell_angle_beta   29.37970466
_cell_angle_gamma   29.37970520
_symmetry_Int_Tables_number   1
_chemical_formula_structural   RbDyS2
_chemical_formula_sum   'Rb1 Dy1 S2'
_cell_volume   109.19306949
_cell_formula_units_Z   1
loop_
 _symmetry_equiv_pos_site_id
 _symmetry_equiv_pos_as_xyz
  1  'x, y, z'
loop_
 _atom_site_type_symbol
 _atom_site_label
 _atom_site_symmetry_multiplicity
 _atom_site_fract_x
 _atom_site_fract_y
 _atom_site_fract_z
 _atom_site_occupancy
  Rb  Rb0  1  -0.00000000  -0.00000000  0.00000000  1
  Dy  Dy0  1  0.50000000  0.50000000  0.50000000  1
  S  S0  1  0.76926143  0.76926143  0.76926143  1
  S  S1  1  0.23073857  0.23073857  0.23073857  1
loop_
_geom_bond_atom_site_label_1
_geom_bond_atom_site_label_2
_geom_bond_distance
_geom_bond_site_symmetry_2
Rb0 S0 3.322603 1_445
Rb0 S1 3.322603 1_554
Rb0 S0 3.322603 1_544
Rb0 S1 3.322603 1_545
Rb0 S1 3.322603 1_455
Rb0 S0 3.322603 1_454
Dy0 S1 2.766902 1_556
Dy0 S0 2.766902 1_554
Dy0 S1 2.766902 1_565
Dy0 S0 2.766902 1_545
Dy0 S0 2.766902 1_455
Dy0 S1 2.766902 1_655
