# generated using pymatgen
data_Li8NiO5F
_symmetry_space_group_name_H-M   'P 1'
_cell_length_a   5.33206397
_cell_length_b   9.43537389
_cell_length_c   5.91288448
_cell_angle_alpha   84.61023479
_cell_angle_beta   112.30340411
_cell_angle_gamma   77.32016630
_symmetry_Int_Tables_number   1
_chemical_formula_structural   Li8NiO5F
_chemical_formula_sum   'Li16 Ni2 O10 F2'
_cell_volume   263.28294871
_cell_formula_units_Z   2
loop_
 _symmetry_equiv_pos_site_id
 _symmetry_equiv_pos_as_xyz
  1  'x, y, z'
loop_
 _atom_site_type_symbol
 _atom_site_label
 _atom_site_symmetry_multiplicity
 _atom_site_fract_x
 _atom_site_fract_y
 _atom_site_fract_z
 _atom_site_occupancy
  Li  Li0  1  0.46898800  0.05769100  0.30108400  1
  Li  Li1  1  0.46899200  0.55776400  0.80096500  1
  Li  Li2  1  0.23109000  0.26594700  0.39582500  1
  Li  Li3  1  0.23113000  0.76589700  0.89593400  1
  Li  Li4  1  0.89279300  0.11910600  0.53152800  1
  Li  Li5  1  0.89275700  0.61913100  0.03153000  1
  Li  Li6  1  0.36778400  0.14614800  0.86781800  1
  Li  Li7  1  0.36775200  0.64621300  0.36781000  1
  Li  Li8  1  0.67514200  0.32933600  0.64638400  1
  Li  Li9  1  0.67497800  0.82934500  0.14634000  1
  Li  Li10  1  0.09275000  0.38475900  0.95855900  1
  Li  Li11  1  0.09281200  0.88465000  0.45869800  1
  Li  Li12  1  0.79402400  0.23363900  0.13032200  1
  Li  Li13  1  0.79418900  0.73349600  0.63037100  1
  Li  Li14  1  0.52299600  0.44798300  0.20855700  1
  Li  Li15  1  0.52302800  0.94790400  0.70848600  1
  Ni  Ni0  1  0.96174000  0.51211100  0.46182600  1
  Ni  Ni1  1  0.96136800  0.01239000  0.96194300  1
  O  O0  1  0.58459300  0.13185500  0.63001000  1
  O  O1  1  0.58453700  0.63194900  0.12980100  1
  O  O2  1  0.10648700  0.18183200  0.04982800  1
  O  O3  1  0.10646500  0.68184500  0.54986600  1
  O  O4  1  0.77376300  0.03358800  0.19456900  1
  O  O5  1  0.77368700  0.53352500  0.69443400  1
  O  O6  1  0.20476000  0.46823200  0.28514200  1
  O  O7  1  0.20467600  0.96821600  0.78538000  1
  O  O8  1  0.88563200  0.32143700  0.43314800  1
  O  O9  1  0.88559900  0.82154800  0.93322100  1
  F  F0  1  0.43765900  0.36643300  0.90537400  1
  F  F1  1  0.43783800  0.86602600  0.40524900  1
loop_
_geom_bond_atom_site_label_1
_geom_bond_atom_site_label_2
_geom_bond_distance
_geom_bond_site_symmetry_2
Li0 O4 1.931523 1_555
Li0 O2 1.953135 1_555
Li0 O0 2.046302 1_555
Li1 O5 1.931138 1_555
Li1 O3 1.952733 1_555
Li1 O1 2.045933 1_556
Li2 O8 1.903333 1_455
Li2 O6 1.915430 1_555
Li2 O0 1.927144 1_555
Li2 O2 2.182107 1_555
Li3 O9 1.903707 1_455
Li3 O7 1.915385 1_555
Li3 O1 1.925812 1_556
Li3 O3 2.182168 1_555
Li4 O0 1.925317 1_555
Li4 O7 1.926128 1_645
Li4 O8 1.930519 1_555
Li4 O4 2.142564 1_555
Li5 O1 1.924568 1_555
Li5 O6 1.925887 1_655
Li5 O9 1.931216 1_554
Li5 O5 2.143700 1_554
Li6 O2 2.052550 1_556
Li6 O7 2.070144 1_545
Li6 O0 2.129043 1_555
Li6 O4 2.231022 1_556
Li7 O3 2.052690 1_555
Li7 O6 2.070465 1_555
Li7 O1 2.129979 1_555
Li7 O5 2.230776 1_555
Li8 O8 1.977361 1_555
Li8 O0 2.026758 1_555
Li8 O5 2.121919 1_555
Li9 O9 1.977354 1_554
Li9 O1 2.025775 1_555
Li9 O4 2.123055 1_565
Li10 O2 1.917540 1_556
Li10 O5 1.956212 1_455
Li10 O6 2.079132 1_556
Li11 O3 1.916457 1_555
Li11 O4 1.956924 1_465
Li11 O7 2.080084 1_555
Li12 O2 1.878651 1_655
Li12 O4 1.924790 1_555
Li12 O8 1.980770 1_555
Li13 O3 1.877637 1_655
Li13 O5 1.924362 1_555
Li13 O9 1.982232 1_555
Li14 O1 1.884588 1_555
Li14 O6 1.891572 1_555
Li14 O8 1.915089 1_555
Li15 O0 1.884141 1_565
Li15 O7 1.893203 1_555
Li15 O9 1.914489 1_555
Ni0 O8 1.937968 1_555
Ni0 O6 1.953248 1_655
Ni0 O3 1.955903 1_655
Ni0 O5 1.986951 1_555
Ni0 O1 2.183008 1_555
Ni1 O9 1.938865 1_545
Ni1 O2 1.954159 1_656
Ni1 O7 1.954256 1_645
Ni1 O4 1.985154 1_556
Ni1 O0 2.180860 1_555
F0 Li1 1.915568 1_555
F0 Li12 1.916519 1_556
F0 Li14 1.951031 1_556
F0 Li10 1.954632 1_555
F0 Li6 2.207270 1_555
F0 Li8 2.334322 1_555
F1 Li13 1.915817 1_555
F1 Li0 1.917714 1_565
F1 Li15 1.952979 1_555
F1 Li11 1.955780 1_555
F1 Li7 2.203163 1_555
F1 Li9 2.332155 1_555
