# generated using pymatgen
data_Pr16Si16N27Cl3O14
_symmetry_space_group_name_H-M   'P 1'
_cell_length_a   9.94656900
_cell_length_b   11.27055451
_cell_length_c   12.26763941
_cell_angle_alpha   102.97289209
_cell_angle_beta   101.78936102
_cell_angle_gamma   100.44049916
_symmetry_Int_Tables_number   1
_chemical_formula_structural   Pr16Si16N27Cl3O14
_chemical_formula_sum   'Pr16 Si16 N27 Cl3 O14'
_cell_volume   1274.15984496
_cell_formula_units_Z   1
loop_
 _symmetry_equiv_pos_site_id
 _symmetry_equiv_pos_as_xyz
  1  'x, y, z'
loop_
 _atom_site_type_symbol
 _atom_site_label
 _atom_site_symmetry_multiplicity
 _atom_site_fract_x
 _atom_site_fract_y
 _atom_site_fract_z
 _atom_site_occupancy
  Pr  Pr0  1  0.68104300  0.09511400  0.06641400  1
  Pr  Pr1  1  0.29624600  0.90790100  0.05018200  1
  Pr  Pr2  1  0.15687500  0.67193600  0.22889100  1
  Pr  Pr3  1  0.95426400  0.99223000  0.27850100  1
  Pr  Pr4  1  0.74283000  0.63463500  0.26360900  1
  Pr  Pr5  1  0.70617400  0.17770300  0.40209100  1
  Pr  Pr6  1  0.24959800  0.59803800  0.50497500  1
  Pr  Pr7  1  0.73074500  0.89070200  0.53942100  1
  Pr  Pr8  1  0.06597400  0.41673300  0.65316100  1
  Pr  Pr9  1  0.16610000  0.05246200  0.70713300  1
  Pr  Pr10  1  0.58572600  0.26230200  0.65173700  1
  Pr  Pr11  1  0.48505000  0.83465700  0.77503100  1
  Pr  Pr12  1  0.90783500  0.54876600  0.87221600  1
  Pr  Pr13  1  0.64694500  0.58323200  0.58873300  1
  Pr  Pr14  1  0.27170900  0.41513500  0.99965500  1
  Pr  Pr15  1  0.90983800  0.87225500  0.86209500  1
  Si  Si0  1  0.78374000  0.40260900  0.07582800  1
  Si  Si1  1  0.72436000  0.79676000  0.02253500  1
  Si  Si2  1  0.56163400  0.34972100  0.18769100  1
  Si  Si3  1  0.04699800  0.31138100  0.14264400  1
  Si  Si4  1  0.63682200  0.88703800  0.24008800  1
  Si  Si5  1  0.46512300  0.53713900  0.31952700  1
  Si  Si6  1  0.32363300  0.07758100  0.37996100  1
  Si  Si7  1  0.03918400  0.84848400  0.45598900  1
  Si  Si8  1  0.18396000  0.16572000  0.19209000  1
  Si  Si9  1  0.46957000  0.33497300  0.36349700  1
  Si  Si10  1  0.00636500  0.70873900  0.64571700  1
  Si  Si11  1  0.10381000  0.25999900  0.41488800  1
  Si  Si12  1  0.44854600  0.91298000  0.37515600  1
  Si  Si13  1  0.86323500  0.19762300  0.68730900  1
  Si  Si14  1  0.22001400  0.68664400  0.84442900  1
  Si  Si15  1  0.34069000  0.13861600  0.94676400  1
  N  N0  1  0.90067600  0.54511300  0.16677400  1
  N  N1  1  0.46696100  0.20338400  0.07886700  1
  N  N2  1  0.11458500  0.00037900  0.14885800  1
  N  N3  1  0.08557200  0.45574700  0.10966500  1
  N  N4  1  0.48981300  0.48136300  0.17819100  1
  N  N5  1  0.69356700  0.77498300  0.14658100  1
  N  N6  1  0.71996000  0.03085300  0.23049900  1
  N  N7  1  0.33673800  0.19278500  0.30413000  1
  N  N8  1  0.72622500  0.10883200  0.57606900  1
  N  N9  1  0.10604600  0.01420500  0.48655600  1
  N  N10  1  0.06930800  0.24038300  0.26343300  1
  N  N11  1  0.61096200  0.64807700  0.41040900  1
  N  N12  1  0.17692100  0.10049900  0.43595200  1
  N  N13  1  0.57893300  0.33816500  0.49111500  1
  N  N14  1  0.00148100  0.83716100  0.58988600  1
  N  N15  1  0.83983500  0.34509800  0.72578800  1
  N  N16  1  0.20057100  0.39097600  0.51108300  1
  N  N17  1  0.16591200  0.67218600  0.68922500  1
  N  N18  1  0.15986000  0.53418900  0.86432800  1
  N  N19  1  0.88297800  0.66437500  0.71302400  1
  N  N20  1  0.98071800  0.13877900  0.77305600  1
  N  N21  1  0.19588000  0.01237200  0.90647000  1
  N  N22  1  0.16969200  0.24395100  0.08731700  1
  N  N23  1  0.67033200  0.89426800  0.94930300  1
  N  N24  1  0.45022300  0.85938100  0.22255100  1
  N  N25  1  0.96836200  0.50688600  0.07055200  1
  N  N26  1  0.34907800  0.98869000  0.87606800  1
  Cl  Cl0  1  0.90880400  0.52755300  0.46258900  1
  Cl  Cl1  1  0.43368500  0.02125000  0.64937500  1
  Cl  Cl2  1  0.59124400  0.49524100  0.79184600  1
  O  O0  1  0.10239000  0.74707900  0.91503000  1
  O  O1  1  0.45889300  0.66166300  0.62969900  1
  O  O2  1  0.86793600  0.27894800  0.09218100  1
  O  O3  1  0.48024400  0.10308500  0.13528500  1
  O  O4  1  0.33669700  0.75150200  0.14622300  1
  O  O5  1  0.31360200  0.57633700  0.32197100  1
  O  O6  1  0.13504900  0.74691700  0.41826400  1
  O  O7  1  0.94784400  0.21090200  0.43763400  1
  O  O8  1  0.03690100  0.20352900  0.67485700  1
  O  O9  1  0.96356300  0.97939800  0.07754000  1
  O  O10  1  0.71117600  0.85308000  0.70830800  1
  O  O11  1  0.24638300  0.45067200  0.81660900  1
  O  O12  1  0.32915100  0.24221100  0.87592100  1
  O  O13  1  0.82511800  0.71962500  0.96483700  1
loop_
_geom_bond_atom_site_label_1
_geom_bond_atom_site_label_2
_geom_bond_distance
_geom_bond_site_symmetry_2
Pr3 Si7 3.067131 1_655
N0 N25 1.494587 1_555
N0 Si0 1.779132 1_555
N0 Pr4 2.385853 1_555
N0 Pr2 2.552438 1_655
N1 O3 1.463687 1_555
N1 Si15 1.743983 1_554
N1 Si2 1.823190 1_555
N2 O9 1.522882 1_445
N2 Si8 1.780644 1_555
N2 Pr3 2.475799 1_445
N2 Pr1 2.612754 1_545
N3 Si3 1.758130 1_555
N3 Pr2 2.434930 1_555
N3 Pr14 2.551352 1_554
N4 Si2 1.775658 1_555
N4 Si5 1.789505 1_555
N4 Pr14 2.607294 1_554
N4 Pr4 2.636234 1_555
N5 Si1 1.673524 1_555
N5 Si4 1.761213 1_555
N5 Pr4 2.411711 1_555
N5 Pr3 3.089188 1_555
N6 Si4 1.721764 1_545
N6 Pr0 2.272458 1_555
N6 Pr5 2.413546 1_555
N6 Pr3 2.426842 1_545
N7 Si8 1.755481 1_555
N7 Si6 1.760337 1_555
N7 Si9 1.777522 1_555
N8 Si13 1.689244 1_555
N8 Pr7 2.408355 1_545
N8 Pr5 2.413193 1_555
N8 Pr10 2.547889 1_555
N9 Si7 1.790224 1_545
N9 Pr9 2.566564 1_555
N9 Pr3 2.619374 1_445
N10 Si11 1.773787 1_555
N10 Si8 1.788737 1_555
N10 Si3 1.829648 1_555
N10 Pr3 2.885209 1_445
N11 Si5 1.722350 1_555
N11 Pr4 2.429256 1_555
N11 Pr13 2.437328 1_555
N11 Pr7 2.739985 1_555
N12 N9 1.424671 1_555
N12 Si6 1.770469 1_555
N12 Si11 2.105403 1_555
N12 Pr3 2.517734 1_445
N13 Si9 1.703003 1_555
N13 Pr10 2.311119 1_555
N13 Pr5 2.563731 1_555
N13 Pr13 2.650907 1_555
N14 Si10 1.738786 1_555
N14 Si7 1.784249 1_555
N14 Pr9 2.582375 1_565
N14 Pr7 2.841570 1_455
N15 Si13 1.694843 1_555
N15 Pr10 2.431192 1_555
N15 Pr12 2.458225 1_555
N15 Pr8 2.643622 1_655
N16 Si11 1.654345 1_555
N16 Pr6 2.317451 1_555
N16 Pr8 2.404518 1_555
N17 Si10 1.721207 1_555
N17 Si14 1.830723 1_555
N17 Pr6 2.583235 1_555
N17 Pr8 2.772038 1_555
N18 O11 1.490440 1_555
N18 Si14 1.801494 1_555
N18 Pr8 2.521711 1_555
N18 Pr12 2.561556 1_455
N18 Pr14 2.565279 1_555
N19 Si10 1.677809 1_655
N19 Pr13 2.409571 1_555
N19 Pr15 2.560229 1_555
N19 Pr12 2.575784 1_555
N20 O8 1.678713 1_655
N20 Si13 1.733115 1_555
N20 Pr9 2.430374 1_655
N21 N26 1.693290 1_545
N21 Si15 1.730312 1_555
N21 Pr1 2.475886 1_546
N21 Pr9 2.553518 1_555
N21 Pr15 2.870145 1_445
N22 Si8 1.711496 1_555
N22 Si3 1.723541 1_555
N22 Pr14 2.564454 1_554
N23 Si1 1.662425 1_556
N23 Pr0 2.364189 1_566
N23 Pr11 2.390554 1_555
N23 Pr15 2.831565 1_555
N24 O4 1.479648 1_555
N24 Si4 1.784742 1_555
N24 Si12 1.838104 1_555
N24 Pr1 2.572040 1_555
N25 N3 1.435521 1_655
N25 Si0 2.014486 1_555
N25 Pr2 2.524782 1_655
N25 Pr12 2.554475 1_554
N26 Si15 1.742719 1_565
N26 Pr1 2.612669 1_556
N26 Pr11 2.636120 1_555
N26 Pr9 2.779494 1_565
Cl0 Si10 2.547533 1_655
Cl0 Pr8 3.161454 1_655
Cl0 Pr6 3.241925 1_655
Cl0 Pr4 3.246317 1_555
Cl0 Pr13 3.372809 1_555
Cl1 Pr10 2.850699 1_555
Cl1 Pr11 2.929672 1_545
Cl1 Pr9 2.950880 1_555
Cl2 Pr10 2.780827 1_555
Cl2 Pr13 2.995584 1_555
Cl2 Pr12 3.004656 1_555
O0 Si14 1.738073 1_555
O0 Pr1 2.414527 1_556
O0 Pr12 2.550755 1_455
O0 Pr15 2.638671 1_455
O1 Pr6 2.203144 1_555
O1 Pr11 2.261353 1_555
O1 Pr13 2.305760 1_555
O2 Si3 1.703203 1_655
O2 Si0 1.778756 1_555
O2 Pr0 2.432760 1_555
O3 Pr0 2.330546 1_555
O3 Pr1 2.451042 1_545
O4 Pr2 2.366431 1_555
O4 Pr1 2.377590 1_555
O5 Si5 1.649634 1_555
O5 Pr2 2.308395 1_555
O5 Pr6 2.428822 1_555
O6 Si7 1.664883 1_555
O6 Pr2 2.355733 1_555
O6 Pr6 2.498848 1_555
O7 Si11 1.650990 1_655
O7 Pr5 2.297999 1_555
O7 Pr3 2.799456 1_545
O7 Pr8 2.956640 1_655
O8 Si13 1.755656 1_455
O8 Pr9 2.365344 1_555
O8 Pr8 2.448527 1_555
O9 Pr3 2.458700 1_555
O9 Pr15 2.546617 1_554
O10 Pr7 2.244889 1_555
O10 Pr15 2.376847 1_555
O10 Pr11 2.535992 1_555
O10 Pr13 2.952875 1_555
O11 Pr8 2.307264 1_555
O11 Pr14 2.339992 1_555
O12 Si15 1.610927 1_555
O12 Pr14 2.420467 1_555
O12 Pr9 2.621796 1_555
O13 Si1 1.609517 1_556
O13 Pr12 2.376978 1_555
O13 Pr15 2.477900 1_555
