# generated using pymatgen
data_Na5LiV6O18
_symmetry_space_group_name_H-M   'P 1'
_cell_length_a   10.34680100
_cell_length_b   11.18846108
_cell_length_c   8.09750063
_cell_angle_alpha   102.72343536
_cell_angle_beta   110.46318946
_cell_angle_gamma   90.39141419
_symmetry_Int_Tables_number   1
_chemical_formula_structural   Na5LiV6O18
_chemical_formula_sum   'Na10 Li2 V12 O36'
_cell_volume   853.07460676
_cell_formula_units_Z   2
loop_
 _symmetry_equiv_pos_site_id
 _symmetry_equiv_pos_as_xyz
  1  'x, y, z'
loop_
 _atom_site_type_symbol
 _atom_site_label
 _atom_site_symmetry_multiplicity
 _atom_site_fract_x
 _atom_site_fract_y
 _atom_site_fract_z
 _atom_site_occupancy
  Na  Na0  1  0.13949600  0.05484000  0.94469800  1
  Na  Na1  1  0.44259900  0.15372100  0.84637100  1
  Na  Na2  1  0.89092400  0.17990400  0.82051900  1
  Na  Na3  1  0.47276900  0.38786100  0.61260400  1
  Na  Na4  1  0.22302800  0.51308600  0.48757600  1
  Na  Na5  1  0.52617200  0.61185200  0.38809200  1
  Na  Na6  1  0.77728500  0.48669900  0.51360200  1
  Na  Na7  1  0.10922000  0.82000000  0.17956400  1
  Na  Na8  1  0.80766600  0.72233600  0.27769700  1
  Na  Na9  1  0.55732000  0.84640400  0.15253100  1
  Li  Li0  1  0.18982900  0.28006700  0.71990200  1
  Li  Li1  1  0.85634300  0.94694400  0.05321500  1
  V  V0  1  0.35760700  0.73731900  0.84101300  1
  V  V1  1  0.02161000  0.82316600  0.59873600  1
  V  V2  1  0.68904900  0.48959600  0.93177500  1
  V  V3  1  0.64824700  0.84787400  0.73908400  1
  V  V4  1  0.97562900  0.59206700  0.82495100  1
  V  V5  1  0.30671600  0.92857000  0.49296700  1
  V  V6  1  0.02437600  0.40355900  0.17493000  1
  V  V7  1  0.69210100  0.07347100  0.50905000  1
  V  V8  1  0.35449500  0.15336900  0.26416500  1
  V  V9  1  0.98059100  0.18001800  0.40308300  1
  V  V10  1  0.31159900  0.51180100  0.06625000  1
  V  V11  1  0.64364200  0.25638300  0.15680000  1
  O  O0  1  0.00886300  0.78678300  0.96363900  1
  O  O1  1  0.27178200  0.87674900  0.83038000  1
  O  O2  1  0.51581900  0.86133400  0.84151800  1
  O  O3  1  0.77483100  0.88053800  0.84057500  1
  O  O4  1  0.06493600  0.45360600  0.83138500  1
  O  O5  1  0.28524300  0.31306600  0.93163800  1
  O  O6  1  0.65888200  0.30160600  0.99577600  1
  O  O7  1  0.56012900  0.45736400  0.83558800  1
  O  O8  1  0.31513800  0.53869500  0.70641800  1
  O  O9  1  0.81774100  0.46764000  0.82331500  1
  O  O10  1  0.14947900  0.80151000  0.48966100  1
  O  O11  1  0.39447100  0.79156900  0.50448400  1
  O  O12  1  0.62369800  0.64676500  0.60755500  1
  O  O13  1  0.05020300  0.02883000  0.72619700  1
  O  O14  1  0.32502400  0.96664100  0.32890900  1
  O  O15  1  0.99192800  0.63577200  0.66328600  1
  O  O16  1  0.89275800  0.79070800  0.50222400  1
  O  O17  1  0.65267900  0.87919700  0.37088800  1
  O  O18  1  0.34074100  0.12367500  0.63126300  1
  O  O19  1  0.10678300  0.21033400  0.50448200  1
  O  O20  1  0.67617400  0.03364200  0.67286700  1
  O  O21  1  0.00978200  0.36867300  0.34044000  1
  O  O22  1  0.95422500  0.98168400  0.26791000  1
  O  O23  1  0.37868800  0.35516800  0.39485500  1
  O  O24  1  0.60554600  0.21195900  0.49811900  1
  O  O25  1  0.84982200  0.19610100  0.50835900  1
  O  O26  1  0.18226000  0.52681100  0.17400300  1
  O  O27  1  0.68187700  0.45062000  0.29523100  1
  O  O28  1  0.43991000  0.54113800  0.16287400  1
  O  O29  1  0.34173300  0.70265600  0.00607700  1
  O  O30  1  0.71710500  0.69504500  0.05951800  1
  O  O31  1  0.93886000  0.54321600  0.16380400  1
  O  O32  1  0.22610000  0.12250800  0.16755400  1
  O  O33  1  0.48496500  0.13583200  0.15758100  1
  O  O34  1  0.73171800  0.11637000  0.16241100  1
  O  O35  1  0.98179700  0.20529100  0.04003800  1
loop_
_geom_bond_atom_site_label_1
_geom_bond_atom_site_label_2
_geom_bond_distance
_geom_bond_site_symmetry_2
Na0 O13 1.641733 1_555
Na0 O32 1.700268 1_556
Na0 O35 2.537284 1_456
Na0 O1 2.609857 1_545
Na1 O18 1.646629 1_555
Na1 O33 2.456362 1_556
Na1 O5 2.566992 1_555
Na2 O35 1.652202 1_556
Na2 O25 2.460537 1_555
Na2 O20 2.505107 1_555
Na2 O13 2.550668 1_655
Na3 O23 1.643549 1_555
Na3 O7 1.706666 1_555
Na3 O8 2.534634 1_555
Na4 O8 1.649962 1_555
Na4 O26 2.464259 1_555
Na4 O23 2.565060 1_555
Na5 O12 1.662500 1_555
Na5 O28 1.721957 1_555
Na5 O27 2.589271 1_555
Na6 O27 1.650396 1_555
Na6 O9 2.452147 1_555
Na6 O12 2.568170 1_555
Na7 O0 1.646958 1_554
Na7 O10 2.453596 1_555
Na7 O22 2.574463 1_455
Na8 O30 1.641174 1_555
Na8 O16 1.710200 1_555
Na8 O17 2.553896 1_555
Na8 O31 2.609190 1_555
Na9 O17 1.650434 1_555
Na9 O2 2.446409 1_554
Na9 O30 2.552543 1_555
Li0 O5 1.607243 1_555
Li0 O19 1.653234 1_555
Li0 O18 2.506554 1_555
Li0 O4 2.516471 1_555
Li1 O3 1.625002 1_554
Li1 O22 1.632485 1_555
Li1 O34 2.475929 1_565
Li1 O0 2.548344 1_654
O0 V4 2.183497 1_455
O1 V0 1.803950 1_555
O1 V1 2.581976 1_555
O2 V3 1.824998 1_555
O2 V0 2.137005 1_555
O3 V3 1.277858 1_555
O4 V4 1.810506 1_455
O4 V10 2.567582 1_556
O5 V10 2.218759 1_556
O6 V11 1.553798 1_556
O6 V2 2.318242 1_555
O7 V2 1.288126 1_555
O8 V0 2.214598 1_555
O9 V2 1.825329 1_555
O9 V4 2.133702 1_555
O10 V1 1.821101 1_555
O10 V5 2.142351 1_555
O11 V5 1.790384 1_555
O11 V3 2.619694 1_555
O12 V3 2.238129 1_555
O13 V1 2.275682 1_545
O14 V5 1.551206 1_555
O14 V8 2.306107 1_565
O15 V4 1.554496 1_555
O15 V1 2.312931 1_655
O16 V1 1.288382 1_655
O17 V7 2.177224 1_565
O18 V5 2.186368 1_545
O19 V9 1.271101 1_455
O20 V7 1.548416 1_555
O20 V3 2.298264 1_545
O21 V6 1.530509 1_555
O22 V9 2.215790 1_565
O23 V8 2.243857 1_555
O24 V7 1.798519 1_555
O24 V8 2.599028 1_555
O25 V9 1.825392 1_555
O25 V7 2.127164 1_555
O26 V10 1.826301 1_555
O26 V6 2.133702 1_555
O27 V11 2.177385 1_555
O28 V10 1.279483 1_555
O29 V0 1.531295 1_554
O30 V2 2.274124 1_554
O31 V6 1.804919 1_655
O31 V2 2.580232 1_554
O32 V8 1.282245 1_555
O33 V8 1.830138 1_555
O33 V11 2.120263 1_555
O34 V11 1.818918 1_555
O34 V9 2.605893 1_555
O35 V6 2.211550 1_655
