# generated using pymatgen
data_Li3Mn2CoO6
_symmetry_space_group_name_H-M   'P 1'
_cell_length_a   3.00305145
_cell_length_b   6.52532319
_cell_length_c   12.03306300
_cell_angle_alpha   76.69694696
_cell_angle_beta   89.88173398
_cell_angle_gamma   103.28898227
_symmetry_Int_Tables_number   1
_chemical_formula_structural   Li3Mn2CoO6
_chemical_formula_sum   'Li6 Mn4 Co2 O12'
_cell_volume   222.95039770
_cell_formula_units_Z   2
loop_
 _symmetry_equiv_pos_site_id
 _symmetry_equiv_pos_as_xyz
  1  'x, y, z'
loop_
 _atom_site_type_symbol
 _atom_site_label
 _atom_site_symmetry_multiplicity
 _atom_site_fract_x
 _atom_site_fract_y
 _atom_site_fract_z
 _atom_site_occupancy
  Li  Li0  1  0.66642900  0.33272900  0.08413100  1
  Li  Li1  1  0.66678200  0.33359700  0.58262200  1
  Li  Li2  1  0.00206400  0.00399500  0.25428300  1
  Li  Li3  1  0.00349000  0.00729400  0.74824700  1
  Li  Li4  1  0.33134000  0.66269200  0.41224800  1
  Li  Li5  1  0.32988200  0.65943400  0.91848300  1
  Mn  Mn0  1  0.00223600  0.00419600  0.49812700  1
  Mn  Mn1  1  0.33135700  0.66277400  0.16861500  1
  Mn  Mn2  1  0.99874500  0.99767800  0.99863200  1
  Mn  Mn3  1  0.33459400  0.66892200  0.66804400  1
  Co  Co0  1  0.66662300  0.33326900  0.83336900  1
  Co  Co1  1  0.66665700  0.33331000  0.33326700  1
  O  O0  1  0.49668100  0.99323900  0.88874500  1
  O  O1  1  0.49721700  0.99602100  0.38519600  1
  O  O2  1  0.83607600  0.67056700  0.28150900  1
  O  O3  1  0.83657700  0.67345400  0.77774700  1
  O  O4  1  0.83942700  0.68098600  0.04457700  1
  O  O5  1  0.84124200  0.68220100  0.55126700  1
  O  O6  1  0.49383200  0.98558900  0.62211000  1
  O  O7  1  0.49208100  0.98448800  0.11551300  1
  O  O8  1  0.17751000  0.35494700  0.20747700  1
  O  O9  1  0.17982600  0.35959300  0.70883100  1
  O  O10  1  0.15582500  0.31179700  0.45918800  1
  O  O11  1  0.15350600  0.30722500  0.95777500  1
loop_
_geom_bond_atom_site_label_1
_geom_bond_atom_site_label_2
_geom_bond_distance
_geom_bond_site_symmetry_2
Li0 O8 2.137196 1_555
Li0 O8 2.141428 1_655
Li0 O4 2.149212 1_555
Li0 O7 2.153551 1_545
Li0 O11 2.167529 1_654
Li0 O11 2.172639 1_554
Li1 O10 2.137157 1_655
Li1 O10 2.141750 1_555
Li1 O6 2.147685 1_545
Li1 O5 2.155845 1_555
Li1 O9 2.167273 1_555
Li1 O9 2.171861 1_655
Li2 O2 2.064532 1_445
Li2 O8 2.165585 1_555
Li2 O1 2.167691 1_445
Li2 O1 2.168600 1_545
Li2 O7 2.267986 1_545
Li2 O7 2.273497 1_445
Li3 O3 2.064983 1_445
Li3 O6 2.162222 1_445
Li3 O6 2.162805 1_545
Li3 O9 2.174325 1_555
Li3 O0 2.244296 1_445
Li3 O0 2.249807 1_545
Li4 O1 2.064088 1_555
Li4 O10 2.165262 1_555
Li4 O2 2.166150 1_555
Li4 O2 2.167310 1_455
Li4 O5 2.270393 1_455
Li4 O5 2.275582 1_555
Li5 O0 2.064562 1_555
Li5 O4 2.161551 1_556
Li5 O4 2.162288 1_456
Li5 O11 2.173806 1_555
Li5 O3 2.246261 1_555
Li5 O3 2.252161 1_455
Mn0 O10 1.897842 1_555
Mn0 O5 1.992676 1_445
Mn0 O1 2.029899 1_545
Mn0 O1 2.038189 1_445
Mn0 O6 2.096071 1_445
Mn0 O6 2.104294 1_545
Mn1 O8 1.899233 1_555
Mn1 O7 1.990945 1_555
Mn1 O2 2.029395 1_455
Mn1 O2 2.037203 1_555
Mn1 O4 2.096523 1_555
Mn1 O4 2.105332 1_455
Mn2 O11 1.910015 1_665
Mn2 O4 1.955416 1_556
Mn2 O0 2.003656 1_655
Mn2 O0 2.007054 1_555
Mn2 O7 2.043478 1_556
Mn2 O7 2.047405 1_656
Mn3 O9 1.908663 1_555
Mn3 O6 1.955257 1_555
Mn3 O3 2.002579 1_455
Mn3 O3 2.005399 1_555
Mn3 O5 2.042429 1_555
Mn3 O5 2.046621 1_455
Co0 O11 2.096969 1_555
Co0 O9 2.097796 1_655
Co0 O11 2.100923 1_655
Co0 O9 2.101983 1_555
Co0 O0 2.103612 1_545
Co0 O3 2.104768 1_555
Co1 O2 2.084001 1_555
Co1 O1 2.084310 1_545
Co1 O8 2.111171 1_655
Co1 O10 2.112445 1_555
Co1 O8 2.115414 1_555
Co1 O10 2.116516 1_655
