# generated using pymatgen
data_Na4Be2Si6Sn(HO5)4
_symmetry_space_group_name_H-M   'P 1'
_cell_length_a   11.10730583
_cell_length_b   11.10730583
_cell_length_c   12.14400280
_cell_angle_alpha   64.34654205
_cell_angle_beta   64.34654205
_cell_angle_gamma   39.41619513
_symmetry_Int_Tables_number   1
_chemical_formula_structural   Na4Be2Si6Sn(HO5)4
_chemical_formula_sum   'Na8 Be4 Si12 Sn2 H8 O40'
_cell_volume   844.74519300
_cell_formula_units_Z   2
loop_
 _symmetry_equiv_pos_site_id
 _symmetry_equiv_pos_as_xyz
  1  'x, y, z'
loop_
 _atom_site_type_symbol
 _atom_site_label
 _atom_site_symmetry_multiplicity
 _atom_site_fract_x
 _atom_site_fract_y
 _atom_site_fract_z
 _atom_site_occupancy
  Na  Na0  1  0.20424800  0.30972800  0.26694600  1
  Na  Na1  1  0.69027200  0.79575200  0.23305400  1
  Na  Na2  1  0.79575200  0.69027200  0.73305400  1
  Na  Na3  1  0.30972800  0.20424800  0.76694600  1
  Na  Na4  1  0.20919500  0.68461600  0.19739200  1
  Na  Na5  1  0.31538400  0.79080500  0.30260800  1
  Na  Na6  1  0.79080500  0.31538400  0.80260800  1
  Na  Na7  1  0.68461600  0.20919500  0.69739200  1
  Be  Be0  1  0.60307600  0.39692400  0.25000000  1
  Be  Be1  1  0.39692400  0.60307600  0.75000000  1
  Be  Be2  1  0.91646600  0.08353400  0.25000000  1
  Be  Be3  1  0.08353400  0.91646600  0.75000000  1
  Si  Si0  1  0.65683700  0.54900600  0.00231000  1
  Si  Si1  1  0.45099400  0.34316300  0.49769000  1
  Si  Si2  1  0.34316300  0.45099400  0.99769000  1
  Si  Si3  1  0.54900600  0.65683700  0.50231000  1
  Si  Si4  1  0.85975700  0.37371300  0.30445200  1
  Si  Si5  1  0.62628700  0.14024300  0.19554800  1
  Si  Si6  1  0.14024300  0.62628700  0.69554800  1
  Si  Si7  1  0.37371300  0.85975700  0.80445200  1
  Si  Si8  1  0.93427400  0.85683000  0.99397000  1
  Si  Si9  1  0.14317000  0.06572600  0.50603000  1
  Si  Si10  1  0.06572600  0.14317000  0.00603000  1
  Si  Si11  1  0.85683000  0.93427400  0.49397000  1
  Sn  Sn0  1  0.00000000  0.50000000  0.00000000  1
  Sn  Sn1  1  0.50000000  0.00000000  0.50000000  1
  H  H0  1  0.96466800  0.65780100  0.39921600  1
  H  H1  1  0.34219900  0.03533200  0.10078400  1
  H  H2  1  0.03533200  0.34219900  0.60078400  1
  H  H3  1  0.65780100  0.96466800  0.89921600  1
  H  H4  1  0.17453600  0.45599100  0.41322200  1
  H  H5  1  0.54400900  0.82546400  0.08677800  1
  H  H6  1  0.82546400  0.54400900  0.58677800  1
  H  H7  1  0.45599100  0.17453600  0.91322200  1
  O  O0  1  0.43504700  0.47867000  0.36682400  1
  O  O1  1  0.52133000  0.56495300  0.13317600  1
  O  O2  1  0.56495300  0.52133000  0.63317600  1
  O  O3  1  0.47867000  0.43504700  0.86682400  1
  O  O4  1  0.86006700  0.77358000  0.99478100  1
  O  O5  1  0.22642000  0.13993300  0.50521900  1
  O  O6  1  0.13993300  0.22642000  0.00521900  1
  O  O7  1  0.77358000  0.86006700  0.49478100  1
  O  O8  1  0.92670100  0.47225600  0.19297900  1
  O  O9  1  0.52774400  0.07329900  0.30702100  1
  O  O10  1  0.07329900  0.52774400  0.80702100  1
  O  O11  1  0.47225600  0.92670100  0.69297900  1
  O  O12  1  0.99981400  0.91875100  0.36833200  1
  O  O13  1  0.08124900  0.00018600  0.13166800  1
  O  O14  1  0.00018600  0.08124900  0.63166800  1
  O  O15  1  0.91875100  0.99981400  0.86833200  1
  O  O16  1  0.15513300  0.67423500  0.02745900  1
  O  O17  1  0.32576500  0.84486700  0.47254100  1
  O  O18  1  0.84486700  0.32576500  0.97254100  1
  O  O19  1  0.67423500  0.15513300  0.52745900  1
  O  O20  1  0.73433900  0.63715300  0.98428200  1
  O  O21  1  0.36284700  0.26566100  0.51571800  1
  O  O22  1  0.26566100  0.36284700  0.01571800  1
  O  O23  1  0.63715300  0.73433900  0.48428200  1
  O  O24  1  0.08478800  0.55215800  0.35254700  1
  O  O25  1  0.44784200  0.91521200  0.14745300  1
  O  O26  1  0.91521200  0.44784200  0.64745300  1
  O  O27  1  0.55215800  0.08478800  0.85254700  1
  O  O28  1  0.81365000  0.29485400  0.26137700  1
  O  O29  1  0.70514600  0.18635000  0.23862300  1
  O  O30  1  0.18635000  0.70514600  0.73862300  1
  O  O31  1  0.29485400  0.81365000  0.76137700  1
  O  O32  1  0.66214200  0.54390700  0.38561500  1
  O  O33  1  0.45609300  0.33785800  0.11438500  1
  O  O34  1  0.33785800  0.45609300  0.61438500  1
  O  O35  1  0.54390700  0.66214200  0.88561500  1
  O  O36  1  0.03670600  0.19702800  0.38349100  1
  O  O37  1  0.80297200  0.96329400  0.11650900  1
  O  O38  1  0.96329400  0.80297200  0.61650900  1
  O  O39  1  0.19702800  0.03670600  0.88349100  1
loop_
_geom_bond_atom_site_label_1
_geom_bond_atom_site_label_2
_geom_bond_distance
_geom_bond_site_symmetry_2
Na0 O24 2.408512 1_555
Na0 O9 2.423212 1_555
Na0 O8 2.442171 1_455
Na0 O36 2.611136 1_555
Na0 O5 2.676676 1_555
Na0 O22 2.717129 1_555
Na0 O33 2.777946 1_555
Na1 O25 2.408512 1_555
Na1 O8 2.423212 1_555
Na1 O9 2.442171 1_565
Na1 O37 2.611136 1_555
Na1 O4 2.676676 1_554
Na1 O23 2.717129 1_555
Na1 O32 2.777946 1_555
Na2 O26 2.408512 1_555
Na2 O11 2.423212 1_555
Na2 O10 2.442171 1_655
Na2 O38 2.611136 1_555
Na2 O7 2.676676 1_555
Na2 O20 2.717129 1_555
Na2 O35 2.777946 1_555
Na3 O27 2.408512 1_555
Na3 O10 2.423212 1_555
Na3 O11 2.442171 1_545
Na3 O39 2.611136 1_555
Na3 O6 2.676676 1_556
Na3 O21 2.717129 1_555
Na3 O34 2.777946 1_555
Na4 O13 2.409525 1_565
Na4 O1 2.414783 1_555
Na4 O16 2.453278 1_555
Na4 O24 2.472010 1_555
Na4 O0 2.699410 1_555
Na4 O12 2.762316 1_455
Na4 O33 2.831828 1_555
Na5 O12 2.409525 1_455
Na5 O0 2.414783 1_555
Na5 O17 2.453278 1_555
Na5 O25 2.472010 1_555
Na5 O1 2.699410 1_555
Na5 O13 2.762316 1_565
Na5 O32 2.831828 1_555
Na6 O15 2.409525 1_545
Na6 O3 2.414783 1_555
Na6 O18 2.453278 1_555
Na6 O26 2.472010 1_555
Na6 O2 2.699410 1_555
Na6 O14 2.762316 1_655
Na6 O35 2.831828 1_555
Na7 O14 2.409525 1_655
Na7 O2 2.414783 1_555
Na7 O19 2.453278 1_555
Na7 O27 2.472010 1_555
Na7 O3 2.699410 1_555
Na7 O15 2.762316 1_545
Na7 O34 2.831828 1_555
Be0 O0 1.588968 1_555
Be0 O1 1.588968 1_555
Be0 O29 1.679870 1_555
Be0 O28 1.679870 1_555
Be1 O3 1.588968 1_555
Be1 O2 1.588968 1_555
Be1 O30 1.679870 1_555
Be1 O31 1.679870 1_555
Be2 O13 1.590135 1_655
Be2 O12 1.590135 1_545
Be2 O29 1.683771 1_555
Be2 O28 1.683771 1_555
Be3 O14 1.590135 1_565
Be3 O15 1.590135 1_455
Be3 O30 1.683771 1_555
Be3 O31 1.683771 1_555
H0 O24 0.990111 1_655
H1 O25 0.990111 1_545
H2 O26 0.990111 1_455
H3 O27 0.990111 1_565
H4 O24 0.993425 1_555
H5 O25 0.993425 1_555
H6 O26 0.993425 1_555
H7 O27 0.993425 1_555
O0 Si1 1.607211 1_555
O1 Si0 1.607211 1_555
O2 Si3 1.607211 1_555
O3 Si2 1.607211 1_555
O4 Si8 1.642320 1_555
O4 Sn0 2.067521 1_656
O5 Si9 1.642320 1_555
O5 Sn1 2.067521 1_555
O6 Si10 1.642320 1_555
O6 Sn0 2.067521 1_555
O7 Si11 1.642320 1_555
O7 Sn1 2.067521 1_565
O8 Si4 1.639058 1_555
O8 Sn0 2.088127 1_655
O9 Si5 1.639058 1_555
O9 Sn1 2.088127 1_555
O10 Si6 1.639058 1_555
O10 Sn0 2.088127 1_556
O11 Si7 1.639058 1_555
O11 Sn1 2.088127 1_565
O12 Si11 1.608261 1_555
O13 Si10 1.608261 1_555
O14 Si9 1.608261 1_555
O15 Si8 1.608261 1_555
O16 Si8 1.661001 1_454
O16 Si2 1.661869 1_554
O17 Si9 1.661001 1_565
O17 Si3 1.661869 1_555
O18 Si10 1.661001 1_656
O18 Si0 1.661869 1_556
O19 Si11 1.661001 1_545
O19 Si1 1.661869 1_555
O20 Si0 1.643484 1_556
O20 Sn0 2.086765 1_656
O21 Si1 1.643484 1_555
O21 Sn1 2.086765 1_555
O22 Si2 1.643484 1_554
O22 Sn0 2.086765 1_555
O23 Si3 1.643484 1_555
O23 Sn1 2.086765 1_565
O28 Si4 1.620157 1_555
O29 Si5 1.620157 1_555
O30 Si6 1.620157 1_555
O31 Si7 1.620157 1_555
O32 Si4 1.640683 1_555
O32 Si3 1.650007 1_555
O33 Si5 1.640683 1_555
O33 Si2 1.650007 1_554
O34 Si6 1.640683 1_555
O34 Si1 1.650007 1_555
O35 Si7 1.640683 1_555
O35 Si0 1.650007 1_556
O36 Si4 1.636563 1_455
O36 Si9 1.649131 1_555
O37 Si5 1.636563 1_565
O37 Si8 1.649131 1_554
O38 Si6 1.636563 1_655
O38 Si11 1.649131 1_555
O39 Si7 1.636563 1_545
O39 Si10 1.649131 1_556
