# generated using pymatgen
data_NiP2(H8O5)2
_symmetry_space_group_name_H-M   'P 1'
_cell_length_a   7.26666864
_cell_length_b   7.26666864
_cell_length_c   10.41016124
_cell_angle_alpha   88.21788095
_cell_angle_beta   88.21788095
_cell_angle_gamma   90.05854120
_symmetry_Int_Tables_number   1
_chemical_formula_structural   NiP2(H8O5)2
_chemical_formula_sum   'Ni2 P4 H32 O20'
_cell_volume   549.17035227
_cell_formula_units_Z   2
loop_
 _symmetry_equiv_pos_site_id
 _symmetry_equiv_pos_as_xyz
  1  'x, y, z'
loop_
 _atom_site_type_symbol
 _atom_site_label
 _atom_site_symmetry_multiplicity
 _atom_site_fract_x
 _atom_site_fract_y
 _atom_site_fract_z
 _atom_site_occupancy
  Ni  Ni0  1  0.26583000  0.73417000  0.75000000  1
  Ni  Ni1  1  0.73417000  0.26583000  0.25000000  1
  P  P0  1  0.77902200  0.74952600  0.50980500  1
  P  P1  1  0.74952600  0.77902200  0.00980500  1
  P  P2  1  0.25047400  0.22097800  0.99019500  1
  P  P3  1  0.22097800  0.25047400  0.49019500  1
  H  H0  1  0.95495100  0.93443100  0.69623400  1
  H  H1  1  0.93443100  0.95495100  0.19623400  1
  H  H2  1  0.75084200  0.94625700  0.93674500  1
  H  H3  1  0.94625700  0.75084200  0.43674500  1
  H  H4  1  0.95153500  0.54048600  0.69529200  1
  H  H5  1  0.57331100  0.93841700  0.69367600  1
  H  H6  1  0.54048600  0.95153500  0.19529200  1
  H  H7  1  0.93841700  0.57331100  0.19367600  1
  H  H8  1  0.75744200  0.64107600  0.91727400  1
  H  H9  1  0.64107600  0.75744200  0.41727400  1
  H  H10  1  0.36155100  0.73255700  0.99629400  1
  H  H11  1  0.57515600  0.54105000  0.69285500  1
  H  H12  1  0.26032400  0.86124000  0.50514400  1
  H  H13  1  0.73255700  0.36155100  0.49629400  1
  H  H14  1  0.54105000  0.57515600  0.19285500  1
  H  H15  1  0.86124000  0.26032400  0.00514400  1
  H  H16  1  0.13876000  0.73967600  0.99485600  1
  H  H17  1  0.45895000  0.42484400  0.80714500  1
  H  H18  1  0.26744300  0.63844900  0.50370600  1
  H  H19  1  0.73967600  0.13876000  0.49485600  1
  H  H20  1  0.42484400  0.45895000  0.30714500  1
  H  H21  1  0.63844900  0.26744300  0.00370600  1
  H  H22  1  0.35892400  0.24255800  0.58272600  1
  H  H23  1  0.24255800  0.35892400  0.08272600  1
  H  H24  1  0.06158300  0.42668900  0.80632400  1
  H  H25  1  0.45951400  0.04846500  0.80470800  1
  H  H26  1  0.42668900  0.06158300  0.30632400  1
  H  H27  1  0.04846500  0.45951400  0.30470800  1
  H  H28  1  0.05374300  0.24915800  0.56325500  1
  H  H29  1  0.24915800  0.05374300  0.06325500  1
  H  H30  1  0.06556900  0.04504900  0.80376600  1
  H  H31  1  0.04504900  0.06556900  0.30376600  1
  O  O0  1  0.77019700  0.92463500  0.58865500  1
  O  O1  1  0.92463500  0.77019700  0.08865500  1
  O  O2  1  0.46937700  0.93273000  0.75763600  1
  O  O3  1  0.93273000  0.46937700  0.25763600  1
  O  O4  1  0.76493300  0.56614000  0.58698400  1
  O  O5  1  0.56614000  0.76493300  0.08698400  1
  O  O6  1  0.29791200  0.74831200  0.55278300  1
  O  O7  1  0.46382100  0.53617900  0.75000000  1
  O  O8  1  0.06511900  0.93488100  0.75000000  1
  O  O9  1  0.74831200  0.29791200  0.05278300  1
  O  O10  1  0.25168800  0.70208800  0.94721700  1
  O  O11  1  0.93488100  0.06511900  0.25000000  1
  O  O12  1  0.53617900  0.46382100  0.25000000  1
  O  O13  1  0.70208800  0.25168800  0.44721700  1
  O  O14  1  0.43386000  0.23506700  0.91301600  1
  O  O15  1  0.23506700  0.43386000  0.41301600  1
  O  O16  1  0.06727000  0.53062300  0.74236400  1
  O  O17  1  0.53062300  0.06727000  0.24236400  1
  O  O18  1  0.07536500  0.22980300  0.91134500  1
  O  O19  1  0.22980300  0.07536500  0.41134500  1
loop_
_geom_bond_atom_site_label_1
_geom_bond_atom_site_label_2
_geom_bond_distance
_geom_bond_site_symmetry_2
Ni0 O7 2.035718 1_555
Ni0 O6 2.058404 1_555
Ni0 O10 2.058404 1_555
Ni0 O8 2.063684 1_555
Ni0 O2 2.070275 1_555
Ni0 O16 2.070275 1_555
Ni1 O12 2.035718 1_555
Ni1 O9 2.058404 1_555
Ni1 O13 2.058404 1_555
Ni1 O11 2.063684 1_555
Ni1 O3 2.070275 1_555
Ni1 O17 2.070275 1_555
H0 O8 0.991037 1_655
H1 O11 0.991037 1_565
H2 P1 1.413294 1_556
H3 P0 1.413294 1_555
H4 O16 0.987992 1_655
H5 O2 0.991160 1_555
H6 O17 0.987992 1_565
H7 O3 0.991160 1_555
H8 P1 1.411642 1_556
H9 P0 1.411642 1_555
H10 O10 0.989660 1_555
H11 O7 0.989131 1_555
H12 O6 0.988698 1_555
H13 O13 0.989660 1_555
H14 O12 0.989131 1_555
H15 O9 0.988698 1_555
H16 O10 0.988698 1_555
H17 O7 0.989131 1_555
H18 O6 0.989660 1_555
H19 O13 0.988698 1_555
H20 O12 0.989131 1_555
H21 O9 0.989660 1_555
H22 P3 1.411642 1_555
H23 P2 1.411642 1_554
H24 O16 0.991160 1_555
H25 O2 0.987992 1_545
H26 O17 0.991160 1_555
H27 O3 0.987992 1_455
H28 P3 1.413294 1_555
H29 P2 1.413294 1_554
H30 O8 0.991037 1_545
H31 O11 0.991037 1_455
O0 P0 1.535872 1_555
O1 P1 1.535872 1_555
O4 P0 1.536182 1_555
O5 P1 1.536182 1_555
O14 P2 1.536182 1_555
O15 P3 1.536182 1_555
O18 P2 1.535872 1_555
O19 P3 1.535872 1_555
