# generated using pymatgen
data_LiCu2F7
_symmetry_space_group_name_H-M   'P 1'
_cell_length_a   10.57049300
_cell_length_b   14.35254300
_cell_length_c   7.05921100
_cell_angle_alpha   90.00000000
_cell_angle_beta   90.00000000
_cell_angle_gamma   90.00000000
_symmetry_Int_Tables_number   1
_chemical_formula_structural   LiCu2F7
_chemical_formula_sum   'Li8 Cu16 F56'
_cell_volume   1070.97729260
_cell_formula_units_Z   8
loop_
 _symmetry_equiv_pos_site_id
 _symmetry_equiv_pos_as_xyz
  1  'x, y, z'
loop_
 _atom_site_type_symbol
 _atom_site_label
 _atom_site_symmetry_multiplicity
 _atom_site_fract_x
 _atom_site_fract_y
 _atom_site_fract_z
 _atom_site_occupancy
  Li  Li0  1  0.07600900  0.48966000  0.90588800  1
  Li  Li1  1  0.11369800  0.99892100  0.03405800  1
  Li  Li2  1  0.38630200  0.49892100  0.53405800  1
  Li  Li3  1  0.42399100  0.98966000  0.40588800  1
  Li  Li4  1  0.57600900  0.01034000  0.90588800  1
  Li  Li5  1  0.61369800  0.50107900  0.03405800  1
  Li  Li6  1  0.88630200  0.00107900  0.53405800  1
  Li  Li7  1  0.92399100  0.51034000  0.40588800  1
  Cu  Cu0  1  0.03313500  0.68294200  0.02302600  1
  Cu  Cu1  1  0.18123500  0.01323300  0.56123600  1
  Cu  Cu2  1  0.22747500  0.82135100  0.70498700  1
  Cu  Cu3  1  0.23509000  0.33410900  0.70962600  1
  Cu  Cu4  1  0.26491000  0.83410900  0.20962600  1
  Cu  Cu5  1  0.27252500  0.32135100  0.20498700  1
  Cu  Cu6  1  0.31876500  0.51323300  0.06123600  1
  Cu  Cu7  1  0.46686500  0.18294200  0.52302600  1
  Cu  Cu8  1  0.53313500  0.81705800  0.02302600  1
  Cu  Cu9  1  0.68123500  0.48676700  0.56123600  1
  Cu  Cu10  1  0.72747500  0.67864900  0.70498700  1
  Cu  Cu11  1  0.73509000  0.16589100  0.70962600  1
  Cu  Cu12  1  0.76491000  0.66589100  0.20962600  1
  Cu  Cu13  1  0.77252500  0.17864900  0.20498700  1
  Cu  Cu14  1  0.81876500  0.98676700  0.06123600  1
  Cu  Cu15  1  0.96686500  0.31705800  0.52302600  1
  F  F0  1  0.03025400  0.41087200  0.37531600  1
  F  F1  1  0.03514700  0.06994300  0.48364200  1
  F  F2  1  0.06301900  0.38928700  0.73870100  1
  F  F3  1  0.08851800  0.90216100  0.62513500  1
  F  F4  1  0.10624500  0.77071300  0.18407600  1
  F  F5  1  0.10333200  0.73818000  0.79551700  1
  F  F6  1  0.12909700  0.24484100  0.59323700  1
  F  F7  1  0.14457700  0.24022600  0.25135700  1
  F  F8  1  0.17322200  0.05887300  0.81041000  1
  F  F9  1  0.17550800  0.43227400  0.10771500  1
  F  F10  1  0.18878400  0.60097700  0.00127400  1
  F  F11  1  0.19682000  0.95836000  0.28708700  1
  F  F12  1  0.22623600  0.88486300  0.95660400  1
  F  F13  1  0.24033300  0.27273300  0.95047100  1
  F  F14  1  0.25966700  0.77273300  0.45047100  1
  F  F15  1  0.27376400  0.38486300  0.45660400  1
  F  F16  1  0.30318000  0.45836000  0.78708700  1
  F  F17  1  0.31121600  0.10097700  0.50127400  1
  F  F18  1  0.32449200  0.93227400  0.60771500  1
  F  F19  1  0.32677800  0.55887300  0.31041000  1
  F  F20  1  0.35542300  0.74022600  0.75135700  1
  F  F21  1  0.37090300  0.74484100  0.09323700  1
  F  F22  1  0.39666800  0.23818000  0.29551700  1
  F  F23  1  0.39375500  0.27071300  0.68407600  1
  F  F24  1  0.41148200  0.40216100  0.12513500  1
  F  F25  1  0.43698100  0.88928700  0.23870100  1
  F  F26  1  0.46485300  0.56994300  0.98364200  1
  F  F27  1  0.46974600  0.91087200  0.87531600  1
  F  F28  1  0.53025400  0.08912800  0.37531600  1
  F  F29  1  0.53514700  0.43005700  0.48364200  1
  F  F30  1  0.56301900  0.11071300  0.73870100  1
  F  F31  1  0.58851800  0.59783900  0.62513500  1
  F  F32  1  0.60624500  0.72928700  0.18407600  1
  F  F33  1  0.60333200  0.76182000  0.79551700  1
  F  F34  1  0.62909700  0.25515900  0.59323700  1
  F  F35  1  0.64457700  0.25977400  0.25135700  1
  F  F36  1  0.67322200  0.44112700  0.81041000  1
  F  F37  1  0.67550800  0.06772600  0.10771500  1
  F  F38  1  0.68878400  0.89902300  0.00127400  1
  F  F39  1  0.69682000  0.54164000  0.28708700  1
  F  F40  1  0.72623600  0.61513700  0.95660400  1
  F  F41  1  0.74033300  0.22726700  0.95047100  1
  F  F42  1  0.75966700  0.72726700  0.45047100  1
  F  F43  1  0.77376400  0.11513700  0.45660400  1
  F  F44  1  0.80318000  0.04164000  0.78708700  1
  F  F45  1  0.81121600  0.39902300  0.50127400  1
  F  F46  1  0.82449200  0.56772600  0.60771500  1
  F  F47  1  0.82677800  0.94112700  0.31041000  1
  F  F48  1  0.85542300  0.75977400  0.75135700  1
  F  F49  1  0.87090300  0.75515900  0.09323700  1
  F  F50  1  0.89666800  0.26182000  0.29551700  1
  F  F51  1  0.89375500  0.22928700  0.68407600  1
  F  F52  1  0.91148200  0.09783900  0.12513500  1
  F  F53  1  0.93698100  0.61071300  0.23870100  1
  F  F54  1  0.96485300  0.93005700  0.98364200  1
  F  F55  1  0.96974600  0.58912800  0.87531600  1
loop_
_geom_bond_atom_site_label_1
_geom_bond_atom_site_label_2
_geom_bond_distance
_geom_bond_site_symmetry_2
Cu0 F55 1.830084 1_454
Cu0 F4 1.864586 1_555
Cu0 F5 1.938679 1_554
Cu0 F10 2.028418 1_555
Cu0 F49 2.064163 1_455
Cu0 F53 2.103743 1_455
Cu1 F1 1.829519 1_555
Cu1 F8 1.878895 1_555
Cu1 F17 1.911258 1_555
Cu1 F3 1.924931 1_545
Cu1 F18 1.936728 1_545
Cu1 F11 2.095875 1_545
Cu2 F20 1.814399 1_555
Cu2 F5 1.885570 1_555
Cu2 F3 1.954598 1_555
Cu2 F14 1.957236 1_555
Cu2 F12 1.996512 1_555
Cu2 F18 2.014384 1_555
Cu3 F6 1.889940 1_555
Cu3 F13 1.915635 1_555
Cu3 F23 1.916593 1_555
Cu3 F15 1.971811 1_555
Cu3 F2 1.994395 1_555
Cu3 F16 1.999315 1_555
Cu4 F21 1.889940 1_555
Cu4 F14 1.915635 1_555
Cu4 F4 1.916593 1_555
Cu4 F12 1.971811 1_554
Cu4 F25 1.994395 1_555
Cu4 F11 1.999315 1_555
Cu5 F7 1.814399 1_555
Cu5 F22 1.885570 1_555
Cu5 F24 1.954598 1_555
Cu5 F13 1.957236 1_554
Cu5 F15 1.996512 1_555
Cu5 F9 2.014384 1_555
Cu6 F26 1.829519 1_554
Cu6 F19 1.878895 1_555
Cu6 F10 1.911258 1_555
Cu6 F24 1.924931 1_555
Cu6 F9 1.936728 1_555
Cu6 F16 2.095875 1_554
Cu7 F28 1.830084 1_555
Cu7 F23 1.864586 1_555
Cu7 F22 1.938679 1_555
Cu7 F17 2.028418 1_555
Cu7 F34 2.064163 1_555
Cu7 F30 2.103743 1_555
Cu8 F27 1.830084 1_554
Cu8 F32 1.864586 1_555
Cu8 F33 1.938679 1_554
Cu8 F38 2.028418 1_555
Cu8 F21 2.064163 1_555
Cu8 F25 2.103743 1_555
Cu9 F29 1.829519 1_555
Cu9 F36 1.878895 1_555
Cu9 F45 1.911258 1_555
Cu9 F31 1.924931 1_555
Cu9 F46 1.936728 1_555
Cu9 F39 2.095875 1_555
Cu10 F48 1.814399 1_555
Cu10 F33 1.885570 1_555
Cu10 F31 1.954598 1_555
Cu10 F42 1.957236 1_555
Cu10 F40 1.996512 1_555
Cu10 F46 2.014384 1_555
Cu11 F34 1.889940 1_555
Cu11 F41 1.915635 1_555
Cu11 F51 1.916593 1_555
Cu11 F43 1.971811 1_555
Cu11 F30 1.994395 1_555
Cu11 F44 1.999315 1_555
Cu12 F49 1.889940 1_555
Cu12 F42 1.915635 1_555
Cu12 F32 1.916593 1_555
Cu12 F40 1.971811 1_554
Cu12 F53 1.994395 1_555
Cu12 F39 1.999315 1_555
Cu13 F35 1.814399 1_555
Cu13 F50 1.885570 1_555
Cu13 F52 1.954598 1_555
Cu13 F41 1.957236 1_554
Cu13 F43 1.996512 1_555
Cu13 F37 2.014384 1_555
Cu14 F54 1.829519 1_554
Cu14 F47 1.878895 1_555
Cu14 F38 1.911258 1_555
Cu14 F52 1.924931 1_565
Cu14 F37 1.936728 1_565
Cu14 F44 2.095875 1_564
Cu15 F0 1.830084 1_655
Cu15 F51 1.864586 1_555
Cu15 F50 1.938679 1_555
Cu15 F45 2.028418 1_555
Cu15 F6 2.064163 1_655
Cu15 F2 2.103743 1_655
F0 Li7 1.829308 1_455
F1 Li6 1.891830 1_455
F2 Li0 1.867377 1_555
F8 Li1 1.904949 1_546
F9 Li0 1.953060 1_554
F10 Li0 2.104058 1_554
F11 Li1 2.073974 1_555
F12 Li1 2.096163 1_556
F15 Li2 2.096163 1_555
F16 Li2 2.073974 1_555
F17 Li3 2.104058 1_545
F18 Li3 1.953060 1_555
F19 Li2 1.904949 1_555
F25 Li3 1.867377 1_555
F26 Li5 1.891830 1_556
F27 Li4 1.829308 1_565
F28 Li3 1.829308 1_545
F29 Li2 1.891830 1_555
F30 Li4 1.867377 1_555
F36 Li5 1.904949 1_556
F37 Li4 1.953060 1_554
F38 Li4 2.104058 1_564
F39 Li5 2.073974 1_555
F40 Li5 2.096163 1_556
F43 Li6 2.096163 1_555
F44 Li6 2.073974 1_555
F45 Li7 2.104058 1_555
F46 Li7 1.953060 1_555
F47 Li6 1.904949 1_565
F53 Li7 1.867377 1_555
F54 Li1 1.891830 1_656
F55 Li0 1.829308 1_655
