# generated using pymatgen
data_Li5V6O5F19
_symmetry_space_group_name_H-M   'P 1'
_cell_length_a   5.20829000
_cell_length_b   5.40008793
_cell_length_c   16.16101278
_cell_angle_alpha   99.46037060
_cell_angle_beta   90.14388296
_cell_angle_gamma   90.38026020
_symmetry_Int_Tables_number   1
_chemical_formula_structural   Li5V6O5F19
_chemical_formula_sum   'Li5 V6 O5 F19'
_cell_volume   448.33738660
_cell_formula_units_Z   1
loop_
 _symmetry_equiv_pos_site_id
 _symmetry_equiv_pos_as_xyz
  1  'x, y, z'
loop_
 _atom_site_type_symbol
 _atom_site_label
 _atom_site_symmetry_multiplicity
 _atom_site_fract_x
 _atom_site_fract_y
 _atom_site_fract_z
 _atom_site_occupancy
  Li  Li0  1  0.03424100  0.95366300  0.77291900  1
  Li  Li1  1  0.74170600  0.49721100  0.48197800  1
  Li  Li2  1  0.78593900  0.30401000  0.15104500  1
  Li  Li3  1  0.45939900  0.49725000  0.78607500  1
  Li  Li4  1  0.97466500  0.37232700  0.89998200  1
  V  V0  1  0.52374100  0.86376200  0.66470100  1
  V  V1  1  0.99948900  0.66781000  0.33166700  1
  V  V2  1  0.02731300  0.96032800  0.99702700  1
  V  V3  1  0.52749700  0.48566800  0.00631200  1
  V  V4  1  0.97809200  0.36384200  0.66555200  1
  V  V5  1  0.51662200  0.19288800  0.33373600  1
  O  O0  1  0.80759700  0.63715400  0.69534800  1
  O  O1  1  0.70939600  0.46163200  0.35188600  1
  O  O2  1  0.78652100  0.30357500  0.01643500  1
  O  O3  1  0.19512000  0.68867000  0.97217500  1
  O  O4  1  0.70140800  0.13380400  0.69356500  1
  F  F0  1  0.79855200  0.96683200  0.35558900  1
  F  F1  1  0.70221800  0.81266600  0.02846700  1
  F  F2  1  0.29490700  0.87505400  0.31565100  1
  F  F3  1  0.91832700  0.61867700  0.22097000  1
  F  F4  1  0.91430700  0.98665200  0.88178700  1
  F  F5  1  0.58374100  0.77010400  0.55166000  1
  F  F6  1  0.41696300  0.52517800  0.11532900  1
  F  F7  1  0.38321700  0.84202100  0.77506200  1
  F  F8  1  0.06585900  0.69032700  0.44264200  1
  F  F9  1  0.20265700  0.36497200  0.30849800  1
  F  F10  1  0.31076700  0.51733800  0.64769800  1
  F  F11  1  0.62340100  0.47709000  0.88444400  1
  F  F12  1  0.07332600  0.07513500  0.11050800  1
  F  F13  1  0.90799900  0.29615900  0.55255200  1
  F  F14  1  0.59282100  0.12176500  0.21848500  1
  F  F15  1  0.43049700  0.22580000  0.44687500  1
  F  F16  1  0.11243400  0.34643100  0.78164500  1
  F  F17  1  0.28374700  0.20409700  0.96762800  1
  F  F18  1  0.18975300  0.02508200  0.64821400  1
loop_
_geom_bond_atom_site_label_1
_geom_bond_atom_site_label_2
_geom_bond_distance
_geom_bond_site_symmetry_2
Li0 O0 2.268854 1_455
Li0 O4 2.453010 1_465
Li1 O1 2.085762 1_555
Li2 O2 2.175059 1_555
Li3 O0 2.523646 1_555
Li3 O4 2.598771 1_555
Li4 O2 2.207737 1_556
Li4 O3 2.215816 1_655
O0 V4 1.727605 1_555
O0 V0 2.036667 1_555
O1 V5 1.743401 1_555
O1 V1 1.931040 1_555
O2 V3 1.697957 1_555
O2 V2 2.224544 1_644
O3 V2 1.703609 1_555
O3 V3 2.173026 1_556
O4 V0 1.719493 1_545
O4 V4 1.997271 1_555
F0 V1 1.916078 1_555
F0 V5 1.983411 1_565
F1 V3 1.960511 1_555
F1 V2 1.969891 1_654
F2 V1 1.939378 1_455
F2 V5 2.042492 1_565
F3 V1 1.813339 1_555
F3 Li2 1.997283 1_555
F4 Li0 1.849712 1_655
F4 V2 1.979336 1_655
F4 Li4 2.076624 1_565
F5 V0 1.841762 1_555
F5 Li1 1.895230 1_555
F6 V3 1.834156 1_555
F6 Li2 2.388338 1_555
F7 Li0 1.920757 1_555
F7 Li3 1.942618 1_555
F7 V0 1.950572 1_555
F8 V1 1.809819 1_455
F8 Li1 2.131173 1_455
F9 V1 1.938541 1_455
F9 V5 1.960934 1_555
F10 V4 1.958194 1_455
F10 V0 2.146494 1_555
F10 Li3 2.384174 1_555
F11 Li3 1.822100 1_555
F11 Li4 1.946343 1_555
F11 V3 2.026295 1_556
F12 V2 1.851292 1_544
F12 Li2 1.990087 1_455
F13 V4 1.837746 1_555
F13 Li1 1.909007 1_555
F14 Li2 1.874310 1_555
F14 V5 1.882755 1_555
F15 V5 1.863959 1_555
F15 Li1 2.188075 1_555
F16 Li3 1.973491 1_555
F16 V4 2.017605 1_455
F16 Li4 2.027851 1_455
F16 Li0 2.138744 1_545
F17 V2 1.981870 1_545
F17 V3 1.993082 1_556
F17 Li4 2.224615 1_455
F18 V0 1.987424 1_545
F18 V4 2.121335 1_455
F18 Li0 2.264066 1_545
