# generated using pymatgen
data_KLi7(H2N)8
_symmetry_space_group_name_H-M   'P 1'
_cell_length_a   23.19346611
_cell_length_b   23.19346611
_cell_length_c   23.19346611
_cell_angle_alpha   161.91411826
_cell_angle_beta   161.91411826
_cell_angle_gamma   25.68579434
_symmetry_Int_Tables_number   1
_chemical_formula_structural   KLi7(H2N)8
_chemical_formula_sum   'K4 Li28 H64 N32'
_cell_volume   1202.04055011
_cell_formula_units_Z   4
loop_
 _symmetry_equiv_pos_site_id
 _symmetry_equiv_pos_as_xyz
  1  'x, y, z'
loop_
 _atom_site_type_symbol
 _atom_site_label
 _atom_site_symmetry_multiplicity
 _atom_site_fract_x
 _atom_site_fract_y
 _atom_site_fract_z
 _atom_site_occupancy
  K  K0  1  0.50000000  0.00000000  0.00000000  1
  K  K1  1  0.50000000  0.50000000  0.50000000  1
  K  K2  1  0.00000000  0.00000000  0.00000000  1
  K  K3  1  0.50000000  0.00000000  0.50000000  1
  Li  Li0  1  0.12668000  0.87668000  0.25000000  1
  Li  Li1  1  0.37668000  0.62668000  0.75000000  1
  Li  Li2  1  0.87332000  0.12332000  0.75000000  1
  Li  Li3  1  0.62332000  0.37332000  0.25000000  1
  Li  Li4  1  0.43144100  0.18144100  0.25000000  1
  Li  Li5  1  0.68144100  0.93144100  0.75000000  1
  Li  Li6  1  0.56855900  0.81855900  0.75000000  1
  Li  Li7  1  0.31855900  0.06855900  0.25000000  1
  Li  Li8  1  0.18377800  0.93377800  0.25000000  1
  Li  Li9  1  0.43377800  0.68377800  0.75000000  1
  Li  Li10  1  0.81622200  0.06622200  0.75000000  1
  Li  Li11  1  0.56622200  0.31622200  0.25000000  1
  Li  Li12  1  0.07038600  0.82038600  0.25000000  1
  Li  Li13  1  0.32038600  0.57038600  0.75000000  1
  Li  Li14  1  0.92961400  0.17961400  0.75000000  1
  Li  Li15  1  0.67961400  0.42961400  0.25000000  1
  Li  Li16  1  0.93039900  0.68039900  0.25000000  1
  Li  Li17  1  0.18039900  0.43039900  0.75000000  1
  Li  Li18  1  0.06960100  0.31960100  0.75000000  1
  Li  Li19  1  0.81960100  0.56960100  0.25000000  1
  Li  Li20  1  0.05966700  0.80975800  0.72827400  1
  Li  Li21  1  0.58148400  0.33139300  0.77172600  1
  Li  Li22  1  0.83139300  0.55966700  0.74990900  1
  Li  Li23  1  0.30975800  0.08148400  0.75009100  1
  Li  Li24  1  0.94033300  0.19024200  0.27172600  1
  Li  Li25  1  0.41851600  0.66860700  0.22827400  1
  Li  Li26  1  0.16860700  0.44033300  0.25009100  1
  Li  Li27  1  0.69024200  0.91851600  0.24990900  1
  H  H0  1  0.45164600  0.93677300  0.11258900  1
  H  H1  1  0.32418400  0.33905700  0.38741100  1
  H  H2  1  0.83905700  0.95164600  0.01487400  1
  H  H3  1  0.43677300  0.82418400  0.48512600  1
  H  H4  1  0.54835400  0.06322700  0.88741100  1
  H  H5  1  0.67581600  0.66094300  0.61258900  1
  H  H6  1  0.16094300  0.04835400  0.98512600  1
  H  H7  1  0.56322700  0.17581600  0.51487400  1
  H  H8  1  0.28839100  0.93104500  0.90453800  1
  H  H9  1  0.52650800  0.38385300  0.59546200  1
  H  H10  1  0.88385300  0.78839100  0.85734600  1
  H  H11  1  0.43104500  0.02650800  0.64265400  1
  H  H12  1  0.71160900  0.06895500  0.09546200  1
  H  H13  1  0.47349200  0.61614700  0.40453800  1
  H  H14  1  0.11614700  0.21160900  0.14265400  1
  H  H15  1  0.56895500  0.97349200  0.35734600  1
  H  H16  1  0.25675800  0.65731600  0.96219000  1
  H  H17  1  0.19512500  0.29456800  0.53781000  1
  H  H18  1  0.79456800  0.75675800  0.09944200  1
  H  H19  1  0.15731600  0.69512500  0.40055800  1
  H  H20  1  0.74324200  0.34268400  0.03781000  1
  H  H21  1  0.80487500  0.70543200  0.46219000  1
  H  H22  1  0.20543200  0.24324200  0.90055800  1
  H  H23  1  0.84268400  0.30487500  0.59944200  1
  H  H24  1  0.07023100  0.69936300  0.85967700  1
  H  H25  1  0.33968600  0.21055400  0.64032300  1
  H  H26  1  0.71055400  0.57023100  0.87086800  1
  H  H27  1  0.19936300  0.83968600  0.62913200  1
  H  H28  1  0.92976900  0.30063700  0.14032300  1
  H  H29  1  0.66031400  0.78944600  0.35967700  1
  H  H30  1  0.28944600  0.42976900  0.12913200  1
  H  H31  1  0.80063700  0.16031400  0.37086800  1
  H  H32  1  0.78358800  0.42706600  0.90850300  1
  H  H33  1  0.01856400  0.87508500  0.59149700  1
  H  H34  1  0.37508500  0.28358800  0.85652100  1
  H  H35  1  0.92706600  0.51856400  0.64347900  1
  H  H36  1  0.21641200  0.57293400  0.09149700  1
  H  H37  1  0.98143600  0.12491500  0.40850300  1
  H  H38  1  0.62491500  0.71641200  0.14347900  1
  H  H39  1  0.07293400  0.48143600  0.35652100  1
  H  H40  1  0.96389000  0.43212500  0.12574100  1
  H  H41  1  0.80638400  0.83814900  0.37425900  1
  H  H42  1  0.33814900  0.46389000  0.03176500  1
  H  H43  1  0.93212500  0.30638400  0.46823500  1
  H  H44  1  0.03611000  0.56787500  0.87425900  1
  H  H45  1  0.19361600  0.16185100  0.62574100  1
  H  H46  1  0.66185100  0.53611000  0.96823500  1
  H  H47  1  0.06787500  0.69361600  0.53176500  1
  H  H48  1  0.68820100  0.29505500  0.03665400  1
  H  H49  1  0.75840100  0.65154700  0.46334600  1
  H  H50  1  0.15154700  0.18820100  0.89314600  1
  H  H51  1  0.79505500  0.25840100  0.60685400  1
  H  H52  1  0.31179900  0.70494500  0.96334600  1
  H  H53  1  0.24159900  0.34845300  0.53665400  1
  H  H54  1  0.84845300  0.81179900  0.10685400  1
  H  H55  1  0.20494500  0.74159900  0.39314600  1
  H  H56  1  0.84662000  0.15617500  0.07358300  1
  H  H57  1  0.58259200  0.77303600  0.42641700  1
  H  H58  1  0.27303600  0.34662000  0.19044500  1
  H  H59  1  0.65617500  0.08259200  0.30955500  1
  H  H60  1  0.15338000  0.84382500  0.92641700  1
  H  H61  1  0.41740800  0.22696400  0.57358300  1
  H  H62  1  0.72696400  0.65338000  0.80955500  1
  H  H63  1  0.34382500  0.91740800  0.69044500  1
  N  N0  1  0.42447900  0.89551500  0.00587700  1
  N  N1  1  0.38963700  0.41860200  0.49412300  1
  N  N2  1  0.91860200  0.92447900  0.02896400  1
  N  N3  1  0.39551500  0.88963700  0.47103600  1
  N  N4  1  0.57552100  0.10448500  0.99412300  1
  N  N5  1  0.61036300  0.58139800  0.50587700  1
  N  N6  1  0.08139800  0.07552100  0.97103600  1
  N  N7  1  0.60448500  0.11036300  0.52896400  1
  N  N8  1  0.21297800  0.70485700  0.00523000  1
  N  N9  1  0.19962800  0.20774900  0.49477000  1
  N  N10  1  0.70774900  0.71297800  0.00812100  1
  N  N11  1  0.20485700  0.69962800  0.49187900  1
  N  N12  1  0.78702200  0.29514300  0.99477000  1
  N  N13  1  0.80037200  0.79225100  0.50523000  1
  N  N14  1  0.29225100  0.28702200  0.99187900  1
  N  N15  1  0.79514300  0.30037200  0.50812100  1
  N  N16  1  0.92070900  0.39170300  0.00580100  1
  N  N17  1  0.88590200  0.91490800  0.49419900  1
  N  N18  1  0.41490800  0.42070900  0.02900600  1
  N  N19  1  0.89170300  0.38590200  0.47099400  1
  N  N20  1  0.07929100  0.60829700  0.99419900  1
  N  N21  1  0.11409800  0.08509200  0.50580100  1
  N  N22  1  0.58509200  0.57929100  0.97099400  1
  N  N23  1  0.10829700  0.61409800  0.52900600  1
  N  N24  1  0.71976300  0.20223100  0.01041100  1
  N  N25  1  0.69182000  0.70935200  0.48958900  1
  N  N26  1  0.20935200  0.21976300  0.01753200  1
  N  N27  1  0.70223100  0.19182000  0.48246800  1
  N  N28  1  0.28023700  0.79776900  0.98958900  1
  N  N29  1  0.30818000  0.29064800  0.51041100  1
  N  N30  1  0.79064800  0.78023700  0.98246800  1
  N  N31  1  0.29776900  0.80818000  0.51753200  1
loop_
_geom_bond_atom_site_label_1
_geom_bond_atom_site_label_2
_geom_bond_distance
_geom_bond_site_symmetry_2
Li0 N21 2.208229 1_565
Li0 N20 2.208229 1_554
Li0 N3 2.219522 1_555
Li0 N2 2.219533 1_455
Li1 N23 2.208229 1_555
Li1 N22 2.208229 1_555
Li1 N1 2.219516 1_555
Li1 N0 2.219533 1_556
Li2 N17 2.208229 1_545
Li2 N16 2.208229 1_556
Li2 N7 2.219522 1_555
Li2 N6 2.219533 1_655
Li3 N18 2.208229 1_555
Li3 N19 2.208229 1_555
Li3 N5 2.219516 1_555
Li3 N4 2.219533 1_554
Li4 N26 2.109866 1_555
Li4 N27 2.109866 1_555
Li4 N0 2.206428 1_545
Li4 N1 2.206443 1_555
Li5 N25 2.109866 1_555
Li5 N24 2.109866 1_566
Li5 N2 2.206428 1_556
Li5 N3 2.206437 1_555
Li6 N31 2.109866 1_555
Li6 N30 2.109866 1_555
Li6 N4 2.206428 1_565
Li6 N5 2.206443 1_555
Li7 N29 2.109866 1_555
Li7 N28 2.109866 1_544
Li7 N6 2.206428 1_554
Li7 N7 2.206437 1_555
Li8 N8 2.097841 1_555
Li8 N9 2.097863 1_565
Li8 N2 2.121082 1_455
Li8 N3 2.121098 1_555
Li9 N10 2.097855 1_556
Li9 N11 2.097855 1_555
Li9 N0 2.121082 1_556
Li9 N1 2.121092 1_555
Li10 N12 2.097841 1_555
Li10 N13 2.097863 1_545
Li10 N6 2.121082 1_655
Li10 N7 2.121098 1_555
Li11 N14 2.097855 1_554
Li11 N15 2.097855 1_555
Li11 N4 2.121082 1_554
Li11 N5 2.121092 1_555
Li12 N20 2.110186 1_554
Li12 N21 2.110186 1_565
Li12 N31 2.197640 1_555
Li12 N30 2.197640 1_454
Li13 N22 2.110186 1_555
Li13 N23 2.110186 1_555
Li13 N29 2.197640 1_555
Li13 N28 2.197640 1_555
Li14 N17 2.110186 1_545
Li14 N16 2.110186 1_556
Li14 N26 2.197640 1_656
Li14 N27 2.197640 1_555
Li15 N19 2.110186 1_555
Li15 N18 2.110186 1_555
Li15 N25 2.197640 1_555
Li15 N24 2.197640 1_555
Li16 N10 2.158437 1_555
Li16 N11 2.158437 1_655
Li16 N17 2.270546 1_555
Li16 N16 2.270546 1_555
Li17 N8 2.158428 1_556
Li17 N9 2.158452 1_555
Li17 N19 2.270546 1_455
Li17 N18 2.270546 1_556
Li18 N14 2.158437 1_555
Li18 N15 2.158437 1_455
Li18 N20 2.270546 1_555
Li18 N21 2.270546 1_555
Li19 N12 2.158428 1_554
Li19 N13 2.158452 1_555
Li19 N22 2.270546 1_554
Li19 N23 2.270546 1_655
Li20 N23 2.009201 1_555
Li20 N6 2.042628 1_565
Li20 N13 2.086581 1_455
Li21 N22 2.009201 1_555
Li21 N7 2.042636 1_555
Li21 N12 2.086555 1_555
Li22 N20 2.009201 1_655
Li22 N5 2.042636 1_555
Li22 N15 2.086571 1_555
Li23 N21 2.009201 1_555
Li23 N4 2.042628 1_555
Li23 N14 2.086571 1_555
Li24 N19 2.009201 1_555
Li24 N2 2.042628 1_545
Li24 N9 2.086581 1_655
Li25 N18 2.009201 1_555
Li25 N3 2.042636 1_555
Li25 N8 2.086555 1_555
Li26 N16 2.009201 1_455
Li26 N1 2.042636 1_555
Li26 N11 2.086571 1_555
Li27 N17 2.009201 1_555
Li27 N0 2.042628 1_555
Li27 N10 2.086571 1_555
H0 N0 1.028364 1_555
H1 N1 1.028346 1_555
H2 N2 1.028383 1_555
H3 N3 1.028323 1_555
H4 N4 1.028364 1_555
H5 N5 1.028346 1_555
H6 N6 1.028383 1_555
H7 N7 1.028323 1_555
H8 N0 1.027649 1_556
H8 Li4 2.157685 1_566
H9 N1 1.027658 1_555
H9 Li4 2.157672 1_555
H10 N2 1.027649 1_556
H10 Li5 2.157685 1_555
H11 N3 1.027655 1_545
H11 Li5 2.157678 1_545
H12 N4 1.027649 1_554
H12 Li6 2.157685 1_544
H13 N5 1.027658 1_555
H13 Li6 2.157672 1_555
H14 N6 1.027649 1_554
H14 Li7 2.157685 1_555
H15 N7 1.027655 1_565
H15 Li7 2.157678 1_565
H16 N8 1.029480 1_556
H17 N9 1.029424 1_555
H18 N10 1.029459 1_555
H19 N11 1.029439 1_555
H20 N12 1.029480 1_554
H21 N13 1.029424 1_555
H22 N14 1.029459 1_555
H23 N15 1.029439 1_555
H24 N8 1.033182 1_556
H25 N9 1.033184 1_555
H26 N10 1.033179 1_556
H27 N11 1.033179 1_555
H28 N12 1.033182 1_554
H29 N13 1.033184 1_555
H30 N14 1.033179 1_554
H31 N15 1.033179 1_555
H32 N16 1.025918 1_556
H32 Li16 2.271551 1_556
H33 N17 1.025920 1_455
H33 Li16 2.271537 1_455
H34 N18 1.025920 1_556
H34 Li17 2.271537 1_555
H35 N19 1.025925 1_555
H35 Li17 2.271554 1_655
H36 N20 1.025918 1_554
H36 Li18 2.271551 1_554
H37 N21 1.025920 1_655
H37 Li18 2.271537 1_655
H38 N22 1.025920 1_554
H38 Li19 2.271537 1_555
H39 N23 1.025925 1_555
H39 Li19 2.271554 1_455
H40 N16 1.028461 1_555
H41 N17 1.028461 1_555
H42 N18 1.028461 1_555
H43 N19 1.028461 1_555
H44 N20 1.028461 1_555
H45 N21 1.028461 1_555
H46 N22 1.028461 1_555
H47 N23 1.028461 1_555
H48 N24 1.027917 1_555
H49 N25 1.027917 1_555
H50 N26 1.027917 1_556
H51 N27 1.027917 1_555
H52 N28 1.027917 1_555
H53 N29 1.027917 1_555
H54 N30 1.027917 1_554
H55 N31 1.027917 1_555
H56 N24 1.029392 1_555
H56 Li24 1.915658 1_555
H56 Li5 2.264283 1_544
H56 K2 2.291972 1_655
H57 N25 1.029378 1_555
H57 Li25 1.915640 1_555
H57 Li5 2.264269 1_555
H57 K3 2.291992 1_565
H58 N26 1.029385 1_555
H58 Li26 1.915637 1_555
H58 Li4 2.264272 1_555
H58 K1 2.291989 1_555
H59 N27 1.029392 1_555
H59 Li27 1.915658 1_545
H59 Li4 2.264283 1_555
H59 K0 2.291972 1_555
H60 N28 1.029392 1_555
H60 Li20 1.915658 1_555
H60 Li7 2.264283 1_566
H60 K2 2.291972 1_566
H61 N29 1.029378 1_555
H61 Li21 1.915640 1_555
H61 Li7 2.264269 1_555
H61 K3 2.291992 1_555
H62 N30 1.029385 1_555
H62 Li22 1.915637 1_555
H62 Li6 2.264272 1_555
H62 K1 2.291989 1_555
H63 N31 1.029392 1_555
H63 Li23 1.915658 1_565
H63 Li6 2.264283 1_555
H63 K0 2.291972 1_566
