# generated using pymatgen
data_Gd2HfO5
_symmetry_space_group_name_H-M   'P 1'
_cell_length_a   3.79120700
_cell_length_b   10.87142400
_cell_length_c   11.70687700
_cell_angle_alpha   90.00000000
_cell_angle_beta   90.00000000
_cell_angle_gamma   90.00000000
_symmetry_Int_Tables_number   1
_chemical_formula_structural   Gd2HfO5
_chemical_formula_sum   'Gd8 Hf4 O20'
_cell_volume   482.50852078
_cell_formula_units_Z   4
loop_
 _symmetry_equiv_pos_site_id
 _symmetry_equiv_pos_as_xyz
  1  'x, y, z'
loop_
 _atom_site_type_symbol
 _atom_site_label
 _atom_site_symmetry_multiplicity
 _atom_site_fract_x
 _atom_site_fract_y
 _atom_site_fract_z
 _atom_site_occupancy
  Gd  Gd0  1  0.75000000  0.11764300  0.27801100  1
  Gd  Gd1  1  0.75000000  0.13023400  0.93925800  1
  Gd  Gd2  1  0.25000000  0.36976600  0.43925800  1
  Gd  Gd3  1  0.25000000  0.38235700  0.77801100  1
  Gd  Gd4  1  0.75000000  0.61764300  0.22198900  1
  Gd  Gd5  1  0.75000000  0.63023400  0.56074200  1
  Gd  Gd6  1  0.25000000  0.86976600  0.06074200  1
  Gd  Gd7  1  0.25000000  0.88235700  0.72198900  1
  Hf  Hf0  1  0.75000000  0.17456600  0.61654400  1
  Hf  Hf1  1  0.25000000  0.32543400  0.11654400  1
  Hf  Hf2  1  0.75000000  0.67456600  0.88345600  1
  Hf  Hf3  1  0.25000000  0.82543400  0.38345600  1
  O  O0  1  0.25000000  0.00506800  0.89589200  1
  O  O1  1  0.75000000  0.00133300  0.65723400  1
  O  O2  1  0.75000000  0.22936300  0.45072500  1
  O  O3  1  0.25000000  0.24576800  0.61356900  1
  O  O4  1  0.25000000  0.24460900  0.27157300  1
  O  O5  1  0.75000000  0.25539100  0.77157300  1
  O  O6  1  0.75000000  0.25423200  0.11356900  1
  O  O7  1  0.25000000  0.27063700  0.95072500  1
  O  O8  1  0.25000000  0.49866700  0.15723400  1
  O  O9  1  0.75000000  0.49493200  0.39589200  1
  O  O10  1  0.25000000  0.50506800  0.60410800  1
  O  O11  1  0.75000000  0.50133300  0.84276600  1
  O  O12  1  0.75000000  0.72936300  0.04927500  1
  O  O13  1  0.25000000  0.74576800  0.88643100  1
  O  O14  1  0.25000000  0.74460900  0.22842700  1
  O  O15  1  0.75000000  0.75539100  0.72842700  1
  O  O16  1  0.75000000  0.75423200  0.38643100  1
  O  O17  1  0.25000000  0.77063700  0.54927500  1
  O  O18  1  0.25000000  0.99866700  0.34276600  1
  O  O19  1  0.75000000  0.99493200  0.10410800  1
loop_
_geom_bond_atom_site_label_1
_geom_bond_atom_site_label_2
_geom_bond_distance
_geom_bond_site_symmetry_2
Gd0 O4 2.346108 1_555
Gd0 O4 2.346108 1_655
Gd0 O2 2.358685 1_555
Gd0 O18 2.416812 1_545
Gd0 O18 2.416812 1_645
Gd0 O6 2.431254 1_555
Gd0 O19 2.434009 1_545
Gd1 O0 2.388021 1_555
Gd1 O0 2.388021 1_655
Gd1 O5 2.388506 1_555
Gd1 O19 2.426531 1_546
Gd1 O7 2.437452 1_655
Gd1 O7 2.437452 1_555
Gd1 O6 2.445690 1_556
Gd2 O9 2.388021 1_555
Gd2 O9 2.388021 1_455
Gd2 O4 2.388506 1_555
Gd2 O10 2.426531 1_555
Gd2 O2 2.437452 1_555
Gd2 O2 2.437452 1_455
Gd2 O3 2.445690 1_555
Gd3 O5 2.346108 1_455
Gd3 O5 2.346108 1_555
Gd3 O7 2.358685 1_555
Gd3 O11 2.416812 1_455
Gd3 O11 2.416812 1_555
Gd3 O3 2.431254 1_555
Gd3 O10 2.434009 1_555
Gd4 O14 2.346108 1_555
Gd4 O14 2.346108 1_655
Gd4 O12 2.358685 1_555
Gd4 O8 2.416812 1_555
Gd4 O8 2.416812 1_655
Gd4 O16 2.431254 1_555
Gd4 O9 2.434009 1_555
Gd5 O10 2.388021 1_555
Gd5 O10 2.388021 1_655
Gd5 O15 2.388506 1_555
Gd5 O9 2.426531 1_555
Gd5 O17 2.437452 1_655
Gd5 O17 2.437452 1_555
Gd5 O16 2.445690 1_555
Gd6 O19 2.388021 1_455
Gd6 O19 2.388021 1_555
Gd6 O14 2.388506 1_555
Gd6 O0 2.426531 1_564
Gd6 O12 2.437452 1_555
Gd6 O12 2.437452 1_455
Gd6 O13 2.445690 1_554
Gd7 O15 2.346108 1_555
Gd7 O15 2.346108 1_455
Gd7 O17 2.358685 1_555
Gd7 O1 2.416812 1_465
Gd7 O1 2.416812 1_565
Gd7 O13 2.431254 1_555
Gd7 O0 2.434009 1_565
Hf0 O1 1.942599 1_555
Hf0 O5 2.016424 1_555
Hf0 O2 2.030574 1_555
Hf0 O3 2.047854 1_555
Hf0 O3 2.047854 1_655
Hf1 O8 1.942599 1_555
Hf1 O4 2.016424 1_555
Hf1 O7 2.030574 1_554
Hf1 O6 2.047854 1_555
Hf1 O6 2.047854 1_455
Hf2 O11 1.942599 1_555
Hf2 O15 2.016424 1_555
Hf2 O12 2.030574 1_556
Hf2 O13 2.047854 1_655
Hf2 O13 2.047854 1_555
Hf3 O18 1.942599 1_555
Hf3 O14 2.016424 1_555
Hf3 O17 2.030574 1_555
Hf3 O16 2.047854 1_555
Hf3 O16 2.047854 1_455
