# generated using pymatgen
data_Li2Fe3CoO8
_symmetry_space_group_name_H-M   'P 1'
_cell_length_a   5.10319604
_cell_length_b   5.98448037
_cell_length_c   5.88946903
_cell_angle_alpha   60.52379186
_cell_angle_beta   90.00000092
_cell_angle_gamma   74.06864254
_symmetry_Int_Tables_number   1
_chemical_formula_structural   Li2Fe3CoO8
_chemical_formula_sum   'Li2 Fe3 Co1 O8'
_cell_volume   148.59579938
_cell_formula_units_Z   1
loop_
 _symmetry_equiv_pos_site_id
 _symmetry_equiv_pos_as_xyz
  1  'x, y, z'
loop_
 _atom_site_type_symbol
 _atom_site_label
 _atom_site_symmetry_multiplicity
 _atom_site_fract_x
 _atom_site_fract_y
 _atom_site_fract_z
 _atom_site_occupancy
  Li  Li0  1  0.00000000  0.00000000  0.00000000  1
  Li  Li1  1  0.00000000  0.00000000  0.50000000  1
  Fe  Fe0  1  0.00000000  0.50000000  0.50000000  1
  Fe  Fe1  1  0.50000000  0.50000000  0.24592300  1
  Fe  Fe2  1  0.50000000  0.50000000  0.75407700  1
  Co  Co0  1  0.00000000  0.50000000  0.00000000  1
  O  O0  1  0.21849600  0.29425700  0.34090900  1
  O  O1  1  0.21849600  0.29425700  0.86483400  1
  O  O2  1  0.24405900  0.71191600  0.89404200  1
  O  O3  1  0.24896000  0.71476300  0.39261800  1
  O  O4  1  0.75104000  0.28523700  0.60738200  1
  O  O5  1  0.75594100  0.28808400  0.10595800  1
  O  O6  1  0.78150400  0.70574300  0.13516600  1
  O  O7  1  0.78150400  0.70574300  0.65909100  1
loop_
_geom_bond_atom_site_label_1
_geom_bond_atom_site_label_2
_geom_bond_distance
_geom_bond_site_symmetry_2
Li0 O1 2.162492 1_554
Li0 O6 2.162492 1_445
Li0 O2 2.189277 1_544
Li0 O5 2.189277 1_455
Li0 O4 2.190835 1_454
Li0 O3 2.190835 1_545
Li1 O0 2.162492 1_555
Li1 O7 2.162492 1_445
Li1 O2 2.189277 1_545
Li1 O5 2.189277 1_455
Li1 O4 2.190840 1_455
Li1 O3 2.190840 1_545
Fe0 O4 1.939706 1_455
Fe0 O3 1.939706 1_555
Fe0 O6 2.004707 1_455
Fe0 O1 2.004707 1_555
Fe0 O0 2.004707 1_555
Fe0 O7 2.004707 1_455
Fe1 O2 2.028120 1_554
Fe1 O5 2.028121 1_555
Fe1 O6 2.045937 1_555
Fe1 O0 2.045937 1_555
Fe1 O3 2.056301 1_555
Fe1 O4 2.056305 1_555
Fe2 O5 2.028120 1_556
Fe2 O2 2.028121 1_555
Fe2 O1 2.045937 1_555
Fe2 O7 2.045937 1_555
Fe2 O4 2.056301 1_555
Fe2 O3 2.056305 1_555
Co0 O0 1.898399 1_555
Co0 O7 1.898399 1_454
Co0 O6 1.898400 1_455
Co0 O1 1.898400 1_554
Co0 O5 1.907162 1_455
Co0 O2 1.907162 1_554
