# generated using pymatgen
data_Fe2Co(PO4)3
_symmetry_space_group_name_H-M   'P 1'
_cell_length_a   8.42170950
_cell_length_b   8.42170950
_cell_length_c   8.42171045
_cell_angle_alpha   61.82411766
_cell_angle_beta   61.82411766
_cell_angle_gamma   61.82411678
_symmetry_Int_Tables_number   1
_chemical_formula_structural   Fe2Co(PO4)3
_chemical_formula_sum   'Fe4 Co2 P6 O24'
_cell_volume   439.61767591
_cell_formula_units_Z   2
loop_
 _symmetry_equiv_pos_site_id
 _symmetry_equiv_pos_as_xyz
  1  'x, y, z'
loop_
 _atom_site_type_symbol
 _atom_site_label
 _atom_site_symmetry_multiplicity
 _atom_site_fract_x
 _atom_site_fract_y
 _atom_site_fract_z
 _atom_site_occupancy
  Fe  Fe0  1  0.35491200  0.35491200  0.35491200  1
  Fe  Fe1  1  0.85491200  0.85491200  0.85491200  1
  Fe  Fe2  1  0.14508800  0.14508800  0.14508800  1
  Fe  Fe3  1  0.64508800  0.64508800  0.64508800  1
  Co  Co0  1  0.00000000  0.00000000  0.00000000  1
  Co  Co1  1  0.50000000  0.50000000  0.50000000  1
  P  P0  1  0.75000000  0.04720800  0.45279200  1
  P  P1  1  0.04720800  0.45279200  0.75000000  1
  P  P2  1  0.45279200  0.75000000  0.04720800  1
  P  P3  1  0.54720800  0.25000000  0.95279200  1
  P  P4  1  0.95279200  0.54720800  0.25000000  1
  P  P5  1  0.25000000  0.95279200  0.54720800  1
  O  O0  1  0.89148500  0.49535000  0.67767300  1
  O  O1  1  0.49535000  0.67767300  0.89148500  1
  O  O2  1  0.67767300  0.89148500  0.49535000  1
  O  O3  1  0.90522300  0.06131700  0.25115000  1
  O  O4  1  0.82232700  0.00465000  0.60851500  1
  O  O5  1  0.59477700  0.24885000  0.43868300  1
  O  O6  1  0.06131700  0.25115000  0.90522300  1
  O  O7  1  0.24885000  0.43868300  0.59477700  1
  O  O8  1  0.39148500  0.17767300  0.99535000  1
  O  O9  1  0.43868300  0.59477700  0.24885000  1
  O  O10  1  0.74885000  0.09477700  0.93868300  1
  O  O11  1  0.99535000  0.39148500  0.17767300  1
  O  O12  1  0.00465000  0.60851500  0.82232700  1
  O  O13  1  0.25115000  0.90522300  0.06131700  1
  O  O14  1  0.56131700  0.40522300  0.75115000  1
  O  O15  1  0.60851500  0.82232700  0.00465000  1
  O  O16  1  0.75115000  0.56131700  0.40522300  1
  O  O17  1  0.93868300  0.74885000  0.09477700  1
  O  O18  1  0.40522300  0.75115000  0.56131700  1
  O  O19  1  0.17767300  0.99535000  0.39148500  1
  O  O20  1  0.09477700  0.93868300  0.74885000  1
  O  O21  1  0.32232700  0.10851500  0.50465000  1
  O  O22  1  0.50465000  0.32232700  0.10851500  1
  O  O23  1  0.10851500  0.50465000  0.32232700  1
loop_
_geom_bond_atom_site_label_1
_geom_bond_atom_site_label_2
_geom_bond_distance
_geom_bond_site_symmetry_2
Fe0 O23 1.926474 1_555
Fe0 O21 1.926474 1_555
Fe0 O22 1.926474 1_555
Fe0 O9 2.103103 1_555
Fe0 O5 2.103103 1_555
Fe0 O7 2.103103 1_555
Fe1 O12 1.926474 1_655
Fe1 O15 1.926474 1_556
Fe1 O4 1.926474 1_565
Fe1 O20 2.103103 1_655
Fe1 O10 2.103103 1_565
Fe1 O17 2.103103 1_556
Fe2 O11 1.926474 1_455
Fe2 O8 1.926474 1_554
Fe2 O19 1.926474 1_545
Fe2 O3 2.103103 1_455
Fe2 O13 2.103103 1_545
Fe2 O6 2.103103 1_554
Fe3 O0 1.926474 1_555
Fe3 O2 1.926474 1_555
Fe3 O1 1.926474 1_555
Fe3 O14 2.103103 1_555
Fe3 O18 2.103103 1_555
Fe3 O16 2.103103 1_555
Co0 O17 2.103654 1_445
Co0 O6 2.103654 1_554
Co0 O10 2.103654 1_454
Co0 O13 2.103654 1_545
Co0 O20 2.103655 1_544
Co0 O3 2.103655 1_455
Co1 O16 2.103654 1_555
Co1 O7 2.103654 1_555
Co1 O18 2.103654 1_555
Co1 O5 2.103654 1_555
Co1 O14 2.103655 1_555
Co1 O9 2.103655 1_555
O0 P1 1.524376 1_655
O1 P2 1.524376 1_556
O2 P0 1.524376 1_565
O3 P0 1.570515 1_555
O4 P0 1.524376 1_555
O5 P0 1.570514 1_555
O6 P1 1.570514 1_555
O7 P1 1.570514 1_555
O8 P3 1.524376 1_555
O9 P2 1.570515 1_555
O10 P3 1.570514 1_555
O11 P4 1.524376 1_555
O12 P1 1.524376 1_555
O13 P2 1.570514 1_555
O14 P3 1.570515 1_555
O15 P2 1.524376 1_555
O16 P4 1.570514 1_555
O17 P4 1.570514 1_555
O18 P5 1.570514 1_555
O19 P5 1.524376 1_555
O20 P5 1.570515 1_555
O21 P5 1.524376 1_545
O22 P3 1.524376 1_554
O23 P4 1.524376 1_455
