# generated using pymatgen
data_TaIn3O7
_symmetry_space_group_name_H-M   'P 1'
_cell_length_a   6.43051677
_cell_length_b   6.43051677
_cell_length_c   7.31652500
_cell_angle_alpha   90.00000000
_cell_angle_beta   90.00000000
_cell_angle_gamma   108.47602686
_symmetry_Int_Tables_number   1
_chemical_formula_structural   TaIn3O7
_chemical_formula_sum   'Ta2 In6 O14'
_cell_volume   286.95510380
_cell_formula_units_Z   2
loop_
 _symmetry_equiv_pos_site_id
 _symmetry_equiv_pos_as_xyz
  1  'x, y, z'
loop_
 _atom_site_type_symbol
 _atom_site_label
 _atom_site_symmetry_multiplicity
 _atom_site_fract_x
 _atom_site_fract_y
 _atom_site_fract_z
 _atom_site_occupancy
  Ta  Ta0  1  0.00964800  0.00964800  0.50000000  1
  Ta  Ta1  1  0.99035200  0.99035200  0.00000000  1
  In  In0  1  0.47872400  0.00107300  0.25592500  1
  In  In1  1  0.99892700  0.52127600  0.24407500  1
  In  In2  1  0.45514200  0.45514200  0.00000000  1
  In  In3  1  0.54485800  0.54485800  0.50000000  1
  In  In4  1  0.52127600  0.99892700  0.75592500  1
  In  In5  1  0.00107300  0.47872400  0.74407500  1
  O  O0  1  0.94397900  0.05602100  0.75000000  1
  O  O1  1  0.64247100  0.35752900  0.75000000  1
  O  O2  1  0.31771200  0.04785400  0.53332100  1
  O  O3  1  0.95214600  0.68228800  0.96667900  1
  O  O4  1  0.62748000  0.37252000  0.25000000  1
  O  O5  1  0.91972600  0.66864300  0.51931500  1
  O  O6  1  0.33135700  0.08027400  0.98068500  1
  O  O7  1  0.08027400  0.33135700  0.01931500  1
  O  O8  1  0.66864300  0.91972600  0.48068500  1
  O  O9  1  0.37252000  0.62748000  0.75000000  1
  O  O10  1  0.68228800  0.95214600  0.03332100  1
  O  O11  1  0.04785400  0.31771200  0.46667900  1
  O  O12  1  0.35752900  0.64247100  0.25000000  1
  O  O13  1  0.05602100  0.94397900  0.25000000  1
loop_
_geom_bond_atom_site_label_1
_geom_bond_atom_site_label_2
_geom_bond_distance
_geom_bond_site_symmetry_2
In0 O10 2.173980 1_545
In0 O12 2.188105 1_545
In0 O8 2.207788 1_545
In0 O4 2.274669 1_555
In0 O2 2.340752 1_555
In0 O6 2.349195 1_554
In0 O13 2.625405 1_545
In1 O11 2.173980 1_655
In1 O12 2.188105 1_655
In1 O7 2.207788 1_655
In1 O4 2.274669 1_555
In1 O3 2.340752 1_554
In1 O5 2.349195 1_555
In1 O13 2.625405 1_655
In2 O4 2.286777 1_555
In2 O9 2.286777 1_554
In2 O7 2.290932 1_555
In2 O6 2.290932 1_554
In2 O1 2.381198 1_554
In2 O12 2.381198 1_555
In3 O4 2.286777 1_555
In3 O9 2.286777 1_555
In3 O8 2.290932 1_555
In3 O5 2.290932 1_555
In3 O1 2.381198 1_555
In3 O12 2.381198 1_555
In4 O2 2.173980 1_565
In4 O1 2.188105 1_565
In4 O6 2.207788 1_565
In4 O9 2.274669 1_555
In4 O10 2.340752 1_556
In4 O8 2.349195 1_555
In4 O0 2.625405 1_565
In5 O3 2.173980 1_455
In5 O1 2.188105 1_455
In5 O5 2.207788 1_455
In5 O9 2.274669 1_555
In5 O11 2.340752 1_555
In5 O7 2.349195 1_556
In5 O0 2.625405 1_455
O0 Ta1 1.921662 1_546
O0 Ta0 1.921662 1_655
O2 Ta0 1.932801 1_555
O3 Ta1 1.932801 1_556
O5 Ta0 2.087870 1_665
O6 Ta1 2.087870 1_446
O7 Ta1 2.087870 1_445
O8 Ta0 2.087870 1_665
O10 Ta1 1.932801 1_555
O11 Ta0 1.932801 1_555
O13 Ta1 1.921662 1_455
O13 Ta0 1.921662 1_565
