# generated using pymatgen
data_Li6CrO4
_symmetry_space_group_name_H-M   'P 1'
_cell_length_a   4.61753407
_cell_length_b   6.77837500
_cell_length_c   6.78074010
_cell_angle_alpha   89.99999175
_cell_angle_beta   90.01989290
_cell_angle_gamma   89.99768854
_symmetry_Int_Tables_number   1
_chemical_formula_structural   Li6CrO4
_chemical_formula_sum   'Li12 Cr2 O8'
_cell_volume   212.23293130
_cell_formula_units_Z   2
loop_
 _symmetry_equiv_pos_site_id
 _symmetry_equiv_pos_as_xyz
  1  'x, y, z'
loop_
 _atom_site_type_symbol
 _atom_site_label
 _atom_site_symmetry_multiplicity
 _atom_site_fract_x
 _atom_site_fract_y
 _atom_site_fract_z
 _atom_site_occupancy
  Li  Li0  1  0.68661900  0.25001300  0.24994000  1
  Li  Li1  1  0.18654600  0.25001800  0.24994300  1
  Li  Li2  1  0.31338500  0.75000800  0.75008200  1
  Li  Li3  1  0.81344700  0.74999400  0.75005200  1
  Li  Li4  1  0.75008800  0.03357400  0.53357400  1
  Li  Li5  1  0.75002500  0.03340600  0.96658100  1
  Li  Li6  1  0.75010900  0.46645100  0.53355300  1
  Li  Li7  1  0.75003100  0.46662600  0.96660200  1
  Li  Li8  1  0.25001500  0.53340500  0.03340300  1
  Li  Li9  1  0.24994100  0.53355600  0.46649600  1
  Li  Li10  1  0.25001500  0.96658100  0.03343800  1
  Li  Li11  1  0.24993300  0.96643300  0.46646500  1
  Cr  Cr0  1  0.74944300  0.75007500  0.25035900  1
  Cr  Cr1  1  0.25034600  0.24998200  0.74966600  1
  O  O0  1  0.94828900  0.02036600  0.25003900  1
  O  O1  1  0.44818300  0.25000000  0.02029700  1
  O  O2  1  0.44842000  0.25000400  0.47940800  1
  O  O3  1  0.94828100  0.47969000  0.25004300  1
  O  O4  1  0.05174900  0.52033600  0.74997800  1
  O  O5  1  0.55178400  0.75000300  0.97973900  1
  O  O6  1  0.55162300  0.75001200  0.52054700  1
  O  O7  1  0.05173000  0.97964800  0.74997600  1
loop_
_geom_bond_atom_site_label_1
_geom_bond_atom_site_label_2
_geom_bond_distance
_geom_bond_site_symmetry_2
Li0 O2 1.905773 1_555
Li0 O1 1.906750 1_555
Li0 O0 1.970501 1_555
Li0 O3 1.970716 1_555
Li1 O0 1.906228 1_455
Li1 O3 1.906287 1_455
Li1 O2 1.970240 1_555
Li1 O1 1.971201 1_555
Li2 O6 1.906248 1_555
Li2 O5 1.906729 1_555
Li2 O7 1.970421 1_555
Li2 O4 1.970615 1_555
Li3 O7 1.906308 1_655
Li3 O4 1.906308 1_655
Li3 O6 1.970312 1_555
Li3 O5 1.971494 1_555
Li4 O7 2.055559 1_645
Li4 O2 2.055952 1_555
Li4 O6 2.131230 1_545
Li4 O0 2.131461 1_555
Li5 O1 2.056919 1_556
Li5 O7 2.057228 1_645
Li5 O5 2.129877 1_545
Li5 O0 2.130494 1_556
Li6 O4 2.055635 1_655
Li6 O2 2.056155 1_555
Li6 O6 2.131193 1_555
Li6 O3 2.131262 1_555
Li7 O1 2.057148 1_556
Li7 O4 2.057322 1_655
Li7 O5 2.129657 1_555
Li7 O3 2.130372 1_556
Li8 O5 2.056728 1_554
Li8 O3 2.057456 1_455
Li8 O1 2.129663 1_555
Li8 O4 2.130307 1_554
Li9 O3 2.055810 1_455
Li9 O6 2.056063 1_555
Li9 O2 2.131098 1_555
Li9 O4 2.131125 1_555
Li10 O5 2.056593 1_554
Li10 O0 2.057306 1_465
Li10 O1 2.129825 1_565
Li10 O7 2.130567 1_554
Li11 O0 2.055690 1_465
Li11 O6 2.055876 1_555
Li11 O2 2.131305 1_565
Li11 O7 2.131320 1_555
Cr0 O6 2.047446 1_555
Cr0 O5 2.049169 1_554
Cr0 O0 2.049367 1_565
Cr0 O3 2.049854 1_555
Cr1 O2 2.048394 1_555
Cr1 O7 2.049152 1_545
Cr1 O4 2.049168 1_555
Cr1 O1 2.049601 1_556
