# generated using pymatgen
data_Na2FeO3
_symmetry_space_group_name_H-M   'P 1'
_cell_length_a   5.24391810
_cell_length_b   5.60951561
_cell_length_c   9.10493805
_cell_angle_alpha   90.00004447
_cell_angle_beta   90.00009442
_cell_angle_gamma   71.30698797
_symmetry_Int_Tables_number   1
_chemical_formula_structural   Na2FeO3
_chemical_formula_sum   'Na8 Fe4 O12'
_cell_volume   253.70123592
_cell_formula_units_Z   4
loop_
 _symmetry_equiv_pos_site_id
 _symmetry_equiv_pos_as_xyz
  1  'x, y, z'
loop_
 _atom_site_type_symbol
 _atom_site_label
 _atom_site_symmetry_multiplicity
 _atom_site_fract_x
 _atom_site_fract_y
 _atom_site_fract_z
 _atom_site_occupancy
  Na  Na0  1  0.00001090  0.49998022  0.49985010  1
  Na  Na1  1  0.50000287  0.50000411  0.00014053  1
  Na  Na2  1  0.99999396  0.00001047  0.00004795  1
  Na  Na3  1  0.50000099  0.99999382  0.49995438  1
  Na  Na4  1  0.00001244  0.50001396  0.15672714  1
  Na  Na5  1  0.50000453  0.49999531  0.65715289  1
  Na  Na6  1  0.00001230  0.50000349  0.84283576  1
  Na  Na7  1  0.49999930  0.50000652  0.34323689  1
  Fe  Fe0  1  0.49999707  0.00000740  0.16727796  1
  Fe  Fe1  1  0.99999785  0.00000181  0.33273532  1
  Fe  Fe2  1  -0.00000241  0.99999018  0.66727567  1
  Fe  Fe3  1  0.49999787  0.99999528  0.83274590  1
  O  O0  1  0.19161463  0.79730022  0.49996246  1
  O  O1  1  0.69158816  0.79734889  0.00002811  1
  O  O2  1  0.80837868  0.20269015  0.49995795  1
  O  O3  1  0.30841091  0.20265868  0.00003462  1
  O  O4  1  0.24032491  0.20195420  0.31069582  1
  O  O5  1  0.74009786  0.20181725  0.81089591  1
  O  O6  1  0.24021798  0.20183562  0.68915000  1
  O  O7  1  0.74022645  0.20189813  0.18927785  1
  O  O8  1  0.75979081  0.79815400  0.68914738  1
  O  O9  1  0.25975672  0.79811345  0.18927747  1
  O  O10  1  0.75965854  0.79805201  0.31069171  1
  O  O11  1  0.25990766  0.79817485  0.81090124  1
loop_
_geom_bond_atom_site_label_1
_geom_bond_atom_site_label_2
_geom_bond_distance
_geom_bond_site_symmetry_2
Na0 O2 2.205697 1_455
Na0 O0 2.205744 1_555
Na0 O4 2.449206 1_555
Na0 O10 2.449424 1_455
Na0 O6 2.450316 1_555
Na0 O8 2.450405 1_455
Na1 O1 2.205802 1_555
Na1 O3 2.205830 1_555
Na1 O7 2.449188 1_555
Na1 O9 2.449232 1_555
Na1 O11 2.449831 1_554
Na1 O5 2.449912 1_554
Na2 O3 2.255302 1_655
Na2 O1 2.255306 1_545
Na2 O5 2.261862 1_554
Na2 O11 2.261918 1_644
Na2 O7 2.262246 1_555
Na2 O9 2.262246 1_645
Na3 O2 2.255319 1_565
Na3 O0 2.255348 1_555
Na3 O8 2.261957 1_555
Na3 O6 2.261965 1_565
Na3 O10 2.262312 1_555
Na3 O4 2.262356 1_565
Na4 O10 2.235650 1_455
Na4 O4 2.235671 1_555
Na4 O3 2.388298 1_555
Na4 O1 2.388339 1_455
Na4 O9 2.489837 1_555
Na4 O7 2.490082 1_455
Na5 O5 2.234388 1_555
Na5 O11 2.234430 1_555
Na5 O2 2.390841 1_555
Na5 O0 2.390851 1_555
Na5 O8 2.489689 1_555
Na5 O6 2.489698 1_555
Na6 O8 2.234206 1_455
Na6 O6 2.234220 1_555
Na6 O3 2.391026 1_556
Na6 O1 2.391054 1_456
Na6 O11 2.490122 1_555
Na6 O5 2.490274 1_455
Na7 O7 2.235627 1_555
Na7 O9 2.235649 1_555
Na7 O0 2.388279 1_555
Na7 O2 2.388302 1_555
Na7 O10 2.489236 1_555
Na7 O4 2.489323 1_555
Fe0 O7 1.955541 1_555
Fe0 O9 1.955603 1_545
Fe0 O10 1.963093 1_545
Fe0 O4 1.963131 1_555
Fe0 O3 1.971871 1_555
Fe0 O1 1.971943 1_545
Fe1 O4 1.956275 1_655
Fe1 O10 1.956320 1_545
Fe1 O9 1.963488 1_645
Fe1 O7 1.963534 1_555
Fe1 O2 1.971869 1_555
Fe1 O0 1.971926 1_645
Fe2 O8 1.955084 1_455
Fe2 O6 1.955186 1_565
Fe2 O5 1.964726 1_465
Fe2 O11 1.964761 1_555
Fe2 O0 1.972506 1_555
Fe2 O2 1.972563 1_465
Fe3 O11 1.954481 1_555
Fe3 O5 1.954536 1_565
Fe3 O6 1.964284 1_565
Fe3 O8 1.964338 1_555
Fe3 O1 1.972140 1_556
Fe3 O3 1.972221 1_566
