# generated using pymatgen
data_Li2Cr(PO3)5
_symmetry_space_group_name_H-M   'P 1'
_cell_length_a   9.59063400
_cell_length_b   5.26929500
_cell_length_c   13.11705135
_cell_angle_alpha   71.30372170
_cell_angle_beta   90.00000000
_cell_angle_gamma   90.00000000
_symmetry_Int_Tables_number   1
_chemical_formula_structural   Li2Cr(PO3)5
_chemical_formula_sum   'Li4 Cr2 P10 O30'
_cell_volume   627.90219146
_cell_formula_units_Z   2
loop_
 _symmetry_equiv_pos_site_id
 _symmetry_equiv_pos_as_xyz
  1  'x, y, z'
loop_
 _atom_site_type_symbol
 _atom_site_label
 _atom_site_symmetry_multiplicity
 _atom_site_fract_x
 _atom_site_fract_y
 _atom_site_fract_z
 _atom_site_occupancy
  Li  Li0  1  0.60558300  0.93550400  0.93689800  1
  Li  Li1  1  0.39867200  0.05480500  0.06829500  1
  Li  Li2  1  0.39441700  0.93550400  0.43689800  1
  Li  Li3  1  0.60132800  0.05480500  0.56829500  1
  Cr  Cr0  1  0.99735800  0.00965000  0.99627200  1
  Cr  Cr1  1  0.00264200  0.00965000  0.49627200  1
  P  P0  1  0.52013500  0.47392500  0.14152500  1
  P  P1  1  0.18158300  0.42208100  0.58192000  1
  P  P2  1  0.82279000  0.59464100  0.41215600  1
  P  P3  1  0.52215100  0.51688700  0.36176900  1
  P  P4  1  0.98332000  0.01346000  0.24635900  1
  P  P5  1  0.47986500  0.47392500  0.64152500  1
  P  P6  1  0.17721000  0.59464100  0.91215600  1
  P  P7  1  0.47784900  0.51688700  0.86176900  1
  P  P8  1  0.01668000  0.01346000  0.74635900  1
  P  P9  1  0.81841700  0.42208100  0.08192000  1
  O  O0  1  0.50070100  0.75424600  0.06771700  1
  O  O1  1  0.14586000  0.29992400  0.93781100  1
  O  O2  1  0.15733000  0.72067600  0.55211800  1
  O  O3  1  0.11651500  0.27275800  0.70003700  1
  O  O4  1  0.66104300  0.64550400  0.39855400  1
  O  O5  1  0.40797500  0.71502200  0.34740800  1
  O  O6  1  0.94079900  0.97271200  0.65204300  1
  O  O7  1  0.59202500  0.71502200  0.84740800  1
  O  O8  1  0.33895700  0.64550400  0.89855400  1
  O  O9  1  0.58230300  0.49368500  0.25159800  1
  O  O10  1  0.49573400  0.23683200  0.93616200  1
  O  O11  1  0.41769700  0.49368500  0.75159800  1
  O  O12  1  0.93738900  0.05093500  0.83982200  1
  O  O13  1  0.84267000  0.72067600  0.05211800  1
  O  O14  1  0.88348500  0.27275800  0.20003700  1
  O  O15  1  0.05920100  0.97271200  0.15204300  1
  O  O16  1  0.40702200  0.27388700  0.15701700  1
  O  O17  1  0.50426600  0.23683200  0.43616200  1
  O  O18  1  0.87005400  0.72806100  0.49220300  1
  O  O19  1  0.59297800  0.27388700  0.65701700  1
  O  O20  1  0.87921400  0.76061900  0.29280300  1
  O  O21  1  0.12994600  0.72806100  0.99220300  1
  O  O22  1  0.34117200  0.35129700  0.60189900  1
  O  O23  1  0.65882800  0.35129700  0.10189900  1
  O  O24  1  0.49929900  0.75424600  0.56771700  1
  O  O25  1  0.85414000  0.29992400  0.43781100  1
  O  O26  1  0.12078600  0.76061900  0.79280300  1
  O  O27  1  0.13556500  0.28749000  0.50201300  1
  O  O28  1  0.06261100  0.05093500  0.33982200  1
  O  O29  1  0.86443500  0.28749000  0.00201300  1
loop_
_geom_bond_atom_site_label_1
_geom_bond_atom_site_label_2
_geom_bond_distance
_geom_bond_site_symmetry_2
Li0 O7 1.902333 1_555
Li0 O10 1.902955 1_565
Li0 O0 1.953926 1_556
Li1 O0 1.863726 1_545
Li1 O16 1.885400 1_555
Li1 O10 1.929954 1_554
Li2 O5 1.902333 1_555
Li2 O17 1.902955 1_565
Li2 O24 1.953926 1_555
Li3 O24 1.863726 1_545
Li3 O19 1.885400 1_555
Li3 O17 1.929954 1_555
Cr0 O29 1.960832 1_556
Cr0 O21 1.967787 1_645
Cr0 O1 2.050366 1_655
Cr0 O12 2.074433 1_555
Cr0 O15 2.075958 1_646
Cr0 O13 2.083513 1_546
Cr1 O27 1.960832 1_555
Cr1 O18 1.967787 1_445
Cr1 O25 2.050366 1_455
Cr1 O28 2.074433 1_555
Cr1 O6 2.075958 1_445
Cr1 O2 2.083513 1_545
O0 P0 1.495676 1_555
O1 P6 1.510054 1_555
O2 P1 1.512661 1_555
O3 P8 1.618810 1_555
O3 P1 1.620942 1_555
O4 P2 1.574612 1_555
O4 P3 1.635897 1_555
O5 P3 1.482724 1_555
O6 P8 1.508824 1_665
O7 P7 1.482724 1_555
O8 P6 1.574612 1_555
O8 P7 1.635897 1_555
O9 P0 1.596047 1_555
O9 P3 1.596682 1_555
O10 P7 1.495365 1_555
O11 P5 1.596047 1_555
O11 P7 1.596682 1_555
O12 P8 1.508462 1_655
O13 P9 1.512661 1_555
O14 P4 1.618810 1_555
O14 P9 1.620942 1_555
O15 P4 1.508824 1_465
O16 P0 1.480493 1_555
O17 P3 1.495365 1_555
O18 P2 1.508451 1_555
O19 P5 1.480493 1_555
O20 P4 1.619469 1_565
O20 P2 1.622006 1_555
O21 P6 1.508451 1_555
O22 P1 1.577258 1_555
O22 P5 1.634725 1_555
O23 P9 1.577258 1_555
O23 P0 1.634725 1_555
O24 P5 1.495676 1_555
O25 P2 1.510054 1_555
O26 P8 1.619469 1_565
O26 P6 1.622006 1_555
O27 P1 1.507618 1_555
O28 P4 1.508462 1_455
O29 P9 1.507618 1_555
