# generated using pymatgen
data_Li4Fe2O5
_symmetry_space_group_name_H-M   'P 1'
_cell_length_a   5.25706000
_cell_length_b   8.53456300
_cell_length_c   11.19852126
_cell_angle_alpha   71.24380623
_cell_angle_beta   90.00000000
_cell_angle_gamma   90.00000000
_symmetry_Int_Tables_number   1
_chemical_formula_structural   Li4Fe2O5
_chemical_formula_sum   'Li16 Fe8 O20'
_cell_volume   475.75887327
_cell_formula_units_Z   4
loop_
 _symmetry_equiv_pos_site_id
 _symmetry_equiv_pos_as_xyz
  1  'x, y, z'
loop_
 _atom_site_type_symbol
 _atom_site_label
 _atom_site_symmetry_multiplicity
 _atom_site_fract_x
 _atom_site_fract_y
 _atom_site_fract_z
 _atom_site_occupancy
  Li  Li0  1  0.12259400  0.12170700  0.00317800  1
  Li  Li1  1  0.32423900  0.49982400  0.41222500  1
  Li  Li2  1  0.47700000  0.99135800  0.11509200  1
  Li  Li3  1  0.33655100  0.88603700  0.32524700  1
  Li  Li4  1  0.83655100  0.11396300  0.17475300  1
  Li  Li5  1  0.62259400  0.87829300  0.49682200  1
  Li  Li6  1  0.97700000  0.00864200  0.38490800  1
  Li  Li7  1  0.17576100  0.49982400  0.91222500  1
  Li  Li8  1  0.82423900  0.50017600  0.08777500  1
  Li  Li9  1  0.02300000  0.99135800  0.61509200  1
  Li  Li10  1  0.37740600  0.12170700  0.50317800  1
  Li  Li11  1  0.16344900  0.88603700  0.82524700  1
  Li  Li12  1  0.66344900  0.11396300  0.67475300  1
  Li  Li13  1  0.52300000  0.00864200  0.88490800  1
  Li  Li14  1  0.67576100  0.50017600  0.58777500  1
  Li  Li15  1  0.87740600  0.87829300  0.99682200  1
  Fe  Fe0  1  0.66924700  0.30809900  0.88235000  1
  Fe  Fe1  1  0.16924700  0.69190100  0.61765000  1
  Fe  Fe2  1  0.83075300  0.30809900  0.38235000  1
  Fe  Fe3  1  0.33075300  0.69190100  0.11765000  1
  Fe  Fe4  1  0.82979500  0.70665400  0.28790400  1
  Fe  Fe5  1  0.67020500  0.70665400  0.78790400  1
  Fe  Fe6  1  0.32979500  0.29334600  0.21209600  1
  Fe  Fe7  1  0.17020500  0.29334600  0.71209600  1
  O  O0  1  0.30152200  0.29637000  0.87330300  1
  O  O1  1  0.19812600  0.70037600  0.27666400  1
  O  O2  1  0.28636700  0.49597600  0.58856900  1
  O  O3  1  0.78636700  0.50402400  0.91143100  1
  O  O4  1  0.71135900  0.90128400  0.31254500  1
  O  O5  1  0.74912400  0.10168900  0.00417400  1
  O  O6  1  0.80152200  0.70363000  0.62669700  1
  O  O7  1  0.24912400  0.89831100  0.49582600  1
  O  O8  1  0.21135900  0.09871600  0.18745500  1
  O  O9  1  0.30187400  0.70037600  0.77666400  1
  O  O10  1  0.69812600  0.29962400  0.22333600  1
  O  O11  1  0.78864100  0.90128400  0.81254500  1
  O  O12  1  0.75087600  0.10168900  0.50417400  1
  O  O13  1  0.19847800  0.29637000  0.37330300  1
  O  O14  1  0.25087600  0.89831100  0.99582600  1
  O  O15  1  0.28864100  0.09871600  0.68745500  1
  O  O16  1  0.21363300  0.49597600  0.08856900  1
  O  O17  1  0.71363300  0.50402400  0.41143100  1
  O  O18  1  0.80187400  0.29962400  0.72333600  1
  O  O19  1  0.69847800  0.70363000  0.12669700  1
loop_
_geom_bond_atom_site_label_1
_geom_bond_atom_site_label_2
_geom_bond_distance
_geom_bond_site_symmetry_2
Li0 O0 1.956519 1_554
Li0 O5 1.970494 1_455
Li0 O14 2.048804 1_544
Li0 O8 2.062626 1_555
Li1 O2 1.974542 1_555
Li1 O1 2.000699 1_555
Li1 O13 2.031955 1_555
Li1 O17 2.047351 1_555
Li2 O5 1.929740 1_565
Li2 O8 1.980877 1_565
Li2 O14 2.123592 1_554
Li2 O4 2.430037 1_555
Li3 O1 1.972486 1_555
Li3 O4 1.976788 1_555
Li3 O7 1.999971 1_555
Li3 O8 2.075498 1_565
Li4 O10 1.972486 1_555
Li4 O8 1.976788 1_655
Li4 O5 1.999971 1_555
Li4 O4 2.075498 1_545
Li5 O6 1.956519 1_555
Li5 O7 1.970494 1_555
Li5 O12 2.048804 1_565
Li5 O4 2.062626 1_555
Li6 O7 1.929740 1_645
Li6 O4 1.980877 1_545
Li6 O12 2.123592 1_555
Li6 O8 2.430037 1_655
Li7 O16 1.974542 1_556
Li7 O9 2.000699 1_555
Li7 O0 2.031955 1_555
Li7 O3 2.047351 1_455
Li8 O3 1.974542 1_554
Li8 O10 2.000699 1_555
Li8 O19 2.031955 1_555
Li8 O16 2.047351 1_655
Li9 O12 1.929740 1_465
Li9 O15 1.980877 1_565
Li9 O7 2.123592 1_555
Li9 O11 2.430037 1_455
Li10 O13 1.956519 1_555
Li10 O12 1.970494 1_555
Li10 O7 2.048804 1_545
Li10 O15 2.062626 1_555
Li11 O9 1.972486 1_555
Li11 O11 1.976788 1_455
Li11 O14 1.999971 1_555
Li11 O15 2.075498 1_565
Li12 O18 1.972486 1_555
Li12 O15 1.976788 1_555
Li12 O12 1.999971 1_555
Li12 O11 2.075498 1_545
Li13 O14 1.929740 1_545
Li13 O11 1.980877 1_545
Li13 O5 2.123592 1_556
Li13 O15 2.430037 1_555
Li14 O17 1.974542 1_555
Li14 O18 2.000699 1_555
Li14 O6 2.031955 1_555
Li14 O2 2.047351 1_555
Li15 O19 1.956519 1_556
Li15 O14 1.970494 1_655
Li15 O5 2.048804 1_566
Li15 O11 2.062626 1_555
Fe0 O5 1.896126 1_556
Fe0 O3 1.905618 1_555
Fe0 O18 1.935241 1_555
Fe0 O0 1.940073 1_555
Fe1 O7 1.896126 1_555
Fe1 O2 1.905618 1_555
Fe1 O9 1.935241 1_555
Fe1 O6 1.940073 1_455
Fe2 O12 1.896126 1_555
Fe2 O17 1.905618 1_555
Fe2 O10 1.935241 1_555
Fe2 O13 1.940073 1_655
Fe3 O14 1.896126 1_554
Fe3 O16 1.905618 1_555
Fe3 O1 1.935241 1_555
Fe3 O19 1.940073 1_555
Fe4 O4 1.875571 1_555
Fe4 O17 1.933585 1_555
Fe4 O19 1.940679 1_555
Fe4 O1 1.942281 1_655
Fe5 O11 1.875571 1_555
Fe5 O3 1.933585 1_555
Fe5 O6 1.940679 1_555
Fe5 O9 1.942281 1_555
Fe6 O8 1.875571 1_555
Fe6 O16 1.933585 1_555
Fe6 O13 1.940679 1_555
Fe6 O10 1.942281 1_555
Fe7 O15 1.875571 1_555
Fe7 O2 1.933585 1_555
Fe7 O0 1.940679 1_555
Fe7 O18 1.942281 1_455
