# generated using pymatgen
data_KBa7Al15Si17O64
_symmetry_space_group_name_H-M   'P 1'
_cell_length_a   8.75334400
_cell_length_b   9.43216183
_cell_length_c   18.90893905
_cell_angle_alpha   89.03709479
_cell_angle_beta   98.25808548
_cell_angle_gamma   97.14045154
_symmetry_Int_Tables_number   1
_chemical_formula_structural   KBa7Al15Si17O64
_chemical_formula_sum   'K1 Ba7 Al15 Si17 O64'
_cell_volume   1533.00710911
_cell_formula_units_Z   1
loop_
 _symmetry_equiv_pos_site_id
 _symmetry_equiv_pos_as_xyz
  1  'x, y, z'
loop_
 _atom_site_type_symbol
 _atom_site_label
 _atom_site_symmetry_multiplicity
 _atom_site_fract_x
 _atom_site_fract_y
 _atom_site_fract_z
 _atom_site_occupancy
  K  K0  1  0.20688900  0.92319700  0.96320300  1
  Ba  Ba0  1  0.21037200  0.94747900  0.46753600  1
  Ba  Ba1  1  0.28915700  0.57937500  0.78154700  1
  Ba  Ba2  1  0.29490800  0.58450900  0.28428300  1
  Ba  Ba3  1  0.73101000  0.43442000  0.71520800  1
  Ba  Ba4  1  0.71908200  0.43242700  0.21783700  1
  Ba  Ba5  1  0.77236700  0.08228300  0.52295800  1
  Ba  Ba6  1  0.76009800  0.04702900  0.02032300  1
  Al  Al0  1  0.03578300  0.45095900  0.60312600  1
  Al  Al1  1  0.53455600  0.94918500  0.85312400  1
  Al  Al2  1  0.46527600  0.05068300  0.64671100  1
  Al  Al3  1  0.39836300  0.56834500  0.10140400  1
  Al  Al4  1  0.47278000  0.29379600  0.52767700  1
  Al  Al5  1  0.60221600  0.43046500  0.89811900  1
  Al  Al6  1  0.52839100  0.94850800  0.35302800  1
  Al  Al7  1  0.46109100  0.04941900  0.14680600  1
  Al  Al8  1  0.60697800  0.42894900  0.39911700  1
  Al  Al9  1  0.96672200  0.78889600  0.77963400  1
  Al  Al10  1  0.88697600  0.70492700  0.53673600  1
  Al  Al11  1  0.90758100  0.07223200  0.85469000  1
  Al  Al12  1  0.96944400  0.79340300  0.27950300  1
  Al  Al13  1  0.89083900  0.69712800  0.03555400  1
  Al  Al14  1  0.89788500  0.07259000  0.35130600  1
  Si  Si0  1  0.09937000  0.92383000  0.64803200  1
  Si  Si1  1  0.10835000  0.29798100  0.96851600  1
  Si  Si2  1  0.04043000  0.20730600  0.72352200  1
  Si  Si3  1  0.09843900  0.92154600  0.14684900  1
  Si  Si4  1  0.03877200  0.44399000  0.10610100  1
  Si  Si5  1  0.10275700  0.29921400  0.46557000  1
  Si  Si6  1  0.03732500  0.20301100  0.22124300  1
  Si  Si7  1  0.40295100  0.57200200  0.60212300  1
  Si  Si8  1  0.40159400  0.20961000  0.78317600  1
  Si  Si9  1  0.52373200  0.70957600  0.96968700  1
  Si  Si10  1  0.39745600  0.20843300  0.28438600  1
  Si  Si11  1  0.60455200  0.79389300  0.71629600  1
  Si  Si12  1  0.52630100  0.71132000  0.47015200  1
  Si  Si13  1  0.47233400  0.29232700  0.03097800  1
  Si  Si14  1  0.60269000  0.79213200  0.21547100  1
  Si  Si15  1  0.96542600  0.54958600  0.89535200  1
  Si  Si16  1  0.96516500  0.55736300  0.39508800  1
  O  O0  1  0.01918500  0.62663600  0.82251800  1
  O  O1  1  0.99320700  0.87031600  0.57141700  1
  O  O2  1  0.09503600  0.43351900  0.91349000  1
  O  O3  1  0.09231300  0.80897400  0.71302100  1
  O  O4  1  0.01996600  0.32374400  0.53521700  1
  O  O5  1  0.02513000  0.07047000  0.66863100  1
  O  O6  1  0.02633500  0.63638500  0.32419700  1
  O  O7  1  0.98594800  0.86061600  0.07417400  1
  O  O8  1  0.08901300  0.43700300  0.41120200  1
  O  O9  1  0.09660200  0.81185800  0.21423000  1
  O  O10  1  0.02853900  0.33137200  0.03977600  1
  O  O11  1  0.02061900  0.06823800  0.16625400  1
  O  O12  1  0.22804200  0.53727200  0.62162500  1
  O  O13  1  0.27379500  0.96419100  0.62807700  1
  O  O14  1  0.22172200  0.24948600  0.76077900  1
  O  O15  1  0.29078500  0.27588400  0.99065900  1
  O  O16  1  0.21383100  0.52198200  0.12887000  1
  O  O17  1  0.27135500  0.96682400  0.12795800  1
  O  O18  1  0.21762600  0.24856000  0.25851500  1
  O  O19  1  0.48128600  0.85837700  0.93023100  1
  O  O20  1  0.28128400  0.26677700  0.48245600  1
  O  O21  1  0.40126800  0.07501400  0.83655100  1
  O  O22  1  0.40905300  0.67913100  0.53239500  1
  O  O23  1  0.50929900  0.58285000  0.90961500  1
  O  O24  1  0.51279000  0.81880400  0.78399500  1
  O  O25  1  0.49238800  0.36289300  0.81675000  1
  O  O26  1  0.50040100  0.64715600  0.67696300  1
  O  O27  1  0.45841500  0.84743500  0.42569200  1
  O  O28  1  0.48478000  0.18312700  0.71340000  1
  O  O29  1  0.49042000  0.43322100  0.59172200  1
  O  O30  1  0.39190700  0.07398600  0.33881800  1
  O  O31  1  0.59378700  0.31889400  0.97303000  1
  O  O32  1  0.39883100  0.67342300  0.02567400  1
  O  O33  1  0.60541500  0.93002900  0.66363900  1
  O  O34  1  0.50840300  0.57760400  0.41463500  1
  O  O35  1  0.51246300  0.82269600  0.28337000  1
  O  O36  1  0.51124900  0.13129400  0.56787500  1
  O  O37  1  0.49051700  0.36112000  0.31762400  1
  O  O38  1  0.50372800  0.64080500  0.18233800  1
  O  O39  1  0.48386800  0.17762500  0.21607800  1
  O  O40  1  0.49528400  0.41696000  0.09193400  1
  O  O41  1  0.61566100  0.31616600  0.47143800  1
  O  O42  1  0.59920000  0.92673700  0.16052100  1
  O  O43  1  0.70308200  0.75988600  0.50727400  1
  O  O44  1  0.51237100  0.14214400  0.06979900  1
  O  O45  1  0.77281700  0.73866100  0.73944900  1
  O  O46  1  0.72152200  0.03406500  0.87797100  1
  O  O47  1  0.79035900  0.46607000  0.87434700  1
  O  O48  1  0.70184600  0.74095800  0.01190500  1
  O  O49  1  0.77631700  0.74739100  0.23936000  1
  O  O50  1  0.71491500  0.03232500  0.37704900  1
  O  O51  1  0.78819300  0.48099300  0.36936100  1
  O  O52  1  0.99732100  0.92454900  0.84061500  1
  O  O53  1  0.97882100  0.65941000  0.96134700  1
  O  O54  1  0.91815400  0.18880300  0.78063600  1
  O  O55  1  0.89176600  0.56358800  0.59642500  1
  O  O56  1  0.01071200  0.15121000  0.93667700  1
  O  O57  1  0.99364200  0.34902500  0.67889300  1
  O  O58  1  0.00119900  0.92961600  0.34159600  1
  O  O59  1  0.98001700  0.66757500  0.46179100  1
  O  O60  1  0.91114100  0.18779200  0.27640400  1
  O  O61  1  0.90571500  0.55066300  0.09498100  1
  O  O62  1  0.00571000  0.15185400  0.43048600  1
  O  O63  1  0.98722800  0.34464400  0.17431300  1
loop_
_geom_bond_atom_site_label_1
_geom_bond_atom_site_label_2
_geom_bond_distance
_geom_bond_site_symmetry_2
K0 O19 2.709180 1_555
K0 O52 2.742580 1_455
K0 O56 2.908631 1_565
K0 O53 2.987506 1_455
K0 O7 3.054841 1_456
K0 O17 3.110221 1_556
K0 O32 3.176304 1_556
K0 O21 3.336226 1_565
K0 O15 3.349074 1_565
Ba0 O27 2.694169 1_555
Ba0 O58 2.781383 1_555
Ba0 O62 2.805143 1_565
Ba0 O1 2.946563 1_455
Ba0 O20 3.008081 1_565
Ba0 O13 3.009732 1_555
Ba0 O59 3.109822 1_455
Ba0 O30 3.227206 1_565
Ba0 O36 3.328957 1_565
Ba0 O22 3.363393 1_555
Ba1 O0 2.680080 1_555
Ba1 O24 2.795107 1_555
Ba1 O23 2.867940 1_555
Ba1 O25 2.879978 1_555
Ba1 O26 2.907357 1_555
Ba1 O12 3.018449 1_555
Ba1 O3 3.087025 1_555
Ba1 O14 3.114861 1_555
Ba2 O6 2.672808 1_555
Ba2 O35 2.760184 1_555
Ba2 O38 2.841740 1_555
Ba2 O34 2.876390 1_555
Ba2 O37 2.882878 1_555
Ba2 O16 2.973634 1_555
Ba2 O9 3.087976 1_555
Ba2 O18 3.187500 1_555
Ba2 O8 3.383834 1_555
Ba3 O57 2.708814 1_555
Ba3 O45 2.883378 1_555
Ba3 O29 2.910287 1_555
Ba3 O55 2.983109 1_555
Ba3 O47 2.992750 1_555
Ba3 O28 2.996028 1_555
Ba3 O26 3.027019 1_555
Ba3 O25 3.043485 1_555
Ba3 O54 3.137855 1_555
Ba3 O0 3.359117 1_655
Ba4 O63 2.816568 1_555
Ba4 O40 2.850874 1_555
Ba4 O51 2.874412 1_555
Ba4 O38 2.894878 1_555
Ba4 O37 2.953425 1_555
Ba4 O39 2.961264 1_555
Ba4 O49 2.975615 1_555
Ba4 O60 3.117796 1_555
Ba4 O61 3.139977 1_555
Ba5 O36 2.644395 1_555
Ba5 O50 2.770045 1_555
Ba5 O41 2.827246 1_555
Ba5 O62 2.883425 1_655
Ba5 O4 2.929899 1_655
Ba5 O1 2.994009 1_545
Ba5 O43 3.036939 1_545
Ba5 O5 3.285622 1_655
Ba5 O33 3.426496 1_545
Ba6 O46 2.667219 1_554
Ba6 O44 2.734379 1_555
Ba6 O48 2.871544 1_545
Ba6 O7 2.874440 1_545
Ba6 O56 2.947574 1_654
Ba6 O19 3.138867 1_544
Ba6 O31 3.157767 1_554
Ba6 O42 3.297406 1_545
Ba6 O11 3.309406 1_655
Ba6 O10 3.326829 1_655
Al0 O55 1.736757 1_455
Al0 O4 1.751358 1_555
Al0 O12 1.765555 1_555
Al0 O57 1.769285 1_455
Al1 O46 1.733816 1_565
Al1 O21 1.759185 1_565
Al1 O19 1.769430 1_555
Al1 O24 1.783687 1_555
Al2 O36 1.737935 1_555
Al2 O13 1.760419 1_545
Al2 O28 1.765780 1_555
Al2 O33 1.767579 1_545
Al3 O32 1.727960 1_555
Al3 O16 1.768562 1_555
Al3 O38 1.769965 1_555
Al3 O40 1.773154 1_555
Al4 O41 1.746000 1_555
Al4 O36 1.748164 1_555
Al4 O20 1.759331 1_555
Al4 O29 1.780219 1_555
Al5 O31 1.754979 1_555
Al5 O47 1.759868 1_555
Al5 O23 1.768210 1_555
Al5 O25 1.775796 1_555
Al6 O50 1.724876 1_565
Al6 O35 1.766692 1_555
Al6 O30 1.774496 1_565
Al6 O27 1.795683 1_555
Al7 O17 1.734909 1_545
Al7 O42 1.765041 1_545
Al7 O44 1.770325 1_555
Al7 O39 1.770896 1_555
Al8 O41 1.717225 1_555
Al8 O51 1.768395 1_555
Al8 O34 1.784364 1_555
Al8 O37 1.800774 1_555
Al9 O52 1.707085 1_555
Al9 O45 1.767612 1_555
Al9 O3 1.780158 1_655
Al9 O0 1.799108 1_655
Al10 O55 1.732799 1_555
Al10 O43 1.763605 1_555
Al10 O59 1.793130 1_555
Al10 O1 1.796339 1_555
Al11 O52 1.724178 1_545
Al11 O46 1.740898 1_555
Al11 O54 1.771574 1_555
Al11 O56 1.800795 1_655
Al12 O58 1.724714 1_655
Al12 O49 1.755676 1_555
Al12 O9 1.769691 1_655
Al12 O6 1.782138 1_655
Al13 O48 1.748986 1_555
Al13 O53 1.756104 1_554
Al13 O61 1.771628 1_555
Al13 O7 1.774353 1_555
Al14 O50 1.735751 1_555
Al14 O58 1.740503 1_645
Al14 O62 1.774166 1_655
Al14 O60 1.778838 1_555
O0 Si15 1.647370 1_455
O1 Si0 1.654790 1_655
O2 Si1 1.639523 1_555
O2 Si15 1.669626 1_455
O3 Si0 1.627266 1_555
O4 Si5 1.624552 1_555
O5 Si2 1.650200 1_555
O5 Si0 1.673721 1_545
O6 Si16 1.646966 1_455
O7 Si3 1.638737 1_655
O8 Si5 1.648898 1_555
O8 Si16 1.660219 1_455
O9 Si3 1.628321 1_555
O10 Si4 1.642579 1_555
O10 Si1 1.655976 1_554
O11 Si6 1.634937 1_555
O11 Si3 1.684113 1_545
O12 Si7 1.618893 1_555
O13 Si0 1.623143 1_555
O14 Si2 1.644442 1_555
O14 Si8 1.658352 1_555
O15 Si1 1.629917 1_555
O15 Si13 1.650875 1_556
O16 Si4 1.617253 1_555
O17 Si3 1.609484 1_555
O18 Si6 1.641402 1_555
O18 Si10 1.667656 1_555
O19 Si9 1.636868 1_555
O20 Si5 1.615505 1_555
O21 Si8 1.608476 1_555
O22 Si7 1.650548 1_555
O22 Si12 1.669797 1_555
O23 Si9 1.643726 1_555
O24 Si11 1.640572 1_555
O25 Si8 1.650826 1_555
O26 Si7 1.664146 1_555
O26 Si11 1.681076 1_555
O27 Si12 1.648649 1_555
O28 Si8 1.632689 1_555
O29 Si7 1.624640 1_555
O30 Si10 1.620198 1_555
O31 Si13 1.628751 1_556
O32 Si9 1.630954 1_554
O33 Si11 1.611531 1_555
O34 Si12 1.632603 1_555
O35 Si14 1.647907 1_555
O37 Si10 1.650563 1_555
O38 Si14 1.657400 1_555
O39 Si10 1.634868 1_555
O40 Si13 1.634358 1_555
O42 Si14 1.627471 1_555
O43 Si12 1.618530 1_555
O44 Si13 1.637941 1_555
O45 Si11 1.621820 1_555
O47 Si15 1.631616 1_555
O48 Si9 1.640532 1_554
O49 Si14 1.627207 1_555
O51 Si16 1.634969 1_555
O53 Si15 1.617175 1_555
O54 Si2 1.619153 1_655
O56 Si1 1.611035 1_555
O57 Si2 1.632664 1_655
O59 Si16 1.628417 1_555
O60 Si6 1.617102 1_655
O61 Si4 1.620785 1_655
O62 Si5 1.633764 1_555
O63 Si6 1.660849 1_655
O63 Si4 1.663339 1_655
