# generated using pymatgen
data_Li3V3P8O29
_symmetry_space_group_name_H-M   'P 1'
_cell_length_a   9.75860100
_cell_length_b   9.76891042
_cell_length_c   14.21974026
_cell_angle_alpha   90.37468044
_cell_angle_beta   89.99462490
_cell_angle_gamma   119.94938742
_symmetry_Int_Tables_number   1
_chemical_formula_structural   Li3V3P8O29
_chemical_formula_sum   'Li6 V6 P16 O58'
_cell_volume   1174.53254830
_cell_formula_units_Z   2
loop_
 _symmetry_equiv_pos_site_id
 _symmetry_equiv_pos_as_xyz
  1  'x, y, z'
loop_
 _atom_site_type_symbol
 _atom_site_label
 _atom_site_symmetry_multiplicity
 _atom_site_fract_x
 _atom_site_fract_y
 _atom_site_fract_z
 _atom_site_occupancy
  Li  Li0  1  0.67181800  0.76636600  0.05809000  1
  Li  Li1  1  0.09370300  0.32734600  0.05999400  1
  Li  Li2  1  0.23040000  0.32771300  0.55802300  1
  Li  Li3  1  0.67309200  0.33337600  0.60407100  1
  Li  Li4  1  0.04008600  0.98473600  0.00216000  1
  Li  Li5  1  0.96400400  0.94876900  0.50060600  1
  V  V0  1  0.56524600  0.56560200  0.25441300  1
  V  V1  1  0.43360100  0.43186100  0.75370600  1
  V  V2  1  0.00365800  0.57241700  0.75178500  1
  V  V3  1  0.99712800  0.44064500  0.25211900  1
  V  V4  1  0.43541200  0.99652400  0.24867800  1
  V  V5  1  0.56445900  0.99925200  0.74891700  1
  P  P0  1  0.22467500  0.92284100  0.84078300  1
  P  P1  1  0.08528200  0.78243400  0.34181800  1
  P  P2  1  0.69591600  0.91996300  0.34496400  1
  P  P3  1  0.33511000  0.66327500  0.13168500  1
  P  P4  1  0.33129000  0.66202800  0.63143700  1
  P  P5  1  0.68841600  0.77579900  0.84085300  1
  P  P6  1  0.77927800  0.68995700  0.65922600  1
  P  P7  1  0.08313100  0.31213000  0.84390600  1
  P  P8  1  0.91438900  0.69534600  0.15705500  1
  P  P9  1  0.22452800  0.31553300  0.34283300  1
  P  P10  1  0.30870500  0.22197100  0.16286200  1
  P  P11  1  0.66326300  0.33088900  0.36771800  1
  P  P12  1  0.67034700  0.33400700  0.86811800  1
  P  P13  1  0.30688200  0.08717200  0.65508300  1
  P  P14  1  0.91087000  0.22114200  0.66147200  1
  P  P15  1  0.77810900  0.08421900  0.15975100  1
  O  O0  1  0.21015800  0.01046400  0.57066400  1
  O  O1  1  0.26047400  0.91248900  0.32970300  1
  O  O2  1  0.98874400  0.78804200  0.07153900  1
  O  O3  1  0.08955100  0.74630900  0.83011000  1
  O  O4  1  0.38465800  0.92765700  0.82725900  1
  O  O5  1  0.33606800  0.81042900  0.17889200  1
  O  O6  1  0.53981300  0.92377900  0.33034300  1
  O  O7  1  0.78705800  0.99414900  0.07736200  1
  O  O8  1  0.65361900  0.91349400  0.82847000  1
  O  O9  1  0.18140500  0.65410300  0.67860800  1
  O  O10  1  0.08021000  0.61934900  0.32682600  1
  O  O11  1  0.47107300  0.81426600  0.67784900  1
  O  O12  1  0.34021300  0.66341500  0.02713100  1
  O  O13  1  0.32569500  0.65553200  0.52748500  1
  O  O14  1  0.48766000  0.66872700  0.17321800  1
  O  O15  1  0.08290000  0.46761100  0.82663800  1
  O  O16  1  0.18504500  0.51349100  0.17170100  1
  O  O17  1  0.65282900  0.74311800  0.32935300  1
  O  O18  1  0.80080400  0.79063400  0.75544500  1
  O  O19  1  0.79507400  0.78717100  0.57675500  1
  O  O20  1  0.76153500  0.78039100  0.93314800  1
  O  O21  1  0.53098400  0.61822400  0.82249900  1
  O  O22  1  0.33786500  0.51609900  0.67243900  1
  O  O23  1  0.73764400  0.65221900  0.16465300  1
  O  O24  1  0.38185100  0.47352200  0.32558700  1
  O  O25  1  0.08689600  0.34986700  0.32742100  1
  O  O26  1  0.99725400  0.79875300  0.25021800  1
  O  O27  1  0.00792300  0.79374300  0.42804700  1
  O  O28  1  0.00578900  0.21212300  0.58252500  1
  O  O29  1  0.91674200  0.65179200  0.66713900  1
  O  O30  1  0.62426700  0.52775600  0.66893000  1
  O  O31  1  0.25634300  0.34516200  0.82845000  1
  O  O32  1  0.66241900  0.47905500  0.32519500  1
  O  O33  1  0.46273400  0.38313800  0.17375600  1
  O  O34  1  0.20562600  0.20874200  0.08173100  1
  O  O35  1  0.22025400  0.24487500  0.43527600  1
  O  O36  1  0.20888400  0.19833600  0.25929600  1
  O  O37  1  0.34684600  0.26504700  0.66219300  1
  O  O38  1  0.81678700  0.47873500  0.82223300  1
  O  O39  1  0.92179900  0.54027900  0.17119800  1
  O  O40  1  0.52340300  0.33816900  0.82124200  1
  O  O41  1  0.66749600  0.33488800  0.97183900  1
  O  O42  1  0.66665300  0.33462900  0.47229900  1
  O  O43  1  0.51958600  0.18428600  0.32376100  1
  O  O44  1  0.90114200  0.37479900  0.66882700  1
  O  O45  1  0.81429900  0.33663800  0.32269400  1
  O  O46  1  0.34944400  0.08789200  0.16684600  1
  O  O47  1  0.20688500  0.00877100  0.74946900  1
  O  O48  1  0.20546600  0.99698700  0.92675000  1
  O  O49  1  0.47006800  0.09478200  0.66714700  1
  O  O50  1  0.66460100  0.18573700  0.82014000  1
  O  O51  1  0.61679100  0.07839700  0.17200900  1
  O  O52  1  0.91307300  0.26018100  0.16117400  1
  O  O53  1  0.02099200  0.23703900  0.93632900  1
  O  O54  1  0.98292900  0.19692800  0.75940300  1
  O  O55  1  0.73597800  0.08241300  0.66397900  1
  O  O56  1  0.78818000  0.98835500  0.43185500  1
  O  O57  1  0.80341400  0.00981800  0.25467800  1
loop_
_geom_bond_atom_site_label_1
_geom_bond_atom_site_label_2
_geom_bond_distance
_geom_bond_site_symmetry_2
Li0 O7 1.945447 1_555
Li0 O20 1.955729 1_554
Li0 O23 2.165568 1_555
Li0 O14 2.264477 1_555
Li1 O53 1.931048 1_554
Li1 O34 1.974633 1_555
Li1 O52 2.112983 1_455
Li1 O16 2.229006 1_555
Li2 O35 1.900725 1_555
Li2 O28 1.932503 1_555
Li2 O37 2.137048 1_555
Li2 O22 2.273270 1_555
Li3 O42 1.875148 1_555
Li3 O44 2.249581 1_555
Li3 O30 2.358758 1_555
Li3 O49 2.361908 1_555
Li4 O48 1.891369 1_554
Li4 O2 1.994963 1_455
Li4 O34 2.262042 1_565
Li5 O19 1.950846 1_555
Li5 O27 2.041888 1_655
Li5 O56 2.171868 1_555
Li5 O0 2.381788 1_665
O0 P13 1.475019 1_555
O1 P1 1.549427 1_555
O1 V4 1.878415 1_555
O2 P8 1.477624 1_555
O3 P0 1.569038 1_555
O3 V2 1.839151 1_555
O4 P0 1.550257 1_555
O4 V5 1.895609 1_555
O5 P3 1.578341 1_555
O5 V4 1.856441 1_555
O6 P2 1.556298 1_555
O6 V4 1.904049 1_555
O7 P15 1.489153 1_565
O8 P5 1.553983 1_555
O8 V5 1.865188 1_555
O9 P4 1.575671 1_555
O9 V2 1.832139 1_555
O10 P1 1.582053 1_555
O10 V3 1.842866 1_455
O11 P4 1.571565 1_555
O11 V5 1.857244 1_555
O12 P3 1.487547 1_555
O13 P4 1.478961 1_555
O14 P3 1.577457 1_555
O14 V0 1.923053 1_555
O15 P7 1.541295 1_555
O15 V2 1.893166 1_555
O16 P3 1.574985 1_555
O16 V3 1.970829 1_455
O17 P2 1.574907 1_555
O17 V0 1.835596 1_555
O18 P5 1.594420 1_555
O18 P6 1.630821 1_555
O19 P6 1.472845 1_555
O20 P5 1.483583 1_555
O21 P5 1.559318 1_555
O21 V1 1.850374 1_555
O22 P4 1.574325 1_555
O22 V1 1.914596 1_555
O23 P8 1.561750 1_555
O23 V0 1.941080 1_555
O24 P9 1.561470 1_555
O24 V0 1.854875 1_555
O25 P9 1.554105 1_555
O25 V3 1.867786 1_455
O26 P8 1.611337 1_555
O26 P1 1.612324 1_655
O27 P1 1.472034 1_555
O28 P14 1.485258 1_455
O29 P6 1.565604 1_555
O29 V2 1.854319 1_655
O30 P6 1.558072 1_555
O30 V1 2.016616 1_555
O31 P7 1.570293 1_555
O31 V1 1.840585 1_555
O32 P11 1.576092 1_555
O32 V0 1.854428 1_555
O33 P10 1.547931 1_555
O33 V0 1.920015 1_555
O34 P10 1.492634 1_555
O35 P9 1.479611 1_555
O36 P9 1.597764 1_555
O36 P10 1.631533 1_555
O37 P13 1.582025 1_555
O37 V1 1.913277 1_555
O38 P12 1.568877 1_555
O38 V2 1.873995 1_655
O39 P8 1.566448 1_555
O39 V3 1.881749 1_555
O40 P12 1.600304 1_555
O40 V1 1.827695 1_555
O41 P12 1.475195 1_555
O42 P11 1.487290 1_555
O43 P11 1.546328 1_555
O43 V4 1.910292 1_545
O44 P14 1.553500 1_555
O44 V2 2.039937 1_655
O45 P11 1.582110 1_555
O45 V3 1.850858 1_555
O46 P10 1.548467 1_555
O46 V4 1.901559 1_545
O47 P0 1.606428 1_545
O47 P13 1.614667 1_555
O48 P0 1.475826 1_555
O49 P13 1.566073 1_555
O49 V5 1.985964 1_545
O50 P12 1.572433 1_555
O50 V5 1.870291 1_545
O51 P15 1.556446 1_555
O51 V4 1.886457 1_545
O52 P15 1.558498 1_555
O52 V3 1.994919 1_555
O53 P7 1.483690 1_555
O54 P7 1.596970 1_655
O54 P14 1.631017 1_555
O55 P14 1.562670 1_555
O55 V5 1.890787 1_545
O56 P2 1.473923 1_555
O57 P15 1.613507 1_555
O57 P2 1.616879 1_545
