# generated using pymatgen
data_Ba8In6O17
_symmetry_space_group_name_H-M   'P 1'
_cell_length_a   6.19972400
_cell_length_b   6.23747365
_cell_length_c   15.15140551
_cell_angle_alpha   101.84627261
_cell_angle_beta   90.02469730
_cell_angle_gamma   90.04168487
_symmetry_Int_Tables_number   1
_chemical_formula_structural   Ba8In6O17
_chemical_formula_sum   'Ba8 In6 O17'
_cell_volume   573.43506895
_cell_formula_units_Z   1
loop_
 _symmetry_equiv_pos_site_id
 _symmetry_equiv_pos_as_xyz
  1  'x, y, z'
loop_
 _atom_site_type_symbol
 _atom_site_label
 _atom_site_symmetry_multiplicity
 _atom_site_fract_x
 _atom_site_fract_y
 _atom_site_fract_z
 _atom_site_occupancy
  Ba  Ba0  1  0.75775800  0.19146300  0.86355800  1
  Ba  Ba1  1  0.73331800  0.03576200  0.58950600  1
  Ba  Ba2  1  0.26668200  0.96423800  0.41049400  1
  Ba  Ba3  1  0.24224200  0.80853700  0.13644200  1
  Ba  Ba4  1  0.73184100  0.44656100  0.41108400  1
  Ba  Ba5  1  0.75719000  0.32806800  0.13715100  1
  Ba  Ba6  1  0.24281000  0.67193200  0.86284900  1
  Ba  Ba7  1  0.26815900  0.55343900  0.58891600  1
  In  In0  1  0.77521800  0.86915900  0.28137800  1
  In  In1  1  0.73403300  0.76525800  0.99991100  1
  In  In2  1  0.26596700  0.23474200  0.00008900  1
  In  In3  1  0.22478200  0.13084100  0.71862200  1
  In  In4  1  0.77768500  0.58631200  0.71867900  1
  In  In5  1  0.22231500  0.41368800  0.28132100  1
  O  O0  1  0.50000000  0.50000000  0.00000000  1
  O  O1  1  0.69709600  0.02722200  0.41548800  1
  O  O2  1  0.50466900  0.35432300  0.72150200  1
  O  O3  1  0.80687100  0.75192300  0.13599500  1
  O  O4  1  0.19312900  0.24807700  0.86400500  1
  O  O5  1  0.00273800  0.34101500  0.67986900  1
  O  O6  1  0.30290400  0.97277800  0.58451200  1
  O  O7  1  0.80509400  0.61781400  0.86333600  1
  O  O8  1  0.49533100  0.64567700  0.27849800  1
  O  O9  1  0.50000000  0.00000000  0.00000000  1
  O  O10  1  0.69598600  0.61207700  0.58510900  1
  O  O11  1  0.00152100  0.86728000  0.73476800  1
  O  O12  1  0.00000000  0.00000000  0.00000000  1
  O  O13  1  0.99726200  0.65898500  0.32013100  1
  O  O14  1  0.30401400  0.38792300  0.41489100  1
  O  O15  1  0.19490600  0.38218600  0.13666400  1
  O  O16  1  0.99847900  0.13272000  0.26523200  1
loop_
_geom_bond_atom_site_label_1
_geom_bond_atom_site_label_2
_geom_bond_distance
_geom_bond_site_symmetry_2
Ba0 O7 2.675973 1_555
Ba0 O4 2.721752 1_655
Ba0 O11 2.927021 1_645
Ba0 O0 2.984109 1_556
Ba0 O12 2.994826 1_656
Ba0 O2 3.003937 1_555
Ba0 O9 3.044226 1_556
Ba1 O1 2.635683 1_555
Ba1 O10 2.639850 1_545
Ba1 O5 2.685677 1_655
Ba1 O6 2.695696 1_545
Ba1 O2 2.886587 1_555
Ba1 O11 3.108430 1_645
Ba2 O6 2.635683 1_555
Ba2 O14 2.639850 1_565
Ba2 O13 2.685677 1_455
Ba2 O1 2.695696 1_565
Ba2 O8 2.886587 1_555
Ba2 O16 3.108430 1_465
Ba3 O15 2.675973 1_555
Ba3 O3 2.721752 1_455
Ba3 O16 2.927021 1_465
Ba3 O0 2.984109 1_555
Ba3 O12 2.994826 1_565
Ba3 O8 3.003937 1_555
Ba3 O9 3.044226 1_565
Ba4 O10 2.636432 1_555
Ba4 O1 2.638778 1_555
Ba4 O13 2.666629 1_555
Ba4 O14 2.679507 1_555
Ba4 O8 2.958472 1_555
Ba4 O16 3.111270 1_555
Ba5 O3 2.665071 1_555
Ba5 O15 2.734589 1_655
Ba5 O16 2.908509 1_555
Ba5 O0 2.987533 1_555
Ba5 O12 3.005496 1_655
Ba5 O9 3.048702 1_555
Ba5 O8 3.067978 1_555
Ba6 O4 2.665071 1_555
Ba6 O7 2.734589 1_455
Ba6 O11 2.908509 1_555
Ba6 O0 2.987533 1_556
Ba6 O12 3.005496 1_566
Ba6 O9 3.048702 1_566
Ba6 O2 3.067978 1_555
Ba7 O14 2.636432 1_555
Ba7 O6 2.638778 1_555
Ba7 O5 2.666629 1_555
Ba7 O10 2.679507 1_555
Ba7 O2 2.958472 1_555
Ba7 O11 3.111270 1_555
In0 O13 2.067943 1_555
In0 O1 2.124730 1_565
In0 O3 2.182801 1_555
In0 O16 2.200096 1_565
In0 O8 2.219791 1_555
In1 O9 2.061888 1_566
In1 O3 2.128799 1_556
In1 O7 2.131181 1_555
In1 O0 2.200035 1_556
In1 O12 2.204199 1_666
In2 O9 2.061888 1_555
In2 O4 2.128799 1_554
In2 O15 2.131181 1_555
In2 O0 2.200035 1_555
In2 O12 2.204199 1_555
In3 O5 2.067943 1_555
In3 O6 2.124730 1_545
In3 O4 2.182801 1_555
In3 O11 2.200096 1_545
In3 O2 2.219791 1_555
In4 O5 2.065906 1_655
In4 O10 2.123866 1_555
In4 O7 2.166586 1_555
In4 O11 2.208467 1_655
In4 O2 2.232173 1_555
In5 O13 2.065906 1_455
In5 O14 2.123866 1_555
In5 O15 2.166586 1_555
In5 O16 2.208467 1_455
In5 O8 2.232173 1_555
