# generated using pymatgen
data_Li4Ti4Mn(Fe2O9)2
_symmetry_space_group_name_H-M   'P 1'
_cell_length_a   2.94089800
_cell_length_b   9.19941500
_cell_length_c   25.44672000
_cell_angle_alpha   90.00000000
_cell_angle_beta   90.00000000
_cell_angle_gamma   90.00000000
_symmetry_Int_Tables_number   1
_chemical_formula_structural   Li4Ti4Mn(Fe2O9)2
_chemical_formula_sum   'Li8 Ti8 Mn2 Fe8 O36'
_cell_volume   688.44933400
_cell_formula_units_Z   2
loop_
 _symmetry_equiv_pos_site_id
 _symmetry_equiv_pos_as_xyz
  1  'x, y, z'
loop_
 _atom_site_type_symbol
 _atom_site_label
 _atom_site_symmetry_multiplicity
 _atom_site_fract_x
 _atom_site_fract_y
 _atom_site_fract_z
 _atom_site_occupancy
  Li  Li0  1  0.00000000  0.69381700  0.48937400  1
  Li  Li1  1  0.00000000  0.69599900  0.69089400  1
  Li  Li2  1  0.00000000  0.80400100  0.19089400  1
  Li  Li3  1  0.00000000  0.80618300  0.98937400  1
  Li  Li4  1  0.00000000  0.19381700  0.01062600  1
  Li  Li5  1  0.00000000  0.19599900  0.80910600  1
  Li  Li6  1  0.00000000  0.30400100  0.30910600  1
  Li  Li7  1  0.00000000  0.30618300  0.51062600  1
  Ti  Ti0  1  0.00000000  0.50561000  0.59982700  1
  Ti  Ti1  1  0.50000000  0.65254400  0.30964800  1
  Ti  Ti2  1  0.50000000  0.84745600  0.80964800  1
  Ti  Ti3  1  0.00000000  0.99439000  0.09982700  1
  Ti  Ti4  1  0.00000000  0.00561000  0.90017300  1
  Ti  Ti5  1  0.50000000  0.15254400  0.19035200  1
  Ti  Ti6  1  0.50000000  0.34745600  0.69035200  1
  Ti  Ti7  1  0.00000000  0.49439000  0.40017300  1
  Mn  Mn0  1  0.00000000  0.50000000  0.00000000  1
  Mn  Mn1  1  0.00000000  0.00000000  0.50000000  1
  Fe  Fe0  1  0.00000000  0.50620500  0.80541100  1
  Fe  Fe1  1  0.50000000  0.64396500  0.08773100  1
  Fe  Fe2  1  0.50000000  0.85603500  0.58773100  1
  Fe  Fe3  1  0.00000000  0.99379500  0.30541100  1
  Fe  Fe4  1  0.00000000  0.00620500  0.69458900  1
  Fe  Fe5  1  0.50000000  0.14396500  0.41226900  1
  Fe  Fe6  1  0.50000000  0.35603500  0.91226900  1
  Fe  Fe7  1  0.00000000  0.49379500  0.19458900  1
  O  O0  1  0.00000000  0.49732000  0.92436100  1
  O  O1  1  0.00000000  0.50268000  0.07563900  1
  O  O2  1  0.50000000  0.55895700  0.44293300  1
  O  O3  1  0.50000000  0.54932000  0.65607300  1
  O  O4  1  0.50000000  0.62094000  0.16592200  1
  O  O5  1  0.00000000  0.59644500  0.26125300  1
  O  O6  1  0.50000000  0.64112600  0.00401700  1
  O  O7  1  0.50000000  0.64563300  0.78880900  1
  O  O8  1  0.00000000  0.68357100  0.35763900  1
  O  O9  1  0.00000000  0.70250900  0.58098100  1
  O  O10  1  0.00000000  0.79749100  0.08098100  1
  O  O11  1  0.00000000  0.81642900  0.85763900  1
  O  O12  1  0.50000000  0.85436700  0.28880900  1
  O  O13  1  0.50000000  0.85887400  0.50401700  1
  O  O14  1  0.00000000  0.90355500  0.76125300  1
  O  O15  1  0.50000000  0.87906000  0.66592200  1
  O  O16  1  0.50000000  0.95068000  0.15607300  1
  O  O17  1  0.50000000  0.94104300  0.94293300  1
  O  O18  1  0.00000000  0.99732000  0.57563900  1
  O  O19  1  0.00000000  0.00268000  0.42436100  1
  O  O20  1  0.50000000  0.05895700  0.05706700  1
  O  O21  1  0.50000000  0.04932000  0.84392700  1
  O  O22  1  0.50000000  0.12094000  0.33407800  1
  O  O23  1  0.00000000  0.09644500  0.23874700  1
  O  O24  1  0.50000000  0.14112600  0.49598300  1
  O  O25  1  0.50000000  0.14563300  0.71119100  1
  O  O26  1  0.00000000  0.18357100  0.14236100  1
  O  O27  1  0.00000000  0.20250900  0.91901900  1
  O  O28  1  0.00000000  0.29749100  0.41901900  1
  O  O29  1  0.00000000  0.31642900  0.64236100  1
  O  O30  1  0.50000000  0.35436700  0.21119100  1
  O  O31  1  0.50000000  0.35887400  0.99598300  1
  O  O32  1  0.00000000  0.40355500  0.73874700  1
  O  O33  1  0.50000000  0.37906000  0.83407800  1
  O  O34  1  0.50000000  0.45068000  0.34392700  1
  O  O35  1  0.50000000  0.44104300  0.55706700  1
loop_
_geom_bond_atom_site_label_1
_geom_bond_atom_site_label_2
_geom_bond_distance
_geom_bond_site_symmetry_2
Li0 O13 2.146319 1_455
Li0 O13 2.146319 1_555
Li0 O2 2.257869 1_455
Li0 O2 2.257869 1_555
Li0 O9 2.332469 1_555
Li1 O3 2.183606 1_555
Li1 O3 2.183606 1_455
Li1 O15 2.324234 1_455
Li1 O15 2.324234 1_555
Li2 O16 2.183606 1_555
Li2 O16 2.183606 1_455
Li2 O4 2.324234 1_555
Li2 O4 2.324234 1_455
Li3 O6 2.146319 1_456
Li3 O6 2.146319 1_556
Li3 O17 2.257869 1_455
Li3 O17 2.257869 1_555
Li3 O10 2.332469 1_556
Li4 O31 2.146319 1_454
Li4 O31 2.146319 1_554
Li4 O20 2.257869 1_555
Li4 O20 2.257869 1_455
Li4 O27 2.332469 1_554
Li5 O21 2.183606 1_555
Li5 O21 2.183606 1_455
Li5 O33 2.324234 1_455
Li5 O33 2.324234 1_555
Li6 O34 2.183606 1_455
Li6 O34 2.183606 1_555
Li6 O22 2.324234 1_455
Li6 O22 2.324234 1_555
Li7 O24 2.146319 1_555
Li7 O24 2.146319 1_455
Li7 O35 2.257869 1_455
Li7 O35 2.257869 1_555
Li7 O28 2.332469 1_555
Mn0 O1 1.924922 1_555
Mn0 O0 1.924922 1_554
Mn0 O31 1.964228 1_454
Mn0 O31 1.964228 1_554
Mn0 O6 1.964228 1_455
Mn0 O6 1.964228 1_555
Mn1 O19 1.924922 1_555
Mn1 O18 1.924922 1_545
Mn1 O13 1.964228 1_445
Mn1 O24 1.964228 1_455
Mn1 O13 1.964228 1_545
Mn1 O24 1.964228 1_555
Fe0 O32 1.941506 1_555
Fe0 O7 1.996473 1_455
Fe0 O7 1.996473 1_555
Fe0 O33 2.015556 1_555
Fe0 O33 2.015556 1_455
Fe1 O1 1.986510 1_555
Fe1 O1 1.986510 1_655
Fe1 O4 2.000947 1_555
Fe1 O10 2.046083 1_555
Fe1 O10 2.046083 1_655
Fe1 O6 2.130407 1_555
Fe2 O18 1.986510 1_655
Fe2 O18 1.986510 1_555
Fe2 O15 2.000947 1_555
Fe2 O9 2.046083 1_655
Fe2 O9 2.046083 1_555
Fe2 O13 2.130407 1_555
Fe3 O23 1.941506 1_565
Fe3 O12 1.996473 1_555
Fe3 O12 1.996473 1_455
Fe3 O22 2.015556 1_465
Fe3 O22 2.015556 1_565
Fe4 O14 1.941506 1_545
Fe4 O25 1.996473 1_455
Fe4 O25 1.996473 1_555
Fe4 O15 2.015556 1_445
Fe4 O15 2.015556 1_545
Fe5 O19 1.986510 1_555
Fe5 O19 1.986510 1_655
Fe5 O22 2.000947 1_555
Fe5 O28 2.046083 1_555
Fe5 O28 2.046083 1_655
Fe5 O24 2.130407 1_555
Fe6 O0 1.986510 1_555
Fe6 O0 1.986510 1_655
Fe6 O33 2.000947 1_555
Fe6 O27 2.046083 1_655
Fe6 O27 2.046083 1_555
Fe6 O31 2.130407 1_555
Fe7 O5 1.941506 1_555
Fe7 O30 1.996473 1_455
Fe7 O30 1.996473 1_555
Fe7 O4 2.015556 1_455
Fe7 O4 2.015556 1_555
O2 Ti7 1.923277 1_555
O2 Ti7 1.923277 1_655
O3 Ti6 2.051694 1_555
O3 Ti0 2.091043 1_655
O3 Ti0 2.091043 1_555
O5 Ti1 1.986236 1_555
O5 Ti1 1.986236 1_455
O7 Ti2 1.930897 1_555
O8 Ti1 1.932629 1_455
O8 Ti1 1.932629 1_555
O8 Ti7 2.049468 1_555
O9 Ti0 1.873765 1_555
O10 Ti3 1.873765 1_555
O11 Ti2 1.932629 1_455
O11 Ti2 1.932629 1_555
O11 Ti4 2.049468 1_565
O12 Ti1 1.930897 1_555
O14 Ti2 1.986236 1_455
O14 Ti2 1.986236 1_555
O16 Ti5 2.051694 1_565
O16 Ti3 2.091043 1_555
O16 Ti3 2.091043 1_655
O17 Ti4 1.923277 1_565
O17 Ti4 1.923277 1_665
O20 Ti3 1.923277 1_645
O20 Ti3 1.923277 1_545
O21 Ti2 2.051694 1_545
O21 Ti4 2.091043 1_655
O21 Ti4 2.091043 1_555
O23 Ti5 1.986236 1_455
O23 Ti5 1.986236 1_555
O25 Ti6 1.930897 1_555
O26 Ti5 1.932629 1_555
O26 Ti5 1.932629 1_455
O26 Ti3 2.049468 1_545
O27 Ti4 1.873765 1_555
O28 Ti7 1.873765 1_555
O29 Ti6 1.932629 1_455
O29 Ti6 1.932629 1_555
O29 Ti0 2.049468 1_555
O30 Ti5 1.930897 1_555
O32 Ti6 1.986236 1_555
O32 Ti6 1.986236 1_455
O34 Ti1 2.051694 1_555
O34 Ti7 2.091043 1_555
O34 Ti7 2.091043 1_655
O35 Ti0 1.923277 1_555
O35 Ti0 1.923277 1_655
