# generated using pymatgen
data_Fe3O5F
_symmetry_space_group_name_H-M   'P 1'
_cell_length_a   5.52665500
_cell_length_b   5.52980545
_cell_length_c   7.21268468
_cell_angle_alpha   71.85061282
_cell_angle_beta   71.71062211
_cell_angle_gamma   72.85363806
_symmetry_Int_Tables_number   1
_chemical_formula_structural   Fe3O5F
_chemical_formula_sum   'Fe6 O10 F2'
_cell_volume   194.07939937
_cell_formula_units_Z   2
loop_
 _symmetry_equiv_pos_site_id
 _symmetry_equiv_pos_as_xyz
  1  'x, y, z'
loop_
 _atom_site_type_symbol
 _atom_site_label
 _atom_site_symmetry_multiplicity
 _atom_site_fract_x
 _atom_site_fract_y
 _atom_site_fract_z
 _atom_site_occupancy
  Fe  Fe0  1  0.33118700  0.34715000  0.15963700  1
  Fe  Fe1  1  0.68425800  0.64202000  0.33258300  1
  Fe  Fe2  1  0.33837700  0.34665100  0.67012100  1
  Fe  Fe3  1  0.66662000  0.67116700  0.83589200  1
  Fe  Fe4  1  0.97908600  0.99366200  0.49611500  1
  Fe  Fe5  1  0.99592300  0.00475300  0.00811900  1
  O  O0  1  0.02249500  0.64065400  0.67167900  1
  O  O1  1  0.77035800  0.76856900  0.04225300  1
  O  O2  1  0.43791600  0.43452500  0.37244400  1
  O  O3  1  0.22765600  0.23501100  0.96124800  1
  O  O4  1  0.57449500  0.57161800  0.62254900  1
  O  O5  1  0.89117900  0.88557600  0.29993000  1
  O  O6  1  0.62930700  0.02676000  0.67621200  1
  O  O7  1  0.98375900  0.34353900  0.33208500  1
  O  O8  1  0.31017800  0.70670000  0.99144100  1
  O  O9  1  0.69429700  0.31388200  0.99597100  1
  F  F0  1  0.36211700  0.96480900  0.33430300  1
  F  F1  1  0.10079400  0.10295400  0.69741900  1
loop_
_geom_bond_atom_site_label_1
_geom_bond_atom_site_label_2
_geom_bond_distance
_geom_bond_site_symmetry_2
Fe0 O7 1.934552 1_455
Fe0 O9 1.971121 1_554
Fe0 O8 1.971782 1_554
Fe0 O3 2.008810 1_554
Fe0 O2 2.033625 1_555
Fe1 O5 1.928380 1_555
Fe1 O2 1.929412 1_555
Fe1 O4 1.931156 1_555
Fe1 O1 1.938871 1_555
Fe1 O7 1.962955 1_555
Fe2 O3 1.942537 1_555
Fe2 O4 1.943821 1_555
Fe2 O2 1.978613 1_555
Fe2 O0 2.004137 1_555
Fe2 O6 2.008780 1_555
Fe3 O8 1.923519 1_555
Fe3 O6 1.932523 1_565
Fe3 O0 1.940712 1_655
Fe3 O9 1.942026 1_555
Fe3 O1 2.012783 1_556
Fe3 O4 2.028496 1_555
Fe4 O5 1.930062 1_555
Fe4 O7 1.930779 1_565
Fe4 O6 1.954796 1_565
Fe4 O0 1.961168 1_655
Fe5 O5 1.948192 1_545
Fe5 O3 1.948678 1_654
Fe5 O1 1.971673 1_545
Fe5 O9 2.006691 1_554
Fe5 O8 2.012940 1_644
F0 Fe4 2.057908 1_455
F0 Fe0 2.085464 1_565
F0 Fe1 2.117097 1_555
F1 Fe5 2.065199 1_456
F1 Fe2 2.072345 1_555
F1 Fe4 2.079704 1_445
