# generated using pymatgen
data_Li2V3SbO8
_symmetry_space_group_name_H-M   'P 1'
_cell_length_a   6.00090345
_cell_length_b   9.77255661
_cell_length_c   6.01212813
_cell_angle_alpha   89.83178507
_cell_angle_beta   60.09704462
_cell_angle_gamma   89.91359168
_symmetry_Int_Tables_number   1
_chemical_formula_structural   Li2V3SbO8
_chemical_formula_sum   'Li4 V6 Sb2 O16'
_cell_volume   305.63682653
_cell_formula_units_Z   2
loop_
 _symmetry_equiv_pos_site_id
 _symmetry_equiv_pos_as_xyz
  1  'x, y, z'
loop_
 _atom_site_type_symbol
 _atom_site_label
 _atom_site_symmetry_multiplicity
 _atom_site_fract_x
 _atom_site_fract_y
 _atom_site_fract_z
 _atom_site_occupancy
  Li  Li0  1  0.33315100  0.90346000  0.33337200  1
  Li  Li1  1  0.66665600  0.40316900  0.66603900  1
  Li  Li2  1  0.00025600  0.99144400  0.99866900  1
  Li  Li3  1  0.00037600  0.49021900  0.00001800  1
  V  V0  1  0.17038000  0.21380400  0.65755700  1
  V  V1  1  0.82929900  0.71421600  0.82980900  1
  V  V2  1  0.34102400  0.71421000  0.82984000  1
  V  V3  1  0.65829200  0.21461400  0.17102900  1
  V  V4  1  0.17126200  0.21425900  0.16979900  1
  V  V5  1  0.82939000  0.71452500  0.34133900  1
  Sb  Sb0  1  0.33309900  0.48774400  0.33570700  1
  Sb  Sb1  1  0.66657500  0.98781800  0.66689100  1
  O  O0  1  0.33372100  0.10752200  0.33336900  1
  O  O1  1  0.66680500  0.60807600  0.66697000  1
  O  O2  1  0.00083400  0.30452000  0.99884500  1
  O  O3  1  0.99993300  0.80708800  0.00006800  1
  O  O4  1  0.66823400  0.59296500  0.16586100  1
  O  O5  1  0.16578900  0.59245600  0.16660000  1
  O  O6  1  0.83537500  0.09321400  0.33090700  1
  O  O7  1  0.16581400  0.59288100  0.66894700  1
  O  O8  1  0.83161700  0.09253200  0.83488800  1
  O  O9  1  0.33156000  0.09288500  0.83112800  1
  O  O10  1  0.47929200  0.34527500  0.03767700  1
  O  O11  1  0.48500400  0.34729700  0.47945600  1
  O  O12  1  0.03688000  0.34551600  0.48563400  1
  O  O13  1  0.96326700  0.84537600  0.51833100  1
  O  O14  1  0.51843600  0.84583500  0.51831700  1
  O  O15  1  0.51797400  0.84491800  0.96293400  1
loop_
_geom_bond_atom_site_label_1
_geom_bond_atom_site_label_2
_geom_bond_distance
_geom_bond_site_symmetry_2
Li0 O0 1.994215 1_565
Li0 O14 2.004213 1_555
Li0 O13 2.006151 1_455
Li0 O15 2.014992 1_554
Li1 O11 1.992323 1_555
Li1 O1 2.002492 1_555
Li1 O12 2.006715 1_655
Li1 O10 2.016485 1_556
Li2 O3 1.801624 1_456
Li2 O9 1.988306 1_565
Li2 O8 1.988578 1_465
Li2 O6 1.999024 1_466
Li3 O2 1.814781 1_554
Li3 O7 1.993747 1_554
Li3 O5 1.996659 1_555
Li3 O4 1.998341 1_455
O0 V0 1.985540 1_555
O0 V3 1.986513 1_555
O0 V4 1.988058 1_555
O1 V1 1.986469 1_555
O1 V2 1.986886 1_555
O1 V5 1.988327 1_555
O2 V4 1.980004 1_556
O2 V3 1.986798 1_456
O2 V0 1.989399 1_555
O3 V2 1.992999 1_654
O3 V1 1.993325 1_554
O3 V5 1.993396 1_555
O4 Sb0 2.024137 1_555
O4 V1 2.112481 1_554
O4 V5 2.118393 1_555
O5 Sb0 2.024209 1_555
O5 V5 2.118359 1_455
O5 V2 2.118382 1_554
O6 Sb1 2.029300 1_545
O6 V4 2.110471 1_655
O6 V3 2.113910 1_555
O7 Sb0 2.020150 1_555
O7 V1 2.114599 1_455
O7 V2 2.114615 1_555
O8 Sb1 2.013638 1_545
O8 V3 2.122248 1_556
O8 V0 2.124310 1_655
O9 Sb1 2.022719 1_545
O9 V0 2.101558 1_555
O9 V4 2.129773 1_556
O10 V4 2.055303 1_555
O10 V3 2.067742 1_555
O10 Sb0 2.088607 1_555
O11 Sb0 2.058264 1_555
O11 V3 2.070883 1_555
O11 V0 2.096810 1_555
O12 V0 2.044912 1_555
O12 Sb0 2.075262 1_555
O12 V4 2.094203 1_555
O13 V5 2.067943 1_555
O13 V1 2.069781 1_555
O13 Sb1 2.078377 1_555
O14 V5 2.069289 1_555
O14 V2 2.073096 1_555
O14 Sb1 2.077533 1_555
O15 V2 2.063185 1_555
O15 V1 2.066465 1_555
O15 Sb1 2.078443 1_555
