# generated using pymatgen
data_Li2MnV(P2O7)2
_symmetry_space_group_name_H-M   'P 1'
_cell_length_a   9.61145166
_cell_length_b   9.61491863
_cell_length_c   7.15811431
_cell_angle_alpha   79.51001535
_cell_angle_beta   79.54227540
_cell_angle_gamma   119.31362735
_symmetry_Int_Tables_number   1
_chemical_formula_structural   Li2MnV(P2O7)2
_chemical_formula_sum   'Li4 Mn2 V2 P8 O28'
_cell_volume   538.16214352
_cell_formula_units_Z   2
loop_
 _symmetry_equiv_pos_site_id
 _symmetry_equiv_pos_as_xyz
  1  'x, y, z'
loop_
 _atom_site_type_symbol
 _atom_site_label
 _atom_site_symmetry_multiplicity
 _atom_site_fract_x
 _atom_site_fract_y
 _atom_site_fract_z
 _atom_site_occupancy
  Li  Li0  1  0.07052300  0.43182000  0.32504100  1
  Li  Li1  1  0.31927100  0.18069000  0.67427000  1
  Li  Li2  1  0.56713000  0.92844000  0.32572800  1
  Li  Li3  1  0.82017400  0.68085600  0.67592400  1
  Mn  Mn0  1  0.25771700  0.25721600  0.26994500  1
  Mn  Mn1  1  0.99191200  0.49006500  0.73071200  1
  V  V0  1  0.75767200  0.75695800  0.27178600  1
  V  V1  1  0.49397900  0.99424700  0.72752000  1
  P  P0  1  0.35058500  0.52966500  0.51845100  1
  P  P1  1  0.85097200  0.03017900  0.52176000  1
  P  P2  1  0.66697300  0.45492900  0.08709700  1
  P  P3  1  0.17242500  0.95543100  0.08844700  1
  P  P4  1  0.29403400  0.58025100  0.91092000  1
  P  P5  1  0.79527600  0.07950400  0.91365000  1
  P  P6  1  0.21910400  0.89768200  0.48336700  1
  P  P7  1  0.72154300  0.40150000  0.47699100  1
  O  O0  1  0.19107500  0.12467300  0.08462800  1
  O  O1  1  0.01710200  0.19360900  0.39185900  1
  O  O2  1  0.20191000  0.04332100  0.50521400  1
  O  O3  1  0.27892700  0.48156900  0.11237900  1
  O  O4  1  0.48275000  0.30991400  0.15013100  1
  O  O5  1  0.33695100  0.37110300  0.48091600  1
  O  O6  1  0.20512400  0.54561600  0.49491900  1
  O  O7  1  0.70017300  0.04321800  0.50667200  1
  O  O8  1  0.55748300  0.23473200  0.60443200  1
  O  O9  1  0.05553700  0.72862900  0.60929700  1
  O  O10  1  0.62751300  0.06027400  0.91612000  1
  O  O11  1  0.12519900  0.56170900  0.91123200  1
  O  O12  1  0.34428000  0.49923200  0.75092100  1
  O  O13  1  0.75012000  0.40474000  0.24623100  1
  O  O14  1  0.25050000  0.90439000  0.25056600  1
  O  O15  1  0.68648500  0.62357000  0.08757100  1
  O  O16  1  0.51986300  0.69372300  0.39571000  1
  O  O17  1  0.70850900  0.55131400  0.49229900  1
  O  O18  1  0.87876800  0.41583600  0.51797600  1
  O  O19  1  0.37898400  0.91547600  0.51782900  1
  O  O20  1  0.93888900  0.26325300  0.85570000  1
  O  O21  1  0.43798100  0.76461200  0.84625700  1
  O  O22  1  0.27679700  0.97070000  0.88825200  1
  O  O23  1  0.76639400  0.47116500  0.88581700  1
  O  O24  1  0.77876100  0.97458300  0.11353100  1
  O  O25  1  0.98910200  0.81458300  0.14705400  1
  O  O26  1  0.83339600  0.87146400  0.48254200  1
  O  O27  1  0.84655600  0.99914100  0.75233300  1
loop_
_geom_bond_atom_site_label_1
_geom_bond_atom_site_label_2
_geom_bond_distance
_geom_bond_site_symmetry_2
Li0 O6 2.004750 1_555
Li0 O18 2.012234 1_455
Li0 O1 2.024519 1_555
Li0 O3 2.061094 1_555
Li1 O5 1.995905 1_555
Li1 O8 2.021634 1_555
Li1 O2 2.024838 1_555
Li1 O22 2.104548 1_545
Li2 O19 1.997677 1_555
Li2 O16 2.013014 1_555
Li2 O7 2.066534 1_565
Li2 O24 2.095433 1_555
Li3 O9 2.016684 1_655
Li3 O26 2.018750 1_555
Li3 O23 2.045490 1_555
Li3 O17 2.056748 1_555
Mn0 O4 1.940533 1_555
Mn0 O0 1.979576 1_555
Mn0 O1 2.042566 1_555
Mn0 O5 2.064623 1_555
Mn0 O3 2.137035 1_555
Mn0 O2 2.164292 1_555
Mn1 O11 1.961219 1_655
Mn1 O20 1.962588 1_555
Mn1 O9 2.024442 1_655
Mn1 O18 2.061017 1_555
Mn1 O23 2.152025 1_555
Mn1 O6 2.162855 1_655
O0 P3 1.541824 1_545
O1 P1 1.534781 1_455
O2 P6 1.519730 1_545
O3 P4 1.513857 1_554
O4 P2 1.531779 1_555
O5 P0 1.542711 1_555
O6 P0 1.514132 1_555
O7 P1 1.535564 1_555
O7 V1 2.079986 1_545
O8 P7 1.535949 1_555
O8 V1 2.043609 1_545
O9 P6 1.541429 1_555
O10 P5 1.526766 1_555
O10 V1 2.004018 1_545
O11 P4 1.542843 1_555
O12 P0 1.620825 1_555
O12 P4 1.626098 1_555
O13 P7 1.616496 1_555
O13 P2 1.636155 1_555
O14 P3 1.618642 1_555
O14 P6 1.622166 1_555
O15 P2 1.539098 1_555
O15 V0 1.983901 1_555
O16 P0 1.539707 1_555
O16 V0 2.021813 1_555
O17 P7 1.527017 1_555
O17 V0 2.074191 1_555
O18 P7 1.536353 1_555
O19 P6 1.532009 1_555
O19 V1 2.060276 1_555
O20 P5 1.528434 1_555
O21 P4 1.529031 1_555
O21 V1 1.968247 1_555
O22 P3 1.529301 1_556
O22 V1 2.074346 1_555
O23 P2 1.511819 1_556
O24 P5 1.524854 1_564
O24 V0 2.083485 1_555
O25 P3 1.517533 1_655
O25 V0 1.985986 1_555
O26 P1 1.535220 1_565
O26 V0 2.058284 1_555
O27 P1 1.611745 1_565
O27 P5 1.632343 1_565
