# generated using pymatgen
data_ZnCoH18N6Cl5
_symmetry_space_group_name_H-M   'P 1'
_cell_length_a   7.82769100
_cell_length_b   8.27724200
_cell_length_c   21.69926900
_cell_angle_alpha   90.00000000
_cell_angle_beta   90.00000000
_cell_angle_gamma   90.00000000
_symmetry_Int_Tables_number   1
_chemical_formula_structural   ZnCoH18N6Cl5
_chemical_formula_sum   'Zn4 Co4 H72 N24 Cl20'
_cell_volume   1405.93236904
_cell_formula_units_Z   4
loop_
 _symmetry_equiv_pos_site_id
 _symmetry_equiv_pos_as_xyz
  1  'x, y, z'
loop_
 _atom_site_type_symbol
 _atom_site_label
 _atom_site_symmetry_multiplicity
 _atom_site_fract_x
 _atom_site_fract_y
 _atom_site_fract_z
 _atom_site_occupancy
  Zn  Zn0  1  0.25000000  0.86607000  0.09152600  1
  Zn  Zn1  1  0.25000000  0.63393000  0.59152600  1
  Zn  Zn2  1  0.75000000  0.13393000  0.90847400  1
  Zn  Zn3  1  0.75000000  0.36607000  0.40847400  1
  Co  Co0  1  0.25000000  0.88464400  0.35927400  1
  Co  Co1  1  0.25000000  0.61535600  0.85927400  1
  Co  Co2  1  0.75000000  0.11535600  0.64072600  1
  Co  Co3  1  0.75000000  0.38464400  0.14072600  1
  H  H0  1  0.25000000  0.73925900  0.25588400  1
  H  H1  1  0.25000000  0.76074100  0.75588400  1
  H  H2  1  0.75000000  0.26074100  0.74411600  1
  H  H3  1  0.75000000  0.23925900  0.24411600  1
  H  H4  1  0.14487600  0.62778800  0.30699500  1
  H  H5  1  0.35512400  0.87221200  0.80699500  1
  H  H6  1  0.64487600  0.37221200  0.69300500  1
  H  H7  1  0.85512400  0.12778800  0.19300500  1
  H  H8  1  0.85512400  0.37221200  0.69300500  1
  H  H9  1  0.64487600  0.12778800  0.19300500  1
  H  H10  1  0.35512400  0.62778800  0.30699500  1
  H  H11  1  0.14487600  0.87221200  0.80699500  1
  H  H12  1  0.95506600  0.77253300  0.38619000  1
  H  H13  1  0.54493400  0.72746700  0.88619000  1
  H  H14  1  0.45506600  0.22746700  0.61381000  1
  H  H15  1  0.04493400  0.27253300  0.11381000  1
  H  H16  1  0.04493400  0.22746700  0.61381000  1
  H  H17  1  0.45506600  0.27253300  0.11381000  1
  H  H18  1  0.54493400  0.77253300  0.38619000  1
  H  H19  1  0.95506600  0.72746700  0.88619000  1
  H  H20  1  0.05050900  0.83267000  0.45050200  1
  H  H21  1  0.44949100  0.66733000  0.95050200  1
  H  H22  1  0.55050900  0.16733000  0.54949800  1
  H  H23  1  0.94949100  0.33267000  0.04949800  1
  H  H24  1  0.94949100  0.16733000  0.54949800  1
  H  H25  1  0.55050900  0.33267000  0.04949800  1
  H  H26  1  0.44949100  0.83267000  0.45050200  1
  H  H27  1  0.05050900  0.66733000  0.95050200  1
  H  H28  1  0.10113100  0.65893800  0.41951800  1
  H  H29  1  0.39886900  0.84106200  0.91951800  1
  H  H30  1  0.60113100  0.34106200  0.58048200  1
  H  H31  1  0.89886900  0.15893800  0.08048200  1
  H  H32  1  0.89886900  0.34106200  0.58048200  1
  H  H33  1  0.60113100  0.15893800  0.08048200  1
  H  H34  1  0.39886900  0.65893800  0.41951800  1
  H  H35  1  0.10113100  0.84106200  0.91951800  1
  H  H36  1  0.11879200  0.02953400  0.26762000  1
  H  H37  1  0.38120800  0.47046600  0.76762000  1
  H  H38  1  0.61879200  0.97046600  0.73238000  1
  H  H39  1  0.88120800  0.52953400  0.23238000  1
  H  H40  1  0.88120800  0.97046600  0.73238000  1
  H  H41  1  0.61879200  0.52953400  0.23238000  1
  H  H42  1  0.38120800  0.02953400  0.26762000  1
  H  H43  1  0.11879200  0.47046600  0.76762000  1
  H  H44  1  0.02262400  0.08878000  0.33090800  1
  H  H45  1  0.47737600  0.41122000  0.83090800  1
  H  H46  1  0.52262400  0.91122000  0.66909200  1
  H  H47  1  0.97737600  0.58878000  0.16909200  1
  H  H48  1  0.97737600  0.91122000  0.66909200  1
  H  H49  1  0.52262400  0.58878000  0.16909200  1
  H  H50  1  0.47737600  0.08878000  0.33090800  1
  H  H51  1  0.02262400  0.41122000  0.83090800  1
  H  H52  1  0.97122100  0.91072400  0.30030400  1
  H  H53  1  0.52877900  0.58927600  0.80030400  1
  H  H54  1  0.47122100  0.08927600  0.69969600  1
  H  H55  1  0.02877900  0.41072400  0.19969600  1
  H  H56  1  0.02877900  0.08927600  0.69969600  1
  H  H57  1  0.47122100  0.41072400  0.19969600  1
  H  H58  1  0.52877900  0.91072400  0.30030400  1
  H  H59  1  0.97122100  0.58927600  0.80030400  1
  H  H60  1  0.35421500  0.14538900  0.40888400  1
  H  H61  1  0.14578500  0.35461100  0.90888400  1
  H  H62  1  0.85421500  0.85461100  0.59111600  1
  H  H63  1  0.64578500  0.64538900  0.09111600  1
  H  H64  1  0.64578500  0.85461100  0.59111600  1
  H  H65  1  0.85421500  0.64538900  0.09111600  1
  H  H66  1  0.14578500  0.14538900  0.40888400  1
  H  H67  1  0.35421500  0.35461100  0.90888400  1
  H  H68  1  0.25000000  0.03725000  0.46132500  1
  H  H69  1  0.25000000  0.46275000  0.96132500  1
  H  H70  1  0.75000000  0.96275000  0.53867500  1
  H  H71  1  0.75000000  0.53725000  0.03867500  1
  N  N0  1  0.25000000  0.70048000  0.30099600  1
  N  N1  1  0.25000000  0.79952000  0.80099600  1
  N  N2  1  0.75000000  0.29952000  0.69900400  1
  N  N3  1  0.75000000  0.20048000  0.19900400  1
  N  N4  1  0.07086000  0.77656400  0.40891900  1
  N  N5  1  0.42914000  0.72343600  0.90891900  1
  N  N6  1  0.57086000  0.22343600  0.59108100  1
  N  N7  1  0.92914000  0.27656400  0.09108100  1
  N  N8  1  0.92914000  0.22343600  0.59108100  1
  N  N9  1  0.57086000  0.27656400  0.09108100  1
  N  N10  1  0.42914000  0.77656400  0.40891900  1
  N  N11  1  0.07086000  0.72343600  0.90891900  1
  N  N12  1  0.07225300  0.98807900  0.30914400  1
  N  N13  1  0.42774700  0.51192100  0.80914400  1
  N  N14  1  0.57225300  0.01192100  0.69085600  1
  N  N15  1  0.92774700  0.48807900  0.19085600  1
  N  N16  1  0.92774700  0.01192100  0.69085600  1
  N  N17  1  0.57225300  0.48807900  0.19085600  1
  N  N18  1  0.42774700  0.98807900  0.30914400  1
  N  N19  1  0.07225300  0.51192100  0.80914400  1
  N  N20  1  0.25000000  0.07166800  0.41557100  1
  N  N21  1  0.25000000  0.42833200  0.91557100  1
  N  N22  1  0.75000000  0.92833200  0.58442900  1
  N  N23  1  0.75000000  0.57166800  0.08442900  1
  Cl  Cl0  1  0.25000000  0.59045300  0.05746400  1
  Cl  Cl1  1  0.25000000  0.90954700  0.55746400  1
  Cl  Cl2  1  0.75000000  0.40954700  0.94253600  1
  Cl  Cl3  1  0.75000000  0.09045300  0.44253600  1
  Cl  Cl4  1  0.00726700  0.87326900  0.15233300  1
  Cl  Cl5  1  0.49273300  0.62673100  0.65233300  1
  Cl  Cl6  1  0.50726700  0.12673100  0.84766700  1
  Cl  Cl7  1  0.99273300  0.37326900  0.34766700  1
  Cl  Cl8  1  0.99273300  0.12673100  0.84766700  1
  Cl  Cl9  1  0.50726700  0.37326900  0.34766700  1
  Cl  Cl10  1  0.49273300  0.87326900  0.15233300  1
  Cl  Cl11  1  0.00726700  0.62673100  0.65233300  1
  Cl  Cl12  1  0.25000000  0.03584300  0.01015700  1
  Cl  Cl13  1  0.25000000  0.46415700  0.51015700  1
  Cl  Cl14  1  0.75000000  0.96415700  0.98984300  1
  Cl  Cl15  1  0.75000000  0.53584300  0.48984300  1
  Cl  Cl16  1  0.25000000  0.23838100  0.19873400  1
  Cl  Cl17  1  0.25000000  0.26161900  0.69873400  1
  Cl  Cl18  1  0.75000000  0.76161900  0.80126600  1
  Cl  Cl19  1  0.75000000  0.73838100  0.30126600  1
loop_
_geom_bond_atom_site_label_1
_geom_bond_atom_site_label_2
_geom_bond_distance
_geom_bond_site_symmetry_2
Co0 N12 1.962684 1_555
Co0 N18 1.962684 1_555
Co0 N20 1.971992 1_565
Co0 N0 1.980629 1_555
Co0 N10 1.981696 1_555
Co0 N4 1.981696 1_555
Co1 N13 1.962684 1_555
Co1 N19 1.962684 1_555
Co1 N21 1.971992 1_555
Co1 N1 1.980629 1_555
Co1 N11 1.981696 1_555
Co1 N5 1.981696 1_555
Co2 N16 1.962684 1_555
Co2 N14 1.962684 1_555
Co2 N22 1.971992 1_545
Co2 N2 1.980629 1_555
Co2 N6 1.981696 1_555
Co2 N8 1.981696 1_555
Co3 N17 1.962684 1_555
Co3 N15 1.962684 1_555
Co3 N23 1.971992 1_555
Co3 N3 1.980629 1_555
Co3 N9 1.981696 1_555
Co3 N7 1.981696 1_555
H0 N0 1.030180 1_555
H1 N1 1.030180 1_555
H2 N2 1.030180 1_555
H3 N3 1.030180 1_555
H4 N0 1.027669 1_555
H5 N1 1.027669 1_555
H6 N2 1.027669 1_555
H7 N3 1.027669 1_555
H8 N2 1.027669 1_555
H9 N3 1.027669 1_555
H10 N0 1.027669 1_555
H11 N1 1.027669 1_555
H12 N4 1.032435 1_655
H13 N5 1.032435 1_555
H14 N6 1.032435 1_555
H15 N7 1.032435 1_455
H16 N8 1.032435 1_455
H17 N9 1.032435 1_555
H18 N10 1.032435 1_555
H19 N11 1.032435 1_655
H20 N4 1.027244 1_555
H21 N5 1.027244 1_555
H22 N6 1.027244 1_555
H23 N7 1.027244 1_555
H24 N8 1.027244 1_555
H25 N9 1.027244 1_555
H26 N10 1.027244 1_555
H27 N11 1.027244 1_555
H28 N4 1.028093 1_555
H29 N5 1.028093 1_555
H30 N6 1.028093 1_555
H31 N7 1.028093 1_555
H32 N8 1.028093 1_555
H33 N9 1.028093 1_555
H34 N10 1.028093 1_555
H35 N11 1.028093 1_555
H36 N12 1.030691 1_545
H37 N13 1.030691 1_555
H38 N14 1.030691 1_565
H39 N15 1.030691 1_555
H40 N16 1.030691 1_565
H41 N17 1.030691 1_555
H42 N18 1.030691 1_545
H43 N19 1.030691 1_555
H44 N12 1.033787 1_545
H45 N13 1.033787 1_555
H46 N14 1.033787 1_565
H47 N15 1.033787 1_555
H48 N16 1.033787 1_565
H49 N17 1.033787 1_555
H50 N18 1.033787 1_545
H51 N19 1.033787 1_555
H52 N12 1.035471 1_655
H53 N13 1.035471 1_555
H54 N14 1.035471 1_555
H55 N15 1.035471 1_455
H56 N16 1.035471 1_455
H57 N17 1.035471 1_555
H58 N18 1.035471 1_555
H59 N19 1.035471 1_655
H60 N20 1.029017 1_555
H61 N21 1.029017 1_555
H62 N22 1.029017 1_555
H63 N23 1.029017 1_555
H64 N22 1.029017 1_555
H65 N23 1.029017 1_555
H66 N20 1.029017 1_555
H67 N21 1.029017 1_555
H68 N20 1.032893 1_555
H69 N21 1.032893 1_555
H70 N22 1.032893 1_555
H71 N23 1.032893 1_555
Cl0 Zn0 2.398093 1_555
Cl1 Zn1 2.398093 1_555
Cl2 Zn2 2.398093 1_555
Cl3 Zn3 2.398093 1_555
Cl4 Zn0 2.314021 1_555
Cl5 Zn1 2.314021 1_555
Cl6 Zn2 2.314021 1_555
Cl7 Zn3 2.314021 1_555
Cl8 Zn2 2.314021 1_555
Cl9 Zn3 2.314021 1_555
Cl10 Zn0 2.314021 1_555
Cl11 Zn1 2.314021 1_555
Cl12 Zn0 2.256601 1_545
Cl13 Zn1 2.256601 1_555
Cl14 Zn2 2.256601 1_565
Cl15 Zn3 2.256601 1_555
