# generated using pymatgen
data_Li2MnH4(SO5)2
_symmetry_space_group_name_H-M   'P 1'
_cell_length_a   5.67962700
_cell_length_b   7.43265034
_cell_length_c   10.51011383
_cell_angle_alpha   101.08879097
_cell_angle_beta   99.25306180
_cell_angle_gamma   110.11677647
_symmetry_Int_Tables_number   1
_chemical_formula_structural   Li2MnH4(SO5)2
_chemical_formula_sum   'Li4 Mn2 H8 S4 O20'
_cell_volume   396.24228511
_cell_formula_units_Z   2
loop_
 _symmetry_equiv_pos_site_id
 _symmetry_equiv_pos_as_xyz
  1  'x, y, z'
loop_
 _atom_site_type_symbol
 _atom_site_label
 _atom_site_symmetry_multiplicity
 _atom_site_fract_x
 _atom_site_fract_y
 _atom_site_fract_z
 _atom_site_occupancy
  Li  Li0  1  0.15350300  0.23047500  0.37631900  1
  Li  Li1  1  0.18822700  0.26844200  0.91466800  1
  Li  Li2  1  0.81177300  0.73155800  0.08533200  1
  Li  Li3  1  0.84649700  0.76952500  0.62368100  1
  Mn  Mn0  1  0.50642100  0.02788100  0.75188900  1
  Mn  Mn1  1  0.49357900  0.97211900  0.24811100  1
  H  H0  1  0.59228200  0.41651300  0.81483100  1
  H  H1  1  0.32747600  0.31429700  0.70088000  1
  H  H2  1  0.38384800  0.62823500  0.62796300  1
  H  H3  1  0.48853000  0.68782900  0.78491500  1
  H  H4  1  0.51147000  0.31217100  0.21508500  1
  H  H5  1  0.61615200  0.37176500  0.37203700  1
  H  H6  1  0.67252400  0.68570300  0.29912000  1
  H  H7  1  0.40771800  0.58348700  0.18516900  1
  S  S0  1  0.84709100  0.23784600  0.07403100  1
  S  S1  1  0.14413900  0.77235800  0.43518000  1
  S  S2  1  0.85586100  0.22764200  0.56482000  1
  S  S3  1  0.15290900  0.76215400  0.92596900  1
  O  O0  1  0.79040400  0.10358400  0.93634200  1
  O  O1  1  0.42227400  0.30260900  0.78670100  1
  O  O2  1  0.11469200  0.38528300  0.09851300  1
  O  O3  1  0.53216300  0.72252900  0.70209100  1
  O  O4  1  0.29737700  0.64989300  0.43033000  1
  O  O5  1  0.15331600  0.87124600  0.32228000  1
  O  O6  1  0.83661400  0.11619900  0.17435800  1
  O  O7  1  0.13527900  0.34527700  0.57370800  1
  O  O8  1  0.23631000  0.93192800  0.56465200  1
  O  O9  1  0.34506800  0.66917700  0.91981400  1
  O  O10  1  0.65493200  0.33082300  0.08018600  1
  O  O11  1  0.76369000  0.06807200  0.43534800  1
  O  O12  1  0.86472100  0.65472300  0.42629200  1
  O  O13  1  0.16338600  0.88380100  0.82564200  1
  O  O14  1  0.84668400  0.12875400  0.67772000  1
  O  O15  1  0.70262300  0.35010700  0.56967000  1
  O  O16  1  0.46783700  0.27747100  0.29790900  1
  O  O17  1  0.88530800  0.61471700  0.90148700  1
  O  O18  1  0.57772600  0.69739100  0.21329900  1
  O  O19  1  0.20959600  0.89641600  0.06365800  1
loop_
_geom_bond_atom_site_label_1
_geom_bond_atom_site_label_2
_geom_bond_distance
_geom_bond_site_symmetry_2
Li0 O16 2.035523 1_555
Li0 O7 2.119333 1_555
Li0 O6 2.343647 1_455
Li0 O11 2.373855 1_455
Li0 O5 2.620331 1_545
Li1 O1 2.028432 1_555
Li1 O2 2.127366 1_556
Li1 O0 2.242108 1_455
Li2 O18 2.028432 1_555
Li2 O17 2.127366 1_554
Li2 O19 2.242108 1_655
Li3 O3 2.035523 1_555
Li3 O12 2.119333 1_555
Li3 O13 2.343647 1_655
Li3 O8 2.373855 1_655
Li3 O14 2.620331 1_565
Mn0 O8 2.114569 1_545
Mn0 O14 2.148768 1_555
Mn0 O0 2.151031 1_555
Mn0 O13 2.216616 1_545
Mn0 O1 2.229800 1_555
Mn0 O3 2.289588 1_545
Mn1 O11 2.114569 1_565
Mn1 O5 2.148768 1_555
Mn1 O19 2.151031 1_555
Mn1 O6 2.216616 1_565
Mn1 O18 2.229800 1_555
Mn1 O16 2.289588 1_565
H0 O1 0.993028 1_555
H1 O1 1.008543 1_555
H1 O7 1.689136 1_555
H2 O3 0.990242 1_555
H3 O3 0.998727 1_555
H4 O16 0.998727 1_555
H5 O16 0.990242 1_555
H6 O18 1.008543 1_555
H6 O12 1.689136 1_555
H7 O18 0.993028 1_555
O0 S0 1.505771 1_556
O2 S0 1.482294 1_455
O4 S1 1.459444 1_555
O5 S1 1.509953 1_555
O6 S0 1.510896 1_555
O7 S2 1.502723 1_455
O8 S1 1.501804 1_555
O9 S3 1.482298 1_555
O10 S0 1.482298 1_555
O11 S2 1.501804 1_555
O12 S1 1.502723 1_655
O13 S3 1.510896 1_555
O14 S2 1.509953 1_555
O15 S2 1.459444 1_555
O17 S3 1.482294 1_655
O19 S3 1.505771 1_554
