# generated using pymatgen
data_Li3Fe(PO4)2
_symmetry_space_group_name_H-M   'P 1'
_cell_length_a   4.73610061
_cell_length_b   10.23486423
_cell_length_c   5.93834200
_cell_angle_alpha   90.00003605
_cell_angle_beta   90.00000957
_cell_angle_gamma   90.47808441
_symmetry_Int_Tables_number   1
_chemical_formula_structural   Li3Fe(PO4)2
_chemical_formula_sum   'Li6 Fe2 P4 O16'
_cell_volume   287.84129008
_cell_formula_units_Z   2
loop_
 _symmetry_equiv_pos_site_id
 _symmetry_equiv_pos_as_xyz
  1  'x, y, z'
loop_
 _atom_site_type_symbol
 _atom_site_label
 _atom_site_symmetry_multiplicity
 _atom_site_fract_x
 _atom_site_fract_y
 _atom_site_fract_z
 _atom_site_occupancy
  Li  Li0  1  0.00000000  0.99999900  0.99999800  1
  Li  Li1  1  0.00000000  0.99999900  0.50000200  1
  Li  Li2  1  0.47862400  0.22007100  0.75000000  1
  Li  Li3  1  0.52137800  0.77992500  0.25000100  1
  Li  Li4  1  0.50000200  0.49999800  0.00000100  1
  Li  Li5  1  0.50000100  0.49999900  0.49999900  1
  Fe  Fe0  1  0.00806900  0.71989500  0.75000100  1
  Fe  Fe1  1  0.99193700  0.28012000  0.24999900  1
  P  P0  1  0.41236100  0.10020800  0.25000000  1
  P  P1  1  0.58764300  0.89978800  0.75000000  1
  P  P2  1  0.93274800  0.40680100  0.75000000  1
  P  P3  1  0.06724500  0.59319900  0.25000000  1
  O  O0  1  0.69295100  0.04171500  0.75000000  1
  O  O1  1  0.30705300  0.95828400  0.25000000  1
  O  O2  1  0.73926000  0.11236200  0.25000000  1
  O  O3  1  0.26074400  0.88763900  0.75000000  1
  O  O4  1  0.25323400  0.41123800  0.75000000  1
  O  O5  1  0.74676000  0.58876000  0.24999900  1
  O  O6  1  0.20274500  0.45233000  0.25000000  1
  O  O7  1  0.79725800  0.54767100  0.74999900  1
  O  O8  1  0.27018000  0.17372800  0.04667600  1
  O  O9  1  0.27018000  0.17372700  0.45332400  1
  O  O10  1  0.72981800  0.82627000  0.54667000  1
  O  O11  1  0.72981900  0.82627000  0.95333100  1
  O  O12  1  0.79992300  0.33738500  0.53884100  1
  O  O13  1  0.79992200  0.33738500  0.96115900  1
  O  O14  1  0.20007300  0.66261700  0.03884200  1
  O  O15  1  0.20007300  0.66261700  0.46115900  1
loop_
_geom_bond_atom_site_label_1
_geom_bond_atom_site_label_2
_geom_bond_distance
_geom_bond_site_symmetry_2
Li0 O0 2.123995 1_465
Li0 O1 2.124022 1_556
Li0 O11 2.199506 1_455
Li0 O8 2.199512 1_566
Li0 O3 2.252806 1_555
Li0 O2 2.252827 1_466
Li1 O0 2.123995 1_465
Li1 O1 2.124022 1_555
Li1 O9 2.199504 1_565
Li1 O10 2.199510 1_455
Li1 O3 2.252807 1_555
Li1 O2 2.252828 1_465
Li2 O8 2.072573 1_556
Li2 O9 2.072575 1_555
Li2 O0 2.096083 1_555
Li2 O4 2.236628 1_555
Li2 O13 2.301976 1_555
Li2 O12 2.301980 1_555
Li3 O10 2.072533 1_555
Li3 O11 2.072541 1_554
Li3 O1 2.096105 1_555
Li3 O5 2.236592 1_555
Li3 O15 2.301963 1_555
Li3 O14 2.301966 1_555
Li4 O5 2.092210 1_555
Li4 O4 2.092240 1_554
Li4 O6 2.100607 1_555
Li4 O7 2.100628 1_554
Li4 O13 2.209141 1_554
Li4 O14 2.209215 1_555
Li5 O5 2.092218 1_555
Li5 O4 2.092243 1_555
Li5 O6 2.100605 1_555
Li5 O7 2.100620 1_555
Li5 O12 2.209155 1_555
Li5 O15 2.209203 1_555
Fe0 O7 2.018552 1_455
Fe0 O14 2.030153 1_556
Fe0 O15 2.030157 1_555
Fe0 O3 2.084543 1_555
Fe0 O11 2.098536 1_455
Fe0 O10 2.098543 1_455
Fe1 O6 2.018420 1_655
Fe1 O13 2.030132 1_554
Fe1 O12 2.030140 1_555
Fe1 O2 2.084666 1_555
Fe1 O8 2.098582 1_655
Fe1 O9 2.098595 1_655
O0 P1 1.531900 1_545
O1 P0 1.531871 1_565
O2 P0 1.552181 1_555
O3 P1 1.552177 1_555
O4 P2 1.518154 1_455
O5 P3 1.518150 1_655
O6 P3 1.583031 1_555
O7 P2 1.583021 1_555
O8 P0 1.576687 1_555
O9 P0 1.576681 1_555
O10 P1 1.576692 1_555
O11 P1 1.576699 1_555
O12 P2 1.570153 1_555
O13 P2 1.570156 1_555
O14 P3 1.570164 1_555
O15 P3 1.570168 1_555
