# generated using pymatgen
data_V4(OF3)3
_symmetry_space_group_name_H-M   'P 1'
_cell_length_a   5.07338410
_cell_length_b   5.27693631
_cell_length_c   17.02791747
_cell_angle_alpha   89.09512121
_cell_angle_beta   98.19981239
_cell_angle_gamma   118.63651063
_symmetry_Int_Tables_number   1
_chemical_formula_structural   V4(OF3)3
_chemical_formula_sum   'V8 O6 F18'
_cell_volume   395.29110844
_cell_formula_units_Z   2
loop_
 _symmetry_equiv_pos_site_id
 _symmetry_equiv_pos_as_xyz
  1  'x, y, z'
loop_
 _atom_site_type_symbol
 _atom_site_label
 _atom_site_symmetry_multiplicity
 _atom_site_fract_x
 _atom_site_fract_y
 _atom_site_fract_z
 _atom_site_occupancy
  V  V0  1  0.75049813  0.37219696  0.12592647  1
  V  V1  1  0.74476530  0.89880123  0.62593254  1
  V  V2  1  0.52499175  0.72832922  0.25186439  1
  V  V3  1  0.52535866  0.24881498  0.75025037  1
  V  V4  1  0.21566252  0.09328292  0.37438635  1
  V  V5  1  0.21908330  0.61419447  0.87209620  1
  V  V6  1  0.98046457  0.01508262  0.00098613  1
  V  V7  1  0.97147981  0.47216234  0.50410267  1
  O  O0  1  0.78365323  0.19362713  0.56025718  1
  O  O1  1  0.84795555  0.20443427  0.04229691  1
  O  O2  1  0.84708609  0.90550580  0.33601146  1
  O  O3  1  0.85097257  0.42784597  0.83253739  1
  O  O4  1  0.65190206  0.53711268  0.20783907  1
  O  O5  1  0.65686606  0.05301959  0.70752700  1
  F  F0  1  0.32859629  0.14231590  0.08613141  1
  F  F1  1  0.76471545  0.67072787  0.05884190  1
  F  F2  1  0.73184479  0.06732894  0.19002649  1
  F  F3  1  0.34839746  0.96150261  0.29096369  1
  F  F4  1  0.31851874  0.66898042  0.58793981  1
  F  F5  1  0.34916752  0.48314705  0.78657412  1
  F  F6  1  0.17015053  0.60061752  0.16573574  1
  F  F7  1  0.16776062  0.09754516  0.66366945  1
  F  F8  1  0.18416526  0.28484573  0.46487500  1
  F  F9  1  0.27257416  0.43490735  0.31574063  1
  F  F10  1  0.72307013  0.57368829  0.68352780  1
  F  F11  1  0.81829633  0.71802250  0.53470837  1
  F  F12  1  0.17258408  0.78879734  0.96320549  1
  F  F13  1  0.66805101  0.33151721  0.41139058  1
  F  F14  1  0.27945512  0.96035806  0.81654617  1
  F  F15  1  0.23525422  0.31320849  0.93660930  1
  F  F16  1  0.22686092  0.79837682  0.44124423  1
  F  F17  1  0.66979378  0.83970056  0.91025770  1
loop_
_geom_bond_atom_site_label_1
_geom_bond_atom_site_label_2
_geom_bond_distance
_geom_bond_site_symmetry_2
O0 V7 1.689894 1_555
O0 V1 1.850344 1_545
O1 V6 1.657140 1_555
O1 V0 1.927764 1_555
O2 V4 1.673735 1_665
O2 V2 1.872834 1_555
O3 V5 1.676406 1_655
O3 V3 1.862912 1_555
O4 V2 1.667036 1_555
O4 V0 1.899376 1_555
O5 V3 1.692575 1_555
O5 V1 1.830800 1_545
F0 V0 1.906767 1_555
F0 V6 1.958568 1_455
F1 V0 1.910364 1_555
F1 V6 1.953262 1_565
F2 V0 1.901715 1_555
F2 V2 1.966333 1_545
F3 V4 1.925579 1_565
F3 V2 2.003149 1_555
F4 V1 1.917734 1_555
F4 V7 1.947742 1_455
F5 V5 1.943676 1_555
F5 V3 1.987964 1_555
F6 V0 1.897268 1_455
F6 V2 1.990265 1_555
F7 V1 1.894430 1_445
F7 V3 1.997066 1_555
F8 V4 1.922449 1_555
F8 V7 1.958651 1_455
F9 V2 1.914162 1_555
F9 V4 1.963902 1_555
F10 V1 1.927142 1_555
F10 V3 1.962459 1_555
F11 V7 1.913665 1_555
F11 V1 2.003829 1_555
F12 V5 1.915543 1_555
F12 V6 2.026935 1_466
F13 V7 1.913519 1_555
F13 V4 2.022874 1_555
F14 V3 1.917040 1_565
F14 V5 1.953742 1_555
F15 V6 1.935993 1_456
F15 V5 1.944277 1_555
F16 V4 1.931682 1_565
F16 V7 1.996799 1_455
F17 V6 1.918316 1_566
F17 V5 2.014801 1_555
