# generated using pymatgen
data_V2SiO4
_symmetry_space_group_name_H-M   'P 1'
_cell_length_a   5.91333744
_cell_length_b   5.91333744
_cell_length_c   5.91333744
_cell_angle_alpha   60.00000000
_cell_angle_beta   60.00000000
_cell_angle_gamma   60.00000000
_symmetry_Int_Tables_number   1
_chemical_formula_structural   V2SiO4
_chemical_formula_sum   'V4 Si2 O8'
_cell_volume   146.21199008
_cell_formula_units_Z   2
loop_
 _symmetry_equiv_pos_site_id
 _symmetry_equiv_pos_as_xyz
  1  'x, y, z'
loop_
 _atom_site_type_symbol
 _atom_site_label
 _atom_site_symmetry_multiplicity
 _atom_site_fract_x
 _atom_site_fract_y
 _atom_site_fract_z
 _atom_site_occupancy
  V  V0  1  0.62500000  0.12500000  0.62500000  1
  V  V1  1  0.62500000  0.62500000  0.12500000  1
  V  V2  1  0.12500000  0.62500000  0.62500000  1
  V  V3  1  0.62500000  0.62500000  0.62500000  1
  Si  Si0  1  0.25000000  0.25000000  0.25000000  1
  Si  Si1  1  0.00000000  0.00000000  0.00000000  1
  O  O0  1  0.36509900  0.36509900  0.36509900  1
  O  O1  1  0.90470400  0.36509900  0.36509900  1
  O  O2  1  0.36509900  0.90470400  0.36509900  1
  O  O3  1  0.36509900  0.36509900  0.90470400  1
  O  O4  1  0.88490100  0.34529600  0.88490100  1
  O  O5  1  0.88490100  0.88490100  0.34529600  1
  O  O6  1  0.34529600  0.88490100  0.88490100  1
  O  O7  1  0.88490100  0.88490100  0.88490100  1
loop_
_geom_bond_atom_site_label_1
_geom_bond_atom_site_label_2
_geom_bond_distance
_geom_bond_site_symmetry_2
O0 Si0 1.667170 1_555
O0 V1 2.176632 1_555
O0 V2 2.176632 1_555
O0 V0 2.176632 1_555
O1 Si0 1.667165 1_655
O1 V3 2.176632 1_555
O1 V1 2.176636 1_555
O1 V0 2.176636 1_555
O2 Si0 1.667165 1_565
O2 V3 2.176632 1_555
O2 V1 2.176636 1_555
O2 V2 2.176636 1_555
O3 Si0 1.667165 1_556
O3 V3 2.176632 1_555
O3 V2 2.176636 1_555
O3 V0 2.176636 1_555
O4 Si1 1.667165 1_656
O4 V3 2.176632 1_555
O4 V1 2.176636 1_556
O4 V2 2.176636 1_655
O5 Si1 1.667165 1_665
O5 V3 2.176632 1_555
O5 V0 2.176636 1_565
O5 V2 2.176636 1_655
O6 Si1 1.667165 1_566
O6 V3 2.176632 1_555
O6 V1 2.176636 1_556
O6 V0 2.176636 1_565
O7 Si1 1.667170 1_666
O7 V1 2.176632 1_556
O7 V0 2.176632 1_565
O7 V2 2.176632 1_655
