# generated using pymatgen
data_Na5(WO3)7
_symmetry_space_group_name_H-M   'P 1'
_cell_length_a   11.57957997
_cell_length_b   11.57957999
_cell_length_c   6.68398451
_cell_angle_alpha   78.91375324
_cell_angle_beta   78.91375391
_cell_angle_gamma   27.26934748
_symmetry_Int_Tables_number   1
_chemical_formula_structural   Na5(WO3)7
_chemical_formula_sum   'Na5 W7 O21'
_cell_volume   402.51259300
_cell_formula_units_Z   1
loop_
 _symmetry_equiv_pos_site_id
 _symmetry_equiv_pos_as_xyz
  1  'x, y, z'
loop_
 _atom_site_type_symbol
 _atom_site_label
 _atom_site_symmetry_multiplicity
 _atom_site_fract_x
 _atom_site_fract_y
 _atom_site_fract_z
 _atom_site_occupancy
  Na  Na0  1  0.71464402  0.71464410  0.85286496  1
  Na  Na1  1  0.42744094  0.42744083  0.71239937  1
  Na  Na2  1  0.00000004  -0.00000003  -0.00000002  1
  Na  Na3  1  0.28535592  0.28535592  0.14713508  1
  Na  Na4  1  0.57255914  0.57255908  0.28760058  1
  W  W0  1  0.85670078  0.85670078  0.92781039  1
  W  W1  1  0.28543706  0.28543699  0.63990494  1
  W  W2  1  0.71456296  0.71456286  0.36009513  1
  W  W3  1  -0.00000012  0.00000007  0.50000002  1
  W  W4  1  0.42776603  0.42776590  0.21590772  1
  W  W5  1  0.57223420  0.57223407  0.78409257  1
  W  W6  1  0.14329910  0.14329934  0.07218925  1
  O  O0  1  0.07339187  0.56841939  0.78920835  1
  O  O1  1  0.92660796  0.43158080  0.21079170  1
  O  O2  1  0.78518350  0.78518347  0.14017934  1
  O  O3  1  0.21481652  0.21481647  0.85982062  1
  O  O4  1  0.00000006  0.49999991  0.49999994  1
  O  O5  1  0.43158080  0.92660797  0.21079171  1
  O  O6  1  0.56841942  0.07339184  0.78920830  1
  O  O7  1  0.92917755  0.92917747  0.71630007  1
  O  O8  1  0.78185167  0.28726203  0.64393207  1
  O  O9  1  0.49999995  0.00000003  0.49999999  1
  O  O10  1  0.64060296  0.14599511  0.06671974  1
  O  O11  1  0.71273782  0.21814853  0.35606788  1
  O  O12  1  0.28726203  0.78185166  0.64393207  1
  O  O13  1  0.07082250  0.07082253  0.28370008  1
  O  O14  1  0.64288902  0.64288906  0.57236662  1
  O  O15  1  0.49999990  0.50000006  -0.00000003  1
  O  O16  1  0.14599508  0.64060295  0.06671974  1
  O  O17  1  0.85400476  0.35939716  0.93328032  1
  O  O18  1  0.35711098  0.35711097  0.42763334  1
  O  O19  1  0.21814854  0.71273783  0.35606790  1
  O  O20  1  0.35939703  0.85400484  0.93328027  1
loop_
_geom_bond_atom_site_label_1
_geom_bond_atom_site_label_2
_geom_bond_distance
_geom_bond_site_symmetry_2
Na0 O9 2.704810 1_565
Na0 O4 2.704811 1_655
Na0 O14 2.705790 1_555
Na0 O6 2.719923 1_565
Na0 O0 2.719924 1_655
Na0 O2 2.723033 1_556
Na0 O5 2.726177 1_556
Na0 O1 2.726177 1_556
Na0 O3 2.730069 1_565
Na0 O3 2.730070 1_655
Na0 O17 2.738074 1_555
Na0 O20 2.738074 1_555
Na1 O10 2.702188 1_556
Na1 O16 2.702189 1_556
Na1 O18 2.705657 1_555
Na1 O6 2.711360 1_555
Na1 O0 2.711360 1_555
Na1 O8 2.721669 1_555
Na1 O12 2.721670 1_555
Na1 O11 2.724084 1_555
Na1 O19 2.724085 1_555
Na1 O7 2.730136 1_545
Na1 O7 2.730136 1_455
Na1 O15 2.757615 1_556
Na2 O7 2.707873 1_444
Na2 O13 2.707874 1_555
Na2 O12 2.727612 1_544
Na2 O8 2.727612 1_454
Na2 O19 2.727613 1_545
Na2 O11 2.727613 1_455
Na2 O20 2.728600 1_544
Na2 O10 2.728601 1_455
Na2 O17 2.728601 1_454
Na2 O16 2.728601 1_545
Na2 O15 2.729657 1_545
Na2 O15 2.729658 1_455
Na3 O4 2.704809 1_555
Na3 O9 2.704809 1_555
Na3 O18 2.705790 1_555
Na3 O5 2.719923 1_545
Na3 O1 2.719924 1_455
Na3 O3 2.723034 1_554
Na3 O0 2.726178 1_554
Na3 O6 2.726178 1_554
Na3 O2 2.730069 1_455
Na3 O2 2.730069 1_545
Na3 O16 2.738074 1_555
Na3 O10 2.738074 1_555
Na4 O17 2.702188 1_554
Na4 O20 2.702188 1_554
Na4 O14 2.705657 1_555
Na4 O1 2.711359 1_555
Na4 O5 2.711360 1_555
Na4 O19 2.721668 1_555
Na4 O11 2.721668 1_555
Na4 O8 2.724085 1_555
Na4 O12 2.724085 1_555
Na4 O13 2.730135 1_655
Na4 O13 2.730136 1_565
Na4 O15 2.757616 1_555
O0 W0 1.924217 1_455
O0 W1 1.942748 1_555
O1 W6 1.924219 1_655
O1 W2 1.942746 1_555
O2 W0 1.923948 1_554
O2 W2 1.939683 1_555
O3 W6 1.923946 1_556
O3 W1 1.939682 1_555
O4 W2 1.915322 1_455
O4 W1 1.915322 1_555
O5 W6 1.924220 1_565
O5 W2 1.942746 1_555
O6 W0 1.924217 1_545
O6 W1 1.942747 1_555
O7 W3 1.928464 1_665
O7 W0 1.935684 1_555
O8 W3 1.931270 1_655
O8 W5 1.932294 1_555
O9 W1 1.915322 1_555
O9 W2 1.915323 1_545
O10 W4 1.930028 1_555
O10 W0 1.935543 1_544
O11 W3 1.931270 1_655
O11 W4 1.932291 1_555
O12 W3 1.931270 1_565
O12 W5 1.932295 1_555
O13 W3 1.928465 1_555
O13 W6 1.935685 1_555
O14 W5 1.908113 1_555
O14 W2 1.926011 1_555
O15 W4 1.948640 1_555
O15 W5 1.948640 1_554
O16 W4 1.930029 1_555
O16 W0 1.935542 1_454
O17 W5 1.930026 1_555
O17 W6 1.935541 1_656
O18 W4 1.908113 1_555
O18 W1 1.926013 1_555
O19 W3 1.931270 1_565
O19 W4 1.932292 1_555
O20 W5 1.930026 1_555
O20 W6 1.935542 1_566
