# generated using pymatgen
data_Li4Ti2Mn3Sn3O16
_symmetry_space_group_name_H-M   'P 1'
_cell_length_a   6.17065558
_cell_length_b   6.17065558
_cell_length_c   9.73753181
_cell_angle_alpha   89.14713117
_cell_angle_beta   89.14713117
_cell_angle_gamma   59.89084549
_symmetry_Int_Tables_number   1
_chemical_formula_structural   Li4Ti2Mn3Sn3O16
_chemical_formula_sum   'Li4 Ti2 Mn3 Sn3 O16'
_cell_volume   320.70025809
_cell_formula_units_Z   1
loop_
 _symmetry_equiv_pos_site_id
 _symmetry_equiv_pos_as_xyz
  1  'x, y, z'
loop_
 _atom_site_type_symbol
 _atom_site_label
 _atom_site_symmetry_multiplicity
 _atom_site_fract_x
 _atom_site_fract_y
 _atom_site_fract_z
 _atom_site_occupancy
  Li  Li0  1  0.67600700  0.67600700  0.89686300  1
  Li  Li1  1  0.98703200  0.98703200  0.98848800  1
  Li  Li2  1  0.99227000  0.99227000  0.49985800  1
  Li  Li3  1  0.33248200  0.33248200  0.39812400  1
  Ti  Ti0  1  0.67213900  0.67213900  0.49918100  1
  Ti  Ti1  1  0.34989000  0.34989000  0.98219500  1
  Mn  Mn0  1  0.82576200  0.82576200  0.21941200  1
  Mn  Mn1  1  0.66185100  0.17388900  0.71197500  1
  Mn  Mn2  1  0.17388900  0.66185100  0.71197500  1
  Sn  Sn0  1  0.82935500  0.33394100  0.21141200  1
  Sn  Sn1  1  0.33394100  0.82935500  0.21141200  1
  Sn  Sn2  1  0.17270000  0.17270000  0.71571600  1
  O  O0  1  0.83930700  0.33705700  0.59100800  1
  O  O1  1  0.51419600  0.51419600  0.34244000  1
  O  O2  1  0.65889700  0.65889700  0.09535300  1
  O  O3  1  0.00171900  0.00171900  0.31683600  1
  O  O4  1  0.99626100  0.99626100  0.80171800  1
  O  O5  1  0.33705700  0.83930700  0.59100800  1
  O  O6  1  0.95162400  0.52795200  0.33949800  1
  O  O7  1  0.52795200  0.95162400  0.33949800  1
  O  O8  1  0.15748300  0.15748300  0.09192200  1
  O  O9  1  0.82073800  0.82073800  0.58367800  1
  O  O10  1  0.47902400  0.04598500  0.84830000  1
  O  O11  1  0.04598500  0.47902400  0.84830000  1
  O  O12  1  0.33916400  0.33916400  0.60465100  1
  O  O13  1  0.66646400  0.15058800  0.09984800  1
  O  O14  1  0.48356900  0.48356900  0.86613800  1
  O  O15  1  0.15058800  0.66646400  0.09984800  1
loop_
_geom_bond_atom_site_label_1
_geom_bond_atom_site_label_2
_geom_bond_distance
_geom_bond_site_symmetry_2
Li0 O2 1.938312 1_556
Li0 O11 2.028302 1_655
Li0 O10 2.028302 1_565
Li0 O14 2.084601 1_555
Li1 O4 1.819661 1_555
Li1 O15 2.018195 1_656
Li1 O13 2.018195 1_566
Li1 O8 2.097611 1_666
Li2 O3 1.783311 1_665
Li2 O9 1.994864 1_555
Li2 O5 2.054680 1_655
Li2 O0 2.054680 1_565
Li3 O1 2.008447 1_555
Li3 O12 2.013559 1_555
Li3 O7 2.116444 1_545
Li3 O6 2.116444 1_455
Mn0 O6 1.969453 1_555
Mn0 O7 1.969453 1_555
Mn0 O13 2.080180 1_565
Mn0 O15 2.080180 1_655
Mn0 O3 2.121763 1_665
Mn0 O2 2.171987 1_555
Mn1 O4 1.994773 1_545
Mn1 O12 2.022353 1_555
Mn1 O10 2.115516 1_555
Mn1 O0 2.152388 1_555
Mn1 O14 2.245543 1_555
Mn1 O9 2.274156 1_545
Mn2 O4 1.994773 1_455
Mn2 O12 2.022353 1_555
Mn2 O11 2.115516 1_555
Mn2 O5 2.152388 1_555
Mn2 O14 2.245543 1_555
Mn2 O9 2.274156 1_455
O0 Ti0 1.992834 1_555
O0 Sn2 2.163306 1_655
O1 Sn0 2.108370 1_555
O1 Sn1 2.108370 1_555
O1 Ti0 2.295823 1_555
O2 Sn1 2.063051 1_555
O2 Sn0 2.063051 1_555
O3 Sn0 2.042047 1_455
O3 Sn1 2.042047 1_545
O4 Sn2 2.051105 1_665
O5 Ti0 1.992834 1_555
O5 Sn2 2.163306 1_565
O6 Sn0 2.129969 1_555
O6 Ti0 2.146046 1_555
O7 Sn1 2.129969 1_555
O7 Ti0 2.146046 1_555
O8 Sn1 2.096362 1_545
O8 Sn0 2.096362 1_455
O8 Ti1 2.302093 1_554
O9 Ti0 1.801968 1_555
O10 Ti1 2.096238 1_555
O10 Sn2 2.100200 1_555
O11 Ti1 2.096238 1_555
O11 Sn2 2.100200 1_555
O12 Sn2 2.066966 1_555
O13 Ti1 2.062852 1_554
O13 Sn0 2.163481 1_555
O14 Ti1 1.806987 1_555
O15 Ti1 2.062852 1_554
O15 Sn1 2.163481 1_555
