# generated using pymatgen
data_SrCd2H16(Cl3O4)2
_symmetry_space_group_name_H-M   'P 1'
_cell_length_a   8.06584400
_cell_length_b   9.90356005
_cell_length_c   12.03725730
_cell_angle_alpha   106.95825345
_cell_angle_beta   100.27165995
_cell_angle_gamma   88.49023080
_symmetry_Int_Tables_number   1
_chemical_formula_structural   SrCd2H16(Cl3O4)2
_chemical_formula_sum   'Sr2 Cd4 H32 Cl12 O16'
_cell_volume   904.65601432
_cell_formula_units_Z   2
loop_
 _symmetry_equiv_pos_site_id
 _symmetry_equiv_pos_as_xyz
  1  'x, y, z'
loop_
 _atom_site_type_symbol
 _atom_site_label
 _atom_site_symmetry_multiplicity
 _atom_site_fract_x
 _atom_site_fract_y
 _atom_site_fract_z
 _atom_site_occupancy
  Sr  Sr0  1  0.47303900  0.66444800  0.91541400  1
  Sr  Sr1  1  0.52696100  0.33555200  0.08458600  1
  Cd  Cd0  1  0.39059900  0.18331200  0.57012800  1
  Cd  Cd1  1  0.60940100  0.81668800  0.42987200  1
  Cd  Cd2  1  0.89545900  0.18680300  0.57487500  1
  Cd  Cd3  1  0.10454100  0.81319700  0.42512500  1
  H  H0  1  0.82168800  0.43930100  0.00745800  1
  H  H1  1  0.17831200  0.56069900  0.99254200  1
  H  H2  1  0.68200900  0.40824500  0.89445100  1
  H  H3  1  0.31799100  0.59175500  0.10554900  1
  H  H4  1  0.35112200  0.85335400  0.14659900  1
  H  H5  1  0.64887800  0.14664600  0.85340100  1
  H  H6  1  0.19100800  0.84836300  0.05271200  1
  H  H7  1  0.80899200  0.15163700  0.94728800  1
  H  H8  1  0.78597400  0.79657700  0.12018200  1
  H  H9  1  0.21402600  0.20342300  0.87981800  1
  H  H10  1  0.81329100  0.88585100  0.03724400  1
  H  H11  1  0.18670900  0.11414900  0.96275600  1
  H  H12  1  0.78021900  0.60174000  0.77587000  1
  H  H13  1  0.21978100  0.39826000  0.22413000  1
  H  H14  1  0.62810200  0.54889700  0.67444600  1
  H  H15  1  0.37189800  0.45110300  0.32555400  1
  H  H16  1  0.18658400  0.52321800  0.67762300  1
  H  H17  1  0.81341600  0.47678200  0.32237700  1
  H  H18  1  0.25542200  0.66974700  0.68216600  1
  H  H19  1  0.74457800  0.33025300  0.31783400  1
  H  H20  1  0.52136300  0.85282000  0.75163200  1
  H  H21  1  0.47863700  0.14718000  0.24836800  1
  H  H22  1  0.37984000  0.94260100  0.80645100  1
  H  H23  1  0.62016000  0.05739900  0.19354900  1
  H  H24  1  0.08212300  0.37554700  0.03923700  1
  H  H25  1  0.91787700  0.62445300  0.96076300  1
  H  H26  1  0.99914300  0.46226900  0.14430500  1
  H  H27  1  0.00085700  0.53773100  0.85569500  1
  H  H28  1  0.96132300  0.16645700  0.19367700  1
  H  H29  1  0.03867700  0.83354300  0.80632300  1
  H  H30  1  0.14567700  0.13867800  0.18731300  1
  H  H31  1  0.85432300  0.86132200  0.81268700  1
  Cl  Cl0  1  0.35050700  0.98109800  0.36472100  1
  Cl  Cl1  1  0.64949300  0.01890200  0.63527900  1
  Cl  Cl2  1  0.83203400  0.98911500  0.37599100  1
  Cl  Cl3  1  0.16796600  0.01088500  0.62400900  1
  Cl  Cl4  1  0.12453800  0.32380700  0.51468500  1
  Cl  Cl5  1  0.87546200  0.67619300  0.48531500  1
  Cl  Cl6  1  0.42962700  0.33514900  0.78993200  1
  Cl  Cl7  1  0.57037300  0.66485100  0.21006800  1
  Cl  Cl8  1  0.62433200  0.32902900  0.51932100  1
  Cl  Cl9  1  0.37566800  0.67097100  0.48067900  1
  Cl  Cl10  1  0.96241900  0.31759900  0.79126600  1
  Cl  Cl11  1  0.03758100  0.68240100  0.20873400  1
  O  O0  1  0.71252100  0.47495100  0.97471700  1
  O  O1  1  0.28747900  0.52504900  0.02528300  1
  O  O2  1  0.31351300  0.84373200  0.06233300  1
  O  O3  1  0.68648700  0.15626800  0.93766700  1
  O  O4  1  0.73068000  0.82497300  0.05123000  1
  O  O5  1  0.26932000  0.17502700  0.94877000  1
  O  O6  1  0.66173600  0.62008900  0.75156900  1
  O  O7  1  0.33826400  0.37991100  0.24843100  1
  O  O8  1  0.22553700  0.61664000  0.73256700  1
  O  O9  1  0.77446300  0.38336000  0.26743300  1
  O  O10  1  0.44666300  0.85921800  0.80830300  1
  O  O11  1  0.55333700  0.14078200  0.19169700  1
  O  O12  1  0.99441300  0.36869800  0.08423900  1
  O  O13  1  0.00558700  0.63130200  0.91576100  1
  O  O14  1  0.03418000  0.09421700  0.15560300  1
  O  O15  1  0.96582000  0.90578300  0.84439700  1
loop_
_geom_bond_atom_site_label_1
_geom_bond_atom_site_label_2
_geom_bond_distance
_geom_bond_site_symmetry_2
Cd0 Cl6 2.601486 1_555
Cd0 Cl4 2.619221 1_555
Cd0 Cl8 2.660864 1_555
Cd0 Cl0 2.662524 1_545
Cd0 Cl1 2.758347 1_555
Cd0 Cl3 2.790043 1_555
Cd1 Cl7 2.601486 1_555
Cd1 Cl5 2.619221 1_555
Cd1 Cl9 2.660864 1_555
Cd1 Cl1 2.662524 1_565
Cd1 Cl0 2.758347 1_555
Cd1 Cl2 2.790043 1_555
Cd2 Cl10 2.514212 1_555
Cd2 Cl2 2.589959 1_545
Cd2 Cl4 2.638743 1_655
Cd2 Cl8 2.660674 1_555
Cd2 Cl3 2.855171 1_655
Cd2 Cl1 2.936521 1_555
Cd3 Cl11 2.514212 1_555
Cd3 Cl3 2.589959 1_565
Cd3 Cl5 2.638743 1_455
Cd3 Cl9 2.660674 1_555
Cd3 Cl2 2.855171 1_455
Cd3 Cl0 2.936521 1_555
H0 O0 0.998163 1_554
H1 O1 0.998163 1_556
H2 O0 0.990922 1_555
H3 O1 0.990922 1_555
H4 O2 0.982534 1_555
H5 O3 0.982534 1_555
H6 O2 0.975587 1_555
H7 O3 0.975587 1_555
H8 O4 0.982049 1_555
H9 O5 0.982049 1_555
H10 O4 0.977865 1_555
H11 O5 0.977865 1_555
H12 O6 0.976753 1_555
H13 O7 0.976753 1_555
H14 O6 0.985377 1_555
H15 O7 0.985377 1_555
H16 O8 0.988129 1_555
H17 O9 0.988129 1_555
H18 O8 0.973536 1_555
H19 O9 0.973536 1_555
H20 O10 0.975574 1_555
H21 O11 0.975574 1_555
H22 O10 0.977715 1_555
H23 O11 0.977715 1_555
H24 O12 0.979371 1_455
H25 O13 0.979371 1_655
H26 O12 0.992040 1_555
H27 O13 0.992040 1_555
H28 O14 0.974601 1_655
H29 O15 0.974601 1_455
H30 O14 0.974039 1_555
H31 O15 0.974039 1_555
Cl6 Sr0 3.168238 1_555
Cl7 Sr1 3.168238 1_555
Cl10 H27 2.100940 1_655
Cl11 H26 2.100940 1_455
O0 Sr1 2.788361 1_556
O0 Sr0 2.803828 1_555
O1 Sr0 2.788361 1_554
O1 Sr1 2.803828 1_555
O2 Sr0 2.606759 1_554
O3 Sr1 2.606759 1_556
O4 Sr0 2.639111 1_554
O5 Sr1 2.639111 1_556
O6 Sr0 2.632315 1_555
O7 Sr1 2.632315 1_555
O8 Sr0 2.632234 1_555
O9 Sr1 2.632234 1_555
O10 Sr0 2.599937 1_555
O11 Sr1 2.599937 1_555
