# generated using pymatgen
data_Li4Mn3Fe(BO3)4
_symmetry_space_group_name_H-M   'P 1'
_cell_length_a   5.23594200
_cell_length_b   5.24916065
_cell_length_c   10.49638357
_cell_angle_alpha   91.01177163
_cell_angle_beta   90.77855432
_cell_angle_gamma   119.78245247
_symmetry_Int_Tables_number   1
_chemical_formula_structural   Li4Mn3Fe(BO3)4
_chemical_formula_sum   'Li4 Mn3 Fe1 B4 O12'
_cell_volume   250.25972869
_cell_formula_units_Z   1
loop_
 _symmetry_equiv_pos_site_id
 _symmetry_equiv_pos_as_xyz
  1  'x, y, z'
loop_
 _atom_site_type_symbol
 _atom_site_label
 _atom_site_symmetry_multiplicity
 _atom_site_fract_x
 _atom_site_fract_y
 _atom_site_fract_z
 _atom_site_occupancy
  Li  Li0  1  0.34784900  0.32133500  0.33189300  1
  Li  Li1  1  0.32137600  0.34882000  0.83181200  1
  Li  Li2  1  0.66196100  0.65339900  0.58305300  1
  Li  Li3  1  0.65115600  0.66214900  0.08288500  1
  Mn  Mn0  1  0.99353600  0.32620200  0.11790400  1
  Mn  Mn1  1  0.99790000  0.67663300  0.86716500  1
  Mn  Mn2  1  0.33052300  0.99596200  0.61495600  1
  Fe  Fe0  1  0.68280200  0.99573900  0.36762200  1
  B  B0  1  0.65850600  0.00268600  0.87412800  1
  B  B1  1  0.99682400  0.33492100  0.62303500  1
  B  B2  1  0.00309400  0.66128400  0.37377300  1
  B  B3  1  0.33376600  0.99414600  0.12582200  1
  O  O0  1  0.75431700  0.07111600  0.58047900  1
  O  O1  1  0.92946900  0.25307800  0.90442400  1
  O  O2  1  0.42098100  0.03305700  0.83237000  1
  O  O3  1  0.96297300  0.57761200  0.65361700  1
  O  O4  1  0.35791100  0.26774200  0.13972300  1
  O  O5  1  0.26995000  0.35829100  0.63814200  1
  O  O6  1  0.72852200  0.64033300  0.38755200  1
  O  O7  1  0.62914500  0.72829800  0.88885100  1
  O  O8  1  0.02112400  0.41494100  0.33588600  1
  O  O9  1  0.57760000  0.96176200  0.15686900  1
  O  O10  1  0.07071100  0.75165700  0.08297300  1
  O  O11  1  0.25740300  0.92823500  0.40126200  1
loop_
_geom_bond_atom_site_label_1
_geom_bond_atom_site_label_2
_geom_bond_distance
_geom_bond_site_symmetry_2
Li0 O6 1.932924 1_555
Li0 O8 2.001493 1_555
Li0 O11 2.025812 1_545
Li0 O4 2.036698 1_555
Li1 O7 1.914665 1_555
Li1 O2 1.969338 1_555
Li1 O1 2.018844 1_455
Li1 O5 2.051678 1_555
Li2 O3 1.947415 1_555
Li2 O5 1.962703 1_555
Li2 O0 1.997865 1_565
Li2 O6 2.091721 1_555
Li3 O9 1.947187 1_555
Li3 O4 1.977435 1_555
Li3 O10 2.005274 1_655
Li3 O7 2.083306 1_554
Mn0 O4 2.087750 1_655
Mn0 O10 2.102787 1_655
Mn0 O9 2.117271 1_545
Mn0 O1 2.258802 1_554
Mn0 O8 2.315043 1_655
Mn1 O7 2.093612 1_555
Mn1 O1 2.113663 1_555
Mn1 O2 2.114205 1_665
Mn1 O3 2.276211 1_555
Mn1 O10 2.286363 1_656
Mn2 O5 2.088568 1_565
Mn2 O0 2.089888 1_565
Mn2 O3 2.131906 1_455
Mn2 O11 2.262160 1_555
Mn2 O2 2.309407 1_565
Fe0 O6 2.009365 1_555
Fe0 O8 2.064117 1_665
Fe0 O11 2.110245 1_555
Fe0 O9 2.254809 1_555
Fe0 O0 2.255528 1_565
B0 O7 1.382223 1_545
B0 O2 1.396014 1_555
B0 O1 1.400716 1_555
B1 O5 1.379918 1_655
B1 O0 1.394764 1_555
B1 O3 1.403121 1_555
B2 O11 1.393389 1_555
B2 O8 1.394016 1_555
B2 O6 1.396058 1_455
B3 O4 1.382581 1_565
B3 O10 1.393146 1_555
B3 O9 1.404032 1_555
