# generated using pymatgen
data_V2O2F3
_symmetry_space_group_name_H-M   'P 1'
_cell_length_a   3.72925800
_cell_length_b   5.36995357
_cell_length_c   9.92075136
_cell_angle_alpha   90.02832592
_cell_angle_beta   89.99812080
_cell_angle_gamma   69.68643058
_symmetry_Int_Tables_number   1
_chemical_formula_structural   V2O2F3
_chemical_formula_sum   'V4 O4 F6'
_cell_volume   186.31628427
_cell_formula_units_Z   2
loop_
 _symmetry_equiv_pos_site_id
 _symmetry_equiv_pos_as_xyz
  1  'x, y, z'
loop_
 _atom_site_type_symbol
 _atom_site_label
 _atom_site_symmetry_multiplicity
 _atom_site_fract_x
 _atom_site_fract_y
 _atom_site_fract_z
 _atom_site_occupancy
  V  V0  1  0.14437600  0.71128600  0.44127200  1
  V  V1  1  0.85550900  0.28894400  0.55862600  1
  V  V2  1  0.14444500  0.71112900  0.05873400  1
  V  V3  1  0.85553200  0.28890500  0.94138000  1
  O  O0  1  0.32774600  0.34449600  0.53605000  1
  O  O1  1  0.32764000  0.34471700  0.96371400  1
  O  O2  1  0.67234100  0.65531400  0.03634500  1
  O  O3  1  0.67224600  0.65551600  0.46388700  1
  F  F0  1  0.20681600  0.58623500  0.24993500  1
  F  F1  1  0.79322200  0.41369600  0.75006800  1
  F  F2  1  0.03874600  0.92258200  0.88200800  1
  F  F3  1  0.03874900  0.92262500  0.61790200  1
  F  F4  1  0.96129300  0.07733200  0.11801000  1
  F  F5  1  0.96133800  0.07722400  0.38207000  1
loop_
_geom_bond_atom_site_label_1
_geom_bond_atom_site_label_2
_geom_bond_distance
_geom_bond_site_symmetry_2
O0 V1 1.898754 1_555
O0 V1 1.898791 1_455
O0 V0 2.073145 1_555
O1 V3 1.898613 1_555
O1 V3 1.898685 1_455
O1 V2 2.071635 1_556
O2 V2 1.898688 1_555
O2 V2 1.898742 1_655
O2 V3 2.071374 1_554
O3 V0 1.898955 1_555
O3 V0 1.899006 1_655
O3 V1 2.071991 1_555
F0 V2 1.998737 1_555
F0 V0 1.999622 1_555
F1 V3 1.999619 1_555
F1 V1 2.000138 1_555
F2 V3 1.936242 1_465
F2 V2 2.051797 1_556
F3 V1 1.936539 1_465
F3 V0 2.049703 1_555
F4 V2 1.935378 1_645
F4 V3 2.051297 1_554
F5 V0 1.934487 1_645
F5 V1 2.050072 1_555
