# generated using pymatgen
data_Sr9(NiO3)7
_symmetry_space_group_name_H-M   'P 1'
_cell_length_a   13.23519218
_cell_length_b   13.23519218
_cell_length_c   13.23519205
_cell_angle_alpha   42.20770341
_cell_angle_beta   42.20770341
_cell_angle_gamma   42.20770332
_symmetry_Int_Tables_number   1
_chemical_formula_structural   Sr9(NiO3)7
_chemical_formula_sum   'Sr18 Ni14 O42'
_cell_volume   946.93515980
_cell_formula_units_Z   2
loop_
 _symmetry_equiv_pos_site_id
 _symmetry_equiv_pos_as_xyz
  1  'x, y, z'
loop_
 _atom_site_type_symbol
 _atom_site_label
 _atom_site_symmetry_multiplicity
 _atom_site_fract_x
 _atom_site_fract_y
 _atom_site_fract_z
 _atom_site_occupancy
  Sr  Sr0  1  0.71713300  0.00518700  0.36409400  1
  Sr  Sr1  1  0.91876600  0.25000000  0.58123400  1
  Sr  Sr2  1  0.78286700  0.13590600  0.49481300  1
  Sr  Sr3  1  0.86409400  0.50518700  0.21713300  1
  Sr  Sr4  1  0.99481300  0.63590600  0.28286700  1
  Sr  Sr5  1  0.41876500  0.08123400  0.75000000  1
  Sr  Sr6  1  0.63590600  0.28286700  0.99481300  1
  Sr  Sr7  1  0.75000000  0.41876500  0.08123400  1
  Sr  Sr8  1  0.50518700  0.21713300  0.86409400  1
  Sr  Sr9  1  0.49481300  0.78286700  0.13590600  1
  Sr  Sr10  1  0.25000000  0.58123400  0.91876600  1
  Sr  Sr11  1  0.36409400  0.71713300  0.00518700  1
  Sr  Sr12  1  0.58123400  0.91876600  0.25000000  1
  Sr  Sr13  1  0.13590600  0.49481300  0.78286700  1
  Sr  Sr14  1  0.00518700  0.36409400  0.71713300  1
  Sr  Sr15  1  0.21713300  0.86409400  0.50518700  1
  Sr  Sr16  1  0.08123400  0.75000000  0.41876600  1
  Sr  Sr17  1  0.28286700  0.99481300  0.63590600  1
  Ni  Ni0  1  0.00000000  0.00000000  0.00000000  1
  Ni  Ni1  1  0.06843800  0.06843800  0.06843800  1
  Ni  Ni2  1  0.21536900  0.21536900  0.21536900  1
  Ni  Ni3  1  0.28463100  0.28463100  0.28463100  1
  Ni  Ni4  1  0.14300800  0.14300800  0.14300800  1
  Ni  Ni5  1  0.35699200  0.35699200  0.35699200  1
  Ni  Ni6  1  0.43156200  0.43156200  0.43156200  1
  Ni  Ni7  1  0.56843800  0.56843800  0.56843800  1
  Ni  Ni8  1  0.64300800  0.64300800  0.64300800  1
  Ni  Ni9  1  0.50000000  0.50000000  0.50000000  1
  Ni  Ni10  1  0.78463100  0.78463100  0.78463100  1
  Ni  Ni11  1  0.85699200  0.85699200  0.85699200  1
  Ni  Ni12  1  0.93156200  0.93156200  0.93156200  1
  Ni  Ni13  1  0.71536900  0.71536900  0.71536900  1
  O  O0  1  0.47075900  0.15350200  0.32223200  1
  O  O1  1  0.34649800  0.02924100  0.17776800  1
  O  O2  1  0.25000000  0.09997100  0.40002900  1
  O  O3  1  0.40002900  0.25000000  0.09997100  1
  O  O4  1  0.32223200  0.47075900  0.15350200  1
  O  O5  1  0.02924100  0.17776800  0.34649800  1
  O  O6  1  0.94696000  0.09047500  0.25648400  1
  O  O7  1  0.95636600  0.12670800  0.81983600  1
  O  O8  1  0.17776800  0.34649800  0.02924100  1
  O  O9  1  0.15350200  0.32223200  0.47075900  1
  O  O10  1  0.74351600  0.05304000  0.90952500  1
  O  O11  1  0.87329200  0.18016400  0.04363400  1
  O  O12  1  0.09997100  0.40002900  0.25000000  1
  O  O13  1  0.68016400  0.37329200  0.54363400  1
  O  O14  1  0.55304000  0.24351600  0.40952500  1
  O  O15  1  0.62670800  0.45636600  0.31983600  1
  O  O16  1  0.75648400  0.59047500  0.44696000  1
  O  O17  1  0.90952500  0.74351600  0.05304000  1
  O  O18  1  0.59047500  0.44696000  0.75648400  1
  O  O19  1  0.18016400  0.04363400  0.87329200  1
  O  O20  1  0.45636600  0.31983600  0.62670800  1
  O  O21  1  0.54363400  0.68016400  0.37329200  1
  O  O22  1  0.81983600  0.95636600  0.12670800  1
  O  O23  1  0.40952500  0.55304000  0.24351600  1
  O  O24  1  0.09047500  0.25648400  0.94696000  1
  O  O25  1  0.24351600  0.40952500  0.55304000  1
  O  O26  1  0.37329200  0.54363400  0.68016400  1
  O  O27  1  0.44696000  0.75648400  0.59047500  1
  O  O28  1  0.31983600  0.62670800  0.45636600  1
  O  O29  1  0.90002900  0.59997100  0.75000000  1
  O  O30  1  0.12670800  0.81983600  0.95636600  1
  O  O31  1  0.25648400  0.94696000  0.09047500  1
  O  O32  1  0.82223200  0.65350200  0.97075900  1
  O  O33  1  0.84649800  0.67776800  0.52924100  1
  O  O34  1  0.04363400  0.87329200  0.18016400  1
  O  O35  1  0.05304000  0.90952500  0.74351600  1
  O  O36  1  0.97075900  0.82223200  0.65350200  1
  O  O37  1  0.67776800  0.52924100  0.84649800  1
  O  O38  1  0.75000000  0.90002900  0.59997100  1
  O  O39  1  0.59997100  0.75000000  0.90002900  1
  O  O40  1  0.52924100  0.84649800  0.67776800  1
  O  O41  1  0.65350200  0.97075900  0.82223200  1
loop_
_geom_bond_atom_site_label_1
_geom_bond_atom_site_label_2
_geom_bond_distance
_geom_bond_site_symmetry_2
Ni0 O34 1.874309 1_545
Ni0 O7 1.874309 1_454
Ni0 O30 1.874309 1_544
Ni0 O11 1.874309 1_455
Ni0 O19 1.874309 1_554
Ni0 O22 1.874309 1_445
Ni1 O6 1.821274 1_455
Ni1 O31 1.821274 1_545
Ni1 O24 1.821274 1_554
Ni1 O19 1.960676 1_554
Ni1 O11 1.960676 1_455
Ni1 O34 1.960676 1_545
Ni2 O8 1.879164 1_555
Ni2 O1 1.879164 1_555
Ni2 O5 1.879164 1_555
Ni2 O2 1.899623 1_555
Ni2 O12 1.899623 1_555
Ni2 O3 1.899623 1_555
Ni3 O9 1.879164 1_555
Ni3 O0 1.879164 1_555
Ni3 O4 1.879164 1_555
Ni3 O3 1.899623 1_555
Ni3 O12 1.899623 1_555
Ni3 O2 1.899623 1_555
Ni4 O5 2.129339 1_555
Ni4 O1 2.129339 1_555
Ni4 O8 2.129339 1_555
Ni4 O24 2.196422 1_554
Ni4 O31 2.196422 1_545
Ni4 O6 2.196422 1_455
Ni5 O4 2.129339 1_555
Ni5 O0 2.129339 1_555
Ni5 O9 2.129339 1_555
Ni5 O25 2.196422 1_555
Ni5 O14 2.196422 1_555
Ni5 O23 2.196422 1_555
Ni6 O23 1.821274 1_555
Ni6 O14 1.821274 1_555
Ni6 O25 1.821274 1_555
Ni6 O20 1.960676 1_555
Ni6 O28 1.960676 1_555
Ni6 O15 1.960676 1_555
Ni7 O18 1.821274 1_555
Ni7 O27 1.821274 1_555
Ni7 O16 1.821274 1_555
Ni7 O21 1.960676 1_555
Ni7 O13 1.960676 1_555
Ni7 O26 1.960676 1_555
Ni8 O37 2.129339 1_555
Ni8 O40 2.129339 1_555
Ni8 O33 2.129339 1_555
Ni8 O16 2.196422 1_555
Ni8 O27 2.196422 1_555
Ni8 O18 2.196422 1_555
Ni9 O15 1.874309 1_555
Ni9 O26 1.874309 1_555
Ni9 O13 1.874309 1_555
Ni9 O28 1.874309 1_555
Ni9 O20 1.874309 1_555
Ni9 O21 1.874309 1_555
Ni10 O32 1.879164 1_555
Ni10 O41 1.879164 1_555
Ni10 O36 1.879164 1_555
Ni10 O38 1.899623 1_555
Ni10 O29 1.899623 1_555
Ni10 O39 1.899623 1_555
Ni11 O36 2.129339 1_555
Ni11 O41 2.129339 1_555
Ni11 O32 2.129339 1_555
Ni11 O17 2.196422 1_556
Ni11 O10 2.196422 1_565
Ni11 O35 2.196422 1_655
Ni12 O35 1.821274 1_655
Ni12 O10 1.821274 1_565
Ni12 O17 1.821274 1_556
Ni12 O22 1.960676 1_556
Ni12 O30 1.960676 1_655
Ni12 O7 1.960676 1_565
Ni13 O33 1.879164 1_555
Ni13 O40 1.879164 1_555
Ni13 O37 1.879164 1_555
Ni13 O39 1.899623 1_555
Ni13 O29 1.899623 1_555
Ni13 O38 1.899623 1_555
O0 Sr0 2.525054 1_555
O0 Sr6 2.647343 1_554
O0 Sr17 2.712298 1_545
O0 Sr12 2.881591 1_545
O1 Sr9 2.525054 1_545
O1 Sr15 2.647343 1_545
O1 Sr8 2.712298 1_554
O1 Sr12 2.881591 1_545
O2 Sr17 2.559402 1_545
O2 Sr15 2.559402 1_545
O2 Sr1 2.738044 1_455
O2 Sr12 2.738044 1_545
O3 Sr8 2.559402 1_554
O3 Sr6 2.559402 1_554
O3 Sr10 2.738044 1_554
O3 Sr12 2.738044 1_545
O4 Sr11 2.525054 1_555
O4 Sr4 2.647343 1_455
O4 Sr6 2.712298 1_554
O4 Sr10 2.881591 1_554
O5 Sr2 2.525054 1_455
O5 Sr3 2.647343 1_455
O5 Sr15 2.712298 1_545
O5 Sr1 2.881591 1_455
O6 Sr2 2.398880 1_555
O6 Sr16 2.744163 1_645
O6 Sr7 2.881354 1_555
O6 Sr0 2.973594 1_555
O7 Sr1 2.524708 1_555
O7 Sr6 2.679041 1_555
O7 Sr17 2.680162 1_645
O7 Sr14 2.741533 1_655
O8 Sr13 2.525054 1_554
O8 Sr8 2.647343 1_554
O8 Sr3 2.712298 1_455
O8 Sr10 2.881591 1_554
O9 Sr14 2.525054 1_555
O9 Sr17 2.647343 1_545
O9 Sr4 2.712298 1_455
O9 Sr1 2.881591 1_455
O10 Sr8 2.398880 1_555
O10 Sr12 2.744163 1_546
O10 Sr1 2.881357 1_555
O10 Sr6 2.973594 1_555
O11 Sr7 2.524696 1_555
O11 Sr0 2.679041 1_555
O11 Sr14 2.680162 1_654
O11 Sr6 2.741533 1_554
O12 Sr4 2.559402 1_455
O12 Sr3 2.559402 1_455
O12 Sr10 2.738044 1_554
O12 Sr1 2.738044 1_455
O13 Sr1 2.524708 1_555
O13 Sr8 2.679041 1_555
O13 Sr3 2.680162 1_555
O13 Sr2 2.741533 1_555
O14 Sr0 2.398880 1_555
O14 Sr5 2.744163 1_555
O14 Sr7 2.881352 1_555
O14 Sr2 2.973594 1_555
O15 Sr7 2.524717 1_555
O15 Sr2 2.679041 1_555
O15 Sr9 2.680162 1_555
O15 Sr3 2.741533 1_555
O16 Sr4 2.398880 1_555
O16 Sr1 2.744163 1_555
O16 Sr12 2.881357 1_555
O16 Sr3 2.973594 1_555
O17 Sr3 2.398880 1_555
O17 Sr10 2.744163 1_654
O17 Sr12 2.881357 1_555
O17 Sr4 2.973594 1_555
O18 Sr6 2.398880 1_555
O18 Sr10 2.744163 1_555
O18 Sr1 2.881357 1_555
O18 Sr8 2.973594 1_555
O19 Sr5 2.524696 1_555
O19 Sr14 2.679041 1_555
O19 Sr11 2.680162 1_546
O19 Sr17 2.741533 1_545
O20 Sr5 2.524717 1_555
O20 Sr13 2.679041 1_555
O20 Sr2 2.680162 1_555
O20 Sr8 2.741533 1_555
O21 Sr12 2.524708 1_555
O21 Sr3 2.679041 1_555
O21 Sr15 2.680162 1_555
O21 Sr9 2.741533 1_555
O22 Sr12 2.524708 1_555
O22 Sr4 2.679041 1_555
O22 Sr6 2.680162 1_564
O22 Sr0 2.741533 1_565
O23 Sr11 2.398880 1_555
O23 Sr7 2.744163 1_555
O23 Sr16 2.881357 1_555
O23 Sr9 2.973594 1_555
O24 Sr13 2.398880 1_555
O24 Sr7 2.744162 1_456
O24 Sr5 2.881354 1_555
O24 Sr14 2.973594 1_555
O25 Sr14 2.398880 1_555
O25 Sr16 2.744163 1_555
O25 Sr5 2.881352 1_555
O25 Sr13 2.973594 1_555
O26 Sr10 2.524708 1_555
O26 Sr15 2.679041 1_555
O26 Sr8 2.680162 1_555
O26 Sr13 2.741533 1_555
O27 Sr17 2.398880 1_555
O27 Sr12 2.744163 1_555
O27 Sr10 2.881357 1_555
O27 Sr15 2.973594 1_555
O28 Sr16 2.524708 1_555
O28 Sr9 2.679041 1_555
O28 Sr13 2.680162 1_555
O28 Sr15 2.741533 1_555
O29 Sr14 2.559402 1_655
O29 Sr13 2.559402 1_655
O29 Sr16 2.738044 1_655
O29 Sr7 2.738047 1_556
O30 Sr10 2.524708 1_555
O30 Sr17 2.679041 1_555
O30 Sr4 2.680162 1_456
O30 Sr11 2.741533 1_556
O31 Sr9 2.398880 1_555
O31 Sr5 2.744162 1_564
O31 Sr16 2.881357 1_555
O31 Sr11 2.973594 1_555
O32 Sr3 2.525054 1_556
O32 Sr9 2.647343 1_556
O32 Sr13 2.712298 1_655
O32 Sr7 2.881604 1_556
O33 Sr4 2.525054 1_555
O33 Sr0 2.647343 1_565
O33 Sr14 2.712298 1_655
O33 Sr16 2.881591 1_655
O34 Sr16 2.524708 1_555
O34 Sr11 2.679041 1_555
O34 Sr0 2.680162 1_465
O34 Sr4 2.741533 1_455
O35 Sr15 2.398880 1_555
O35 Sr1 2.744163 1_465
O35 Sr10 2.881357 1_555
O35 Sr17 2.973594 1_555
O36 Sr15 2.525054 1_655
O36 Sr13 2.647343 1_655
O36 Sr2 2.712298 1_565
O36 Sr16 2.881591 1_655
O37 Sr6 2.525054 1_555
O37 Sr14 2.647343 1_655
O37 Sr11 2.712298 1_556
O37 Sr7 2.881584 1_556
O38 Sr0 2.559402 1_565
O38 Sr2 2.559402 1_565
O38 Sr16 2.738044 1_655
O38 Sr5 2.738049 1_565
O39 Sr9 2.559402 1_556
O39 Sr11 2.559402 1_556
O39 Sr5 2.738047 1_565
O39 Sr7 2.738049 1_556
O40 Sr17 2.525054 1_555
O40 Sr11 2.647343 1_556
O40 Sr0 2.712298 1_565
O40 Sr5 2.881584 1_565
O41 Sr8 2.525054 1_565
O41 Sr2 2.647343 1_565
O41 Sr9 2.712298 1_556
O41 Sr5 2.881604 1_565
