# generated using pymatgen
data_Li3FeS3
_symmetry_space_group_name_H-M   'P 1'
_cell_length_a   6.29988900
_cell_length_b   6.57553200
_cell_length_c   12.95271349
_cell_angle_alpha   62.08523763
_cell_angle_beta   90.00000000
_cell_angle_gamma   90.00000000
_symmetry_Int_Tables_number   1
_chemical_formula_structural   Li3FeS3
_chemical_formula_sum   'Li12 Fe4 S12'
_cell_volume   474.13541454
_cell_formula_units_Z   4
loop_
 _symmetry_equiv_pos_site_id
 _symmetry_equiv_pos_as_xyz
  1  'x, y, z'
loop_
 _atom_site_type_symbol
 _atom_site_label
 _atom_site_symmetry_multiplicity
 _atom_site_fract_x
 _atom_site_fract_y
 _atom_site_fract_z
 _atom_site_occupancy
  Li  Li0  1  0.49896900  0.96012400  0.38629900  1
  Li  Li1  1  0.00456000  0.90423000  0.39362400  1
  Li  Li2  1  0.50466400  0.46963700  0.78751300  1
  Li  Li3  1  0.00466400  0.53036300  0.71248700  1
  Li  Li4  1  0.50456000  0.09577000  0.10637600  1
  Li  Li5  1  0.99896900  0.03987600  0.11370100  1
  Li  Li6  1  0.00103100  0.96012400  0.88629900  1
  Li  Li7  1  0.49544000  0.90423000  0.89362400  1
  Li  Li8  1  0.99533600  0.46963700  0.28751300  1
  Li  Li9  1  0.49533600  0.53036300  0.21248700  1
  Li  Li10  1  0.99544000  0.09577000  0.60637600  1
  Li  Li11  1  0.50103100  0.03987600  0.61370100  1
  Fe  Fe0  1  0.86500900  0.49602800  0.92547800  1
  Fe  Fe1  1  0.36500900  0.50397200  0.57452200  1
  Fe  Fe2  1  0.63499100  0.49602800  0.42547800  1
  Fe  Fe3  1  0.13499100  0.50397200  0.07452200  1
  S  S0  1  0.24723700  0.18973000  0.23039400  1
  S  S1  1  0.21782500  0.49488900  0.90981000  1
  S  S2  1  0.24084300  0.82556400  0.56591000  1
  S  S3  1  0.74084300  0.17443600  0.93409000  1
  S  S4  1  0.74723700  0.81027000  0.26960600  1
  S  S5  1  0.71782500  0.50511100  0.59019000  1
  S  S6  1  0.28217500  0.49488900  0.40981000  1
  S  S7  1  0.25276300  0.18973000  0.73039400  1
  S  S8  1  0.25915700  0.82556400  0.06591000  1
  S  S9  1  0.75915700  0.17443600  0.43409000  1
  S  S10  1  0.78217500  0.50511100  0.09019000  1
  S  S11  1  0.75276300  0.81027000  0.76960600  1
loop_
_geom_bond_atom_site_label_1
_geom_bond_atom_site_label_2
_geom_bond_distance
_geom_bond_site_symmetry_2
Li0 S9 2.423364 1_565
Li0 S0 2.453108 1_565
Li0 S2 2.629125 1_555
Li0 S4 2.663902 1_555
Li1 S2 2.526354 1_555
Li1 S4 2.553312 1_455
Li1 S0 2.572046 1_565
Li1 S9 2.587214 1_465
Li2 S1 2.459389 1_555
Li2 S3 2.477031 1_555
Li2 S11 2.650890 1_555
Li2 S7 2.779991 1_555
Li2 S5 2.798573 1_555
Li3 S5 2.459389 1_455
Li3 S2 2.477031 1_555
Li3 S7 2.650890 1_555
Li3 S11 2.779991 1_455
Li3 S1 2.798573 1_555
Li4 S3 2.526354 1_554
Li4 S0 2.553312 1_555
Li4 S4 2.572046 1_545
Li4 S8 2.587214 1_545
Li5 S8 2.423364 1_645
Li5 S4 2.453108 1_545
Li5 S3 2.629125 1_554
Li5 S0 2.663902 1_655
Li6 S3 2.423364 1_465
Li6 S7 2.453108 1_565
Li6 S8 2.629125 1_556
Li6 S11 2.663902 1_455
Li7 S8 2.526354 1_556
Li7 S11 2.553312 1_555
Li7 S7 2.572046 1_565
Li7 S3 2.587214 1_565
Li8 S6 2.459389 1_655
Li8 S9 2.477031 1_555
Li8 S4 2.650890 1_555
Li8 S0 2.779991 1_655
Li8 S10 2.798573 1_555
Li9 S10 2.459389 1_555
Li9 S8 2.477031 1_555
Li9 S0 2.650890 1_555
Li9 S4 2.779991 1_555
Li9 S6 2.798573 1_555
Li10 S9 2.526354 1_555
Li10 S7 2.553312 1_655
Li10 S11 2.572046 1_545
Li10 S2 2.587214 1_645
Li11 S2 2.423364 1_545
Li11 S11 2.453108 1_545
Li11 S9 2.629125 1_555
Li11 S7 2.663902 1_555
Fe0 S3 2.207977 1_555
Fe0 S11 2.222560 1_555
Fe0 S10 2.224158 1_556
Fe0 S1 2.232279 1_655
Fe0 Li3 2.802300 1_655
Fe0 Li2 2.944049 1_555
Fe1 S2 2.207977 1_555
Fe1 S7 2.222560 1_555
Fe1 S6 2.224158 1_555
Fe1 S5 2.232279 1_555
Fe1 Li2 2.802300 1_555
Fe1 Li3 2.944049 1_555
Fe2 S9 2.207977 1_555
Fe2 S4 2.222560 1_555
Fe2 S5 2.224158 1_555
Fe2 S6 2.232279 1_555
Fe2 Li9 2.802300 1_555
Fe2 Li8 2.944049 1_555
Fe3 S8 2.207977 1_555
Fe3 S0 2.222560 1_555
Fe3 S1 2.224158 1_554
Fe3 S10 2.232279 1_455
Fe3 Li8 2.802300 1_455
Fe3 Li9 2.944049 1_555
