# generated using pymatgen
data_Li2FeSiO4
_symmetry_space_group_name_H-M   'P 1'
_cell_length_a   5.11966100
_cell_length_b   6.36158300
_cell_length_c   10.77138500
_cell_angle_alpha   90.00021978
_cell_angle_beta   90.00008732
_cell_angle_gamma   90.00024019
_symmetry_Int_Tables_number   1
_chemical_formula_structural   Li2FeSiO4
_chemical_formula_sum   'Li8 Fe4 Si4 O16'
_cell_volume   350.81483636
_cell_formula_units_Z   4
loop_
 _symmetry_equiv_pos_site_id
 _symmetry_equiv_pos_as_xyz
  1  'x, y, z'
loop_
 _atom_site_type_symbol
 _atom_site_label
 _atom_site_symmetry_multiplicity
 _atom_site_fract_x
 _atom_site_fract_y
 _atom_site_fract_z
 _atom_site_occupancy
  Li  Li0  1  0.20750700  0.99430200  0.33117100  1
  Li  Li1  1  0.29249400  0.99430700  0.83117300  1
  Li  Li2  1  0.20750400  0.50569500  0.33117100  1
  Li  Li3  1  0.29249700  0.50569100  0.83117400  1
  Li  Li4  1  0.70750600  0.49430300  0.16883000  1
  Li  Li5  1  0.79249600  0.49430800  0.66882800  1
  Li  Li6  1  0.79249600  0.00569200  0.66882700  1
  Li  Li7  1  0.70750600  0.00569600  0.16882900  1
  Fe  Fe0  1  0.70065100  0.25000400  0.91940700  1
  Fe  Fe1  1  0.20065700  0.74998700  0.58060700  1
  Fe  Fe2  1  0.79939300  0.24997700  0.41942300  1
  Fe  Fe3  1  0.29942400  0.74999200  0.08056000  1
  Si  Si0  1  0.19558700  0.24999600  0.08449200  1
  Si  Si1  1  0.30442300  0.24999700  0.58450000  1
  Si  Si2  1  0.69558700  0.74999400  0.41550900  1
  Si  Si3  1  0.80442300  0.74999800  0.91550100  1
  O  O0  1  0.87237300  0.25000500  0.09090500  1
  O  O1  1  0.62760300  0.25000500  0.59091200  1
  O  O2  1  0.37237200  0.75000000  0.40909400  1
  O  O3  1  0.12760400  0.75000000  0.90908800  1
  O  O4  1  0.21427100  0.25000000  0.43740800  1
  O  O5  1  0.28569900  0.24999700  0.93740200  1
  O  O6  1  0.71427300  0.75000200  0.06259300  1
  O  O7  1  0.78569800  0.75000100  0.56259800  1
  O  O8  1  0.30724900  0.03882600  0.15695700  1
  O  O9  1  0.19274200  0.03882600  0.65695700  1
  O  O10  1  0.30724000  0.46118400  0.15695700  1
  O  O11  1  0.19274800  0.46117900  0.65695700  1
  O  O12  1  0.69275100  0.53882800  0.84304300  1
  O  O13  1  0.80724400  0.53883400  0.34304400  1
  O  O14  1  0.80724600  0.96119300  0.34304200  1
  O  O15  1  0.69273800  0.96118000  0.84304400  1
loop_
_geom_bond_atom_site_label_1
_geom_bond_atom_site_label_2
_geom_bond_distance
_geom_bond_site_symmetry_2
Li0 O2 1.957628 1_555
Li0 O8 1.965284 1_565
Li0 O4 1.989126 1_565
Li0 O14 2.063961 1_455
Li1 O3 1.957667 1_555
Li1 O9 1.965312 1_565
Li1 O5 1.989038 1_565
Li1 O15 2.063887 1_555
Li2 O2 1.957639 1_555
Li2 O10 1.965263 1_555
Li2 O4 1.989118 1_555
Li2 O13 2.063978 1_455
Li3 O3 1.957680 1_555
Li3 O11 1.965310 1_555
Li3 O5 1.989060 1_555
Li3 O12 2.063941 1_555
Li4 O0 1.957618 1_555
Li4 O13 1.965282 1_555
Li4 O6 1.989139 1_555
Li4 O10 2.063993 1_555
Li5 O1 1.957652 1_555
Li5 O12 1.965293 1_555
Li5 O7 1.989067 1_555
Li5 O11 2.063930 1_655
Li6 O1 1.957709 1_555
Li6 O15 1.965325 1_545
Li6 O7 1.989043 1_545
Li6 O9 2.063900 1_655
Li7 O0 1.957668 1_555
Li7 O14 1.965251 1_545
Li7 O6 1.989100 1_545
Li7 O8 2.063956 1_555
Fe0 O15 2.013492 1_545
Fe0 O12 2.013501 1_555
Fe0 O0 2.045807 1_556
Fe0 O5 2.133238 1_555
Fe1 O11 2.013347 1_555
Fe1 O9 2.013523 1_565
Fe1 O2 2.045940 1_555
Fe1 O7 2.133287 1_455
Fe2 O14 2.013333 1_545
Fe2 O13 2.013754 1_555
Fe2 O1 2.045871 1_555
Fe2 O4 2.132850 1_655
Fe3 O10 2.013545 1_555
Fe3 O8 2.013691 1_565
Fe3 O3 2.045769 1_554
Fe3 O6 2.132686 1_555
O0 Si0 1.656187 1_655
O1 Si1 1.656013 1_555
O2 Si2 1.656193 1_555
O3 Si3 1.656019 1_455
O4 Si1 1.650242 1_555
O5 Si0 1.650165 1_556
O6 Si3 1.650240 1_554
O7 Si2 1.650152 1_555
O8 Si0 1.655517 1_555
O9 Si1 1.655512 1_555
O10 Si0 1.655585 1_555
O11 Si1 1.655557 1_555
O12 Si3 1.655490 1_555
O13 Si2 1.655452 1_555
O14 Si2 1.655668 1_555
O15 Si3 1.655579 1_555
