# generated using pymatgen
data_LiVSiO4
_symmetry_space_group_name_H-M   'P 1'
_cell_length_a   7.32135000
_cell_length_b   7.32135000
_cell_length_c   7.32135000
_cell_angle_alpha   90.00000000
_cell_angle_beta   90.00000000
_cell_angle_gamma   90.00000000
_symmetry_Int_Tables_number   1
_chemical_formula_structural   LiVSiO4
_chemical_formula_sum   'Li4 V4 Si4 O16'
_cell_volume   392.44021674
_cell_formula_units_Z   4
loop_
 _symmetry_equiv_pos_site_id
 _symmetry_equiv_pos_as_xyz
  1  'x, y, z'
loop_
 _atom_site_type_symbol
 _atom_site_label
 _atom_site_symmetry_multiplicity
 _atom_site_fract_x
 _atom_site_fract_y
 _atom_site_fract_z
 _atom_site_occupancy
  Li  Li0  1  0.24796800  0.75203200  0.25203200  1
  Li  Li1  1  0.25203200  0.24796800  0.75203200  1
  Li  Li2  1  0.74796800  0.74796800  0.74796800  1
  Li  Li3  1  0.75203200  0.25203200  0.24796800  1
  V  V0  1  0.19444800  0.69444800  0.80555200  1
  V  V1  1  0.30555200  0.30555200  0.30555200  1
  V  V2  1  0.69444800  0.80555200  0.19444800  1
  V  V3  1  0.80555200  0.19444800  0.69444800  1
  Si  Si0  1  0.03091600  0.03091600  0.03091600  1
  Si  Si1  1  0.96908400  0.53091600  0.46908400  1
  Si  Si2  1  0.46908400  0.96908400  0.53091600  1
  Si  Si3  1  0.53091600  0.46908400  0.96908400  1
  O  O0  1  0.97421000  0.61606400  0.67842800  1
  O  O1  1  0.15804300  0.15804300  0.15804300  1
  O  O2  1  0.17842800  0.52579000  0.38393600  1
  O  O3  1  0.11606400  0.82157200  0.02579000  1
  O  O4  1  0.38393600  0.17842800  0.52579000  1
  O  O5  1  0.32157200  0.47421000  0.88393600  1
  O  O6  1  0.34195700  0.84195700  0.65804300  1
  O  O7  1  0.52579000  0.38393600  0.17842800  1
  O  O8  1  0.47421000  0.88393600  0.32157200  1
  O  O9  1  0.65804300  0.34195700  0.84195700  1
  O  O10  1  0.67842800  0.97421000  0.61606400  1
  O  O11  1  0.61606400  0.67842800  0.97421000  1
  O  O12  1  0.88393600  0.32157200  0.47421000  1
  O  O13  1  0.82157200  0.02579000  0.11606400  1
  O  O14  1  0.84195700  0.65804300  0.34195700  1
  O  O15  1  0.02579000  0.11606400  0.82157200  1
loop_
_geom_bond_atom_site_label_1
_geom_bond_atom_site_label_2
_geom_bond_distance
_geom_bond_site_symmetry_2
Li0 O2 1.983801 1_555
Li0 O8 1.983801 1_555
Li0 O3 1.983801 1_555
Li1 O4 1.983801 1_555
Li1 O5 1.983801 1_555
Li1 O15 1.983801 1_555
Li2 O10 1.983801 1_555
Li2 O0 1.983801 1_555
Li2 O11 1.983801 1_555
Li3 O7 1.983801 1_555
Li3 O12 1.983801 1_555
Li3 O13 1.983801 1_555
O0 Si1 1.655036 1_555
O0 V0 1.948213 1_655
O1 Si0 1.612091 1_555
O1 V1 1.870554 1_555
O2 Si1 1.655036 1_455
O2 V1 1.948213 1_555
O3 Si0 1.655036 1_565
O3 V0 1.948213 1_554
O4 Si2 1.655036 1_545
O4 V1 1.948213 1_555
O5 Si3 1.655036 1_555
O5 V0 1.948213 1_555
O6 Si2 1.612091 1_555
O6 V0 1.870554 1_555
O7 Si3 1.655036 1_554
O7 V1 1.948213 1_555
O8 Si2 1.655036 1_555
O8 V2 1.948213 1_555
O9 Si3 1.612091 1_555
O9 V3 1.870554 1_555
O10 Si2 1.655036 1_555
O10 V3 1.948213 1_565
O11 Si3 1.655036 1_555
O11 V2 1.948213 1_556
O12 Si1 1.655036 1_555
O12 V3 1.948213 1_555
O13 Si0 1.655036 1_655
O13 V2 1.948213 1_545
O14 Si1 1.612091 1_555
O14 V2 1.870554 1_555
O15 Si0 1.655036 1_556
O15 V3 1.948213 1_455
