# generated using pymatgen
data_Li3Fe(Si2O5)3
_symmetry_space_group_name_H-M   'P 1'
_cell_length_a   11.14834433
_cell_length_b   11.14834433
_cell_length_c   10.15298900
_cell_angle_alpha   90.00000000
_cell_angle_beta   90.00000000
_cell_angle_gamma   99.86793776
_symmetry_Int_Tables_number   1
_chemical_formula_structural   Li3Fe(Si2O5)3
_chemical_formula_sum   'Li12 Fe4 Si24 O60'
_cell_volume   1243.20125244
_cell_formula_units_Z   4
loop_
 _symmetry_equiv_pos_site_id
 _symmetry_equiv_pos_as_xyz
  1  'x, y, z'
loop_
 _atom_site_type_symbol
 _atom_site_label
 _atom_site_symmetry_multiplicity
 _atom_site_fract_x
 _atom_site_fract_y
 _atom_site_fract_z
 _atom_site_occupancy
  Li  Li0  1  0.24058700  0.24058700  0.00000000  1
  Li  Li1  1  0.48702500  0.01297500  0.25000000  1
  Li  Li2  1  0.01297500  0.48702500  0.75000000  1
  Li  Li3  1  0.25941300  0.25941300  0.50000000  1
  Li  Li4  1  0.43217500  0.56782500  0.28327100  1
  Li  Li5  1  0.56782500  0.43217500  0.71672900  1
  Li  Li6  1  0.06782500  0.93217500  0.78327100  1
  Li  Li7  1  0.93217500  0.06782500  0.21672900  1
  Li  Li8  1  0.74058700  0.74058700  0.50000000  1
  Li  Li9  1  0.51297500  0.98702500  0.75000000  1
  Li  Li10  1  0.98702500  0.51297500  0.25000000  1
  Li  Li11  1  0.75941300  0.75941300  0.00000000  1
  Fe  Fe0  1  0.15862300  0.34137700  0.25000000  1
  Fe  Fe1  1  0.34137700  0.15862300  0.75000000  1
  Fe  Fe2  1  0.84137700  0.65862300  0.75000000  1
  Fe  Fe3  1  0.65862300  0.84137700  0.25000000  1
  Si  Si0  1  0.18431400  0.04143700  0.19428400  1
  Si  Si1  1  0.04143700  0.18431400  0.80571600  1
  Si  Si2  1  0.31568600  0.45856300  0.69428400  1
  Si  Si3  1  0.45856300  0.31568600  0.30571600  1
  Si  Si4  1  0.76367900  0.01990800  0.51377100  1
  Si  Si5  1  0.01990800  0.76367900  0.48622900  1
  Si  Si6  1  0.26367900  0.51990800  0.98622900  1
  Si  Si7  1  0.51990800  0.26367900  0.01377100  1
  Si  Si8  1  0.70340100  0.08077800  0.04686300  1
  Si  Si9  1  0.20340100  0.58077800  0.45313700  1
  Si  Si10  1  0.08077800  0.70340100  0.95313700  1
  Si  Si11  1  0.58077800  0.20340100  0.54686300  1
  Si  Si12  1  0.41922200  0.79659900  0.45313700  1
  Si  Si13  1  0.91922200  0.29659900  0.04686300  1
  Si  Si14  1  0.29659900  0.91922200  0.95313700  1
  Si  Si15  1  0.79659900  0.41922200  0.54686300  1
  Si  Si16  1  0.73632100  0.48009200  0.01377100  1
  Si  Si17  1  0.23632100  0.98009200  0.48622900  1
  Si  Si18  1  0.98009200  0.23632100  0.51377100  1
  Si  Si19  1  0.48009200  0.73632100  0.98622900  1
  Si  Si20  1  0.54143700  0.68431400  0.69428400  1
  Si  Si21  1  0.68431400  0.54143700  0.30571600  1
  Si  Si22  1  0.95856300  0.81568600  0.19428400  1
  Si  Si23  1  0.81568600  0.95856300  0.80571600  1
  O  O0  1  0.27237400  0.00555400  0.07754800  1
  O  O1  1  0.00555400  0.27237400  0.92245200  1
  O  O2  1  0.25831000  0.02535100  0.33095200  1
  O  O3  1  0.02535100  0.25831000  0.66904800  1
  O  O4  1  0.14967100  0.17294800  0.16582900  1
  O  O5  1  0.17294800  0.14967100  0.83417100  1
  O  O6  1  0.09542500  0.25650000  0.41784600  1
  O  O7  1  0.25650000  0.09542500  0.58215400  1
  O  O8  1  0.64503100  0.00763500  0.17358800  1
  O  O9  1  0.14503100  0.50763500  0.32641200  1
  O  O10  1  0.00763500  0.64503100  0.82641200  1
  O  O11  1  0.50763500  0.14503100  0.67358800  1
  O  O12  1  0.24350000  0.40457500  0.08215400  1
  O  O13  1  0.40457500  0.24350000  0.91784600  1
  O  O14  1  0.35032900  0.32705200  0.66582900  1
  O  O15  1  0.32705200  0.35032900  0.33417100  1
  O  O16  1  0.47464900  0.24169000  0.16904800  1
  O  O17  1  0.24169000  0.47464900  0.83095200  1
  O  O18  1  0.22762600  0.49444600  0.57754800  1
  O  O19  1  0.49444600  0.22762600  0.42245200  1
  O  O20  1  0.11401500  0.66851700  0.51296500  1
  O  O21  1  0.16851700  0.61401500  0.01296500  1
  O  O22  1  0.66851700  0.11401500  0.48703500  1
  O  O23  1  0.61401500  0.16851700  0.98703500  1
  O  O24  1  0.59796200  0.40203800  0.99296500  1
  O  O25  1  0.33861000  0.66139000  0.41042300  1
  O  O26  1  0.94767500  0.05232500  0.80124300  1
  O  O27  1  0.55232500  0.44767500  0.30124300  1
  O  O28  1  0.05232500  0.94767500  0.19875700  1
  O  O29  1  0.09796200  0.90203800  0.50703500  1
  O  O30  1  0.90203800  0.09796200  0.49296500  1
  O  O31  1  0.16139000  0.83861000  0.91042300  1
  O  O32  1  0.44767500  0.55232500  0.69875700  1
  O  O33  1  0.40203800  0.59796200  0.00703500  1
  O  O34  1  0.83861000  0.16139000  0.08957700  1
  O  O35  1  0.66139000  0.33861000  0.58957700  1
  O  O36  1  0.88598500  0.33148300  0.48703500  1
  O  O37  1  0.33148300  0.88598500  0.51296500  1
  O  O38  1  0.38598500  0.83148300  0.01296500  1
  O  O39  1  0.83148300  0.38598500  0.98703500  1
  O  O40  1  0.77237400  0.50555400  0.42245200  1
  O  O41  1  0.50555400  0.77237400  0.57754800  1
  O  O42  1  0.52535100  0.75831000  0.83095200  1
  O  O43  1  0.75831000  0.52535100  0.16904800  1
  O  O44  1  0.64967100  0.67294800  0.33417100  1
  O  O45  1  0.67294800  0.64967100  0.66582900  1
  O  O46  1  0.75650000  0.59542500  0.91784600  1
  O  O47  1  0.59542500  0.75650000  0.08215400  1
  O  O48  1  0.99236500  0.35496900  0.17358800  1
  O  O49  1  0.35496900  0.99236500  0.82641200  1
  O  O50  1  0.49236500  0.85496900  0.32641200  1
  O  O51  1  0.85496900  0.49236500  0.67358800  1
  O  O52  1  0.74350000  0.90457500  0.41784600  1
  O  O53  1  0.90457500  0.74350000  0.58215400  1
  O  O54  1  0.82705200  0.85032900  0.16582900  1
  O  O55  1  0.85032900  0.82705200  0.83417100  1
  O  O56  1  0.97464900  0.74169000  0.33095200  1
  O  O57  1  0.74169000  0.97464900  0.66904800  1
  O  O58  1  0.72762600  0.99444600  0.92245200  1
  O  O59  1  0.99444600  0.72762600  0.07754800  1
loop_
_geom_bond_atom_site_label_1
_geom_bond_atom_site_label_2
_geom_bond_distance
_geom_bond_site_symmetry_2
Li0 O12 2.004679 1_555
Li0 O13 2.004679 1_554
Li0 O5 2.041731 1_554
Li0 O4 2.041731 1_555
Li1 O50 1.935012 1_545
Li1 O8 1.935012 1_555
Li2 O51 1.935012 1_455
Li2 O10 1.935012 1_555
Li3 O7 2.004679 1_555
Li3 O6 2.004679 1_555
Li3 O14 2.041731 1_555
Li3 O15 2.041731 1_555
Li4 O25 2.053202 1_555
Li4 O27 2.058311 1_555
Li4 O15 2.558478 1_555
Li4 O44 2.558478 1_555
Li5 O35 2.053202 1_555
Li5 O32 2.058311 1_555
Li5 O45 2.558478 1_555
Li5 O14 2.558478 1_555
Li6 O31 2.053202 1_555
Li6 O26 2.058311 1_465
Li6 O55 2.558478 1_455
Li6 O5 2.558478 1_565
Li7 O34 2.053202 1_555
Li7 O28 2.058311 1_645
Li7 O54 2.558478 1_545
Li7 O4 2.558478 1_655
Li8 O53 2.004679 1_555
Li8 O52 2.004679 1_555
Li8 O45 2.041731 1_555
Li8 O44 2.041731 1_555
Li9 O49 1.935012 1_555
Li9 O11 1.935012 1_565
Li10 O48 1.935012 1_555
Li10 O9 1.935012 1_655
Li11 O47 2.004679 1_555
Li11 O46 2.004679 1_554
Li11 O54 2.041731 1_555
Li11 O55 2.041731 1_554
Fe0 O6 2.016766 1_555
Fe0 O12 2.016766 1_555
Fe0 O9 2.038768 1_555
Fe0 O48 2.038768 1_455
Fe0 O15 2.049835 1_555
Fe0 O4 2.049835 1_555
Fe1 O13 2.016766 1_555
Fe1 O7 2.016766 1_555
Fe1 O11 2.038768 1_555
Fe1 O49 2.038768 1_545
Fe1 O5 2.049835 1_555
Fe1 O14 2.049835 1_555
Fe2 O46 2.016766 1_555
Fe2 O53 2.016766 1_555
Fe2 O10 2.038768 1_655
Fe2 O51 2.038768 1_555
Fe2 O45 2.049835 1_555
Fe2 O55 2.049835 1_555
Fe3 O52 2.016766 1_555
Fe3 O47 2.016766 1_555
Fe3 O8 2.038768 1_565
Fe3 O50 2.038768 1_555
Fe3 O44 2.049835 1_555
Fe3 O54 2.049835 1_555
O0 Si0 1.631920 1_555
O0 Si14 1.638258 1_544
O1 Si1 1.631920 1_555
O1 Si13 1.638258 1_456
O2 Si0 1.639751 1_555
O2 Si17 1.660637 1_545
O3 Si1 1.639751 1_555
O3 Si18 1.660637 1_455
O4 Si0 1.605068 1_555
O5 Si1 1.605068 1_555
O6 Si18 1.597876 1_455
O7 Si17 1.597876 1_545
O8 Si8 1.600602 1_555
O9 Si9 1.600602 1_555
O10 Si10 1.600602 1_555
O11 Si11 1.600602 1_555
O12 Si6 1.597876 1_554
O13 Si7 1.597876 1_556
O14 Si2 1.605068 1_555
O15 Si3 1.605068 1_555
O16 Si3 1.639751 1_555
O16 Si7 1.660637 1_555
O17 Si2 1.639751 1_555
O17 Si6 1.660637 1_555
O18 Si2 1.631920 1_555
O18 Si9 1.638258 1_555
O19 Si3 1.631920 1_555
O19 Si11 1.638258 1_555
O20 Si9 1.628760 1_555
O20 Si5 1.637491 1_555
O21 Si10 1.628760 1_554
O21 Si6 1.637491 1_554
O22 Si11 1.628760 1_555
O22 Si4 1.637491 1_555
O23 Si8 1.628760 1_556
O23 Si7 1.637491 1_556
O24 Si16 1.649544 1_556
O24 Si7 1.649544 1_556
O25 Si12 1.674374 1_555
O25 Si9 1.674374 1_555
O26 Si23 1.653086 1_545
O26 Si1 1.653086 1_655
O27 Si21 1.653086 1_555
O27 Si3 1.653086 1_555
O28 Si22 1.653086 1_455
O28 Si0 1.653086 1_565
O29 Si17 1.649544 1_555
O29 Si5 1.649544 1_555
O30 Si18 1.649544 1_555
O30 Si4 1.649544 1_555
O31 Si14 1.674374 1_555
O31 Si10 1.674374 1_555
O32 Si20 1.653086 1_555
O32 Si2 1.653086 1_555
O33 Si19 1.649544 1_554
O33 Si6 1.649544 1_554
O34 Si13 1.674374 1_555
O34 Si8 1.674374 1_555
O35 Si15 1.674374 1_555
O35 Si11 1.674374 1_555
O36 Si15 1.628760 1_555
O36 Si18 1.637491 1_555
O37 Si12 1.628760 1_555
O37 Si17 1.637491 1_555
O38 Si14 1.628760 1_554
O38 Si19 1.637491 1_554
O39 Si13 1.628760 1_556
O39 Si16 1.637491 1_556
O40 Si21 1.631920 1_555
O40 Si15 1.638258 1_555
O41 Si20 1.631920 1_555
O41 Si12 1.638258 1_555
O42 Si20 1.639751 1_555
O42 Si19 1.660637 1_555
O43 Si21 1.639751 1_555
O43 Si16 1.660637 1_555
O44 Si21 1.605068 1_555
O45 Si20 1.605068 1_555
O46 Si16 1.597876 1_556
O47 Si19 1.597876 1_554
O48 Si13 1.600602 1_555
O49 Si14 1.600602 1_555
O50 Si12 1.600602 1_555
O51 Si15 1.600602 1_555
O52 Si4 1.597876 1_565
O53 Si5 1.597876 1_655
O54 Si22 1.605068 1_555
O55 Si23 1.605068 1_555
O56 Si22 1.639751 1_555
O56 Si5 1.660637 1_655
O57 Si23 1.639751 1_555
O57 Si4 1.660637 1_565
O58 Si23 1.631920 1_555
O58 Si8 1.638258 1_566
O59 Si22 1.631920 1_555
O59 Si10 1.638258 1_654
