# generated using pymatgen
data_Li3V2P2O8F3
_symmetry_space_group_name_H-M   'P 1'
_cell_length_a   8.92293000
_cell_length_b   9.21006700
_cell_length_c   10.50715900
_cell_angle_alpha   90.00000000
_cell_angle_beta   90.00000000
_cell_angle_gamma   90.00000000
_symmetry_Int_Tables_number   1
_chemical_formula_structural   Li3V2P2O8F3
_chemical_formula_sum   'Li12 V8 P8 O32 F12'
_cell_volume   863.48655516
_cell_formula_units_Z   4
loop_
 _symmetry_equiv_pos_site_id
 _symmetry_equiv_pos_as_xyz
  1  'x, y, z'
loop_
 _atom_site_type_symbol
 _atom_site_label
 _atom_site_symmetry_multiplicity
 _atom_site_fract_x
 _atom_site_fract_y
 _atom_site_fract_z
 _atom_site_occupancy
  Li  Li0  1  0.03692000  0.28234500  0.50000000  1
  Li  Li1  1  0.06208100  0.81419900  0.00000000  1
  Li  Li2  1  0.23096700  0.49283400  0.00000000  1
  Li  Li3  1  0.26903300  0.99283400  0.50000000  1
  Li  Li4  1  0.43791900  0.31419900  0.50000000  1
  Li  Li5  1  0.46308000  0.78234500  0.00000000  1
  Li  Li6  1  0.53692000  0.21765500  0.00000000  1
  Li  Li7  1  0.56208100  0.68580100  0.50000000  1
  Li  Li8  1  0.73096700  0.00716600  0.50000000  1
  Li  Li9  1  0.76903300  0.50716600  0.00000000  1
  Li  Li10  1  0.93791900  0.18580100  0.00000000  1
  Li  Li11  1  0.96308000  0.71765500  0.50000000  1
  V  V0  1  0.25097600  0.24898300  0.18534400  1
  V  V1  1  0.25097600  0.24898300  0.81465600  1
  V  V2  1  0.24902400  0.74898300  0.31465600  1
  V  V3  1  0.24902400  0.74898300  0.68534400  1
  V  V4  1  0.75097600  0.25101700  0.31465600  1
  V  V5  1  0.75097600  0.25101700  0.68534400  1
  V  V6  1  0.74902400  0.75101700  0.81465600  1
  V  V7  1  0.74902400  0.75101700  0.18534400  1
  P  P0  1  0.00000000  0.00000000  0.27462300  1
  P  P1  1  0.00000000  0.50000000  0.26366000  1
  P  P2  1  0.00000000  0.00000000  0.72537700  1
  P  P3  1  0.00000000  0.50000000  0.73634000  1
  P  P4  1  0.50000000  0.50000000  0.22537700  1
  P  P5  1  0.50000000  0.00000000  0.23634000  1
  P  P6  1  0.50000000  0.00000000  0.76366000  1
  P  P7  1  0.50000000  0.50000000  0.77462300  1
  O  O0  1  0.07653200  0.61307100  0.64757100  1
  O  O1  1  0.07653200  0.61307100  0.35242900  1
  O  O2  1  0.09095600  0.09944400  0.81645700  1
  O  O3  1  0.09095600  0.09944400  0.18354300  1
  O  O4  1  0.09853200  0.90681900  0.63644900  1
  O  O5  1  0.09853200  0.90681900  0.36355100  1
  O  O6  1  0.11363100  0.42358300  0.82390800  1
  O  O7  1  0.11363100  0.42358300  0.17609200  1
  O  O8  1  0.38636900  0.92358300  0.67609200  1
  O  O9  1  0.38636900  0.92358300  0.32390800  1
  O  O10  1  0.40146800  0.40681900  0.13644900  1
  O  O11  1  0.40146800  0.40681900  0.86355100  1
  O  O12  1  0.40904400  0.59944400  0.68354300  1
  O  O13  1  0.40904400  0.59944400  0.31645700  1
  O  O14  1  0.42346800  0.11307100  0.85242900  1
  O  O15  1  0.42346800  0.11307100  0.14757100  1
  O  O16  1  0.57653200  0.88692900  0.14757100  1
  O  O17  1  0.57653200  0.88692900  0.85242900  1
  O  O18  1  0.59095600  0.40055600  0.68354300  1
  O  O19  1  0.59095600  0.40055600  0.31645700  1
  O  O20  1  0.59853200  0.59318100  0.86355100  1
  O  O21  1  0.59853200  0.59318100  0.13644900  1
  O  O22  1  0.61363100  0.07641700  0.67609200  1
  O  O23  1  0.61363100  0.07641700  0.32390800  1
  O  O24  1  0.88636900  0.57641700  0.17609200  1
  O  O25  1  0.88636900  0.57641700  0.82390800  1
  O  O26  1  0.90146800  0.09318100  0.63644900  1
  O  O27  1  0.90146800  0.09318100  0.36355100  1
  O  O28  1  0.90904400  0.90055600  0.18354300  1
  O  O29  1  0.90904400  0.90055600  0.81645700  1
  O  O30  1  0.92346800  0.38692900  0.64757100  1
  O  O31  1  0.92346800  0.38692900  0.35242900  1
  F  F0  1  0.27729400  0.24733800  0.37593000  1
  F  F1  1  0.27729400  0.24733800  0.62407000  1
  F  F2  1  0.19918100  0.25079800  0.00000000  1
  F  F3  1  0.30081900  0.75079800  0.50000000  1
  F  F4  1  0.22270600  0.74733800  0.87593000  1
  F  F5  1  0.22270600  0.74733800  0.12407000  1
  F  F6  1  0.77729400  0.25266200  0.87593000  1
  F  F7  1  0.77729400  0.25266200  0.12407000  1
  F  F8  1  0.69918100  0.24920200  0.50000000  1
  F  F9  1  0.80081900  0.74920200  0.00000000  1
  F  F10  1  0.72270600  0.75266200  0.62407000  1
  F  F11  1  0.72270600  0.75266200  0.37593000  1
loop_
_geom_bond_atom_site_label_1
_geom_bond_atom_site_label_2
_geom_bond_distance
_geom_bond_site_symmetry_2
Li0 O30 2.087299 1_455
Li0 O31 2.087299 1_455
Li0 O27 2.559602 1_455
Li0 O26 2.559602 1_455
Li1 O28 2.493282 1_455
Li1 O29 2.493282 1_454
Li2 O7 2.219528 1_555
Li2 O6 2.219528 1_554
Li2 O10 2.235536 1_555
Li2 O11 2.235536 1_554
Li3 O9 2.219528 1_555
Li3 O8 2.219528 1_555
Li3 O5 2.235536 1_555
Li3 O4 2.235536 1_555
Li4 O18 2.493282 1_555
Li4 O19 2.493282 1_555
Li5 O17 2.087299 1_554
Li5 O16 2.087299 1_555
Li5 O21 2.559602 1_555
Li5 O20 2.559602 1_554
Li6 O14 2.087299 1_554
Li6 O15 2.087299 1_555
Li6 O10 2.559602 1_555
Li6 O11 2.559602 1_554
Li7 O12 2.493282 1_555
Li7 O13 2.493282 1_555
Li8 O22 2.219528 1_555
Li8 O23 2.219528 1_555
Li8 O27 2.235536 1_555
Li8 O26 2.235536 1_555
Li9 O24 2.219528 1_555
Li9 O25 2.219528 1_554
Li9 O21 2.235536 1_555
Li9 O20 2.235536 1_554
Li10 O3 2.493282 1_655
Li10 O2 2.493282 1_654
Li11 O1 2.087299 1_655
Li11 O0 2.087299 1_655
Li11 O5 2.559602 1_655
Li11 O4 2.559602 1_655
O0 P3 1.555886 1_555
O0 V3 2.023204 1_555
O1 P1 1.555886 1_555
O1 V2 2.023204 1_555
O2 P2 1.553501 1_555
O2 V1 1.983926 1_555
O3 P0 1.553501 1_555
O3 V0 1.983926 1_555
O4 P2 1.543555 1_565
O4 V3 2.044582 1_555
O5 P0 1.543555 1_565
O5 V2 2.044582 1_555
O6 P3 1.539463 1_555
O6 V1 2.024170 1_555
O7 P1 1.539463 1_555
O7 V0 2.024170 1_555
O8 P6 1.539463 1_565
O8 V3 2.024170 1_555
O9 P5 1.539463 1_565
O9 V2 2.024170 1_555
O10 P4 1.543555 1_555
O10 V0 2.044582 1_555
O11 P7 1.543555 1_555
O11 V1 2.044582 1_555
O12 P7 1.553501 1_555
O12 V3 1.983926 1_555
O13 P4 1.553501 1_555
O13 V2 1.983926 1_555
O14 P6 1.555886 1_555
O14 V1 2.023204 1_555
O15 P5 1.555886 1_555
O15 V0 2.023204 1_555
O16 P5 1.555886 1_565
O16 V7 2.023204 1_555
O17 P6 1.555886 1_565
O17 V6 2.023204 1_555
O18 P7 1.553501 1_555
O18 V5 1.983926 1_555
O19 P4 1.553501 1_555
O19 V4 1.983926 1_555
O20 P7 1.543555 1_555
O20 V6 2.044582 1_555
O21 P4 1.543555 1_555
O21 V7 2.044582 1_555
O22 P6 1.539463 1_555
O22 V5 2.024170 1_555
O23 P5 1.539463 1_555
O23 V4 2.024170 1_555
O24 P1 1.539463 1_655
O24 V7 2.024170 1_555
O25 P3 1.539463 1_655
O25 V6 2.024170 1_555
O26 P2 1.543555 1_655
O26 V5 2.044582 1_555
O27 P0 1.543555 1_655
O27 V4 2.044582 1_555
O28 P0 1.553501 1_665
O28 V7 1.983926 1_555
O29 P2 1.553501 1_665
O29 V6 1.983926 1_555
O30 P3 1.555886 1_655
O30 V5 2.023204 1_555
O31 P1 1.555886 1_655
O31 V4 2.023204 1_555
F0 V0 2.016297 1_555
F0 Li4 2.032936 1_555
F0 Li0 2.530559 1_555
F1 V1 2.016297 1_555
F1 Li4 2.032936 1_555
F1 Li0 2.530559 1_555
F2 V1 2.001597 1_554
F2 V0 2.001597 1_555
F2 Li2 2.247139 1_555
F2 Li10 2.406855 1_455
F3 V3 2.001597 1_555
F3 V2 2.001597 1_555
F3 Li3 2.247139 1_555
F3 Li7 2.406855 1_555
F4 V3 2.016297 1_555
F4 Li1 2.032936 1_556
F4 Li5 2.530559 1_556
F5 V2 2.016297 1_555
F5 Li1 2.032936 1_555
F5 Li5 2.530559 1_555
F6 V5 2.016297 1_555
F6 Li10 2.032936 1_556
F6 Li6 2.530559 1_556
F7 V4 2.016297 1_555
F7 Li10 2.032936 1_555
F7 Li6 2.530559 1_555
F8 V5 2.001597 1_555
F8 V4 2.001597 1_555
F8 Li8 2.247139 1_555
F8 Li4 2.406855 1_555
F9 V6 2.001597 1_554
F9 V7 2.001597 1_555
F9 Li9 2.247139 1_555
F9 Li1 2.406855 1_655
F10 V6 2.016297 1_555
F10 Li7 2.032936 1_555
F10 Li11 2.530559 1_555
F11 V7 2.016297 1_555
F11 Li7 2.032936 1_555
F11 Li11 2.530559 1_555
