# generated using pymatgen
data_LiMn7O12
_symmetry_space_group_name_H-M   'P 1'
_cell_length_a   5.17499403
_cell_length_b   5.17499403
_cell_length_c   9.98316761
_cell_angle_alpha   83.90584038
_cell_angle_beta   83.90584038
_cell_angle_gamma   119.42770785
_symmetry_Int_Tables_number   1
_chemical_formula_structural   LiMn7O12
_chemical_formula_sum   'Li1 Mn7 O12'
_cell_volume   227.64189569
_cell_formula_units_Z   1
loop_
 _symmetry_equiv_pos_site_id
 _symmetry_equiv_pos_as_xyz
  1  'x, y, z'
loop_
 _atom_site_type_symbol
 _atom_site_label
 _atom_site_symmetry_multiplicity
 _atom_site_fract_x
 _atom_site_fract_y
 _atom_site_fract_z
 _atom_site_occupancy
  Li  Li0  1  0.07618100  0.92381900  0.00000000  1
  Mn  Mn0  1  0.92161500  0.07838500  0.50000000  1
  Mn  Mn1  1  0.74626500  0.25373500  0.00000000  1
  Mn  Mn2  1  0.58578400  0.41421600  0.50000000  1
  Mn  Mn3  1  0.42256600  0.57743400  0.00000000  1
  Mn  Mn4  1  0.48191200  0.00128000  0.76456300  1
  Mn  Mn5  1  0.25497500  0.74502500  0.50000000  1
  Mn  Mn6  1  0.99872000  0.51808800  0.23543700  1
  O  O0  1  0.81935300  0.33778100  0.61790300  1
  O  O1  1  0.96110200  0.75813400  0.39419500  1
  O  O2  1  0.70890600  0.53110700  0.10107000  1
  O  O3  1  0.66221900  0.18064700  0.38209700  1
  O  O4  1  0.46889300  0.29109400  0.89893000  1
  O  O5  1  0.74545900  0.95920900  0.88930700  1
  O  O6  1  0.24186600  0.03889800  0.60580500  1
  O  O7  1  0.55308500  0.72182500  0.59612800  1
  O  O8  1  0.35990200  0.82808400  0.11710000  1
  O  O9  1  0.27817500  0.44691500  0.40387200  1
  O  O10  1  0.04079100  0.25454100  0.11069300  1
  O  O11  1  0.17191600  0.64009800  0.88290000  1
loop_
_geom_bond_atom_site_label_1
_geom_bond_atom_site_label_2
_geom_bond_distance
_geom_bond_site_symmetry_2
Li0 O4 2.030393 1_564
Li0 O2 2.030393 1_455
Li0 O11 2.173502 1_554
Li0 O8 2.173502 1_555
Li0 O10 2.202385 1_565
Li0 O5 2.202385 1_454
Mn0 O9 1.933989 1_655
Mn0 O7 1.933989 1_545
Mn0 O0 2.090155 1_555
Mn0 O3 2.090155 1_555
Mn0 O6 2.136056 1_655
Mn0 O1 2.136056 1_545
Mn1 O4 1.911705 1_554
Mn1 O2 1.911705 1_555
Mn1 O5 1.973990 1_544
Mn1 O10 1.973990 1_655
Mn1 O11 2.201263 1_654
Mn1 O8 2.201263 1_545
Mn2 O0 1.917273 1_555
Mn2 O3 1.917273 1_555
Mn2 O6 1.955538 1_555
Mn2 O1 1.955538 1_555
Mn2 O7 2.009535 1_555
Mn2 O9 2.009535 1_555
Mn3 O8 1.951691 1_555
Mn3 O11 1.951691 1_554
Mn3 O5 1.953709 1_554
Mn3 O10 1.953709 1_555
Mn3 O2 1.971419 1_555
Mn3 O4 1.971419 1_554
Mn4 O11 1.909211 1_545
Mn4 O5 2.013259 1_545
Mn4 O0 2.037931 1_555
Mn4 O4 2.135542 1_555
Mn4 O6 2.164056 1_555
Mn4 O7 2.441889 1_545
Mn5 O9 1.946080 1_555
Mn5 O7 1.946080 1_555
Mn5 O6 1.964777 1_565
Mn5 O1 1.964777 1_455
Mn5 O0 2.269434 1_455
Mn5 O3 2.269434 1_565
Mn6 O8 1.909211 1_655
Mn6 O10 2.013259 1_655
Mn6 O3 2.037931 1_555
Mn6 O2 2.135542 1_555
Mn6 O1 2.164056 1_555
Mn6 O9 2.441889 1_655
