# generated using pymatgen
data_Na2NiCSO7
_symmetry_space_group_name_H-M   'P 1'
_cell_length_a   5.25662307
_cell_length_b   11.21346797
_cell_length_c   11.21326946
_cell_angle_alpha   106.84369761
_cell_angle_beta   91.64133023
_cell_angle_gamma   88.35754960
_symmetry_Int_Tables_number   1
_chemical_formula_structural   Na2NiCSO7
_chemical_formula_sum   'Na8 Ni4 C4 S4 O28'
_cell_volume   632.20684224
_cell_formula_units_Z   4
loop_
 _symmetry_equiv_pos_site_id
 _symmetry_equiv_pos_as_xyz
  1  'x, y, z'
loop_
 _atom_site_type_symbol
 _atom_site_label
 _atom_site_symmetry_multiplicity
 _atom_site_fract_x
 _atom_site_fract_y
 _atom_site_fract_z
 _atom_site_occupancy
  Na  Na0  1  0.23073500  0.60580100  0.39180400  1
  Na  Na1  1  0.23076600  0.10578100  0.89178300  1
  Na  Na2  1  0.23071900  0.35822600  0.14421700  1
  Na  Na3  1  0.23078700  0.85818100  0.64418100  1
  Na  Na4  1  0.76928300  0.64176700  0.85576400  1
  Na  Na5  1  0.76919400  0.14180700  0.35579400  1
  Na  Na6  1  0.76927900  0.39419300  0.60818100  1
  Na  Na7  1  0.76919500  0.89420900  0.10820800  1
  Ni  Ni0  1  0.77765400  0.05227400  0.69790000  1
  Ni  Ni1  1  0.22240700  0.94782400  0.30222700  1
  Ni  Ni2  1  0.77733300  0.55225600  0.19773100  1
  Ni  Ni3  1  0.22274900  0.44777500  0.80230500  1
  C  C0  1  0.72233400  0.41727100  0.33274100  1
  C  C1  1  0.72237900  0.91718400  0.83276100  1
  C  C2  1  0.27766500  0.58272600  0.66724300  1
  C  C3  1  0.27758400  0.08281300  0.16720900  1
  S  S0  1  0.72389100  0.33676300  0.91323500  1
  S  S1  1  0.72379500  0.83680000  0.41323400  1
  S  S2  1  0.27611000  0.66325700  0.08677300  1
  S  S3  1  0.27622300  0.16320100  0.58677900  1
  O  O0  1  0.31003600  0.15191200  0.09807300  1
  O  O1  1  0.31003900  0.65184200  0.59813800  1
  O  O2  1  0.68995400  0.84806700  0.90193200  1
  O  O3  1  0.68993300  0.34813600  0.40185600  1
  O  O4  1  0.94718200  0.44673800  0.30326600  1
  O  O5  1  0.94726200  0.94663300  0.80337300  1
  O  O6  1  0.05282600  0.55324200  0.69674200  1
  O  O7  1  0.05271500  0.05336700  0.19662600  1
  O  O8  1  0.53129300  0.46701400  0.28293500  1
  O  O9  1  0.53136100  0.96697700  0.78300100  1
  O  O10  1  0.46872600  0.53298300  0.71705200  1
  O  O11  1  0.46864700  0.03302800  0.21699800  1
  O  O12  1  0.15746200  0.58896200  0.16108700  1
  O  O13  1  0.15759700  0.08895400  0.66110100  1
  O  O14  1  0.84256700  0.41102600  0.83890000  1
  O  O15  1  0.84238200  0.91104300  0.33888300  1
  O  O16  1  0.43846100  0.34793600  0.90212300  1
  O  O17  1  0.43829400  0.84804600  0.40208000  1
  O  O18  1  0.56155500  0.65205200  0.09787500  1
  O  O19  1  0.56166300  0.15194000  0.59789900  1
  O  O20  1  0.80520200  0.20376600  0.86621800  1
  O  O21  1  0.80505000  0.70378600  0.36613600  1
  O  O22  1  0.80537900  0.38379200  0.04621400  1
  O  O23  1  0.80538700  0.88380700  0.54620900  1
  O  O24  1  0.19464000  0.61618700  0.95377600  1
  O  O25  1  0.19458700  0.11620200  0.45379400  1
  O  O26  1  0.19478300  0.79624800  0.13379100  1
  O  O27  1  0.19493300  0.29620500  0.63385200  1
loop_
_geom_bond_atom_site_label_1
_geom_bond_atom_site_label_2
_geom_bond_distance
_geom_bond_site_symmetry_2
Na0 O1 2.249061 1_555
Na0 O8 2.297168 1_555
Na0 O4 2.330267 1_455
Na0 O21 2.510514 1_455
Na0 O12 2.557546 1_555
Na0 O17 2.926406 1_555
Na1 O0 2.248497 1_556
Na1 O9 2.297051 1_545
Na1 O5 2.330463 1_445
Na1 O20 2.509708 1_455
Na1 O13 2.557120 1_555
Na1 O16 2.925583 1_555
Na2 O0 2.248815 1_555
Na2 O8 2.296544 1_555
Na2 O4 2.330002 1_455
Na2 O22 2.508776 1_455
Na2 O12 2.557708 1_555
Na2 O16 2.925116 1_554
Na3 O1 2.249099 1_555
Na3 O9 2.297152 1_555
Na3 O5 2.330895 1_455
Na3 O23 2.509042 1_455
Na3 O13 2.557953 1_565
Na3 O17 2.925114 1_555
Na4 O2 2.248658 1_555
Na4 O10 2.296433 1_555
Na4 O6 2.329850 1_655
Na4 O24 2.508933 1_655
Na4 O14 2.557796 1_555
Na4 O18 2.925277 1_556
Na5 O3 2.248986 1_555
Na5 O11 2.296852 1_555
Na5 O7 2.330679 1_655
Na5 O25 2.509099 1_655
Na5 O15 2.557874 1_545
Na5 O19 2.925211 1_555
Na6 O3 2.248989 1_555
Na6 O10 2.297175 1_555
Na6 O6 2.330190 1_655
Na6 O27 2.510394 1_655
Na6 O14 2.557592 1_555
Na6 O19 2.926593 1_555
Na7 O2 2.248314 1_554
Na7 O11 2.296998 1_565
Na7 O7 2.330608 1_665
Na7 O26 2.509742 1_655
Na7 O15 2.557038 1_555
Na7 O18 2.925507 1_555
Ni0 O9 2.042629 1_545
Ni0 O5 2.070730 1_545
Ni0 O19 2.091918 1_555
Ni0 O13 2.126260 1_655
Ni0 O20 2.146940 1_555
Ni0 O23 2.149288 1_545
Ni1 O11 2.042688 1_565
Ni1 O7 2.071149 1_565
Ni1 O17 2.091364 1_555
Ni1 O15 2.126539 1_455
Ni1 O25 2.147923 1_565
Ni1 O26 2.148331 1_555
Ni2 O8 2.042085 1_555
Ni2 O4 2.070738 1_555
Ni2 O18 2.091230 1_555
Ni2 O12 2.126789 1_655
Ni2 O21 2.147860 1_555
Ni2 O22 2.148324 1_555
Ni3 O10 2.041971 1_555
Ni3 O6 2.070706 1_555
Ni3 O16 2.091090 1_555
Ni3 O14 2.127035 1_455
Ni3 O24 2.147691 1_555
Ni3 O27 2.148484 1_555
C0 O3 1.262522 1_555
C0 O4 1.312806 1_555
C0 O8 1.322049 1_555
C1 O2 1.262883 1_555
C1 O5 1.312562 1_555
C1 O9 1.321983 1_555
C2 O1 1.262239 1_555
C2 O6 1.312924 1_555
C2 O10 1.322144 1_555
C3 O0 1.262434 1_555
C3 O7 1.312597 1_555
C3 O11 1.322281 1_555
O12 S2 1.496437 1_555
O13 S3 1.496058 1_555
O14 S0 1.496413 1_555
O15 S1 1.496170 1_555
O16 S0 1.506645 1_555
O17 S1 1.507116 1_555
O18 S2 1.506742 1_555
O19 S3 1.506782 1_555
O20 S0 1.485093 1_555
O21 S1 1.485250 1_555
O22 S0 1.485161 1_554
O23 S1 1.485251 1_555
O24 S2 1.485349 1_556
O25 S3 1.485407 1_555
O26 S2 1.485056 1_555
O27 S3 1.485179 1_555
