# generated using pymatgen
data_Sr2La14Mg4(Ga4O15)3
_symmetry_space_group_name_H-M   'P 1'
_cell_length_a   5.57924200
_cell_length_b   5.58209379
_cell_length_c   36.60483755
_cell_angle_alpha   94.01365521
_cell_angle_beta   90.29441572
_cell_angle_gamma   119.43507022
_symmetry_Int_Tables_number   1
_chemical_formula_structural   Sr2La14Mg4(Ga4O15)3
_chemical_formula_sum   'Sr2 La14 Mg4 Ga12 O45'
_cell_volume   989.39346692
_cell_formula_units_Z   1
loop_
 _symmetry_equiv_pos_site_id
 _symmetry_equiv_pos_as_xyz
  1  'x, y, z'
loop_
 _atom_site_type_symbol
 _atom_site_label
 _atom_site_symmetry_multiplicity
 _atom_site_fract_x
 _atom_site_fract_y
 _atom_site_fract_z
 _atom_site_occupancy
  Sr  Sr0  1  0.15771500  0.62754200  0.90344000  1
  Sr  Sr1  1  0.02865700  0.12513800  0.77705300  1
  La  La0  1  0.68893700  0.86144500  0.97093600  1
  La  La1  1  0.56272200  0.36427100  0.84555800  1
  La  La2  1  0.95708600  0.65555000  0.65181900  1
  La  La3  1  0.44011600  0.86201500  0.71965200  1
  La  La4  1  0.79033800  0.13032300  0.53072100  1
  La  La5  1  0.34795300  0.37661900  0.59524400  1
  La  La6  1  0.66414200  0.62956200  0.40529700  1
  La  La7  1  0.21099000  0.87029100  0.46961000  1
  La  La8  1  0.53896300  0.12949500  0.28043800  1
  La  La9  1  0.08541900  0.37010600  0.34485800  1
  La  La10  1  0.41491600  0.63030100  0.15499000  1
  La  La11  1  0.96027300  0.86985900  0.21994600  1
  La  La12  1  0.29201000  0.12766400  0.03123500  1
  La  La13  1  0.83429000  0.36825900  0.09624000  1
  Mg  Mg0  1  0.02490900  0.51027000  0.00419800  1
  Mg  Mg1  1  0.89492600  0.00968900  0.87910600  1
  Mg  Mg2  1  0.76774000  0.50824100  0.75377700  1
  Mg  Mg3  1  0.14834200  0.23141100  0.68548500  1
  Ga  Ga0  1  0.40222600  0.23321300  0.93450300  1
  Ga  Ga1  1  0.63191200  0.00186000  0.62512800  1
  Ga  Ga2  1  0.27365000  0.73100800  0.80916300  1
  Ga  Ga3  1  0.93738000  0.24990600  0.43767900  1
  Ga  Ga4  1  0.50028400  0.50016900  0.49996100  1
  Ga  Ga5  1  0.37475500  0.99974600  0.37506600  1
  Ga  Ga6  1  0.06607000  0.75219500  0.56172600  1
  Ga  Ga7  1  0.68690400  0.24979200  0.18795200  1
  Ga  Ga8  1  0.24985100  0.49980500  0.25000400  1
  Ga  Ga9  1  0.56305600  0.74980900  0.06149300  1
  Ga  Ga10  1  0.12697800  0.00100900  0.12510400  1
  Ga  Ga11  1  0.81225000  0.74993700  0.31257900  1
  O  O0  1  0.28406700  0.91686400  0.97564900  1
  O  O1  1  0.60574600  0.10333800  0.90303700  1
  O  O2  1  0.15787800  0.40925800  0.84912400  1
  O  O3  1  0.30220900  0.41249200  0.97263800  1
  O  O4  1  0.47622700  0.60186600  0.77728100  1
  O  O5  1  0.61684800  0.59548700  0.89800500  1
  O  O6  1  0.06428100  0.06941200  0.92041700  1
  O  O7  1  0.01449300  0.89576700  0.72294100  1
  O  O8  1  0.18458800  0.91820500  0.84672800  1
  O  O9  1  0.35619500  0.09171000  0.65153800  1
  O  O10  1  0.48833300  0.09133900  0.77178400  1
  O  O11  1  0.41236600  0.91313800  0.58466800  1
  O  O12  1  0.93342800  0.56992000  0.79563800  1
  O  O13  1  0.89444400  0.41099000  0.60006200  1
  O  O14  1  0.04499100  0.43081100  0.72063300  1
  O  O15  1  0.22026200  0.58413100  0.52664400  1
  O  O16  1  0.38594100  0.59943100  0.64906100  1
  O  O17  1  0.29133600  0.41645100  0.45842200  1
  O  O18  1  0.81714900  0.07861200  0.66506400  1
  O  O19  1  0.75980600  0.90566800  0.47614500  1
  O  O20  1  0.91661600  0.92382700  0.59687700  1
  O  O21  1  0.09421000  0.08276100  0.40217900  1
  O  O22  1  0.24346700  0.09554700  0.52365800  1
  O  O23  1  0.16549800  0.91602300  0.33352200  1
  O  O24  1  0.71019000  0.58463900  0.54132700  1
  O  O25  1  0.63404300  0.40444900  0.35091800  1
  O  O26  1  0.78133000  0.41709200  0.47297000  1
  O  O27  1  0.96943600  0.58289800  0.27716400  1
  O  O28  1  0.11592600  0.59547700  0.39908200  1
  O  O29  1  0.04094000  0.41620200  0.20841700  1
  O  O30  1  0.58511900  0.08422000  0.41638800  1
  O  O31  1  0.50978000  0.90437800  0.22606500  1
  O  O32  1  0.65573200  0.91705000  0.34784900  1
  O  O33  1  0.84559800  0.08339800  0.15215400  1
  O  O34  1  0.99100600  0.09575700  0.27411400  1
  O  O35  1  0.90799500  0.91327600  0.08294900  1
  O  O36  1  0.45958700  0.58396000  0.29147700  1
  O  O37  1  0.38823400  0.40230900  0.10124700  1
  O  O38  1  0.53095200  0.41713100  0.22300600  1
  O  O39  1  0.71463700  0.58538400  0.02397300  1
  O  O40  1  0.86687600  0.59809000  0.14939300  1
  O  O41  1  0.33575400  0.08412000  0.16686800  1
  O  O42  1  0.40688100  0.91961400  0.09809500  1
  O  O43  1  0.73206700  0.10041100  0.02132500  1
  O  O44  1  0.21302800  0.58560100  0.04479400  1
loop_
_geom_bond_atom_site_label_1
_geom_bond_atom_site_label_2
_geom_bond_distance
_geom_bond_site_symmetry_2
La0 O43 2.138903 1_566
La0 O3 2.376641 1_555
La0 O0 2.431317 1_555
La0 O39 2.607188 1_556
La0 O6 2.665267 1_665
La0 O5 2.887903 1_555
La0 O1 3.047943 1_565
La0 O0 3.182359 1_655
La1 O5 2.169515 1_555
La1 O8 2.346357 1_545
La1 O2 2.395385 1_555
La1 O12 2.633145 1_555
La1 O1 2.715416 1_555
La1 O10 2.928663 1_555
La1 O4 3.052693 1_555
La1 O2 3.205828 1_655
La2 O13 2.176542 1_555
La2 O9 2.358245 1_665
La2 O16 2.562816 1_655
La2 O20 2.662258 1_555
La2 O7 2.785496 1_655
La2 O18 2.842086 1_565
La2 O18 2.994581 1_555
La2 O14 3.032116 1_655
La2 O16 3.045259 1_555
La2 O9 3.281728 1_555
La3 O10 2.160296 1_565
La3 O14 2.335031 1_555
La3 O7 2.475575 1_555
La3 O4 2.703965 1_555
La3 O16 2.818344 1_555
La3 O7 3.117501 1_655
La4 O19 2.242424 1_545
La4 O15 2.505453 1_655
La4 O22 2.641581 1_655
La4 O26 2.754187 1_555
La4 O11 2.771545 1_545
La4 O24 2.785805 1_555
La4 O13 2.787156 1_555
La4 O24 2.908217 1_545
La4 O22 2.969278 1_555
La4 O20 2.976702 1_545
La4 O15 3.135986 1_545
La5 O16 2.205953 1_555
La5 O20 2.495514 1_445
La5 O13 2.635717 1_455
La5 O9 2.703208 1_555
La5 O24 2.717213 1_555
La5 O11 2.783463 1_545
La5 O22 2.859678 1_555
La5 O11 2.890384 1_555
La5 O13 2.962957 1_555
La5 O15 3.058562 1_555
La5 O20 3.138032 1_555
La6 O25 2.237963 1_555
La6 O21 2.499469 1_665
La6 O28 2.629192 1_655
La6 O17 2.730657 1_555
La6 O32 2.746821 1_555
La6 O30 2.785274 1_565
La6 O19 2.829072 1_555
La6 O30 2.912346 1_555
La6 O28 2.976235 1_555
La6 O26 3.021137 1_555
La6 O21 3.138257 1_555
La7 O22 2.225346 1_565
La7 O26 2.499508 1_455
La7 O19 2.630781 1_455
La7 O15 2.731263 1_555
La7 O30 2.737885 1_565
La7 O17 2.785588 1_555
La7 O28 2.816275 1_555
La7 O17 2.914921 1_565
La7 O19 2.977158 1_555
La7 O21 3.012720 1_565
La7 O26 3.139161 1_565
La8 O31 2.238843 1_545
La8 O27 2.501833 1_555
La8 O34 2.629937 1_555
La8 O23 2.731789 1_545
La8 O38 2.746215 1_555
La8 O36 2.785258 1_555
La8 O25 2.815029 1_555
La8 O36 2.912285 1_545
La8 O34 2.975930 1_455
La8 O32 3.011998 1_545
La8 O27 3.136305 1_445
La9 O28 2.233344 1_555
La9 O32 2.497491 1_445
La9 O25 2.627218 1_455
La9 O36 2.742303 1_555
La9 O21 2.743197 1_555
La9 O23 2.786470 1_545
La9 O34 2.822519 1_455
La9 O23 2.915294 1_555
La9 O25 2.977487 1_555
La9 O27 3.020069 1_455
La9 O32 3.139946 1_555
La10 O37 2.229851 1_555
La10 O33 2.499515 1_565
La10 O40 2.622694 1_555
La10 O42 2.736519 1_555
La10 O29 2.743124 1_555
La10 O41 2.783701 1_565
La10 O31 2.832374 1_555
La10 O41 2.922934 1_555
La10 O40 2.978516 1_455
La10 O38 3.031348 1_555
La10 O33 3.137093 1_455
La11 O34 2.232711 1_565
La11 O38 2.495854 1_555
La11 O31 2.623029 1_555
La11 O41 2.738334 1_665
La11 O27 2.739399 1_555
La11 O29 2.786758 1_655
La11 O40 2.811300 1_555
La11 O29 2.917982 1_665
La11 O31 2.982096 1_655
La11 O33 3.022491 1_565
La11 O38 3.141807 1_665
La12 O0 2.267007 1_544
La12 O39 2.517703 1_555
La12 O43 2.559531 1_555
La12 O35 2.728483 1_445
La12 O3 2.742556 1_554
La12 O37 2.798806 1_555
La12 O44 2.811886 1_555
La12 O44 2.915170 1_545
La12 O42 2.977008 1_545
La12 O43 3.070501 1_455
La12 O39 3.147224 1_445
La13 O40 2.209580 1_555
La13 O42 2.473598 1_545
La13 O37 2.593810 1_555
La13 O33 2.697112 1_555
La13 O44 2.706349 1_655
La13 O35 2.777005 1_545
La13 O35 2.939596 1_555
La13 O43 2.941520 1_555
La13 O37 3.005559 1_655
La13 O42 3.160273 1_655
La13 O39 3.184067 1_555
Mg0 O44 1.717364 1_555
Mg0 O39 2.092897 1_455
Mg0 O3 2.187730 1_554
Mg0 O43 2.198669 1_455
Mg0 O0 2.335829 1_554
Mg1 O6 1.701693 1_655
Mg1 O1 2.103118 1_555
Mg1 O5 2.222771 1_545
Mg1 O8 2.241282 1_645
Mg1 O2 2.339799 1_655
Mg2 O12 1.708753 1_555
Mg2 O4 2.108432 1_555
Mg2 O14 2.157429 1_655
Mg2 O10 2.222609 1_555
Mg2 O7 2.297723 1_655
Mg3 O18 1.745891 1_455
Mg3 O14 1.914340 1_555
Mg3 O9 2.065202 1_555
Mg3 O7 2.223243 1_545
Mg3 O16 2.340976 1_555
Ga0 O6 1.698961 1_555
Ga0 O3 1.903370 1_555
Ga0 O1 1.961435 1_555
Ga0 O0 2.249389 1_545
Ga0 O5 2.307130 1_555
Ga1 O18 1.688268 1_555
Ga1 O11 1.794865 1_545
Ga1 O9 2.063540 1_555
Ga1 O20 2.101462 1_545
Ga1 O16 2.225966 1_545
Ga1 O13 2.285246 1_555
Ga2 O12 1.705041 1_455
Ga2 O8 1.883041 1_555
Ga2 O4 1.963580 1_555
Ga2 O2 2.240515 1_555
Ga2 O10 2.320920 1_565
Ga3 O17 1.849857 1_655
Ga3 O30 1.849910 1_555
Ga3 O26 1.984734 1_555
Ga3 O21 1.992266 1_655
Ga3 O19 2.275631 1_545
Ga3 O28 2.284034 1_655
Ga4 O24 1.796027 1_555
Ga4 O17 1.798963 1_555
Ga4 O15 2.070208 1_555
Ga4 O26 2.077593 1_555
Ga4 O22 2.238995 1_555
Ga4 O19 2.246774 1_555
Ga5 O30 1.796030 1_565
Ga5 O23 1.800001 1_555
Ga5 O21 2.077054 1_565
Ga5 O32 2.079920 1_555
Ga5 O28 2.244659 1_555
Ga5 O25 2.249033 1_565
Ga6 O11 1.848492 1_555
Ga6 O24 1.853765 1_455
Ga6 O20 1.972921 1_455
Ga6 O15 1.976167 1_555
Ga6 O13 2.260346 1_455
Ga6 O22 2.262383 1_565
Ga7 O41 1.841988 1_555
Ga7 O29 1.846522 1_655
Ga7 O38 1.979544 1_555
Ga7 O33 2.003389 1_555
Ga7 O31 2.271252 1_545
Ga7 O40 2.293553 1_555
Ga8 O36 1.798961 1_555
Ga8 O29 1.800380 1_555
Ga8 O38 2.076717 1_555
Ga8 O27 2.077472 1_455
Ga8 O34 2.245392 1_455
Ga8 O31 2.245500 1_555
Ga9 O44 1.782558 1_555
Ga9 O35 1.819699 1_555
Ga9 O39 2.010549 1_555
Ga9 O42 2.024540 1_555
Ga9 O37 2.319870 1_555
Ga9 O43 2.341905 1_565
Ga10 O41 1.805662 1_555
Ga10 O35 1.844009 1_445
Ga10 O42 2.067124 1_545
Ga10 O33 2.078060 1_455
Ga10 O37 2.232250 1_555
Ga10 O40 2.245038 1_445
Ga11 O36 1.849032 1_555
Ga11 O23 1.849480 1_655
Ga11 O32 1.985755 1_555
Ga11 O27 1.991293 1_555
Ga11 O25 2.277265 1_555
Ga11 O34 2.281718 1_565
O0 Sr0 2.890675 1_555
O1 Sr0 2.604453 1_545
O1 Sr0 3.030325 1_655
O2 Sr0 2.258256 1_555
O2 Sr1 2.875037 1_555
O3 Sr0 3.140506 1_555
O4 Sr1 2.604342 1_555
O4 Sr1 3.030957 1_665
O5 Sr0 2.661621 1_555
O5 Sr0 2.938675 1_655
O6 Sr0 2.791841 1_545
O6 Sr0 3.007085 1_555
O7 Sr1 2.261178 1_565
O8 Sr0 2.683305 1_555
O8 Sr1 3.158044 1_565
O10 Sr1 2.669413 1_555
O10 Sr1 2.930957 1_655
O12 Sr1 2.823698 1_655
O12 Sr1 3.005168 1_665
O14 Sr1 2.743610 1_555
