# generated using pymatgen
data_Cu3(TeO5)2
_symmetry_space_group_name_H-M   'P 1'
_cell_length_a   5.20733111
_cell_length_b   5.50715201
_cell_length_c   7.77722236
_cell_angle_alpha   108.47334334
_cell_angle_beta   97.50461636
_cell_angle_gamma   105.17909300
_symmetry_Int_Tables_number   1
_chemical_formula_structural   Cu3(TeO5)2
_chemical_formula_sum   'Cu3 Te2 O10'
_cell_volume   198.52449579
_cell_formula_units_Z   1
loop_
 _symmetry_equiv_pos_site_id
 _symmetry_equiv_pos_as_xyz
  1  'x, y, z'
loop_
 _atom_site_type_symbol
 _atom_site_label
 _atom_site_symmetry_multiplicity
 _atom_site_fract_x
 _atom_site_fract_y
 _atom_site_fract_z
 _atom_site_occupancy
  Cu  Cu0  1  0.00000000  0.50000000  0.00000000  1
  Cu  Cu1  1  0.69912800  0.88387600  0.90392800  1
  Cu  Cu2  1  0.30087200  0.11612400  0.09607200  1
  Te  Te0  1  0.11428600  0.70775400  0.69480200  1
  Te  Te1  1  0.88571400  0.29224600  0.30519800  1
  O  O0  1  0.06404600  0.04795700  0.84481700  1
  O  O1  1  0.31369100  0.71880400  0.94394100  1
  O  O2  1  0.09621500  0.32856200  0.54344700  1
  O  O3  1  0.19772800  0.45440800  0.20574800  1
  O  O4  1  0.47302700  0.86909600  0.68032000  1
  O  O5  1  0.52697300  0.13090400  0.31968000  1
  O  O6  1  0.80227200  0.54559200  0.79425100  1
  O  O7  1  0.90378500  0.67143800  0.45655300  1
  O  O8  1  0.68630900  0.28119600  0.05605900  1
  O  O9  1  0.93595400  0.95204300  0.15518300  1
loop_
_geom_bond_atom_site_label_1
_geom_bond_atom_site_label_2
_geom_bond_distance
_geom_bond_site_symmetry_2
Cu0 O3 1.908741 1_555
Cu0 O6 1.908747 1_454
Cu0 O8 1.948991 1_455
Cu0 O1 1.948991 1_554
Cu0 O0 2.530051 1_554
Cu0 O9 2.530051 1_455
Cu1 O4 1.934533 1_555
Cu1 O6 2.030611 1_555
Cu1 O9 2.035526 1_556
Cu1 O0 2.056954 1_665
Cu1 O1 2.082938 1_555
Cu1 O8 2.156059 1_566
Cu2 O5 1.934533 1_555
Cu2 O3 2.030610 1_555
Cu2 O0 2.035526 1_554
Cu2 O9 2.056954 1_445
Cu2 O8 2.082938 1_555
Cu2 O1 2.156059 1_544
O0 Te0 1.972558 1_545
O1 Te0 2.050093 1_555
O2 Te1 1.947985 1_455
O2 Te0 2.016358 1_555
O3 Te1 2.010408 1_455
O4 Te0 1.881773 1_555
O5 Te1 1.881773 1_555
O6 Te0 2.010403 1_655
O7 Te0 1.947985 1_655
O7 Te1 2.016358 1_555
O8 Te1 2.050093 1_555
O9 Te1 1.972558 1_565
