# generated using pymatgen
data_LiTiFeO4
_symmetry_space_group_name_H-M   'P 1'
_cell_length_a   5.96803843
_cell_length_b   5.99073021
_cell_length_c   8.48845994
_cell_angle_alpha   89.99962544
_cell_angle_beta   89.99987608
_cell_angle_gamma   90.38635198
_symmetry_Int_Tables_number   1
_chemical_formula_structural   LiTiFeO4
_chemical_formula_sum   'Li4 Ti4 Fe4 O16'
_cell_volume   303.48022862
_cell_formula_units_Z   4
loop_
 _symmetry_equiv_pos_site_id
 _symmetry_equiv_pos_as_xyz
  1  'x, y, z'
loop_
 _atom_site_type_symbol
 _atom_site_label
 _atom_site_symmetry_multiplicity
 _atom_site_fract_x
 _atom_site_fract_y
 _atom_site_fract_z
 _atom_site_occupancy
  Li  Li0  1  0.25000000  0.25000000  0.25000000  1
  Li  Li1  1  0.75000000  0.75000000  0.75000000  1
  Li  Li2  1  0.75000000  0.24999900  0.75000000  1
  Li  Li3  1  0.25000000  0.75000000  0.25000000  1
  Ti  Ti0  1  0.49999900  0.00000200  0.00000000  1
  Ti  Ti1  1  0.00000000  0.49999900  0.50000000  1
  Ti  Ti2  1  0.00000100  0.00000200  0.99999900  1
  Ti  Ti3  1  0.50000000  0.49999800  0.50000000  1
  Fe  Fe0  1  0.25000400  0.75000100  0.75000000  1
  Fe  Fe1  1  0.75000000  0.75000100  0.24999700  1
  Fe  Fe2  1  0.75000000  0.25000100  0.25000100  1
  Fe  Fe3  1  0.24999700  0.25000300  0.75000100  1
  O  O0  1  0.98379900  0.50109800  0.26814600  1
  O  O1  1  0.48379900  0.00110300  0.76814600  1
  O  O2  1  0.51620300  0.49889500  0.26814600  1
  O  O3  1  0.01620300  0.99889900  0.76814600  1
  O  O4  1  0.48379700  0.50110000  0.73185400  1
  O  O5  1  0.98379700  0.00110500  0.23185400  1
  O  O6  1  0.01620100  0.49889700  0.73185400  1
  O  O7  1  0.51620100  0.99890100  0.23185400  1
  O  O8  1  0.74851400  0.78272200  0.00538300  1
  O  O9  1  0.24851400  0.28272200  0.50538500  1
  O  O10  1  0.75148600  0.21727400  0.00538200  1
  O  O11  1  0.25148600  0.71727300  0.50538000  1
  O  O12  1  0.24851400  0.78272600  0.99462000  1
  O  O13  1  0.74851400  0.28272400  0.49461900  1
  O  O14  1  0.25148600  0.21727700  0.99461500  1
  O  O15  1  0.75148600  0.71727600  0.49461700  1
loop_
_geom_bond_atom_site_label_1
_geom_bond_atom_site_label_2
_geom_bond_distance
_geom_bond_site_symmetry_2
Li0 O9 2.176695 1_555
Li0 O14 2.176696 1_554
Li0 O2 2.176936 1_555
Li0 O5 2.176936 1_455
Li0 O0 2.200617 1_455
Li0 O7 2.200622 1_545
Li1 O8 2.176678 1_556
Li1 O15 2.176679 1_555
Li1 O3 2.176952 1_655
Li1 O4 2.176956 1_555
Li1 O6 2.200638 1_655
Li1 O1 2.200638 1_565
Li2 O13 2.176660 1_555
Li2 O10 2.176669 1_556
Li2 O1 2.176929 1_555
Li2 O6 2.176938 1_655
Li2 O3 2.200633 1_645
Li2 O4 2.200638 1_555
Li3 O12 2.176652 1_554
Li3 O11 2.176653 1_555
Li3 O7 2.176950 1_555
Li3 O0 2.176954 1_455
Li3 O5 2.200654 1_465
Li3 O2 2.200654 1_555
Fe0 O1 2.050646 1_565
Fe0 O6 2.050687 1_555
Fe0 O4 2.054747 1_555
Fe0 O3 2.054766 1_555
Fe0 O12 2.085707 1_555
Fe0 O11 2.085709 1_555
Fe1 O5 2.050659 1_565
Fe1 O2 2.050672 1_555
Fe1 O7 2.054764 1_555
Fe1 O0 2.054781 1_555
Fe1 O8 2.085652 1_555
Fe1 O15 2.085705 1_555
Fe2 O0 2.050640 1_555
Fe2 O7 2.050654 1_545
Fe2 O2 2.054732 1_555
Fe2 O5 2.054742 1_555
Fe2 O13 2.085689 1_555
Fe2 O10 2.085700 1_555
Fe3 O4 2.050643 1_555
Fe3 O3 2.050648 1_545
Fe3 O6 2.054728 1_555
Fe3 O1 2.054777 1_555
Fe3 O14 2.085655 1_555
Fe3 O9 2.085667 1_555
O0 Ti1 1.970470 1_655
O1 Ti0 1.970470 1_556
O2 Ti3 1.970471 1_555
O3 Ti2 1.970462 1_565
O4 Ti3 1.970471 1_555
O5 Ti2 1.970479 1_654
O6 Ti1 1.970470 1_555
O7 Ti0 1.970471 1_565
O8 Ti0 1.980450 1_565
O8 Ti2 1.980588 1_664
O9 Ti1 1.980434 1_555
O9 Ti3 1.980568 1_555
O10 Ti2 1.980419 1_654
O10 Ti0 1.980557 1_555
O11 Ti3 1.980425 1_555
O11 Ti1 1.980559 1_555
O12 Ti2 1.980425 1_565
O12 Ti0 1.980563 1_566
O13 Ti3 1.980422 1_555
O13 Ti1 1.980564 1_655
O14 Ti0 1.980422 1_556
O14 Ti2 1.980559 1_555
O15 Ti1 1.980434 1_655
O15 Ti3 1.980575 1_555
