# generated using pymatgen
data_CoH9C4NO6
_symmetry_space_group_name_H-M   'P 1'
_cell_length_a   8.13536604
_cell_length_b   11.59981451
_cell_length_c   8.20740151
_cell_angle_alpha   90.00000000
_cell_angle_beta   89.99977936
_cell_angle_gamma   90.00000000
_symmetry_Int_Tables_number   1
_chemical_formula_structural   CoH9C4NO6
_chemical_formula_sum   'Co4 H36 C16 N4 O24'
_cell_volume   774.52211552
_cell_formula_units_Z   4
loop_
 _symmetry_equiv_pos_site_id
 _symmetry_equiv_pos_as_xyz
  1  'x, y, z'
loop_
 _atom_site_type_symbol
 _atom_site_label
 _atom_site_symmetry_multiplicity
 _atom_site_fract_x
 _atom_site_fract_y
 _atom_site_fract_z
 _atom_site_occupancy
  Co  Co0  1  0.49999591  0.00000069  0.00000003  1
  Co  Co1  1  0.99999549  0.00000093  0.49998149  1
  Co  Co2  1  0.49999591  0.49999931  0.00000003  1
  Co  Co3  1  0.99999549  0.49999907  0.49998149  1
  H  H0  1  0.78998181  0.03614595  0.21426221  1
  H  H1  1  0.71004462  0.96385555  0.71424684  1
  H  H2  1  0.21001739  0.53614321  0.78571844  1
  H  H3  1  0.28995000  0.46385757  0.28575385  1
  H  H4  1  0.21001739  0.96385679  0.78571844  1
  H  H5  1  0.28995000  0.03614243  0.28575385  1
  H  H6  1  0.78998181  0.46385405  0.21426221  1
  H  H7  1  0.71004462  0.53614445  0.71424684  1
  H  H8  1  0.51903096  0.25000000  0.92504093  1
  H  H9  1  0.98096991  0.75000000  0.42506088  1
  H  H10  1  0.48097065  0.75000000  0.07494817  1
  H  H11  1  0.01900998  0.25000000  0.57492099  1
  H  H12  1  0.85048034  0.32284259  0.98872188  1
  H  H13  1  0.64952793  0.67715788  0.48874767  1
  H  H14  1  0.14952729  0.82284166  0.01125141  1
  H  H15  1  0.35047139  0.17715696  0.51125011  1
  H  H16  1  0.14952729  0.67715834  0.01125141  1
  H  H17  1  0.35047139  0.32284304  0.51125011  1
  H  H18  1  0.85048034  0.17715741  0.98872188  1
  H  H19  1  0.64952793  0.82284212  0.48874767  1
  H  H20  1  0.91110188  0.25000000  0.15597747  1
  H  H21  1  0.58899706  0.75000000  0.65604544  1
  H  H22  1  0.08899728  0.75000000  0.84395288  1
  H  H23  1  0.41100008  0.25000000  0.34395284  1
  H  H24  1  0.14699426  0.32688368  0.02091656  1
  H  H25  1  0.35304071  0.67312770  0.52110066  1
  H  H26  1  0.85304108  0.82687151  0.97889726  1
  H  H27  1  0.64695868  0.17312757  0.47889846  1
  H  H28  1  0.85304108  0.67312849  0.97889726  1
  H  H29  1  0.64695868  0.32687243  0.47889846  1
  H  H30  1  0.14699426  0.17311632  0.02091656  1
  H  H31  1  0.35304071  0.82687230  0.52110066  1
  H  H32  1  0.08778356  0.25000000  0.84248379  1
  H  H33  1  0.41213573  0.75000000  0.34260978  1
  H  H34  1  0.91213837  0.75000000  0.15738854  1
  H  H35  1  0.58786311  0.25000000  0.65738719  1
  C  C0  1  0.71896086  0.96999463  0.27901633  1
  C  C1  1  0.78103437  0.03001072  0.77901184  1
  C  C2  1  0.28103909  0.46998954  0.72096934  1
  C  C3  1  0.21895848  0.53000848  0.22097776  1
  C  C4  1  0.28103909  0.03001046  0.72096934  1
  C  C5  1  0.21895848  0.96999152  0.22097776  1
  C  C6  1  0.71896086  0.53000537  0.27901633  1
  C  C7  1  0.78103437  0.46998928  0.77901184  1
  C  C8  1  0.49346849  0.25000000  0.05652416  1
  C  C9  1  0.00652438  0.75000000  0.55654926  1
  C  C10  1  0.50652478  0.75000000  0.94346045  1
  C  C11  1  0.99347195  0.25000000  0.44343139  1
  C  C12  1  0.08621275  0.25000000  0.97475648  1
  C  C13  1  0.41378302  0.75000000  0.47488123  1
  C  C14  1  0.91378225  0.75000000  0.02511806  1
  C  C15  1  0.58621634  0.25000000  0.52511671  1
  N  N0  1  0.91287403  0.25000000  0.03070413  1
  N  N1  1  0.58714237  0.75000000  0.53076893  1
  N  N2  1  0.08714206  0.75000000  0.96922800  1
  N  N3  1  0.41285763  0.25000000  0.46922824  1
  O  O0  1  0.59377707  0.92770731  0.21219790  1
  O  O1  1  0.90622411  0.07231295  0.71218066  1
  O  O2  1  0.40621624  0.42769969  0.78779423  1
  O  O3  1  0.09376105  0.57230454  0.28779387  1
  O  O4  1  0.40621624  0.07230031  0.78779423  1
  O  O5  1  0.09376105  0.92769546  0.28779387  1
  O  O6  1  0.59377707  0.57229269  0.21219790  1
  O  O7  1  0.90622411  0.42768705  0.71218066  1
  O  O8  1  0.76984731  0.94044101  0.41951860  1
  O  O9  1  0.73015444  0.05956087  0.91950623  1
  O  O10  1  0.23015520  0.44043704  0.58046546  1
  O  O11  1  0.26985320  0.55956004  0.08048784  1
  O  O12  1  0.23015520  0.05956296  0.58046546  1
  O  O13  1  0.26985320  0.94043996  0.08048784  1
  O  O14  1  0.76984731  0.55955899  0.41951860  1
  O  O15  1  0.73015444  0.44043913  0.91950623  1
  O  O16  1  0.47852713  0.15423781  0.12866392  1
  O  O17  1  0.02145776  0.84576201  0.62868544  1
  O  O18  1  0.52145894  0.65423814  0.87131882  1
  O  O19  1  0.97854854  0.34576245  0.37129334  1
  O  O20  1  0.52145894  0.84576186  0.87131882  1
  O  O21  1  0.97854854  0.15423755  0.37129334  1
  O  O22  1  0.47852713  0.34576219  0.12866392  1
  O  O23  1  0.02145776  0.65423799  0.62868544  1
loop_
_geom_bond_atom_site_label_1
_geom_bond_atom_site_label_2
_geom_bond_distance
_geom_bond_site_symmetry_2
Co0 O0 2.078094 1_545
Co0 O4 2.078173 1_554
Co0 O16 2.084847 1_555
Co0 O20 2.084933 1_544
Co0 O13 2.102189 1_545
Co0 O9 2.102317 1_554
Co1 O5 2.078028 1_645
Co1 O1 2.078156 1_555
Co1 O21 2.084929 1_555
Co1 O17 2.085028 1_645
Co1 O8 2.102166 1_545
Co1 O12 2.102312 1_655
Co2 O6 2.078094 1_555
Co2 O2 2.078173 1_554
Co2 O22 2.084847 1_555
Co2 O18 2.084933 1_554
Co2 O11 2.102189 1_555
Co2 O15 2.102317 1_554
Co3 O3 2.078028 1_655
Co3 O7 2.078156 1_555
Co3 O19 2.084929 1_555
Co3 O23 2.085028 1_655
Co3 O14 2.102166 1_555
Co3 O10 2.102312 1_655
H12 N0 1.044193 1_556
H13 N1 1.044260 1_555
H14 N2 1.044262 1_554
H15 N3 1.044273 1_555
H16 N2 1.044262 1_554
H17 N3 1.044273 1_555
H18 N0 1.044193 1_556
H19 N1 1.044260 1_555
H20 N0 1.028270 1_555
H21 N1 1.028305 1_555
H22 N2 1.028294 1_555
H23 N3 1.028297 1_555
C0 H0 1.097769 1_565
C0 O0 1.256399 1_555
C0 O8 1.272274 1_555
C1 H1 1.097712 1_545
C1 O1 1.256548 1_555
C1 O9 1.272184 1_555
C2 H2 1.097772 1_555
C2 O2 1.256390 1_555
C2 O10 1.272276 1_555
C3 H3 1.097729 1_555
C3 O3 1.256517 1_555
C3 O11 1.272195 1_555
C4 H4 1.097772 1_545
C4 O4 1.256390 1_555
C4 O12 1.272276 1_555
C5 H5 1.097729 1_565
C5 O5 1.256517 1_555
C5 O13 1.272195 1_555
C6 H6 1.097769 1_555
C6 O6 1.256399 1_555
C6 O14 1.272274 1_555
C7 H7 1.097712 1_555
C7 O7 1.256548 1_555
C7 O15 1.272184 1_555
C8 H8 1.098990 1_554
C8 O22 1.264620 1_555
C8 O16 1.264620 1_555
C9 H9 1.099021 1_455
C9 O17 1.264598 1_555
C9 O23 1.264598 1_555
C10 H10 1.099014 1_556
C10 O20 1.264618 1_555
C10 O18 1.264618 1_555
C11 H11 1.099006 1_655
C11 O19 1.264602 1_555
C11 O21 1.264602 1_555
C12 H32 1.085690 1_555
C12 H24 1.087849 1_556
C12 H30 1.087849 1_556
C12 N0 1.483050 1_456
C13 H33 1.085688 1_555
C13 H31 1.087764 1_555
C13 H25 1.087764 1_555
C13 N1 1.483060 1_555
C14 H34 1.085679 1_555
C14 H26 1.087757 1_554
C14 H28 1.087757 1_554
C14 N2 1.483066 1_654
C15 H35 1.085680 1_555
C15 H29 1.087762 1_555
C15 H27 1.087762 1_555
C15 N3 1.483057 1_555
