# generated using pymatgen
data_Li2FeSiO4
_symmetry_space_group_name_H-M   'P 1'
_cell_length_a   5.18325800
_cell_length_b   6.31091400
_cell_length_c   11.00513200
_cell_angle_alpha   90.00000000
_cell_angle_beta   90.00000000
_cell_angle_gamma   90.00000000
_symmetry_Int_Tables_number   1
_chemical_formula_structural   Li2FeSiO4
_chemical_formula_sum   'Li8 Fe4 Si4 O16'
_cell_volume   359.98992360
_cell_formula_units_Z   4
loop_
 _symmetry_equiv_pos_site_id
 _symmetry_equiv_pos_as_xyz
  1  'x, y, z'
loop_
 _atom_site_type_symbol
 _atom_site_label
 _atom_site_symmetry_multiplicity
 _atom_site_fract_x
 _atom_site_fract_y
 _atom_site_fract_z
 _atom_site_occupancy
  Li  Li0  1  0.69750300  0.95007900  0.58582000  1
  Li  Li1  1  0.31111200  0.70319600  0.67474500  1
  Li  Li2  1  0.81111200  0.20319600  0.82525500  1
  Li  Li3  1  0.19750300  0.45007900  0.91418000  1
  Li  Li4  1  0.80249700  0.95007900  0.08582000  1
  Li  Li5  1  0.18888800  0.70319600  0.17474500  1
  Li  Li6  1  0.68888800  0.20319600  0.32525500  1
  Li  Li7  1  0.30249700  0.45007900  0.41418000  1
  Fe  Fe0  1  0.81773800  0.46834000  0.58572800  1
  Fe  Fe1  1  0.68226200  0.46834000  0.08572800  1
  Fe  Fe2  1  0.31773800  0.96834000  0.91427200  1
  Fe  Fe3  1  0.18226200  0.96834000  0.41427200  1
  Si  Si0  1  0.32191000  0.21112500  0.66308100  1
  Si  Si1  1  0.82191000  0.71112500  0.83691900  1
  Si  Si2  1  0.17809000  0.21112500  0.16308100  1
  Si  Si3  1  0.67809000  0.71112500  0.33691900  1
  O  O0  1  0.25648200  0.98605300  0.59191300  1
  O  O1  1  0.21390100  0.42319500  0.58908500  1
  O  O2  1  0.64058800  0.22040400  0.66674000  1
  O  O3  1  0.70347700  0.70771400  0.69718700  1
  O  O4  1  0.20347700  0.20771400  0.80281300  1
  O  O5  1  0.14058800  0.72040400  0.83326000  1
  O  O6  1  0.71390100  0.92319500  0.91091500  1
  O  O7  1  0.75648200  0.48605300  0.90808700  1
  O  O8  1  0.24351800  0.98605300  0.09191300  1
  O  O9  1  0.28609900  0.42319500  0.08908500  1
  O  O10  1  0.85941200  0.22040400  0.16674000  1
  O  O11  1  0.79652300  0.70771400  0.19718700  1
  O  O12  1  0.29652300  0.20771400  0.30281300  1
  O  O13  1  0.35941200  0.72040400  0.33326000  1
  O  O14  1  0.78609900  0.92319500  0.41091500  1
  O  O15  1  0.74351800  0.48605300  0.40808700  1
loop_
_geom_bond_atom_site_label_1
_geom_bond_atom_site_label_2
_geom_bond_distance
_geom_bond_site_symmetry_2
Li0 O2 1.946923 1_565
Li0 O3 1.960250 1_555
Li0 O14 1.986132 1_555
Li0 O0 2.298150 1_555
Li1 O5 1.958628 1_555
Li1 O0 2.024274 1_555
Li1 O3 2.048869 1_555
Li1 O1 2.065206 1_555
Li2 O2 1.958628 1_555
Li2 O7 2.024274 1_555
Li2 O4 2.048869 1_655
Li2 O6 2.065206 1_545
Li3 O5 1.946923 1_555
Li3 O4 1.960250 1_555
Li3 O9 1.986132 1_556
Li3 O7 2.298150 1_455
Li4 O10 1.946923 1_565
Li4 O11 1.960250 1_555
Li4 O6 1.986132 1_554
Li4 O8 2.298150 1_655
Li5 O13 1.958628 1_555
Li5 O8 2.024274 1_555
Li5 O11 2.048869 1_455
Li5 O9 2.065206 1_555
Li6 O10 1.958628 1_555
Li6 O15 2.024274 1_555
Li6 O12 2.048869 1_555
Li6 O14 2.065206 1_545
Li7 O13 1.946923 1_555
Li7 O12 1.960250 1_555
Li7 O1 1.986132 1_555
Li7 O15 2.298150 1_555
Fe0 O15 1.995588 1_555
Fe0 O2 2.021452 1_555
Fe0 O3 2.034078 1_555
Fe0 O1 2.073415 1_655
Fe1 O7 1.995588 1_554
Fe1 O10 2.021452 1_555
Fe1 O11 2.034078 1_555
Fe1 O9 2.073415 1_555
Fe2 O8 1.995588 1_556
Fe2 O5 2.021452 1_555
Fe2 O4 2.034078 1_565
Fe2 O6 2.073415 1_555
Fe3 O0 1.995588 1_555
Fe3 O13 2.021452 1_555
Fe3 O12 2.034078 1_565
Fe3 O14 2.073415 1_455
O0 Si0 1.657105 1_565
O1 Si0 1.663658 1_555
O2 Si0 1.653318 1_555
O3 Si1 1.655908 1_555
O4 Si0 1.655908 1_555
O5 Si1 1.653318 1_455
O6 Si1 1.663658 1_555
O7 Si1 1.657105 1_555
O8 Si2 1.657105 1_565
O9 Si2 1.663658 1_555
O10 Si2 1.653318 1_655
O11 Si3 1.655908 1_555
O12 Si2 1.655908 1_555
O13 Si3 1.653318 1_555
O14 Si3 1.663658 1_555
O15 Si3 1.657105 1_555
