# generated using pymatgen
data_LiAlVO4
_symmetry_space_group_name_H-M   'P 1'
_cell_length_a   5.24640840
_cell_length_b   5.78775300
_cell_length_c   14.48215290
_cell_angle_alpha   100.38264062
_cell_angle_beta   91.32644028
_cell_angle_gamma   91.33201524
_symmetry_Int_Tables_number   1
_chemical_formula_structural   LiAlVO4
_chemical_formula_sum   'Li6 Al6 V6 O24'
_cell_volume   432.26492577
_cell_formula_units_Z   6
loop_
 _symmetry_equiv_pos_site_id
 _symmetry_equiv_pos_as_xyz
  1  'x, y, z'
loop_
 _atom_site_type_symbol
 _atom_site_label
 _atom_site_symmetry_multiplicity
 _atom_site_fract_x
 _atom_site_fract_y
 _atom_site_fract_z
 _atom_site_occupancy
  Li  Li0  1  0.49445200  0.99007900  0.49841100  1
  Li  Li1  1  0.99460600  0.49051900  0.99871400  1
  Li  Li2  1  0.17069900  0.81540900  0.17287300  1
  Li  Li3  1  0.67097100  0.31489300  0.67324200  1
  Li  Li4  1  0.34180400  0.17980300  0.33083500  1
  Li  Li5  1  0.84172700  0.67936700  0.83075600  1
  Al  Al0  1  0.65088400  0.59037500  0.17040600  1
  Al  Al1  1  0.15114200  0.09021200  0.67052000  1
  Al  Al2  1  0.82890800  0.91847900  0.33318100  1
  Al  Al3  1  0.32806300  0.41836000  0.83322600  1
  Al  Al4  1  0.99658600  0.24348900  0.49898200  1
  Al  Al5  1  0.49634100  0.74311300  0.99894100  1
  V  V0  1  0.98428100  0.75084100  0.50150500  1
  V  V1  1  0.69898600  0.08197600  0.16175600  1
  V  V2  1  0.19921100  0.58199400  0.66171700  1
  V  V3  1  0.48450300  0.25061500  0.00135100  1
  V  V4  1  0.83833400  0.42323100  0.33279100  1
  V  V5  1  0.33845900  0.92330500  0.83299600  1
  O  O0  1  0.38611700  0.02825700  0.07435700  1
  O  O1  1  0.88595600  0.52841900  0.57453200  1
  O  O2  1  0.36719900  0.54556400  0.08094800  1
  O  O3  1  0.86702300  0.04580100  0.58098000  1
  O  O4  1  0.55138400  0.36704200  0.24757000  1
  O  O5  1  0.05177600  0.86659100  0.74770300  1
  O  O6  1  0.53609000  0.88406300  0.24138100  1
  O  O7  1  0.03594900  0.38365700  0.74146400  1
  O  O8  1  0.70364200  0.71301500  0.41162300  1
  O  O9  1  0.20335100  0.21270300  0.91173200  1
  O  O10  1  0.70605600  0.18545600  0.41024900  1
  O  O11  1  0.20541000  0.68507500  0.91058300  1
  O  O12  1  0.79236500  0.78471700  0.08733000  1
  O  O13  1  0.29236700  0.28481300  0.58752500  1
  O  O14  1  0.78839000  0.31240000  0.09206500  1
  O  O15  1  0.28845200  0.81222000  0.59219300  1
  O  O16  1  0.94002000  0.64896100  0.25444500  1
  O  O17  1  0.43995700  0.14897900  0.75453000  1
  O  O18  1  0.97974100  0.12012900  0.25647400  1
  O  O19  1  0.47923300  0.61979900  0.75682800  1
  O  O20  1  0.12769400  0.96525200  0.42601500  1
  O  O21  1  0.62747600  0.46477000  0.92593800  1
  O  O22  1  0.11638100  0.44933600  0.41825400  1
  O  O23  1  0.61681400  0.94817200  0.91817200  1
loop_
_geom_bond_atom_site_label_1
_geom_bond_atom_site_label_2
_geom_bond_distance
_geom_bond_site_symmetry_2
Li0 O15 2.143011 1_555
Li0 O20 2.159106 1_555
Li0 O10 2.160778 1_565
Li0 O8 2.185158 1_555
Li0 O13 2.247988 1_565
Li0 O3 2.253456 1_565
Li1 O14 2.139901 1_556
Li1 O11 2.155369 1_655
Li1 O21 2.163099 1_555
Li1 O9 2.187989 1_655
Li1 O12 2.243106 1_556
Li1 O2 2.251101 1_656
Li2 O16 2.051946 1_455
Li2 O6 2.133430 1_555
Li2 O2 2.159458 1_555
Li2 O18 2.224553 1_465
Li2 O12 2.301422 1_455
Li2 O0 2.339630 1_565
Li3 O17 2.048491 1_555
Li3 O7 2.129869 1_655
Li3 O3 2.157986 1_555
Li3 O19 2.227195 1_555
Li3 O13 2.304040 1_555
Li3 O1 2.342998 1_555
Li4 O4 2.077132 1_555
Li4 O18 2.151269 1_455
Li4 O10 2.203979 1_555
Li4 O22 2.208684 1_555
Li4 O6 2.233846 1_545
Li4 O20 2.308164 1_545
Li5 O5 2.076280 1_655
Li5 O19 2.150381 1_555
Li5 O11 2.204391 1_655
Li5 O23 2.204560 1_555
Li5 O7 2.232505 1_655
Li5 O21 2.308714 1_555
Al0 O16 1.907656 1_555
Al0 O4 1.925722 1_555
Al0 O2 1.931966 1_555
Al0 O12 1.937510 1_555
Al0 O6 1.937790 1_555
Al0 O14 1.957030 1_555
Al1 O17 1.906149 1_555
Al1 O5 1.927010 1_545
Al1 O3 1.934436 1_455
Al1 O13 1.937159 1_555
Al1 O7 1.937231 1_555
Al1 O15 1.956600 1_545
Al2 O16 1.872233 1_555
Al2 O10 1.872630 1_565
Al2 O8 1.903081 1_555
Al2 O18 1.920278 1_565
Al2 O6 1.990717 1_555
Al2 O20 2.022259 1_655
Al3 O17 1.872803 1_555
Al3 O11 1.873047 1_555
Al3 O9 1.903556 1_555
Al3 O19 1.917030 1_555
Al3 O7 1.987523 1_555
Al3 O21 2.023660 1_555
Al4 O20 1.911767 1_645
Al4 O3 1.916323 1_555
Al4 O1 1.917571 1_555
Al4 O22 1.918985 1_655
Al4 O10 1.953817 1_555
Al4 O13 1.972207 1_655
Al5 O21 1.912497 1_555
Al5 O2 1.915072 1_556
Al5 O0 1.916985 1_566
Al5 O23 1.917292 1_555
Al5 O11 1.952121 1_555
Al5 O12 1.971807 1_556
O0 V3 1.877594 1_555
O0 V1 2.032557 1_555
O1 V0 1.878007 1_555
O1 V2 2.032355 1_655
O2 V3 1.998527 1_555
O3 V0 1.997734 1_545
O4 V4 1.908381 1_555
O4 V1 2.056983 1_555
O5 V5 1.908037 1_555
O5 V2 2.055890 1_555
O6 V1 1.961742 1_565
O7 V2 1.965489 1_555
O8 V0 1.924496 1_555
O8 V4 2.004498 1_555
O9 V3 1.924068 1_556
O9 V5 2.003088 1_545
O10 V4 2.044971 1_555
O11 V5 2.049611 1_555
O12 V1 1.938294 1_565
O13 V2 1.936241 1_555
O14 V1 1.869552 1_555
O14 V3 2.025539 1_555
O15 V2 1.866789 1_555
O15 V0 2.026362 1_455
O16 V4 1.951602 1_555
O17 V5 1.952317 1_545
O18 V1 1.970313 1_555
O18 V4 2.061319 1_555
O19 V2 1.971335 1_555
O19 V5 2.060962 1_555
O20 V0 1.945503 1_455
O21 V3 1.942768 1_556
O22 V4 1.876541 1_455
O22 V0 2.077413 1_455
O23 V5 1.875584 1_555
O23 V3 2.081403 1_566
