# generated using pymatgen
data_Li3Fe3OF7
_symmetry_space_group_name_H-M   'P 1'
_cell_length_a   6.13134067
_cell_length_b   6.13134067
_cell_length_c   6.25406965
_cell_angle_alpha   60.32067009
_cell_angle_beta   60.32067009
_cell_angle_gamma   57.51812051
_symmetry_Int_Tables_number   1
_chemical_formula_structural   Li3Fe3OF7
_chemical_formula_sum   'Li3 Fe3 O1 F7'
_cell_volume   163.66612804
_cell_formula_units_Z   1
loop_
 _symmetry_equiv_pos_site_id
 _symmetry_equiv_pos_as_xyz
  1  'x, y, z'
loop_
 _atom_site_type_symbol
 _atom_site_label
 _atom_site_symmetry_multiplicity
 _atom_site_fract_x
 _atom_site_fract_y
 _atom_site_fract_z
 _atom_site_occupancy
  Li  Li0  1  0.61784000  0.61784000  0.65099800  1
  Li  Li1  1  0.99627900  0.99627900  0.00652400  1
  Li  Li2  1  0.63005700  0.63005700  0.11047900  1
  Fe  Fe0  1  0.25047000  0.25047000  0.21311500  1
  Fe  Fe1  1  0.58766300  0.15181000  0.64045200  1
  Fe  Fe2  1  0.15181000  0.58766300  0.64045200  1
  O  O0  1  0.39507300  0.39507300  0.84667000  1
  F  F0  1  0.84278700  0.37922100  0.38629300  1
  F  F1  1  0.37922100  0.84278700  0.38629300  1
  F  F2  1  0.86318500  0.86318500  0.87962500  1
  F  F3  1  0.87997400  0.39499800  0.86546800  1
  F  F4  1  0.86981800  0.86981800  0.41483800  1
  F  F5  1  0.39499800  0.87997400  0.86546800  1
  F  F6  1  0.39082300  0.39082300  0.34332400  1
loop_
_geom_bond_atom_site_label_1
_geom_bond_atom_site_label_2
_geom_bond_distance
_geom_bond_site_symmetry_2
Li0 O0 1.980399 1_555
Fe0 O0 1.909009 1_554
Fe1 O0 1.946143 1_555
Fe2 O0 1.946143 1_555
F0 Fe0 2.022551 1_655
F0 Li2 2.118581 1_555
F0 Fe1 2.145505 1_555
F0 Li0 2.180254 1_555
F1 Fe0 2.022551 1_565
F1 Li2 2.118581 1_555
F1 Fe2 2.145505 1_555
F1 Li0 2.180254 1_555
F2 Li1 1.989893 1_556
F2 Li2 2.068310 1_556
F2 Fe1 2.212008 1_565
F2 Fe2 2.212008 1_655
F3 Li1 1.969280 1_546
F3 Li0 2.051950 1_555
F3 Li2 2.064683 1_556
F3 Fe2 2.073529 1_655
F4 Li1 2.108924 1_555
F4 Fe2 2.181544 1_655
F4 Fe1 2.181544 1_565
F4 Li0 2.235966 1_555
F5 Li1 1.969280 1_456
F5 Li0 2.051950 1_555
F5 Li2 2.064683 1_556
F5 Fe1 2.073529 1_565
F6 Fe0 2.080286 1_555
F6 Li2 2.122287 1_555
F6 Fe1 2.163751 1_555
F6 Fe2 2.163751 1_555
