# generated using pymatgen
data_Na3SiNiCO7
_symmetry_space_group_name_H-M   'P 1'
_cell_length_a   6.46071100
_cell_length_b   5.22291800
_cell_length_c   9.07712992
_cell_angle_alpha   87.86978676
_cell_angle_beta   90.00000000
_cell_angle_gamma   90.00000000
_symmetry_Int_Tables_number   1
_chemical_formula_structural   Na3SiNiCO7
_chemical_formula_sum   'Na6 Si2 Ni2 C2 O14'
_cell_volume   306.08485584
_cell_formula_units_Z   2
loop_
 _symmetry_equiv_pos_site_id
 _symmetry_equiv_pos_as_xyz
  1  'x, y, z'
loop_
 _atom_site_type_symbol
 _atom_site_label
 _atom_site_symmetry_multiplicity
 _atom_site_fract_x
 _atom_site_fract_y
 _atom_site_fract_z
 _atom_site_occupancy
  Na  Na0  1  0.75000000  0.23149900  0.91267700  1
  Na  Na1  1  0.98810800  0.74750700  0.72807500  1
  Na  Na2  1  0.51189200  0.74750700  0.72807500  1
  Na  Na3  1  0.48810800  0.25249300  0.27192500  1
  Na  Na4  1  0.01189200  0.25249300  0.27192500  1
  Na  Na5  1  0.25000000  0.76850100  0.08732300  1
  Si  Si0  1  0.75000000  0.29437300  0.56974400  1
  Si  Si1  1  0.25000000  0.70562700  0.43025600  1
  Ni  Ni0  1  0.25000000  0.21625500  0.65531100  1
  Ni  Ni1  1  0.75000000  0.78374500  0.34468900  1
  C  C0  1  0.25000000  0.28259800  0.93828500  1
  C  C1  1  0.75000000  0.71740200  0.06171500  1
  O  O0  1  0.75000000  0.73385700  0.91984100  1
  O  O1  1  0.25000000  0.07067300  0.86530200  1
  O  O2  1  0.25000000  0.49846300  0.86566700  1
  O  O3  1  0.94582600  0.23109500  0.68362400  1
  O  O4  1  0.55417400  0.23109500  0.68362400  1
  O  O5  1  0.75000000  0.60898500  0.53387700  1
  O  O6  1  0.25000000  0.85982200  0.57997400  1
  O  O7  1  0.75000000  0.14017800  0.42002600  1
  O  O8  1  0.25000000  0.39101500  0.46612300  1
  O  O9  1  0.44582600  0.76890500  0.31637600  1
  O  O10  1  0.05417400  0.76890500  0.31637600  1
  O  O11  1  0.75000000  0.50153700  0.13433300  1
  O  O12  1  0.75000000  0.92932700  0.13469800  1
  O  O13  1  0.25000000  0.26614300  0.08015900  1
loop_
_geom_bond_atom_site_label_1
_geom_bond_atom_site_label_2
_geom_bond_distance
_geom_bond_site_symmetry_2
Na0 O3 2.433894 1_555
Na0 O4 2.433894 1_555
Na0 O11 2.499659 1_556
Na0 O12 2.513128 1_546
Na0 O0 2.597539 1_545
Na0 O0 2.626996 1_555
Na1 O6 2.226120 1_655
Na1 O0 2.322144 1_555
Na1 O2 2.448242 1_655
Na1 O5 2.468214 1_555
Na1 O3 2.557543 1_565
Na1 O1 2.723910 1_665
Na1 O3 2.755557 1_555
Na2 O6 2.226120 1_555
Na2 O0 2.322144 1_555
Na2 O2 2.448242 1_555
Na2 O5 2.468214 1_555
Na2 O4 2.557543 1_565
Na2 O1 2.723910 1_565
Na2 O4 2.755557 1_555
Na3 O7 2.226120 1_555
Na3 O13 2.322144 1_555
Na3 O11 2.448242 1_555
Na3 O8 2.468214 1_555
Na3 O9 2.557543 1_545
Na3 O12 2.723910 1_545
Na3 O9 2.755557 1_555
Na4 O7 2.226120 1_455
Na4 O13 2.322144 1_555
Na4 O11 2.448242 1_455
Na4 O8 2.468214 1_555
Na4 O10 2.557543 1_545
Na4 O12 2.723910 1_445
Na4 O10 2.755557 1_555
Na5 O9 2.433894 1_555
Na5 O10 2.433894 1_555
Na5 O2 2.499659 1_554
Na5 O1 2.513128 1_564
Na5 O13 2.597539 1_565
Na5 O13 2.626996 1_555
Ni0 O8 1.914592 1_555
Ni0 O3 1.983802 1_455
Ni0 O4 1.983802 1_555
Ni0 O6 2.006966 1_545
Ni0 O1 2.025755 1_555
Ni0 O2 2.455132 1_555
Ni1 O5 1.914592 1_555
Ni1 O10 1.983802 1_655
Ni1 O9 1.983802 1_555
Ni1 O7 2.006966 1_565
Ni1 O12 2.025755 1_555
Ni1 O11 2.455132 1_555
C0 O2 1.284671 1_555
C0 O13 1.287482 1_556
C0 O1 1.310932 1_555
C1 O11 1.284671 1_555
C1 O0 1.287482 1_554
C1 O12 1.310932 1_555
O3 Si0 1.659229 1_555
O4 Si0 1.659229 1_555
O5 Si0 1.663222 1_555
O6 Si1 1.605259 1_555
O7 Si0 1.605259 1_555
O8 Si1 1.663222 1_555
O9 Si1 1.659229 1_555
O10 Si1 1.659229 1_555
