# generated using pymatgen
data_Nb4Tl4O13
_symmetry_space_group_name_H-M   'P 1'
_cell_length_a   7.63270293
_cell_length_b   7.63270293
_cell_length_c   7.63270293
_cell_angle_alpha   60.00000000
_cell_angle_beta   60.00000000
_cell_angle_gamma   60.00000000
_symmetry_Int_Tables_number   1
_chemical_formula_structural   Nb4Tl4O13
_chemical_formula_sum   'Nb4 Tl4 O13'
_cell_volume   314.42718027
_cell_formula_units_Z   1
loop_
 _symmetry_equiv_pos_site_id
 _symmetry_equiv_pos_as_xyz
  1  'x, y, z'
loop_
 _atom_site_type_symbol
 _atom_site_label
 _atom_site_symmetry_multiplicity
 _atom_site_fract_x
 _atom_site_fract_y
 _atom_site_fract_z
 _atom_site_occupancy
  Nb  Nb0  1  0.12482300  0.12482300  0.62553100  1
  Nb  Nb1  1  0.12482300  0.62553100  0.12482300  1
  Nb  Nb2  1  0.62553100  0.12482300  0.12482300  1
  Nb  Nb3  1  0.12482300  0.12482300  0.12482300  1
  Tl  Tl0  1  0.62703000  0.62703000  0.11890900  1
  Tl  Tl1  1  0.62703000  0.11890900  0.62703000  1
  Tl  Tl2  1  0.62703000  0.62703000  0.62703000  1
  Tl  Tl3  1  0.11890900  0.62703000  0.62703000  1
  O  O0  1  0.06406000  0.43594000  0.43594000  1
  O  O1  1  0.81397500  0.18602500  0.18602500  1
  O  O2  1  0.43594000  0.43594000  0.06406000  1
  O  O3  1  0.43594000  0.06406000  0.43594000  1
  O  O4  1  0.06406000  0.43594000  0.06406000  1
  O  O5  1  0.06406000  0.06406000  0.43594000  1
  O  O6  1  0.81397500  0.81397500  0.18602500  1
  O  O7  1  0.81397500  0.18602500  0.81397500  1
  O  O8  1  0.18602500  0.18602500  0.81397500  1
  O  O9  1  0.50000000  0.50000000  0.50000000  1
  O  O10  1  0.18602500  0.81397500  0.18602500  1
  O  O11  1  0.43594000  0.06406000  0.06406000  1
  O  O12  1  0.18602500  0.81397500  0.81397500  1
loop_
_geom_bond_atom_site_label_1
_geom_bond_atom_site_label_2
_geom_bond_distance
_geom_bond_site_symmetry_2
Nb0 O12 2.016746 1_545
Nb0 O7 2.016746 1_455
Nb0 O8 2.016746 1_555
Nb0 O5 2.020309 1_555
Nb0 O3 2.020309 1_555
Nb0 O0 2.020309 1_555
Nb1 O10 2.016746 1_555
Nb1 O6 2.016746 1_455
Nb1 O12 2.016746 1_554
Nb1 O4 2.020309 1_555
Nb1 O2 2.020309 1_555
Nb1 O0 2.020309 1_555
Nb2 O6 2.016746 1_545
Nb2 O1 2.016746 1_555
Nb2 O7 2.016746 1_554
Nb2 O2 2.020309 1_555
Nb2 O11 2.020309 1_555
Nb2 O3 2.020309 1_555
Nb3 O8 2.016746 1_554
Nb3 O10 2.016746 1_545
Nb3 O1 2.016746 1_455
Nb3 O4 2.020309 1_555
Nb3 O5 2.020309 1_555
Nb3 O11 2.020309 1_555
O9 Tl2 2.374982 1_555
O9 Tl1 2.374988 1_555
O9 Tl0 2.374988 1_555
O9 Tl3 2.374988 1_555
