# generated using pymatgen
data_LiCrPO5
_symmetry_space_group_name_H-M   'P 1'
_cell_length_a   6.34294500
_cell_length_b   6.29237600
_cell_length_c   9.07672201
_cell_angle_alpha   89.99916453
_cell_angle_beta   90.00378433
_cell_angle_gamma   89.99994560
_symmetry_Int_Tables_number   1
_chemical_formula_structural   LiCrPO5
_chemical_formula_sum   'Li4 Cr4 P4 O20'
_cell_volume   362.27189699
_cell_formula_units_Z   4
loop_
 _symmetry_equiv_pos_site_id
 _symmetry_equiv_pos_as_xyz
  1  'x, y, z'
loop_
 _atom_site_type_symbol
 _atom_site_label
 _atom_site_symmetry_multiplicity
 _atom_site_fract_x
 _atom_site_fract_y
 _atom_site_fract_z
 _atom_site_occupancy
  Li  Li0  1  0.47984900  0.47993900  0.98649500  1
  Li  Li1  1  0.47986400  0.02004600  0.48649100  1
  Li  Li2  1  0.98009100  0.98019000  0.01349000  1
  Li  Li3  1  0.98006800  0.51983300  0.51349500  1
  Cr  Cr0  1  0.24864600  0.24711800  0.19950100  1
  Cr  Cr1  1  0.24864600  0.25290700  0.69944800  1
  Cr  Cr2  1  0.74865100  0.74710700  0.80049300  1
  Cr  Cr3  1  0.74860300  0.75290600  0.30047900  1
  P  P0  1  0.24787200  0.75172800  0.74982300  1
  P  P1  1  0.24786400  0.74827700  0.24983200  1
  P  P2  1  0.74787800  0.24828100  0.75019300  1
  P  P3  1  0.74787700  0.25172500  0.25019200  1
  O  O0  1  0.05217200  0.76165200  0.85139800  1
  O  O1  1  0.05215900  0.73835200  0.35137500  1
  O  O2  1  0.25792500  0.24036800  0.38527000  1
  O  O3  1  0.25791000  0.25961900  0.88520300  1
  O  O4  1  0.25972100  0.55023000  0.14893300  1
  O  O5  1  0.23482600  0.94495000  0.14709500  1
  O  O6  1  0.23483100  0.55505600  0.64710900  1
  O  O7  1  0.25971100  0.94976800  0.64894500  1
  O  O8  1  0.44491800  0.76341100  0.34950700  1
  O  O9  1  0.44491400  0.73657500  0.84952800  1
  O  O10  1  0.55215700  0.26164000  0.14863700  1
  O  O11  1  0.55217600  0.23836300  0.64863900  1
  O  O12  1  0.73481600  0.05503000  0.35291600  1
  O  O13  1  0.75973400  0.44979300  0.35107700  1
  O  O14  1  0.75788900  0.75960400  0.11473100  1
  O  O15  1  0.75791000  0.74037600  0.61462700  1
  O  O16  1  0.75973900  0.05021100  0.85110400  1
  O  O17  1  0.73480800  0.44495500  0.85293800  1
  O  O18  1  0.94487900  0.26339400  0.65051900  1
  O  O19  1  0.94489700  0.23659800  0.15051700  1
loop_
_geom_bond_atom_site_label_1
_geom_bond_atom_site_label_2
_geom_bond_distance
_geom_bond_site_symmetry_2
Li0 O17 2.033127 1_555
Li0 O9 2.049957 1_555
Li0 O10 2.064701 1_556
Li0 O4 2.078299 1_556
Li0 O3 2.179184 1_555
Li1 O12 2.033185 1_555
Li1 O8 2.050082 1_545
Li1 O11 2.064850 1_555
Li1 O7 2.078483 1_545
Li1 O2 2.178902 1_555
Li2 O5 2.032301 1_655
Li2 O19 2.049382 1_565
Li2 O0 2.065131 1_654
Li2 O16 2.078418 1_564
Li2 O14 2.181193 1_555
Li3 O6 2.032483 1_655
Li3 O18 2.049487 1_555
Li3 O1 2.065218 1_655
Li3 O13 2.078583 1_555
Li3 O15 2.180439 1_555
Cr0 O2 1.687730 1_555
Cr0 O5 1.961918 1_545
Cr0 O4 1.962998 1_555
Cr0 O19 1.978379 1_455
Cr0 O10 1.981875 1_555
Cr1 O3 1.687595 1_555
Cr1 O6 1.961640 1_555
Cr1 O7 1.963036 1_545
Cr1 O18 1.978370 1_455
Cr1 O11 1.981883 1_555
Cr2 O15 1.688612 1_555
Cr2 O17 1.961902 1_555
Cr2 O16 1.963054 1_565
Cr2 O9 1.978468 1_555
Cr2 O0 1.981972 1_655
Cr3 O14 1.687541 1_555
Cr3 O12 1.961711 1_565
Cr3 O13 1.963078 1_555
Cr3 O8 1.978127 1_555
Cr3 O1 1.982170 1_655
O0 P0 1.547559 1_555
O1 P1 1.547411 1_555
O4 P1 1.548363 1_555
O5 P1 1.551736 1_555
O6 P0 1.551629 1_555
O7 P0 1.548188 1_555
O8 P1 1.545866 1_555
O9 P0 1.545969 1_555
O10 P3 1.547451 1_555
O11 P2 1.547356 1_555
O12 P3 1.551790 1_555
O13 P3 1.548388 1_555
O16 P2 1.548517 1_555
O17 P2 1.551824 1_555
O18 P2 1.545676 1_555
O19 P3 1.545785 1_555
