# generated using pymatgen
data_MgCoO3
_symmetry_space_group_name_H-M   'P 1'
_cell_length_a   6.38267842
_cell_length_b   6.38267842
_cell_length_c   4.96192624
_cell_angle_alpha   86.81401285
_cell_angle_beta   86.81401285
_cell_angle_gamma   83.42588970
_symmetry_Int_Tables_number   1
_chemical_formula_structural   MgCoO3
_chemical_formula_sum   'Mg4 Co4 O12'
_cell_volume   200.25535230
_cell_formula_units_Z   4
loop_
 _symmetry_equiv_pos_site_id
 _symmetry_equiv_pos_as_xyz
  1  'x, y, z'
loop_
 _atom_site_type_symbol
 _atom_site_label
 _atom_site_symmetry_multiplicity
 _atom_site_fract_x
 _atom_site_fract_y
 _atom_site_fract_z
 _atom_site_occupancy
  Mg  Mg0  1  0.60636200  0.82640600  0.22403600  1
  Mg  Mg1  1  0.82640600  0.60636200  0.72403600  1
  Mg  Mg2  1  0.17359400  0.39363800  0.27596400  1
  Mg  Mg3  1  0.39363800  0.17359400  0.77596400  1
  Co  Co0  1  0.08228700  0.91771300  0.25000000  1
  Co  Co1  1  0.73354900  0.26645100  0.25000000  1
  Co  Co2  1  0.26645100  0.73354900  0.75000000  1
  Co  Co3  1  0.91771300  0.08228700  0.75000000  1
  O  O0  1  0.81300200  0.98016100  0.43013200  1
  O  O1  1  0.98016100  0.81300200  0.93013200  1
  O  O2  1  0.33701100  0.88473600  0.03952900  1
  O  O3  1  0.52855600  0.72779800  0.60771700  1
  O  O4  1  0.88473600  0.33701100  0.53952900  1
  O  O5  1  0.72779800  0.52855600  0.10771700  1
  O  O6  1  0.27220200  0.47144400  0.89228300  1
  O  O7  1  0.11526400  0.66298900  0.46047100  1
  O  O8  1  0.47144400  0.27220200  0.39228300  1
  O  O9  1  0.66298900  0.11526400  0.96047100  1
  O  O10  1  0.01983900  0.18699800  0.06986800  1
  O  O11  1  0.18699800  0.01983900  0.56986800  1
loop_
_geom_bond_atom_site_label_1
_geom_bond_atom_site_label_2
_geom_bond_distance
_geom_bond_site_symmetry_2
Mg0 O2 1.980620 1_555
Mg0 O3 2.024964 1_555
Mg0 O5 2.069500 1_555
Mg0 O0 2.075151 1_555
Mg0 O9 2.252146 1_564
Mg1 O4 1.980620 1_555
Mg1 O5 2.024964 1_556
Mg1 O3 2.069500 1_555
Mg1 O1 2.075151 1_555
Mg1 O7 2.252146 1_655
Mg2 O7 1.980620 1_555
Mg2 O6 2.024964 1_554
Mg2 O8 2.069500 1_555
Mg2 O10 2.075151 1_555
Mg2 O4 2.252146 1_455
Mg3 O9 1.980620 1_555
Mg3 O8 2.024964 1_555
Mg3 O6 2.069500 1_555
Mg3 O11 2.075151 1_555
Mg3 O2 2.252146 1_546
Co0 O2 1.880317 1_555
Co0 O7 1.880317 1_555
Co0 O0 1.903644 1_455
Co0 O10 1.903644 1_565
Co0 O11 1.929587 1_565
Co0 O1 1.929587 1_454
Co1 O5 1.776518 1_555
Co1 O8 1.776518 1_555
Co1 O4 1.877075 1_555
Co1 O9 1.877075 1_554
Co1 O0 2.012890 1_545
Co1 O10 2.012890 1_655
Co2 O6 1.776518 1_555
Co2 O3 1.776518 1_555
Co2 O2 1.877075 1_556
Co2 O7 1.877075 1_555
Co2 O1 2.012890 1_455
Co2 O11 2.012890 1_565
Co3 O4 1.880317 1_555
Co3 O9 1.880317 1_555
Co3 O1 1.903644 1_545
Co3 O11 1.903644 1_655
Co3 O10 1.929587 1_656
Co3 O0 1.929587 1_545
