# generated using pymatgen
data_Li4MnFe3(BO3)4
_symmetry_space_group_name_H-M   'P 1'
_cell_length_a   5.16697800
_cell_length_b   5.22160398
_cell_length_c   10.99826358
_cell_angle_alpha   77.08685945
_cell_angle_beta   78.94457673
_cell_angle_gamma   60.78937682
_symmetry_Int_Tables_number   1
_chemical_formula_structural   Li4MnFe3(BO3)4
_chemical_formula_sum   'Li4 Mn1 Fe3 B4 O12'
_cell_volume   251.25167771
_cell_formula_units_Z   1
loop_
 _symmetry_equiv_pos_site_id
 _symmetry_equiv_pos_as_xyz
  1  'x, y, z'
loop_
 _atom_site_type_symbol
 _atom_site_label
 _atom_site_symmetry_multiplicity
 _atom_site_fract_x
 _atom_site_fract_y
 _atom_site_fract_z
 _atom_site_occupancy
  Li  Li0  1  0.40084900  0.53191600  0.83570200  1
  Li  Li1  1  0.10320000  0.96481900  0.66208300  1
  Li  Li2  1  0.89753500  0.03429100  0.33843300  1
  Li  Li3  1  0.59625500  0.46834300  0.16532300  1
  Mn  Mn0  1  0.72177800  0.86629400  0.88245700  1
  Fe  Fe0  1  0.78570300  0.63483000  0.61598200  1
  Fe  Fe1  1  0.21739000  0.36135500  0.38203200  1
  Fe  Fe2  1  0.28381900  0.12684900  0.11798700  1
  B  B0  1  0.06035100  0.20533900  0.86916400  1
  B  B1  1  0.43985600  0.29571400  0.62809800  1
  B  B2  1  0.56002900  0.70429100  0.37073100  1
  B  B3  1  0.94073400  0.79681700  0.13222200  1
  O  O0  1  0.80343700  0.46582000  0.83785200  1
  O  O1  1  0.28842300  0.21972100  0.91433500  1
  O  O2  1  0.09739800  0.93534600  0.85069100  1
  O  O3  1  0.69543900  0.02864300  0.65717000  1
  O  O4  1  0.41233200  0.56046900  0.64629900  1
  O  O5  1  0.20363500  0.28681700  0.58642600  1
  O  O6  1  0.79615100  0.71345300  0.41185400  1
  O  O7  1  0.58654300  0.43949700  0.35308000  1
  O  O8  1  0.30361000  0.97102800  0.34193300  1
  O  O9  1  0.91042500  0.06571900  0.14869100  1
  O  O10  1  0.70243500  0.79163600  0.08988500  1
  O  O11  1  0.19267200  0.53099200  0.16157000  1
loop_
_geom_bond_atom_site_label_1
_geom_bond_atom_site_label_2
_geom_bond_distance
_geom_bond_site_symmetry_2
Li0 O2 1.937890 1_555
Li0 O0 1.939393 1_555
Li0 O1 1.960685 1_555
Li0 O4 2.046337 1_555
Li1 O4 1.950667 1_555
Li1 O5 1.961971 1_565
Li1 O3 1.975668 1_465
Li1 O2 2.040962 1_555
Li2 O7 1.954323 1_555
Li2 O6 1.955194 1_545
Li2 O8 1.965136 1_645
Li2 O9 2.047081 1_555
Li3 O9 1.953317 1_555
Li3 O11 1.954064 1_555
Li3 O10 1.985566 1_555
Li3 O7 2.029299 1_555
Mn0 O0 2.075912 1_555
Mn0 O2 2.094163 1_655
Mn0 O1 2.120668 1_565
Mn0 O10 2.218017 1_556
Mn0 O3 2.440165 1_565
Fe0 O3 2.012578 1_565
Fe0 O5 2.058090 1_655
Fe0 O4 2.100076 1_555
Fe0 O6 2.185161 1_555
Fe0 O0 2.405420 1_555
Fe1 O8 1.996776 1_545
Fe1 O6 2.077263 1_455
Fe1 O7 2.091578 1_555
Fe1 O5 2.187378 1_555
Fe1 O11 2.393428 1_555
Fe2 O10 2.031715 1_545
Fe2 O9 2.059424 1_455
Fe2 O11 2.073719 1_555
Fe2 O1 2.181256 1_554
Fe2 O8 2.420458 1_545
B0 O2 1.383890 1_545
B0 O0 1.390835 1_455
B0 O1 1.403127 1_555
B1 O4 1.375619 1_555
B1 O3 1.398602 1_555
B1 O5 1.407606 1_555
B2 O7 1.375885 1_555
B2 O8 1.399370 1_555
B2 O6 1.404850 1_555
B3 O9 1.384557 1_565
B3 O11 1.386615 1_655
B3 O10 1.411253 1_555
