# generated using pymatgen
data_Fe4OF6
_symmetry_space_group_name_H-M   'P 1'
_cell_length_a   5.18318708
_cell_length_b   7.09564471
_cell_length_c   7.09555984
_cell_angle_alpha   90.22933344
_cell_angle_beta   89.99970550
_cell_angle_gamma   90.02056961
_symmetry_Int_Tables_number   1
_chemical_formula_structural   Fe4OF6
_chemical_formula_sum   'Fe8 O2 F12'
_cell_volume   260.95877570
_cell_formula_units_Z   2
loop_
 _symmetry_equiv_pos_site_id
 _symmetry_equiv_pos_as_xyz
  1  'x, y, z'
loop_
 _atom_site_type_symbol
 _atom_site_label
 _atom_site_symmetry_multiplicity
 _atom_site_fract_x
 _atom_site_fract_y
 _atom_site_fract_z
 _atom_site_occupancy
  Fe  Fe0  1  0.05179700  0.25004600  0.00093000  1
  Fe  Fe1  1  0.55182400  0.49904100  0.25001500  1
  Fe  Fe2  1  0.94819900  0.74998900  0.50094300  1
  Fe  Fe3  1  0.44825500  0.99911000  0.75000100  1
  Fe  Fe4  1  0.55175600  0.00106700  0.25036800  1
  Fe  Fe5  1  0.05173400  0.24965800  0.49890400  1
  Fe  Fe6  1  0.44816500  0.50111500  0.75038700  1
  Fe  Fe7  1  0.94823400  0.74958200  0.99891200  1
  O  O0  1  0.25003800  0.25012400  0.74979500  1
  O  O1  1  0.74999900  0.75023900  0.24980600  1
  F  F0  1  0.82149300  0.24992300  0.24996300  1
  F  F1  1  0.32148600  0.24999700  0.25016400  1
  F  F2  1  0.17854800  0.74975700  0.74999000  1
  F  F3  1  0.67855700  0.75006200  0.75013800  1
  F  F4  1  0.75000600  0.04285500  0.95716900  1
  F  F5  1  0.74963100  0.04247300  0.54215400  1
  F  F6  1  0.74992500  0.45705600  0.54293300  1
  F  F7  1  0.75038600  0.45787100  0.95755800  1
  F  F8  1  0.25036800  0.54241400  0.04218400  1
  F  F9  1  0.24996600  0.54277900  0.45714300  1
  F  F10  1  0.25002700  0.95703500  0.04293800  1
  F  F11  1  0.24960600  0.95780500  0.45760700  1
loop_
_geom_bond_atom_site_label_1
_geom_bond_atom_site_label_2
_geom_bond_distance
_geom_bond_site_symmetry_2
Fe0 O0 2.056966 1_554
Fe1 O1 2.056890 1_555
Fe2 O1 2.056887 1_555
Fe3 O0 2.056506 1_565
Fe4 O1 2.055415 1_545
Fe5 O0 2.055627 1_555
Fe6 O0 2.055477 1_555
Fe7 O1 2.055457 1_556
F0 Fe5 2.131736 1_655
F0 Fe0 2.132445 1_655
F0 Fe4 2.251884 1_555
F0 Fe1 2.253898 1_555
F1 Fe4 2.132121 1_555
F1 Fe1 2.132276 1_555
F1 Fe5 2.251655 1_555
F1 Fe0 2.254206 1_555
F2 Fe7 2.131823 1_455
F2 Fe2 2.132671 1_455
F2 Fe6 2.251094 1_555
F2 Fe3 2.254542 1_555
F3 Fe6 2.131866 1_555
F3 Fe3 2.132905 1_555
F3 Fe7 2.251620 1_555
F3 Fe2 2.253824 1_555
F4 Fe0 2.167790 1_656
F4 Fe3 2.167807 1_545
F4 Fe4 2.340218 1_556
F4 Fe7 2.340995 1_545
F5 Fe5 2.170084 1_655
F5 Fe3 2.170959 1_545
F5 Fe4 2.328015 1_555
F5 Fe2 2.334222 1_545
F6 Fe6 2.169680 1_555
F6 Fe5 2.169879 1_655
F6 Fe1 2.338391 1_555
F6 Fe2 2.338526 1_555
F7 Fe6 2.170907 1_555
F7 Fe0 2.171471 1_656
F7 Fe7 2.327171 1_555
F7 Fe1 2.333695 1_556
F8 Fe7 2.170904 1_454
F8 Fe1 2.171360 1_555
F8 Fe6 2.327896 1_554
F8 Fe0 2.332879 1_555
F9 Fe1 2.168158 1_555
F9 Fe2 2.168589 1_455
F9 Fe5 2.339404 1_555
F9 Fe6 2.340374 1_555
F10 Fe4 2.169271 1_565
F10 Fe7 2.169322 1_454
F10 Fe3 2.338781 1_554
F10 Fe0 2.339592 1_565
F11 Fe2 2.170612 1_455
F11 Fe4 2.170817 1_565
F11 Fe5 2.328726 1_565
F11 Fe3 2.333530 1_555
