# generated using pymatgen
data_Sb6O5F8
_symmetry_space_group_name_H-M   'P 1'
_cell_length_a   4.24631800
_cell_length_b   6.25583715
_cell_length_c   14.20583331
_cell_angle_alpha   93.77927554
_cell_angle_beta   97.97563719
_cell_angle_gamma   90.80480767
_symmetry_Int_Tables_number   1
_chemical_formula_structural   Sb6O5F8
_chemical_formula_sum   'Sb6 O5 F8'
_cell_volume   372.80202068
_cell_formula_units_Z   1
loop_
 _symmetry_equiv_pos_site_id
 _symmetry_equiv_pos_as_xyz
  1  'x, y, z'
loop_
 _atom_site_type_symbol
 _atom_site_label
 _atom_site_symmetry_multiplicity
 _atom_site_fract_x
 _atom_site_fract_y
 _atom_site_fract_z
 _atom_site_occupancy
  Sb  Sb0  1  0.28014500  0.13224800  0.08457300  1
  Sb  Sb1  1  0.09388100  0.30843800  0.74258800  1
  Sb  Sb2  1  0.72031700  0.19856300  0.40277000  1
  Sb  Sb3  1  0.38856800  0.86874900  0.56505600  1
  Sb  Sb4  1  0.71043000  0.79462400  0.95892900  1
  Sb  Sb5  1  0.03403200  0.77996600  0.25380200  1
  O  O0  1  0.02800400  0.96361800  0.37309700  1
  O  O1  1  0.77070800  0.03585100  0.06291900  1
  O  O2  1  0.23270500  0.87416900  0.98868600  1
  O  O3  1  0.33877300  0.97845700  0.20503700  1
  O  O4  1  0.68227800  0.08935300  0.52797000  1
  F  F0  1  0.62677000  0.92029800  0.69497800  1
  F  F1  1  0.10841400  0.59790100  0.70502700  1
  F  F2  1  0.62160100  0.35532200  0.76103200  1
  F  F3  1  0.10249500  0.36808300  0.45778000  1
  F  F4  1  0.75208500  0.57144100  0.05109600  1
  F  F5  1  0.16779300  0.40202700  0.87761000  1
  F  F6  1  0.65791600  0.63485600  0.53171400  1
  F  F7  1  0.41062000  0.62603400  0.31222000  1
loop_
_geom_bond_atom_site_label_1
_geom_bond_atom_site_label_2
_geom_bond_distance
_geom_bond_site_symmetry_2
O0 Sb5 1.987152 1_555
O0 Sb2 2.042077 1_465
O1 Sb4 2.028664 1_544
O1 Sb0 2.211808 1_655
O1 Sb0 2.232978 1_555
O2 Sb0 2.031616 1_566
O2 Sb4 2.186326 1_555
O2 Sb4 2.241836 1_455
O3 Sb5 2.003326 1_555
O3 Sb0 2.005408 1_565
O4 Sb2 1.973062 1_555
O4 Sb3 1.991842 1_545
F0 Sb3 1.981876 1_555
F1 Sb1 1.923802 1_555
F2 Sb1 2.080557 1_655
F2 Sb1 2.232629 1_555
F3 Sb2 1.964545 1_455
F4 Sb4 1.969415 1_554
F5 Sb1 1.949393 1_555
F6 Sb3 1.944070 1_555
F7 Sb5 1.988345 1_555
