# generated using pymatgen
data_Li3Sb2(PO4)3
_symmetry_space_group_name_H-M   'P 1'
_cell_length_a   9.65760526
_cell_length_b   9.65760526
_cell_length_c   9.65760502
_cell_angle_alpha   54.79852238
_cell_angle_beta   54.79852238
_cell_angle_gamma   54.79851835
_symmetry_Int_Tables_number   1
_chemical_formula_structural   Li3Sb2(PO4)3
_chemical_formula_sum   'Li6 Sb4 P6 O24'
_cell_volume   559.78614795
_cell_formula_units_Z   2
loop_
 _symmetry_equiv_pos_site_id
 _symmetry_equiv_pos_as_xyz
  1  'x, y, z'
loop_
 _atom_site_type_symbol
 _atom_site_label
 _atom_site_symmetry_multiplicity
 _atom_site_fract_x
 _atom_site_fract_y
 _atom_site_fract_z
 _atom_site_occupancy
  Li  Li0  1  0.66988900  0.25710200  0.93284900  1
  Li  Li1  1  0.25710200  0.93284900  0.66988900  1
  Li  Li2  1  0.93284900  0.66988900  0.25710200  1
  Li  Li3  1  0.06715100  0.33011100  0.74289800  1
  Li  Li4  1  0.74289800  0.06715100  0.33011100  1
  Li  Li5  1  0.33011100  0.74289800  0.06715100  1
  Sb  Sb0  1  0.84311100  0.84311100  0.84311100  1
  Sb  Sb1  1  0.15688900  0.15688900  0.15688900  1
  Sb  Sb2  1  0.65117200  0.65117200  0.65117200  1
  Sb  Sb3  1  0.34882800  0.34882800  0.34882800  1
  P  P0  1  0.25832900  0.55248100  0.95301100  1
  P  P1  1  0.95301100  0.25832900  0.55248100  1
  P  P2  1  0.55248100  0.95301100  0.25832900  1
  P  P3  1  0.44751900  0.04698900  0.74167100  1
  P  P4  1  0.04698900  0.74167100  0.44751900  1
  P  P5  1  0.74167100  0.44751900  0.04698900  1
  O  O0  1  0.79822500  0.42282000  0.87069400  1
  O  O1  1  0.42282000  0.87069400  0.79822500  1
  O  O2  1  0.87069400  0.79822500  0.42282000  1
  O  O3  1  0.47154600  0.48667400  0.85900500  1
  O  O4  1  0.16856000  0.73645900  0.82604900  1
  O  O5  1  0.19516600  0.40572000  0.00985000  1
  O  O6  1  0.82604900  0.16856000  0.73645900  1
  O  O7  1  0.85900500  0.47154600  0.48667400  1
  O  O8  1  0.48667400  0.85900500  0.47154600  1
  O  O9  1  0.59428000  0.99015000  0.80483400  1
  O  O10  1  0.26354100  0.17395100  0.83144000  1
  O  O11  1  0.99015000  0.80483400  0.59428000  1
  O  O12  1  0.00985000  0.19516600  0.40572000  1
  O  O13  1  0.73645900  0.82604900  0.16856000  1
  O  O14  1  0.40572000  0.00985000  0.19516600  1
  O  O15  1  0.51332600  0.14099500  0.52845400  1
  O  O16  1  0.14099500  0.52845400  0.51332600  1
  O  O17  1  0.17395100  0.83144000  0.26354100  1
  O  O18  1  0.80483400  0.59428000  0.99015000  1
  O  O19  1  0.83144000  0.26354100  0.17395100  1
  O  O20  1  0.52845400  0.51332600  0.14099500  1
  O  O21  1  0.12930600  0.20177500  0.57718000  1
  O  O22  1  0.57718000  0.12930600  0.20177500  1
  O  O23  1  0.20177500  0.57718000  0.12930600  1
loop_
_geom_bond_atom_site_label_1
_geom_bond_atom_site_label_2
_geom_bond_distance
_geom_bond_site_symmetry_2
Li0 O6 1.920473 1_555
Li0 O3 1.987239 1_555
Li0 O22 1.991917 1_556
Li0 O0 2.186201 1_555
Li1 O4 1.920473 1_555
Li1 O8 1.987239 1_555
Li1 O21 1.991917 1_565
Li1 O1 2.186201 1_555
Li2 O13 1.920473 1_555
Li2 O7 1.987240 1_555
Li2 O23 1.991917 1_655
Li2 O2 2.186201 1_555
Li3 O10 1.920473 1_555
Li3 O16 1.987240 1_555
Li3 O0 1.991917 1_455
Li3 O21 2.186201 1_555
Li4 O19 1.920473 1_555
Li4 O15 1.987239 1_555
Li4 O2 1.991917 1_545
Li4 O22 2.186201 1_555
Li5 O17 1.920473 1_555
Li5 O20 1.987239 1_555
Li5 O1 1.991917 1_554
Li5 O23 2.186201 1_555
O0 P5 1.581116 1_556
O0 Sb2 2.417661 1_555
O1 P3 1.581116 1_565
O1 Sb2 2.417661 1_555
O2 P4 1.581116 1_655
O2 Sb2 2.417661 1_555
O3 P0 1.571439 1_555
O3 Sb2 2.246916 1_555
O4 P0 1.532945 1_555
O4 Sb0 2.614015 1_455
O5 P0 1.547930 1_554
O5 Sb1 2.100660 1_555
O6 P1 1.532945 1_555
O6 Sb0 2.614015 1_545
O7 P1 1.571439 1_555
O7 Sb2 2.246916 1_555
O8 P2 1.571439 1_555
O8 Sb2 2.246916 1_555
O9 P3 1.547930 1_565
O9 Sb0 2.100660 1_555
O10 P3 1.532945 1_555
O10 Sb1 2.614015 1_556
O11 P4 1.547930 1_655
O11 Sb0 2.100660 1_555
O12 P1 1.547930 1_455
O12 Sb1 2.100660 1_555
O13 P2 1.532945 1_555
O13 Sb0 2.614015 1_554
O14 P2 1.547930 1_545
O14 Sb1 2.100660 1_555
O15 P3 1.571439 1_555
O15 Sb3 2.246916 1_555
O16 P4 1.571439 1_555
O16 Sb3 2.246916 1_555
O17 P4 1.532945 1_555
O17 Sb1 2.614015 1_565
O18 P5 1.547930 1_556
O18 Sb0 2.100660 1_555
O19 P5 1.532945 1_555
O19 Sb1 2.614015 1_655
O20 P5 1.571439 1_555
O20 Sb3 2.246916 1_555
O21 P1 1.581116 1_455
O21 Sb3 2.417661 1_555
O22 P2 1.581116 1_545
O22 Sb3 2.417661 1_555
O23 P0 1.581116 1_554
O23 Sb3 2.417661 1_555
