# generated using pymatgen
data_Li8Ti6Mn7O30
_symmetry_space_group_name_H-M   'P 1'
_cell_length_a   5.00847921
_cell_length_b   5.00847921
_cell_length_c   23.66133300
_cell_angle_alpha   90.00000000
_cell_angle_beta   90.00000000
_cell_angle_gamma   119.99998954
_symmetry_Int_Tables_number   1
_chemical_formula_structural   Li8Ti6Mn7O30
_chemical_formula_sum   'Li8 Ti6 Mn7 O30'
_cell_volume   514.02191537
_cell_formula_units_Z   1
loop_
 _symmetry_equiv_pos_site_id
 _symmetry_equiv_pos_as_xyz
  1  'x, y, z'
loop_
 _atom_site_type_symbol
 _atom_site_label
 _atom_site_symmetry_multiplicity
 _atom_site_fract_x
 _atom_site_fract_y
 _atom_site_fract_z
 _atom_site_occupancy
  Li  Li0  1  0.00000000  0.00000000  0.92017500  1
  Li  Li1  1  0.00000000  0.00000000  0.62584500  1
  Li  Li2  1  0.00000000  0.00000000  0.37260000  1
  Li  Li3  1  0.00000000  0.00000000  0.08230600  1
  Li  Li4  1  0.66666700  0.33333300  0.47218700  1
  Li  Li5  1  0.66666700  0.33333300  0.20459000  1
  Li  Li6  1  0.33333300  0.66666700  0.79341900  1
  Li  Li7  1  0.33333300  0.66666700  0.52714100  1
  Ti  Ti0  1  0.66666700  0.33333300  0.58874300  1
  Ti  Ti1  1  0.33333300  0.66666700  0.89187400  1
  Ti  Ti2  1  0.33333300  0.66666700  0.41024400  1
  Ti  Ti3  1  0.00000000  0.00000000  0.80027100  1
  Ti  Ti4  1  0.00000000  0.00000000  0.49943300  1
  Ti  Ti5  1  0.00000000  0.00000000  0.19717900  1
  Mn  Mn0  1  0.66666700  0.33333300  0.70719300  1
  Mn  Mn1  1  0.66666700  0.33333300  0.99358800  1
  Mn  Mn2  1  0.66666700  0.33333300  0.10634400  1
  Mn  Mn3  1  0.33333300  0.66666700  0.00948600  1
  Mn  Mn4  1  0.33333300  0.66666700  0.29222400  1
  Mn  Mn5  1  0.66666700  0.33333300  0.30474400  1
  Mn  Mn6  1  0.33333300  0.66666700  0.69431900  1
  O  O0  1  0.26307400  0.32937700  0.84830300  1
  O  O1  1  0.03859400  0.70677600  0.45062200  1
  O  O2  1  0.38740100  0.36793100  0.65431400  1
  O  O3  1  0.34820100  0.33460700  0.25417800  1
  O  O4  1  0.97231500  0.61793200  0.04795200  1
  O  O5  1  0.33177700  0.06778700  0.15041700  1
  O  O6  1  0.33098800  0.03778900  0.54962200  1
  O  O7  1  0.01919600  0.38821900  0.34570900  1
  O  O8  1  0.33338000  0.98609600  0.74534500  1
  O  O9  1  0.62050800  0.64507000  0.95557100  1
  O  O10  1  0.35493000  0.97543800  0.95557100  1
  O  O11  1  0.93221300  0.26399000  0.15041700  1
  O  O12  1  0.36902300  0.98080400  0.34570900  1
  O  O13  1  0.01390400  0.34728400  0.74534500  1
  O  O14  1  0.70680100  0.66901200  0.54962200  1
  O  O15  1  0.29322400  0.33181900  0.45062200  1
  O  O16  1  0.98640600  0.65179900  0.25417800  1
  O  O17  1  0.63206900  0.01947000  0.65431400  1
  O  O18  1  0.06630300  0.73692600  0.84830300  1
  O  O19  1  0.64561700  0.02768500  0.04795200  1
  O  O20  1  0.38206800  0.35438300  0.04795200  1
  O  O21  1  0.66539300  0.01359400  0.25417800  1
  O  O22  1  0.98053000  0.61259900  0.65431400  1
  O  O23  1  0.66818100  0.96140600  0.45062200  1
  O  O24  1  0.67062300  0.93369700  0.84830300  1
  O  O25  1  0.02456200  0.37949200  0.95557100  1
  O  O26  1  0.65271600  0.66662000  0.74534500  1
  O  O27  1  0.61178100  0.63097700  0.34570900  1
  O  O28  1  0.96221100  0.29319900  0.54962200  1
  O  O29  1  0.73601000  0.66822300  0.15041700  1
loop_
_geom_bond_atom_site_label_1
_geom_bond_atom_site_label_2
_geom_bond_distance
_geom_bond_site_symmetry_2
Li0 O10 2.023691 1_545
Li0 O25 2.023691 1_555
Li0 O9 2.023691 1_445
Li0 O18 2.275058 1_545
Li0 O24 2.275058 1_445
Li0 O0 2.275058 1_555
Li1 O17 2.009672 1_455
Li1 O22 2.009672 1_445
Li1 O2 2.009673 1_555
Li1 O28 2.392267 1_455
Li1 O6 2.392267 1_555
Li1 O14 2.392267 1_445
Li2 O12 2.001947 1_545
Li2 O7 2.001947 1_555
Li2 O27 2.001948 1_445
Li2 O1 2.426138 1_545
Li2 O15 2.426141 1_555
Li2 O23 2.426142 1_445
Li3 O19 2.019015 1_455
Li3 O4 2.019015 1_445
Li3 O20 2.019015 1_555
Li3 O11 2.215759 1_455
Li3 O5 2.215760 1_555
Li3 O29 2.215760 1_445
Li4 O23 1.935078 1_545
Li4 O1 1.935083 1_655
Li4 O15 1.935087 1_555
Li4 O28 2.426114 1_555
Li4 O6 2.426116 1_555
Li4 O14 2.426117 1_555
Li5 O21 1.982675 1_555
Li5 O16 1.982677 1_555
Li5 O3 1.982679 1_555
Li5 O11 1.998600 1_555
Li5 O5 1.998603 1_555
Li5 O29 1.998604 1_555
Li6 O8 1.962919 1_555
Li6 O13 1.962921 1_555
Li6 O26 1.962923 1_555
Li6 O18 2.017316 1_555
Li6 O24 2.017319 1_555
Li6 O0 2.017320 1_555
Li7 O6 1.939045 1_565
Li7 O28 1.939048 1_455
Li7 O14 1.939050 1_555
Li7 O1 2.407096 1_555
Li7 O15 2.407096 1_555
Li7 O23 2.407096 1_555
Mn0 O13 1.929469 1_655
Mn0 O8 1.929471 1_545
Mn0 O26 1.929473 1_555
Mn0 O17 1.947873 1_555
Mn0 O22 1.947875 1_555
Mn0 O2 1.947877 1_555
Mn1 O25 1.913451 1_655
Mn1 O10 1.913453 1_545
Mn1 O9 1.913455 1_555
Mn1 O19 1.961581 1_556
Mn1 O4 1.961583 1_556
Mn1 O20 1.961584 1_556
Mn2 O11 1.854417 1_555
Mn2 O5 1.854420 1_555
Mn2 O29 1.854421 1_555
Mn2 O19 2.025358 1_555
Mn2 O4 2.025360 1_555
Mn2 O20 2.025362 1_555
Mn3 O4 1.927700 1_455
Mn3 O19 1.927702 1_565
Mn3 O20 1.927704 1_555
Mn3 O10 1.965557 1_554
Mn3 O25 1.965558 1_554
Mn3 O9 1.965560 1_554
Mn4 O16 1.925025 1_455
Mn4 O21 1.925027 1_565
Mn4 O3 1.925030 1_555
Mn4 O12 1.956450 1_555
Mn4 O7 1.956451 1_555
Mn4 O27 1.956453 1_555
Mn5 O7 1.909760 1_655
Mn5 O12 1.909762 1_545
Mn5 O27 1.909764 1_555
Mn5 O21 1.996456 1_555
Mn5 O16 1.996459 1_555
Mn5 O3 1.996460 1_555
Mn6 O22 1.900826 1_455
Mn6 O17 1.900828 1_565
Mn6 O2 1.900830 1_555
Mn6 O8 2.004204 1_555
Mn6 O13 2.004206 1_555
Mn6 O26 2.004208 1_555
O0 Ti1 1.856340 1_555
O0 Ti3 1.890907 1_555
O1 Ti2 1.851711 1_555
O1 Ti4 1.952413 1_565
O2 Ti0 2.153114 1_555
O3 Ti5 2.178578 1_555
O5 Ti5 1.880580 1_555
O6 Ti0 1.840071 1_555
O6 Ti4 1.969883 1_555
O7 Ti2 2.134906 1_555
O8 Ti3 2.144325 1_565
O9 Ti1 2.123095 1_555
O10 Ti1 2.123092 1_555
O11 Ti5 1.880580 1_655
O12 Ti2 2.134905 1_555
O13 Ti3 2.144325 1_555
O14 Ti0 1.840073 1_555
O14 Ti4 1.969883 1_665
O15 Ti2 1.851711 1_555
O15 Ti4 1.952416 1_555
O16 Ti5 2.178578 1_665
O17 Ti0 2.153110 1_555
O18 Ti1 1.856335 1_555
O18 Ti3 1.890906 1_565
O21 Ti5 2.178578 1_655
O22 Ti0 2.153112 1_555
O23 Ti2 1.851711 1_555
O23 Ti4 1.952417 1_665
O24 Ti1 1.856338 1_555
O24 Ti3 1.890906 1_665
O25 Ti1 2.123094 1_555
O26 Ti3 2.144326 1_665
O27 Ti2 2.134908 1_555
O28 Ti0 1.840068 1_555
O28 Ti4 1.969883 1_655
O29 Ti5 1.880580 1_665
