# generated using pymatgen
data_NaMnPO4
_symmetry_space_group_name_H-M   'P 1'
_cell_length_a   5.06494200
_cell_length_b   6.40786300
_cell_length_c   10.64574100
_cell_angle_alpha   90.00000000
_cell_angle_beta   90.00000000
_cell_angle_gamma   90.00000000
_symmetry_Int_Tables_number   1
_chemical_formula_structural   NaMnPO4
_chemical_formula_sum   'Na4 Mn4 P4 O16'
_cell_volume   345.51236199
_cell_formula_units_Z   4
loop_
 _symmetry_equiv_pos_site_id
 _symmetry_equiv_pos_as_xyz
  1  'x, y, z'
loop_
 _atom_site_type_symbol
 _atom_site_label
 _atom_site_symmetry_multiplicity
 _atom_site_fract_x
 _atom_site_fract_y
 _atom_site_fract_z
 _atom_site_occupancy
  Na  Na0  1  0.00000000  0.50000000  0.50000000  1
  Na  Na1  1  0.50000000  0.50000000  0.00000000  1
  Na  Na2  1  0.00000000  0.00000000  0.50000000  1
  Na  Na3  1  0.50000000  0.00000000  0.00000000  1
  Mn  Mn0  1  0.98381100  0.75000000  0.21697500  1
  Mn  Mn1  1  0.51618900  0.75000000  0.71697500  1
  Mn  Mn2  1  0.48381100  0.25000000  0.28302500  1
  Mn  Mn3  1  0.01618900  0.25000000  0.78302500  1
  P  P0  1  0.42990900  0.75000000  0.39591100  1
  P  P1  1  0.07009100  0.75000000  0.89591100  1
  P  P2  1  0.92990900  0.25000000  0.10408900  1
  P  P3  1  0.57009100  0.25000000  0.60408900  1
  O  O0  1  0.30016800  0.55707100  0.32808700  1
  O  O1  1  0.19983200  0.55707100  0.82808700  1
  O  O2  1  0.16559500  0.75000000  0.03511400  1
  O  O3  1  0.33440500  0.75000000  0.53511400  1
  O  O4  1  0.73408400  0.75000000  0.38734700  1
  O  O5  1  0.76591600  0.75000000  0.88734700  1
  O  O6  1  0.30016800  0.94292900  0.32808700  1
  O  O7  1  0.19983200  0.94292900  0.82808700  1
  O  O8  1  0.69983200  0.05707100  0.67191300  1
  O  O9  1  0.80016800  0.05707100  0.17191300  1
  O  O10  1  0.66559500  0.25000000  0.46488600  1
  O  O11  1  0.23408400  0.25000000  0.11265300  1
  O  O12  1  0.83440500  0.25000000  0.96488600  1
  O  O13  1  0.26591600  0.25000000  0.61265300  1
  O  O14  1  0.80016800  0.44292900  0.17191300  1
  O  O15  1  0.69983200  0.44292900  0.67191300  1
loop_
_geom_bond_atom_site_label_1
_geom_bond_atom_site_label_2
_geom_bond_distance
_geom_bond_site_symmetry_2
Na0 O3 2.361100 1_555
Na0 O10 2.361100 1_455
Na0 O15 2.407191 1_455
Na0 O0 2.407191 1_555
Na0 O4 2.412168 1_455
Na0 O13 2.412168 1_555
Na1 O2 2.361100 1_555
Na1 O12 2.361100 1_554
Na1 O14 2.407191 1_555
Na1 O1 2.407191 1_554
Na1 O11 2.412168 1_555
Na1 O5 2.412168 1_554
Na2 O3 2.361100 1_545
Na2 O10 2.361100 1_455
Na2 O8 2.407191 1_455
Na2 O6 2.407191 1_545
Na2 O13 2.412168 1_555
Na2 O4 2.412168 1_445
Na3 O2 2.361100 1_545
Na3 O12 2.361100 1_554
Na3 O9 2.407191 1_555
Na3 O7 2.407191 1_544
Na3 O11 2.412168 1_555
Na3 O5 2.412168 1_544
Mn0 O2 2.143830 1_655
Mn0 O4 2.211219 1_555
Mn0 O9 2.228680 1_565
Mn0 O14 2.228680 1_555
Mn0 O6 2.344139 1_655
Mn0 O0 2.344139 1_655
Mn1 O3 2.143830 1_555
Mn1 O5 2.211219 1_555
Mn1 O8 2.228680 1_565
Mn1 O15 2.228680 1_555
Mn1 O7 2.344139 1_555
Mn1 O1 2.344139 1_555
Mn2 O10 2.143830 1_555
Mn2 O11 2.211219 1_555
Mn2 O0 2.228680 1_555
Mn2 O6 2.228680 1_545
Mn2 O14 2.344139 1_555
Mn2 O9 2.344139 1_555
Mn3 O12 2.143830 1_455
Mn3 O13 2.211219 1_555
Mn3 O1 2.228680 1_555
Mn3 O7 2.228680 1_545
Mn3 O15 2.344139 1_455
Mn3 O8 2.344139 1_455
O0 P0 1.575279 1_555
O1 P1 1.575279 1_555
O2 P1 1.558869 1_554
O3 P0 1.558869 1_555
O4 P0 1.543324 1_555
O5 P1 1.543324 1_655
O6 P0 1.575279 1_555
O7 P1 1.575279 1_555
O8 P3 1.575279 1_555
O9 P2 1.575279 1_555
O10 P3 1.558869 1_555
O11 P2 1.543324 1_455
O12 P2 1.558869 1_556
O13 P3 1.543324 1_555
O14 P2 1.575279 1_555
O15 P3 1.575279 1_555
