# generated using pymatgen
data_Li9Mn12Cu3O32
_symmetry_space_group_name_H-M   'P 1'
_cell_length_a   8.29038333
_cell_length_b   8.29038333
_cell_length_c   8.29038304
_cell_angle_alpha   90.22472717
_cell_angle_beta   90.22472717
_cell_angle_gamma   90.22471913
_symmetry_Int_Tables_number   1
_chemical_formula_structural   Li9Mn12Cu3O32
_chemical_formula_sum   'Li9 Mn12 Cu3 O32'
_cell_volume   569.78862217
_cell_formula_units_Z   1
loop_
 _symmetry_equiv_pos_site_id
 _symmetry_equiv_pos_as_xyz
  1  'x, y, z'
loop_
 _atom_site_type_symbol
 _atom_site_label
 _atom_site_symmetry_multiplicity
 _atom_site_fract_x
 _atom_site_fract_y
 _atom_site_fract_z
 _atom_site_occupancy
  Li  Li0  1  0.99596300  0.99596300  0.99596300  1
  Li  Li1  1  0.62289500  0.87728700  0.12181800  1
  Li  Li2  1  0.75378300  0.75378300  0.75378300  1
  Li  Li3  1  0.24906100  0.74757200  0.24632800  1
  Li  Li4  1  0.12181800  0.62289500  0.87728700  1
  Li  Li5  1  0.37516700  0.37516700  0.37516700  1
  Li  Li6  1  0.24632800  0.24906100  0.74757200  1
  Li  Li7  1  0.74757200  0.24632800  0.24906100  1
  Li  Li8  1  0.87728700  0.12181800  0.62289500  1
  Mn  Mn0  1  0.37085100  0.87869300  0.87415200  1
  Mn  Mn1  1  0.12217100  0.87657900  0.62300600  1
  Mn  Mn2  1  0.87869300  0.87415200  0.37085100  1
  Mn  Mn3  1  0.37539300  0.62389200  0.62179500  1
  Mn  Mn4  1  0.62389200  0.62179500  0.37539300  1
  Mn  Mn5  1  0.87657900  0.62300600  0.12217100  1
  Mn  Mn6  1  0.62179500  0.37539300  0.62389200  1
  Mn  Mn7  1  0.87415200  0.37085100  0.87869300  1
  Mn  Mn8  1  0.11796700  0.37521200  0.12275300  1
  Mn  Mn9  1  0.62300600  0.12217100  0.87657900  1
  Mn  Mn10  1  0.37521200  0.12275300  0.11796700  1
  Mn  Mn11  1  0.12275300  0.11796700  0.37521200  1
  Cu  Cu0  1  0.48731300  0.50875700  0.00654300  1
  Cu  Cu1  1  0.00654300  0.48731300  0.50875700  1
  Cu  Cu2  1  0.50875700  0.00654300  0.48731300  1
  O  O0  1  0.60196000  0.89874600  0.87169200  1
  O  O1  1  0.36877900  0.89438500  0.10172000  1
  O  O2  1  0.11110000  0.88670600  0.38417700  1
  O  O3  1  0.89874600  0.87169200  0.60196000  1
  O  O4  1  0.14079600  0.87654300  0.84932800  1
  O  O5  1  0.36162600  0.86304800  0.63366500  1
  O  O6  1  0.64614500  0.85794800  0.38325500  1
  O  O7  1  0.87654300  0.84932800  0.14079600  1
  O  O8  1  0.38325500  0.64614500  0.85794800  1
  O  O9  1  0.14636100  0.63744700  0.61803200  1
  O  O10  1  0.86304800  0.63366500  0.36162600  1
  O  O11  1  0.63744700  0.61803200  0.14636100  1
  O  O12  1  0.39704300  0.62825500  0.39312100  1
  O  O13  1  0.61344200  0.61344200  0.61344200  1
  O  O14  1  0.87169200  0.60196000  0.89874600  1
  O  O15  1  0.10225400  0.60154800  0.12820900  1
  O  O16  1  0.39312100  0.39704300  0.62825500  1
  O  O17  1  0.62825500  0.39312100  0.39704300  1
  O  O18  1  0.88670600  0.38417700  0.11110000  1
  O  O19  1  0.10172000  0.36877900  0.89438500  1
  O  O20  1  0.85794800  0.38325500  0.64614500  1
  O  O21  1  0.63366500  0.36162600  0.86304800  1
  O  O22  1  0.34973600  0.36142900  0.12334800  1
  O  O23  1  0.12334800  0.34973600  0.36142900  1
  O  O24  1  0.61803200  0.14636100  0.63744700  1
  O  O25  1  0.84932800  0.14079600  0.87654300  1
  O  O26  1  0.13708200  0.13708200  0.13708200  1
  O  O27  1  0.36142900  0.12334800  0.34973600  1
  O  O28  1  0.60154800  0.12820900  0.10225400  1
  O  O29  1  0.38417700  0.11110000  0.88670600  1
  O  O30  1  0.12820900  0.10225400  0.60154800  1
  O  O31  1  0.89438500  0.10172000  0.36877900  1
loop_
_geom_bond_atom_site_label_1
_geom_bond_atom_site_label_2
_geom_bond_distance
_geom_bond_site_symmetry_2
Li0 O25 1.977642 1_565
Li0 O4 1.977642 1_655
Li0 O7 1.977643 1_556
Li0 O26 2.018416 1_666
Li1 O0 2.088557 1_554
Li1 O28 2.095312 1_565
Li1 O1 2.117993 1_555
Li1 O7 2.121775 1_555
Li1 O11 2.163520 1_555
Li1 O6 2.181795 1_555
Li2 O0 1.999100 1_555
Li2 O14 1.999100 1_555
Li2 O3 1.999100 1_555
Li2 O13 2.007288 1_555
Li3 O15 1.968646 1_555
Li3 O1 1.978649 1_555
Li3 O2 1.988710 1_555
Li3 O12 1.992952 1_555
Li4 O14 2.088557 1_455
Li4 O15 2.095312 1_556
Li4 O19 2.117993 1_555
Li4 O4 2.121775 1_555
Li4 O9 2.163520 1_555
Li4 O8 2.181795 1_555
Li5 O22 2.100073 1_555
Li5 O27 2.100073 1_555
Li5 O23 2.100073 1_555
Li5 O16 2.109936 1_555
Li5 O17 2.109936 1_555
Li5 O12 2.109936 1_555
Li6 O30 1.968646 1_555
Li6 O19 1.978649 1_555
Li6 O29 1.988710 1_555
Li6 O16 1.992952 1_555
Li7 O28 1.968646 1_555
Li7 O31 1.978649 1_555
Li7 O18 1.988710 1_555
Li7 O17 1.992952 1_555
Li8 O3 2.088557 1_545
Li8 O30 2.095312 1_655
Li8 O31 2.117993 1_555
Li8 O25 2.121775 1_555
Li8 O24 2.163520 1_555
Li8 O20 2.181795 1_555
Mn0 O1 1.890747 1_556
Mn0 O4 1.917519 1_555
Mn0 O0 1.922726 1_555
Mn0 O29 1.931850 1_565
Mn0 O8 1.935226 1_555
Mn0 O5 1.998581 1_555
Mn1 O3 1.860065 1_455
Mn1 O30 1.880555 1_565
Mn1 O4 1.882036 1_555
Mn1 O2 1.983872 1_555
Mn1 O5 1.990416 1_555
Mn1 O9 1.993678 1_555
Mn2 O31 1.890747 1_565
Mn2 O7 1.917518 1_555
Mn2 O3 1.922726 1_555
Mn2 O2 1.931850 1_655
Mn2 O6 1.935226 1_555
Mn2 O10 1.998581 1_555
Mn3 O16 1.887927 1_555
Mn3 O9 1.902666 1_555
Mn3 O12 1.905445 1_555
Mn3 O8 1.966553 1_555
Mn3 O13 1.977230 1_555
Mn3 O5 1.988497 1_555
Mn4 O12 1.887927 1_555
Mn4 O11 1.902666 1_555
Mn4 O17 1.905445 1_555
Mn4 O6 1.966553 1_555
Mn4 O13 1.977230 1_555
Mn4 O10 1.988497 1_555
Mn5 O14 1.860065 1_554
Mn5 O15 1.880555 1_655
Mn5 O7 1.882036 1_555
Mn5 O18 1.983872 1_555
Mn5 O10 1.990416 1_555
Mn5 O11 1.993678 1_555
Mn6 O17 1.887927 1_555
Mn6 O24 1.902666 1_555
Mn6 O16 1.905445 1_555
Mn6 O20 1.966553 1_555
Mn6 O13 1.977230 1_555
Mn6 O21 1.988497 1_555
Mn7 O19 1.890747 1_655
Mn7 O25 1.917519 1_555
Mn7 O14 1.922726 1_555
Mn7 O18 1.931850 1_556
Mn7 O20 1.935226 1_555
Mn7 O21 1.998581 1_555
Mn8 O15 1.881817 1_555
Mn8 O19 1.898042 1_554
Mn8 O18 1.921040 1_455
Mn8 O22 1.925284 1_555
Mn8 O26 1.985143 1_555
Mn8 O23 1.991123 1_555
Mn9 O0 1.860065 1_545
Mn9 O28 1.880555 1_556
Mn9 O25 1.882037 1_555
Mn9 O29 1.983872 1_555
Mn9 O21 1.990416 1_555
Mn9 O24 1.993678 1_555
Mn10 O28 1.881817 1_555
Mn10 O1 1.898042 1_545
Mn10 O29 1.921040 1_554
Mn10 O27 1.925284 1_555
Mn10 O26 1.985143 1_555
Mn10 O22 1.991124 1_555
Mn11 O30 1.881817 1_555
Mn11 O31 1.898042 1_455
Mn11 O2 1.921040 1_545
Mn11 O23 1.925284 1_555
Mn11 O26 1.985143 1_555
Mn11 O27 1.991124 1_555
Cu0 O8 1.889316 1_554
Cu0 O11 1.919669 1_555
Cu0 O22 1.933250 1_555
Cu0 O21 2.094455 1_554
Cu1 O20 1.889316 1_455
Cu1 O9 1.919669 1_555
Cu1 O23 1.933250 1_555
Cu1 O10 2.094455 1_455
Cu2 O6 1.889316 1_545
Cu2 O24 1.919669 1_555
Cu2 O27 1.933250 1_555
Cu2 O5 2.094455 1_545
