# generated using pymatgen
data_MgPO7
_symmetry_space_group_name_H-M   'P 1'
_cell_length_a   10.03423300
_cell_length_b   10.29749500
_cell_length_c   10.69943200
_cell_angle_alpha   90.00000000
_cell_angle_beta   90.00000000
_cell_angle_gamma   90.00000000
_symmetry_Int_Tables_number   1
_chemical_formula_structural   MgPO7
_chemical_formula_sum   'Mg8 P8 O56'
_cell_volume   1105.54517637
_cell_formula_units_Z   8
loop_
 _symmetry_equiv_pos_site_id
 _symmetry_equiv_pos_as_xyz
  1  'x, y, z'
loop_
 _atom_site_type_symbol
 _atom_site_label
 _atom_site_symmetry_multiplicity
 _atom_site_fract_x
 _atom_site_fract_y
 _atom_site_fract_z
 _atom_site_occupancy
  Mg  Mg0  1  0.80128600  0.26780800  0.38688200  1
  Mg  Mg1  1  0.30128600  0.23219200  0.61311800  1
  Mg  Mg2  1  0.19871400  0.76780800  0.11311800  1
  Mg  Mg3  1  0.69871400  0.73219200  0.88688200  1
  Mg  Mg4  1  0.19871400  0.73219200  0.61311800  1
  Mg  Mg5  1  0.69871400  0.76780800  0.38688200  1
  Mg  Mg6  1  0.80128600  0.23219200  0.88688200  1
  Mg  Mg7  1  0.30128600  0.26780800  0.11311800  1
  P  P0  1  0.48585100  0.14110100  0.35422600  1
  P  P1  1  0.98585100  0.35889900  0.64577400  1
  P  P2  1  0.51414900  0.64110100  0.14577400  1
  P  P3  1  0.01414900  0.85889900  0.85422600  1
  P  P4  1  0.51414900  0.85889900  0.64577400  1
  P  P5  1  0.01414900  0.64110100  0.35422600  1
  P  P6  1  0.48585100  0.35889900  0.85422600  1
  P  P7  1  0.98585100  0.14110100  0.14577400  1
  O  O0  1  0.41935800  0.20230700  0.24026400  1
  O  O1  1  0.91935800  0.29769300  0.75973600  1
  O  O2  1  0.58064200  0.70230700  0.25973600  1
  O  O3  1  0.08064200  0.79769300  0.74026400  1
  O  O4  1  0.58064200  0.79769300  0.75973600  1
  O  O5  1  0.08064200  0.70230700  0.24026400  1
  O  O6  1  0.41935800  0.29769300  0.74026400  1
  O  O7  1  0.91935800  0.20230700  0.25973600  1
  O  O8  1  0.41278600  0.18104900  0.47436900  1
  O  O9  1  0.91278600  0.31895100  0.52563100  1
  O  O10  1  0.58721400  0.68104900  0.02563100  1
  O  O11  1  0.08721400  0.81895100  0.97436900  1
  O  O12  1  0.58721400  0.81895100  0.52563100  1
  O  O13  1  0.08721400  0.68104900  0.47436900  1
  O  O14  1  0.41278600  0.31895100  0.97436900  1
  O  O15  1  0.91278600  0.18104900  0.02563100  1
  O  O16  1  0.63173300  0.18214700  0.36633700  1
  O  O17  1  0.13173300  0.31785300  0.63366300  1
  O  O18  1  0.36826700  0.68214700  0.13366300  1
  O  O19  1  0.86826700  0.81785300  0.86633700  1
  O  O20  1  0.36826700  0.81785300  0.63366300  1
  O  O21  1  0.86826700  0.68214700  0.36633700  1
  O  O22  1  0.63173300  0.31785300  0.86633700  1
  O  O23  1  0.13173300  0.18214700  0.13366300  1
  O  O24  1  0.47744800  0.99197700  0.33179600  1
  O  O25  1  0.97744800  0.50802300  0.66820400  1
  O  O26  1  0.52255200  0.49197700  0.16820400  1
  O  O27  1  0.02255200  0.00802300  0.83179600  1
  O  O28  1  0.52255200  0.00802300  0.66820400  1
  O  O29  1  0.02255200  0.49197700  0.33179600  1
  O  O30  1  0.47744800  0.50802300  0.83179600  1
  O  O31  1  0.97744800  0.99197700  0.16820400  1
  O  O32  1  0.66486200  0.38042600  0.56389700  1
  O  O33  1  0.16486200  0.11957400  0.43610300  1
  O  O34  1  0.33513800  0.88042600  0.93610300  1
  O  O35  1  0.83513800  0.61957400  0.06389700  1
  O  O36  1  0.33513800  0.61957400  0.43610300  1
  O  O37  1  0.83513800  0.88042600  0.56389700  1
  O  O38  1  0.66486200  0.11957400  0.06389700  1
  O  O39  1  0.16486200  0.38042600  0.93610300  1
  O  O40  1  0.70862300  0.45538800  0.37492100  1
  O  O41  1  0.20862300  0.04461200  0.62507900  1
  O  O42  1  0.29137700  0.95538800  0.12507900  1
  O  O43  1  0.79137700  0.54461200  0.87492100  1
  O  O44  1  0.29137700  0.54461200  0.62507900  1
  O  O45  1  0.79137700  0.95538800  0.37492100  1
  O  O46  1  0.70862300  0.04461200  0.87492100  1
  O  O47  1  0.20862300  0.45538800  0.12507900  1
  O  O48  1  0.84020300  0.97691800  0.48818600  1
  O  O49  1  0.34020300  0.52308200  0.51181400  1
  O  O50  1  0.15979700  0.47691800  0.01181400  1
  O  O51  1  0.65979700  0.02308200  0.98818600  1
  O  O52  1  0.15979700  0.02308200  0.51181400  1
  O  O53  1  0.65979700  0.47691800  0.48818600  1
  O  O54  1  0.84020300  0.52308200  0.98818600  1
  O  O55  1  0.34020300  0.97691800  0.01181400  1
loop_
_geom_bond_atom_site_label_1
_geom_bond_atom_site_label_2
_geom_bond_distance
_geom_bond_site_symmetry_2
Mg0 O7 1.925946 1_555
Mg0 O16 1.928976 1_555
Mg0 O9 1.932085 1_555
Mg0 O40 2.147558 1_555
Mg0 O32 2.608805 1_555
Mg1 O6 1.925946 1_555
Mg1 O17 1.928976 1_555
Mg1 O8 1.932085 1_555
Mg1 O41 2.147558 1_555
Mg1 O33 2.608805 1_555
Mg2 O5 1.925946 1_555
Mg2 O18 1.928976 1_555
Mg2 O11 1.932085 1_554
Mg2 O42 2.147558 1_555
Mg2 O34 2.608805 1_554
Mg3 O4 1.925946 1_555
Mg3 O19 1.928976 1_555
Mg3 O10 1.932085 1_556
Mg3 O43 2.147558 1_555
Mg3 O35 2.608805 1_556
Mg4 O3 1.925946 1_555
Mg4 O20 1.928976 1_555
Mg4 O13 1.932085 1_555
Mg4 O44 2.147558 1_555
Mg4 O36 2.608805 1_555
Mg5 O2 1.925946 1_555
Mg5 O21 1.928976 1_555
Mg5 O12 1.932085 1_555
Mg5 O45 2.147558 1_555
Mg5 O37 2.608805 1_555
Mg6 O1 1.925946 1_555
Mg6 O22 1.928976 1_555
Mg6 O15 1.932085 1_556
Mg6 O46 2.147558 1_555
Mg6 O38 2.608805 1_556
Mg7 O0 1.925946 1_555
Mg7 O23 1.928976 1_555
Mg7 O14 1.932085 1_554
Mg7 O47 2.147558 1_555
Mg7 O39 2.608805 1_554
O0 P0 1.526160 1_555
O1 P1 1.526160 1_555
O2 P2 1.526160 1_555
O3 P3 1.526160 1_555
O4 P4 1.526160 1_555
O5 P5 1.526160 1_555
O6 P6 1.526160 1_555
O7 P7 1.526160 1_555
O8 P0 1.535950 1_555
O9 P1 1.535950 1_555
O10 P2 1.535950 1_555
O11 P3 1.535950 1_555
O12 P4 1.535950 1_555
O13 P5 1.535950 1_555
O14 P6 1.535950 1_555
O15 P7 1.535950 1_555
O16 P0 1.529115 1_555
O17 P1 1.529115 1_455
O18 P2 1.529115 1_555
O19 P3 1.529115 1_655
O20 P4 1.529115 1_555
O21 P5 1.529115 1_655
O22 P6 1.529115 1_555
O23 P7 1.529115 1_455
O24 P0 1.556529 1_565
O25 P1 1.556529 1_555
O26 P2 1.556529 1_555
O27 P3 1.556529 1_545
O28 P4 1.556529 1_545
O29 P5 1.556529 1_555
O30 P6 1.556529 1_555
O31 P7 1.556529 1_565
O32 O53 1.282997 1_555
O33 O52 1.282997 1_555
O34 O55 1.282997 1_556
O35 O54 1.282997 1_554
O36 O49 1.282997 1_555
O37 O48 1.282997 1_555
O38 O51 1.282997 1_554
O39 O50 1.282997 1_556
O40 O53 1.325827 1_555
O41 O52 1.325827 1_555
O42 O55 1.325827 1_555
O43 O54 1.325827 1_555
O44 O49 1.325827 1_555
O45 O48 1.325827 1_555
O46 O51 1.325827 1_555
O47 O50 1.325827 1_555
