# generated using pymatgen
data_LiCuF3
_symmetry_space_group_name_H-M   'P 1'
_cell_length_a   5.05690681
_cell_length_b   5.05690681
_cell_length_c   14.61170200
_cell_angle_alpha   90.00000000
_cell_angle_beta   90.00000000
_cell_angle_gamma   120.00001064
_symmetry_Int_Tables_number   1
_chemical_formula_structural   LiCuF3
_chemical_formula_sum   'Li6 Cu6 F18'
_cell_volume   323.59462029
_cell_formula_units_Z   6
loop_
 _symmetry_equiv_pos_site_id
 _symmetry_equiv_pos_as_xyz
  1  'x, y, z'
loop_
 _atom_site_type_symbol
 _atom_site_label
 _atom_site_symmetry_multiplicity
 _atom_site_fract_x
 _atom_site_fract_y
 _atom_site_fract_z
 _atom_site_occupancy
  Li  Li0  1  0.11709600  0.05854800  0.58333300  1
  Li  Li1  1  0.94145200  0.88290400  0.25000000  1
  Li  Li2  1  0.05854800  0.94145200  0.41666700  1
  Li  Li3  1  0.94145200  0.05854800  0.91666700  1
  Li  Li4  1  0.05854800  0.11709600  0.75000000  1
  Li  Li5  1  0.88290400  0.94145200  0.08333300  1
  Cu  Cu0  1  0.57215600  0.28607800  0.08333300  1
  Cu  Cu1  1  0.71392200  0.42784400  0.75000000  1
  Cu  Cu2  1  0.71392200  0.28607800  0.41666700  1
  Cu  Cu3  1  0.28607800  0.71392200  0.91666700  1
  Cu  Cu4  1  0.28607800  0.57215600  0.25000000  1
  Cu  Cu5  1  0.42784400  0.71392200  0.58333300  1
  F  F0  1  0.24092800  0.24092800  0.16666700  1
  F  F1  1  0.40846700  0.29891200  0.49035100  1
  F  F2  1  0.40846700  0.10955400  0.67631500  1
  F  F3  1  0.75907200  0.75907200  0.66666700  1
  F  F4  1  0.70108800  0.59153300  0.34298200  1
  F  F5  1  0.89044600  0.59153300  0.15701800  1
  F  F6  1  0.00000000  0.75907200  0.83333300  1
  F  F7  1  0.70108800  0.10955400  0.82368500  1
  F  F8  1  0.24092800  0.00000000  0.00000000  1
  F  F9  1  0.89044600  0.29891200  0.00964900  1
  F  F10  1  0.10955400  0.70108800  0.50964900  1
  F  F11  1  0.75907200  0.00000000  0.50000000  1
  F  F12  1  0.29891200  0.89044600  0.32368500  1
  F  F13  1  0.00000000  0.24092800  0.33333300  1
  F  F14  1  0.10955400  0.40846700  0.65701800  1
  F  F15  1  0.29891200  0.40846700  0.84298200  1
  F  F16  1  0.59153300  0.89044600  0.17631500  1
  F  F17  1  0.59153300  0.70108800  0.99035100  1
loop_
_geom_bond_atom_site_label_1
_geom_bond_atom_site_label_2
_geom_bond_distance
_geom_bond_site_symmetry_2
Cu0 F9 1.910397 1_555
Cu0 F5 1.910403 1_555
Cu0 F8 1.989453 1_555
Cu0 F0 1.989463 1_555
Cu0 F16 2.460529 1_545
Cu0 F17 2.460533 1_554
Cu1 F2 1.910403 1_555
Cu1 F7 1.910405 1_555
Cu1 F6 1.989453 1_655
Cu1 F3 1.989454 1_555
Cu1 F14 2.460529 1_655
Cu1 F15 2.460533 1_555
Cu2 F1 1.910393 1_555
Cu2 F4 1.910401 1_555
Cu2 F11 1.989454 1_555
Cu2 F13 1.989463 1_655
Cu2 F12 2.460531 1_545
Cu2 F10 2.460531 1_655
Cu3 F17 1.910393 1_555
Cu3 F15 1.910401 1_555
Cu3 F8 1.989454 1_566
Cu3 F6 1.989463 1_555
Cu3 F7 2.460531 1_565
Cu3 F9 2.460531 1_456
Cu4 F16 1.910403 1_555
Cu4 F12 1.910405 1_555
Cu4 F13 1.989453 1_555
Cu4 F0 1.989454 1_555
Cu4 F5 2.460529 1_455
Cu4 F4 2.460533 1_555
Cu5 F10 1.910397 1_555
Cu5 F14 1.910403 1_555
Cu5 F11 1.989453 1_565
Cu5 F3 1.989463 1_555
Cu5 F2 2.460529 1_565
Cu5 F1 2.460533 1_555
F0 Li1 2.076572 1_445
F0 Li5 2.076580 1_445
F1 Li0 1.924410 1_555
F1 Li2 2.087885 1_545
F2 Li0 1.924411 1_555
F2 Li4 2.087895 1_555
F3 Li4 2.076572 1_665
F3 Li0 2.076580 1_665
F4 Li1 1.924410 1_555
F4 Li2 2.087892 1_655
F5 Li1 1.924411 1_555
F5 Li5 2.087895 1_555
F6 Li4 2.076572 1_565
F6 Li3 2.076580 1_465
F7 Li3 1.924408 1_555
F7 Li4 2.087890 1_655
F8 Li5 2.076572 1_445
F8 Li3 2.076572 1_454
F9 Li3 1.924408 1_554
F9 Li5 2.087883 1_545
F10 Li2 1.924408 1_555
F10 Li0 2.087883 1_565
F11 Li0 2.076572 1_655
F11 Li2 2.076572 1_645
F12 Li2 1.924408 1_555
F12 Li1 2.087890 1_455
F13 Li1 2.076572 1_445
F13 Li2 2.076580 1_545
F14 Li4 1.924411 1_555
F14 Li0 2.087895 1_555
F15 Li4 1.924410 1_555
F15 Li3 2.087892 1_455
F16 Li5 1.924411 1_555
F16 Li1 2.087895 1_555
F17 Li5 1.924410 1_556
F17 Li3 2.087885 1_565
