# generated using pymatgen
data_Li2CrO3
_symmetry_space_group_name_H-M   'P 1'
_cell_length_a   15.23009869
_cell_length_b   9.80150902
_cell_length_c   9.80252175
_cell_angle_alpha   17.07689142
_cell_angle_beta   16.63334109
_cell_angle_gamma   16.62704271
_symmetry_Int_Tables_number   1
_chemical_formula_structural   Li2CrO3
_chemical_formula_sum   'Li4 Cr2 O6'
_cell_volume   106.31338377
_cell_formula_units_Z   2
loop_
 _symmetry_equiv_pos_site_id
 _symmetry_equiv_pos_as_xyz
  1  'x, y, z'
loop_
 _atom_site_type_symbol
 _atom_site_label
 _atom_site_symmetry_multiplicity
 _atom_site_fract_x
 _atom_site_fract_y
 _atom_site_fract_z
 _atom_site_occupancy
  Li  Li0  1  0.66670200  0.00001000  0.99995000  1
  Li  Li1  1  0.16669100  0.49994100  0.50003300  1
  Li  Li2  1  0.51019200  0.49598400  0.49600500  1
  Li  Li3  1  0.82314500  0.50400000  0.50399300  1
  Cr  Cr0  1  0.02731300  0.98158100  0.98185400  1
  Cr  Cr1  1  0.30607700  0.01874500  0.01778500  1
  O  O0  1  0.21301100  0.28409000  0.28378700  1
  O  O1  1  0.57384800  0.26593600  0.26515900  1
  O  O2  1  0.12033400  0.71538700  0.71667500  1
  O  O3  1  0.94572100  0.23209800  0.23241800  1
  O  O4  1  0.38756400  0.76781700  0.76773100  1
  O  O5  1  0.75940200  0.73441100  0.73461100  1
loop_
_geom_bond_atom_site_label_1
_geom_bond_atom_site_label_2
_geom_bond_distance
_geom_bond_site_symmetry_2
Li0 O2 2.082314 1_645
Li0 O0 2.082888 1_556
Li0 O4 2.090988 1_555
Li0 O3 2.091306 1_546
Li0 O3 2.091732 1_555
Li0 O4 2.092132 1_546
Li1 O3 2.085909 1_465
Li1 O4 2.085997 1_545
Li1 O4 2.087501 1_554
Li1 O3 2.087515 1_456
Li1 O1 2.120102 1_555
Li1 O5 2.120675 1_455
Li2 O2 2.090393 1_555
Li2 O3 2.102301 1_555
Li2 O0 2.191623 1_565
Li2 O0 2.192238 1_556
Li2 O5 2.221496 1_545
Li2 O5 2.222361 1_554
Li3 O0 2.090201 1_655
Li3 O4 2.102436 1_555
Li3 O2 2.191478 1_654
Li3 O2 2.192740 1_645
Li3 O1 2.221951 1_556
Li3 O1 2.222213 1_565
Cr0 O4 1.791054 1_555
Cr0 O0 1.949359 1_556
Cr0 O0 1.951663 1_565
Cr0 O5 2.008144 1_465
Cr0 O5 2.009144 1_456
Cr0 O1 2.081707 1_466
Cr1 O3 1.791740 1_455
Cr1 O2 1.947091 1_554
Cr1 O2 1.953028 1_545
Cr1 O1 2.008275 1_545
Cr1 O1 2.009042 1_554
Cr1 O5 2.080936 1_544
