# generated using pymatgen
data_Li4V3O8
_symmetry_space_group_name_H-M   'P 1'
_cell_length_a   5.90780158
_cell_length_b   5.90780158
_cell_length_c   5.90780144
_cell_angle_alpha   57.80804846
_cell_angle_beta   57.80804846
_cell_angle_gamma   57.80805538
_symmetry_Int_Tables_number   1
_chemical_formula_structural   Li4V3O8
_chemical_formula_sum   'Li4 V3 O8'
_cell_volume   138.46317973
_cell_formula_units_Z   1
loop_
 _symmetry_equiv_pos_site_id
 _symmetry_equiv_pos_as_xyz
  1  'x, y, z'
loop_
 _atom_site_type_symbol
 _atom_site_label
 _atom_site_symmetry_multiplicity
 _atom_site_fract_x
 _atom_site_fract_y
 _atom_site_fract_z
 _atom_site_occupancy
  Li  Li0  1  0.00000000  0.00000000  0.00000000  1
  Li  Li1  1  0.50000000  0.00000000  0.00000000  1
  Li  Li2  1  0.00000000  0.50000000  0.00000000  1
  Li  Li3  1  0.00000000  0.00000000  0.50000000  1
  V  V0  1  0.00000000  0.50000000  0.50000000  1
  V  V1  1  0.50000000  0.00000000  0.50000000  1
  V  V2  1  0.50000000  0.50000000  0.00000000  1
  O  O0  1  0.74632000  0.74632000  0.74632000  1
  O  O1  1  0.72612900  0.24430100  0.24430100  1
  O  O2  1  0.24430100  0.72612900  0.24430100  1
  O  O3  1  0.25368000  0.25368000  0.25368000  1
  O  O4  1  0.24430100  0.24430100  0.72612900  1
  O  O5  1  0.27387100  0.75569900  0.75569900  1
  O  O6  1  0.75569900  0.27387100  0.75569900  1
  O  O7  1  0.75569900  0.75569900  0.27387100  1
loop_
_geom_bond_atom_site_label_1
_geom_bond_atom_site_label_2
_geom_bond_distance
_geom_bond_site_symmetry_2
Li0 O7 2.006772 1_445
Li0 O4 2.006772 1_554
Li0 O6 2.006772 1_454
Li0 O5 2.006772 1_544
Li0 O2 2.006772 1_545
Li0 O1 2.006772 1_455
Li1 O0 2.086966 1_544
Li1 O3 2.086966 1_555
Li1 O6 2.185378 1_554
Li1 O2 2.185378 1_545
Li1 O7 2.185378 1_545
Li1 O4 2.185378 1_554
Li2 O0 2.086966 1_454
Li2 O3 2.086966 1_555
Li2 O5 2.185378 1_554
Li2 O1 2.185378 1_455
Li2 O7 2.185378 1_455
Li2 O4 2.185378 1_554
Li3 O0 2.086966 1_445
Li3 O3 2.086966 1_555
Li3 O5 2.185378 1_545
Li3 O6 2.185378 1_455
Li3 O1 2.185378 1_455
Li3 O2 2.185378 1_545
O0 V2 2.022408 1_556
O0 V0 2.022408 1_655
O0 V1 2.022408 1_565
O1 V1 1.931525 1_555
O1 V2 1.931525 1_555
O2 V0 1.931525 1_555
O2 V2 1.931525 1_555
O3 V2 2.022408 1_555
O3 V1 2.022408 1_555
O3 V0 2.022408 1_555
O4 V1 1.931525 1_555
O4 V0 1.931525 1_555
O5 V1 1.931525 1_565
O5 V2 1.931525 1_556
O6 V0 1.931525 1_655
O6 V2 1.931525 1_556
O7 V1 1.931525 1_565
O7 V0 1.931525 1_655
