# generated using pymatgen
data_LiMnF3
_symmetry_space_group_name_H-M   'P 1'
_cell_length_a   7.00080000
_cell_length_b   8.05082218
_cell_length_c   21.51586593
_cell_angle_alpha   82.98214646
_cell_angle_beta   82.39544831
_cell_angle_gamma   88.73692166
_symmetry_Int_Tables_number   1
_chemical_formula_structural   LiMnF3
_chemical_formula_sum   'Li18 Mn18 F54'
_cell_volume   1192.98933445
_cell_formula_units_Z   18
loop_
 _symmetry_equiv_pos_site_id
 _symmetry_equiv_pos_as_xyz
  1  'x, y, z'
loop_
 _atom_site_type_symbol
 _atom_site_label
 _atom_site_symmetry_multiplicity
 _atom_site_fract_x
 _atom_site_fract_y
 _atom_site_fract_z
 _atom_site_occupancy
  Li  Li0  1  0.74672300  0.70328300  0.86569400  1
  Li  Li1  1  0.89769000  0.29330900  0.29558800  1
  Li  Li2  1  0.66009700  0.39818900  0.65157100  1
  Li  Li3  1  0.74803700  0.30924700  0.44618100  1
  Li  Li4  1  0.82686400  0.99602700  0.08749600  1
  Li  Li5  1  0.53691900  0.43106500  0.79712900  1
  Li  Li6  1  0.37866900  0.28102000  0.98189800  1
  Li  Li7  1  0.69671800  0.02055000  0.23205000  1
  Li  Li8  1  0.51337700  0.86550600  0.42138800  1
  Li  Li9  1  0.48662300  0.13449400  0.57861200  1
  Li  Li10  1  0.30328200  0.97945000  0.76795000  1
  Li  Li11  1  0.62133100  0.71898000  0.01810200  1
  Li  Li12  1  0.46308100  0.56893500  0.20287100  1
  Li  Li13  1  0.17313600  0.00397300  0.91250400  1
  Li  Li14  1  0.25196300  0.69075300  0.55381900  1
  Li  Li15  1  0.33990300  0.60181100  0.34842900  1
  Li  Li16  1  0.10231000  0.70669100  0.70441200  1
  Li  Li17  1  0.25327700  0.29671700  0.13430600  1
  Mn  Mn0  1  0.89240100  0.35203600  0.96694600  1
  Mn  Mn1  1  0.94020700  0.00980300  0.58313600  1
  Mn  Mn2  1  0.80150600  0.04724800  0.74053700  1
  Mn  Mn3  1  0.99074100  0.66970500  0.18765300  1
  Mn  Mn4  1  0.76423800  0.69261400  0.50838000  1
  Mn  Mn5  1  0.60304400  0.03839100  0.90281000  1
  Mn  Mn6  1  0.84989800  0.67648200  0.34756200  1
  Mn  Mn7  1  0.57009000  0.75689200  0.66393000  1
  Mn  Mn8  1  0.75534700  0.35961400  0.13518100  1
  Mn  Mn9  1  0.24465300  0.64038600  0.86481900  1
  Mn  Mn10  1  0.42991000  0.24310800  0.33607000  1
  Mn  Mn11  1  0.15010200  0.32351800  0.65243800  1
  Mn  Mn12  1  0.39695600  0.96160900  0.09719000  1
  Mn  Mn13  1  0.23576200  0.30738600  0.49162000  1
  Mn  Mn14  1  0.00925900  0.33029500  0.81234700  1
  Mn  Mn15  1  0.19849400  0.95275200  0.25946300  1
  Mn  Mn16  1  0.05979300  0.99019700  0.41686400  1
  Mn  Mn17  1  0.10759900  0.64796400  0.03305400  1
  F  F0  1  0.97801300  0.16897600  0.90038200  1
  F  F1  1  0.94146600  0.52901200  0.87263200  1
  F  F2  1  0.90399400  0.86381600  0.67337100  1
  F  F3  1  0.81011400  0.92533400  0.82631100  1
  F  F4  1  0.96350300  0.17116500  0.48414100  1
  F  F5  1  0.86110900  0.21591200  0.64489400  1
  F  F6  1  0.63005500  0.78849800  0.93503300  1
  F  F7  1  0.96561900  0.52188600  0.28200500  1
  F  F8  1  0.72899900  0.25341600  0.79462100  1
  F  F9  1  0.85353400  0.53109600  0.43997600  1
  F  F10  1  0.89643200  0.85841700  0.26131600  1
  F  F11  1  0.63302000  0.28841400  0.93712000  1
  F  F12  1  0.74173600  0.60037600  0.59934500  1
  F  F13  1  0.79175300  0.87966600  0.42311300  1
  F  F14  1  0.65862800  0.94645000  0.57761300  1
  F  F15  1  0.53550200  0.61633200  0.83973400  1
  F  F16  1  0.53945600  0.97243000  0.71165500  1
  F  F17  1  0.56802400  0.52903500  0.71395100  1
  F  F18  1  0.88130600  0.22360900  0.06050000  1
  F  F19  1  0.80286300  0.23482900  0.22551700  1
  F  F20  1  0.70285500  0.25931600  0.36675600  1
  F  F21  1  0.81795000  0.55038600  0.02926000  1
  F  F22  1  0.72223300  0.60976800  0.17215800  1
  F  F23  1  0.37892300  0.98531800  0.84546500  1
  F  F24  1  0.52286200  0.27697100  0.50181700  1
  F  F25  1  0.65839400  0.93101600  0.03864200  1
  F  F26  1  0.44106300  0.29308100  0.63567600  1
  F  F27  1  0.55893700  0.70691900  0.36432400  1
  F  F28  1  0.34160600  0.06898400  0.96135800  1
  F  F29  1  0.47713800  0.72302900  0.49818300  1
  F  F30  1  0.62107700  0.01468200  0.15453500  1
  F  F31  1  0.27776700  0.39023200  0.82784200  1
  F  F32  1  0.18205000  0.44961400  0.97074000  1
  F  F33  1  0.29714500  0.74068400  0.63324400  1
  F  F34  1  0.19713700  0.76517100  0.77448300  1
  F  F35  1  0.11869400  0.77639100  0.93950000  1
  F  F36  1  0.43197600  0.47096500  0.28604900  1
  F  F37  1  0.46054400  0.02757000  0.28834500  1
  F  F38  1  0.46449800  0.38366800  0.16026600  1
  F  F39  1  0.34137200  0.05355000  0.42238700  1
  F  F40  1  0.20824700  0.12033400  0.57688700  1
  F  F41  1  0.25826400  0.39962400  0.40065500  1
  F  F42  1  0.36698000  0.71158600  0.06288000  1
  F  F43  1  0.10356800  0.14158300  0.73868400  1
  F  F44  1  0.14646600  0.46890400  0.56002400  1
  F  F45  1  0.27100100  0.74658400  0.20537900  1
  F  F46  1  0.03438100  0.47811400  0.71799500  1
  F  F47  1  0.36994500  0.21150200  0.06496700  1
  F  F48  1  0.13889100  0.78408800  0.35510600  1
  F  F49  1  0.03649700  0.82883500  0.51585900  1
  F  F50  1  0.18988600  0.07466600  0.17368900  1
  F  F51  1  0.09600600  0.13618400  0.32662900  1
  F  F52  1  0.05853400  0.47098800  0.12736800  1
  F  F53  1  0.02198700  0.83102400  0.09961800  1
loop_
_geom_bond_atom_site_label_1
_geom_bond_atom_site_label_2
_geom_bond_distance
_geom_bond_site_symmetry_2
F0 Li13 1.904819 1_655
F0 Mn14 2.150382 1_655
F0 Mn0 2.198192 1_555
F1 Li0 1.941098 1_555
F1 Mn14 2.185821 1_655
F1 Mn9 2.300023 1_655
F1 Mn0 2.323033 1_555
F2 Li16 1.983775 1_655
F2 Mn1 2.130792 1_565
F2 Mn2 2.232586 1_565
F2 Mn7 2.550245 1_555
F3 Li0 1.917317 1_555
F3 Mn2 1.989239 1_565
F3 Mn5 2.305534 1_565
F4 Li3 2.051473 1_555
F4 Mn16 2.210475 1_645
F4 Mn13 2.253450 1_655
F4 Mn1 2.343555 1_555
F5 Li2 2.015301 1_555
F5 Mn11 2.251370 1_655
F5 Mn1 2.264784 1_555
F5 Mn2 2.316804 1_555
F6 Li11 1.799888 1_556
F6 Li0 1.807318 1_555
F6 Mn5 2.059379 1_565
F7 Li1 1.889021 1_555
F7 Mn6 2.068106 1_555
F7 Mn3 2.211953 1_555
F8 Li5 1.942051 1_555
F8 Mn2 2.155290 1_555
F8 Mn14 2.165049 1_655
F9 Li3 1.930576 1_555
F9 Mn4 2.106214 1_555
F9 Mn6 2.183495 1_555
F10 Li7 2.001719 1_565
F10 Mn6 2.211760 1_555
F10 Mn15 2.256399 1_655
F10 Mn3 2.350181 1_555
F11 Li6 1.907645 1_555
F11 Mn0 2.097934 1_555
F11 Mn5 2.250210 1_555
F12 Li2 1.913910 1_555
F12 Mn4 1.993806 1_555
F12 Mn7 2.209514 1_555
F13 Li8 1.960199 1_555
F13 Mn16 2.075759 1_655
F13 Mn4 2.216934 1_555
F13 Mn6 2.434996 1_555
F14 Li9 1.913934 1_565
F14 Mn1 2.069140 1_565
F14 Mn7 2.281834 1_555
F15 Li0 1.829863 1_555
F15 Li5 1.842873 1_555
F15 Mn9 2.047464 1_555
F16 Li10 1.920053 1_555
F16 Mn7 2.114767 1_555
F16 Mn2 2.134598 1_565
F17 Li2 1.847470 1_555
F17 Li5 1.852529 1_555
F17 Mn7 2.009548 1_555
F18 Li4 1.884628 1_545
F18 Mn8 2.137930 1_555
F18 Mn0 2.140191 1_554
F19 Li1 1.840511 1_555
F19 Li7 1.875531 1_555
F19 Mn8 2.139386 1_555
F20 Li3 1.870430 1_555
F20 Li1 1.908234 1_555
F20 Mn10 2.114279 1_555
F21 Li11 1.928769 1_555
F21 Mn17 2.205762 1_655
F21 Mn0 2.218287 1_554
F21 Mn8 2.579682 1_555
F22 Li12 1.868750 1_555
F22 Mn3 2.030443 1_555
F22 Mn8 2.250515 1_555
F23 Li10 1.821627 1_555
F23 Li13 1.916253 1_565
F23 Mn5 2.199432 1_565
F24 Li3 1.851520 1_555
F24 Li9 1.883876 1_555
F24 Mn13 2.056648 1_555
F25 Li4 1.805447 1_555
F25 Li11 1.846869 1_555
F25 Mn12 2.107879 1_555
F26 Li2 1.857714 1_555
F26 Li9 1.871025 1_555
F26 Mn11 2.035798 1_555
F27 Li15 1.857714 1_555
F27 Li8 1.871025 1_555
F27 Mn6 2.035798 1_555
F28 Li13 1.805447 1_555
F28 Li6 1.846869 1_555
F28 Mn5 2.107879 1_555
F29 Li14 1.851520 1_555
F29 Li8 1.883876 1_555
F29 Mn4 2.056648 1_555
F30 Li7 1.821627 1_555
F30 Li4 1.916253 1_545
F30 Mn12 2.199432 1_545
F31 Li5 1.868750 1_555
F31 Mn14 2.030443 1_555
F31 Mn9 2.250515 1_555
F32 Li6 1.928769 1_555
F32 Mn0 2.205762 1_455
F32 Mn17 2.218287 1_556
F32 Mn9 2.579682 1_555
F33 Li14 1.870430 1_555
F33 Li16 1.908234 1_555
F33 Mn7 2.114279 1_555
F34 Li16 1.840511 1_555
F34 Li10 1.875531 1_555
F34 Mn9 2.139386 1_555
F35 Li13 1.884628 1_565
F35 Mn9 2.137930 1_555
F35 Mn17 2.140191 1_556
F36 Li15 1.847470 1_555
F36 Li12 1.852529 1_555
F36 Mn10 2.009548 1_555
F37 Li7 1.920053 1_555
F37 Mn10 2.114767 1_555
F37 Mn15 2.134598 1_545
F38 Li17 1.829863 1_555
F38 Li12 1.842873 1_555
F38 Mn8 2.047464 1_555
F39 Li8 1.913934 1_545
F39 Mn16 2.069140 1_545
F39 Mn10 2.281834 1_555
F40 Li9 1.960199 1_555
F40 Mn1 2.075759 1_455
F40 Mn13 2.216934 1_555
F40 Mn11 2.434996 1_555
F41 Li15 1.913910 1_555
F41 Mn13 1.993806 1_555
F41 Mn10 2.209514 1_555
F42 Li11 1.907645 1_555
F42 Mn17 2.097934 1_555
F42 Mn12 2.250210 1_555
F43 Li10 2.001719 1_545
F43 Mn11 2.211760 1_555
F43 Mn2 2.256399 1_455
F43 Mn14 2.350181 1_555
F44 Li14 1.930576 1_555
F44 Mn13 2.106214 1_555
F44 Mn11 2.183495 1_555
F45 Li12 1.942051 1_555
F45 Mn15 2.155290 1_555
F45 Mn3 2.165049 1_455
F46 Li16 1.889021 1_555
F46 Mn11 2.068106 1_555
F46 Mn14 2.211953 1_555
F47 Li6 1.799888 1_554
F47 Li17 1.807318 1_555
F47 Mn12 2.059379 1_545
F48 Li15 2.015301 1_555
F48 Mn6 2.251370 1_455
F48 Mn16 2.264784 1_555
F48 Mn15 2.316804 1_555
F49 Li14 2.051473 1_555
F49 Mn1 2.210475 1_465
F49 Mn4 2.253450 1_455
F49 Mn16 2.343555 1_555
F50 Li17 1.917317 1_555
F50 Mn15 1.989239 1_545
F50 Mn12 2.305534 1_545
F51 Li1 1.983775 1_455
F51 Mn16 2.130792 1_545
F51 Mn15 2.232586 1_545
F51 Mn10 2.550245 1_555
F52 Li17 1.941098 1_555
F52 Mn3 2.185821 1_455
F52 Mn8 2.300023 1_455
F52 Mn17 2.323033 1_555
F53 Li4 1.904819 1_455
F53 Mn3 2.150382 1_455
F53 Mn17 2.198192 1_555
