# generated using pymatgen
data_LiCo2OF3
_symmetry_space_group_name_H-M   'P 1'
_cell_length_a   6.09292200
_cell_length_b   6.09292200
_cell_length_c   8.61754800
_cell_angle_alpha   90.00000000
_cell_angle_beta   90.00000000
_cell_angle_gamma   90.00000000
_symmetry_Int_Tables_number   1
_chemical_formula_structural   LiCo2OF3
_chemical_formula_sum   'Li4 Co8 O4 F12'
_cell_volume   319.91525374
_cell_formula_units_Z   4
loop_
 _symmetry_equiv_pos_site_id
 _symmetry_equiv_pos_as_xyz
  1  'x, y, z'
loop_
 _atom_site_type_symbol
 _atom_site_label
 _atom_site_symmetry_multiplicity
 _atom_site_fract_x
 _atom_site_fract_y
 _atom_site_fract_z
 _atom_site_occupancy
  Li  Li0  1  0.25356800  0.50556100  0.25015500  1
  Li  Li1  1  0.49443900  0.25356800  0.00015500  1
  Li  Li2  1  0.50556100  0.74643200  0.50015500  1
  Li  Li3  1  0.74643200  0.49443900  0.75015500  1
  Co  Co0  1  0.01060600  0.24614200  0.98492700  1
  Co  Co1  1  0.98939400  0.75385800  0.48492700  1
  Co  Co2  1  0.22582900  0.25550700  0.63577200  1
  Co  Co3  1  0.25550700  0.77417100  0.88577200  1
  Co  Co4  1  0.24614200  0.98939400  0.23492700  1
  Co  Co5  1  0.75385800  0.01060600  0.73492700  1
  Co  Co6  1  0.74449300  0.22582900  0.38577200  1
  Co  Co7  1  0.77417100  0.74449300  0.13577200  1
  O  O0  1  0.02652700  0.75524500  0.26056400  1
  O  O1  1  0.24475500  0.02652700  0.01056400  1
  O  O2  1  0.75524500  0.97347300  0.51056400  1
  O  O3  1  0.97347300  0.24475500  0.76056400  1
  F  F0  1  0.00617100  0.26545700  0.24035900  1
  F  F1  1  0.26545700  0.99382900  0.49035900  1
  F  F2  1  0.25908900  0.49539200  0.00812800  1
  F  F3  1  0.24980900  0.51767600  0.49512600  1
  F  F4  1  0.50460800  0.25908900  0.75812800  1
  F  F5  1  0.51767600  0.75019100  0.74512600  1
  F  F6  1  0.48232400  0.24980900  0.24512600  1
  F  F7  1  0.49539200  0.74091100  0.25812800  1
  F  F8  1  0.74091100  0.50460800  0.50812800  1
  F  F9  1  0.75019100  0.48232400  0.99512600  1
  F  F10  1  0.73454300  0.00617100  0.99035900  1
  F  F11  1  0.99382900  0.73454300  0.74035900  1
loop_
_geom_bond_atom_site_label_1
_geom_bond_atom_site_label_2
_geom_bond_distance
_geom_bond_site_symmetry_2
Li0 O0 2.058168 1_555
Li1 O1 2.058168 1_555
Li2 O2 2.058168 1_555
Li3 O3 2.058168 1_555
Co0 O3 1.946670 1_455
Co0 O1 1.968412 1_556
Co0 F9 2.143860 1_455
Co0 F2 2.153709 1_556
Co0 F0 2.204507 1_556
Co0 F10 2.229176 1_455
Co1 O0 1.946670 1_655
Co1 O2 1.968412 1_555
Co1 F3 2.143860 1_655
Co1 F8 2.153709 1_555
Co1 F11 2.204507 1_555
Co1 F1 2.229176 1_655
Co2 O3 1.877485 1_455
Co2 F4 1.999356 1_555
Co2 F3 2.010462 1_555
Co2 F1 2.042211 1_545
Co3 O1 1.877485 1_566
Co3 F2 1.999356 1_556
Co3 F5 2.010462 1_555
Co3 F11 2.042211 1_455
Co4 O1 1.946670 1_565
Co4 O0 1.968412 1_555
Co4 F6 2.143860 1_565
Co4 F7 2.153709 1_555
Co4 F1 2.204507 1_555
Co4 F0 2.229176 1_565
Co5 O2 1.946670 1_545
Co5 O3 1.968412 1_555
Co5 F5 2.143860 1_545
Co5 F4 2.153709 1_555
Co5 F10 2.204507 1_555
Co5 F11 2.229176 1_545
Co6 O2 1.877485 1_545
Co6 F8 1.999356 1_555
Co6 F6 2.010462 1_555
Co6 F0 2.042211 1_655
Co7 O0 1.877485 1_655
Co7 F7 1.999356 1_555
Co7 F9 2.010462 1_554
Co7 F10 2.042211 1_564
F0 Li0 2.102254 1_555
F1 Li2 2.102254 1_555
F2 Li1 2.057168 1_555
F2 Li0 2.086871 1_555
F3 Li2 2.091115 1_555
F3 Li0 2.112464 1_555
F4 Li3 2.057168 1_555
F4 Li1 2.086871 1_556
F5 Li3 2.091115 1_555
F5 Li2 2.112464 1_555
F6 Li0 2.091115 1_555
F6 Li1 2.112464 1_555
F7 Li0 2.057168 1_555
F7 Li2 2.086871 1_555
F8 Li2 2.057168 1_555
F8 Li3 2.086871 1_555
F9 Li1 2.091115 1_556
F9 Li3 2.112464 1_555
F10 Li1 2.102254 1_556
F11 Li3 2.102254 1_555
