# generated using pymatgen
data_Li3Bi3P8O29
_symmetry_space_group_name_H-M   'P 1'
_cell_length_a   10.09480935
_cell_length_b   10.09480935
_cell_length_c   14.36756196
_cell_angle_alpha   89.38601063
_cell_angle_beta   89.38601063
_cell_angle_gamma   60.27172797
_symmetry_Int_Tables_number   1
_chemical_formula_structural   Li3Bi3P8O29
_chemical_formula_sum   'Li6 Bi6 P16 O58'
_cell_volume   1271.33282045
_cell_formula_units_Z   2
loop_
 _symmetry_equiv_pos_site_id
 _symmetry_equiv_pos_as_xyz
  1  'x, y, z'
loop_
 _atom_site_type_symbol
 _atom_site_label
 _atom_site_symmetry_multiplicity
 _atom_site_fract_x
 _atom_site_fract_y
 _atom_site_fract_z
 _atom_site_occupancy
  Li  Li0  1  0.00000000  0.00000000  0.00000000  1
  Li  Li1  1  0.00000000  0.00000000  0.50000000  1
  Li  Li2  1  0.91267300  0.32121300  0.44616000  1
  Li  Li3  1  0.32121300  0.91267300  0.94616000  1
  Li  Li4  1  0.67878700  0.08732700  0.05384000  1
  Li  Li5  1  0.08732700  0.67878700  0.55384000  1
  Bi  Bi0  1  0.99928700  0.56497700  0.75973700  1
  Bi  Bi1  1  0.00071300  0.43502300  0.24026300  1
  Bi  Bi2  1  0.56497700  0.99928700  0.25973700  1
  Bi  Bi3  1  0.43502300  0.00071300  0.74026300  1
  Bi  Bi4  1  0.56114600  0.43885400  0.75000000  1
  Bi  Bi5  1  0.43885400  0.56114600  0.25000000  1
  P  P0  1  0.92110500  0.78795200  0.15632300  1
  P  P1  1  0.78795200  0.92110500  0.65632300  1
  P  P2  1  0.91630700  0.30968400  0.65539800  1
  P  P3  1  0.67042300  0.66110300  0.37684500  1
  P  P4  1  0.66110300  0.67042300  0.87684500  1
  P  P5  1  0.78001400  0.29704900  0.15298500  1
  P  P6  1  0.70295100  0.21998600  0.34701500  1
  P  P7  1  0.30968400  0.91630700  0.15539800  1
  P  P8  1  0.69031600  0.08369300  0.84460200  1
  P  P9  1  0.29704900  0.78001400  0.65298500  1
  P  P10  1  0.21998600  0.70295100  0.84701500  1
  P  P11  1  0.32957700  0.33889700  0.62315500  1
  P  P12  1  0.33889700  0.32957700  0.12315500  1
  P  P13  1  0.08369300  0.69031600  0.34460200  1
  P  P14  1  0.21204800  0.07889500  0.34367700  1
  P  P15  1  0.07889500  0.21204800  0.84367700  1
  O  O0  1  0.98916100  0.79177700  0.25683400  1
  O  O1  1  0.00833900  0.77350700  0.43268800  1
  O  O2  1  0.92533800  0.75334000  0.65767600  1
  O  O3  1  0.79177700  0.98916100  0.75683400  1
  O  O4  1  0.77350700  0.00833900  0.93268800  1
  O  O5  1  0.75334000  0.92533800  0.15767600  1
  O  O6  1  0.91466100  0.63723800  0.15018800  1
  O  O7  1  0.79211800  0.69936800  0.84013800  1
  O  O8  1  0.90278200  0.46906700  0.66289600  1
  O  O9  1  0.99517400  0.18206600  0.91941400  1
  O  O10  1  0.01083900  0.20822300  0.74316600  1
  O  O11  1  0.92357800  0.31612700  0.14886300  1
  O  O12  1  0.69936800  0.79211800  0.34013800  1
  O  O13  1  0.63723800  0.91466100  0.65018800  1
  O  O14  1  0.80740300  0.50401700  0.33995000  1
  O  O15  1  0.67218100  0.64993500  0.48072500  1
  O  O16  1  0.64993500  0.67218100  0.98072500  1
  O  O17  1  0.68967700  0.51803600  0.83107300  1
  O  O18  1  0.46906700  0.90278200  0.16289600  1
  O  O19  1  0.50401700  0.80740300  0.83995000  1
  O  O20  1  0.75516800  0.32488300  0.65875900  1
  O  O21  1  0.78757900  0.21242100  0.25000000  1
  O  O22  1  0.80591200  0.21127700  0.42361100  1
  O  O23  1  0.78872300  0.19408800  0.07638900  1
  O  O24  1  0.63528500  0.45809100  0.15552000  1
  O  O25  1  0.51803600  0.68967700  0.33107300  1
  O  O26  1  0.67511700  0.24483200  0.84124100  1
  O  O27  1  0.45809100  0.63528500  0.65552000  1
  O  O28  1  0.31612700  0.92357800  0.64886300  1
  O  O29  1  0.81793400  0.00482600  0.58058600  1
  O  O30  1  0.18206600  0.99517400  0.41941400  1
  O  O31  1  0.20822300  0.01083900  0.24316600  1
  O  O32  1  0.68387300  0.07642200  0.35113700  1
  O  O33  1  0.54190900  0.36471500  0.34448000  1
  O  O34  1  0.32488300  0.75516800  0.15875900  1
  O  O35  1  0.48196400  0.31032300  0.66892700  1
  O  O36  1  0.36471500  0.54190900  0.84448000  1
  O  O37  1  0.21127700  0.80591200  0.92361100  1
  O  O38  1  0.19408800  0.78872300  0.57638900  1
  O  O39  1  0.21242100  0.78757900  0.75000000  1
  O  O40  1  0.24483200  0.67511700  0.34124100  1
  O  O41  1  0.49598300  0.19259700  0.16005000  1
  O  O42  1  0.53093300  0.09721800  0.83710400  1
  O  O43  1  0.31032300  0.48196400  0.16892700  1
  O  O44  1  0.32781900  0.35006500  0.51927500  1
  O  O45  1  0.35006500  0.32781900  0.01927500  1
  O  O46  1  0.19259700  0.49598300  0.66005000  1
  O  O47  1  0.36276200  0.08533900  0.34981200  1
  O  O48  1  0.30063200  0.20788200  0.65986200  1
  O  O49  1  0.07642200  0.68387300  0.85113700  1
  O  O50  1  0.00482600  0.81793400  0.08058600  1
  O  O51  1  0.09721800  0.53093300  0.33710400  1
  O  O52  1  0.20788200  0.30063200  0.15986200  1
  O  O53  1  0.08533900  0.36276200  0.84981200  1
  O  O54  1  0.24666000  0.07466200  0.84232400  1
  O  O55  1  0.22649300  0.99166100  0.06731200  1
  O  O56  1  0.07466200  0.24666000  0.34232400  1
  O  O57  1  0.99166100  0.22649300  0.56731200  1
loop_
_geom_bond_atom_site_label_1
_geom_bond_atom_site_label_2
_geom_bond_distance
_geom_bond_site_symmetry_2
Li0 O50 2.141888 1_545
Li0 O9 2.141888 1_454
Li0 O23 2.333177 1_455
Li0 O37 2.333177 1_544
Li0 O55 2.454544 1_545
Li0 O4 2.454544 1_454
Li1 O29 2.141888 1_455
Li1 O30 2.141888 1_545
Li1 O22 2.333177 1_455
Li1 O38 2.333177 1_545
Li1 O57 2.454544 1_455
Li1 O1 2.454544 1_545
Li2 O22 1.923404 1_555
Li2 O57 1.953942 1_555
Li2 O56 2.053615 1_655
Li2 O14 2.211965 1_555
Li3 O37 1.923404 1_555
Li3 O55 1.953942 1_556
Li3 O54 2.053615 1_565
Li3 O19 2.211965 1_555
Li4 O23 1.923404 1_555
Li4 O4 1.953942 1_554
Li4 O5 2.053615 1_545
Li4 O41 2.211965 1_555
Li5 O38 1.923404 1_555
Li5 O1 1.953942 1_555
Li5 O2 2.053615 1_455
Li5 O46 2.211965 1_555
Bi0 O7 2.171755 1_555
Bi0 O49 2.180353 1_655
Bi0 O53 2.192088 1_655
Bi0 O8 2.194481 1_555
Bi0 O2 2.208862 1_555
Bi0 O46 2.226667 1_655
Bi1 O52 2.171755 1_555
Bi1 O11 2.180353 1_455
Bi1 O6 2.192088 1_455
Bi1 O51 2.194481 1_555
Bi1 O56 2.208862 1_555
Bi1 O14 2.226667 1_455
Bi2 O12 2.171755 1_555
Bi2 O32 2.180353 1_565
Bi2 O47 2.192088 1_565
Bi2 O18 2.194481 1_555
Bi2 O5 2.208862 1_555
Bi2 O41 2.226667 1_565
Bi3 O48 2.171755 1_555
Bi3 O28 2.180353 1_545
Bi3 O13 2.192088 1_545
Bi3 O42 2.194481 1_555
Bi3 O54 2.208862 1_555
Bi3 O19 2.226667 1_545
Bi4 O20 2.149595 1_555
Bi4 O26 2.149595 1_555
Bi4 O35 2.181781 1_555
Bi4 O17 2.181781 1_555
Bi4 O27 2.187147 1_555
Bi4 O36 2.187147 1_555
Bi5 O34 2.149595 1_555
Bi5 O40 2.149595 1_555
Bi5 O25 2.181781 1_555
Bi5 O43 2.181781 1_555
Bi5 O33 2.187147 1_555
Bi5 O24 2.187147 1_555
O0 P13 1.605801 1_655
O0 P0 1.614826 1_555
O1 P13 1.501391 1_555
O2 P1 1.569199 1_555
O3 P8 1.605801 1_565
O3 P1 1.614826 1_555
O4 P8 1.501391 1_555
O5 P0 1.569199 1_555
O6 P0 1.558172 1_555
O7 P4 1.574081 1_555
O8 P2 1.550636 1_555
O9 P15 1.488921 1_655
O10 P2 1.605801 1_455
O10 P15 1.614826 1_555
O11 P5 1.554238 1_555
O12 P3 1.574081 1_555
O13 P1 1.558172 1_555
O14 P3 1.592260 1_555
O15 P3 1.495181 1_555
O16 P4 1.495181 1_555
O17 P4 1.568325 1_555
O18 P7 1.550636 1_555
O19 P4 1.592260 1_555
O20 P2 1.556556 1_555
O21 P5 1.609532 1_555
O21 P6 1.609532 1_555
O22 P6 1.493631 1_555
O23 P5 1.493631 1_555
O24 P5 1.556682 1_555
O25 P3 1.568325 1_555
O26 P8 1.556556 1_555
O27 P9 1.556682 1_555
O28 P9 1.554238 1_555
O29 P1 1.488921 1_545
O30 P14 1.488921 1_565
O31 P7 1.605801 1_545
O31 P14 1.614826 1_555
O32 P6 1.554238 1_555
O33 P6 1.556682 1_555
O34 P7 1.556556 1_555
O35 P11 1.568325 1_555
O36 P10 1.556682 1_555
O37 P10 1.493631 1_555
O38 P9 1.493631 1_555
O39 P9 1.609532 1_555
O39 P10 1.609532 1_555
O40 P13 1.556556 1_555
O41 P12 1.592260 1_555
O42 P8 1.550636 1_555
O43 P12 1.568325 1_555
O44 P11 1.495181 1_555
O45 P12 1.495181 1_555
O46 P11 1.592260 1_555
O47 P14 1.558172 1_555
O48 P11 1.574081 1_555
O49 P10 1.554238 1_555
O50 P0 1.488921 1_455
O51 P13 1.550636 1_555
O52 P12 1.574081 1_555
O53 P15 1.558172 1_555
O54 P15 1.569199 1_555
O55 P7 1.501391 1_555
O56 P14 1.569199 1_555
O57 P2 1.501391 1_555
