# generated using pymatgen
data_Y2HfO5
_symmetry_space_group_name_H-M   'P 1'
_cell_length_a   7.23389700
_cell_length_b   6.51167000
_cell_length_c   9.68786930
_cell_angle_alpha   75.26618401
_cell_angle_beta   90.00000000
_cell_angle_gamma   90.00000000
_symmetry_Int_Tables_number   1
_chemical_formula_structural   Y2HfO5
_chemical_formula_sum   'Y8 Hf4 O20'
_cell_volume   441.33905306
_cell_formula_units_Z   4
loop_
 _symmetry_equiv_pos_site_id
 _symmetry_equiv_pos_as_xyz
  1  'x, y, z'
loop_
 _atom_site_type_symbol
 _atom_site_label
 _atom_site_symmetry_multiplicity
 _atom_site_fract_x
 _atom_site_fract_y
 _atom_site_fract_z
 _atom_site_occupancy
  Y  Y0  1  0.63746300  0.02931200  0.14680500  1
  Y  Y1  1  0.86253700  0.52931200  0.14680500  1
  Y  Y2  1  0.62378700  0.23910400  0.46920100  1
  Y  Y3  1  0.12378700  0.26089600  0.53079900  1
  Y  Y4  1  0.87621300  0.73910400  0.46920100  1
  Y  Y5  1  0.37621300  0.76089600  0.53079900  1
  Y  Y6  1  0.13746300  0.47068800  0.85319500  1
  Y  Y7  1  0.36253700  0.97068800  0.85319500  1
  Hf  Hf0  1  0.11094000  0.06147300  0.18882200  1
  Hf  Hf1  1  0.38906000  0.56147300  0.18882200  1
  Hf  Hf2  1  0.61094000  0.43852700  0.81117800  1
  Hf  Hf3  1  0.88906000  0.93852700  0.81117800  1
  O  O0  1  0.32255500  0.88946500  0.15163700  1
  O  O1  1  0.89363100  0.22936900  0.06522100  1
  O  O2  1  0.17744500  0.38946500  0.15163700  1
  O  O3  1  0.59036800  0.33554600  0.22357600  1
  O  O4  1  0.60636900  0.72936900  0.06522100  1
  O  O5  1  0.90963200  0.83554600  0.22357600  1
  O  O6  1  0.88817000  0.42542900  0.39005400  1
  O  O7  1  0.36265800  0.49527200  0.39845600  1
  O  O8  1  0.61183000  0.92542900  0.39005400  1
  O  O9  1  0.13734200  0.99527200  0.39845600  1
  O  O10  1  0.86265800  0.00472800  0.60154400  1
  O  O11  1  0.38817000  0.07457100  0.60994600  1
  O  O12  1  0.63734200  0.50472800  0.60154400  1
  O  O13  1  0.11183000  0.57457100  0.60994600  1
  O  O14  1  0.09036800  0.16445400  0.77642400  1
  O  O15  1  0.39363100  0.27063100  0.93477900  1
  O  O16  1  0.40963200  0.66445400  0.77642400  1
  O  O17  1  0.82255500  0.61053500  0.84836300  1
  O  O18  1  0.10636900  0.77063100  0.93477900  1
  O  O19  1  0.67744500  0.11053500  0.84836300  1
loop_
_geom_bond_atom_site_label_1
_geom_bond_atom_site_label_2
_geom_bond_distance
_geom_bond_site_symmetry_2
Hf0 O9 1.975239 1_545
Hf0 O0 1.983154 1_545
Hf0 O5 2.036263 1_445
Hf0 O1 2.105793 1_455
Hf0 O2 2.128709 1_555
Hf1 O7 1.975239 1_555
Hf1 O2 1.983154 1_555
Hf1 O3 2.036263 1_555
Hf1 O4 2.105793 1_555
Hf1 O0 2.128709 1_555
Hf2 O12 1.975239 1_555
Hf2 O17 1.983154 1_555
Hf2 O16 2.036263 1_555
Hf2 O15 2.105793 1_555
Hf2 O19 2.128709 1_555
Hf3 O10 1.975239 1_565
Hf3 O19 1.983154 1_565
Hf3 O14 2.036263 1_665
Hf3 O18 2.105793 1_655
Hf3 O17 2.128709 1_555
O0 Y0 2.449308 1_565
O0 Y7 2.818684 1_554
O1 Y0 2.287348 1_555
O1 Y1 2.296785 1_555
O1 Y6 2.856199 1_654
O2 Y1 2.449308 1_455
O2 Y6 2.818684 1_554
O3 Y2 2.314112 1_555
O3 Y0 2.323796 1_555
O3 Y1 2.354603 1_555
O4 Y1 2.287348 1_555
O4 Y0 2.296785 1_565
O4 Y7 2.856199 1_554
O5 Y4 2.314112 1_555
O5 Y1 2.323796 1_555
O5 Y0 2.354603 1_565
O6 Y3 2.273555 1_655
O6 Y1 2.287906 1_555
O6 Y2 2.290091 1_555
O6 Y4 2.358824 1_555
O7 Y5 2.402743 1_555
O7 Y3 2.442052 1_555
O7 Y2 2.497789 1_555
O8 Y5 2.273555 1_555
O8 Y0 2.287906 1_565
O8 Y4 2.290091 1_555
O8 Y2 2.358824 1_565
O9 Y3 2.402743 1_565
O9 Y5 2.442052 1_555
O9 Y4 2.497789 1_455
O10 Y4 2.402743 1_545
O10 Y2 2.442052 1_555
O10 Y3 2.497789 1_655
O11 Y2 2.273555 1_555
O11 Y7 2.287906 1_545
O11 Y3 2.290091 1_555
O11 Y5 2.358824 1_545
O12 Y2 2.402743 1_555
O12 Y4 2.442052 1_555
O12 Y5 2.497789 1_555
O13 Y4 2.273555 1_455
O13 Y6 2.287906 1_555
O13 Y5 2.290091 1_555
O13 Y3 2.358824 1_555
O14 Y3 2.314112 1_555
O14 Y6 2.323796 1_555
O14 Y7 2.354603 1_545
O15 Y6 2.287348 1_555
O15 Y7 2.296785 1_545
O15 Y0 2.856199 1_556
O16 Y5 2.314112 1_555
O16 Y7 2.323796 1_555
O16 Y6 2.354603 1_555
O17 Y6 2.449308 1_655
O17 Y1 2.818684 1_556
O18 Y7 2.287348 1_555
O18 Y6 2.296785 1_555
O18 Y1 2.856199 1_456
O19 Y7 2.449308 1_545
O19 Y0 2.818684 1_556
