# generated using pymatgen
data_Cs2V(OF2)2
_symmetry_space_group_name_H-M   'P 1'
_cell_length_a   8.15841446
_cell_length_b   8.15841446
_cell_length_c   7.50909000
_cell_angle_alpha   90.00000000
_cell_angle_beta   90.00000000
_cell_angle_gamma   134.44711833
_symmetry_Int_Tables_number   1
_chemical_formula_structural   Cs2V(OF2)2
_chemical_formula_sum   'Cs4 V2 O4 F8'
_cell_volume   356.80787394
_cell_formula_units_Z   2
loop_
 _symmetry_equiv_pos_site_id
 _symmetry_equiv_pos_as_xyz
  1  'x, y, z'
loop_
 _atom_site_type_symbol
 _atom_site_label
 _atom_site_symmetry_multiplicity
 _atom_site_fract_x
 _atom_site_fract_y
 _atom_site_fract_z
 _atom_site_occupancy
  Cs  Cs0  1  0.26630400  0.73369600  0.25000000  1
  Cs  Cs1  1  0.73369600  0.26630400  0.75000000  1
  Cs  Cs2  1  0.95054800  0.04945200  0.25000000  1
  Cs  Cs3  1  0.04945200  0.95054800  0.75000000  1
  V  V0  1  0.62276800  0.37723200  0.25000000  1
  V  V1  1  0.37723200  0.62276800  0.75000000  1
  O  O0  1  0.73462700  0.26537300  0.25000000  1
  O  O1  1  0.26537300  0.73462700  0.75000000  1
  O  O2  1  0.49138100  0.50861900  0.25000000  1
  O  O3  1  0.50861900  0.49138100  0.75000000  1
  F  F0  1  0.82551700  0.59854800  0.42789600  1
  F  F1  1  0.59854800  0.82551700  0.57210400  1
  F  F2  1  0.82551700  0.59854800  0.07210400  1
  F  F3  1  0.59854800  0.82551700  0.92789600  1
  F  F4  1  0.17448300  0.40145200  0.57210400  1
  F  F5  1  0.40145200  0.17448300  0.42789600  1
  F  F6  1  0.17448300  0.40145200  0.92789600  1
  F  F7  1  0.40145200  0.17448300  0.07210400  1
loop_
_geom_bond_atom_site_label_1
_geom_bond_atom_site_label_2
_geom_bond_distance
_geom_bond_site_symmetry_2
Cs0 O0 3.194171 1_565
Cs0 O0 3.194171 1_455
Cs0 F7 3.221677 1_565
Cs0 F5 3.221677 1_565
Cs0 F0 3.221677 1_455
Cs0 F2 3.221677 1_455
Cs0 F1 3.303758 1_555
Cs0 F4 3.303758 1_555
Cs0 F3 3.303758 1_554
Cs0 F6 3.303758 1_554
Cs0 O2 3.386167 1_555
Cs1 O1 3.194171 1_655
Cs1 O1 3.194171 1_545
Cs1 F6 3.221677 1_655
Cs1 F3 3.221677 1_545
Cs1 F4 3.221677 1_655
Cs1 F1 3.221677 1_545
Cs1 F2 3.303758 1_556
Cs1 F7 3.303758 1_556
Cs1 F0 3.303758 1_555
Cs1 F5 3.303758 1_555
Cs1 O3 3.386167 1_555
Cs2 F1 3.176018 1_545
Cs2 F4 3.176018 1_655
Cs2 F3 3.176018 1_544
Cs2 F6 3.176018 1_654
Cs2 O2 3.217607 1_655
Cs2 O2 3.217607 1_545
Cs2 O0 3.248420 1_555
Cs2 F0 3.332001 1_545
Cs2 F2 3.332001 1_545
Cs2 F7 3.332001 1_655
Cs2 F5 3.332001 1_655
Cs3 F2 3.176018 1_456
Cs3 F0 3.176018 1_455
Cs3 F7 3.176018 1_566
Cs3 F5 3.176018 1_565
Cs3 O3 3.217607 1_565
Cs3 O3 3.217607 1_455
Cs3 O1 3.248420 1_555
Cs3 F3 3.332001 1_455
Cs3 F1 3.332001 1_455
Cs3 F6 3.332001 1_565
Cs3 F4 3.332001 1_565
O0 V0 1.682861 1_555
O1 V1 1.682861 1_555
O2 V0 1.976649 1_555
O3 V1 1.976649 1_555
F0 V0 1.896811 1_555
F1 V1 1.896811 1_555
F2 V0 1.896811 1_555
F3 V1 1.896811 1_555
F4 V1 1.896811 1_555
F5 V0 1.896811 1_555
F6 V1 1.896811 1_555
F7 V0 1.896811 1_555
