# generated using pymatgen
data_Fe6O5F7
_symmetry_space_group_name_H-M   'P 1'
_cell_length_a   5.68737900
_cell_length_b   5.69441451
_cell_length_c   7.35642273
_cell_angle_alpha   72.35136226
_cell_angle_beta   72.32931286
_cell_angle_gamma   73.28287548
_symmetry_Int_Tables_number   1
_chemical_formula_structural   Fe6O5F7
_chemical_formula_sum   'Fe6 O5 F7'
_cell_volume   211.24155846
_cell_formula_units_Z   1
loop_
 _symmetry_equiv_pos_site_id
 _symmetry_equiv_pos_as_xyz
  1  'x, y, z'
loop_
 _atom_site_type_symbol
 _atom_site_label
 _atom_site_symmetry_multiplicity
 _atom_site_fract_x
 _atom_site_fract_y
 _atom_site_fract_z
 _atom_site_occupancy
  Fe  Fe0  1  0.30569200  0.32225100  0.16136000  1
  Fe  Fe1  1  0.67902700  0.64211900  0.33234300  1
  Fe  Fe2  1  0.37592800  0.33012400  0.69011300  1
  Fe  Fe3  1  0.66786300  0.69057400  0.82665400  1
  Fe  Fe4  1  0.98316300  0.02862000  0.49671400  1
  Fe  Fe5  1  0.98836200  0.00269900  0.99276300  1
  O  O0  1  0.76833300  0.77288800  0.03782000  1
  O  O1  1  0.21432100  0.21769400  0.95891500  1
  O  O2  1  0.57682500  0.57338600  0.63162200  1
  O  O3  1  0.64991200  0.03119800  0.66555400  1
  O  O4  1  0.95477400  0.35858600  0.34221500  1
  F  F0  1  0.36091300  0.94636200  0.34579700  1
  F  F1  1  0.04149400  0.64260500  0.66226900  1
  F  F2  1  0.10952400  0.09826500  0.69583800  1
  F  F3  1  0.42759600  0.42786700  0.37562500  1
  F  F4  1  0.90250200  0.89962300  0.29555100  1
  F  F5  1  0.30058300  0.70472200  0.99387400  1
  F  F6  1  0.69318700  0.31041600  0.99497500  1
loop_
_geom_bond_atom_site_label_1
_geom_bond_atom_site_label_2
_geom_bond_distance
_geom_bond_site_symmetry_2
Fe0 O1 2.006977 1_554
Fe0 O4 2.028168 1_455
Fe1 O4 1.900768 1_555
Fe1 O0 2.019408 1_555
Fe1 O2 2.041977 1_555
Fe2 O1 1.905876 1_555
Fe2 O2 1.913154 1_555
Fe2 O3 1.961611 1_555
Fe3 O3 1.934650 1_565
Fe3 O2 2.000542 1_555
Fe3 O0 2.023322 1_556
Fe4 O4 1.868236 1_555
Fe4 O3 1.923818 1_555
Fe5 O1 1.933488 1_655
Fe5 O0 1.953371 1_546
F0 Fe4 2.087101 1_465
F0 Fe1 2.115810 1_555
F0 Fe0 2.152236 1_565
F1 Fe3 2.087785 1_455
F1 Fe4 2.151183 1_465
F1 Fe2 2.212340 1_555
F2 Fe4 1.993700 1_455
F2 Fe5 2.030607 1_455
F2 Fe2 2.262522 1_555
F3 Fe1 2.031366 1_555
F3 Fe2 2.156162 1_555
F3 Fe0 2.192033 1_555
F4 Fe4 2.050633 1_565
F4 Fe5 2.063068 1_564
F4 Fe1 2.112222 1_555
F5 Fe3 2.070357 1_555
F5 Fe5 2.073501 1_465
F5 Fe0 2.149551 1_556
F6 Fe5 2.048749 1_555
F6 Fe3 2.131617 1_555
F6 Fe0 2.164841 1_556
