# generated using pymatgen
data_Li2Mn3SnO8
_symmetry_space_group_name_H-M   'P 1'
_cell_length_a   5.98891781
_cell_length_b   5.98891781
_cell_length_c   5.98891812
_cell_angle_alpha   60.85005770
_cell_angle_beta   60.85005770
_cell_angle_gamma   60.85006175
_symmetry_Int_Tables_number   1
_chemical_formula_structural   Li2Mn3SnO8
_chemical_formula_sum   'Li2 Mn3 Sn1 O8'
_cell_volume   154.80156828
_cell_formula_units_Z   1
loop_
 _symmetry_equiv_pos_site_id
 _symmetry_equiv_pos_as_xyz
  1  'x, y, z'
loop_
 _atom_site_type_symbol
 _atom_site_label
 _atom_site_symmetry_multiplicity
 _atom_site_fract_x
 _atom_site_fract_y
 _atom_site_fract_z
 _atom_site_occupancy
  Li  Li0  1  0.88164800  0.88164800  0.88164800  1
  Li  Li1  1  0.50374500  0.50374500  0.50374500  1
  Mn  Mn0  1  0.98552300  0.50436700  0.50436700  1
  Mn  Mn1  1  0.50436700  0.98552300  0.50436700  1
  Mn  Mn2  1  0.50436700  0.50436700  0.98552300  1
  Sn  Sn0  1  0.11246000  0.11246000  0.11246000  1
  O  O0  1  0.74596000  0.74596000  0.74596000  1
  O  O1  1  0.74905900  0.74905900  0.29389100  1
  O  O2  1  0.74905900  0.29389100  0.74905900  1
  O  O3  1  0.29389100  0.74905900  0.74905900  1
  O  O4  1  0.70842800  0.25561200  0.25561200  1
  O  O5  1  0.25561200  0.70842800  0.25561200  1
  O  O6  1  0.25561200  0.25561200  0.70842800  1
  O  O7  1  0.25026800  0.25026800  0.25026800  1
loop_
_geom_bond_atom_site_label_1
_geom_bond_atom_site_label_2
_geom_bond_distance
_geom_bond_site_symmetry_2
Li0 O0 1.977631 1_555
Li0 O3 2.037407 1_655
Li0 O2 2.037407 1_565
Li0 O1 2.037407 1_556
Li1 O1 2.097997 1_555
Li1 O2 2.097997 1_555
Li1 O3 2.097997 1_555
Li1 O6 2.126364 1_555
Li1 O4 2.126364 1_555
Li1 O5 2.126364 1_555
Mn0 O2 1.913033 1_555
Mn0 O1 1.913033 1_555
Mn0 O5 2.033208 1_655
Mn0 O6 2.033208 1_655
Mn0 O0 2.059173 1_555
Mn0 O7 2.168053 1_655
Mn1 O3 1.913033 1_555
Mn1 O1 1.913033 1_555
Mn1 O4 2.033208 1_565
Mn1 O6 2.033208 1_565
Mn1 O0 2.059173 1_555
Mn1 O7 2.168053 1_565
Mn2 O3 1.913033 1_555
Mn2 O2 1.913033 1_555
Mn2 O5 2.033208 1_556
Mn2 O4 2.033208 1_556
Mn2 O0 2.059172 1_555
Mn2 O7 2.168053 1_556
O4 Sn0 1.999794 1_655
O5 Sn0 1.999794 1_565
O6 Sn0 1.999794 1_556
O7 Sn0 2.008530 1_555
