# generated using pymatgen
data_Fe6O5F7
_symmetry_space_group_name_H-M   'P 1'
_cell_length_a   4.79540090
_cell_length_b   4.79540090
_cell_length_c   9.25405900
_cell_angle_alpha   90.00000000
_cell_angle_beta   90.00000000
_cell_angle_gamma   94.97720928
_symmetry_Int_Tables_number   1
_chemical_formula_structural   Fe6O5F7
_chemical_formula_sum   'Fe6 O5 F7'
_cell_volume   212.00270922
_cell_formula_units_Z   1
loop_
 _symmetry_equiv_pos_site_id
 _symmetry_equiv_pos_as_xyz
  1  'x, y, z'
loop_
 _atom_site_type_symbol
 _atom_site_label
 _atom_site_symmetry_multiplicity
 _atom_site_fract_x
 _atom_site_fract_y
 _atom_site_fract_z
 _atom_site_occupancy
  Fe  Fe0  1  0.99401100  0.99401100  0.83184300  1
  Fe  Fe1  1  0.99401100  0.99401100  0.16815700  1
  Fe  Fe2  1  0.02366700  0.02366700  0.50000000  1
  Fe  Fe3  1  0.49806100  0.49806100  0.00000000  1
  Fe  Fe4  1  0.48889200  0.48889200  0.67512500  1
  Fe  Fe5  1  0.48889200  0.48889200  0.32487500  1
  O  O0  1  0.29383100  0.29383100  0.83669200  1
  O  O1  1  0.29383100  0.29383100  0.16330800  1
  O  O2  1  0.33026000  0.33026000  0.50000000  1
  O  O3  1  0.69701200  0.69701200  0.83343500  1
  O  O4  1  0.69701200  0.69701200  0.16656500  1
  F  F0  1  0.80394400  0.18631000  0.00000000  1
  F  F1  1  0.80051100  0.20040200  0.32758900  1
  F  F2  1  0.80051100  0.20040200  0.67241100  1
  F  F3  1  0.70844200  0.70844200  0.50000000  1
  F  F4  1  0.18631000  0.80394400  0.00000000  1
  F  F5  1  0.20040200  0.80051100  0.67241100  1
  F  F6  1  0.20040200  0.80051100  0.32758900  1
loop_
_geom_bond_atom_site_label_1
_geom_bond_atom_site_label_2
_geom_bond_distance
_geom_bond_site_symmetry_2
Fe0 O3 1.924865 1_555
Fe0 O0 1.943609 1_665
Fe1 O4 1.924865 1_555
Fe1 O1 1.943609 1_665
Fe2 O2 1.986986 1_555
Fe3 O0 2.008928 1_554
Fe3 O1 2.008928 1_555
Fe3 O3 2.009578 1_554
Fe3 O4 2.009578 1_555
Fe4 O2 1.919201 1_555
Fe4 O0 1.957954 1_555
Fe4 O3 1.991358 1_555
Fe5 O2 1.919201 1_555
Fe5 O1 1.957954 1_555
Fe5 O4 1.991358 1_555
F0 Fe0 2.061188 1_544
F0 Fe1 2.061188 1_545
F0 Fe3 2.183355 1_555
F1 Fe1 2.043702 1_545
F1 Fe5 2.122795 1_555
F1 Fe2 2.136923 1_655
F2 Fe0 2.043702 1_545
F2 Fe4 2.122795 1_555
F2 Fe2 2.136923 1_655
F3 Fe2 2.042928 1_665
F3 Fe5 2.156610 1_555
F3 Fe4 2.156610 1_555
F4 Fe1 2.061188 1_455
F4 Fe0 2.061188 1_454
F4 Fe3 2.183355 1_555
F5 Fe0 2.043702 1_455
F5 Fe4 2.122795 1_555
F5 Fe2 2.136923 1_565
F6 Fe1 2.043702 1_455
F6 Fe5 2.122795 1_555
F6 Fe2 2.136923 1_565
