# generated using pymatgen
data_Li3Fe4CuO8
_symmetry_space_group_name_H-M   'P 1'
_cell_length_a   5.98337711
_cell_length_b   5.98337711
_cell_length_c   6.03435392
_cell_angle_alpha   59.90042690
_cell_angle_beta   59.90042690
_cell_angle_gamma   59.71769861
_symmetry_Int_Tables_number   1
_chemical_formula_structural   Li3Fe4CuO8
_chemical_formula_sum   'Li3 Fe4 Cu1 O8'
_cell_volume   152.20219040
_cell_formula_units_Z   1
loop_
 _symmetry_equiv_pos_site_id
 _symmetry_equiv_pos_as_xyz
  1  'x, y, z'
loop_
 _atom_site_type_symbol
 _atom_site_label
 _atom_site_symmetry_multiplicity
 _atom_site_fract_x
 _atom_site_fract_y
 _atom_site_fract_z
 _atom_site_occupancy
  Li  Li0  1  0.00000000  0.50000000  0.00000000  1
  Li  Li1  1  0.00000000  0.00000000  0.50000000  1
  Li  Li2  1  0.50000000  0.00000000  0.00000000  1
  Fe  Fe0  1  0.50000000  0.50000000  0.50000000  1
  Fe  Fe1  1  0.00000000  0.00000000  0.00000000  1
  Fe  Fe2  1  0.00000000  0.50000000  0.50000000  1
  Fe  Fe3  1  0.50000000  0.00000000  0.50000000  1
  Cu  Cu0  1  0.50000000  0.50000000  0.00000000  1
  O  O0  1  0.26251200  0.26251200  0.25639900  1
  O  O1  1  0.25767000  0.75839000  0.72908600  1
  O  O2  1  0.75839000  0.25767000  0.72908600  1
  O  O3  1  0.74307100  0.74307100  0.26655000  1
  O  O4  1  0.25692900  0.25692900  0.73345000  1
  O  O5  1  0.24161000  0.74233000  0.27091400  1
  O  O6  1  0.74233000  0.24161000  0.27091400  1
  O  O7  1  0.73748800  0.73748800  0.74360100  1
loop_
_geom_bond_atom_site_label_1
_geom_bond_atom_site_label_2
_geom_bond_distance
_geom_bond_site_symmetry_2
Li0 O4 2.162641 1_554
Li0 O3 2.162641 1_455
Li0 O6 2.186456 1_455
Li0 O1 2.186456 1_554
Li0 O7 2.204889 1_454
Li0 O0 2.204889 1_555
Li1 O5 2.064769 1_545
Li1 O6 2.064769 1_455
Li1 O2 2.064769 1_455
Li1 O1 2.064769 1_545
Li1 O7 2.225203 1_445
Li1 O0 2.225203 1_555
Li2 O4 2.162641 1_554
Li2 O3 2.162641 1_545
Li2 O5 2.186456 1_545
Li2 O2 2.186456 1_554
Li2 O7 2.204889 1_544
Li2 O0 2.204889 1_555
Fe0 O4 2.058703 1_555
Fe0 O3 2.058703 1_555
Fe0 O5 2.067861 1_555
Fe0 O2 2.067861 1_555
Fe0 O6 2.067861 1_555
Fe0 O1 2.067861 1_555
Fe1 O5 2.175780 1_545
Fe1 O2 2.175780 1_454
Fe1 O6 2.175780 1_455
Fe1 O1 2.175780 1_544
Fe1 O3 2.176448 1_445
Fe1 O4 2.176448 1_554
Fe2 O0 2.043382 1_555
Fe2 O7 2.043382 1_455
Fe2 O2 2.049961 1_455
Fe2 O5 2.049961 1_555
Fe2 O4 2.079737 1_555
Fe2 O3 2.079737 1_455
Fe3 O7 2.043382 1_545
Fe3 O0 2.043382 1_555
Fe3 O1 2.049961 1_545
Fe3 O6 2.049961 1_555
Fe3 O4 2.079737 1_555
Fe3 O3 2.079737 1_545
Cu0 O0 2.014517 1_555
Cu0 O7 2.014517 1_554
Cu0 O1 2.178715 1_554
Cu0 O2 2.178715 1_554
Cu0 O5 2.178715 1_555
Cu0 O6 2.178715 1_555
