# generated using pymatgen
data_CdHSeNO6
_symmetry_space_group_name_H-M   'P 1'
_cell_length_a   6.10624700
_cell_length_b   9.11176500
_cell_length_c   20.41605400
_cell_angle_alpha   90.00000000
_cell_angle_beta   90.00000000
_cell_angle_gamma   90.00000000
_symmetry_Int_Tables_number   1
_chemical_formula_structural   CdHSeNO6
_chemical_formula_sum   'Cd8 H8 Se8 N8 O48'
_cell_volume   1135.92245249
_cell_formula_units_Z   8
loop_
 _symmetry_equiv_pos_site_id
 _symmetry_equiv_pos_as_xyz
  1  'x, y, z'
loop_
 _atom_site_type_symbol
 _atom_site_label
 _atom_site_symmetry_multiplicity
 _atom_site_fract_x
 _atom_site_fract_y
 _atom_site_fract_z
 _atom_site_occupancy
  Cd  Cd0  1  0.09212500  0.31802100  0.44911400  1
  Cd  Cd1  1  0.59212500  0.18197900  0.55088600  1
  Cd  Cd2  1  0.90787500  0.81802100  0.05088600  1
  Cd  Cd3  1  0.40787500  0.68197900  0.94911400  1
  Cd  Cd4  1  0.90787500  0.68197900  0.55088600  1
  Cd  Cd5  1  0.40787500  0.81802100  0.44911400  1
  Cd  Cd6  1  0.09212500  0.18197900  0.94911400  1
  Cd  Cd7  1  0.59212500  0.31802100  0.05088600  1
  H  H0  1  0.64741200  0.81678600  0.32366100  1
  H  H1  1  0.14741200  0.68321400  0.67633900  1
  H  H2  1  0.35258800  0.31678600  0.17633900  1
  H  H3  1  0.85258800  0.18321400  0.82366100  1
  H  H4  1  0.35258800  0.18321400  0.67633900  1
  H  H5  1  0.85258800  0.31678600  0.32366100  1
  H  H6  1  0.64741200  0.68321400  0.82366100  1
  H  H7  1  0.14741200  0.81678600  0.17633900  1
  Se  Se0  1  0.59293200  0.43130800  0.41283000  1
  Se  Se1  1  0.09293200  0.06869200  0.58717000  1
  Se  Se2  1  0.40706800  0.93130800  0.08717000  1
  Se  Se3  1  0.90706800  0.56869200  0.91283000  1
  Se  Se4  1  0.40706800  0.56869200  0.58717000  1
  Se  Se5  1  0.90706800  0.93130800  0.41283000  1
  Se  Se6  1  0.59293200  0.06869200  0.91283000  1
  Se  Se7  1  0.09293200  0.43130800  0.08717000  1
  N  N0  1  0.87537000  0.12067600  0.23140800  1
  N  N1  1  0.37537000  0.37932400  0.76859200  1
  N  N2  1  0.12463000  0.62067600  0.26859200  1
  N  N3  1  0.62463000  0.87932400  0.73140800  1
  N  N4  1  0.12463000  0.87932400  0.76859200  1
  N  N5  1  0.62463000  0.62067600  0.23140800  1
  N  N6  1  0.87537000  0.37932400  0.73140800  1
  N  N7  1  0.37537000  0.12067600  0.26859200  1
  O  O0  1  0.79951800  0.48593300  0.46335300  1
  O  O1  1  0.29951800  0.01406700  0.53664700  1
  O  O2  1  0.20048200  0.98593300  0.03664700  1
  O  O3  1  0.70048200  0.51406700  0.96335300  1
  O  O4  1  0.20048200  0.51406700  0.53664700  1
  O  O5  1  0.70048200  0.98593300  0.46335300  1
  O  O6  1  0.79951800  0.01406700  0.96335300  1
  O  O7  1  0.29951800  0.48593300  0.03664700  1
  O  O8  1  0.17955100  0.77663400  0.13288600  1
  O  O9  1  0.67955100  0.72336600  0.86711400  1
  O  O10  1  0.82044900  0.27663400  0.36711400  1
  O  O11  1  0.32044900  0.22336600  0.63288600  1
  O  O12  1  0.82044900  0.22336600  0.86711400  1
  O  O13  1  0.32044900  0.27663400  0.13288600  1
  O  O14  1  0.17955100  0.72336600  0.63288600  1
  O  O15  1  0.67955100  0.77663400  0.36711400  1
  O  O16  1  0.03804900  0.78907700  0.45382700  1
  O  O17  1  0.53804900  0.71092300  0.54617300  1
  O  O18  1  0.96195100  0.28907700  0.04617300  1
  O  O19  1  0.46195100  0.21092300  0.95382700  1
  O  O20  1  0.96195100  0.21092300  0.54617300  1
  O  O21  1  0.46195100  0.28907700  0.45382700  1
  O  O22  1  0.03804900  0.71092300  0.95382700  1
  O  O23  1  0.53804900  0.78907700  0.04617300  1
  O  O24  1  0.11711200  0.05687100  0.41210600  1
  O  O25  1  0.61711200  0.44312900  0.58789400  1
  O  O26  1  0.88288800  0.55687100  0.08789400  1
  O  O27  1  0.38288800  0.94312900  0.91210600  1
  O  O28  1  0.88288800  0.94312900  0.58789400  1
  O  O29  1  0.38288800  0.55687100  0.41210600  1
  O  O30  1  0.11711200  0.44312900  0.91210600  1
  O  O31  1  0.61711200  0.05687100  0.08789400  1
  O  O32  1  0.18117200  0.73776300  0.29184600  1
  O  O33  1  0.68117200  0.76223700  0.70815400  1
  O  O34  1  0.81882800  0.23776300  0.20815400  1
  O  O35  1  0.31882800  0.26223700  0.79184600  1
  O  O36  1  0.81882800  0.26223700  0.70815400  1
  O  O37  1  0.31882800  0.23776300  0.29184600  1
  O  O38  1  0.18117200  0.76223700  0.79184600  1
  O  O39  1  0.68117200  0.73776300  0.20815400  1
  O  O40  1  0.95182800  0.01111300  0.20667400  1
  O  O41  1  0.45182800  0.48888700  0.79332600  1
  O  O42  1  0.04817200  0.51111300  0.29332600  1
  O  O43  1  0.54817200  0.98888700  0.70667400  1
  O  O44  1  0.04817200  0.98888700  0.79332600  1
  O  O45  1  0.54817200  0.51111300  0.20667400  1
  O  O46  1  0.95182800  0.48888700  0.70667400  1
  O  O47  1  0.45182800  0.01111300  0.29332600  1
loop_
_geom_bond_atom_site_label_1
_geom_bond_atom_site_label_2
_geom_bond_distance
_geom_bond_site_symmetry_2
Cd0 O21 2.275632 1_555
Cd0 O20 2.347488 1_455
Cd0 O0 2.370177 1_455
Cd0 O10 2.386817 1_455
Cd0 O24 2.501269 1_555
Cd0 O4 2.611971 1_555
Cd1 O20 2.275632 1_555
Cd1 O21 2.347488 1_555
Cd1 O1 2.370177 1_555
Cd1 O11 2.386817 1_555
Cd1 O25 2.501269 1_555
Cd1 O5 2.611971 1_545
Cd2 O23 2.275632 1_555
Cd2 O22 2.347488 1_654
Cd2 O2 2.370177 1_655
Cd2 O8 2.386817 1_655
Cd2 O26 2.501269 1_555
Cd2 O6 2.611971 1_564
Cd3 O22 2.275632 1_555
Cd3 O23 2.347488 1_556
Cd3 O3 2.370177 1_555
Cd3 O9 2.386817 1_555
Cd3 O27 2.501269 1_555
Cd3 O7 2.611971 1_556
Cd4 O17 2.275632 1_555
Cd4 O16 2.347488 1_655
Cd4 O4 2.370177 1_655
Cd4 O14 2.386817 1_655
Cd4 O28 2.501269 1_555
Cd4 O0 2.611971 1_555
Cd5 O16 2.275632 1_555
Cd5 O17 2.347488 1_555
Cd5 O5 2.370177 1_555
Cd5 O15 2.386817 1_555
Cd5 O29 2.501269 1_555
Cd5 O1 2.611971 1_565
Cd6 O19 2.275632 1_555
Cd6 O18 2.347488 1_456
Cd6 O6 2.370177 1_455
Cd6 O12 2.386817 1_455
Cd6 O30 2.501269 1_555
Cd6 O2 2.611971 1_546
Cd7 O18 2.275632 1_555
Cd7 O19 2.347488 1_554
Cd7 O7 2.370177 1_555
Cd7 O13 2.386817 1_555
Cd7 O31 2.501269 1_555
Cd7 O3 2.611971 1_554
H0 O15 0.979479 1_555
H1 O14 0.979479 1_555
H2 O13 0.979479 1_555
H3 O12 0.979479 1_555
H4 O11 0.979479 1_555
H5 O10 0.979479 1_555
H6 O9 0.979479 1_555
H7 O8 0.979479 1_555
N0 O40 1.212267 1_555
N0 O34 1.217705 1_555
N1 O41 1.212267 1_555
N1 O35 1.217705 1_555
N2 O42 1.212267 1_555
N2 O32 1.217705 1_555
N3 O43 1.212267 1_555
N3 O33 1.217705 1_555
N4 O44 1.212267 1_555
N4 O38 1.217705 1_555
N5 O45 1.212267 1_555
N5 O39 1.217705 1_555
N6 O46 1.212267 1_555
N6 O36 1.217705 1_555
N7 O47 1.212267 1_555
N7 O37 1.217705 1_555
O0 Se0 1.703814 1_555
O1 Se1 1.703814 1_555
O2 Se2 1.703814 1_555
O3 Se3 1.703814 1_555
O4 Se4 1.703814 1_555
O5 Se5 1.703814 1_555
O6 Se6 1.703814 1_555
O7 Se7 1.703814 1_555
O8 Se2 2.188032 1_555
O9 Se3 2.188032 1_555
O10 Se0 2.188032 1_555
O11 Se1 2.188032 1_555
O12 Se6 2.188032 1_555
O13 Se7 2.188032 1_555
O14 Se4 2.188032 1_555
O15 Se5 2.188032 1_555
O16 Se5 1.737757 1_455
O17 Se4 1.737757 1_555
O18 Se7 1.737757 1_655
O19 Se6 1.737757 1_555
O20 Se1 1.737757 1_655
O21 Se0 1.737757 1_555
O22 Se3 1.737757 1_455
O23 Se2 1.737757 1_555
O24 Se5 1.718778 1_445
O25 Se4 1.718778 1_555
O26 Se7 1.718778 1_655
O27 Se6 1.718778 1_565
O28 Se1 1.718778 1_665
O29 Se0 1.718778 1_555
O30 Se3 1.718778 1_455
O31 Se2 1.718778 1_545
