# generated using pymatgen
data_TmPPt
_symmetry_space_group_name_H-M   'P 1'
_cell_length_a   4.08476419
_cell_length_b   4.08476336
_cell_length_c   3.80939932
_cell_angle_alpha   90.00000000
_cell_angle_beta   90.00000000
_cell_angle_gamma   120.00000677
_symmetry_Int_Tables_number   1
_chemical_formula_structural   TmPPt
_chemical_formula_sum   'Tm1 P1 Pt1'
_cell_volume   55.04539524
_cell_formula_units_Z   1
loop_
 _symmetry_equiv_pos_site_id
 _symmetry_equiv_pos_as_xyz
  1  'x, y, z'
loop_
 _atom_site_type_symbol
 _atom_site_label
 _atom_site_symmetry_multiplicity
 _atom_site_fract_x
 _atom_site_fract_y
 _atom_site_fract_z
 _atom_site_occupancy
  Tm  Tm0  1  -0.00000000  0.00000000  0.00000000  1
  P  P0  1  0.66666700  0.33333300  0.50000000  1
  Pt  Pt0  1  0.33333300  0.66666700  0.50000000  1
loop_
_geom_bond_atom_site_label_1
_geom_bond_atom_site_label_2
_geom_bond_distance
_geom_bond_site_symmetry_2
P0 Pt0 2.358337 1_545
P0 Pt0 2.358337 1_655
P0 Pt0 2.358344 1_555
P0 Tm0 3.031441 1_655
P0 Tm0 3.031441 1_656
P0 Tm0 3.031443 1_665
P0 Tm0 3.031443 1_666
P0 Tm0 3.031444 1_555
P0 Tm0 3.031444 1_556
Pt0 Tm0 3.031441 1_566
Pt0 Tm0 3.031441 1_565
Pt0 Tm0 3.031443 1_556
Pt0 Tm0 3.031443 1_555
Pt0 Tm0 3.031444 1_665
Pt0 Tm0 3.031444 1_666
