# generated using pymatgen
data_Ca3Tl4O9
_symmetry_space_group_name_H-M   'P 1'
_cell_length_a   6.75669200
_cell_length_b   11.28700100
_cell_length_c   12.49799027
_cell_angle_alpha   77.45821511
_cell_angle_beta   90.00000000
_cell_angle_gamma   90.00000000
_symmetry_Int_Tables_number   1
_chemical_formula_structural   Ca3Tl4O9
_chemical_formula_sum   'Ca12 Tl16 O36'
_cell_volume   930.38787966
_cell_formula_units_Z   4
loop_
 _symmetry_equiv_pos_site_id
 _symmetry_equiv_pos_as_xyz
  1  'x, y, z'
loop_
 _atom_site_type_symbol
 _atom_site_label
 _atom_site_symmetry_multiplicity
 _atom_site_fract_x
 _atom_site_fract_y
 _atom_site_fract_z
 _atom_site_occupancy
  Ca  Ca0  1  0.12775800  0.19802100  0.29331200  1
  Ca  Ca1  1  0.62257900  0.19998800  0.28636000  1
  Ca  Ca2  1  0.87625300  0.01442200  0.87215800  1
  Ca  Ca3  1  0.12374700  0.98557800  0.12784200  1
  Ca  Ca4  1  0.37742100  0.80001200  0.71364000  1
  Ca  Ca5  1  0.87224200  0.80197900  0.70668800  1
  Ca  Ca6  1  0.87742100  0.69998800  0.28636000  1
  Ca  Ca7  1  0.37224200  0.69802100  0.29331200  1
  Ca  Ca8  1  0.62374700  0.51442200  0.87215800  1
  Ca  Ca9  1  0.37625300  0.48557800  0.12784200  1
  Ca  Ca10  1  0.62775800  0.30197900  0.70668800  1
  Ca  Ca11  1  0.12257900  0.30001200  0.71364000  1
  Tl  Tl0  1  0.87528800  0.10100900  0.56487200  1
  Tl  Tl1  1  0.37453500  0.09895400  0.56267400  1
  Tl  Tl2  1  0.37225000  0.01030600  0.87082300  1
  Tl  Tl3  1  0.62775000  0.98969400  0.12917700  1
  Tl  Tl4  1  0.62546500  0.90104600  0.43732600  1
  Tl  Tl5  1  0.12471200  0.89899100  0.43512800  1
  Tl  Tl6  1  0.12563500  0.74765400  0.99951900  1
  Tl  Tl7  1  0.62563500  0.75234600  0.00048100  1
  Tl  Tl8  1  0.62471200  0.60100900  0.56487200  1
  Tl  Tl9  1  0.12546500  0.59895400  0.56267400  1
  Tl  Tl10  1  0.12775000  0.51030600  0.87082300  1
  Tl  Tl11  1  0.87225000  0.48969400  0.12917700  1
  Tl  Tl12  1  0.87453500  0.40104600  0.43732600  1
  Tl  Tl13  1  0.37528800  0.39899100  0.43512800  1
  Tl  Tl14  1  0.87436500  0.25234600  0.00048100  1
  Tl  Tl15  1  0.37436500  0.24765400  0.99951900  1
  O  O0  1  0.12918000  0.12139100  0.94646200  1
  O  O1  1  0.62256800  0.11744800  0.95270000  1
  O  O2  1  0.87380200  0.15923700  0.71663400  1
  O  O3  1  0.37646600  0.15461400  0.72022000  1
  O  O4  1  0.37926400  0.12401500  0.16279300  1
  O  O5  1  0.87392200  0.12513200  0.16172900  1
  O  O6  1  0.37677600  0.05543700  0.39710100  1
  O  O7  1  0.87331400  0.05736400  0.39874600  1
  O  O8  1  0.12668600  0.94263600  0.60125400  1
  O  O9  1  0.62322400  0.94456300  0.60289900  1
  O  O10  1  0.62073600  0.87598500  0.83720700  1
  O  O11  1  0.12607800  0.87486800  0.83827100  1
  O  O12  1  0.62353400  0.84538600  0.27978000  1
  O  O13  1  0.12619800  0.84076300  0.28336600  1
  O  O14  1  0.37743200  0.88255200  0.04730000  1
  O  O15  1  0.87082000  0.87860900  0.05353800  1
  O  O16  1  0.37504400  0.74881100  0.49855700  1
  O  O17  1  0.87504400  0.75118900  0.50144300  1
  O  O18  1  0.37082000  0.62139100  0.94646200  1
  O  O19  1  0.87743200  0.61744800  0.95270000  1
  O  O20  1  0.62619800  0.65923700  0.71663400  1
  O  O21  1  0.12353400  0.65461400  0.72022000  1
  O  O22  1  0.12073600  0.62401500  0.16279300  1
  O  O23  1  0.62607800  0.62513200  0.16172900  1
  O  O24  1  0.62668600  0.55736400  0.39874600  1
  O  O25  1  0.12322400  0.55543700  0.39710100  1
  O  O26  1  0.87677600  0.44456300  0.60289900  1
  O  O27  1  0.37331400  0.44263600  0.60125400  1
  O  O28  1  0.87926400  0.37598500  0.83720700  1
  O  O29  1  0.37392200  0.37486800  0.83827100  1
  O  O30  1  0.87646600  0.34538600  0.27978000  1
  O  O31  1  0.37380200  0.34076300  0.28336600  1
  O  O32  1  0.12256800  0.38255200  0.04730000  1
  O  O33  1  0.62918000  0.37860900  0.05353800  1
  O  O34  1  0.12495600  0.24881100  0.49855700  1
  O  O35  1  0.62495600  0.25118900  0.50144300  1
loop_
_geom_bond_atom_site_label_1
_geom_bond_atom_site_label_2
_geom_bond_distance
_geom_bond_site_symmetry_2
Ca0 O31 2.299550 1_555
Ca0 O30 2.357096 1_455
Ca0 O6 2.489357 1_555
Ca0 O7 2.510760 1_455
Ca0 O4 2.614993 1_555
Ca0 O5 2.628767 1_455
Ca0 O34 2.747296 1_555
Ca1 O31 2.307753 1_555
Ca1 O30 2.363071 1_555
Ca1 O6 2.520934 1_555
Ca1 O4 2.529465 1_555
Ca1 O7 2.540166 1_555
Ca1 O5 2.568209 1_555
Ca1 O35 2.869638 1_555
Ca2 O2 2.251721 1_555
Ca2 O0 2.393233 1_655
Ca2 O11 2.408213 1_645
Ca2 O1 2.410791 1_555
Ca2 O10 2.430925 1_545
Ca2 O15 2.445563 1_546
Ca3 O13 2.251721 1_555
Ca3 O15 2.393233 1_455
Ca3 O5 2.408213 1_465
Ca3 O14 2.410791 1_555
Ca3 O4 2.430925 1_565
Ca3 O0 2.445563 1_564
Ca4 O20 2.307753 1_555
Ca4 O21 2.363071 1_555
Ca4 O9 2.520934 1_555
Ca4 O10 2.529465 1_555
Ca4 O8 2.540166 1_555
Ca4 O11 2.568209 1_555
Ca4 O16 2.869638 1_555
Ca5 O20 2.299550 1_555
Ca5 O21 2.357096 1_655
Ca5 O9 2.489357 1_555
Ca5 O8 2.510760 1_655
Ca5 O10 2.614993 1_555
Ca5 O11 2.628767 1_655
Ca5 O17 2.747296 1_555
Ca6 O13 2.307753 1_655
Ca6 O12 2.363071 1_555
Ca6 O25 2.520934 1_655
Ca6 O22 2.529465 1_655
Ca6 O24 2.540166 1_555
Ca6 O23 2.568209 1_555
Ca6 O17 2.869638 1_555
Ca7 O13 2.299550 1_555
Ca7 O12 2.357096 1_555
Ca7 O25 2.489357 1_555
Ca7 O24 2.510760 1_555
Ca7 O22 2.614993 1_555
Ca7 O23 2.628767 1_555
Ca7 O16 2.747296 1_555
Ca8 O20 2.251721 1_555
Ca8 O18 2.393233 1_555
Ca8 O29 2.408213 1_555
Ca8 O19 2.410791 1_555
Ca8 O28 2.430925 1_555
Ca8 O33 2.445563 1_556
Ca9 O31 2.251721 1_555
Ca9 O33 2.393233 1_555
Ca9 O23 2.408213 1_555
Ca9 O32 2.410791 1_555
Ca9 O22 2.430925 1_555
Ca9 O18 2.445563 1_554
Ca10 O2 2.299550 1_555
Ca10 O3 2.357096 1_555
Ca10 O26 2.489357 1_555
Ca10 O27 2.510760 1_555
Ca10 O28 2.614993 1_555
Ca10 O29 2.628767 1_555
Ca10 O35 2.747296 1_555
Ca11 O2 2.307753 1_455
Ca11 O3 2.363071 1_555
Ca11 O26 2.520934 1_455
Ca11 O28 2.529465 1_455
Ca11 O27 2.540166 1_555
Ca11 O29 2.568209 1_555
Ca11 O34 2.869638 1_555
O0 Tl15 2.371831 1_555
O0 Tl2 2.382812 1_555
O0 Tl14 2.457277 1_456
O1 Tl3 2.358797 1_546
O1 Tl15 2.384981 1_555
O1 Tl2 2.430553 1_555
O1 Tl14 2.442183 1_556
O2 Tl0 2.137983 1_555
O3 Tl1 2.192960 1_555
O3 Tl2 2.205706 1_555
O4 Tl15 2.208129 1_554
O4 Tl3 2.360190 1_545
O5 Tl14 2.205975 1_555
O5 Tl3 2.353530 1_545
O6 Tl1 2.228236 1_555
O6 Tl4 2.394246 1_545
O6 Tl5 2.424888 1_545
O7 Tl0 2.235584 1_555
O7 Tl4 2.404247 1_545
O7 Tl5 2.436065 1_645
O8 Tl5 2.235584 1_555
O8 Tl1 2.404247 1_565
O8 Tl0 2.436065 1_465
O9 Tl4 2.228236 1_555
O9 Tl1 2.394246 1_565
O9 Tl0 2.424888 1_565
O10 Tl7 2.208129 1_556
O10 Tl2 2.360190 1_565
O11 Tl6 2.205975 1_555
O11 Tl2 2.353530 1_565
O12 Tl4 2.192960 1_555
O12 Tl3 2.205706 1_555
O13 Tl5 2.137983 1_555
O14 Tl2 2.358797 1_564
O14 Tl7 2.384981 1_555
O14 Tl3 2.430553 1_555
O14 Tl6 2.442183 1_554
O15 Tl7 2.371831 1_555
O15 Tl3 2.382812 1_555
O15 Tl6 2.457277 1_654
O16 Tl8 2.390646 1_555
O16 Tl9 2.399612 1_555
O16 Tl5 2.403960 1_555
O16 Tl4 2.414528 1_555
O17 Tl5 2.390646 1_655
O17 Tl4 2.399612 1_555
O17 Tl8 2.403960 1_555
O17 Tl9 2.414528 1_655
O18 Tl6 2.371831 1_555
O18 Tl10 2.382812 1_555
O18 Tl7 2.457277 1_556
O19 Tl11 2.358797 1_556
O19 Tl6 2.384981 1_655
O19 Tl10 2.430553 1_655
O19 Tl7 2.442183 1_556
O20 Tl8 2.137983 1_555
O21 Tl9 2.192960 1_555
O21 Tl10 2.205706 1_555
O22 Tl6 2.208129 1_554
O22 Tl11 2.360190 1_455
O23 Tl7 2.205975 1_555
O23 Tl11 2.353530 1_555
O24 Tl8 2.235584 1_555
O24 Tl12 2.404247 1_555
O24 Tl13 2.436065 1_555
O25 Tl9 2.228236 1_555
O25 Tl12 2.394246 1_455
O25 Tl13 2.424888 1_555
O26 Tl12 2.228236 1_555
O26 Tl9 2.394246 1_655
O26 Tl8 2.424888 1_555
O27 Tl13 2.235584 1_555
O27 Tl9 2.404247 1_555
O27 Tl8 2.436065 1_555
O28 Tl14 2.208129 1_556
O28 Tl10 2.360190 1_655
O29 Tl15 2.205975 1_555
O29 Tl10 2.353530 1_555
O30 Tl12 2.192960 1_555
O30 Tl11 2.205706 1_555
O31 Tl13 2.137983 1_555
O32 Tl10 2.358797 1_554
O32 Tl14 2.384981 1_455
O32 Tl11 2.430553 1_455
O32 Tl15 2.442183 1_554
O33 Tl14 2.371831 1_555
O33 Tl11 2.382812 1_555
O33 Tl15 2.457277 1_554
O34 Tl0 2.390646 1_455
O34 Tl1 2.399612 1_555
O34 Tl13 2.403960 1_555
O34 Tl12 2.414528 1_455
O35 Tl13 2.390646 1_555
O35 Tl12 2.399612 1_555
O35 Tl0 2.403960 1_555
O35 Tl1 2.414528 1_555
