# generated using pymatgen
data_Mn11Cu7O24
_symmetry_space_group_name_H-M   'P 1'
_cell_length_a   6.07268955
_cell_length_b   10.43242065
_cell_length_c   8.30860434
_cell_angle_alpha   113.41592395
_cell_angle_beta   89.84096346
_cell_angle_gamma   73.14542026
_symmetry_Int_Tables_number   1
_chemical_formula_structural   Mn11Cu7O24
_chemical_formula_sum   'Mn11 Cu7 O24'
_cell_volume   458.08318822
_cell_formula_units_Z   1
loop_
 _symmetry_equiv_pos_site_id
 _symmetry_equiv_pos_as_xyz
  1  'x, y, z'
loop_
 _atom_site_type_symbol
 _atom_site_label
 _atom_site_symmetry_multiplicity
 _atom_site_fract_x
 _atom_site_fract_y
 _atom_site_fract_z
 _atom_site_occupancy
  Mn  Mn0  1  0.25247300  0.49884900  0.12519600  1
  Mn  Mn1  1  0.08333300  0.83333300  0.29166700  1
  Mn  Mn2  1  0.58333300  0.33333300  0.29166700  1
  Mn  Mn3  1  0.74867900  0.49884900  0.62365400  1
  Mn  Mn4  1  0.91419400  0.16781700  0.45813800  1
  Mn  Mn5  1  0.58333300  0.83333300  0.79166700  1
  Mn  Mn6  1  0.74906200  0.00187500  0.62593800  1
  Mn  Mn7  1  0.24969500  0.00061100  0.62530500  1
  Mn  Mn8  1  0.41760500  0.66479100  0.95739500  1
  Mn  Mn9  1  0.91697200  0.66605600  0.95802800  1
  Mn  Mn10  1  0.41798800  0.16781700  0.95968000  1
  Cu  Cu0  1  0.99909100  0.00191900  0.00118700  1
  Cu  Cu1  1  0.66767600  0.66474800  0.33260300  1
  Cu  Cu2  1  0.08333300  0.33333300  0.29166700  1
  Cu  Cu3  1  0.49899000  0.00191900  0.25073100  1
  Cu  Cu4  1  0.16757600  0.66474800  0.58214700  1
  Cu  Cu5  1  0.32722800  0.33333300  0.66342500  1
  Cu  Cu6  1  0.83943900  0.33333300  0.91990800  1
  O  O0  1  0.58268500  0.81948600  0.02209700  1
  O  O1  1  0.09782800  0.81948600  0.04738900  1
  O  O2  1  0.93954800  0.66507300  0.19441700  1
  O  O3  1  0.39871400  0.66185900  0.19427000  1
  O  O4  1  0.11530300  0.33333300  0.04677000  1
  O  O5  1  0.56558300  0.33333300  0.05376300  1
  O  O6  1  0.42065000  0.18118300  0.20275900  1
  O  O7  1  0.06883900  0.84718000  0.53594400  1
  O  O8  1  0.26849800  0.48548400  0.35490900  1
  O  O9  1  0.89816800  0.18118300  0.22842400  1
  O  O10  1  0.74601700  0.48548400  0.38057500  1
  O  O11  1  0.58398100  0.84718000  0.56123600  1
  O  O12  1  0.60108300  0.33333300  0.52957100  1
  O  O13  1  0.05136400  0.33333300  0.53656300  1
  O  O14  1  0.22711800  0.00159400  0.38891600  1
  O  O15  1  0.43942800  0.66185900  0.71758900  1
  O  O16  1  0.76795300  0.00480800  0.38906400  1
  O  O17  1  0.89537900  0.66507300  0.72065600  1
  O  O18  1  0.91741800  0.15319900  0.68944200  1
  O  O19  1  0.73728300  0.51346800  0.86957700  1
  O  O20  1  0.42938400  0.15319900  0.71375600  1
  O  O21  1  0.24924800  0.51346800  0.89389200  1
  O  O22  1  0.72723900  0.00480800  0.86574400  1
  O  O23  1  0.27128800  0.00159400  0.86267800  1
loop_
_geom_bond_atom_site_label_1
_geom_bond_atom_site_label_2
_geom_bond_distance
_geom_bond_site_symmetry_2
Mn0 O8 1.968836 1_555
Mn0 O21 1.987069 1_554
Mn0 O4 2.010694 1_555
Mn0 O3 2.028039 1_555
Mn0 O5 2.055368 1_555
Mn0 O2 2.058976 1_455
Mn1 O7 1.976487 1_555
Mn1 O1 1.976495 1_555
Mn1 O2 2.064457 1_455
Mn1 O14 2.064465 1_565
Mn1 O3 2.092146 1_555
Mn1 O16 2.092147 1_465
Mn2 O12 1.979886 1_555
Mn2 O5 1.979886 1_555
Mn2 O6 2.005647 1_555
Mn2 O9 2.005655 1_555
Mn2 O10 2.005659 1_555
Mn2 O8 2.005660 1_555
Mn3 O10 1.968845 1_555
Mn3 O19 1.987069 1_555
Mn3 O13 2.010690 1_655
Mn3 O15 2.028038 1_555
Mn3 O12 2.055376 1_555
Mn3 O17 2.058971 1_555
Mn4 O9 1.968849 1_555
Mn4 O18 1.987064 1_555
Mn4 O13 2.010694 1_655
Mn4 O16 2.028030 1_555
Mn4 O12 2.055372 1_555
Mn4 O14 2.058966 1_655
Mn5 O0 1.976487 1_556
Mn5 O11 1.976495 1_555
Mn5 O17 2.064461 1_555
Mn5 O23 2.064462 1_565
Mn5 O15 2.092138 1_555
Mn5 O22 2.092151 1_565
Mn6 O22 1.983960 1_555
Mn6 O16 1.983968 1_555
Mn6 O20 2.023045 1_555
Mn6 O18 2.023055 1_555
Mn6 O11 2.037173 1_545
Mn6 O7 2.037178 1_645
Mn7 O14 1.973102 1_555
Mn7 O23 1.973110 1_555
Mn7 O20 2.084883 1_555
Mn7 O18 2.084883 1_455
Mn7 O11 2.097366 1_545
Mn7 O7 2.097370 1_545
Mn8 O15 1.983964 1_555
Mn8 O3 1.983972 1_556
Mn8 O19 2.023041 1_555
Mn8 O21 2.023051 1_555
Mn8 O0 2.037169 1_556
Mn8 O1 2.037178 1_556
Mn9 O17 1.973102 1_555
Mn9 O2 1.973102 1_556
Mn9 O21 2.084879 1_655
Mn9 O19 2.084883 1_555
Mn9 O1 2.097362 1_656
Mn9 O0 2.097366 1_556
Mn10 O6 1.968841 1_556
Mn10 O20 1.987081 1_555
Mn10 O4 2.010690 1_556
Mn10 O22 2.028035 1_555
Mn10 O5 2.055372 1_556
Mn10 O23 2.058963 1_555
Cu0 O9 1.990045 1_555
Cu0 O22 2.000276 1_554
Cu0 O23 2.009921 1_654
Cu0 O1 2.012294 1_645
Cu1 O10 1.990040 1_555
Cu1 O3 2.000275 1_555
Cu1 O2 2.009930 1_555
Cu1 O11 2.012280 1_555
Cu2 O13 2.043448 1_555
Cu2 O4 2.043457 1_555
Cu2 O9 2.106029 1_455
Cu2 O10 2.106038 1_455
Cu2 O8 2.106038 1_555
Cu2 O6 2.106039 1_555
Cu3 O6 1.990040 1_555
Cu3 O16 2.000280 1_555
Cu3 O14 2.009925 1_555
Cu3 O0 2.012289 1_545
Cu4 O8 1.990050 1_555
Cu4 O15 2.000271 1_555
Cu4 O17 2.009921 1_455
Cu4 O7 2.012289 1_555
Cu5 O13 1.981725 1_555
Cu5 O12 1.998069 1_555
Cu5 O20 2.010287 1_555
Cu5 O21 2.010301 1_555
Cu6 O4 1.981725 1_656
Cu6 O5 1.998078 1_556
Cu6 O18 2.010291 1_555
Cu6 O19 2.010296 1_555
