# generated using pymatgen
data_Li3MnF6
_symmetry_space_group_name_H-M   'P 1'
_cell_length_a   5.57390900
_cell_length_b   8.71309500
_cell_length_c   9.80693379
_cell_angle_alpha   80.06868628
_cell_angle_beta   90.00000000
_cell_angle_gamma   90.00000000
_symmetry_Int_Tables_number   1
_chemical_formula_structural   Li3MnF6
_chemical_formula_sum   'Li12 Mn4 F24'
_cell_volume   469.14652696
_cell_formula_units_Z   4
loop_
 _symmetry_equiv_pos_site_id
 _symmetry_equiv_pos_as_xyz
  1  'x, y, z'
loop_
 _atom_site_type_symbol
 _atom_site_label
 _atom_site_symmetry_multiplicity
 _atom_site_fract_x
 _atom_site_fract_y
 _atom_site_fract_z
 _atom_site_occupancy
  Li  Li0  1  0.01049700  0.87603300  0.81971100  1
  Li  Li1  1  0.48950300  0.87603300  0.31971100  1
  Li  Li2  1  0.63703000  0.75812300  0.64421200  1
  Li  Li3  1  0.86297000  0.75812300  0.14421200  1
  Li  Li4  1  0.08343900  0.57482100  0.63702100  1
  Li  Li5  1  0.41656100  0.57482100  0.13702100  1
  Li  Li6  1  0.58343900  0.42517900  0.86297900  1
  Li  Li7  1  0.91656100  0.42517900  0.36297900  1
  Li  Li8  1  0.13703000  0.24187700  0.85578800  1
  Li  Li9  1  0.36297000  0.24187700  0.35578800  1
  Li  Li10  1  0.51049700  0.12396700  0.68028900  1
  Li  Li11  1  0.98950300  0.12396700  0.18028900  1
  Mn  Mn0  1  0.00000000  0.00000000  0.50000000  1
  Mn  Mn1  1  0.50000000  0.00000000  0.00000000  1
  Mn  Mn2  1  0.50000000  0.50000000  0.50000000  1
  Mn  Mn3  1  0.00000000  0.50000000  0.00000000  1
  F  F0  1  0.63886000  0.92276500  0.84958500  1
  F  F1  1  0.86114000  0.92276500  0.34958500  1
  F  F2  1  0.51323100  0.77814200  0.15835100  1
  F  F3  1  0.81169500  0.99038300  0.07888200  1
  F  F4  1  0.37847300  0.70527600  0.45622300  1
  F  F5  1  0.98676900  0.77814200  0.65835100  1
  F  F6  1  0.68830500  0.99038300  0.57888200  1
  F  F7  1  0.69014900  0.58332700  0.98028800  1
  F  F8  1  0.12152700  0.70527600  0.95622300  1
  F  F9  1  0.47585400  0.56289000  0.70196000  1
  F  F10  1  0.80985100  0.58332700  0.48028800  1
  F  F11  1  0.02414600  0.56289000  0.20196000  1
  F  F12  1  0.97585400  0.43711000  0.79804000  1
  F  F13  1  0.19014900  0.41667300  0.51971200  1
  F  F14  1  0.52414600  0.43711000  0.29804000  1
  F  F15  1  0.87847300  0.29472400  0.04377700  1
  F  F16  1  0.30985100  0.41667300  0.01971200  1
  F  F17  1  0.31169500  0.00961700  0.42111800  1
  F  F18  1  0.01323100  0.22185800  0.34164900  1
  F  F19  1  0.62152700  0.29472400  0.54377700  1
  F  F20  1  0.18830500  0.00961700  0.92111800  1
  F  F21  1  0.48676900  0.22185800  0.84164900  1
  F  F22  1  0.13886000  0.07723500  0.65041500  1
  F  F23  1  0.36114000  0.07723500  0.15041500  1
loop_
_geom_bond_atom_site_label_1
_geom_bond_atom_site_label_2
_geom_bond_distance
_geom_bond_site_symmetry_2
F0 Mn1 1.889523 1_566
F0 Li0 2.140974 1_655
F0 Li10 2.310365 1_565
F1 Mn0 1.889523 1_665
F1 Li1 2.140974 1_555
F1 Li11 2.310365 1_565
F2 Li5 1.897453 1_555
F2 Li1 1.927354 1_555
F2 Li3 1.964232 1_555
F2 Mn1 2.262375 1_565
F3 Mn1 1.897768 1_565
F3 Li11 1.930095 1_565
F3 Li3 2.034775 1_555
F4 Mn2 1.891387 1_555
F4 Li1 1.924019 1_555
F5 Li4 1.897453 1_655
F5 Li0 1.927354 1_655
F5 Li2 1.964232 1_555
F5 Mn0 2.262375 1_665
F6 Mn0 1.897768 1_665
F6 Li10 1.930095 1_565
F6 Li2 2.034775 1_555
F7 Mn3 1.870534 1_656
F7 Li6 2.030486 1_555
F7 Li5 2.157376 1_556
F8 Mn3 1.891387 1_556
F8 Li0 1.924019 1_555
F9 Li6 1.907705 1_555
F9 Li2 1.920729 1_555
F9 Mn2 2.148383 1_555
F9 Li4 2.275471 1_555
F10 Mn2 1.870534 1_555
F10 Li7 2.030486 1_555
F10 Li4 2.157376 1_655
F11 Li7 1.907705 1_455
F11 Li3 1.920729 1_455
F11 Mn3 2.148383 1_555
F11 Li5 2.275471 1_555
F12 Li4 1.907705 1_655
F12 Li8 1.920729 1_655
F12 Mn3 2.148383 1_656
F12 Li6 2.275471 1_555
F13 Mn2 1.870534 1_555
F13 Li4 2.030486 1_555
F13 Li7 2.157376 1_455
F14 Li5 1.907705 1_555
F14 Li9 1.920729 1_555
F14 Mn2 2.148383 1_555
F14 Li7 2.275471 1_555
F15 Mn3 1.891387 1_655
F15 Li11 1.924019 1_555
F16 Mn3 1.870534 1_555
F16 Li5 2.030486 1_555
F16 Li6 2.157376 1_554
F17 Mn0 1.897768 1_555
F17 Li1 1.930095 1_545
F17 Li9 2.034775 1_555
F18 Li7 1.897453 1_455
F18 Li11 1.927354 1_455
F18 Li9 1.964232 1_555
F18 Mn0 2.262375 1_555
F19 Mn2 1.891387 1_555
F19 Li10 1.924019 1_555
F20 Mn1 1.897768 1_556
F20 Li0 1.930095 1_545
F20 Li8 2.034775 1_555
F21 Li6 1.897453 1_555
F21 Li10 1.927354 1_555
F21 Li8 1.964232 1_555
F21 Mn1 2.262375 1_556
F22 Mn0 1.889523 1_555
F22 Li10 2.140974 1_555
F22 Li0 2.310365 1_545
F23 Mn1 1.889523 1_555
F23 Li11 2.140974 1_455
F23 Li1 2.310365 1_545
