# generated using pymatgen
data_Y2ReO5
_symmetry_space_group_name_H-M   'P 1'
_cell_length_a   8.49838607
_cell_length_b   8.49838607
_cell_length_c   5.62942740
_cell_angle_alpha   90.00000000
_cell_angle_beta   90.00000000
_cell_angle_gamma   90.00000000
_symmetry_Int_Tables_number   1
_chemical_formula_structural   Y2ReO5
_chemical_formula_sum   'Y8 Re4 O20'
_cell_volume   406.57169078
_cell_formula_units_Z   4
loop_
 _symmetry_equiv_pos_site_id
 _symmetry_equiv_pos_as_xyz
  1  'x, y, z'
loop_
 _atom_site_type_symbol
 _atom_site_label
 _atom_site_symmetry_multiplicity
 _atom_site_fract_x
 _atom_site_fract_y
 _atom_site_fract_z
 _atom_site_occupancy
  Y  Y0  1  0.35952081  0.35078871  0.24960599  1
  Y  Y1  1  0.64921129  0.35952081  0.75039401  1
  Y  Y2  1  0.35078871  0.64047919  0.75039401  1
  Y  Y3  1  0.64047919  0.64921129  0.24960599  1
  Y  Y4  1  0.85952081  0.85078871  0.75039401  1
  Y  Y5  1  0.14921129  0.85952081  0.24960599  1
  Y  Y6  1  0.85078871  0.14047919  0.24960599  1
  Y  Y7  1  0.14047919  0.14921129  0.75039401  1
  Re  Re0  1  -0.00000000  0.50000000  0.54444584  1
  Re  Re1  1  -0.00000000  0.50000000  0.14742644  1
  Re  Re2  1  0.50000000  0.00000000  0.45555416  1
  Re  Re3  1  0.50000000  0.00000000  0.85257356  1
  O  O0  1  0.90625708  0.29713547  0.60404450  1
  O  O1  1  0.09600732  0.29779533  0.09660149  1
  O  O2  1  0.20286453  0.40625708  0.60404450  1
  O  O3  1  0.79779533  0.40399268  0.09660149  1
  O  O4  1  0.50000000  0.50000000  0.50000000  1
  O  O5  1  0.50000000  0.50000000  -0.00000000  1
  O  O6  1  0.20220467  0.59600732  0.09660149  1
  O  O7  1  0.79713547  0.59374292  0.60404450  1
  O  O8  1  0.90399268  0.70220467  0.09660149  1
  O  O9  1  0.09374292  0.70286453  0.60404450  1
  O  O10  1  0.40625708  0.79713547  0.39595550  1
  O  O11  1  0.59600732  0.79779533  0.90339851  1
  O  O12  1  0.70286453  0.90625708  0.39595550  1
  O  O13  1  0.29779533  0.90399268  0.90339851  1
  O  O14  1  -0.00000000  0.00000000  0.50000000  1
  O  O15  1  -0.00000000  0.00000000  -0.00000000  1
  O  O16  1  0.70220467  0.09600732  0.90339851  1
  O  O17  1  0.29713547  0.09374292  0.39595550  1
  O  O18  1  0.40399268  0.20220467  0.90339851  1
  O  O19  1  0.59374292  0.20286453  0.39595550  1
loop_
_geom_bond_atom_site_label_1
_geom_bond_atom_site_label_2
_geom_bond_distance
_geom_bond_site_symmetry_2
O0 Re0 1.928597 1_655
O0 Y1 2.394111 1_555
O0 Y6 2.444546 1_555
O0 Y7 2.494238 1_655
O1 Re1 1.923671 1_555
O1 Y7 2.352810 1_554
O1 Y0 2.441269 1_555
O1 Y6 2.621483 1_455
O2 Re0 1.928597 1_555
O2 Y7 2.394111 1_555
O2 Y0 2.444546 1_555
O2 Y2 2.494238 1_555
O3 Re1 1.923671 1_655
O3 Y1 2.352810 1_554
O3 Y6 2.441269 1_555
O3 Y3 2.621483 1_555
O4 Y2 2.240566 1_555
O4 Y1 2.240566 1_555
O4 Y3 2.240566 1_555
O4 Y0 2.240566 1_555
O5 Y3 2.237777 1_555
O5 Y0 2.237777 1_555
O5 Y1 2.237777 1_554
O5 Y2 2.237777 1_554
O6 Re1 1.923671 1_555
O6 Y2 2.352810 1_554
O6 Y5 2.441269 1_555
O6 Y0 2.621483 1_555
O7 Re0 1.928597 1_655
O7 Y4 2.394111 1_555
O7 Y3 2.444546 1_555
O7 Y1 2.494238 1_555
O8 Re1 1.923671 1_655
O8 Y4 2.352810 1_554
O8 Y3 2.441269 1_555
O8 Y5 2.621483 1_655
O9 Re0 1.928597 1_555
O9 Y2 2.394111 1_555
O9 Y5 2.444546 1_555
O9 Y4 2.494238 1_455
O10 Re2 1.928597 1_565
O10 Y5 2.394111 1_555
O10 Y2 2.444546 1_555
O10 Y3 2.494238 1_555
O11 Re3 1.923671 1_565
O11 Y3 2.352810 1_556
O11 Y4 2.441269 1_555
O11 Y2 2.621483 1_555
O12 Re2 1.928597 1_565
O12 Y3 2.394111 1_555
O12 Y4 2.444546 1_555
O12 Y6 2.494238 1_565
O13 Re3 1.923671 1_565
O13 Y5 2.352810 1_556
O13 Y2 2.441269 1_555
O13 Y7 2.621483 1_565
O14 Y5 2.240566 1_545
O14 Y4 2.240566 1_445
O14 Y6 2.240566 1_455
O14 Y7 2.240566 1_555
O15 Y5 2.237777 1_545
O15 Y7 2.237777 1_554
O15 Y4 2.237777 1_444
O15 Y6 2.237777 1_455
O16 Re3 1.923671 1_555
O16 Y6 2.352810 1_556
O16 Y1 2.441269 1_555
O16 Y4 2.621483 1_545
O17 Re2 1.928597 1_555
O17 Y0 2.394111 1_555
O17 Y7 2.444546 1_555
O17 Y5 2.494238 1_545
O18 Re3 1.923671 1_555
O18 Y0 2.352810 1_556
O18 Y7 2.441269 1_555
O18 Y1 2.621483 1_555
O19 Re2 1.928597 1_555
O19 Y6 2.394111 1_555
O19 Y1 2.444546 1_555
O19 Y0 2.494238 1_555
