# generated using pymatgen
data_LiLa5Ti8O24
_symmetry_space_group_name_H-M   'P 1'
_cell_length_a   5.50806300
_cell_length_b   9.57214691
_cell_length_c   9.60376015
_cell_angle_alpha   109.86174243
_cell_angle_beta   90.40928717
_cell_angle_gamma   90.07365378
_symmetry_Int_Tables_number   1
_chemical_formula_structural   LiLa5Ti8O24
_chemical_formula_sum   'Li1 La5 Ti8 O24'
_cell_volume   476.21263297
_cell_formula_units_Z   1
loop_
 _symmetry_equiv_pos_site_id
 _symmetry_equiv_pos_as_xyz
  1  'x, y, z'
loop_
 _atom_site_type_symbol
 _atom_site_label
 _atom_site_symmetry_multiplicity
 _atom_site_fract_x
 _atom_site_fract_y
 _atom_site_fract_z
 _atom_site_occupancy
  Li  Li0  1  0.17391300  0.11200200  0.69583900  1
  La  La0  1  0.25297800  0.86868800  0.87378900  1
  La  La1  1  0.74688200  0.62596200  0.62612500  1
  La  La2  1  0.25767300  0.37061600  0.37629000  1
  La  La3  1  0.74897100  0.12264000  0.13053700  1
  La  La4  1  0.25498400  0.61880800  0.11986600  1
  Ti  Ti0  1  0.75586600  0.23697000  0.51084200  1
  Ti  Ti1  1  0.73607300  0.00628300  0.74366600  1
  Ti  Ti2  1  0.74942800  0.50323000  0.25157700  1
  Ti  Ti3  1  0.75372700  0.74450800  0.00367300  1
  Ti  Ti4  1  0.25394600  0.48212800  0.74905600  1
  Ti  Ti5  1  0.25462900  0.99712400  0.26555500  1
  Ti  Ti6  1  0.24551900  0.76095200  0.50103000  1
  Ti  Ti7  1  0.24821300  0.25052700  0.99784600  1
  O  O0  1  0.71471600  0.85460400  0.85563100  1
  O  O1  1  0.48121500  0.62075700  0.89476800  1
  O  O2  1  0.49303600  0.88819100  0.61983300  1
  O  O3  1  0.29029500  0.64330400  0.64218900  1
  O  O4  1  0.81261700  0.13733100  0.63970100  1
  O  O5  1  0.78984600  0.63789500  0.13735900  1
  O  O6  1  0.49412400  0.11386100  0.88122800  1
  O  O7  1  0.50504700  0.38673900  0.61327600  1
  O  O8  1  0.48831600  0.87843600  0.11457300  1
  O  O9  1  0.00600000  0.63509300  0.87189700  1
  O  O10  1  0.48796300  0.61515700  0.37770800  1
  O  O11  1  0.00631100  0.87030400  0.63893000  1
  O  O12  1  0.22273500  0.84529000  0.34544600  1
  O  O13  1  0.22177800  0.36102600  0.86265900  1
  O  O14  1  0.71404400  0.35778300  0.35234300  1
  O  O15  1  0.48363600  0.39657800  0.11957000  1
  O  O16  1  0.99842300  0.60329900  0.39934200  1
  O  O17  1  0.49883600  0.12211700  0.38362900  1
  O  O18  1  0.00038000  0.89710200  0.10194300  1
  O  O19  1  0.00259500  0.10140600  0.89648000  1
  O  O20  1  0.00025200  0.40061800  0.59934000  1
  O  O21  1  0.29167500  0.14330500  0.14106200  1
  O  O22  1  0.00052100  0.13896500  0.36134800  1
  O  O23  1  0.00714000  0.37320400  0.13695200  1
loop_
_geom_bond_atom_site_label_1
_geom_bond_atom_site_label_2
_geom_bond_distance
_geom_bond_site_symmetry_2
Li0 O4 2.093907 1_455
Li0 O19 2.184544 1_555
Li0 O11 2.373106 1_545
Li0 O13 2.390735 1_555
Li0 O6 2.492904 1_555
La0 O3 2.528021 1_555
La0 O18 2.539767 1_556
La0 O0 2.551100 1_555
La0 O19 2.567890 1_565
La0 O9 2.610532 1_555
La0 O8 2.616596 1_556
La0 O11 2.629369 1_555
La0 O6 2.674634 1_565
La0 O1 2.753578 1_555
La0 O2 2.843664 1_555
La0 O0 2.968859 1_455
La0 O21 2.991630 1_566
La1 O20 2.510459 1_655
La1 O3 2.522963 1_555
La1 O0 2.531440 1_555
La1 O16 2.536349 1_555
La1 O7 2.613601 1_555
La1 O11 2.705703 1_655
La1 O9 2.725289 1_655
La1 O10 2.742201 1_555
La1 O2 2.893107 1_555
La1 O1 2.990178 1_555
La1 O14 2.990231 1_555
La1 O3 2.997507 1_655
La2 O20 2.511570 1_555
La2 O14 2.525198 1_555
La2 O21 2.557319 1_555
La2 O22 2.591614 1_555
La2 O16 2.593548 1_455
La2 O7 2.603233 1_555
La2 O10 2.656855 1_555
La2 O23 2.679860 1_555
La2 O17 2.747404 1_555
La2 O15 2.854608 1_555
La2 O3 2.971449 1_555
La2 O14 3.000681 1_455
La3 O18 2.502812 1_645
La3 O21 2.526877 1_555
La3 O14 2.527814 1_555
La3 O22 2.564746 1_655
La3 O19 2.603982 1_654
La3 O8 2.700672 1_545
La3 O6 2.743196 1_554
La3 O23 2.769111 1_655
La3 O17 2.803984 1_555
La3 O21 2.994249 1_655
La3 O0 2.996243 1_544
La3 O15 3.036139 1_555
La4 O15 2.472662 1_555
La4 O12 2.497981 1_555
La4 O1 2.508437 1_554
La4 O5 2.571379 1_455
La4 O23 2.770310 1_555
La4 O9 2.789706 1_554
La4 O10 2.791654 1_555
La4 O8 2.812314 1_555
La4 O13 2.841567 1_554
La4 O5 2.951529 1_555
La4 O18 3.067608 1_555
La4 O16 3.089888 1_455
O0 Ti3 2.047564 1_556
O0 Ti1 2.083334 1_565
O1 Ti3 1.970095 1_556
O1 Ti4 1.998768 1_555
O2 Ti1 1.882562 1_565
O2 Ti6 1.916541 1_555
O3 Ti6 2.049425 1_555
O3 Ti4 2.133480 1_555
O4 Ti0 1.826503 1_555
O4 Ti1 1.898401 1_555
O5 Ti3 1.901730 1_555
O5 Ti2 1.969252 1_555
O6 Ti1 1.919899 1_555
O6 Ti7 1.957296 1_555
O7 Ti4 1.914940 1_555
O7 Ti0 1.999454 1_555
O8 Ti5 1.990238 1_555
O8 Ti3 2.003560 1_555
O9 Ti3 1.938438 1_456
O9 Ti4 2.062817 1_555
O10 Ti2 1.958646 1_555
O10 Ti6 2.009445 1_555
O11 Ti6 1.916269 1_555
O11 Ti1 2.014517 1_465
O12 Ti5 1.868378 1_555
O12 Ti6 1.928035 1_555
O13 Ti4 1.851237 1_555
O13 Ti7 1.938133 1_555
O14 Ti2 1.957122 1_555
O14 Ti0 2.213433 1_555
O15 Ti7 1.966141 1_554
O15 Ti2 1.970515 1_555
O16 Ti2 1.964047 1_555
O16 Ti6 2.014381 1_655
O17 Ti5 1.891781 1_545
O17 Ti0 1.940152 1_555
O18 Ti3 1.977324 1_455
O18 Ti5 2.071151 1_555
O19 Ti7 1.961496 1_555
O19 Ti1 2.048351 1_455
O20 Ti4 1.958302 1_555
O20 Ti0 2.015365 1_455
O21 Ti7 1.989371 1_554
O21 Ti5 2.137424 1_545
O22 Ti5 1.955325 1_545
O22 Ti0 1.967986 1_455
O23 Ti2 1.967677 1_455
O23 Ti7 1.972363 1_554
