# generated using pymatgen
data_LiCrSiO4
_symmetry_space_group_name_H-M   'P 1'
_cell_length_a   10.78364400
_cell_length_b   5.56573800
_cell_length_c   10.11209046
_cell_angle_alpha   88.79629723
_cell_angle_beta   90.00000000
_cell_angle_gamma   90.00000000
_symmetry_Int_Tables_number   1
_chemical_formula_structural   LiCrSiO4
_chemical_formula_sum   'Li8 Cr8 Si8 O32'
_cell_volume   606.78299231
_cell_formula_units_Z   8
loop_
 _symmetry_equiv_pos_site_id
 _symmetry_equiv_pos_as_xyz
  1  'x, y, z'
loop_
 _atom_site_type_symbol
 _atom_site_label
 _atom_site_symmetry_multiplicity
 _atom_site_fract_x
 _atom_site_fract_y
 _atom_site_fract_z
 _atom_site_occupancy
  Li  Li0  1  0.15880900  0.90537600  0.82918300  1
  Li  Li1  1  0.34119100  0.90537600  0.32918300  1
  Li  Li2  1  0.61722100  0.63481500  0.59351000  1
  Li  Li3  1  0.88277900  0.63481500  0.09351000  1
  Li  Li4  1  0.11722100  0.36518500  0.90649000  1
  Li  Li5  1  0.38277900  0.36518500  0.40649000  1
  Li  Li6  1  0.65880900  0.09462400  0.67081700  1
  Li  Li7  1  0.84119100  0.09462400  0.17081700  1
  Cr  Cr0  1  0.87735400  0.84922900  0.51582900  1
  Cr  Cr1  1  0.62264600  0.84922900  0.01582900  1
  Cr  Cr2  1  0.40874300  0.66012400  0.76791600  1
  Cr  Cr3  1  0.09125700  0.66012400  0.26791600  1
  Cr  Cr4  1  0.90874300  0.33987600  0.73208400  1
  Cr  Cr5  1  0.59125700  0.33987600  0.23208400  1
  Cr  Cr6  1  0.37735400  0.15077100  0.98417100  1
  Cr  Cr7  1  0.12264600  0.15077100  0.48417100  1
  Si  Si0  1  0.89732300  0.88840100  0.84055900  1
  Si  Si1  1  0.60267700  0.88840100  0.34055900  1
  Si  Si2  1  0.14325900  0.59600400  0.58257800  1
  Si  Si3  1  0.35674100  0.59600400  0.08257800  1
  Si  Si4  1  0.64325900  0.40399600  0.91742200  1
  Si  Si5  1  0.85674100  0.40399600  0.41742200  1
  Si  Si6  1  0.39732300  0.11159900  0.65944100  1
  Si  Si7  1  0.10267700  0.11159900  0.15944100  1
  O  O0  1  0.79897800  0.88373700  0.96323100  1
  O  O1  1  0.49719300  0.88890400  0.64224500  1
  O  O2  1  0.70102200  0.88373700  0.46323100  1
  O  O3  1  0.00280700  0.88890400  0.14224500  1
  O  O4  1  0.83560300  0.98144000  0.69339200  1
  O  O5  1  0.05860600  0.83982400  0.56663300  1
  O  O6  1  0.66439700  0.98144000  0.19339200  1
  O  O7  1  0.44139400  0.83982400  0.06663300  1
  O  O8  1  0.24831700  0.65323700  0.68640200  1
  O  O9  1  0.97206300  0.63131500  0.83024600  1
  O  O10  1  0.25168300  0.65323700  0.18640200  1
  O  O11  1  0.52793700  0.63131500  0.33024600  1
  O  O12  1  0.57079900  0.64881500  0.86307600  1
  O  O13  1  0.32016900  0.49949300  0.93112700  1
  O  O14  1  0.92920100  0.64881500  0.36307600  1
  O  O15  1  0.17983100  0.49949300  0.43112700  1
  O  O16  1  0.82016900  0.50050700  0.56887300  1
  O  O17  1  0.07079900  0.35118500  0.63692400  1
  O  O18  1  0.67983100  0.50050700  0.06887300  1
  O  O19  1  0.42920100  0.35118500  0.13692400  1
  O  O20  1  0.47206300  0.36868500  0.66975400  1
  O  O21  1  0.74831700  0.34676300  0.81359800  1
  O  O22  1  0.02793700  0.36868500  0.16975400  1
  O  O23  1  0.75168300  0.34676300  0.31359800  1
  O  O24  1  0.55860600  0.16017600  0.93336700  1
  O  O25  1  0.33560300  0.01856000  0.80660800  1
  O  O26  1  0.94139400  0.16017600  0.43336700  1
  O  O27  1  0.16439700  0.01856000  0.30660800  1
  O  O28  1  0.99719300  0.11109600  0.85775500  1
  O  O29  1  0.29897800  0.11626300  0.53676900  1
  O  O30  1  0.50280700  0.11109600  0.35775500  1
  O  O31  1  0.20102200  0.11626300  0.03676900  1
loop_
_geom_bond_atom_site_label_1
_geom_bond_atom_site_label_2
_geom_bond_distance
_geom_bond_site_symmetry_2
Li0 O25 2.019304 1_565
Li0 O28 2.108494 1_465
Li0 O8 2.251831 1_555
Li0 O31 2.468753 1_566
Li0 O9 2.526168 1_455
Li1 O27 2.019304 1_565
Li1 O30 2.108494 1_565
Li1 O10 2.251831 1_555
Li1 O29 2.468753 1_565
Li1 O11 2.526168 1_555
Li2 O1 1.986807 1_555
Li2 O2 2.096404 1_555
Li2 O20 2.278308 1_555
Li2 O16 2.327724 1_555
Li3 O3 1.986807 1_655
Li3 O0 2.096404 1_554
Li3 O22 2.278308 1_655
Li3 O18 2.327724 1_555
Li4 O28 1.986807 1_455
Li4 O31 2.096404 1_556
Li4 O9 2.278308 1_455
Li4 O13 2.327724 1_555
Li5 O30 1.986807 1_555
Li5 O29 2.096404 1_555
Li5 O11 2.278308 1_555
Li5 O15 2.327724 1_555
Li6 O4 2.019304 1_545
Li6 O1 2.108494 1_545
Li6 O21 2.251831 1_555
Li6 O2 2.468753 1_545
Li6 O20 2.526168 1_555
Li7 O6 2.019304 1_545
Li7 O3 2.108494 1_645
Li7 O23 2.251831 1_555
Li7 O0 2.468753 1_544
Li7 O22 2.526168 1_655
Cr0 O2 1.982724 1_555
Cr0 O14 2.003788 1_555
Cr0 O4 2.005900 1_555
Cr0 O5 2.021343 1_655
Cr0 O26 2.026512 1_565
Cr0 O16 2.095547 1_555
Cr1 O0 1.982724 1_554
Cr1 O12 2.003788 1_554
Cr1 O6 2.005900 1_555
Cr1 O7 2.021343 1_555
Cr1 O24 2.026512 1_564
Cr1 O18 2.095547 1_555
Cr2 O8 1.917042 1_555
Cr2 O12 1.995324 1_555
Cr2 O1 2.019422 1_555
Cr2 O20 2.037232 1_555
Cr2 O13 2.091278 1_555
Cr2 O25 2.188108 1_565
Cr3 O10 1.917042 1_555
Cr3 O14 1.995324 1_455
Cr3 O3 2.019422 1_555
Cr3 O22 2.037232 1_555
Cr3 O15 2.091278 1_555
Cr3 O27 2.188108 1_565
Cr4 O21 1.917042 1_555
Cr4 O17 1.995324 1_655
Cr4 O28 2.019422 1_555
Cr4 O9 2.037232 1_555
Cr4 O16 2.091278 1_555
Cr4 O4 2.188108 1_545
Cr5 O23 1.917042 1_555
Cr5 O19 1.995324 1_555
Cr5 O30 2.019422 1_555
Cr5 O11 2.037232 1_555
Cr5 O18 2.091278 1_555
Cr5 O6 2.188108 1_545
Cr6 O31 1.982724 1_556
Cr6 O19 2.003788 1_556
Cr6 O25 2.005900 1_555
Cr6 O24 2.021343 1_555
Cr6 O7 2.026512 1_546
Cr6 O13 2.095547 1_555
Cr7 O29 1.982724 1_555
Cr7 O17 2.003788 1_555
Cr7 O27 2.005900 1_555
Cr7 O26 2.021343 1_455
Cr7 O5 2.026512 1_545
Cr7 O15 2.095547 1_555
O0 Si0 1.631804 1_555
O1 Si6 1.653906 1_565
O2 Si1 1.631804 1_555
O3 Si7 1.653906 1_565
O4 Si0 1.700996 1_555
O5 Si2 1.640636 1_555
O6 Si1 1.700996 1_555
O7 Si3 1.640636 1_555
O8 Si2 1.581532 1_555
O9 Si0 1.647462 1_555
O10 Si3 1.581532 1_555
O11 Si1 1.647462 1_555
O12 Si4 1.654624 1_555
O13 Si3 1.680501 1_556
O14 Si5 1.654624 1_555
O15 Si2 1.680501 1_555
O16 Si5 1.680501 1_555
O17 Si2 1.654624 1_555
O18 Si4 1.680501 1_554
O19 Si3 1.654624 1_555
O20 Si6 1.647462 1_555
O21 Si4 1.581532 1_555
O22 Si7 1.647462 1_555
O23 Si5 1.581532 1_555
O24 Si4 1.640636 1_555
O25 Si6 1.700996 1_555
O26 Si5 1.640636 1_555
O27 Si7 1.700996 1_555
O28 Si0 1.653906 1_545
O29 Si6 1.631804 1_555
O30 Si1 1.653906 1_545
O31 Si7 1.631804 1_555
