# generated using pymatgen
data_Li4FeSb(WO6)2
_symmetry_space_group_name_H-M   'P 1'
_cell_length_a   5.17146353
_cell_length_b   7.52267089
_cell_length_c   10.90944924
_cell_angle_alpha   85.89804114
_cell_angle_beta   90.08114248
_cell_angle_gamma   90.01573060
_symmetry_Int_Tables_number   1
_chemical_formula_structural   Li4FeSb(WO6)2
_chemical_formula_sum   'Li8 Fe2 Sb2 W4 O24'
_cell_volume   423.32505093
_cell_formula_units_Z   2
loop_
 _symmetry_equiv_pos_site_id
 _symmetry_equiv_pos_as_xyz
  1  'x, y, z'
loop_
 _atom_site_type_symbol
 _atom_site_label
 _atom_site_symmetry_multiplicity
 _atom_site_fract_x
 _atom_site_fract_y
 _atom_site_fract_z
 _atom_site_occupancy
  Li  Li0  1  0.99761700  0.30417200  0.78156100  1
  Li  Li1  1  0.99763000  0.30427700  0.28161300  1
  Li  Li2  1  0.50294700  0.76860200  0.54078300  1
  Li  Li3  1  0.50295500  0.76862200  0.04080600  1
  Li  Li4  1  0.00296900  0.74574200  0.75721900  1
  Li  Li5  1  0.00297200  0.74573000  0.25724800  1
  Li  Li6  1  0.49615800  0.30150700  0.04074500  1
  Li  Li7  1  0.49614800  0.30151900  0.54075200  1
  Fe  Fe0  1  0.50127200  0.50213900  0.75510700  1
  Fe  Fe1  1  0.50130200  0.50215000  0.25510900  1
  Sb  Sb0  1  0.99819800  0.00283300  0.00053300  1
  Sb  Sb1  1  0.99821300  0.00284100  0.50054400  1
  W  W0  1  0.00227000  0.50121600  0.00050100  1
  W  W1  1  0.49716400  0.00149800  0.25207000  1
  W  W2  1  0.00228800  0.50121500  0.50044600  1
  W  W3  1  0.49716800  0.00150500  0.75206200  1
  O  O0  1  0.29732100  0.43405500  0.40448000  1
  O  O1  1  0.29738900  0.43403700  0.90450400  1
  O  O2  1  0.12704300  0.75089900  0.49508600  1
  O  O3  1  0.12704900  0.75090700  0.99508600  1
  O  O4  1  0.31833600  0.06248300  0.59143000  1
  O  O5  1  0.31832100  0.06244500  0.09142800  1
  O  O6  1  0.19372900  0.43775700  0.64683300  1
  O  O7  1  0.19369500  0.43777700  0.14683100  1
  O  O8  1  0.80251100  0.92471500  0.65214600  1
  O  O9  1  0.80253400  0.92471800  0.15212800  1
  O  O10  1  0.38327400  0.75874000  0.74087600  1
  O  O11  1  0.38326500  0.75873000  0.24088800  1
  O  O12  1  0.62218600  0.23666700  0.74290900  1
  O  O13  1  0.62216800  0.23664300  0.24291300  1
  O  O14  1  0.18455400  0.06185600  0.83946300  1
  O  O15  1  0.18455300  0.06184500  0.33946500  1
  O  O16  1  0.82336200  0.54823700  0.84398000  1
  O  O17  1  0.82340600  0.54820500  0.34397200  1
  O  O18  1  0.68599200  0.92937600  0.90224900  1
  O  O19  1  0.68605600  0.92936500  0.40223900  1
  O  O20  1  0.86642500  0.24905100  0.99358200  1
  O  O21  1  0.86643000  0.24905800  0.49356600  1
  O  O22  1  0.69657700  0.54962800  0.08963400  1
  O  O23  1  0.69655400  0.54964000  0.58961900  1
loop_
_geom_bond_atom_site_label_1
_geom_bond_atom_site_label_2
_geom_bond_distance
_geom_bond_site_symmetry_2
Li0 O6 1.997779 1_655
Li0 O12 2.057423 1_555
Li0 O14 2.119183 1_655
Li0 O16 2.197331 1_555
Li0 O1 2.310273 1_655
Li0 O20 2.418561 1_555
Li1 O7 1.997780 1_655
Li1 O13 2.057944 1_555
Li1 O15 2.119754 1_655
Li1 O17 2.196139 1_555
Li1 O0 2.309183 1_655
Li1 O21 2.417948 1_555
Li2 O23 1.968085 1_555
Li2 O2 2.012936 1_555
Li2 O19 2.094191 1_555
Li2 O10 2.265883 1_555
Li2 O8 2.335155 1_555
Li2 O4 2.506326 1_565
Li3 O22 1.968303 1_555
Li3 O3 2.013017 1_554
Li3 O18 2.094083 1_554
Li3 O11 2.265784 1_555
Li3 O9 2.334889 1_555
Li3 O5 2.505902 1_565
Li4 O16 1.940788 1_455
Li4 O10 1.976811 1_555
Li4 O8 1.994474 1_455
Li5 O17 1.940621 1_455
Li5 O11 1.976767 1_555
Li5 O9 1.994761 1_455
Li6 O1 2.010963 1_554
Li6 O20 2.029593 1_554
Li6 O5 2.060096 1_555
Li6 O22 2.232140 1_555
Li6 O7 2.238902 1_555
Li6 O13 2.317176 1_555
Li7 O0 2.011374 1_555
Li7 O21 2.029741 1_555
Li7 O4 2.059860 1_555
Li7 O23 2.232038 1_555
Li7 O6 2.238593 1_555
Li7 O12 2.317091 1_555
Fe0 O16 1.969259 1_555
Fe0 O1 1.978801 1_555
Fe0 O10 2.019934 1_555
Fe0 O6 2.058021 1_555
Fe0 O23 2.078378 1_555
Fe0 O12 2.106157 1_555
Fe1 O17 1.969197 1_555
Fe1 O0 1.978833 1_555
Fe1 O11 2.019844 1_555
Fe1 O7 2.058284 1_555
Fe1 O22 2.078219 1_555
Fe1 O13 2.106331 1_555
O0 W2 1.939037 1_555
O1 W0 1.939619 1_556
O2 W2 1.982766 1_555
O2 Sb1 2.014062 1_465
O3 W0 1.982834 1_556
O3 Sb0 2.013973 1_466
O4 Sb1 1.995918 1_455
O4 W3 2.004317 1_555
O5 Sb0 1.995909 1_455
O5 W1 2.004398 1_555
O6 W2 1.909234 1_555
O7 W0 1.908655 1_555
O8 Sb1 1.992588 1_565
O8 W3 2.027506 1_565
O9 Sb0 1.992407 1_565
O9 W1 2.027749 1_565
O10 W3 1.930818 1_565
O11 W1 1.930841 1_565
O12 W3 1.879302 1_555
O13 W1 1.879156 1_555
O14 W3 1.948230 1_555
O14 Sb0 2.026467 1_456
O15 W1 1.948176 1_555
O15 Sb1 2.026489 1_455
O16 W0 1.950947 1_656
O17 W2 1.950414 1_655
O18 W3 1.949635 1_565
O18 Sb0 2.034995 1_566
O19 W1 1.949657 1_565
O19 Sb1 2.034964 1_565
O20 Sb0 1.970101 1_556
O20 W0 2.029105 1_656
O21 Sb1 1.970103 1_555
O21 W2 2.029028 1_655
O22 W0 1.905963 1_655
O23 W2 1.906390 1_655
