# generated using pymatgen
data_Li3Fe(CoO2)4
_symmetry_space_group_name_H-M   'P 1'
_cell_length_a   5.85301600
_cell_length_b   5.89498201
_cell_length_c   5.95346020
_cell_angle_alpha   119.62303015
_cell_angle_beta   119.37665062
_cell_angle_gamma   90.00257565
_symmetry_Int_Tables_number   1
_chemical_formula_structural   Li3Fe(CoO2)4
_chemical_formula_sum   'Li3 Fe1 Co4 O8'
_cell_volume   147.41515432
_cell_formula_units_Z   1
loop_
 _symmetry_equiv_pos_site_id
 _symmetry_equiv_pos_as_xyz
  1  'x, y, z'
loop_
 _atom_site_type_symbol
 _atom_site_label
 _atom_site_symmetry_multiplicity
 _atom_site_fract_x
 _atom_site_fract_y
 _atom_site_fract_z
 _atom_site_occupancy
  Li  Li0  1  0.00000000  0.00000000  0.50000000  1
  Li  Li1  1  0.00000000  0.50000000  0.00000000  1
  Li  Li2  1  0.50000000  0.00000000  0.50000000  1
  Fe  Fe0  1  0.50000000  0.00000000  0.00000000  1
  Co  Co0  1  0.50000000  0.50000000  0.00000000  1
  Co  Co1  1  0.00000000  0.00000000  0.00000000  1
  Co  Co2  1  0.00000000  0.50000000  0.50000000  1
  Co  Co3  1  0.50000000  0.50000000  0.50000000  1
  O  O0  1  0.72612700  0.26119600  0.47778700  1
  O  O1  1  0.75309100  0.76289100  0.01419400  1
  O  O2  1  0.25308400  0.75428700  0.99660700  1
  O  O3  1  0.26554500  0.26696800  0.50204300  1
  O  O4  1  0.73445500  0.73303200  0.49795700  1
  O  O5  1  0.74691600  0.24571300  0.00339300  1
  O  O6  1  0.24690900  0.23710900  0.98580600  1
  O  O7  1  0.27387300  0.73880400  0.52221300  1
loop_
_geom_bond_atom_site_label_1
_geom_bond_atom_site_label_2
_geom_bond_distance
_geom_bond_site_symmetry_2
Li0 O1 2.076008 1_445
Li0 O6 2.076008 1_555
Li0 O4 2.203378 1_445
Li0 O3 2.203378 1_555
Li0 O7 2.225174 1_545
Li0 O0 2.225174 1_455
Li1 O6 2.118460 1_554
Li1 O1 2.118460 1_455
Li1 O2 2.121513 1_554
Li1 O5 2.121513 1_455
Li1 O7 2.236228 1_555
Li1 O0 2.236228 1_454
Li2 O4 2.087504 1_545
Li2 O3 2.087504 1_555
Li2 O7 2.124349 1_545
Li2 O0 2.124349 1_555
Li2 O5 2.151134 1_556
Li2 O2 2.151134 1_544
Fe0 O5 2.032078 1_555
Fe0 O2 2.032078 1_544
Fe0 O1 2.037003 1_545
Fe0 O6 2.037003 1_554
Fe0 O0 2.046970 1_555
Fe0 O7 2.046970 1_544
Co0 O2 2.082681 1_554
Co0 O5 2.082681 1_555
Co0 O6 2.085841 1_554
Co0 O1 2.085841 1_555
Co0 O3 2.131067 1_554
Co0 O4 2.131067 1_555
Co1 O6 2.070205 1_554
Co1 O1 2.070205 1_445
Co1 O2 2.072045 1_544
Co1 O5 2.072045 1_455
Co1 O4 2.148931 1_444
Co1 O3 2.148931 1_555
Co2 O0 2.043665 1_455
Co2 O7 2.043665 1_555
Co2 O3 2.073903 1_555
Co2 O4 2.073903 1_455
Co2 O2 2.122301 1_555
Co2 O5 2.122301 1_455
Co3 O0 1.933598 1_555
Co3 O7 1.933598 1_555
Co3 O4 1.950153 1_555
Co3 O3 1.950153 1_555
Co3 O1 2.197282 1_556
Co3 O6 2.197282 1_554
