# generated using pymatgen
data_Bi16O25
_symmetry_space_group_name_H-M   'P 1'
_cell_length_a   9.67173298
_cell_length_b   9.67173298
_cell_length_c   9.67173298
_cell_angle_alpha   109.73066579
_cell_angle_beta   109.73066579
_cell_angle_gamma   108.95356717
_symmetry_Int_Tables_number   1
_chemical_formula_structural   Bi16O25
_chemical_formula_sum   'Bi16 O25'
_cell_volume   696.40911020
_cell_formula_units_Z   1
loop_
 _symmetry_equiv_pos_site_id
 _symmetry_equiv_pos_as_xyz
  1  'x, y, z'
loop_
 _atom_site_type_symbol
 _atom_site_label
 _atom_site_symmetry_multiplicity
 _atom_site_fract_x
 _atom_site_fract_y
 _atom_site_fract_z
 _atom_site_occupancy
  Bi  Bi0  1  0.49494700  0.49494700  0.74833600  1
  Bi  Bi1  1  0.98310600  0.98310600  0.73892100  1
  Bi  Bi2  1  0.76304300  0.26319300  0.76009000  1
  Bi  Bi3  1  0.26319300  0.76304300  0.76009000  1
  Bi  Bi4  1  0.75581500  0.01689400  0.00000000  1
  Bi  Bi5  1  0.01689400  0.75581500  0.00000000  1
  Bi  Bi6  1  0.50505300  0.25338900  0.00000000  1
  Bi  Bi7  1  0.25338900  0.50505300  0.00000000  1
  Bi  Bi8  1  0.00295300  0.50310300  0.23991000  1
  Bi  Bi9  1  0.50310300  0.00295300  0.23991000  1
  Bi  Bi10  1  0.74661100  0.74661100  0.25166400  1
  Bi  Bi11  1  0.24418500  0.24418500  0.26107900  1
  Bi  Bi12  1  0.23695700  0.99704700  0.50015000  1
  Bi  Bi13  1  0.73680700  0.49689700  0.49985000  1
  Bi  Bi14  1  0.99704700  0.23695700  0.50015000  1
  Bi  Bi15  1  0.49689700  0.73680700  0.49985000  1
  O  O0  1  0.20204200  0.50000000  0.70204200  1
  O  O1  1  0.50000000  0.20204200  0.70204200  1
  O  O2  1  0.70799700  0.00000000  0.70799700  1
  O  O3  1  0.00000000  0.70799700  0.70799700  1
  O  O4  1  0.75376700  0.54775400  0.79958300  1
  O  O5  1  0.04581600  0.24623300  0.79398700  1
  O  O6  1  0.54775400  0.75376700  0.79958300  1
  O  O7  1  0.24623300  0.04581600  0.79398700  1
  O  O8  1  0.53378000  0.04494400  0.00000000  1
  O  O9  1  0.04494400  0.53378000  0.00000000  1
  O  O10  1  0.29623000  0.79106100  0.00000000  1
  O  O11  1  0.79106100  0.29623000  0.00000000  1
  O  O12  1  0.00000000  0.00000000  0.00000000  1
  O  O13  1  0.45224600  0.25182900  0.20601300  1
  O  O14  1  0.95418400  0.74817100  0.20041700  1
  O  O15  1  0.25182900  0.45224600  0.20601300  1
  O  O16  1  0.74817100  0.95418400  0.20041700  1
  O  O17  1  0.50000000  0.79795800  0.29795800  1
  O  O18  1  0.29200300  0.00000000  0.29200300  1
  O  O19  1  0.00000000  0.29200300  0.29200300  1
  O  O20  1  0.79795800  0.50000000  0.29795800  1
  O  O21  1  0.20893900  0.20893900  0.50516900  1
  O  O22  1  0.70377000  0.70377000  0.49483100  1
  O  O23  1  0.46622000  0.46622000  0.51116400  1
  O  O24  1  0.95505600  0.95505600  0.48883600  1
loop_
_geom_bond_atom_site_label_1
_geom_bond_atom_site_label_2
_geom_bond_distance
_geom_bond_site_symmetry_2
Bi0 O23 2.122596 1_555
Bi0 O6 2.221159 1_555
Bi0 O4 2.221159 1_555
Bi0 O21 2.660631 1_555
Bi0 O0 2.734312 1_555
Bi0 O1 2.734312 1_555
Bi1 O5 2.234295 1_665
Bi1 O7 2.234295 1_665
Bi1 O24 2.250256 1_555
Bi1 O12 2.419703 1_666
Bi1 O22 2.610924 1_555
Bi1 O2 2.640832 1_565
Bi1 O3 2.640832 1_655
Bi2 O11 2.139659 1_556
Bi2 O1 2.229646 1_555
Bi2 O2 2.256015 1_555
Bi2 O9 2.580660 1_656
Bi2 O4 2.683705 1_555
Bi2 O5 2.708584 1_655
Bi3 O10 2.139659 1_556
Bi3 O0 2.229646 1_555
Bi3 O3 2.256015 1_555
Bi3 O8 2.580660 1_566
Bi3 O6 2.683705 1_555
Bi3 O7 2.708584 1_565
Bi4 O16 2.234295 1_545
Bi4 O6 2.234295 1_544
Bi4 O8 2.250256 1_555
Bi4 O12 2.419703 1_655
Bi4 O11 2.610924 1_555
Bi4 O2 2.640832 1_554
Bi4 O19 2.640832 1_655
Bi5 O14 2.234295 1_455
Bi5 O4 2.234295 1_454
Bi5 O9 2.250256 1_555
Bi5 O12 2.419703 1_565
Bi5 O10 2.610924 1_555
Bi5 O3 2.640832 1_554
Bi5 O18 2.640832 1_565
Bi6 O8 2.122596 1_555
Bi6 O13 2.221159 1_555
Bi6 O7 2.221159 1_554
Bi6 O11 2.660631 1_555
Bi6 O20 2.734312 1_555
Bi6 O1 2.734312 1_554
Bi7 O9 2.122596 1_555
Bi7 O15 2.221159 1_555
Bi7 O5 2.221159 1_554
Bi7 O10 2.660631 1_555
Bi7 O17 2.734312 1_555
Bi7 O0 2.734312 1_554
Bi8 O11 2.139659 1_455
Bi8 O20 2.229646 1_455
Bi8 O19 2.256015 1_555
Bi8 O9 2.580660 1_555
Bi8 O14 2.683705 1_455
Bi8 O15 2.708584 1_555
Bi9 O10 2.139659 1_545
Bi9 O17 2.229646 1_545
Bi9 O18 2.256015 1_555
Bi9 O8 2.580660 1_555
Bi9 O16 2.683705 1_545
Bi9 O13 2.708584 1_555
Bi10 O24 2.122596 1_555
Bi10 O16 2.221159 1_555
Bi10 O14 2.221159 1_555
Bi10 O22 2.660631 1_555
Bi10 O20 2.734312 1_555
Bi10 O17 2.734312 1_555
Bi11 O15 2.234295 1_555
Bi11 O13 2.234295 1_555
Bi11 O23 2.250256 1_555
Bi11 O12 2.419703 1_555
Bi11 O21 2.610924 1_555
Bi11 O18 2.640832 1_555
Bi11 O19 2.640832 1_555
Bi12 O21 2.139659 1_565
Bi12 O1 2.229646 1_565
Bi12 O18 2.256015 1_565
Bi12 O24 2.580660 1_455
Bi12 O7 2.683705 1_565
Bi12 O14 2.708584 1_455
Bi13 O22 2.139659 1_555
Bi13 O20 2.229646 1_555
Bi13 O3 2.256015 1_655
Bi13 O23 2.580660 1_555
Bi13 O13 2.683705 1_555
Bi13 O4 2.708584 1_555
Bi14 O21 2.139659 1_655
Bi14 O0 2.229646 1_655
Bi14 O19 2.256015 1_655
Bi14 O24 2.580660 1_545
Bi14 O5 2.683705 1_655
Bi14 O16 2.708584 1_545
Bi15 O22 2.139659 1_555
Bi15 O17 2.229646 1_555
Bi15 O2 2.256015 1_565
Bi15 O23 2.580660 1_555
Bi15 O15 2.683705 1_555
Bi15 O6 2.708584 1_555
