# generated using pymatgen
data_LiNiO2
_symmetry_space_group_name_H-M   'P 1'
_cell_length_a   10.04798817
_cell_length_b   10.04799096
_cell_length_c   14.27011345
_cell_angle_alpha   19.21643423
_cell_angle_beta   19.21645361
_cell_angle_gamma   32.85932720
_symmetry_Int_Tables_number   1
_chemical_formula_structural   LiNiO2
_chemical_formula_sum   'Li4 Ni4 O8'
_cell_volume   137.18585169
_cell_formula_units_Z   4
loop_
 _symmetry_equiv_pos_site_id
 _symmetry_equiv_pos_as_xyz
  1  'x, y, z'
loop_
 _atom_site_type_symbol
 _atom_site_label
 _atom_site_symmetry_multiplicity
 _atom_site_fract_x
 _atom_site_fract_y
 _atom_site_fract_z
 _atom_site_occupancy
  Li  Li0  1  0.50000300  0.50000300  0.99999600  1
  Li  Li1  1  0.99999900  0.50000300  0.49999900  1
  Li  Li2  1  0.50000300  0.99999900  0.49999900  1
  Li  Li3  1  0.49999600  0.49999600  0.50000600  1
  Ni  Ni0  1  0.99999800  0.99999500  0.00000500  1
  Ni  Ni1  1  0.99999700  0.50000600  0.99999800  1
  Ni  Ni2  1  0.50000400  0.99999600  0.00000000  1
  Ni  Ni3  1  0.00000700  0.00000900  0.49998900  1
  O  O0  1  0.02810100  0.02812700  0.22175000  1
  O  O1  1  0.95788100  0.45793900  0.31318400  1
  O  O2  1  0.45795300  0.95789800  0.31316100  1
  O  O3  1  0.97189500  0.97186900  0.77825500  1
  O  O4  1  0.53108400  0.53106200  0.21888100  1
  O  O5  1  0.04211700  0.54205900  0.68681800  1
  O  O6  1  0.54204600  0.04210000  0.68684100  1
  O  O7  1  0.46891600  0.46893800  0.78111900  1
loop_
_geom_bond_atom_site_label_1
_geom_bond_atom_site_label_2
_geom_bond_distance
_geom_bond_site_symmetry_2
Li0 O6 2.036772 1_565
Li0 O5 2.036782 1_655
Li0 O2 2.036786 1_546
Li0 O1 2.036799 1_456
Li0 O0 2.089647 1_665
Li0 O3 2.089674 1_446
Li1 O0 2.147652 1_665
Li1 O3 2.147684 1_545
Li1 O7 2.161327 1_555
Li1 O4 2.161333 1_655
Li1 O6 2.257825 1_664
Li1 O2 2.257829 1_546
Li2 O0 2.147554 1_665
Li2 O3 2.147586 1_455
Li2 O7 2.161245 1_555
Li2 O4 2.161251 1_565
Li2 O5 2.257891 1_664
Li2 O1 2.257891 1_456
Li3 O1 2.037247 1_555
Li3 O2 2.037250 1_555
Li3 O6 2.037257 1_555
Li3 O5 2.037258 1_555
Li3 O0 2.087221 1_556
Li3 O3 2.087247 1_554
Ni0 O1 2.036555 1_555
Ni0 O6 2.036560 1_664
Ni0 O5 2.036565 1_664
Ni0 O2 2.036566 1_555
Ni0 O7 2.090389 1_555
Ni0 O4 2.090414 1_664
Ni1 O4 1.905322 1_556
Ni1 O7 1.905356 1_655
Ni1 O2 1.906574 1_655
Ni1 O6 1.906587 1_556
Ni1 O3 1.917471 1_555
Ni1 O0 1.917520 1_656
Ni2 O4 1.905416 1_555
Ni2 O7 1.905450 1_564
Ni2 O1 1.906516 1_564
Ni2 O5 1.906516 1_555
Ni2 O3 1.917584 1_554
Ni2 O0 1.917626 1_565
Ni3 O2 2.037467 1_545
Ni3 O1 2.037469 1_455
Ni3 O6 2.037471 1_455
Ni3 O5 2.037497 1_545
Ni3 O7 2.089437 1_554
Ni3 O4 2.089485 1_446
