# generated using pymatgen
data_VOF2
_symmetry_space_group_name_H-M   'P 1'
_cell_length_a   11.89606947
_cell_length_b   11.89606947
_cell_length_c   5.39721446
_cell_angle_alpha   78.77486494
_cell_angle_beta   78.77486494
_cell_angle_gamma   25.30341163
_symmetry_Int_Tables_number   1
_chemical_formula_structural   VOF2
_chemical_formula_sum   'V6 O6 F12'
_cell_volume   319.89176220
_cell_formula_units_Z   6
loop_
 _symmetry_equiv_pos_site_id
 _symmetry_equiv_pos_as_xyz
  1  'x, y, z'
loop_
 _atom_site_type_symbol
 _atom_site_label
 _atom_site_symmetry_multiplicity
 _atom_site_fract_x
 _atom_site_fract_y
 _atom_site_fract_z
 _atom_site_occupancy
  V  V0  1  0.14629700  0.35546300  0.73272100  1
  V  V1  1  0.30238800  0.52747300  0.61326100  1
  V  V2  1  0.47252700  0.69761200  0.38673900  1
  V  V3  1  0.64453700  0.85370300  0.26727900  1
  V  V4  1  0.97745300  0.18561700  0.88325900  1
  V  V5  1  0.81438300  0.02254700  0.11674100  1
  O  O0  1  0.04371300  0.76415000  0.81224700  1
  O  O1  1  0.23585000  0.95628700  0.18775300  1
  O  O2  1  0.38691900  0.09107700  0.47347400  1
  O  O3  1  0.78068500  0.36329900  0.64493800  1
  O  O4  1  0.63670100  0.21931500  0.35506200  1
  O  O5  1  0.90892300  0.61308100  0.52652600  1
  F  F0  1  0.02076500  0.97923500  0.00000000  1
  F  F1  1  0.11380100  0.68331900  0.31020200  1
  F  F2  1  0.33006500  0.66993500  0.50000000  1
  F  F3  1  0.34581500  0.32064100  0.67727400  1
  F  F4  1  0.57703900  0.29632200  0.84649400  1
  F  F5  1  0.70367800  0.42296100  0.15350600  1
  F  F6  1  0.31668100  0.88619900  0.68979800  1
  F  F7  1  0.43872900  0.03231900  0.96949800  1
  F  F8  1  0.66278000  0.00489700  0.14570200  1
  F  F9  1  0.67935900  0.65418500  0.32272600  1
  F  F10  1  0.96768100  0.56127100  0.03050200  1
  F  F11  1  0.99510300  0.33722000  0.85429800  1
loop_
_geom_bond_atom_site_label_1
_geom_bond_atom_site_label_2
_geom_bond_distance
_geom_bond_site_symmetry_2
O0 V1 1.665824 1_555
O0 V5 2.156570 1_466
O1 V2 1.665824 1_555
O1 V4 2.156570 1_464
O2 V3 1.689002 1_545
O2 V0 1.979706 1_555
O3 V4 1.664073 1_555
O3 V2 2.160448 1_555
O4 V5 1.664073 1_555
O4 V1 2.160448 1_555
O5 V0 1.689002 1_655
O5 V3 1.979706 1_555
F0 V4 1.981676 1_464
F0 V5 1.981676 1_465
F1 V1 1.968061 1_555
F1 V5 1.969815 1_465
F2 V1 1.970134 1_555
F2 V2 1.970134 1_555
F3 V1 1.969889 1_555
F3 V0 1.971940 1_555
F4 V1 1.957027 1_555
F4 V5 1.957978 1_556
F5 V2 1.957027 1_555
F5 V4 1.957978 1_554
F6 V2 1.968061 1_555
F6 V4 1.969815 1_465
F7 V3 1.971886 1_546
F7 V0 2.037378 1_555
F8 V5 1.970585 1_555
F8 V3 1.975732 1_545
F9 V2 1.969889 1_555
F9 V3 1.971940 1_555
F10 V0 1.971886 1_654
F10 V3 2.037378 1_555
F11 V4 1.970585 1_555
F11 V0 1.975732 1_655
