# generated using pymatgen
data_LiP4WO12
_symmetry_space_group_name_H-M   'P 1'
_cell_length_a   7.37142419
_cell_length_b   7.37142419
_cell_length_c   10.16235393
_cell_angle_alpha   66.41745143
_cell_angle_beta   66.41745143
_cell_angle_gamma   70.48252583
_symmetry_Int_Tables_number   1
_chemical_formula_structural   LiP4WO12
_chemical_formula_sum   'Li2 P8 W2 O24'
_cell_volume   453.75215820
_cell_formula_units_Z   2
loop_
 _symmetry_equiv_pos_site_id
 _symmetry_equiv_pos_as_xyz
  1  'x, y, z'
loop_
 _atom_site_type_symbol
 _atom_site_label
 _atom_site_symmetry_multiplicity
 _atom_site_fract_x
 _atom_site_fract_y
 _atom_site_fract_z
 _atom_site_occupancy
  Li  Li0  1  0.00000000  0.50000000  0.00000000  1
  Li  Li1  1  0.50000000  0.00000000  0.50000000  1
  P  P0  1  0.70854300  0.68868000  0.29906600  1
  P  P1  1  0.25982700  0.72073700  0.47717900  1
  P  P2  1  0.27926300  0.74017300  0.02282100  1
  P  P3  1  0.68868000  0.70854300  0.79906600  1
  P  P4  1  0.31132000  0.29145700  0.20093400  1
  P  P5  1  0.72073700  0.25982700  0.97717900  1
  P  P6  1  0.74017300  0.27926300  0.52282100  1
  P  P7  1  0.29145700  0.31132000  0.70093400  1
  W  W0  1  0.05704700  0.94295300  0.75000000  1
  W  W1  1  0.94295300  0.05704700  0.25000000  1
  O  O0  1  0.81099100  0.65049000  0.15216500  1
  O  O1  1  0.28801700  0.80074400  0.58258200  1
  O  O2  1  0.46904200  0.69544200  0.34544000  1
  O  O3  1  0.09349400  0.83529400  0.40901500  1
  O  O4  1  0.87728000  0.72085700  0.81861800  1
  O  O5  1  0.22293200  0.49464400  0.56177600  1
  O  O6  1  0.80074400  0.28801700  0.08258200  1
  O  O7  1  0.16470600  0.90650600  0.09098500  1
  O  O8  1  0.50535600  0.77706800  0.93822400  1
  O  O9  1  0.65049000  0.81099100  0.65216500  1
  O  O10  1  0.30455800  0.53095800  0.15456000  1
  O  O11  1  0.27914300  0.12272000  0.68138200  1
  O  O12  1  0.72085700  0.87728000  0.31861800  1
  O  O13  1  0.69544200  0.46904200  0.84544000  1
  O  O14  1  0.34951000  0.18900900  0.34783500  1
  O  O15  1  0.49464400  0.22293200  0.06177600  1
  O  O16  1  0.83529400  0.09349400  0.90901500  1
  O  O17  1  0.19925600  0.71198300  0.91741800  1
  O  O18  1  0.77706800  0.50535600  0.43822400  1
  O  O19  1  0.12272000  0.27914300  0.18138200  1
  O  O20  1  0.90650600  0.16470600  0.59098500  1
  O  O21  1  0.53095800  0.30455800  0.65456000  1
  O  O22  1  0.71198300  0.19925600  0.41741800  1
  O  O23  1  0.18900900  0.34951000  0.84783500  1
loop_
_geom_bond_atom_site_label_1
_geom_bond_atom_site_label_2
_geom_bond_distance
_geom_bond_site_symmetry_2
Li0 O23 2.044246 1_554
Li0 O0 2.044246 1_455
Li0 O6 2.191224 1_455
Li0 O17 2.191224 1_554
Li0 O4 2.194413 1_454
Li0 O19 2.194413 1_555
Li1 O9 2.044246 1_545
Li1 O14 2.044246 1_555
Li1 O1 2.191224 1_545
Li1 O22 2.191224 1_555
Li1 O11 2.194413 1_555
Li1 O12 2.194413 1_545
O0 P0 1.473206 1_555
O1 P1 1.517829 1_555
O1 W0 2.192947 1_555
O2 P1 1.600336 1_555
O2 P0 1.623488 1_555
O3 P1 1.488621 1_555
O3 W1 2.150352 1_465
O4 P3 1.516673 1_555
O4 W0 2.172404 1_655
O5 P1 1.600015 1_555
O5 P7 1.633266 1_555
O6 P5 1.517829 1_554
O6 W1 2.192947 1_555
O7 P2 1.488621 1_555
O7 W1 2.150352 1_465
O8 P2 1.600015 1_556
O8 P3 1.633266 1_555
O9 P3 1.473206 1_555
O10 P2 1.600336 1_555
O10 P4 1.623488 1_555
O11 P7 1.516673 1_555
O11 W0 2.172404 1_545
O12 P0 1.516673 1_555
O12 W1 2.172404 1_565
O13 P5 1.600336 1_555
O13 P3 1.623488 1_555
O14 P4 1.473206 1_555
O15 P5 1.600015 1_554
O15 P4 1.633266 1_555
O16 P5 1.488621 1_555
O16 W0 2.150352 1_645
O17 P2 1.517829 1_556
O17 W0 2.192947 1_555
O18 P6 1.600015 1_555
O18 P0 1.633266 1_555
O19 P4 1.516673 1_555
O19 W1 2.172404 1_455
O20 P6 1.488621 1_555
O20 W0 2.150352 1_645
O21 P6 1.600336 1_555
O21 P7 1.623488 1_555
O22 P6 1.517829 1_555
O22 W1 2.192947 1_555
O23 P7 1.473206 1_555
