# generated using pymatgen
data_LiTiP2O7
_symmetry_space_group_name_H-M   'P 1'
_cell_length_a   10.36771500
_cell_length_b   7.07354800
_cell_length_c   8.06698018
_cell_angle_alpha   66.99719346
_cell_angle_beta   90.00000000
_cell_angle_gamma   90.00000000
_symmetry_Int_Tables_number   1
_chemical_formula_structural   LiTiP2O7
_chemical_formula_sum   'Li4 Ti4 P8 O28'
_cell_volume   544.56333477
_cell_formula_units_Z   4
loop_
 _symmetry_equiv_pos_site_id
 _symmetry_equiv_pos_as_xyz
  1  'x, y, z'
loop_
 _atom_site_type_symbol
 _atom_site_label
 _atom_site_symmetry_multiplicity
 _atom_site_fract_x
 _atom_site_fract_y
 _atom_site_fract_z
 _atom_site_occupancy
  Li  Li0  1  0.83483900  0.63844500  0.92503100  1
  Li  Li1  1  0.66516100  0.63844500  0.42503100  1
  Li  Li2  1  0.33483900  0.36155500  0.57496900  1
  Li  Li3  1  0.16516100  0.36155500  0.07496900  1
  Ti  Ti0  1  0.39171100  0.72778500  0.74796200  1
  Ti  Ti1  1  0.10828900  0.72778500  0.24796200  1
  Ti  Ti2  1  0.89171100  0.27221500  0.75203800  1
  Ti  Ti3  1  0.60828900  0.27221500  0.25203800  1
  P  P0  1  0.15171300  0.97825600  0.79156000  1
  P  P1  1  0.34828700  0.97825600  0.29156000  1
  P  P2  1  0.09212900  0.63560500  0.69559700  1
  P  P3  1  0.40787100  0.63560500  0.19559700  1
  P  P4  1  0.59212900  0.36439500  0.80440300  1
  P  P5  1  0.90787100  0.36439500  0.30440300  1
  P  P6  1  0.65171300  0.02174400  0.70844000  1
  P  P7  1  0.84828700  0.02174400  0.20844000  1
  O  O0  1  0.29302200  0.01150300  0.73059400  1
  O  O1  1  0.13411800  0.82662500  0.98771700  1
  O  O2  1  0.58004300  0.82185300  0.74698900  1
  O  O3  1  0.07926900  0.87264800  0.66988000  1
  O  O4  1  0.20697800  0.01150300  0.23059400  1
  O  O5  1  0.36588200  0.82662500  0.48771700  1
  O  O6  1  0.39555300  0.63270000  0.00894600  1
  O  O7  1  0.91995700  0.82185300  0.24698900  1
  O  O8  1  0.42073100  0.87264800  0.16988000  1
  O  O9  1  0.21317000  0.54692900  0.80970900  1
  O  O10  1  0.10444700  0.63270000  0.50894600  1
  O  O11  1  0.46688500  0.46684100  0.71043500  1
  O  O12  1  0.96688500  0.53315900  0.78956500  1
  O  O13  1  0.28683000  0.54692900  0.30970900  1
  O  O14  1  0.71317000  0.45307100  0.69029100  1
  O  O15  1  0.03311500  0.46684100  0.21043500  1
  O  O16  1  0.53311500  0.53315900  0.28956500  1
  O  O17  1  0.89555300  0.36730000  0.49105400  1
  O  O18  1  0.78683000  0.45307100  0.19029100  1
  O  O19  1  0.57926900  0.12735200  0.83012000  1
  O  O20  1  0.08004300  0.17814700  0.75301100  1
  O  O21  1  0.60444700  0.36730000  0.99105400  1
  O  O22  1  0.63411800  0.17337500  0.51228300  1
  O  O23  1  0.79302200  0.98849700  0.76940600  1
  O  O24  1  0.92073100  0.12735200  0.33012000  1
  O  O25  1  0.41995700  0.17814700  0.25301100  1
  O  O26  1  0.86588200  0.17337500  0.01228300  1
  O  O27  1  0.70697800  0.98849700  0.26940600  1
loop_
_geom_bond_atom_site_label_1
_geom_bond_atom_site_label_2
_geom_bond_distance
_geom_bond_site_symmetry_2
Li0 O12 2.063768 1_555
Li0 O18 2.086417 1_556
Li0 O23 2.337876 1_555
Li1 O16 2.063768 1_555
Li1 O14 2.086417 1_555
Li1 O27 2.337876 1_555
Li2 O11 2.063768 1_555
Li2 O13 2.086417 1_555
Li2 O0 2.337876 1_555
Li3 O15 2.063768 1_555
Li3 O9 2.086417 1_554
Li3 O4 2.337876 1_555
O0 P0 1.534003 1_545
O0 Ti0 2.207802 1_545
O1 P0 1.536614 1_555
O1 Ti1 1.954689 1_556
O2 P6 1.518028 1_565
O2 Ti0 2.061861 1_555
O3 P2 1.612573 1_555
O3 P0 1.630574 1_555
O4 P1 1.534003 1_545
O4 Ti1 2.207802 1_545
O5 P1 1.536614 1_555
O5 Ti0 1.954689 1_555
O6 P3 1.519235 1_555
O6 Ti0 1.944162 1_554
O7 P7 1.518028 1_565
O7 Ti1 2.061861 1_655
O8 P3 1.612573 1_555
O8 P1 1.630574 1_555
O9 P2 1.537655 1_555
O9 Ti0 2.193880 1_555
O10 P2 1.519235 1_555
O10 Ti1 1.944162 1_555
O11 P4 1.535095 1_555
O11 Ti0 2.131378 1_555
O12 P2 1.535095 1_655
O12 Ti2 2.131378 1_555
O13 P3 1.537655 1_555
O13 Ti1 2.193880 1_555
O14 P4 1.537655 1_555
O14 Ti2 2.193880 1_555
O15 P5 1.535095 1_455
O15 Ti1 2.131378 1_555
O16 P3 1.535095 1_555
O16 Ti3 2.131378 1_555
O17 P5 1.519235 1_555
O17 Ti2 1.944162 1_555
O18 P5 1.537655 1_555
O18 Ti3 2.193880 1_555
O19 P4 1.612573 1_555
O19 P6 1.630574 1_555
O20 P0 1.518028 1_545
O20 Ti2 2.061861 1_455
O21 P4 1.519235 1_555
O21 Ti3 1.944162 1_556
O22 P6 1.536614 1_555
O22 Ti3 1.954689 1_555
O23 P6 1.534003 1_565
O23 Ti2 2.207802 1_565
O24 P5 1.612573 1_555
O24 P7 1.630574 1_555
O25 P1 1.518028 1_545
O25 Ti3 2.061861 1_555
O26 P7 1.536614 1_555
O26 Ti2 1.954689 1_554
O27 P7 1.534003 1_565
O27 Ti3 2.207802 1_565
