# generated using pymatgen
data_Li2MnO2F
_symmetry_space_group_name_H-M   'P 1'
_cell_length_a   5.21230502
_cell_length_b   5.21230558
_cell_length_c   9.37023050
_cell_angle_alpha   79.50268171
_cell_angle_beta   100.49736819
_cell_angle_gamma   68.78359478
_symmetry_Int_Tables_number   1
_chemical_formula_structural   Li2MnO2F
_chemical_formula_sum   'Li8 Mn4 O8 F4'
_cell_volume   224.63309019
_cell_formula_units_Z   4
loop_
 _symmetry_equiv_pos_site_id
 _symmetry_equiv_pos_as_xyz
  1  'x, y, z'
loop_
 _atom_site_type_symbol
 _atom_site_label
 _atom_site_symmetry_multiplicity
 _atom_site_fract_x
 _atom_site_fract_y
 _atom_site_fract_z
 _atom_site_occupancy
  Li  Li0  1  0.10869300  0.64842100  0.72781400  1
  Li  Li1  1  0.35157900  0.89130700  0.22781400  1
  Li  Li2  1  0.06986400  0.21354300  0.61030500  1
  Li  Li3  1  0.20777300  0.04658800  0.91051900  1
  Li  Li4  1  0.78645800  0.93013600  0.11030500  1
  Li  Li5  1  0.95341300  0.79222600  0.41051900  1
  Li  Li6  1  0.62936600  0.12841600  0.74405100  1
  Li  Li7  1  0.87158500  0.37063500  0.24405100  1
  Mn  Mn0  1  0.70734700  0.54242100  0.91467900  1
  Mn  Mn1  1  0.54257300  0.70393600  0.59013500  1
  Mn  Mn2  1  0.45757200  0.29265300  0.41467700  1
  Mn  Mn3  1  0.29605500  0.45743300  0.09014900  1
  O  O0  1  0.38444500  0.84703600  0.75830300  1
  O  O1  1  0.74073800  0.95229800  0.57203700  1
  O  O2  1  0.32855500  0.46813300  0.57305400  1
  O  O3  1  0.15296600  0.61555400  0.25830300  1
  O  O4  1  0.87071400  0.39853900  0.75760800  1
  O  O5  1  0.04770200  0.25926300  0.07203600  1
  O  O6  1  0.53186900  0.67144600  0.07305400  1
  O  O7  1  0.60146200  0.12928500  0.25760800  1
  F  F0  1  0.47121100  0.25941400  0.92224300  1
  F  F1  1  0.96043400  0.81296400  0.91924700  1
  F  F2  1  0.74058800  0.52879000  0.42224200  1
  F  F3  1  0.18703600  0.03956500  0.41924600  1
loop_
_geom_bond_atom_site_label_1
_geom_bond_atom_site_label_2
_geom_bond_distance
_geom_bond_site_symmetry_2
Li0 O0 2.062593 1_555
Li0 O1 2.063128 1_455
Li0 O4 2.115660 1_455
Li0 O2 2.149859 1_555
Li1 O3 2.062589 1_555
Li1 O5 2.063135 1_565
Li1 O7 2.115659 1_565
Li1 O6 2.149860 1_555
Li2 O4 2.048170 1_455
Li2 O0 2.049418 1_545
Li2 O2 2.235770 1_555
Li2 O1 2.563250 1_445
Li3 O0 2.071254 1_545
Li3 O4 2.072948 1_455
Li3 O6 2.140853 1_546
Li3 O5 2.148838 1_556
Li4 O7 2.048167 1_565
Li4 O3 2.049423 1_655
Li4 O6 2.235761 1_555
Li4 O5 2.563251 1_665
Li5 O3 2.071257 1_655
Li5 O7 2.072948 1_565
Li5 O2 2.140848 1_655
Li5 O1 2.148848 1_555
Li6 O2 2.049977 1_555
Li6 O1 2.066879 1_545
Li6 O4 2.206787 1_555
Li6 O0 2.268145 1_545
Li7 O6 2.049974 1_555
Li7 O5 2.066885 1_655
Li7 O7 2.206796 1_555
Li7 O3 2.268141 1_655
Mn0 O0 1.954531 1_555
Mn0 O4 1.962228 1_555
Mn0 O5 1.964278 1_656
Mn0 O6 1.975900 1_556
Mn1 O1 1.929530 1_555
Mn1 O2 1.944126 1_555
Mn1 O4 2.015701 1_555
Mn1 O0 2.043351 1_555
Mn2 O3 1.954503 1_555
Mn2 O7 1.962228 1_555
Mn2 O1 1.964302 1_545
Mn2 O2 1.975909 1_555
Mn3 O5 1.929519 1_555
Mn3 O6 1.944167 1_555
Mn3 O7 2.015672 1_555
Mn3 O3 2.043196 1_555
F0 Li3 2.054270 1_555
F0 Li6 2.107899 1_555
F0 Li4 2.133694 1_546
F0 Mn3 2.192536 1_556
F0 Mn0 2.236892 1_555
F0 Li0 2.372207 1_555
F1 Li3 2.071225 1_665
F1 Li6 2.075294 1_565
F1 Mn3 2.147174 1_656
F1 Li4 2.233705 1_556
F1 Mn0 2.253527 1_555
F1 Li0 2.266345 1_655
F2 Li5 2.054256 1_555
F2 Li7 2.107889 1_555
F2 Li2 2.133695 1_655
F2 Mn1 2.192400 1_555
F2 Mn2 2.236937 1_555
F2 Li1 2.372205 1_555
F3 Li5 2.071221 1_445
F3 Li7 2.075292 1_455
F3 Mn1 2.147149 1_545
F3 Li2 2.233718 1_555
F3 Mn2 2.253501 1_555
F3 Li1 2.266334 1_545
