# generated using pymatgen
data_H7CSN3O4
_symmetry_space_group_name_H-M   'P 1'
_cell_length_a   5.11972500
_cell_length_b   8.20377500
_cell_length_c   16.75263546
_cell_angle_alpha   61.66492973
_cell_angle_beta   90.00000000
_cell_angle_gamma   90.00000000
_symmetry_Int_Tables_number   1
_chemical_formula_structural   H7CSN3O4
_chemical_formula_sum   'H28 C4 S4 N12 O16'
_cell_volume   619.32479056
_cell_formula_units_Z   4
loop_
 _symmetry_equiv_pos_site_id
 _symmetry_equiv_pos_as_xyz
  1  'x, y, z'
loop_
 _atom_site_type_symbol
 _atom_site_label
 _atom_site_symmetry_multiplicity
 _atom_site_fract_x
 _atom_site_fract_y
 _atom_site_fract_z
 _atom_site_occupancy
  H  H0  1  0.83632200  0.09334500  0.20771600  1
  H  H1  1  0.66367800  0.09334500  0.70771600  1
  H  H2  1  0.16367800  0.90665500  0.79228400  1
  H  H3  1  0.33632200  0.90665500  0.29228400  1
  H  H4  1  0.78953400  0.58829200  0.04969600  1
  H  H5  1  0.71046600  0.58829200  0.54969600  1
  H  H6  1  0.21046600  0.41170800  0.95030400  1
  H  H7  1  0.28953400  0.41170800  0.45030400  1
  H  H8  1  0.04546900  0.42695100  0.10371300  1
  H  H9  1  0.45453100  0.42695100  0.60371300  1
  H  H10  1  0.95453100  0.57304900  0.89628700  1
  H  H11  1  0.54546900  0.57304900  0.39628700  1
  H  H12  1  0.34285400  0.69862700  0.19024200  1
  H  H13  1  0.15714600  0.69862700  0.69024200  1
  H  H14  1  0.65714600  0.30137300  0.80975800  1
  H  H15  1  0.84285400  0.30137300  0.30975800  1
  H  H16  1  0.35975700  0.49299900  0.18229900  1
  H  H17  1  0.14024300  0.49299900  0.68229900  1
  H  H18  1  0.64024300  0.50700100  0.81770100  1
  H  H19  1  0.85975700  0.50700100  0.31770100  1
  H  H20  1  0.77291100  0.85706300  0.05700000  1
  H  H21  1  0.72708900  0.85706300  0.55700000  1
  H  H22  1  0.22708900  0.14293700  0.94300000  1
  H  H23  1  0.27291100  0.14293700  0.44300000  1
  H  H24  1  0.99846900  0.90450000  0.12218900  1
  H  H25  1  0.50153100  0.90450000  0.62218900  1
  H  H26  1  0.00153100  0.09550000  0.87781100  1
  H  H27  1  0.49846900  0.09550000  0.37781100  1
  C  C0  1  0.04635700  0.65683900  0.12127900  1
  C  C1  1  0.45364300  0.65683900  0.62127900  1
  C  C2  1  0.95364300  0.34316100  0.87872100  1
  C  C3  1  0.54635700  0.34316100  0.37872100  1
  S  S0  1  0.48805800  0.14103200  0.12580600  1
  S  S1  1  0.01194200  0.14103200  0.62580600  1
  S  S2  1  0.51194200  0.85896800  0.87419400  1
  S  S3  1  0.98805800  0.85896800  0.37419400  1
  N  N0  1  0.95027100  0.54640500  0.09023400  1
  N  N1  1  0.54972900  0.54640500  0.59023400  1
  N  N2  1  0.04972900  0.45359500  0.90976600  1
  N  N3  1  0.45027100  0.45359500  0.40976600  1
  N  N4  1  0.25422300  0.60270100  0.17713300  1
  N  N5  1  0.24577700  0.60270100  0.67713300  1
  N  N6  1  0.74577700  0.39729900  0.82286700  1
  N  N7  1  0.75422300  0.39729900  0.32286700  1
  N  N8  1  0.92617700  0.81630200  0.10090000  1
  N  N9  1  0.57382300  0.81630200  0.60090000  1
  N  N10  1  0.07382300  0.18369800  0.89910000  1
  N  N11  1  0.42617700  0.18369800  0.39910000  1
  O  O0  1  0.45891400  0.18219100  0.03168100  1
  O  O1  1  0.04108600  0.18219100  0.53168100  1
  O  O2  1  0.54108600  0.81780900  0.96831900  1
  O  O3  1  0.95891400  0.81780900  0.46831900  1
  O  O4  1  0.38830600  0.28480900  0.14579700  1
  O  O5  1  0.11169400  0.28480900  0.64579700  1
  O  O6  1  0.61169400  0.71519100  0.85420300  1
  O  O7  1  0.88830600  0.71519100  0.35420300  1
  O  O8  1  0.38490700  0.95348500  0.18984600  1
  O  O9  1  0.11509300  0.95348500  0.68984600  1
  O  O10  1  0.61509300  0.04651500  0.81015400  1
  O  O11  1  0.88490700  0.04651500  0.31015400  1
  O  O12  1  0.79641800  0.12838200  0.14153500  1
  O  O13  1  0.70358200  0.12838200  0.64153500  1
  O  O14  1  0.20358200  0.87161800  0.85846500  1
  O  O15  1  0.29641800  0.87161800  0.35846500  1
loop_
_geom_bond_atom_site_label_1
_geom_bond_atom_site_label_2
_geom_bond_distance
_geom_bond_site_symmetry_2
H0 O12 1.025220 1_555
H0 O11 1.590172 1_555
H1 O13 1.025220 1_555
H1 O10 1.590172 1_555
H2 O14 1.025220 1_555
H2 O9 1.590172 1_555
H3 O15 1.025220 1_555
H3 O8 1.590172 1_555
H4 N0 1.017336 1_555
H5 N1 1.017336 1_555
H6 N2 1.017336 1_555
H7 N3 1.017336 1_555
H8 N0 1.019229 1_455
H9 N1 1.019229 1_555
H10 N2 1.019229 1_655
H11 N3 1.019229 1_555
H12 N4 1.018570 1_555
H13 N5 1.018570 1_555
H14 N6 1.018570 1_555
H15 N7 1.018570 1_555
H16 N4 1.017562 1_555
H17 N5 1.017562 1_555
H18 N6 1.017562 1_555
H19 N7 1.017562 1_555
H20 N8 1.017334 1_555
H21 N9 1.017334 1_555
H22 N10 1.017334 1_555
H23 N11 1.017334 1_555
H24 N8 1.016206 1_555
H25 N9 1.016206 1_555
H26 N10 1.016206 1_555
H27 N11 1.016206 1_555
C0 N0 1.334374 1_455
C0 N8 1.335126 1_455
C0 N4 1.345683 1_555
C1 N1 1.334374 1_555
C1 N9 1.335126 1_555
C1 N5 1.345683 1_555
C2 N2 1.334374 1_655
C2 N10 1.335126 1_655
C2 N6 1.345683 1_555
C3 N3 1.334374 1_555
C3 N11 1.335126 1_555
C3 N7 1.345683 1_555
O0 S0 1.455091 1_555
O1 S1 1.455091 1_555
O2 S2 1.455091 1_555
O3 S3 1.455091 1_555
O4 S0 1.462603 1_555
O5 S1 1.462603 1_555
O6 S2 1.462603 1_555
O7 S3 1.462603 1_555
O8 S0 1.493402 1_565
O9 S1 1.493402 1_565
O10 S2 1.493402 1_545
O11 S3 1.493402 1_545
O12 S0 1.595806 1_555
O13 S1 1.595806 1_655
O14 S2 1.595806 1_555
O15 S3 1.595806 1_455
