# generated using pymatgen
data_K2P2Pd
_symmetry_space_group_name_H-M   'P 1'
_cell_length_a   5.89100634
_cell_length_b   6.34055119
_cell_length_c   7.75570637
_cell_angle_alpha   114.12738546
_cell_angle_beta   90.00000000
_cell_angle_gamma   90.00000000
_symmetry_Int_Tables_number   1
_chemical_formula_structural   K2P2Pd
_chemical_formula_sum   'K4 P4 Pd2'
_cell_volume   264.38501713
_cell_formula_units_Z   2
loop_
 _symmetry_equiv_pos_site_id
 _symmetry_equiv_pos_as_xyz
  1  'x, y, z'
loop_
 _atom_site_type_symbol
 _atom_site_label
 _atom_site_symmetry_multiplicity
 _atom_site_fract_x
 _atom_site_fract_y
 _atom_site_fract_z
 _atom_site_occupancy
  K  K0  1  0.75000000  0.78909892  0.57819584  1
  K  K1  1  0.75000000  0.42344274  0.84688347  1
  K  K2  1  0.25000000  0.21090108  0.42180416  1
  K  K3  1  0.25000000  0.57655726  0.15311653  1
  P  P0  1  0.75000000  0.28120832  0.22190022  1
  P  P1  1  0.25000000  0.05930909  0.77809978  1
  P  P2  1  0.25000000  0.71879168  0.77809978  1
  P  P3  1  0.75000000  0.94069091  0.22190022  1
  Pd  Pd0  1  0.00000000  0.00000000  0.00000000  1
  Pd  Pd1  1  0.50000000  0.00000000  0.00000000  1
loop_
_geom_bond_atom_site_label_1
_geom_bond_atom_site_label_2
_geom_bond_distance
_geom_bond_site_symmetry_2
K0 P3 3.275855 1_555
K0 P0 3.275867 1_555
K0 Pd0 3.329082 1_666
K0 Pd1 3.329082 1_566
K0 P1 3.441434 1_565
K0 P1 3.441434 1_665
K0 P2 3.441435 1_555
K0 P2 3.441435 1_655
K1 P3 3.378928 1_556
K1 P0 3.378939 1_556
K1 P2 3.644751 1_655
K1 P2 3.644751 1_555
K1 P1 3.644755 1_555
K1 P1 3.644755 1_655
K1 Pd0 3.659808 1_666
K1 Pd1 3.659808 1_566
K1 Pd0 3.659818 1_656
K1 Pd1 3.659818 1_556
K2 P1 3.275855 1_555
K2 P2 3.275867 1_555
K2 Pd0 3.329082 1_555
K2 Pd1 3.329082 1_555
K2 P3 3.441434 1_445
K2 P3 3.441434 1_545
K2 P0 3.441435 1_555
K2 P0 3.441435 1_455
K3 P1 3.378928 1_554
K3 P2 3.378939 1_554
K3 P0 3.644751 1_455
K3 P0 3.644751 1_555
K3 P3 3.644755 1_555
K3 P3 3.644755 1_455
K3 Pd1 3.659808 1_555
K3 Pd0 3.659808 1_555
K3 Pd0 3.659818 1_565
K3 Pd1 3.659818 1_565
P0 P3 2.159068 1_545
P0 Pd0 2.408591 1_655
P0 Pd1 2.408591 1_555
P1 P2 2.159068 1_545
P1 Pd0 2.408594 1_556
P1 Pd1 2.408594 1_556
P2 Pd0 2.408591 1_566
P2 Pd1 2.408591 1_566
P3 Pd1 2.408594 1_565
P3 Pd0 2.408594 1_665
Pd0 Pd1 2.945503 1_555
Pd0 Pd1 2.945503 1_455
