# generated using pymatgen
data_Li3Ti3VO8
_symmetry_space_group_name_H-M   'P 1'
_cell_length_a   5.96781549
_cell_length_b   6.05155950
_cell_length_c   8.44712162
_cell_angle_alpha   91.22791297
_cell_angle_beta   89.99652754
_cell_angle_gamma   90.00741417
_symmetry_Int_Tables_number   1
_chemical_formula_structural   Li3Ti3VO8
_chemical_formula_sum   'Li6 Ti6 V2 O16'
_cell_volume   304.99428086
_cell_formula_units_Z   2
loop_
 _symmetry_equiv_pos_site_id
 _symmetry_equiv_pos_as_xyz
  1  'x, y, z'
loop_
 _atom_site_type_symbol
 _atom_site_label
 _atom_site_symmetry_multiplicity
 _atom_site_fract_x
 _atom_site_fract_y
 _atom_site_fract_z
 _atom_site_occupancy
  Li  Li0  1  0.49999700  0.49998400  0.00002000  1
  Li  Li1  1  0.00000300  0.00001700  0.49997700  1
  Li  Li2  1  0.74992700  0.74997100  0.25003600  1
  Li  Li3  1  0.25007300  0.25002800  0.74996200  1
  Li  Li4  1  0.25007300  0.74997100  0.25003600  1
  Li  Li5  1  0.74992700  0.25002700  0.74996200  1
  Ti  Ti0  1  0.49999900  0.99999900  0.00001900  1
  Ti  Ti1  1  0.00000300  0.50000200  0.49997800  1
  Ti  Ti2  1  0.74932000  0.25028900  0.25071700  1
  Ti  Ti3  1  0.25065900  0.74972300  0.74929500  1
  Ti  Ti4  1  0.25068100  0.25028900  0.25071700  1
  Ti  Ti5  1  0.74934300  0.74972100  0.74929900  1
  V  V0  1  0.49999200  0.49996700  0.49998400  1
  V  V1  1  0.99999800  0.00001700  0.00000700  1
  O  O0  1  0.49996500  0.01676900  0.23684700  1
  O  O1  1  0.99997400  0.51671700  0.73673500  1
  O  O2  1  0.00003500  0.48331500  0.26324200  1
  O  O3  1  0.50002800  0.98319000  0.76317200  1
  O  O4  1  0.99998500  0.01916400  0.25024000  1
  O  O5  1  0.49998300  0.51755600  0.75137900  1
  O  O6  1  0.50001100  0.48248400  0.24858300  1
  O  O7  1  0.00002200  0.98079400  0.74979300  1
  O  O8  1  0.76629600  0.26735100  0.48736200  1
  O  O9  1  0.26575200  0.76879700  0.98688900  1
  O  O10  1  0.23366900  0.26733800  0.48737000  1
  O  O11  1  0.73421500  0.76879400  0.98690400  1
  O  O12  1  0.26580000  0.23125300  0.01308000  1
  O  O13  1  0.76631200  0.73261400  0.51264700  1
  O  O14  1  0.73423600  0.23124100  0.01309100  1
  O  O15  1  0.23372100  0.73261300  0.51265600  1
loop_
_geom_bond_atom_site_label_1
_geom_bond_atom_site_label_2
_geom_bond_distance
_geom_bond_site_symmetry_2
Li0 O6 2.104576 1_555
Li0 O5 2.105266 1_554
Li0 O12 2.148796 1_555
Li0 O11 2.149272 1_554
Li0 O14 2.149303 1_555
Li0 O9 2.149682 1_554
Li1 O4 2.115216 1_455
Li1 O7 2.115918 1_545
Li1 O10 2.140016 1_555
Li1 O8 2.140520 1_455
Li1 O13 2.140524 1_445
Li1 O15 2.140919 1_545
Li2 O6 2.200759 1_555
Li2 O2 2.202869 1_655
Li2 O0 2.202900 1_565
Li2 O4 2.209067 1_565
Li2 O13 2.225196 1_555
Li2 O11 2.230040 1_554
Li3 O5 2.200920 1_555
Li3 O1 2.202991 1_455
Li3 O3 2.203061 1_545
Li3 O7 2.209226 1_545
Li3 O10 2.225021 1_555
Li3 O12 2.229905 1_556
Li4 O6 2.201131 1_555
Li4 O2 2.202294 1_555
Li4 O0 2.202325 1_565
Li4 O4 2.209472 1_465
Li4 O15 2.225250 1_555
Li4 O9 2.230147 1_554
Li5 O5 2.201345 1_555
Li5 O1 2.202493 1_555
Li5 O3 2.202538 1_545
Li5 O7 2.209684 1_645
Li5 O8 2.225072 1_555
Li5 O14 2.229980 1_556
O0 Ti0 2.000914 1_545
O0 Ti4 2.053624 1_555
O0 Ti2 2.053676 1_555
O1 Ti1 2.000306 1_655
O1 Ti3 2.056866 1_655
O1 Ti5 2.056881 1_555
O2 Ti1 2.000123 1_555
O2 Ti4 2.057025 1_555
O2 Ti2 2.057068 1_455
O3 Ti0 2.001081 1_556
O3 Ti3 2.053519 1_555
O3 Ti5 2.053547 1_555
O4 Ti4 2.047887 1_655
O4 Ti2 2.048016 1_555
O4 V1 2.114441 1_555
O5 Ti5 2.046773 1_555
O5 Ti3 2.046892 1_555
O5 V0 2.123951 1_555
O6 Ti4 2.046778 1_555
O6 Ti2 2.046953 1_555
O6 V0 2.123983 1_555
O7 Ti5 2.047596 1_455
O7 Ti3 2.047668 1_555
O7 V1 2.114296 1_466
O8 Ti1 1.982894 1_655
O8 Ti2 2.001993 1_555
O8 V0 2.124337 1_555
O9 Ti0 1.979136 1_556
O9 Ti3 2.009855 1_555
O9 V1 2.116452 1_466
O10 Ti1 1.983022 1_555
O10 Ti4 2.002058 1_555
O10 V0 2.124209 1_555
O11 Ti0 1.979259 1_556
O11 Ti5 2.009947 1_555
O11 V1 2.116327 1_566
O12 Ti0 1.979378 1_545
O12 Ti4 2.010206 1_555
O12 V1 2.116454 1_455
O13 Ti1 1.982924 1_655
O13 Ti5 2.002048 1_555
O13 V0 2.124282 1_555
O14 Ti0 1.979245 1_545
O14 Ti2 2.010117 1_555
O14 V1 2.116492 1_555
O15 Ti1 1.982789 1_555
O15 Ti3 2.001940 1_555
O15 V0 2.124325 1_555
