# generated using pymatgen
data_Na3Li5Mn5O9
_symmetry_space_group_name_H-M   'P 1'
_cell_length_a   5.89281800
_cell_length_b   5.90764971
_cell_length_c   9.04844029
_cell_angle_alpha   78.21080684
_cell_angle_beta   83.11683853
_cell_angle_gamma   60.12562716
_symmetry_Int_Tables_number   1
_chemical_formula_structural   Na3Li5Mn5O9
_chemical_formula_sum   'Na3 Li5 Mn5 O9'
_cell_volume   267.32092592
_cell_formula_units_Z   1
loop_
 _symmetry_equiv_pos_site_id
 _symmetry_equiv_pos_as_xyz
  1  'x, y, z'
loop_
 _atom_site_type_symbol
 _atom_site_label
 _atom_site_symmetry_multiplicity
 _atom_site_fract_x
 _atom_site_fract_y
 _atom_site_fract_z
 _atom_site_occupancy
  Na  Na0  1  0.07902000  0.46784000  0.43354400  1
  Na  Na1  1  0.39403100  0.77027700  0.42631100  1
  Na  Na2  1  0.72755000  0.12085900  0.44056100  1
  Li  Li0  1  0.01625100  0.92212600  0.18132200  1
  Li  Li1  1  0.38754700  0.40615000  0.65213000  1
  Li  Li2  1  0.70923800  0.73274000  0.63622600  1
  Li  Li3  1  0.06444500  0.06631500  0.62597000  1
  Li  Li4  1  0.36859600  0.61838700  0.03466000  1
  Mn  Mn0  1  0.01870500  0.68267500  0.85167600  1
  Mn  Mn1  1  0.41455000  0.17090500  0.18055300  1
  Mn  Mn2  1  0.77240400  0.52120200  0.18131700  1
  Mn  Mn3  1  0.37247000  0.02348100  0.85516900  1
  Mn  Mn4  1  0.74516500  0.30622600  0.85549600  1
  O  O0  1  0.07777000  0.16640300  0.27380200  1
  O  O1  1  0.42513000  0.49270300  0.24453100  1
  O  O2  1  0.73961600  0.83247100  0.27064900  1
  O  O3  1  0.38885400  0.07900200  0.62642300  1
  O  O4  1  0.72544700  0.39784200  0.62637600  1
  O  O5  1  0.05138800  0.73858700  0.62270700  1
  O  O6  1  0.37494300  0.33577500  0.93567900  1
  O  O7  1  0.68847300  0.64296300  0.93987400  1
  O  O8  1  0.06500000  0.95117500  0.95015500  1
loop_
_geom_bond_atom_site_label_1
_geom_bond_atom_site_label_2
_geom_bond_distance
_geom_bond_site_symmetry_2
Na0 O2 2.435190 1_455
Na0 O5 2.511366 1_555
Na0 O0 2.515527 1_555
Na0 O1 2.542857 1_555
Na0 O3 2.569755 1_555
Na0 O4 2.692338 1_455
Na1 O0 2.409584 1_565
Na1 O2 2.472344 1_555
Na1 O1 2.481638 1_555
Na1 O5 2.578862 1_555
Na1 O4 2.621332 1_555
Na1 O3 2.808334 1_565
Na2 O2 2.488933 1_545
Na2 O0 2.499852 1_655
Na2 O3 2.527878 1_555
Na2 O5 2.529389 1_645
Na2 O1 2.532451 1_555
Na2 O4 2.569745 1_555
Li0 O2 1.990134 1_455
Li0 O0 2.000382 1_565
Li0 O8 2.060484 1_554
Li0 O1 2.493289 1_555
Li1 O4 1.953873 1_555
Li1 O5 1.972077 1_555
Li1 O3 1.989433 1_555
Li1 O6 2.512026 1_555
Li2 O4 1.952723 1_555
Li2 O3 1.968603 1_565
Li2 O5 2.022342 1_655
Li3 O3 1.950617 1_555
Li3 O5 1.981815 1_545
Li3 O4 1.982445 1_455
Li4 O1 1.896725 1_555
Li4 O8 1.964740 1_554
Li4 O6 2.032682 1_554
Li4 O7 2.035695 1_554
Mn0 O5 2.031428 1_555
Mn0 O8 2.109836 1_555
Mn0 O7 2.117757 1_455
Mn0 O6 2.155143 1_555
Mn1 O2 2.055314 1_545
Mn1 O0 2.072017 1_555
Mn1 O1 2.128264 1_555
Mn1 O6 2.219961 1_554
Mn2 O0 2.053904 1_655
Mn2 O2 2.070781 1_555
Mn2 O1 2.136978 1_555
Mn2 O7 2.190276 1_554
Mn3 O3 2.026621 1_555
Mn3 O8 2.109917 1_545
Mn3 O6 2.124423 1_555
Mn3 O7 2.139232 1_545
Mn4 O4 2.034967 1_555
Mn4 O8 2.097616 1_645
Mn4 O7 2.132924 1_555
Mn4 O6 2.146959 1_555
