# generated using pymatgen
data_Co9Cu3O16
_symmetry_space_group_name_H-M   'P 1'
_cell_length_a   10.18585922
_cell_length_b   10.18585922
_cell_length_c   10.18585930
_cell_angle_alpha   33.42688653
_cell_angle_beta   33.42688653
_cell_angle_gamma   33.42688866
_symmetry_Int_Tables_number   1
_chemical_formula_structural   Co9Cu3O16
_chemical_formula_sum   'Co9 Cu3 O16'
_cell_volume   285.59136131
_cell_formula_units_Z   1
loop_
 _symmetry_equiv_pos_site_id
 _symmetry_equiv_pos_as_xyz
  1  'x, y, z'
loop_
 _atom_site_type_symbol
 _atom_site_label
 _atom_site_symmetry_multiplicity
 _atom_site_fract_x
 _atom_site_fract_y
 _atom_site_fract_z
 _atom_site_occupancy
  Co  Co0  1  0.56206200  0.06175400  0.06175400  1
  Co  Co1  1  0.99919000  0.99919000  0.99919000  1
  Co  Co2  1  0.06175400  0.06175400  0.56206200  1
  Co  Co3  1  0.06175400  0.56206200  0.06175400  1
  Co  Co4  1  0.12603900  0.12603900  0.12603900  1
  Co  Co5  1  0.81300100  0.81300100  0.81300100  1
  Co  Co6  1  0.06124100  0.56388600  0.56388600  1
  Co  Co7  1  0.56388600  0.06124100  0.56388600  1
  Co  Co8  1  0.56388600  0.56388600  0.06124100  1
  Cu  Cu0  1  0.62371500  0.62371500  0.62371500  1
  Cu  Cu1  1  0.31257200  0.31257200  0.31257200  1
  Cu  Cu2  1  0.50061400  0.50061400  0.50061400  1
  O  O0  1  0.42034700  0.42034700  0.95885300  1
  O  O1  1  0.42034700  0.95885300  0.42034700  1
  O  O2  1  0.95885300  0.42034700  0.42034700  1
  O  O3  1  0.19464300  0.19464300  0.19464300  1
  O  O4  1  0.15458000  0.70578600  0.70578600  1
  O  O5  1  0.92977700  0.92977700  0.92977700  1
  O  O6  1  0.70578600  0.70578600  0.15458000  1
  O  O7  1  0.70578600  0.15458000  0.70578600  1
  O  O8  1  0.92276100  0.92276100  0.47145000  1
  O  O9  1  0.92276100  0.47145000  0.92276100  1
  O  O10  1  0.47145000  0.92276100  0.92276100  1
  O  O11  1  0.69161000  0.69161000  0.69161000  1
  O  O12  1  0.66922300  0.19938200  0.19938200  1
  O  O13  1  0.43360800  0.43360800  0.43360800  1
  O  O14  1  0.19938200  0.66922300  0.19938200  1
  O  O15  1  0.19938200  0.19938200  0.66922300  1
loop_
_geom_bond_atom_site_label_1
_geom_bond_atom_site_label_2
_geom_bond_distance
_geom_bond_site_symmetry_2
Co0 O3 1.953829 1_555
Co0 O5 1.962294 1_544
Co0 O1 1.964190 1_545
Co0 O0 1.964190 1_554
Co0 O7 1.977831 1_554
Co0 O6 1.977831 1_545
Co1 O15 1.916626 1_665
Co1 O12 1.916627 1_566
Co1 O14 1.916627 1_656
Co1 O5 2.000728 1_555
Co2 O3 1.953829 1_555
Co2 O5 1.962294 1_445
Co2 O2 1.964190 1_455
Co2 O1 1.964190 1_545
Co2 O7 1.977831 1_455
Co2 O4 1.977831 1_545
Co3 O3 1.953829 1_555
Co3 O5 1.962294 1_454
Co3 O2 1.964190 1_455
Co3 O0 1.964190 1_554
Co3 O4 1.977831 1_554
Co3 O6 1.977831 1_455
Co4 O8 1.946682 1_445
Co4 O9 1.946682 1_454
Co4 O10 1.946682 1_544
Co4 O3 1.977409 1_555
Co5 O8 1.924835 1_555
Co5 O9 1.924835 1_555
Co5 O10 1.924835 1_555
Co5 O6 1.948536 1_556
Co5 O4 1.948536 1_655
Co5 O7 1.948536 1_565
Co6 O11 2.008386 1_455
Co6 O13 2.011132 1_555
Co6 O14 2.016526 1_555
Co6 O15 2.016526 1_555
Co6 O9 2.025782 1_455
Co6 O8 2.025782 1_455
Co7 O11 2.008386 1_545
Co7 O13 2.011132 1_555
Co7 O12 2.016526 1_555
Co7 O15 2.016526 1_555
Co7 O10 2.025782 1_545
Co7 O8 2.025782 1_545
Co8 O11 2.008386 1_554
Co8 O13 2.011132 1_555
Co8 O12 2.016526 1_555
Co8 O14 2.016526 1_555
Co8 O10 2.025782 1_554
Co8 O9 2.025782 1_554
Cu0 O0 1.947048 1_555
Cu0 O2 1.947048 1_555
Cu0 O1 1.947048 1_555
Cu0 O11 1.956973 1_555
Cu1 O15 2.022916 1_555
Cu1 O14 2.022916 1_555
Cu1 O12 2.022916 1_555
Cu1 O0 2.049136 1_554
Cu1 O2 2.049136 1_455
Cu1 O1 2.049136 1_545
Cu2 O13 1.931349 1_555
Cu2 O6 1.964154 1_555
Cu2 O4 1.964154 1_555
Cu2 O7 1.964154 1_555
