# generated using pymatgen
data_Mg(AgO2)2
_symmetry_space_group_name_H-M   'P 1'
_cell_length_a   7.22747057
_cell_length_b   7.22747057
_cell_length_c   7.22747057
_cell_angle_alpha   131.89124711
_cell_angle_beta   131.89124711
_cell_angle_gamma   70.40084458
_symmetry_Int_Tables_number   1
_chemical_formula_structural   Mg(AgO2)2
_chemical_formula_sum   'Mg2 Ag4 O8'
_cell_volume   205.01777849
_cell_formula_units_Z   2
loop_
 _symmetry_equiv_pos_site_id
 _symmetry_equiv_pos_as_xyz
  1  'x, y, z'
loop_
 _atom_site_type_symbol
 _atom_site_label
 _atom_site_symmetry_multiplicity
 _atom_site_fract_x
 _atom_site_fract_y
 _atom_site_fract_z
 _atom_site_occupancy
  Mg  Mg0  1  0.25000000  0.75000000  0.50000000  1
  Mg  Mg1  1  0.50000000  0.50000000  0.00000000  1
  Ag  Ag0  1  0.87500000  0.12500000  0.25000000  1
  Ag  Ag1  1  0.87500000  0.62500000  0.75000000  1
  Ag  Ag2  1  0.87500000  0.12500000  0.75000000  1
  Ag  Ag3  1  0.37500000  0.12500000  0.25000000  1
  O  O0  1  0.60627500  0.87170200  0.26542700  1
  O  O1  1  0.65915200  0.39372500  0.26542700  1
  O  O2  1  0.12829800  0.39372500  0.73457300  1
  O  O3  1  0.14372500  0.90915200  0.76542700  1
  O  O4  1  0.62170200  0.85627500  0.76542700  1
  O  O5  1  0.09084800  0.85627500  0.23457300  1
  O  O6  1  0.60627500  0.34084800  0.73457300  1
  O  O7  1  0.14372500  0.37829800  0.23457300  1
loop_
_geom_bond_atom_site_label_1
_geom_bond_atom_site_label_2
_geom_bond_distance
_geom_bond_site_symmetry_2
Mg0 O3 2.005350 1_555
Mg0 O4 2.005350 1_555
Mg0 O7 2.005350 1_555
Mg0 O5 2.005350 1_555
Mg1 O1 2.005350 1_555
Mg1 O2 2.005350 1_554
Mg1 O0 2.005350 1_555
Mg1 O6 2.005350 1_554
Ag0 O2 2.031920 1_655
Ag0 O5 2.031920 1_645
Ag0 O4 2.031920 1_544
Ag0 O1 2.031920 1_555
Ag1 O5 2.031920 1_656
Ag1 O4 2.031920 1_555
Ag1 O2 2.031920 1_655
Ag1 O1 2.031920 1_555
Ag2 O7 2.031920 1_656
Ag2 O6 2.031920 1_555
Ag2 O3 2.031920 1_645
Ag2 O0 2.031920 1_545
Ag3 O6 2.031920 1_555
Ag3 O7 2.031920 1_555
Ag3 O0 2.031920 1_545
Ag3 O3 2.031920 1_544
