# generated using pymatgen
data_K2CaH8(N3O)4
_symmetry_space_group_name_H-M   'P 1'
_cell_length_a   10.96504935
_cell_length_b   10.96504935
_cell_length_c   6.21654200
_cell_angle_alpha   90.00000000
_cell_angle_beta   90.00000000
_cell_angle_gamma   118.86556759
_symmetry_Int_Tables_number   1
_chemical_formula_structural   K2CaH8(N3O)4
_chemical_formula_sum   'K4 Ca2 H16 N24 O8'
_cell_volume   654.56469955
_cell_formula_units_Z   2
loop_
 _symmetry_equiv_pos_site_id
 _symmetry_equiv_pos_as_xyz
  1  'x, y, z'
loop_
 _atom_site_type_symbol
 _atom_site_label
 _atom_site_symmetry_multiplicity
 _atom_site_fract_x
 _atom_site_fract_y
 _atom_site_fract_z
 _atom_site_occupancy
  K  K0  1  0.16850500  0.83149500  0.00000000  1
  K  K1  1  0.33149500  0.66850500  0.50000000  1
  K  K2  1  0.66850500  0.33149500  0.50000000  1
  K  K3  1  0.83149500  0.16850500  0.00000000  1
  Ca  Ca0  1  0.50000000  0.50000000  0.00000000  1
  Ca  Ca1  1  0.00000000  0.00000000  0.50000000  1
  H  H0  1  0.22084800  0.39169400  0.16596600  1
  H  H1  1  0.89169400  0.72084800  0.66596600  1
  H  H2  1  0.10830600  0.27915200  0.66596600  1
  H  H3  1  0.77915200  0.60830600  0.16596600  1
  H  H4  1  0.27915200  0.10830600  0.33403400  1
  H  H5  1  0.60830600  0.77915200  0.83403400  1
  H  H6  1  0.39169400  0.22084800  0.83403400  1
  H  H7  1  0.72084800  0.89169400  0.33403400  1
  H  H8  1  0.22907100  0.51258700  0.02031600  1
  H  H9  1  0.01258700  0.72907100  0.52031600  1
  H  H10  1  0.98741300  0.27092900  0.52031600  1
  H  H11  1  0.77092900  0.48741300  0.02031600  1
  H  H12  1  0.27092900  0.98741300  0.47968400  1
  H  H13  1  0.48741300  0.77092900  0.97968400  1
  H  H14  1  0.51258700  0.22907100  0.97968400  1
  H  H15  1  0.72907100  0.01258700  0.47968400  1
  N  N0  1  0.12367000  0.55521600  0.83168000  1
  N  N1  1  0.05521600  0.62367000  0.33168000  1
  N  N2  1  0.94478400  0.37633000  0.33168000  1
  N  N3  1  0.87633000  0.44478400  0.83168000  1
  N  N4  1  0.37633000  0.94478400  0.66832000  1
  N  N5  1  0.44478400  0.87633000  0.16832000  1
  N  N6  1  0.55521600  0.12367000  0.16832000  1
  N  N7  1  0.62367000  0.05521600  0.66832000  1
  N  N8  1  0.00000000  0.50000000  0.83298900  1
  N  N9  1  0.00000000  0.50000000  0.33298900  1
  N  N10  1  0.50000000  0.00000000  0.66701100  1
  N  N11  1  0.50000000  0.00000000  0.16701100  1
  N  N12  1  0.16912700  0.09370500  0.84668000  1
  N  N13  1  0.59370500  0.66912700  0.34668000  1
  N  N14  1  0.40629500  0.33087300  0.34668000  1
  N  N15  1  0.83087300  0.90629500  0.84668000  1
  N  N16  1  0.33087300  0.40629500  0.65332000  1
  N  N17  1  0.90629500  0.83087300  0.15332000  1
  N  N18  1  0.09370500  0.16912700  0.15332000  1
  N  N19  1  0.66912700  0.59370500  0.65332000  1
  N  N20  1  0.63108000  0.63108000  0.50000000  1
  N  N21  1  0.13108000  0.13108000  0.00000000  1
  N  N22  1  0.86892000  0.86892000  0.00000000  1
  N  N23  1  0.36892000  0.36892000  0.50000000  1
  O  O0  1  0.28364100  0.48939700  0.12616400  1
  O  O1  1  0.98939700  0.78364100  0.62616400  1
  O  O2  1  0.01060300  0.21635900  0.62616400  1
  O  O3  1  0.71635900  0.51060300  0.12616400  1
  O  O4  1  0.21635900  0.01060300  0.37383600  1
  O  O5  1  0.51060300  0.71635900  0.87383600  1
  O  O6  1  0.48939700  0.28364100  0.87383600  1
  O  O7  1  0.78364100  0.98939700  0.37383600  1
loop_
_geom_bond_atom_site_label_1
_geom_bond_atom_site_label_2
_geom_bond_distance
_geom_bond_site_symmetry_2
K0 N1 2.873043 1_555
K0 N4 2.873043 1_554
K0 O4 2.922019 1_565
K0 O1 2.922019 1_454
K0 N0 3.012634 1_554
K0 N5 3.012634 1_555
K0 N12 3.025891 1_564
K0 N17 3.025891 1_455
K1 N5 2.873043 1_555
K1 N0 2.873043 1_555
K1 O0 2.922019 1_555
K1 O5 2.922019 1_555
K1 N4 3.012634 1_555
K1 N1 3.012634 1_555
K1 N16 3.025891 1_555
K1 N13 3.025891 1_555
K2 N3 2.873043 1_555
K2 N6 2.873043 1_555
K2 O6 2.922019 1_555
K2 O3 2.922019 1_555
K2 N2 3.012634 1_555
K2 N7 3.012634 1_555
K2 N14 3.025891 1_555
K2 N19 3.025891 1_555
K3 N7 2.873043 1_554
K3 N2 2.873043 1_555
K3 O2 2.922019 1_654
K3 O7 2.922019 1_545
K3 N6 3.012634 1_555
K3 N3 3.012634 1_554
K3 N18 3.025891 1_655
K3 N15 3.025891 1_544
Ca0 O3 2.447563 1_555
Ca0 O5 2.447563 1_554
Ca0 O6 2.447563 1_554
Ca0 O0 2.447563 1_555
Ca0 N13 2.701810 1_555
Ca0 N19 2.701810 1_554
Ca0 N16 2.701810 1_554
Ca0 N14 2.701810 1_555
Ca1 O7 2.447563 1_445
Ca1 O1 2.447563 1_445
Ca1 O2 2.447563 1_555
Ca1 O4 2.447563 1_555
Ca1 N18 2.701810 1_555
Ca1 N12 2.701810 1_555
Ca1 N17 2.701810 1_445
Ca1 N15 2.701810 1_445
H0 O0 0.985303 1_555
H1 O1 0.985303 1_555
H2 O2 0.985303 1_555
H3 O3 0.985303 1_555
H4 O4 0.985303 1_555
H5 O5 0.985303 1_555
H6 O6 0.985303 1_555
H7 O7 0.985303 1_555
H8 O0 1.001287 1_555
H8 N0 1.857666 1_554
H9 O1 1.001287 1_455
H9 N1 1.857666 1_555
H10 O2 1.001287 1_655
H10 N2 1.857666 1_555
H11 O3 1.001287 1_555
H11 N3 1.857666 1_554
H12 O4 1.001287 1_565
H12 N4 1.857666 1_555
H13 O5 1.001287 1_555
H13 N5 1.857666 1_556
H14 O6 1.001287 1_555
H14 N6 1.857666 1_556
H15 O7 1.001287 1_545
H15 N7 1.857666 1_555
N0 N8 1.188612 1_555
N1 N9 1.188612 1_555
N2 N9 1.188612 1_655
N3 N8 1.188612 1_655
N10 N7 1.188612 1_555
N10 N4 1.188612 1_545
N11 N5 1.188612 1_545
N11 N6 1.188612 1_555
N12 N21 1.189752 1_556
N13 N20 1.189752 1_555
N14 N23 1.189752 1_555
N15 N22 1.189752 1_556
N16 N23 1.189752 1_555
N17 N22 1.189752 1_555
N18 N21 1.189752 1_555
N19 N20 1.189752 1_555
