# generated using pymatgen
data_Li9V5(SiO8)2
_symmetry_space_group_name_H-M   'P 1'
_cell_length_a   5.10471800
_cell_length_b   5.11518572
_cell_length_c   11.31757540
_cell_angle_alpha   80.90081106
_cell_angle_beta   85.31680956
_cell_angle_gamma   80.34115030
_symmetry_Int_Tables_number   1
_chemical_formula_structural   Li9V5(SiO8)2
_chemical_formula_sum   'Li9 V5 Si2 O16'
_cell_volume   287.20304094
_cell_formula_units_Z   1
loop_
 _symmetry_equiv_pos_site_id
 _symmetry_equiv_pos_as_xyz
  1  'x, y, z'
loop_
 _atom_site_type_symbol
 _atom_site_label
 _atom_site_symmetry_multiplicity
 _atom_site_fract_x
 _atom_site_fract_y
 _atom_site_fract_z
 _atom_site_occupancy
  Li  Li0  1  0.74714600  0.92724600  0.55951100  1
  Li  Li1  1  0.24120200  0.81619100  0.67645100  1
  Li  Li2  1  0.74736900  0.68432000  0.80762000  1
  Li  Li3  1  0.25290700  0.56434700  0.94076700  1
  Li  Li4  1  0.74709300  0.43565300  0.05923300  1
  Li  Li5  1  0.25263100  0.31568000  0.19238000  1
  Li  Li6  1  0.75879800  0.18380900  0.32354900  1
  Li  Li7  1  0.25285400  0.07275400  0.44048900  1
  Li  Li8  1  0.50000000  0.50000000  0.50000000  1
  V  V0  1  0.49737700  0.26171000  0.73738700  1
  V  V1  1  0.00148800  0.13056400  0.86772900  1
  V  V2  1  0.50000000  0.00000000  0.00000000  1
  V  V3  1  0.99851200  0.86943600  0.13227100  1
  V  V4  1  0.50262300  0.73829000  0.26261300  1
  Si  Si0  1  0.99634500  0.38023800  0.61598800  1
  Si  Si1  1  0.00365500  0.61976200  0.38401200  1
  O  O0  1  0.66485500  0.56241900  0.65162300  1
  O  O1  1  0.32999500  0.18352100  0.59864500  1
  O  O2  1  0.37339100  0.92603200  0.84395400  1
  O  O3  1  0.88325500  0.08003000  0.70029800  1
  O  O4  1  0.10849900  0.45934200  0.75863500  1
  O  O5  1  0.87269700  0.80121200  0.96719900  1
  O  O6  1  0.62989000  0.33154200  0.89681900  1
  O  O7  1  0.12730300  0.19878800  0.03280100  1
  O  O8  1  0.37011000  0.66845800  0.10318100  1
  O  O9  1  0.89150100  0.54065800  0.24136500  1
  O  O10  1  0.62660900  0.07396800  0.15604600  1
  O  O11  1  0.33514500  0.43758100  0.34837700  1
  O  O12  1  0.67000500  0.81647900  0.40135500  1
  O  O13  1  0.11674500  0.91997000  0.29970200  1
  O  O14  1  0.09895500  0.67868800  0.52728600  1
  O  O15  1  0.90104500  0.32131200  0.47271400  1
loop_
_geom_bond_atom_site_label_1
_geom_bond_atom_site_label_2
_geom_bond_distance
_geom_bond_site_symmetry_2
Li0 O12 2.047126 1_555
Li0 O14 2.061126 1_655
Li0 O0 2.078943 1_555
Li0 O3 2.095036 1_565
Li0 O15 2.329029 1_565
Li0 O1 2.354152 1_565
Li1 O1 2.051499 1_565
Li1 O4 2.104985 1_555
Li1 O3 2.107162 1_465
Li1 O14 2.149198 1_555
Li1 O2 2.244505 1_555
Li1 O0 2.348420 1_555
Li2 O0 2.059370 1_555
Li2 O6 2.079223 1_555
Li2 O4 2.086406 1_655
Li2 O2 2.140756 1_555
Li2 O5 2.164997 1_555
Li2 O3 2.368446 1_565
Li3 O5 2.134285 1_455
Li3 O8 2.148579 1_556
Li3 O6 2.151936 1_555
Li3 O2 2.152267 1_555
Li3 O7 2.160972 1_556
Li3 O4 2.410810 1_555
Li4 O7 2.134285 1_655
Li4 O6 2.148579 1_554
Li4 O8 2.151936 1_555
Li4 O10 2.152267 1_555
Li4 O5 2.160972 1_554
Li4 O9 2.410810 1_555
Li5 O11 2.059370 1_555
Li5 O8 2.079223 1_555
Li5 O9 2.086406 1_455
Li5 O10 2.140756 1_555
Li5 O7 2.164997 1_555
Li5 O13 2.368446 1_545
Li6 O12 2.051499 1_545
Li6 O9 2.104985 1_555
Li6 O13 2.107162 1_645
Li6 O15 2.149198 1_555
Li6 O10 2.244505 1_555
Li6 O11 2.348420 1_555
Li7 O1 2.047126 1_555
Li7 O15 2.061126 1_455
Li7 O11 2.078943 1_555
Li7 O13 2.095036 1_545
Li7 O14 2.329029 1_545
Li7 O12 2.354152 1_545
Li8 O0 2.062538 1_555
Li8 O11 2.062538 1_555
Li8 O1 2.088487 1_555
Li8 O12 2.088487 1_555
Li8 O14 2.116613 1_555
Li8 O15 2.116613 1_555
O0 Si0 1.836509 1_555
O0 V0 1.967892 1_555
O1 Si0 1.839753 1_455
O1 V0 1.971805 1_555
O2 V1 2.027376 1_565
O2 V2 2.039516 1_566
O2 V0 2.094877 1_565
O3 Si0 1.829193 1_555
O3 V0 2.072206 1_555
O3 V1 2.101382 1_655
O4 Si0 1.879660 1_455
O4 V1 2.047570 1_555
O4 V0 2.084706 1_555
O5 V2 2.036229 1_566
O5 V1 2.046635 1_665
O5 V3 2.121755 1_556
O6 V1 2.028347 1_655
O6 V2 2.074582 1_556
O6 V0 2.079715 1_555
O7 V2 2.036229 1_555
O7 V3 2.046635 1_445
O7 V1 2.121755 1_554
O8 V3 2.028347 1_455
O8 V2 2.074582 1_565
O8 V4 2.079715 1_555
O9 Si1 1.879660 1_655
O9 V3 2.047570 1_555
O9 V4 2.084706 1_555
O10 V3 2.027376 1_545
O10 V2 2.039516 1_555
O10 V4 2.094877 1_545
O11 Si1 1.836509 1_555
O11 V4 1.967892 1_555
O12 Si1 1.839753 1_655
O12 V4 1.971805 1_555
O13 Si1 1.829193 1_555
O13 V4 2.072206 1_555
O13 V3 2.101382 1_455
O14 Si1 1.813677 1_555
O14 Si0 1.819473 1_455
O15 Si0 1.813677 1_555
O15 Si1 1.819473 1_655
