# generated using pymatgen
data_Li3MnV(PO4)3
_symmetry_space_group_name_H-M   'P 1'
_cell_length_a   8.47626184
_cell_length_b   8.47626184
_cell_length_c   8.67556347
_cell_angle_alpha   61.73388549
_cell_angle_beta   61.73388549
_cell_angle_gamma   63.47523218
_symmetry_Int_Tables_number   1
_chemical_formula_structural   Li3MnV(PO4)3
_chemical_formula_sum   'Li6 Mn2 V2 P6 O24'
_cell_volume   463.24283703
_cell_formula_units_Z   2
loop_
 _symmetry_equiv_pos_site_id
 _symmetry_equiv_pos_as_xyz
  1  'x, y, z'
loop_
 _atom_site_type_symbol
 _atom_site_label
 _atom_site_symmetry_multiplicity
 _atom_site_fract_x
 _atom_site_fract_y
 _atom_site_fract_z
 _atom_site_occupancy
  Li  Li0  1  0.74656000  0.87215600  0.90714100  1
  Li  Li1  1  0.00446000  0.49871800  0.75100500  1
  Li  Li2  1  0.87232900  0.74415300  0.40678600  1
  Li  Li3  1  0.12784400  0.25344000  0.09285900  1
  Li  Li4  1  0.50128200  0.99554000  0.24899500  1
  Li  Li5  1  0.25584700  0.12767100  0.59321400  1
  Mn  Mn0  1  0.14302800  0.63803700  0.90038800  1
  Mn  Mn1  1  0.36196300  0.85697200  0.09961200  1
  V  V0  1  0.63786500  0.14445500  0.39414800  1
  V  V1  1  0.85554500  0.36213500  0.60585200  1
  P  P0  1  0.44998000  0.24704700  0.78498900  1
  P  P1  1  0.04826600  0.95173400  0.50000000  1
  P  P2  1  0.75295300  0.55002000  0.21501100  1
  P  P3  1  0.25166500  0.45008000  0.28622800  1
  P  P4  1  0.94338600  0.05661400  0.00000000  1
  P  P5  1  0.54992000  0.74833500  0.71377200  1
  O  O0  1  0.54171200  0.80952600  0.85999200  1
  O  O1  1  0.96795000  0.89284300  0.95044100  1
  O  O2  1  0.38334400  0.67896200  0.77779500  1
  O  O3  1  0.23369300  0.94443400  0.33100100  1
  O  O4  1  0.25357900  0.38715200  0.82501700  1
  O  O5  1  0.61284800  0.74642100  0.17498300  1
  O  O6  1  0.91913100  0.54163300  0.02457300  1
  O  O7  1  0.88297300  0.98011500  0.44892200  1
  O  O8  1  0.93180100  0.24284700  0.83221400  1
  O  O9  1  0.32103800  0.61665600  0.22220500  1
  O  O10  1  0.54607200  0.91096900  0.52457600  1
  O  O11  1  0.19047400  0.45828800  0.14000800  1
  O  O12  1  0.81935900  0.52953000  0.36260000  1
  O  O13  1  0.45836700  0.08086900  0.97542700  1
  O  O14  1  0.68201300  0.38788000  0.27389900  1
  O  O15  1  0.05556600  0.76630700  0.66899900  1
  O  O16  1  0.10715700  0.03205000  0.04955900  1
  O  O17  1  0.08903100  0.45392800  0.47542400  1
  O  O18  1  0.39750300  0.25613400  0.32891600  1
  O  O19  1  0.74386600  0.60249700  0.67108400  1
  O  O20  1  0.75715300  0.06819900  0.16778600  1
  O  O21  1  0.61211900  0.31798700  0.72610100  1
  O  O22  1  0.01988500  0.11702700  0.55107800  1
  O  O23  1  0.47047000  0.18064100  0.63740000  1
loop_
_geom_bond_atom_site_label_1
_geom_bond_atom_site_label_2
_geom_bond_distance
_geom_bond_site_symmetry_2
Li0 O5 2.014647 1_556
Li0 O1 2.171933 1_555
Li0 O0 2.272816 1_555
Li0 O13 2.282556 1_565
Li0 O6 2.464629 1_556
Li0 O15 2.542664 1_655
Li1 O4 2.165858 1_555
Li1 O15 2.212610 1_555
Li1 O8 2.216828 1_455
Li1 O6 2.290225 1_456
Li1 O19 2.295877 1_455
Li1 O17 2.316764 1_555
Li2 O19 2.019984 1_555
Li2 O7 2.242089 1_555
Li2 O12 2.282781 1_555
Li2 O17 2.322249 1_655
Li2 O10 2.427073 1_555
Li2 O20 2.631498 1_565
Li3 O4 2.014647 1_554
Li3 O16 2.171933 1_555
Li3 O11 2.272816 1_555
Li3 O6 2.282556 1_455
Li3 O13 2.464629 1_554
Li3 O3 2.542664 1_545
Li4 O5 2.165858 1_555
Li4 O3 2.212610 1_555
Li4 O20 2.216828 1_565
Li4 O13 2.290225 1_564
Li4 O18 2.295877 1_565
Li4 O10 2.316764 1_555
Li5 O18 2.019984 1_555
Li5 O22 2.242089 1_555
Li5 O23 2.282781 1_555
Li5 O10 2.322249 1_545
Li5 O17 2.427073 1_555
Li5 O8 2.631498 1_455
Mn0 O2 1.905401 1_555
Mn0 O6 2.011186 1_456
Mn0 O11 2.012298 1_556
Mn0 O15 2.093777 1_555
Mn0 O1 2.114421 1_455
Mn0 O4 2.187414 1_555
Mn1 O9 1.905401 1_555
Mn1 O13 2.011186 1_564
Mn1 O0 2.012298 1_554
Mn1 O3 2.093777 1_555
Mn1 O16 2.114421 1_565
Mn1 O5 2.187414 1_555
O0 P5 1.546094 1_555
O1 P4 1.541936 1_566
O2 P5 1.528820 1_555
O3 P1 1.562135 1_555
O4 P0 1.542578 1_555
O5 P2 1.542578 1_555
O6 P2 1.592607 1_555
O7 P1 1.550242 1_655
O7 V0 2.050823 1_565
O8 P4 1.562361 1_556
O8 V1 2.008621 1_555
O9 P3 1.528820 1_555
O10 P5 1.569398 1_555
O10 V0 2.054996 1_565
O11 P3 1.546094 1_555
O12 P2 1.539849 1_555
O12 V1 1.987259 1_555
O13 P0 1.592607 1_555
O14 P2 1.514440 1_555
O14 V0 1.940839 1_555
O15 P1 1.562135 1_555
O16 P4 1.541936 1_455
O17 P3 1.569398 1_555
O17 V1 2.054996 1_455
O18 P3 1.552311 1_555
O18 V0 2.056529 1_555
O19 P5 1.552311 1_555
O19 V1 2.056529 1_555
O20 P4 1.562361 1_555
O20 V0 2.008621 1_555
O21 P0 1.514432 1_555
O21 V1 1.940847 1_555
O22 P1 1.550242 1_545
O22 V1 2.050823 1_455
O23 P0 1.539849 1_555
O23 V0 1.987259 1_555
