# generated using pymatgen
data_Al4P3(HO5)3
_symmetry_space_group_name_H-M   'P 1'
_cell_length_a   10.27629151
_cell_length_b   10.27629151
_cell_length_c   7.24541678
_cell_angle_alpha   78.52462994
_cell_angle_beta   78.52462994
_cell_angle_gamma   41.09324040
_symmetry_Int_Tables_number   1
_chemical_formula_structural   Al4P3(HO5)3
_chemical_formula_sum   'Al8 P6 H6 O30'
_cell_volume   491.42883222
_cell_formula_units_Z   2
loop_
 _symmetry_equiv_pos_site_id
 _symmetry_equiv_pos_as_xyz
  1  'x, y, z'
loop_
 _atom_site_type_symbol
 _atom_site_label
 _atom_site_symmetry_multiplicity
 _atom_site_fract_x
 _atom_site_fract_y
 _atom_site_fract_z
 _atom_site_occupancy
  Al  Al0  1  0.16026100  0.17462300  0.15175200  1
  Al  Al1  1  0.17462300  0.16026100  0.65175200  1
  Al  Al2  1  0.83973900  0.82537700  0.84824800  1
  Al  Al3  1  0.82537700  0.83973900  0.34824800  1
  Al  Al4  1  0.34660400  0.80449600  0.34073600  1
  Al  Al5  1  0.80449600  0.34660400  0.84073600  1
  Al  Al6  1  0.65339600  0.19550400  0.65926400  1
  Al  Al7  1  0.19550400  0.65339600  0.15926400  1
  P  P0  1  0.88249400  0.11750600  0.25000000  1
  P  P1  1  0.11750600  0.88249400  0.75000000  1
  P  P2  1  0.53661400  0.80103800  0.91176900  1
  P  P3  1  0.80103800  0.53661400  0.41176900  1
  P  P4  1  0.46338600  0.19896200  0.08823100  1
  P  P5  1  0.19896200  0.46338600  0.58823100  1
  H  H0  1  0.49756800  0.50243200  0.25000000  1
  H  H1  1  0.50243200  0.49756800  0.75000000  1
  H  H2  1  0.99133300  0.40910900  0.88801400  1
  H  H3  1  0.40910900  0.99133300  0.38801400  1
  H  H4  1  0.00866700  0.59089100  0.11198600  1
  H  H5  1  0.59089100  0.00866700  0.61198600  1
  O  O0  1  0.07671100  0.05212900  0.25815600  1
  O  O1  1  0.05212900  0.07671100  0.75815600  1
  O  O2  1  0.92328900  0.94787100  0.74184400  1
  O  O3  1  0.94787100  0.92328900  0.24184400  1
  O  O4  1  0.78168200  0.25939500  0.07675000  1
  O  O5  1  0.25939500  0.78168200  0.57675000  1
  O  O6  1  0.21831800  0.74060500  0.92325000  1
  O  O7  1  0.74060500  0.21831800  0.42325000  1
  O  O8  1  0.70197500  0.77428500  0.92852000  1
  O  O9  1  0.77428500  0.70197500  0.42852000  1
  O  O10  1  0.29802500  0.22571500  0.07148000  1
  O  O11  1  0.22571500  0.29802500  0.57148000  1
  O  O12  1  0.62293800  0.60155200  0.89768900  1
  O  O13  1  0.60155200  0.62293800  0.39768900  1
  O  O14  1  0.37706200  0.39844800  0.10231100  1
  O  O15  1  0.39844800  0.37706200  0.60231100  1
  O  O16  1  0.38830300  0.89621400  0.09433600  1
  O  O17  1  0.89621400  0.38830300  0.59433600  1
  O  O18  1  0.61169700  0.10378600  0.90566400  1
  O  O19  1  0.10378600  0.61169700  0.40566400  1
  O  O20  1  0.41735000  0.94618100  0.74225100  1
  O  O21  1  0.94618100  0.41735000  0.24225100  1
  O  O22  1  0.58265000  0.05381900  0.25774900  1
  O  O23  1  0.05381900  0.58265000  0.75774900  1
  O  O24  1  0.36174700  0.63825300  0.25000000  1
  O  O25  1  0.63825300  0.36174700  0.75000000  1
  O  O26  1  0.04016800  0.28046000  0.90743900  1
  O  O27  1  0.28046000  0.04016800  0.40743900  1
  O  O28  1  0.95983200  0.71954000  0.09256100  1
  O  O29  1  0.71954000  0.95983200  0.59256100  1
loop_
_geom_bond_atom_site_label_1
_geom_bond_atom_site_label_2
_geom_bond_distance
_geom_bond_site_symmetry_2
Al0 O10 1.813664 1_555
Al0 O21 1.815808 1_455
Al0 O16 1.957062 1_545
Al0 O0 1.973721 1_555
Al0 O26 1.979752 1_554
Al0 O27 2.046059 1_555
Al1 O11 1.813664 1_555
Al1 O20 1.815808 1_545
Al1 O17 1.957062 1_455
Al1 O1 1.973721 1_555
Al1 O27 1.979752 1_555
Al1 O26 2.046059 1_555
Al2 O8 1.813664 1_555
Al2 O23 1.815808 1_655
Al2 O18 1.957062 1_565
Al2 O2 1.973721 1_555
Al2 O28 1.979752 1_556
Al2 O29 2.046059 1_555
Al3 O9 1.813664 1_555
Al3 O22 1.815808 1_565
Al3 O19 1.957062 1_655
Al3 O3 1.973721 1_555
Al3 O29 1.979752 1_555
Al3 O28 2.046059 1_555
Al4 O13 1.808686 1_555
Al4 O5 1.824741 1_555
Al4 O24 1.838582 1_555
Al4 O16 1.973325 1_555
Al4 O0 1.985526 1_565
Al4 O27 2.101106 1_565
Al5 O12 1.808686 1_555
Al5 O4 1.824741 1_556
Al5 O25 1.838582 1_555
Al5 O17 1.973325 1_555
Al5 O1 1.985526 1_655
Al5 O26 2.101106 1_655
Al6 O15 1.808686 1_555
Al6 O7 1.824741 1_555
Al6 O25 1.838582 1_555
Al6 O18 1.973325 1_555
Al6 O2 1.985526 1_545
Al6 O29 2.101106 1_545
Al7 O14 1.808686 1_555
Al7 O6 1.824741 1_554
Al7 O24 1.838582 1_555
Al7 O19 1.973325 1_555
Al7 O3 1.985526 1_455
Al7 O28 2.101106 1_455
H0 O24 0.979721 1_555
H1 O25 0.979721 1_555
H2 O26 0.986655 1_655
H3 O27 0.986655 1_565
H4 O28 0.986655 1_455
H5 O29 0.986655 1_545
O0 P0 1.564692 1_455
O1 P1 1.564692 1_545
O2 P1 1.564692 1_655
O3 P0 1.564692 1_565
O4 P0 1.512390 1_555
O5 P1 1.512390 1_555
O6 P1 1.512390 1_555
O7 P0 1.512390 1_555
O8 P2 1.530538 1_555
O9 P3 1.530538 1_555
O10 P4 1.530538 1_555
O11 P5 1.530538 1_555
O12 P2 1.518528 1_555
O13 P3 1.518528 1_555
O14 P4 1.518528 1_555
O15 P5 1.518528 1_555
O16 P2 1.579544 1_554
O17 P3 1.579544 1_555
O18 P4 1.579544 1_556
O19 P5 1.579544 1_555
O20 P2 1.532970 1_555
O21 P3 1.532970 1_555
O22 P4 1.532970 1_555
O23 P5 1.532970 1_555
