# generated using pymatgen
data_Li3Fe2(PO3)7
_symmetry_space_group_name_H-M   'P 1'
_cell_length_a   6.85411600
_cell_length_b   7.13161186
_cell_length_c   19.07468092
_cell_angle_alpha   87.93083987
_cell_angle_beta   100.28473496
_cell_angle_gamma   113.81172793
_symmetry_Int_Tables_number   1
_chemical_formula_structural   Li3Fe2(PO3)7
_chemical_formula_sum   'Li6 Fe4 P14 O42'
_cell_volume   838.64353809
_cell_formula_units_Z   2
loop_
 _symmetry_equiv_pos_site_id
 _symmetry_equiv_pos_as_xyz
  1  'x, y, z'
loop_
 _atom_site_type_symbol
 _atom_site_label
 _atom_site_symmetry_multiplicity
 _atom_site_fract_x
 _atom_site_fract_y
 _atom_site_fract_z
 _atom_site_occupancy
  Li  Li0  1  0.25456300  0.79530600  0.75638300  1
  Li  Li1  1  0.44355600  0.24260500  0.57318100  1
  Li  Li2  1  0.83828000  0.85775000  0.88007800  1
  Li  Li3  1  0.16172000  0.14225000  0.11992200  1
  Li  Li4  1  0.55644400  0.75739500  0.42681900  1
  Li  Li5  1  0.74543700  0.20469400  0.24361700  1
  Fe  Fe0  1  0.60471200  0.81373700  0.61682700  1
  Fe  Fe1  1  0.37679100  0.14049700  0.87382100  1
  Fe  Fe2  1  0.62320900  0.85950300  0.12617900  1
  Fe  Fe3  1  0.39528800  0.18626300  0.38317300  1
  P  P0  1  0.29713000  0.72704900  0.96500500  1
  P  P1  1  0.19141900  0.77648900  0.49797500  1
  P  P2  1  0.01775000  0.69430600  0.06862600  1
  P  P3  1  0.09140500  0.42599200  0.40023600  1
  P  P4  1  0.04245700  0.11155500  0.72172600  1
  P  P5  1  0.35465200  0.83240300  0.26867000  1
  P  P6  1  0.46510900  0.46328900  0.75014300  1
  P  P7  1  0.53489100  0.53671100  0.24985700  1
  P  P8  1  0.64534800  0.16759700  0.73133000  1
  P  P9  1  0.95754300  0.88844500  0.27827400  1
  P  P10  1  0.90859500  0.57400800  0.59976400  1
  P  P11  1  0.98225000  0.30569400  0.93137400  1
  P  P12  1  0.80858100  0.22351100  0.50202500  1
  P  P13  1  0.70287000  0.27295100  0.03499500  1
  O  O0  1  0.09786100  0.75609400  0.99112700  1
  O  O1  1  0.97794100  0.71645000  0.53248500  1
  O  O2  1  0.30864400  0.81906000  0.89279200  1
  O  O3  1  0.07147600  0.65305400  0.66576100  1
  O  O4  1  0.22151700  0.48325800  0.95717000  1
  O  O5  1  0.02366000  0.12695700  0.90830000  1
  O  O6  1  0.09269300  0.64661800  0.42275700  1
  O  O7  1  0.27753800  0.00161600  0.48596800  1
  O  O8  1  0.09668000  0.77475500  0.25342700  1
  O  O9  1  0.50000400  0.79876200  0.02086100  1
  O  O10  1  0.11585700  0.00567500  0.78468400  1
  O  O11  1  0.24955100  0.29668500  0.69930700  1
  O  O12  1  0.33826000  0.68691600  0.54145400  1
  O  O13  1  0.16371500  0.61359100  0.11395800  1
  O  O14  1  0.32643300  0.45865900  0.40442800  1
  O  O15  1  0.43289900  0.43480100  0.82626900  1
  O  O16  1  0.45362900  0.91675200  0.34479100  1
  O  O17  1  0.45988500  0.95888300  0.21027600  1
  O  O18  1  0.07765900  0.01785700  0.34439600  1
  O  O19  1  0.51526200  0.67065700  0.71979900  1
  O  O20  1  0.34760200  0.60593900  0.26384500  1
  O  O21  1  0.65239800  0.39406100  0.73615500  1
  O  O22  1  0.48473800  0.32934300  0.28020100  1
  O  O23  1  0.92234100  0.98214300  0.65560400  1
  O  O24  1  0.54011500  0.04111700  0.78972400  1
  O  O25  1  0.54637100  0.08324800  0.65520900  1
  O  O26  1  0.56710100  0.56519900  0.17373100  1
  O  O27  1  0.67356700  0.54134100  0.59557200  1
  O  O28  1  0.83628500  0.38640900  0.88604200  1
  O  O29  1  0.66174000  0.31308400  0.45854600  1
  O  O30  1  0.75044900  0.70331500  0.30069300  1
  O  O31  1  0.88414300  0.99432500  0.21531600  1
  O  O32  1  0.49999600  0.20123800  0.97913900  1
  O  O33  1  0.90332000  0.22524500  0.74657300  1
  O  O34  1  0.72246200  0.99838400  0.51403200  1
  O  O35  1  0.90730700  0.35338200  0.57724300  1
  O  O36  1  0.97634000  0.87304300  0.09170000  1
  O  O37  1  0.77848300  0.51674200  0.04283000  1
  O  O38  1  0.92852400  0.34694600  0.33423900  1
  O  O39  1  0.69135600  0.18094000  0.10720800  1
  O  O40  1  0.02205900  0.28355000  0.46751500  1
  O  O41  1  0.90213900  0.24390600  0.00887300  1
loop_
_geom_bond_atom_site_label_1
_geom_bond_atom_site_label_2
_geom_bond_distance
_geom_bond_site_symmetry_2
Li0 O3 1.978901 1_555
Li0 O24 2.042993 1_565
Li0 O10 2.199891 1_565
Li0 O19 2.498542 1_555
Li0 O2 2.563789 1_555
Li1 O27 2.078449 1_555
Li1 O25 2.088273 1_555
Li1 O7 2.228762 1_555
Li2 O5 1.857641 1_665
Li3 O36 1.857641 1_445
Li4 O14 2.078449 1_555
Li4 O16 2.088273 1_555
Li4 O34 2.228762 1_555
Li5 O38 1.978901 1_555
Li5 O17 2.042993 1_545
Li5 O31 2.199891 1_545
Li5 O22 2.498542 1_555
Li5 O39 2.563789 1_555
Fe0 O12 2.010709 1_555
Fe0 O23 2.026578 1_555
Fe0 O27 2.241956 1_555
Fe0 O19 2.248362 1_555
Fe0 O25 2.284060 1_565
Fe0 O34 2.398029 1_555
Fe1 O32 2.024393 1_555
Fe1 O10 2.158167 1_555
Fe1 O15 2.170522 1_555
Fe1 O2 2.177136 1_545
Fe1 O24 2.385922 1_555
Fe1 O5 2.583662 1_555
Fe2 O9 2.024393 1_555
Fe2 O31 2.158167 1_555
Fe2 O26 2.170522 1_555
Fe2 O39 2.177136 1_565
Fe2 O17 2.385922 1_555
Fe2 O36 2.583662 1_555
Fe3 O29 2.010709 1_555
Fe3 O18 2.026578 1_555
Fe3 O14 2.241956 1_555
Fe3 O22 2.248362 1_555
Fe3 O16 2.284060 1_545
Fe3 O7 2.398029 1_555
O0 P0 1.623430 1_555
O0 P2 1.651782 1_556
O1 P1 1.604777 1_655
O1 P10 1.624368 1_555
O2 P0 1.505285 1_555
O3 P10 1.479909 1_455
O4 P0 1.605388 1_555
O4 P11 1.617137 1_455
O5 P11 1.508755 1_455
O6 P1 1.617860 1_555
O6 P3 1.642103 1_555
O7 P1 1.495011 1_545
O8 P9 1.613994 1_455
O8 P5 1.618044 1_555
O9 P0 1.505444 1_554
O10 P4 1.513593 1_555
O11 P4 1.613557 1_555
O11 P6 1.639828 1_555
O12 P1 1.513831 1_555
O13 P2 1.483283 1_555
O14 P3 1.519214 1_555
O15 P6 1.501833 1_555
O16 P5 1.520579 1_555
O17 P5 1.504495 1_555
O18 P9 1.489995 1_445
O19 P6 1.496321 1_555
O20 P5 1.601666 1_555
O20 P7 1.614432 1_555
O21 P8 1.601666 1_555
O21 P6 1.614432 1_555
O22 P7 1.496321 1_555
O23 P4 1.489995 1_665
O24 P8 1.504495 1_555
O25 P8 1.520579 1_555
O26 P7 1.501833 1_555
O27 P10 1.519214 1_555
O28 P11 1.483283 1_555
O29 P12 1.513831 1_555
O30 P9 1.613557 1_555
O30 P7 1.639828 1_555
O31 P9 1.513593 1_555
O32 P13 1.505444 1_556
O33 P4 1.613994 1_655
O33 P8 1.618044 1_555
O34 P12 1.495011 1_565
O35 P12 1.617860 1_555
O35 P10 1.642103 1_555
O36 P2 1.508755 1_655
O37 P13 1.605388 1_555
O37 P2 1.617137 1_655
O38 P3 1.479909 1_655
O39 P13 1.505285 1_555
O40 P12 1.604777 1_455
O40 P3 1.624368 1_555
O41 P13 1.623430 1_555
O41 P11 1.651782 1_554
