# generated using pymatgen
data_Li8Mn7Fe(BO3)8
_symmetry_space_group_name_H-M   'P 1'
_cell_length_a   6.05659700
_cell_length_b   9.16355564
_cell_length_c   9.76193756
_cell_angle_alpha   81.97226614
_cell_angle_beta   78.32829496
_cell_angle_gamma   76.37660118
_symmetry_Int_Tables_number   1
_chemical_formula_structural   Li8Mn7Fe(BO3)8
_chemical_formula_sum   'Li8 Mn7 Fe1 B8 O24'
_cell_volume   513.24171087
_cell_formula_units_Z   1
loop_
 _symmetry_equiv_pos_site_id
 _symmetry_equiv_pos_as_xyz
  1  'x, y, z'
loop_
 _atom_site_type_symbol
 _atom_site_label
 _atom_site_symmetry_multiplicity
 _atom_site_fract_x
 _atom_site_fract_y
 _atom_site_fract_z
 _atom_site_occupancy
  Li  Li0  1  0.20282200  0.68435100  0.12336500  1
  Li  Li1  1  0.29657500  0.31640100  0.37534300  1
  Li  Li2  1  0.04678000  0.81408000  0.62681100  1
  Li  Li3  1  0.45283200  0.18446300  0.87404200  1
  Li  Li4  1  0.54662600  0.81520700  0.12620000  1
  Li  Li5  1  0.95352100  0.18466400  0.37355700  1
  Li  Li6  1  0.70427600  0.68399300  0.62521500  1
  Li  Li7  1  0.79539600  0.31551800  0.87622100  1
  Mn  Mn0  1  0.12372300  0.37587700  0.10484300  1
  Mn  Mn1  1  0.12298800  0.12600600  0.64244200  1
  Mn  Mn2  1  0.62180200  0.12656500  0.14366800  1
  Mn  Mn3  1  0.37359500  0.62630600  0.39261100  1
  Mn  Mn4  1  0.62634300  0.37395100  0.60725900  1
  Mn  Mn5  1  0.37613800  0.87274300  0.85635200  1
  Mn  Mn6  1  0.87705400  0.87358500  0.35708000  1
  Fe  Fe0  1  0.87056800  0.62957200  0.89357000  1
  B  B0  1  0.14842800  0.03713700  0.11411600  1
  B  B1  1  0.10123400  0.46263100  0.63765600  1
  B  B2  1  0.60241400  0.46468000  0.13393300  1
  B  B3  1  0.35171900  0.96320800  0.38586300  1
  B  B4  1  0.64853500  0.03643100  0.61444900  1
  B  B5  1  0.39738000  0.53745200  0.86386100  1
  B  B6  1  0.89878000  0.53654500  0.36426600  1
  B  B7  1  0.85376500  0.96127900  0.88616500  1
  O  O0  1  0.26340300  0.15299600  0.05932900  1
  O  O1  1  0.01494900  0.65193800  0.30913300  1
  O  O2  1  0.27220300  0.10629300  0.43008200  1
  O  O3  1  0.02106900  0.60415600  0.68507900  1
  O  O4  1  0.22968800  0.89430400  0.06892600  1
  O  O5  1  0.29454800  0.43630300  0.53001100  1
  O  O6  1  0.04679200  0.93502000  0.77884300  1
  O  O7  1  0.48863900  0.34863400  0.19009300  1
  O  O8  1  0.23545200  0.84794100  0.44150500  1
  O  O9  1  0.45420800  0.06405100  0.72098100  1
  O  O10  1  0.20170000  0.56647400  0.96906100  1
  O  O11  1  0.52145500  0.60709400  0.18009000  1
  O  O12  1  0.47798300  0.39392400  0.81999900  1
  O  O13  1  0.79509300  0.43878400  0.02619000  1
  O  O14  1  0.54607700  0.93478600  0.27953500  1
  O  O15  1  0.76381200  0.15197600  0.55897400  1
  O  O16  1  0.51526800  0.65187200  0.80865500  1
  O  O17  1  0.95374000  0.06447400  0.22032200  1
  O  O18  1  0.70440700  0.56473200  0.47073100  1
  O  O19  1  0.76996400  0.10391600  0.93112400  1
  O  O20  1  0.97861300  0.39405400  0.31880300  1
  O  O21  1  0.72898500  0.89334800  0.56979300  1
  O  O22  1  0.98569900  0.34670700  0.69146100  1
  O  O23  1  0.74296100  0.84357900  0.94239300  1
loop_
_geom_bond_atom_site_label_1
_geom_bond_atom_site_label_2
_geom_bond_distance
_geom_bond_site_symmetry_2
Li0 O4 1.958893 1_555
Li0 O1 1.960985 1_555
Li0 O10 1.974291 1_554
Li0 O11 2.052161 1_555
Li1 O2 1.956747 1_555
Li1 O7 1.967799 1_555
Li1 O5 1.984067 1_555
Li1 O20 2.048021 1_455
Li2 O3 1.961603 1_555
Li2 O8 1.961694 1_555
Li2 O6 1.972385 1_555
Li2 O21 2.050378 1_455
Li3 O12 1.951421 1_555
Li3 O0 1.959995 1_556
Li3 O9 1.975152 1_555
Li3 O19 2.048138 1_555
Li4 O11 1.939368 1_555
Li4 O23 1.962960 1_554
Li4 O14 1.973741 1_555
Li4 O4 2.046537 1_555
Li5 O20 1.951530 1_555
Li5 O15 1.963502 1_555
Li5 O17 1.977196 1_555
Li5 O2 2.052531 1_655
Li6 O16 1.945735 1_555
Li6 O21 1.951433 1_555
Li6 O18 1.981922 1_555
Li6 O3 2.056965 1_655
Li7 O22 1.957873 1_555
Li7 O13 1.969510 1_556
Li7 O19 1.971759 1_555
Li7 O12 2.044337 1_555
Mn0 O0 2.090898 1_555
Mn0 O20 2.109067 1_455
Mn0 O10 2.125815 1_554
Mn0 O13 2.199465 1_455
Mn0 O7 2.462904 1_555
Mn1 O22 2.080297 1_455
Mn1 O2 2.101558 1_555
Mn1 O6 2.128337 1_545
Mn1 O9 2.213289 1_555
Mn1 O15 2.423219 1_455
Mn2 O7 2.081682 1_555
Mn2 O19 2.105351 1_554
Mn2 O14 2.130823 1_545
Mn2 O17 2.208246 1_555
Mn2 O0 2.422412 1_555
Mn3 O8 2.088385 1_555
Mn3 O11 2.100722 1_555
Mn3 O5 2.130796 1_555
Mn3 O18 2.209027 1_555
Mn3 O1 2.420740 1_555
Mn4 O15 2.089037 1_555
Mn4 O12 2.104156 1_555
Mn4 O18 2.130679 1_555
Mn4 O5 2.210272 1_555
Mn4 O22 2.426020 1_555
Mn5 O16 2.079503 1_555
Mn5 O4 2.102189 1_556
Mn5 O9 2.129257 1_565
Mn5 O6 2.197927 1_555
Mn5 O23 2.474970 1_555
Mn6 O1 2.085695 1_655
Mn6 O21 2.103313 1_555
Mn6 O17 2.130112 1_565
Mn6 O14 2.207206 1_555
Mn6 O8 2.423986 1_655
Fe0 O23 2.016998 1_555
Fe0 O3 2.075868 1_655
Fe0 O13 2.108653 1_556
Fe0 O10 2.198244 1_655
Fe0 O16 2.413892 1_555
B0 O4 1.385607 1_545
B0 O0 1.391801 1_555
B0 O17 1.402426 1_455
B1 O3 1.382769 1_555
B1 O22 1.392686 1_455
B1 O5 1.404710 1_555
B2 O11 1.385615 1_555
B2 O7 1.391301 1_555
B2 O13 1.402510 1_555
B3 O2 1.383450 1_565
B3 O8 1.393545 1_555
B3 O14 1.402712 1_555
B4 O21 1.385391 1_545
B4 O15 1.391728 1_555
B4 O9 1.403126 1_555
B5 O12 1.386265 1_555
B5 O16 1.392379 1_555
B5 O10 1.401896 1_555
B6 O20 1.383217 1_555
B6 O1 1.393242 1_655
B6 O18 1.403373 1_555
B7 O19 1.384277 1_565
B7 O23 1.393378 1_555
B7 O6 1.401642 1_655
