# generated using pymatgen
data_KMnCl3O2
_symmetry_space_group_name_H-M   'P 1'
_cell_length_a   6.79685700
_cell_length_b   6.88359031
_cell_length_c   9.55374563
_cell_angle_alpha   75.69893379
_cell_angle_beta   76.60716688
_cell_angle_gamma   67.41447474
_symmetry_Int_Tables_number   1
_chemical_formula_structural   KMnCl3O2
_chemical_formula_sum   'K2 Mn2 Cl6 O4'
_cell_volume   395.21938436
_cell_formula_units_Z   2
loop_
 _symmetry_equiv_pos_site_id
 _symmetry_equiv_pos_as_xyz
  1  'x, y, z'
loop_
 _atom_site_type_symbol
 _atom_site_label
 _atom_site_symmetry_multiplicity
 _atom_site_fract_x
 _atom_site_fract_y
 _atom_site_fract_z
 _atom_site_occupancy
  K  K0  1  0.94550300  0.17642900  0.20724600  1
  K  K1  1  0.05449700  0.82357100  0.79275400  1
  Mn  Mn0  1  0.59808500  0.75946100  0.30206100  1
  Mn  Mn1  1  0.40191500  0.24053900  0.69793900  1
  Cl  Cl0  1  0.74075800  0.17807500  0.56577900  1
  Cl  Cl1  1  0.25924200  0.82192500  0.43422100  1
  Cl  Cl2  1  0.48848900  0.08592800  0.17858000  1
  Cl  Cl3  1  0.51151100  0.91407200  0.82142000  1
  Cl  Cl4  1  0.94621100  0.71129300  0.15417800  1
  Cl  Cl5  1  0.05378900  0.28870700  0.84582200  1
  O  O0  1  0.28994200  0.27879600  0.55861100  1
  O  O1  1  0.71005800  0.72120400  0.44138900  1
  O  O2  1  0.58887600  0.56442300  0.24083900  1
  O  O3  1  0.41112400  0.43557700  0.75916100  1
loop_
_geom_bond_atom_site_label_1
_geom_bond_atom_site_label_2
_geom_bond_distance
_geom_bond_site_symmetry_2
K0 O2 2.863913 1_555
K1 O3 2.863913 1_555
Mn0 O1 1.600806 1_555
Mn0 O2 1.618009 1_555
Mn1 O0 1.600806 1_555
Mn1 O3 1.618009 1_555
Cl0 Mn1 2.289910 1_555
Cl0 K1 3.276461 1_645
Cl0 K0 3.386516 1_555
Cl1 Mn0 2.289910 1_555
Cl1 K0 3.276461 1_465
Cl1 K1 3.386516 1_555
Cl2 Mn0 2.192785 1_545
Cl2 K0 3.454512 1_455
Cl2 K0 3.475158 1_555
Cl3 Mn1 2.192785 1_565
Cl3 K1 3.454512 1_655
Cl3 K1 3.475158 1_555
Cl4 Mn0 2.405186 1_555
Cl4 K1 3.317096 1_654
Cl4 K0 3.361195 1_565
Cl4 K0 3.592060 1_555
Cl5 Mn1 2.405186 1_555
Cl5 K0 3.317096 1_456
Cl5 K1 3.361195 1_545
Cl5 K1 3.592060 1_555
