# generated using pymatgen
data_Ti17(NO4)6
_symmetry_space_group_name_H-M   'P 1'
_cell_length_a   10.39998400
_cell_length_b   10.71156844
_cell_length_c   10.73826102
_cell_angle_alpha   108.53637282
_cell_angle_beta   97.53295171
_cell_angle_gamma   95.30094079
_symmetry_Int_Tables_number   1
_chemical_formula_structural   Ti17(NO4)6
_chemical_formula_sum   'Ti34 N12 O48'
_cell_volume   1112.90094228
_cell_formula_units_Z   2
loop_
 _symmetry_equiv_pos_site_id
 _symmetry_equiv_pos_as_xyz
  1  'x, y, z'
loop_
 _atom_site_type_symbol
 _atom_site_label
 _atom_site_symmetry_multiplicity
 _atom_site_fract_x
 _atom_site_fract_y
 _atom_site_fract_z
 _atom_site_occupancy
  Ti  Ti0  1  0.64667900  0.57002900  0.07170700  1
  Ti  Ti1  1  0.45965500  0.64476800  0.57118400  1
  Ti  Ti2  1  0.45494100  0.51594900  0.25098400  1
  Ti  Ti3  1  0.14506500  0.57193200  0.07321700  1
  Ti  Ti4  1  0.54034500  0.35523200  0.42881600  1
  Ti  Ti5  1  0.95871200  0.51996700  0.25084900  1
  Ti  Ti6  1  0.54505900  0.48405100  0.74901600  1
  Ti  Ti7  1  0.78985700  0.30542400  0.55481300  1
  Ti  Ti8  1  0.96842700  0.64947500  0.57698900  1
  Ti  Ti9  1  0.48062700  0.23523900  0.07016800  1
  Ti  Ti10  1  0.03157300  0.35052500  0.42301100  1
  Ti  Ti11  1  0.35332100  0.42997100  0.92829300  1
  Ti  Ti12  1  0.97631400  0.23403100  0.07678100  1
  Ti  Ti13  1  0.04128800  0.48003300  0.74915100  1
  Ti  Ti14  1  0.29249200  0.31198800  0.57075600  1
  Ti  Ti15  1  0.28762200  0.18354100  0.24888100  1
  Ti  Ti16  1  0.81373500  0.90979800  0.07741500  1
  Ti  Ti17  1  0.68771100  0.10154500  0.94336900  1
  Ti  Ti18  1  0.85493500  0.42806800  0.92678300  1
  Ti  Ti19  1  0.37111200  0.02238500  0.42559700  1
  Ti  Ti20  1  0.31228900  0.89845500  0.05663100  1
  Ti  Ti21  1  0.62888800  0.97761500  0.57440300  1
  Ti  Ti22  1  0.37687400  0.14978200  0.74979600  1
  Ti  Ti23  1  0.62312600  0.85021800  0.25020400  1
  Ti  Ti24  1  0.70750800  0.68801200  0.42924400  1
  Ti  Ti25  1  0.18626500  0.09020200  0.92258500  1
  Ti  Ti26  1  0.71237800  0.81645900  0.75111900  1
  Ti  Ti27  1  0.87160400  0.02483500  0.42294800  1
  Ti  Ti28  1  0.87819400  0.14681400  0.74993200  1
  Ti  Ti29  1  0.12839600  0.97516500  0.57705200  1
  Ti  Ti30  1  0.12180600  0.85318600  0.25006800  1
  Ti  Ti31  1  0.51937300  0.76476100  0.92983200  1
  Ti  Ti32  1  0.21014300  0.69457600  0.44518700  1
  Ti  Ti33  1  0.02368600  0.76596900  0.92321900  1
  N  N0  1  0.60081600  0.65962500  0.25020400  1
  N  N1  1  0.10105100  0.66022500  0.24926400  1
  N  N2  1  0.42974200  0.32703500  0.24973000  1
  N  N3  1  0.39918400  0.34037500  0.74979600  1
  N  N4  1  0.94798000  0.33726400  0.25041900  1
  N  N5  1  0.76863500  0.97918900  0.25033500  1
  N  N6  1  0.89894900  0.33977500  0.75073600  1
  N  N7  1  0.73562100  0.00726300  0.75062600  1
  N  N8  1  0.26437900  0.99273700  0.24937400  1
  N  N9  1  0.23136500  0.02081100  0.74966500  1
  N  N10  1  0.57025800  0.67296500  0.75027000  1
  N  N11  1  0.05202000  0.66273600  0.74958100  1
  O  O0  1  0.80959000  0.52388000  0.11884300  1
  O  O1  1  0.35351100  0.60907600  0.37710900  1
  O  O2  1  0.52077600  0.41815500  0.06409000  1
  O  O3  1  0.30940800  0.52277700  0.11749400  1
  O  O4  1  0.58411800  0.54074600  0.43454500  1
  O  O5  1  0.41588200  0.45925400  0.56545500  1
  O  O6  1  0.85133500  0.60856200  0.37930800  1
  O  O7  1  0.68449000  0.28223700  0.39029700  1
  O  O8  1  0.69059200  0.47722300  0.88250600  1
  O  O9  1  0.64648900  0.39092400  0.62289100  1
  O  O10  1  0.47922400  0.58184500  0.93591000  1
  O  O11  1  0.08170200  0.54434500  0.43816100  1
  O  O12  1  0.01934800  0.41901900  0.06327400  1
  O  O13  1  0.63783600  0.18928700  0.10927300  1
  O  O14  1  0.81338700  0.24973200  0.93674600  1
  O  O15  1  0.75130700  0.12553500  0.56419800  1
  O  O16  1  0.41570600  0.20734100  0.43507400  1
  O  O17  1  0.35264400  0.08296000  0.06231600  1
  O  O18  1  0.91829800  0.45565500  0.56183900  1
  O  O19  1  0.14347000  0.19254500  0.12074200  1
  O  O20  1  0.19041000  0.47612000  0.88115700  1
  O  O21  1  0.98065200  0.58098100  0.93672600  1
  O  O22  1  0.18642700  0.27680200  0.38262600  1
  O  O23  1  0.14866500  0.39143800  0.62069200  1
  O  O24  1  0.52206600  0.14182700  0.87731800  1
  O  O25  1  0.25214600  0.12524500  0.56211500  1
  O  O26  1  0.31250800  0.25048300  0.93500900  1
  O  O27  1  0.47988900  0.05484600  0.61800200  1
  O  O28  1  0.74785400  0.87475500  0.43788500  1
  O  O29  1  0.68749200  0.74951700  0.06499100  1
  O  O30  1  0.52011100  0.94515400  0.38199800  1
  O  O31  1  0.47793400  0.85817300  0.12268200  1
  O  O32  1  0.86143600  0.07617400  0.05098700  1
  O  O33  1  0.92715200  0.20842400  0.44967800  1
  O  O34  1  0.64735600  0.91704000  0.93768400  1
  O  O35  1  0.24869300  0.87446500  0.43580200  1
  O  O36  1  0.02115900  0.94715100  0.37977100  1
  O  O37  1  0.02446300  0.14504100  0.88084900  1
  O  O38  1  0.81357300  0.72319800  0.61737400  1
  O  O39  1  0.58429400  0.79265900  0.56492600  1
  O  O40  1  0.97553700  0.85495900  0.11915100  1
  O  O41  1  0.18661300  0.75026800  0.06325400  1
  O  O42  1  0.97884100  0.05284900  0.62022900  1
  O  O43  1  0.13856400  0.92382600  0.94901300  1
  O  O44  1  0.31551000  0.71776300  0.60970300  1
  O  O45  1  0.36216400  0.81071300  0.89072700  1
  O  O46  1  0.07284800  0.79157600  0.55032200  1
  O  O47  1  0.85653000  0.80745500  0.87925800  1
loop_
_geom_bond_atom_site_label_1
_geom_bond_atom_site_label_2
_geom_bond_distance
_geom_bond_site_symmetry_2
N0 Ti0 1.994284 1_555
N0 Ti24 2.006639 1_555
N0 Ti23 2.033282 1_555
N0 Ti2 2.061620 1_555
N1 Ti3 1.961595 1_555
N1 Ti5 2.015125 1_455
N1 Ti30 2.055367 1_555
N1 Ti32 2.157245 1_555
N2 Ti2 2.011825 1_555
N2 Ti4 2.024616 1_555
N2 Ti15 2.028545 1_555
N2 Ti9 2.030520 1_555
N3 Ti11 1.994284 1_555
N3 Ti14 2.006639 1_555
N3 Ti22 2.033282 1_555
N3 Ti6 2.061620 1_555
N4 Ti10 1.896887 1_655
N4 Ti12 1.918217 1_555
N4 Ti5 1.948391 1_555
N5 Ti27 1.904764 1_565
N5 Ti16 1.906735 1_555
N5 Ti23 1.952041 1_555
N6 Ti18 1.961595 1_555
N6 Ti13 2.015125 1_655
N6 Ti28 2.055367 1_555
N6 Ti7 2.157245 1_555
N7 Ti21 1.978872 1_545
N7 Ti28 2.008363 1_555
N7 Ti26 2.037535 1_545
N7 Ti17 2.141568 1_555
N8 Ti19 1.978872 1_565
N8 Ti30 2.008363 1_555
N8 Ti15 2.037535 1_565
N8 Ti20 2.141568 1_555
N9 Ti29 1.904764 1_545
N9 Ti25 1.906735 1_555
N9 Ti22 1.952041 1_555
N10 Ti6 2.011825 1_555
N10 Ti1 2.024616 1_555
N10 Ti26 2.028545 1_555
N10 Ti31 2.030520 1_555
N11 Ti8 1.896887 1_455
N11 Ti33 1.918217 1_555
N11 Ti13 1.948391 1_555
O0 Ti0 1.860135 1_555
O0 Ti5 1.972227 1_555
O0 Ti18 2.127861 1_554
O1 Ti2 1.911060 1_555
O1 Ti32 1.925813 1_555
O1 Ti1 2.126068 1_555
O2 Ti0 1.965050 1_555
O2 Ti9 1.988672 1_555
O2 Ti11 2.160460 1_554
O2 Ti2 2.179438 1_555
O3 Ti3 1.880670 1_555
O3 Ti2 1.967028 1_555
O3 Ti11 2.089875 1_554
O4 Ti24 1.959730 1_555
O4 Ti4 1.976754 1_555
O4 Ti2 2.160460 1_555
O4 Ti1 2.189723 1_555
O5 Ti14 1.959730 1_555
O5 Ti1 1.976754 1_555
O5 Ti6 2.160460 1_555
O5 Ti4 2.189723 1_555
O6 Ti24 1.845148 1_555
O6 Ti5 1.953932 1_555
O6 Ti8 2.193899 1_555
O7 Ti4 1.789773 1_555
O7 Ti7 1.883239 1_555
O8 Ti18 1.880670 1_555
O8 Ti6 1.967028 1_555
O8 Ti0 2.089875 1_556
O9 Ti6 1.911060 1_555
O9 Ti7 1.925813 1_555
O9 Ti4 2.126068 1_555
O10 Ti11 1.965050 1_555
O10 Ti31 1.988672 1_555
O10 Ti0 2.160460 1_556
O10 Ti6 2.179438 1_555
O11 Ti32 1.969459 1_555
O11 Ti10 2.042436 1_555
O11 Ti8 2.125217 1_455
O11 Ti5 2.163283 1_455
O12 Ti3 1.964735 1_555
O12 Ti12 2.045390 1_455
O12 Ti18 2.131946 1_454
O12 Ti5 2.167545 1_455
O13 Ti9 1.786574 1_555
O13 Ti17 1.895776 1_554
O14 Ti18 1.958772 1_555
O14 Ti17 1.986393 1_555
O14 Ti12 2.169334 1_556
O14 Ti28 2.186215 1_555
O15 Ti7 1.968535 1_555
O15 Ti21 1.979311 1_545
O15 Ti27 2.176232 1_555
O15 Ti28 2.176359 1_555
O16 Ti19 1.959627 1_555
O16 Ti4 1.976203 1_555
O16 Ti14 2.176667 1_555
O16 Ti15 2.179868 1_555
O17 Ti20 1.961910 1_545
O17 Ti9 1.980236 1_555
O17 Ti25 2.160918 1_554
O17 Ti15 2.179233 1_555
O18 Ti7 1.969459 1_555
O18 Ti8 2.042436 1_555
O18 Ti10 2.125217 1_655
O18 Ti13 2.163283 1_655
O19 Ti12 1.871730 1_455
O19 Ti15 1.928838 1_555
O19 Ti25 2.186999 1_554
O20 Ti11 1.860135 1_555
O20 Ti13 1.972227 1_555
O20 Ti3 2.127861 1_556
O21 Ti18 1.964735 1_555
O21 Ti33 2.045390 1_655
O21 Ti3 2.131946 1_656
O21 Ti13 2.167545 1_655
O22 Ti10 1.898864 1_555
O22 Ti15 1.961259 1_555
O22 Ti14 2.072386 1_555
O23 Ti14 1.845148 1_555
O23 Ti13 1.953932 1_555
O23 Ti10 2.193899 1_555
O24 Ti17 1.915339 1_555
O24 Ti22 1.928295 1_555
O24 Ti9 2.114625 1_556
O25 Ti14 1.975502 1_555
O25 Ti29 2.025395 1_545
O25 Ti19 2.143421 1_555
O25 Ti22 2.174444 1_555
O26 Ti11 1.956309 1_555
O26 Ti25 2.020179 1_555
O26 Ti22 2.164642 1_555
O26 Ti9 2.174455 1_556
O27 Ti21 1.866977 1_545
O27 Ti22 1.966880 1_555
O27 Ti19 2.127713 1_555
O28 Ti24 1.975502 1_555
O28 Ti27 2.025395 1_565
O28 Ti21 2.143421 1_555
O28 Ti23 2.174444 1_555
O29 Ti0 1.956309 1_555
O29 Ti16 2.020179 1_555
O29 Ti23 2.164642 1_555
O29 Ti31 2.174455 1_554
O30 Ti19 1.866977 1_565
O30 Ti23 1.966880 1_555
O30 Ti21 2.127713 1_555
O31 Ti20 1.915339 1_555
O31 Ti23 1.928295 1_555
O31 Ti31 2.114625 1_554
O32 Ti12 1.898791 1_555
O32 Ti16 1.922970 1_545
O32 Ti17 2.101572 1_554
O33 Ti10 1.905636 1_655
O33 Ti27 1.916003 1_555
O33 Ti7 2.084202 1_555
O34 Ti17 1.961910 1_565
O34 Ti31 1.980236 1_555
O34 Ti16 2.160918 1_556
O34 Ti26 2.179233 1_555
O35 Ti32 1.968535 1_555
O35 Ti19 1.979311 1_565
O35 Ti29 2.176232 1_555
O35 Ti30 2.176359 1_555
O36 Ti27 1.873361 1_465
O36 Ti30 1.932394 1_555
O36 Ti29 2.176286 1_555
O37 Ti25 1.878779 1_555
O37 Ti28 1.937095 1_455
O37 Ti12 2.162255 1_456
O38 Ti8 1.898864 1_555
O38 Ti26 1.961259 1_555
O38 Ti24 2.072386 1_555
O39 Ti21 1.959627 1_555
O39 Ti1 1.976203 1_555
O39 Ti24 2.176667 1_555
O39 Ti26 2.179868 1_555
O40 Ti16 1.878779 1_555
O40 Ti30 1.937095 1_655
O40 Ti33 2.162255 1_654
O41 Ti3 1.958772 1_555
O41 Ti20 1.986393 1_555
O41 Ti33 2.169334 1_554
O41 Ti30 2.186215 1_555
O42 Ti29 1.873361 1_645
O42 Ti28 1.932394 1_555
O42 Ti27 2.176286 1_555
O43 Ti33 1.898791 1_555
O43 Ti25 1.922970 1_565
O43 Ti20 2.101572 1_556
O44 Ti1 1.789773 1_555
O44 Ti32 1.883239 1_555
O45 Ti31 1.786574 1_555
O45 Ti20 1.895776 1_556
O46 Ti8 1.905636 1_455
O46 Ti29 1.916003 1_555
O46 Ti32 2.084202 1_555
O47 Ti33 1.871730 1_655
O47 Ti26 1.928838 1_555
O47 Ti16 2.186999 1_556
