# generated using pymatgen
data_Fe3(OF2)2
_symmetry_space_group_name_H-M   'P 1'
_cell_length_a   4.74472800
_cell_length_b   4.74472800
_cell_length_c   9.41868500
_cell_angle_alpha   90.00000000
_cell_angle_beta   90.00000000
_cell_angle_gamma   90.00000000
_symmetry_Int_Tables_number   1
_chemical_formula_structural   Fe3(OF2)2
_chemical_formula_sum   'Fe6 O4 F8'
_cell_volume   212.03761668
_cell_formula_units_Z   2
loop_
 _symmetry_equiv_pos_site_id
 _symmetry_equiv_pos_as_xyz
  1  'x, y, z'
loop_
 _atom_site_type_symbol
 _atom_site_label
 _atom_site_symmetry_multiplicity
 _atom_site_fract_x
 _atom_site_fract_y
 _atom_site_fract_z
 _atom_site_occupancy
  Fe  Fe0  1  0.00000000  0.00000000  0.85678100  1
  Fe  Fe1  1  0.00000000  0.00000000  0.14321900  1
  Fe  Fe2  1  0.00000000  0.00000000  0.50000000  1
  Fe  Fe3  1  0.50000000  0.50000000  0.00000000  1
  Fe  Fe4  1  0.50000000  0.50000000  0.64321900  1
  Fe  Fe5  1  0.50000000  0.50000000  0.35678100  1
  O  O0  1  0.21365200  0.78634800  0.00000000  1
  O  O1  1  0.28634800  0.28634800  0.50000000  1
  O  O2  1  0.71365200  0.71365200  0.50000000  1
  O  O3  1  0.78634800  0.21365200  0.00000000  1
  F  F0  1  0.19358700  0.80641300  0.32758900  1
  F  F1  1  0.19358700  0.80641300  0.67241100  1
  F  F2  1  0.30641300  0.30641300  0.82758900  1
  F  F3  1  0.30641300  0.30641300  0.17241100  1
  F  F4  1  0.69358700  0.69358700  0.82758900  1
  F  F5  1  0.69358700  0.69358700  0.17241100  1
  F  F6  1  0.80641300  0.19358700  0.67241100  1
  F  F7  1  0.80641300  0.19358700  0.32758900  1
loop_
_geom_bond_atom_site_label_1
_geom_bond_atom_site_label_2
_geom_bond_distance
_geom_bond_site_symmetry_2
Fe0 O3 1.968472 1_456
Fe0 O0 1.968472 1_546
Fe1 O3 1.968472 1_455
Fe1 O0 1.968472 1_545
Fe2 O1 1.921412 1_555
Fe2 O2 1.921412 1_445
Fe3 O3 1.921412 1_555
Fe3 O0 1.921412 1_555
Fe4 O2 1.968472 1_555
Fe4 O1 1.968472 1_555
Fe5 O2 1.968472 1_555
Fe5 O1 1.968472 1_555
F0 Fe5 2.074352 1_555
F0 Fe2 2.079508 1_565
F0 Fe1 2.168608 1_565
F1 Fe4 2.074352 1_555
F1 Fe2 2.079508 1_565
F1 Fe0 2.168608 1_565
F2 Fe0 2.074352 1_555
F2 Fe3 2.079508 1_556
F2 Fe4 2.168608 1_555
F3 Fe1 2.074352 1_555
F3 Fe3 2.079508 1_555
F3 Fe5 2.168608 1_555
F4 Fe0 2.074352 1_665
F4 Fe3 2.079508 1_556
F4 Fe4 2.168608 1_555
F5 Fe1 2.074352 1_665
F5 Fe3 2.079508 1_555
F5 Fe5 2.168608 1_555
F6 Fe4 2.074352 1_555
F6 Fe2 2.079508 1_655
F6 Fe0 2.168608 1_655
F7 Fe5 2.074352 1_555
F7 Fe2 2.079508 1_655
F7 Fe1 2.168608 1_655
