# generated using pymatgen
data_Li4Cr3NiO8
_symmetry_space_group_name_H-M   'P 1'
_cell_length_a   5.12241300
_cell_length_b   5.91160526
_cell_length_c   10.64917425
_cell_angle_alpha   73.94161920
_cell_angle_beta   76.18773004
_cell_angle_gamma   73.21516433
_symmetry_Int_Tables_number   1
_chemical_formula_structural   Li4Cr3NiO8
_chemical_formula_sum   'Li8 Cr6 Ni2 O16'
_cell_volume   292.23320153
_cell_formula_units_Z   2
loop_
 _symmetry_equiv_pos_site_id
 _symmetry_equiv_pos_as_xyz
  1  'x, y, z'
loop_
 _atom_site_type_symbol
 _atom_site_label
 _atom_site_symmetry_multiplicity
 _atom_site_fract_x
 _atom_site_fract_y
 _atom_site_fract_z
 _atom_site_occupancy
  Li  Li0  1  0.49570800  0.31670700  0.62522300  1
  Li  Li1  1  0.50358200  0.93298400  0.87560500  1
  Li  Li2  1  0.50429200  0.68329300  0.37477700  1
  Li  Li3  1  0.49641800  0.06701600  0.12439500  1
  Li  Li4  1  0.49850000  0.80908600  0.62629100  1
  Li  Li5  1  0.50098600  0.44098000  0.87452200  1
  Li  Li6  1  0.50150000  0.19091400  0.37370900  1
  Li  Li7  1  0.49901400  0.55902000  0.12547800  1
  Cr  Cr0  1  0.00142600  0.12469400  0.74999700  1
  Cr  Cr1  1  0.00000000  0.50000000  0.50000000  1
  Cr  Cr2  1  0.99857400  0.87530600  0.25000300  1
  Cr  Cr3  1  0.99969000  0.25189200  0.00056200  1
  Cr  Cr4  1  0.00000000  0.00000000  0.50000000  1
  Cr  Cr5  1  0.00031000  0.74810800  0.99943800  1
  Ni  Ni0  1  0.99955500  0.62477800  0.75044700  1
  Ni  Ni1  1  0.00044500  0.37522200  0.24955300  1
  O  O0  1  0.77303300  0.72090500  0.18441400  1
  O  O1  1  0.22700100  0.54078400  0.31624600  1
  O  O2  1  0.77299900  0.45921600  0.68375400  1
  O  O3  1  0.22696700  0.27909500  0.81558600  1
  O  O4  1  0.22467000  0.91160300  0.06570200  1
  O  O5  1  0.77533000  0.08839700  0.93429800  1
  O  O6  1  0.77224300  0.83863500  0.43650200  1
  O  O7  1  0.22563500  0.66261300  0.56259100  1
  O  O8  1  0.77221400  0.20933000  0.18465900  1
  O  O9  1  0.22558800  0.02941600  0.31659300  1
  O  O10  1  0.77441200  0.97058400  0.68340700  1
  O  O11  1  0.22778600  0.79067000  0.81534100  1
  O  O12  1  0.77084600  0.58858500  0.93807400  1
  O  O13  1  0.77436500  0.33738700  0.43740900  1
  O  O14  1  0.22915400  0.41141500  0.06192600  1
  O  O15  1  0.22775700  0.16136500  0.56349800  1
loop_
_geom_bond_atom_site_label_1
_geom_bond_atom_site_label_2
_geom_bond_distance
_geom_bond_site_symmetry_2
Li0 O2 2.126063 1_555
Li0 O7 2.142979 1_555
Li0 O10 2.154672 1_545
Li0 O3 2.156147 1_555
Li0 O15 2.156852 1_555
Li0 O13 2.157549 1_555
Li1 O11 2.129213 1_555
Li1 O12 2.130176 1_555
Li1 O3 2.153403 1_565
Li1 O5 2.155037 1_565
Li1 O10 2.175733 1_555
Li1 O4 2.176468 1_556
Li2 O1 2.126063 1_555
Li2 O13 2.142979 1_555
Li2 O9 2.154672 1_565
Li2 O0 2.156147 1_555
Li2 O6 2.156852 1_555
Li2 O7 2.157549 1_555
Li3 O8 2.129213 1_555
Li3 O14 2.130176 1_555
Li3 O0 2.153403 1_545
Li3 O4 2.155037 1_545
Li3 O9 2.175733 1_555
Li3 O5 2.176468 1_554
Li4 O11 2.149608 1_555
Li4 O7 2.154126 1_555
Li4 O2 2.158793 1_555
Li4 O6 2.162065 1_555
Li4 O15 2.170663 1_565
Li4 O10 2.188603 1_555
Li5 O14 2.138447 1_556
Li5 O12 2.144839 1_555
Li5 O11 2.158372 1_555
Li5 O2 2.166603 1_555
Li5 O5 2.173914 1_555
Li5 O3 2.192877 1_555
Li6 O8 2.149608 1_555
Li6 O13 2.154126 1_555
Li6 O1 2.158793 1_555
Li6 O15 2.162065 1_555
Li6 O6 2.170663 1_545
Li6 O9 2.188603 1_555
Li7 O12 2.138447 1_554
Li7 O14 2.144839 1_555
Li7 O8 2.158372 1_555
Li7 O1 2.166603 1_555
Li7 O4 2.173914 1_555
Li7 O0 2.192877 1_555
Cr0 O3 2.000698 1_555
Cr0 O11 2.007615 1_545
Cr0 O10 2.011993 1_445
Cr0 O2 2.015795 1_455
Cr0 O5 2.016079 1_455
Cr0 O15 2.035456 1_555
Cr1 O2 2.013416 1_455
Cr1 O1 2.013416 1_555
Cr1 O7 2.016999 1_555
Cr1 O13 2.016999 1_455
Cr1 O6 2.026021 1_455
Cr1 O15 2.026021 1_555
Cr2 O0 2.000698 1_555
Cr2 O8 2.007615 1_565
Cr2 O9 2.011993 1_665
Cr2 O1 2.015795 1_655
Cr2 O4 2.016079 1_655
Cr2 O6 2.035456 1_555
Cr3 O14 2.011422 1_655
Cr3 O8 2.017477 1_555
Cr3 O12 2.017615 1_554
Cr3 O3 2.024693 1_654
Cr3 O4 2.031457 1_645
Cr3 O5 2.039366 1_554
Cr4 O9 2.007679 1_555
Cr4 O10 2.007679 1_445
Cr4 O7 2.014729 1_545
Cr4 O13 2.014729 1_455
Cr4 O15 2.025993 1_555
Cr4 O6 2.025993 1_445
Cr5 O12 2.011422 1_455
Cr5 O11 2.017477 1_555
Cr5 O14 2.017615 1_556
Cr5 O0 2.024693 1_456
Cr5 O5 2.031457 1_465
Cr5 O4 2.039366 1_556
Ni0 O7 2.046720 1_655
Ni0 O12 2.049668 1_555
Ni0 O11 2.056450 1_655
Ni0 O3 2.059356 1_655
Ni0 O10 2.059813 1_555
Ni0 O2 2.059919 1_555
Ni1 O13 2.046720 1_455
Ni1 O14 2.049668 1_555
Ni1 O8 2.056450 1_455
Ni1 O0 2.059356 1_455
Ni1 O9 2.059813 1_555
Ni1 O1 2.059919 1_555
