# generated using pymatgen
data_LiCoPO4
_symmetry_space_group_name_H-M   'P 1'
_cell_length_a   5.13532337
_cell_length_b   8.44784878
_cell_length_c   5.13455382
_cell_angle_alpha   107.70887255
_cell_angle_beta   59.99839288
_cell_angle_gamma   107.73089086
_symmetry_Int_Tables_number   1
_chemical_formula_structural   LiCoPO4
_chemical_formula_sum   'Li2 Co2 P2 O8'
_cell_volume   180.59787083
_cell_formula_units_Z   2
loop_
 _symmetry_equiv_pos_site_id
 _symmetry_equiv_pos_as_xyz
  1  'x, y, z'
loop_
 _atom_site_type_symbol
 _atom_site_label
 _atom_site_symmetry_multiplicity
 _atom_site_fract_x
 _atom_site_fract_y
 _atom_site_fract_z
 _atom_site_occupancy
  Li  Li0  1  0.16228300  0.48744800  0.16243300  1
  Li  Li1  1  0.41343200  0.23979600  0.41332400  1
  Co  Co0  1  0.01866700  0.05614300  0.01874600  1
  Co  Co1  1  0.55674100  0.67030800  0.55680400  1
  P  P0  1  0.87410100  0.62247300  0.87409700  1
  P  P1  1  0.70136800  0.10391300  0.70137300  1
  O  O0  1  0.14576400  0.55573200  0.57202100  1
  O  O1  1  0.00343100  0.17086000  0.73786900  1
  O  O2  1  0.42968200  0.17061900  0.00342500  1
  O  O3  1  0.63744800  0.91153200  0.63716700  1
  O  O4  1  0.83772000  0.55575300  0.14580500  1
  O  O5  1  0.57199300  0.55555000  0.83766300  1
  O  O6  1  0.73768200  0.17062100  0.42968400  1
  O  O7  1  0.93821600  0.81484000  0.93811700  1
loop_
_geom_bond_atom_site_label_1
_geom_bond_atom_site_label_2
_geom_bond_distance
_geom_bond_site_symmetry_2
Li0 O0 1.968792 1_555
Li0 O5 1.968800 1_554
Li0 O4 1.968843 1_455
Li1 O6 1.970696 1_555
Li1 O2 1.970746 1_555
Li1 O1 1.970758 1_555
Co0 O7 1.908452 1_444
Co0 O6 2.008291 1_455
Co0 O2 2.008335 1_555
Co0 O1 2.008599 1_554
Co1 O3 1.907827 1_555
Co1 O0 2.008490 1_555
Co1 O4 2.008698 1_555
Co1 O5 2.008809 1_555
O0 P0 1.566203 1_455
O1 P1 1.566216 1_455
O2 P1 1.566111 1_554
O3 P1 1.521532 1_565
O4 P0 1.566038 1_554
O5 P0 1.566268 1_555
O6 P1 1.566036 1_555
O7 P0 1.521421 1_555
