# generated using pymatgen
data_Li3V3CoO8
_symmetry_space_group_name_H-M   'P 1'
_cell_length_a   5.87929281
_cell_length_b   5.87929281
_cell_length_c   5.93592121
_cell_angle_alpha   60.46018495
_cell_angle_beta   60.46018495
_cell_angle_gamma   59.30291931
_symmetry_Int_Tables_number   1
_chemical_formula_structural   Li3V3CoO8
_chemical_formula_sum   'Li3 V3 Co1 O8'
_cell_volume   145.29084849
_cell_formula_units_Z   1
loop_
 _symmetry_equiv_pos_site_id
 _symmetry_equiv_pos_as_xyz
  1  'x, y, z'
loop_
 _atom_site_type_symbol
 _atom_site_label
 _atom_site_symmetry_multiplicity
 _atom_site_fract_x
 _atom_site_fract_y
 _atom_site_fract_z
 _atom_site_occupancy
  Li  Li0  1  0.00000000  0.50000000  0.00000000  1
  Li  Li1  1  0.00000000  0.00000000  0.00000000  1
  Li  Li2  1  0.50000000  0.00000000  0.00000000  1
  V  V0  1  0.50000000  0.00000000  0.50000000  1
  V  V1  1  0.50000000  0.50000000  0.50000000  1
  V  V2  1  0.00000000  0.50000000  0.50000000  1
  Co  Co0  1  0.00000000  0.00000000  0.50000000  1
  O  O0  1  0.73891600  0.73891600  0.27027700  1
  O  O1  1  0.23652500  0.74579700  0.28386800  1
  O  O2  1  0.23002100  0.23002100  0.28675500  1
  O  O3  1  0.26108400  0.26108400  0.72972300  1
  O  O4  1  0.74579700  0.23652500  0.28386800  1
  O  O5  1  0.76347500  0.25420300  0.71613200  1
  O  O6  1  0.76997900  0.76997900  0.71324500  1
  O  O7  1  0.25420300  0.76347500  0.71613200  1
loop_
_geom_bond_atom_site_label_1
_geom_bond_atom_site_label_2
_geom_bond_distance
_geom_bond_site_symmetry_2
Li0 O3 2.120278 1_554
Li0 O0 2.120278 1_455
Li0 O2 2.158640 1_555
Li0 O6 2.158640 1_454
Li0 O7 2.186138 1_554
Li0 O4 2.186138 1_455
Li1 O4 2.170727 1_455
Li1 O1 2.170727 1_545
Li1 O7 2.170727 1_544
Li1 O5 2.170727 1_454
Li1 O0 2.198942 1_445
Li1 O3 2.198942 1_554
Li2 O0 2.120278 1_545
Li2 O3 2.120278 1_554
Li2 O2 2.158640 1_555
Li2 O6 2.158640 1_544
Li2 O5 2.186138 1_554
Li2 O1 2.186138 1_545
Co0 O2 1.936851 1_555
Co0 O6 1.936851 1_445
Co0 O5 1.955220 1_455
Co0 O7 1.955220 1_545
Co0 O1 1.955220 1_545
Co0 O4 1.955220 1_455
O0 V1 2.010635 1_555
O0 V0 2.040231 1_565
O0 V2 2.040231 1_655
O1 V1 1.994935 1_555
O1 V2 2.032855 1_555
O2 V0 2.013004 1_555
O2 V2 2.013004 1_555
O3 V1 2.010635 1_555
O3 V2 2.040231 1_555
O3 V0 2.040231 1_555
O4 V1 1.994935 1_555
O4 V0 2.032855 1_555
O5 V1 1.994935 1_555
O5 V2 2.032855 1_655
O6 V2 2.013004 1_655
O6 V0 2.013004 1_565
O7 V1 1.994935 1_555
O7 V0 2.032855 1_565
