# generated using pymatgen
data_ZnH2(CO2)2
_symmetry_space_group_name_H-M   'P 1'
_cell_length_a   13.80571900
_cell_length_b   7.79878800
_cell_length_c   12.75638555
_cell_angle_alpha   78.29994002
_cell_angle_beta   90.00000000
_cell_angle_gamma   90.00000000
_symmetry_Int_Tables_number   1
_chemical_formula_structural   ZnH2(CO2)2
_chemical_formula_sum   'Zn12 H24 C24 O48'
_cell_volume   1344.91614972
_cell_formula_units_Z   12
loop_
 _symmetry_equiv_pos_site_id
 _symmetry_equiv_pos_as_xyz
  1  'x, y, z'
loop_
 _atom_site_type_symbol
 _atom_site_label
 _atom_site_symmetry_multiplicity
 _atom_site_fract_x
 _atom_site_fract_y
 _atom_site_fract_z
 _atom_site_occupancy
  Zn  Zn0  1  0.01145800  0.49995400  0.10218400  1
  Zn  Zn1  1  0.51145800  0.50004600  0.89781600  1
  Zn  Zn2  1  0.11782800  0.19724400  0.99932000  1
  Zn  Zn3  1  0.61782800  0.80275600  0.00068000  1
  Zn  Zn4  1  0.99549500  0.90935500  0.92485700  1
  Zn  Zn5  1  0.49549500  0.09064500  0.07514300  1
  Zn  Zn6  1  0.76197000  0.72855100  0.42552200  1
  Zn  Zn7  1  0.26197000  0.27144900  0.57447800  1
  Zn  Zn8  1  0.87627700  0.36658600  0.52287000  1
  Zn  Zn9  1  0.37627700  0.63341400  0.47713000  1
  Zn  Zn10  1  0.74594200  0.01233800  0.58512900  1
  Zn  Zn11  1  0.24594200  0.98766200  0.41487100  1
  H  H0  1  0.13784200  0.32121600  0.28949800  1
  H  H1  1  0.63784200  0.67878400  0.71050200  1
  H  H2  1  0.12094900  0.52776500  0.79844600  1
  H  H3  1  0.62094900  0.47223500  0.20155400  1
  H  H4  1  0.92095300  0.73015100  0.24934400  1
  H  H5  1  0.42095300  0.26984900  0.75065600  1
  H  H6  1  0.82535100  0.12213600  0.04770700  1
  H  H7  1  0.32535100  0.87786400  0.95229300  1
  H  H8  1  0.79922200  0.58118700  0.08973000  1
  H  H9  1  0.29922200  0.41881300  0.91027000  1
  H  H10  1  0.13017600  0.04957300  0.71301800  1
  H  H11  1  0.63017600  0.95042700  0.28698200  1
  H  H12  1  0.20700600  0.85391500  0.15723500  1
  H  H13  1  0.70700600  0.14608500  0.84276500  1
  H  H14  1  0.91370900  0.73751200  0.70048400  1
  H  H15  1  0.41370900  0.26248800  0.29951600  1
  H  H16  1  0.52169800  0.93970900  0.53702200  1
  H  H17  1  0.02169800  0.06029100  0.46297800  1
  H  H18  1  0.58552000  0.45074800  0.49879500  1
  H  H19  1  0.08552000  0.54925200  0.50120500  1
  H  H20  1  0.87918500  0.20751200  0.30040700  1
  H  H21  1  0.37918500  0.79248800  0.69959300  1
  H  H22  1  0.92752600  0.23460000  0.77061200  1
  H  H23  1  0.42752600  0.76540000  0.22938800  1
  C  C0  1  0.14151400  0.22453000  0.23701600  1
  C  C1  1  0.64151400  0.77547000  0.76298400  1
  C  C2  1  0.08774900  0.58109500  0.86400100  1
  C  C3  1  0.58774900  0.41890500  0.13599900  1
  C  C4  1  0.92427600  0.59651400  0.29898600  1
  C  C5  1  0.42427600  0.40348600  0.70101400  1
  C  C6  1  0.89381200  0.19673400  0.04323900  1
  C  C7  1  0.39381200  0.80326600  0.95676100  1
  C  C8  1  0.82617300  0.70335700  0.03869900  1
  C  C9  1  0.32617300  0.29664300  0.96130100  1
  C  C10  1  0.14107200  0.15371700  0.75891400  1
  C  C11  1  0.64107200  0.84628300  0.24108600  1
  C  C12  1  0.14825300  0.80197700  0.11407600  1
  C  C13  1  0.64825300  0.19802300  0.88592400  1
  C  C14  1  0.88722600  0.68132800  0.63300500  1
  C  C15  1  0.38722600  0.31867200  0.36699500  1
  C  C16  1  0.56265800  0.84523000  0.50019900  1
  C  C17  1  0.06265800  0.15477000  0.49980100  1
  C  C18  1  0.65231500  0.37511300  0.52234300  1
  C  C19  1  0.15231500  0.62488700  0.47765700  1
  C  C20  1  0.84314000  0.10661700  0.36119900  1
  C  C21  1  0.34314000  0.89338300  0.63880100  1
  C  C22  1  0.89087500  0.12449300  0.74449100  1
  C  C23  1  0.39087500  0.87550700  0.25550900  1
  O  O0  1  0.09886200  0.26933900  0.14591300  1
  O  O1  1  0.59886200  0.73066100  0.85408700  1
  O  O2  1  0.18481800  0.08203200  0.26709200  1
  O  O3  1  0.68481800  0.91796800  0.73290800  1
  O  O4  1  0.07860300  0.47287500  0.95415300  1
  O  O5  1  0.57860300  0.52712500  0.04584700  1
  O  O6  1  0.06263200  0.73903700  0.84372200  1
  O  O7  1  0.56263200  0.26096300  0.15627800  1
  O  O8  1  0.96318700  0.47459900  0.26345200  1
  O  O9  1  0.46318700  0.52540100  0.73654800  1
  O  O10  1  0.88608700  0.57869500  0.39264400  1
  O  O11  1  0.38608700  0.42130500  0.60735600  1
  O  O12  1  0.89569400  0.33048300  0.08451000  1
  O  O13  1  0.39569400  0.66951700  0.91549000  1
  O  O14  1  0.96444500  0.13771900  0.99585900  1
  O  O15  1  0.46444500  0.86228100  0.00414100  1
  O  O16  1  0.91894700  0.71593800  0.02915000  1
  O  O17  1  0.41894700  0.28406200  0.97085000  1
  O  O18  1  0.76781800  0.81945200  0.99444800  1
  O  O19  1  0.26781800  0.18054800  0.00555200  1
  O  O20  1  0.09928700  0.12844500  0.85035700  1
  O  O21  1  0.59928700  0.87155500  0.14964300  1
  O  O22  1  0.19191900  0.28636100  0.71949300  1
  O  O23  1  0.69191900  0.71363900  0.28050700  1
  O  O24  1  0.10609700  0.91427900  0.04063600  1
  O  O25  1  0.60609700  0.08572100  0.95936400  1
  O  O26  1  0.12771400  0.64219900  0.14074700  1
  O  O27  1  0.62771400  0.35780100  0.85925300  1
  O  O28  1  0.82801700  0.77794200  0.56854100  1
  O  O29  1  0.32801700  0.22205800  0.43145900  1
  O  O30  1  0.91702100  0.53185000  0.62567100  1
  O  O31  1  0.41702100  0.46815000  0.37432900  1
  O  O32  1  0.65446900  0.87135200  0.49112600  1
  O  O33  1  0.15446900  0.12864800  0.50887400  1
  O  O34  1  0.51987200  0.72257700  0.46869900  1
  O  O35  1  0.01987200  0.27742300  0.53130100  1
  O  O36  1  0.73185000  0.46402400  0.51008700  1
  O  O37  1  0.23185000  0.53597600  0.48991300  1
  O  O38  1  0.64433000  0.21368200  0.55784400  1
  O  O39  1  0.14433000  0.78631800  0.44215600  1
  O  O40  1  0.82361200  0.15104400  0.45068500  1
  O  O41  1  0.32361200  0.84895600  0.54931500  1
  O  O42  1  0.82494900  0.96099200  0.33754100  1
  O  O43  1  0.32494900  0.03900800  0.66245900  1
  O  O44  1  0.84031000  0.16420000  0.65844600  1
  O  O45  1  0.34031000  0.83580000  0.34155400  1
  O  O46  1  0.90032900  0.97112200  0.79827100  1
  O  O47  1  0.40032900  0.02887800  0.20172900  1
loop_
_geom_bond_atom_site_label_1
_geom_bond_atom_site_label_2
_geom_bond_distance
_geom_bond_site_symmetry_2
C0 H0 1.106382 1_555
C0 O2 1.251679 1_555
C0 O0 1.286360 1_555
C1 H1 1.106382 1_555
C1 O3 1.251679 1_555
C1 O1 1.286360 1_555
C2 H2 1.106088 1_555
C2 O6 1.255050 1_555
C2 O4 1.287298 1_555
C3 H3 1.106088 1_555
C3 O7 1.255050 1_555
C3 O5 1.287298 1_555
C4 H4 1.105276 1_555
C4 O8 1.254129 1_555
C4 O10 1.287377 1_555
C5 H5 1.105276 1_555
C5 O9 1.254129 1_555
C5 O11 1.287377 1_555
C6 H6 1.105249 1_555
C6 O12 1.260390 1_555
C6 O14 1.280952 1_554
C7 H7 1.105249 1_555
C7 O13 1.260390 1_555
C7 O15 1.280952 1_556
C8 H8 1.103830 1_555
C8 O18 1.257041 1_554
C8 O16 1.288447 1_555
C9 H9 1.103830 1_555
C9 O19 1.257041 1_556
C9 O17 1.288447 1_555
C10 H10 1.103595 1_555
C10 O22 1.266801 1_555
C10 O20 1.280259 1_555
C11 H11 1.103595 1_555
C11 O23 1.266801 1_555
C11 O21 1.280259 1_555
C12 H12 1.102520 1_555
C12 O26 1.255753 1_555
C12 O24 1.284777 1_555
C13 H13 1.102520 1_555
C13 O27 1.255753 1_555
C13 O25 1.284777 1_555
C14 H14 1.104352 1_555
C14 O30 1.257439 1_555
C14 O28 1.288731 1_555
C15 H15 1.104352 1_555
C15 O31 1.257439 1_555
C15 O29 1.288731 1_555
C16 H16 1.106207 1_555
C16 O34 1.257477 1_555
C16 O32 1.285276 1_555
C17 H17 1.106207 1_555
C17 O35 1.257477 1_555
C17 O33 1.285276 1_555
C18 H18 1.103029 1_555
C18 O38 1.253395 1_555
C18 O36 1.291109 1_555
C19 H19 1.103029 1_555
C19 O39 1.253395 1_555
C19 O37 1.291109 1_555
C20 H20 1.104842 1_555
C20 O42 1.258161 1_545
C20 O40 1.286935 1_555
C21 H21 1.104842 1_555
C21 O43 1.258161 1_565
C21 O41 1.286935 1_555
C22 H22 1.104750 1_555
C22 O46 1.259187 1_545
C22 O44 1.284578 1_555
C23 H23 1.104750 1_555
C23 O47 1.259187 1_565
C23 O45 1.284578 1_555
O0 Zn2 2.075574 1_554
O0 Zn0 2.143595 1_555
O1 Zn3 2.075574 1_556
O1 Zn1 2.143595 1_555
O2 Zn11 2.060281 1_545
O3 Zn10 2.060281 1_565
O4 Zn0 2.152085 1_556
O4 Zn2 2.177989 1_555
O5 Zn1 2.152085 1_554
O5 Zn3 2.177989 1_555
O6 Zn4 2.062081 1_455
O7 Zn5 2.062081 1_555
O8 Zn0 2.133140 1_655
O9 Zn1 2.133140 1_555
O10 Zn8 2.097574 1_555
O10 Zn6 2.162570 1_555
O11 Zn9 2.097574 1_555
O11 Zn7 2.162570 1_555
O12 Zn0 2.114888 1_655
O13 Zn1 2.114888 1_555
O14 Zn2 2.170216 1_655
O14 Zn4 2.197760 1_545
O15 Zn3 2.170216 1_555
O15 Zn5 2.197760 1_565
O16 Zn4 2.085236 1_554
O16 Zn0 2.167936 1_655
O17 Zn5 2.085236 1_556
O17 Zn1 2.167936 1_555
O18 Zn3 2.075321 1_556
O19 Zn2 2.075321 1_554
O20 Zn2 2.092317 1_555
O20 Zn4 2.284140 1_445
O21 Zn3 2.092317 1_555
O21 Zn5 2.284140 1_565
O22 Zn7 2.111416 1_555
O23 Zn6 2.111416 1_555
O24 Zn4 2.130099 1_454
O24 Zn2 2.168452 1_564
O25 Zn5 2.130099 1_556
O25 Zn3 2.168452 1_546
O26 Zn0 2.066390 1_555
O27 Zn1 2.066390 1_555
O28 Zn6 2.143192 1_555
O28 Zn10 2.197085 1_565
O29 Zn7 2.143192 1_555
O29 Zn11 2.197085 1_545
O30 Zn8 2.093501 1_555
O31 Zn9 2.093501 1_555
O32 Zn6 2.126325 1_555
O32 Zn10 2.185500 1_565
O33 Zn7 2.126325 1_555
O33 Zn11 2.185500 1_545
O34 Zn9 2.096379 1_555
O35 Zn8 2.096379 1_455
O36 Zn8 2.128260 1_555
O36 Zn6 2.165628 1_555
O37 Zn9 2.128260 1_555
O37 Zn7 2.165628 1_555
O38 Zn10 2.081600 1_555
O39 Zn11 2.081600 1_555
O40 Zn10 2.123401 1_555
O40 Zn8 2.197721 1_555
O41 Zn11 2.123401 1_555
O41 Zn9 2.197721 1_555
O42 Zn6 2.115781 1_555
O43 Zn7 2.115781 1_555
O44 Zn10 2.103319 1_555
O44 Zn8 2.149819 1_555
O45 Zn11 2.103319 1_555
O45 Zn9 2.149819 1_555
O46 Zn4 2.061611 1_555
O47 Zn5 2.061611 1_555
