# generated using pymatgen
data_V3Cr2Sb3O16
_symmetry_space_group_name_H-M   'P 1'
_cell_length_a   6.11976766
_cell_length_b   6.11976766
_cell_length_c   9.11469822
_cell_angle_alpha   89.97424296
_cell_angle_beta   89.97424296
_cell_angle_gamma   59.35081498
_symmetry_Int_Tables_number   1
_chemical_formula_structural   V3Cr2Sb3O16
_chemical_formula_sum   'V3 Cr2 Sb3 O16'
_cell_volume   293.67326717
_cell_formula_units_Z   1
loop_
 _symmetry_equiv_pos_site_id
 _symmetry_equiv_pos_as_xyz
  1  'x, y, z'
loop_
 _atom_site_type_symbol
 _atom_site_label
 _atom_site_symmetry_multiplicity
 _atom_site_fract_x
 _atom_site_fract_y
 _atom_site_fract_z
 _atom_site_occupancy
  V  V0  1  0.83168100  0.83168100  0.79221900  1
  V  V1  1  0.16672200  0.66631700  0.29132900  1
  V  V2  1  0.66631700  0.16672200  0.29132900  1
  Cr  Cr0  1  0.66949700  0.66949700  0.51066800  1
  Cr  Cr1  1  0.33876400  0.33876400  0.01538600  1
  Sb  Sb0  1  0.33404600  0.83099300  0.78865300  1
  Sb  Sb1  1  0.83099300  0.33404600  0.78865300  1
  Sb  Sb2  1  0.16861800  0.16861800  0.29035100  1
  O  O0  1  0.33538400  0.82952100  0.39343900  1
  O  O1  1  0.52128400  0.52128400  0.65357300  1
  O  O2  1  0.65958500  0.65958500  0.90902500  1
  O  O3  1  0.00282000  0.00282000  0.67844100  1
  O  O4  1  0.99947700  0.99947700  0.18762400  1
  O  O5  1  0.82952100  0.33538400  0.39343900  1
  O  O6  1  0.51971800  0.95126900  0.66190700  1
  O  O7  1  0.95126900  0.51971800  0.66190700  1
  O  O8  1  0.16600600  0.16600600  0.90054800  1
  O  O9  1  0.83455800  0.83455800  0.38898300  1
  O  O10  1  0.05154800  0.48072700  0.16109200  1
  O  O11  1  0.48072700  0.05154800  0.16109200  1
  O  O12  1  0.33323200  0.33323200  0.40452500  1
  O  O13  1  0.16991100  0.66672600  0.89420800  1
  O  O14  1  0.47120600  0.47120600  0.17164000  1
  O  O15  1  0.66672600  0.16991100  0.89420800  1
loop_
_geom_bond_atom_site_label_1
_geom_bond_atom_site_label_2
_geom_bond_distance
_geom_bond_site_symmetry_2
Cr0 O6 2.025689 1_555
Cr0 O7 2.025689 1_555
Cr0 O1 2.044180 1_555
Cr0 O5 2.059368 1_555
Cr0 O0 2.059368 1_555
Cr0 O9 2.075865 1_555
Cr1 O14 2.003520 1_555
Cr1 O10 2.012474 1_555
Cr1 O11 2.012474 1_555
Cr1 O15 2.049504 1_554
Cr1 O13 2.049504 1_554
Cr1 O8 2.114882 1_554
O0 V1 1.995469 1_555
O0 Sb2 2.017592 1_565
O1 Sb0 2.051284 1_555
O1 Sb1 2.051284 1_555
O2 Sb1 2.035512 1_555
O2 Sb0 2.035512 1_555
O2 V0 2.116784 1_555
O3 Sb0 2.012804 1_545
O3 Sb1 2.012804 1_455
O3 V0 2.094203 1_445
O4 V1 1.992368 1_655
O4 V2 1.992368 1_565
O4 Sb2 2.028232 1_665
O5 V2 1.995469 1_555
O5 Sb2 2.017592 1_655
O6 Sb0 2.004565 1_555
O6 V0 2.041545 1_555
O7 Sb1 2.004565 1_555
O7 V0 2.041545 1_555
O8 Sb1 2.037738 1_455
O8 Sb0 2.037738 1_545
O9 V1 1.962089 1_655
O9 V2 1.962089 1_565
O10 V1 2.003511 1_555
O10 Sb2 2.037919 1_555
O11 V2 2.003511 1_555
O11 Sb2 2.037919 1_555
O12 V1 2.034513 1_555
O12 V2 2.034513 1_555
O12 Sb2 2.036977 1_555
O13 Sb0 1.993228 1_555
O13 V0 2.009514 1_455
O14 V1 1.954198 1_555
O14 V2 1.954198 1_555
O15 Sb1 1.993228 1_555
O15 V0 2.009514 1_545
