# generated using pymatgen
data_Mn9(PO4)8
_symmetry_space_group_name_H-M   'P 1'
_cell_length_a   8.92342300
_cell_length_b   8.98185149
_cell_length_c   9.28420561
_cell_angle_alpha   112.14769272
_cell_angle_beta   99.83738427
_cell_angle_gamma   102.26705518
_symmetry_Int_Tables_number   1
_chemical_formula_structural   Mn9(PO4)8
_chemical_formula_sum   'Mn9 P8 O32'
_cell_volume   647.07109174
_cell_formula_units_Z   1
loop_
 _symmetry_equiv_pos_site_id
 _symmetry_equiv_pos_as_xyz
  1  'x, y, z'
loop_
 _atom_site_type_symbol
 _atom_site_label
 _atom_site_symmetry_multiplicity
 _atom_site_fract_x
 _atom_site_fract_y
 _atom_site_fract_z
 _atom_site_occupancy
  Mn  Mn0  1  0.67471800  0.30464800  0.54899400  1
  Mn  Mn1  1  0.71727000  0.87495700  0.43993200  1
  Mn  Mn2  1  0.00000000  0.50000000  0.50000000  1
  Mn  Mn3  1  0.28273000  0.12504300  0.56006800  1
  Mn  Mn4  1  0.00000000  0.00000000  0.00000000  1
  Mn  Mn5  1  0.22006800  0.70375400  0.94710500  1
  Mn  Mn6  1  0.77993200  0.29624600  0.05289500  1
  Mn  Mn7  1  0.50000000  0.50000000  0.00000000  1
  Mn  Mn8  1  0.32528200  0.69535200  0.45100600  1
  P  P0  1  0.65851700  0.46157600  0.28074800  1
  P  P1  1  0.85097500  0.62363700  0.90295300  1
  P  P2  1  0.05065300  0.88420600  0.65230100  1
  P  P3  1  0.14902500  0.37636300  0.09704700  1
  P  P4  1  0.34148300  0.53842400  0.71925200  1
  P  P5  1  0.40512000  0.95638800  0.29503100  1
  P  P6  1  0.94934700  0.11579400  0.34769900  1
  P  P7  1  0.59488000  0.04361200  0.70496900  1
  O  O0  1  0.12058700  0.74766800  0.55316900  1
  O  O1  1  0.12506100  0.05813300  0.65878200  1
  O  O2  1  0.13341800  0.16970700  0.41659100  1
  O  O3  1  0.97352700  0.33139500  0.99568300  1
  O  O4  1  0.62607300  0.43346100  0.42362700  1
  O  O5  1  0.16082400  0.52542100  0.71896900  1
  O  O6  1  0.26661500  0.47631900  0.03667300  1
  O  O7  1  0.16542200  0.48255100  0.27873000  1
  O  O8  1  0.86658200  0.83029300  0.58340900  1
  O  O9  1  0.43792100  0.08734900  0.70888200  1
  O  O10  1  0.70918700  0.14313500  0.64088500  1
  O  O11  1  0.82334200  0.79655800  0.92968900  1
  O  O12  1  0.73338500  0.52368100  0.96332700  1
  O  O13  1  0.17665800  0.20344200  0.07031100  1
  O  O14  1  0.42372700  0.68838200  0.89411200  1
  O  O15  1  0.83457800  0.51744900  0.72127000  1
  O  O16  1  0.39155600  0.38737300  0.72804500  1
  O  O17  1  0.87941300  0.25233200  0.44683100  1
  O  O18  1  0.56207900  0.91265100  0.29111800  1
  O  O19  1  0.55821600  0.85533300  0.57586300  1
  O  O20  1  0.37392700  0.56653900  0.57637300  1
  O  O21  1  0.44178400  0.14466700  0.42413700  1
  O  O22  1  0.87493900  0.94186700  0.34121800  1
  O  O23  1  0.91498500  0.11217000  0.17545200  1
  O  O24  1  0.83917600  0.47457900  0.28103100  1
  O  O25  1  0.08501500  0.88783000  0.82454800  1
  O  O26  1  0.60844400  0.61262700  0.27195500  1
  O  O27  1  0.57627300  0.31161800  0.10588800  1
  O  O28  1  0.29081300  0.85686500  0.35911500  1
  O  O29  1  0.02647300  0.66860500  0.00431700  1
  O  O30  1  0.68140800  0.07057300  0.87468300  1
  O  O31  1  0.31859200  0.92942700  0.12531700  1
loop_
_geom_bond_atom_site_label_1
_geom_bond_atom_site_label_2
_geom_bond_distance
_geom_bond_site_symmetry_2
Mn0 O4 1.984413 1_555
Mn0 O10 1.989985 1_555
Mn0 O15 2.000777 1_555
Mn0 O21 2.092971 1_555
Mn0 O17 2.253338 1_555
Mn1 O22 1.917603 1_555
Mn1 O8 1.932395 1_555
Mn1 O18 1.959438 1_555
Mn1 O19 2.076449 1_555
Mn1 O26 2.160207 1_555
Mn1 O10 2.453450 1_565
Mn2 O0 2.079280 1_555
Mn2 O17 2.079280 1_455
Mn2 O5 2.181375 1_555
Mn2 O24 2.181375 1_455
Mn2 O7 2.704716 1_555
Mn2 O15 2.704716 1_455
Mn3 O1 1.917603 1_555
Mn3 O2 1.932395 1_555
Mn3 O9 1.959438 1_555
Mn3 O21 2.076449 1_555
Mn3 O16 2.160207 1_555
Mn3 O28 2.453450 1_545
Mn4 O25 1.937426 1_544
Mn4 O23 1.937426 1_455
Mn4 O13 1.942954 1_555
Mn4 O11 1.942954 1_444
Mn5 O29 1.890609 1_556
Mn5 O31 1.958592 1_556
Mn5 O14 1.981102 1_555
Mn5 O5 2.007696 1_555
Mn5 O6 2.561319 1_556
Mn5 O25 2.697619 1_555
Mn6 O3 1.890609 1_554
Mn6 O30 1.958592 1_554
Mn6 O27 1.981102 1_555
Mn6 O24 2.007696 1_555
Mn6 O12 2.561319 1_554
Mn6 O23 2.697619 1_555
Mn7 O6 2.146399 1_555
Mn7 O12 2.146399 1_554
Mn7 O26 2.271149 1_555
Mn7 O16 2.271149 1_554
Mn7 O27 2.409884 1_555
Mn7 O14 2.409884 1_554
Mn8 O20 1.984413 1_555
Mn8 O28 1.989985 1_555
Mn8 O7 2.000777 1_555
Mn8 O19 2.092971 1_555
Mn8 O0 2.253338 1_555
O0 P2 1.552712 1_555
O1 P2 1.536104 1_545
O2 P6 1.552749 1_455
O3 P3 1.562783 1_656
O4 P0 1.503319 1_555
O5 P4 1.590854 1_555
O6 P3 1.549630 1_555
O7 P3 1.555526 1_555
O8 P2 1.552749 1_655
O9 P7 1.535509 1_555
O10 P7 1.553831 1_555
O11 P1 1.558097 1_555
O12 P1 1.549630 1_555
O13 P3 1.558097 1_555
O14 P4 1.585070 1_555
O15 P1 1.555526 1_555
O16 P4 1.541313 1_555
O17 P6 1.552712 1_555
O18 P5 1.535509 1_555
O19 P7 1.583075 1_565
O20 P4 1.503319 1_555
O21 P5 1.583075 1_545
O22 P6 1.536104 1_565
O23 P6 1.562498 1_555
O24 P0 1.590854 1_555
O25 P2 1.562498 1_555
O26 P0 1.541313 1_555
O27 P0 1.585070 1_555
O28 P5 1.553831 1_555
O29 P1 1.562783 1_454
O30 P7 1.534489 1_555
O31 P5 1.534489 1_555
