# generated using pymatgen
data_Ti3V2Co(PO4)6
_symmetry_space_group_name_H-M   'P 1'
_cell_length_a   8.57274130
_cell_length_b   8.57274130
_cell_length_c   8.57274220
_cell_angle_alpha   60.88512622
_cell_angle_beta   60.88512622
_cell_angle_gamma   60.88512333
_symmetry_Int_Tables_number   1
_chemical_formula_structural   Ti3V2Co(PO4)6
_chemical_formula_sum   'Ti3 V2 Co1 P6 O24'
_cell_volume   454.38529546
_cell_formula_units_Z   1
loop_
 _symmetry_equiv_pos_site_id
 _symmetry_equiv_pos_as_xyz
  1  'x, y, z'
loop_
 _atom_site_type_symbol
 _atom_site_label
 _atom_site_symmetry_multiplicity
 _atom_site_fract_x
 _atom_site_fract_y
 _atom_site_fract_z
 _atom_site_occupancy
  Ti  Ti0  1  0.64532000  0.64532000  0.64532000  1
  Ti  Ti1  1  0.85743500  0.85743500  0.85743500  1
  Ti  Ti2  1  0.35461200  0.35461200  0.35461200  1
  V  V0  1  0.00111600  0.00111600  0.00111600  1
  V  V1  1  0.50118700  0.50118700  0.50118700  1
  Co  Co0  1  0.14280100  0.14280100  0.14280100  1
  P  P0  1  0.95548100  0.24851100  0.54135000  1
  P  P1  1  0.54135000  0.95548100  0.24851100  1
  P  P2  1  0.24851100  0.54135000  0.95548100  1
  P  P3  1  0.74908300  0.45794600  0.04406300  1
  P  P4  1  0.45794600  0.04406300  0.74908300  1
  P  P5  1  0.04406300  0.74908300  0.45794600  1
  O  O0  1  0.49496000  0.11874400  0.31457900  1
  O  O1  1  0.31457900  0.49496000  0.11874400  1
  O  O2  1  0.11874400  0.31457900  0.49496000  1
  O  O3  1  0.94187400  0.09010900  0.74021400  1
  O  O4  1  0.98738500  0.18411900  0.39108500  1
  O  O5  1  0.76054600  0.41182900  0.56722900  1
  O  O6  1  0.74021400  0.94187400  0.09010900  1
  O  O7  1  0.56722900  0.76054600  0.41182900  1
  O  O8  1  0.81509300  0.61951100  0.99813800  1
  O  O9  1  0.41182900  0.56722900  0.76054600  1
  O  O10  1  0.90365300  0.26524500  0.05265600  1
  O  O11  1  0.61951100  0.99813800  0.81509300  1
  O  O12  1  0.39108500  0.98738500  0.18411900  1
  O  O13  1  0.09010900  0.74021400  0.94187400  1
  O  O14  1  0.58660100  0.44546000  0.23866000  1
  O  O15  1  0.18411900  0.39108500  0.98738500  1
  O  O16  1  0.44546000  0.23866000  0.58660100  1
  O  O17  1  0.26524500  0.05265600  0.90365300  1
  O  O18  1  0.23866000  0.58660100  0.44546000  1
  O  O19  1  0.99813800  0.81509300  0.61951100  1
  O  O20  1  0.05265600  0.90365300  0.26524500  1
  O  O21  1  0.88648500  0.67300900  0.51391400  1
  O  O22  1  0.67300900  0.51391400  0.88648500  1
  O  O23  1  0.51391400  0.88648500  0.67300900  1
loop_
_geom_bond_atom_site_label_1
_geom_bond_atom_site_label_2
_geom_bond_distance
_geom_bond_site_symmetry_2
Co0 O12 1.986399 1_545
Co0 O15 1.986399 1_554
Co0 O4 1.986399 1_455
Co0 O10 2.135502 1_455
Co0 O20 2.135502 1_545
Co0 O17 2.135503 1_554
O0 P1 1.564746 1_545
O0 Ti2 1.886805 1_555
O1 P2 1.564746 1_554
O1 Ti2 1.886805 1_555
O2 P0 1.564746 1_455
O2 Ti2 1.886805 1_555
O3 P0 1.572195 1_555
O3 Ti1 2.063759 1_545
O3 V0 2.215939 1_656
O4 P0 1.497048 1_555
O5 P0 1.570594 1_555
O5 Ti0 2.041309 1_555
O5 V1 2.235268 1_555
O6 P1 1.572195 1_555
O6 Ti1 2.063759 1_554
O6 V0 2.215938 1_665
O7 P1 1.570594 1_555
O7 Ti0 2.041309 1_555
O7 V1 2.235268 1_555
O8 P3 1.552056 1_556
O8 Ti1 1.909760 1_555
O9 P2 1.570594 1_555
O9 Ti0 2.041309 1_555
O9 V1 2.235268 1_555
O10 P3 1.528625 1_555
O10 V0 2.189453 1_655
O11 P4 1.552056 1_565
O11 Ti1 1.909759 1_555
O12 P1 1.497048 1_555
O13 P2 1.572195 1_555
O13 Ti1 2.063759 1_455
O13 V0 2.215938 1_566
O14 P3 1.563564 1_555
O14 Ti2 2.092853 1_555
O14 V1 2.220743 1_555
O15 P2 1.497048 1_555
O16 P4 1.563564 1_555
O16 Ti2 2.092854 1_555
O16 V1 2.220743 1_555
O17 P4 1.528625 1_555
O17 V0 2.189453 1_556
O18 P5 1.563564 1_555
O18 Ti2 2.092853 1_555
O18 V1 2.220743 1_555
O19 P5 1.552056 1_655
O19 Ti1 1.909760 1_555
O20 P5 1.528625 1_555
O20 V0 2.189454 1_565
O21 P5 1.549992 1_655
O21 Ti0 1.884315 1_555
O22 P3 1.549992 1_556
O22 Ti0 1.884315 1_555
O23 P4 1.549992 1_565
O23 Ti0 1.884315 1_555
