# generated using pymatgen
data_Cs3TlO3
_symmetry_space_group_name_H-M   'P 1'
_cell_length_a   7.41885149
_cell_length_b   7.41885149
_cell_length_c   7.42961204
_cell_angle_alpha   83.50467494
_cell_angle_beta   83.50467494
_cell_angle_gamma   114.21141232
_symmetry_Int_Tables_number   1
_chemical_formula_structural   Cs3TlO3
_chemical_formula_sum   'Cs6 Tl2 O6'
_cell_volume   364.77157557
_cell_formula_units_Z   2
loop_
 _symmetry_equiv_pos_site_id
 _symmetry_equiv_pos_as_xyz
  1  'x, y, z'
loop_
 _atom_site_type_symbol
 _atom_site_label
 _atom_site_symmetry_multiplicity
 _atom_site_fract_x
 _atom_site_fract_y
 _atom_site_fract_z
 _atom_site_occupancy
  Cs  Cs0  1  0.63403348  0.63403348  0.15632266  1
  Cs  Cs1  1  0.80378983  0.19621017  -0.00000000  1
  Cs  Cs2  1  0.19621017  0.80378983  -0.00000000  1
  Cs  Cs3  1  0.74372690  0.25627310  0.50000000  1
  Cs  Cs4  1  0.25627310  0.74372690  0.50000000  1
  Cs  Cs5  1  0.36596652  0.36596652  0.84367734  1
  Tl  Tl0  1  0.81990368  0.81990368  0.65183524  1
  Tl  Tl1  1  0.18009632  0.18009632  0.34816476  1
  O  O0  1  0.90296160  0.90296160  0.34475095  1
  O  O1  1  0.55501318  0.83971497  0.77356435  1
  O  O2  1  0.83971497  0.55501318  0.77356435  1
  O  O3  1  0.16028503  0.44498682  0.22643565  1
  O  O4  1  0.44498682  0.16028503  0.22643565  1
  O  O5  1  0.09703840  0.09703840  0.65524905  1
loop_
_geom_bond_atom_site_label_1
_geom_bond_atom_site_label_2
_geom_bond_distance
_geom_bond_site_symmetry_2
Cs0 O0 2.814240 1_555
Cs0 O4 3.157320 1_555
Cs0 O3 3.157320 1_555
Cs0 O2 3.299720 1_554
Cs0 O1 3.299720 1_554
Cs1 O2 2.879322 1_554
Cs1 O4 2.879322 1_555
Cs1 O1 3.307103 1_544
Cs1 O3 3.307103 1_655
Cs1 O5 3.509060 1_654
Cs1 O0 3.509060 1_545
Cs2 O1 2.879322 1_554
Cs2 O3 2.879322 1_555
Cs2 O2 3.307103 1_454
Cs2 O4 3.307103 1_565
Cs2 O5 3.509060 1_564
Cs2 O0 3.509060 1_455
Cs3 O4 3.098738 1_555
Cs3 O2 3.098738 1_555
Cs3 O1 3.166688 1_545
Cs3 O3 3.166688 1_655
Cs3 O5 3.537230 1_655
Cs3 O0 3.537230 1_545
Cs4 O3 3.098738 1_555
Cs4 O1 3.098738 1_555
Cs4 O2 3.166688 1_455
Cs4 O4 3.166688 1_565
Cs4 O5 3.537230 1_565
Cs4 O0 3.537230 1_455
Cs5 O5 2.814240 1_555
Cs5 O2 3.157320 1_555
Cs5 O1 3.157320 1_555
Cs5 O3 3.299720 1_556
Cs5 O4 3.299720 1_556
O0 Tl1 2.238633 1_665
O0 Tl0 2.239899 1_555
O1 Tl0 2.136904 1_555
O2 Tl0 2.136904 1_555
O3 Tl1 2.136904 1_555
O4 Tl1 2.136904 1_555
O5 Tl0 2.238633 1_445
O5 Tl1 2.239899 1_555
