# generated using pymatgen
data_Ca4Ce2TiSi4(BO6)4
_symmetry_space_group_name_H-M   'P 1'
_cell_length_a   4.80780000
_cell_length_b   10.36760400
_cell_length_c   19.06387455
_cell_angle_alpha   68.01810942
_cell_angle_beta   90.00000000
_cell_angle_gamma   90.00000000
_symmetry_Int_Tables_number   1
_chemical_formula_structural   Ca4Ce2TiSi4(BO6)4
_chemical_formula_sum   'Ca8 Ce4 Ti2 Si8 B8 O48'
_cell_volume   881.16504336
_cell_formula_units_Z   2
loop_
 _symmetry_equiv_pos_site_id
 _symmetry_equiv_pos_as_xyz
  1  'x, y, z'
loop_
 _atom_site_type_symbol
 _atom_site_label
 _atom_site_symmetry_multiplicity
 _atom_site_fract_x
 _atom_site_fract_y
 _atom_site_fract_z
 _atom_site_occupancy
  Ca  Ca0  1  0.99989200  0.33774200  0.24654400  1
  Ca  Ca1  1  0.99989200  0.66225800  0.25345600  1
  Ca  Ca2  1  0.00010800  0.66225800  0.75345600  1
  Ca  Ca3  1  0.00010800  0.33774200  0.74654400  1
  Ca  Ca4  1  0.03492800  0.07023300  0.15606300  1
  Ca  Ca5  1  0.03492800  0.92976700  0.34393700  1
  Ca  Ca6  1  0.96507200  0.92976700  0.84393700  1
  Ca  Ca7  1  0.96507200  0.07023300  0.65606300  1
  Ce  Ce0  1  0.98375400  0.34496500  0.46393300  1
  Ce  Ce1  1  0.98375400  0.65503500  0.03606700  1
  Ce  Ce2  1  0.01624600  0.65503500  0.53606700  1
  Ce  Ce3  1  0.01624600  0.34496500  0.96393300  1
  Ti  Ti0  1  0.00000000  0.00000000  0.50000000  1
  Ti  Ti1  1  0.00000000  0.00000000  0.00000000  1
  Si  Si0  1  0.51461600  0.64519300  0.39823100  1
  Si  Si1  1  0.51461600  0.35480700  0.10176900  1
  Si  Si2  1  0.48538400  0.35480700  0.60176900  1
  Si  Si3  1  0.48538400  0.64519300  0.89823100  1
  Si  Si4  1  0.49751500  0.83697900  0.11439300  1
  Si  Si5  1  0.49751500  0.16302100  0.38560700  1
  Si  Si6  1  0.50248500  0.16302100  0.88560700  1
  Si  Si7  1  0.50248500  0.83697900  0.61439300  1
  B  B0  1  0.47363000  0.45068900  0.32844100  1
  B  B1  1  0.47363000  0.54931100  0.17155900  1
  B  B2  1  0.52637000  0.54931100  0.67155900  1
  B  B3  1  0.52637000  0.45068900  0.82844100  1
  B  B4  1  0.53628200  0.86677000  0.25445100  1
  B  B5  1  0.53628200  0.13323000  0.24554900  1
  B  B6  1  0.46371800  0.13323000  0.74554900  1
  B  B7  1  0.46371800  0.86677000  0.75445100  1
  O  O0  1  0.75898600  0.43841500  0.04096000  1
  O  O1  1  0.75898600  0.56158500  0.45904000  1
  O  O2  1  0.24101400  0.56158500  0.95904000  1
  O  O3  1  0.24101400  0.43841500  0.54096000  1
  O  O4  1  0.68159600  0.24308300  0.17567200  1
  O  O5  1  0.68159600  0.75691700  0.32432800  1
  O  O6  1  0.31840400  0.75691700  0.82432800  1
  O  O7  1  0.31840400  0.24308300  0.67567200  1
  O  O8  1  0.28989200  0.72298800  0.43252800  1
  O  O9  1  0.28989200  0.27701200  0.06747200  1
  O  O10  1  0.71010800  0.27701200  0.56747200  1
  O  O11  1  0.71010800  0.72298800  0.93252800  1
  O  O12  1  0.33416600  0.53711900  0.36836200  1
  O  O13  1  0.33416600  0.46288100  0.13163800  1
  O  O14  1  0.66583400  0.46288100  0.63163800  1
  O  O15  1  0.66583400  0.53711900  0.86836200  1
  O  O16  1  0.83812900  0.14239700  0.02969100  1
  O  O17  1  0.83812900  0.85760300  0.47030900  1
  O  O18  1  0.16187100  0.85760300  0.97030900  1
  O  O19  1  0.16187100  0.14239700  0.52969100  1
  O  O20  1  0.24512800  0.14339400  0.24487700  1
  O  O21  1  0.24512800  0.85660600  0.25512300  1
  O  O22  1  0.75487200  0.85660600  0.75512300  1
  O  O23  1  0.75487200  0.14339400  0.74487700  1
  O  O24  1  0.76842500  0.44399800  0.33645900  1
  O  O25  1  0.76842500  0.55600200  0.16354100  1
  O  O26  1  0.23157500  0.55600200  0.66354100  1
  O  O27  1  0.23157500  0.44399800  0.83645900  1
  O  O28  1  0.32578500  0.31097100  0.36753700  1
  O  O29  1  0.32578500  0.68902900  0.13246300  1
  O  O30  1  0.67421500  0.68902900  0.63246300  1
  O  O31  1  0.67421500  0.31097100  0.86753700  1
  O  O32  1  0.66858300  0.83848700  0.18869800  1
  O  O33  1  0.66858300  0.16151300  0.31130200  1
  O  O34  1  0.33141700  0.16151300  0.81130200  1
  O  O35  1  0.33141700  0.83848700  0.68869800  1
  O  O36  1  0.26229800  0.04303600  0.41406600  1
  O  O37  1  0.26229800  0.95696400  0.08593400  1
  O  O38  1  0.73770200  0.95696400  0.58593400  1
  O  O39  1  0.73770200  0.04303600  0.91406600  1
  O  O40  1  0.74935300  0.15781400  0.44373000  1
  O  O41  1  0.74935300  0.84218600  0.05627000  1
  O  O42  1  0.25064700  0.84218600  0.55627000  1
  O  O43  1  0.25064700  0.15781400  0.94373000  1
  O  O44  1  0.66184200  0.00000000  0.25000000  1
  O  O45  1  0.33815800  0.00000000  0.75000000  1
  O  O46  1  0.36238800  0.50000000  0.25000000  1
  O  O47  1  0.63761200  0.50000000  0.75000000  1
loop_
_geom_bond_atom_site_label_1
_geom_bond_atom_site_label_2
_geom_bond_distance
_geom_bond_site_symmetry_2
Ca0 O20 2.344997 1_655
Ca0 O33 2.389751 1_555
Ca0 O46 2.440201 1_655
Ca0 O4 2.474479 1_555
Ca0 O25 2.486395 1_555
Ca0 O24 2.608424 1_555
Ca0 O13 2.633817 1_655
Ca0 O28 2.715345 1_655
Ca1 O21 2.344997 1_655
Ca1 O32 2.389751 1_555
Ca1 O46 2.440201 1_655
Ca1 O5 2.474479 1_555
Ca1 O24 2.486395 1_555
Ca1 O25 2.608424 1_555
Ca1 O12 2.633817 1_655
Ca1 O29 2.715345 1_655
Ca2 O22 2.344997 1_455
Ca2 O35 2.389751 1_555
Ca2 O47 2.440201 1_455
Ca2 O6 2.474479 1_555
Ca2 O27 2.486395 1_555
Ca2 O26 2.608424 1_555
Ca2 O15 2.633817 1_455
Ca2 O30 2.715345 1_455
Ca3 O23 2.344997 1_455
Ca3 O34 2.389751 1_555
Ca3 O47 2.440201 1_455
Ca3 O7 2.474479 1_555
Ca3 O26 2.486395 1_555
Ca3 O27 2.608424 1_555
Ca3 O14 2.633817 1_455
Ca3 O31 2.715345 1_455
Ca4 O20 2.329117 1_555
Ca4 O37 2.353029 1_545
Ca4 O16 2.430965 1_455
Ca4 O44 2.445083 1_455
Ca4 O9 2.498068 1_555
Ca4 O21 2.522255 1_545
Ca4 O4 2.595845 1_455
Ca4 O32 2.853589 1_445
Ca5 O21 2.329117 1_555
Ca5 O36 2.353029 1_565
Ca5 O17 2.430965 1_455
Ca5 O44 2.445083 1_465
Ca5 O8 2.498068 1_555
Ca5 O20 2.522255 1_565
Ca5 O5 2.595845 1_455
Ca5 O33 2.853589 1_465
Ca6 O22 2.329117 1_555
Ca6 O39 2.353029 1_565
Ca6 O18 2.430965 1_655
Ca6 O45 2.445083 1_665
Ca6 O11 2.498068 1_555
Ca6 O23 2.522255 1_565
Ca6 O6 2.595845 1_655
Ca6 O34 2.853589 1_665
Ca7 O23 2.329117 1_555
Ca7 O38 2.353029 1_545
Ca7 O19 2.430965 1_655
Ca7 O45 2.445083 1_655
Ca7 O10 2.498068 1_555
Ca7 O22 2.522255 1_545
Ca7 O7 2.595845 1_655
Ca7 O35 2.853589 1_645
Ce0 O19 2.178192 1_655
Ce0 O10 2.254394 1_555
Ce0 O3 2.385340 1_655
Ce0 O40 2.396374 1_555
Ce0 O1 2.462399 1_555
Ce0 O24 2.482671 1_555
Ce0 O28 2.586552 1_655
Ce0 O12 2.721999 1_655
Ce1 O18 2.178192 1_654
Ce1 O11 2.254394 1_554
Ce1 O2 2.385340 1_654
Ce1 O41 2.396374 1_555
Ce1 O0 2.462399 1_555
Ce1 O25 2.482671 1_555
Ce1 O29 2.586552 1_655
Ce1 O13 2.721999 1_655
Ce2 O17 2.178192 1_455
Ce2 O8 2.254394 1_555
Ce2 O1 2.385340 1_455
Ce2 O42 2.396374 1_555
Ce2 O3 2.462399 1_555
Ce2 O26 2.482671 1_555
Ce2 O30 2.586552 1_455
Ce2 O14 2.721999 1_455
Ce3 O16 2.178192 1_456
Ce3 O9 2.254394 1_556
Ce3 O0 2.385340 1_456
Ce3 O43 2.396374 1_555
Ce3 O2 2.462399 1_555
Ce3 O27 2.482671 1_555
Ce3 O31 2.586552 1_455
Ce3 O15 2.721999 1_455
B0 O24 1.424437 1_555
B0 O46 1.487034 1_555
B0 O12 1.530445 1_555
B0 O28 1.533227 1_555
B1 O25 1.424437 1_555
B1 O46 1.487034 1_555
B1 O13 1.530445 1_555
B1 O29 1.533227 1_555
B2 O26 1.424437 1_555
B2 O47 1.487034 1_555
B2 O14 1.530445 1_555
B2 O30 1.533227 1_555
B3 O27 1.424437 1_555
B3 O47 1.487034 1_555
B3 O15 1.530445 1_555
B3 O31 1.533227 1_555
B4 O21 1.403469 1_555
B4 O44 1.480471 1_565
B4 O32 1.528732 1_555
B4 O5 1.556914 1_555
B5 O20 1.403469 1_555
B5 O44 1.480471 1_555
B5 O33 1.528732 1_555
B5 O4 1.556914 1_555
B6 O23 1.403469 1_555
B6 O45 1.480471 1_555
B6 O34 1.528732 1_555
B6 O7 1.556914 1_555
B7 O22 1.403469 1_555
B7 O45 1.480471 1_565
B7 O35 1.528732 1_555
B7 O6 1.556914 1_555
O0 Si1 1.650249 1_555
O1 Si0 1.650249 1_555
O2 Si3 1.650249 1_555
O3 Si2 1.650249 1_555
O4 Si1 1.658137 1_555
O5 Si0 1.658137 1_555
O6 Si3 1.658137 1_555
O7 Si2 1.658137 1_555
O8 Si0 1.624848 1_555
O9 Si1 1.624848 1_555
O10 Si2 1.624848 1_555
O11 Si3 1.624848 1_555
O12 Si0 1.676304 1_555
O13 Si1 1.676304 1_555
O14 Si2 1.676304 1_555
O15 Si3 1.676304 1_555
O16 Ti1 1.931614 1_655
O17 Ti0 1.931614 1_665
O18 Ti1 1.931614 1_566
O19 Ti0 1.931614 1_555
O28 Si5 1.660600 1_555
O29 Si4 1.660600 1_555
O30 Si7 1.660600 1_555
O31 Si6 1.660600 1_555
O32 Si4 1.643123 1_555
O33 Si5 1.643123 1_555
O34 Si6 1.643123 1_555
O35 Si7 1.643123 1_555
O36 Si5 1.617224 1_555
O36 Ti0 1.981413 1_555
O37 Si4 1.617224 1_555
O37 Ti1 1.981413 1_565
O38 Si7 1.617224 1_555
O38 Ti0 1.981413 1_665
O39 Si6 1.617224 1_555
O39 Ti1 1.981413 1_656
O40 Si5 1.628469 1_555
O40 Ti0 1.991472 1_655
O41 Si4 1.628469 1_555
O41 Ti1 1.991472 1_665
O42 Si7 1.628469 1_555
O42 Ti0 1.991472 1_565
O43 Si6 1.628469 1_555
O43 Ti1 1.991472 1_556
