# generated using pymatgen
data_H2Pb4C(Cl3O2)2
_symmetry_space_group_name_H-M   'P 1'
_cell_length_a   9.31296900
_cell_length_b   4.26059700
_cell_length_c   16.90555860
_cell_angle_alpha   87.96665870
_cell_angle_beta   90.00000000
_cell_angle_gamma   90.00000000
_symmetry_Int_Tables_number   1
_chemical_formula_structural   H2Pb4C(Cl3O2)2
_chemical_formula_sum   'H4 Pb8 C2 Cl12 O8'
_cell_volume   670.37004511
_cell_formula_units_Z   2
loop_
 _symmetry_equiv_pos_site_id
 _symmetry_equiv_pos_as_xyz
  1  'x, y, z'
loop_
 _atom_site_type_symbol
 _atom_site_label
 _atom_site_symmetry_multiplicity
 _atom_site_fract_x
 _atom_site_fract_y
 _atom_site_fract_z
 _atom_site_occupancy
  H  H0  1  0.16691100  0.24939300  0.90195600  1
  H  H1  1  0.66691100  0.75060700  0.09804400  1
  H  H2  1  0.83308900  0.75060700  0.09804400  1
  H  H3  1  0.33308900  0.24939300  0.90195600  1
  Pb  Pb0  1  0.25000000  0.73905000  0.04184700  1
  Pb  Pb1  1  0.75000000  0.26095000  0.95815300  1
  Pb  Pb2  1  0.25000000  0.74655000  0.51189100  1
  Pb  Pb3  1  0.75000000  0.25345000  0.48810900  1
  Pb  Pb4  1  0.01043200  0.18877000  0.26799300  1
  Pb  Pb5  1  0.51043200  0.81123000  0.73200700  1
  Pb  Pb6  1  0.98956800  0.81123000  0.73200700  1
  Pb  Pb7  1  0.48956800  0.18877000  0.26799300  1
  C  C0  1  0.75000000  0.58694700  0.24511200  1
  C  C1  1  0.25000000  0.41305300  0.75488800  1
  Cl  Cl0  1  0.25000000  0.71124100  0.21882900  1
  Cl  Cl1  1  0.75000000  0.28875900  0.78117100  1
  Cl  Cl2  1  0.03144600  0.23111300  0.08801700  1
  Cl  Cl3  1  0.53144600  0.76888700  0.91198300  1
  Cl  Cl4  1  0.96855400  0.76888700  0.91198300  1
  Cl  Cl5  1  0.46855400  0.23111300  0.08801700  1
  Cl  Cl6  1  0.25000000  0.25598300  0.39534700  1
  Cl  Cl7  1  0.75000000  0.74401700  0.60465300  1
  Cl  Cl8  1  0.05033400  0.23721500  0.58538100  1
  Cl  Cl9  1  0.55033400  0.76278500  0.41461900  1
  Cl  Cl10  1  0.94966600  0.76278500  0.41461900  1
  Cl  Cl11  1  0.44966600  0.23721500  0.58538100  1
  O  O0  1  0.75000000  0.32509500  0.28765900  1
  O  O1  1  0.25000000  0.67490500  0.71234100  1
  O  O2  1  0.25000000  0.24896500  0.93805500  1
  O  O3  1  0.75000000  0.75103500  0.06194500  1
  O  O4  1  0.87217800  0.70559600  0.22250100  1
  O  O5  1  0.37217800  0.29440400  0.77749900  1
  O  O6  1  0.12782200  0.29440400  0.77749900  1
  O  O7  1  0.62782200  0.70559600  0.22250100  1
loop_
_geom_bond_atom_site_label_1
_geom_bond_atom_site_label_2
_geom_bond_distance
_geom_bond_site_symmetry_2
H0 O2 0.985461 1_555
H1 O3 0.985461 1_555
H2 O3 0.985461 1_555
H3 O2 0.985461 1_555
C0 O7 1.297162 1_555
C0 O4 1.297162 1_555
C0 O0 1.305789 1_555
C1 O6 1.297162 1_555
C1 O5 1.297162 1_555
C1 O1 1.305789 1_555
Cl0 Pb0 2.990121 1_555
Cl0 Pb4 3.150871 1_565
Cl0 Pb7 3.150871 1_565
Cl0 Pb4 3.239216 1_555
Cl0 Pb7 3.239216 1_555
Cl1 Pb1 2.990121 1_555
Cl1 Pb5 3.150871 1_545
Cl1 Pb6 3.150871 1_545
Cl1 Pb5 3.239216 1_555
Cl1 Pb6 3.239216 1_555
Cl2 Pb0 3.043581 1_545
Cl2 Pb4 3.047832 1_555
Cl2 Pb0 3.052139 1_555
Cl3 Pb1 3.043581 1_565
Cl3 Pb5 3.047832 1_555
Cl3 Pb1 3.052139 1_555
Cl4 Pb1 3.043581 1_565
Cl4 Pb6 3.047832 1_555
Cl4 Pb1 3.052139 1_555
Cl5 Pb0 3.043581 1_545
Cl5 Pb7 3.047832 1_555
Cl5 Pb0 3.052139 1_555
Cl6 Pb2 2.879134 1_545
Cl6 Pb2 2.922777 1_555
Cl6 Pb7 3.120719 1_555
Cl6 Pb4 3.120719 1_555
Cl7 Pb3 2.879134 1_565
Cl7 Pb3 2.922777 1_555
Cl7 Pb6 3.120719 1_555
Cl7 Pb5 3.120719 1_555
Cl8 Pb6 3.072372 1_445
Cl8 Pb2 3.085304 1_555
Cl8 Pb2 3.091248 1_545
Cl9 Pb7 3.072372 1_565
Cl9 Pb3 3.085304 1_555
Cl9 Pb3 3.091248 1_565
Cl10 Pb4 3.072372 1_665
Cl10 Pb3 3.085304 1_555
Cl10 Pb3 3.091248 1_565
Cl11 Pb5 3.072372 1_545
Cl11 Pb2 3.085304 1_555
Cl11 Pb2 3.091248 1_545
O0 Pb4 2.518757 1_655
O0 Pb7 2.518757 1_555
O1 Pb5 2.518757 1_555
O1 Pb6 2.518757 1_455
O2 Pb0 2.743768 1_546
O2 Pb0 2.774672 1_556
O3 Pb1 2.743768 1_564
O3 Pb1 2.774672 1_554
O4 Pb4 2.568946 1_665
O4 Pb4 2.641560 1_655
O5 Pb5 2.568946 1_545
O5 Pb5 2.641560 1_555
O6 Pb6 2.568946 1_445
O6 Pb6 2.641560 1_455
O7 Pb7 2.568946 1_565
O7 Pb7 2.641560 1_555
