# generated using pymatgen
data_K6H6S6N2O23
_symmetry_space_group_name_H-M   'P 1'
_cell_length_a   14.88197023
_cell_length_b   14.88197023
_cell_length_c   14.10597368
_cell_angle_alpha   63.78137827
_cell_angle_beta   63.78137827
_cell_angle_gamma   26.56305647
_symmetry_Int_Tables_number   1
_chemical_formula_structural   K6H6S6N2O23
_chemical_formula_sum   'K12 H12 S12 N4 O46'
_cell_volume   1244.80800517
_cell_formula_units_Z   2
loop_
 _symmetry_equiv_pos_site_id
 _symmetry_equiv_pos_as_xyz
  1  'x, y, z'
loop_
 _atom_site_type_symbol
 _atom_site_label
 _atom_site_symmetry_multiplicity
 _atom_site_fract_x
 _atom_site_fract_y
 _atom_site_fract_z
 _atom_site_occupancy
  K  K0  1  0.55678400  0.28103500  0.59371200  1
  K  K1  1  0.28103500  0.55678400  0.09371200  1
  K  K2  1  0.44321600  0.71896500  0.40628800  1
  K  K3  1  0.71896500  0.44321600  0.90628800  1
  K  K4  1  0.78050000  0.07652500  0.26256800  1
  K  K5  1  0.07652500  0.78050000  0.76256800  1
  K  K6  1  0.21950000  0.92347500  0.73743200  1
  K  K7  1  0.92347500  0.21950000  0.23743200  1
  K  K8  1  0.73631700  0.79680600  0.88530900  1
  K  K9  1  0.79680600  0.73631700  0.38530900  1
  K  K10  1  0.26368300  0.20319400  0.11469100  1
  K  K11  1  0.20319400  0.26368300  0.61469100  1
  H  H0  1  0.46811200  0.48953500  0.30915500  1
  H  H1  1  0.48953500  0.46811200  0.80915500  1
  H  H2  1  0.53188800  0.51046500  0.69084500  1
  H  H3  1  0.51046500  0.53188800  0.19084500  1
  H  H4  1  0.11866300  0.54117700  0.70644100  1
  H  H5  1  0.54117700  0.11866300  0.20644100  1
  H  H6  1  0.88133700  0.45882300  0.29355900  1
  H  H7  1  0.45882300  0.88133700  0.79355900  1
  H  H8  1  0.23554100  0.40081000  0.80634400  1
  H  H9  1  0.40081000  0.23554100  0.30634400  1
  H  H10  1  0.76445900  0.59919000  0.19365600  1
  H  H11  1  0.59919000  0.76445900  0.69365600  1
  S  S0  1  0.21979600  0.52804300  0.40357400  1
  S  S1  1  0.52804300  0.21979600  0.90357400  1
  S  S2  1  0.78020400  0.47195700  0.59642600  1
  S  S3  1  0.47195700  0.78020400  0.09642600  1
  S  S4  1  0.07480700  0.81402600  0.47655700  1
  S  S5  1  0.81402600  0.07480700  0.97655700  1
  S  S6  1  0.92519300  0.18597400  0.52344300  1
  S  S7  1  0.18597400  0.92519300  0.02344300  1
  S  S8  1  0.75613200  0.85246100  0.60918300  1
  S  S9  1  0.85246100  0.75613200  0.10918300  1
  S  S10  1  0.24386800  0.14753900  0.39081700  1
  S  S11  1  0.14753900  0.24386800  0.89081700  1
  N  N0  1  0.07200100  0.68935000  0.49723600  1
  N  N1  1  0.68935000  0.07200100  0.99723600  1
  N  N2  1  0.92799900  0.31065000  0.50276400  1
  N  N3  1  0.31065000  0.92799900  0.00276400  1
  O  O0  1  0.15440600  0.48160700  0.43707900  1
  O  O1  1  0.48160700  0.15440600  0.93707900  1
  O  O2  1  0.84559400  0.51839300  0.56292100  1
  O  O3  1  0.51839300  0.84559400  0.06292100  1
  O  O4  1  0.42531900  0.35857700  0.42338600  1
  O  O5  1  0.35857700  0.42531900  0.92338600  1
  O  O6  1  0.57468100  0.64142300  0.57661400  1
  O  O7  1  0.64142300  0.57468100  0.07661400  1
  O  O8  1  0.16783500  0.64266700  0.29790700  1
  O  O9  1  0.64266700  0.16783500  0.79790700  1
  O  O10  1  0.83216500  0.35733300  0.70209300  1
  O  O11  1  0.35733300  0.83216500  0.20209300  1
  O  O12  1  0.96444100  0.90121000  0.57673600  1
  O  O13  1  0.90121000  0.96444100  0.07673600  1
  O  O14  1  0.03555900  0.09879000  0.42326400  1
  O  O15  1  0.09879000  0.03555900  0.92326400  1
  O  O16  1  0.97054000  0.96492600  0.38390000  1
  O  O17  1  0.96492600  0.97054000  0.88390000  1
  O  O18  1  0.02946000  0.03507400  0.61610000  1
  O  O19  1  0.03507400  0.02946000  0.11610000  1
  O  O20  1  0.29077800  0.64698900  0.46413800  1
  O  O21  1  0.64698900  0.29077800  0.96413800  1
  O  O22  1  0.70922200  0.35301100  0.53586200  1
  O  O23  1  0.35301100  0.70922200  0.03586200  1
  O  O24  1  0.92106500  0.64489900  0.66307000  1
  O  O25  1  0.64489900  0.92106500  0.16307000  1
  O  O26  1  0.07893500  0.35510100  0.33693000  1
  O  O27  1  0.35510100  0.07893500  0.83693000  1
  O  O28  1  0.62550000  0.92032200  0.56690100  1
  O  O29  1  0.92032200  0.62550000  0.06690100  1
  O  O30  1  0.37450000  0.07967800  0.43309900  1
  O  O31  1  0.07967800  0.37450000  0.93309900  1
  O  O32  1  0.65122200  0.99651200  0.66644000  1
  O  O33  1  0.99651200  0.65122200  0.16644000  1
  O  O34  1  0.34877800  0.00348800  0.33356000  1
  O  O35  1  0.00348800  0.34877800  0.83356000  1
  O  O36  1  0.86573800  0.84791800  0.49218500  1
  O  O37  1  0.84791800  0.86573800  0.99218500  1
  O  O38  1  0.13426200  0.15208200  0.50781500  1
  O  O39  1  0.15208200  0.13426200  0.00781500  1
  O  O40  1  0.57580600  0.42419400  0.25000000  1
  O  O41  1  0.42419400  0.57580600  0.75000000  1
  O  O42  1  0.18943800  0.50212200  0.74922600  1
  O  O43  1  0.50212200  0.18943800  0.24922600  1
  O  O44  1  0.81056200  0.49787800  0.25077400  1
  O  O45  1  0.49787800  0.81056200  0.75077400  1
loop_
_geom_bond_atom_site_label_1
_geom_bond_atom_site_label_2
_geom_bond_distance
_geom_bond_site_symmetry_2
K0 O12 2.716783 1_545
K0 O20 2.775336 1_555
K0 O32 2.783315 1_545
K0 O9 2.807437 1_555
K0 O4 2.932027 1_555
K0 O22 2.983048 1_555
K0 O42 3.021296 1_555
K1 O13 2.716783 1_455
K1 O21 2.775336 1_554
K1 O33 2.783315 1_455
K1 O8 2.807437 1_555
K1 O5 2.932027 1_554
K1 O23 2.983048 1_555
K1 O43 3.021296 1_555
K2 O14 2.716783 1_565
K2 O22 2.775336 1_555
K2 O34 2.783315 1_565
K2 O11 2.807437 1_555
K2 O6 2.932027 1_555
K2 O20 2.983048 1_555
K2 O44 3.021296 1_555
K3 O15 2.716783 1_655
K3 O23 2.775336 1_556
K3 O35 2.783315 1_655
K3 O10 2.807437 1_555
K3 O7 2.932027 1_556
K3 O21 2.983048 1_555
K3 O45 3.021296 1_555
K4 O16 2.654988 1_545
K4 O13 2.687595 1_545
K4 O40 2.748250 1_555
K4 O43 2.824572 1_555
K4 O8 2.877532 1_645
K4 O19 2.954297 1_655
K4 O4 2.972045 1_555
K4 O36 3.138162 1_545
K5 O17 2.654988 1_455
K5 O12 2.687595 1_455
K5 O41 2.748250 1_555
K5 O42 2.824572 1_555
K5 O9 2.877532 1_465
K5 O18 2.954297 1_565
K5 O5 2.972045 1_555
K5 O37 3.138162 1_455
K6 O18 2.654988 1_565
K6 O15 2.687595 1_565
K6 O41 2.748250 1_555
K6 O45 2.824572 1_555
K6 O10 2.877532 1_465
K6 O17 2.954297 1_455
K6 O6 2.972045 1_555
K6 O38 3.138162 1_565
K7 O19 2.654988 1_655
K7 O14 2.687595 1_655
K7 O40 2.748250 1_555
K7 O44 2.824572 1_555
K7 O11 2.877532 1_645
K7 O16 2.954297 1_545
K7 O7 2.972045 1_555
K7 O39 3.138162 1_655
K8 O3 2.745468 1_556
K8 O31 2.813313 1_655
K8 O1 2.850379 1_565
K8 O29 2.915255 1_556
K8 O27 2.925422 1_565
K8 O32 2.929612 1_555
K8 O24 3.166203 1_555
K9 O2 2.745468 1_555
K9 O30 2.813313 1_565
K9 O0 2.850379 1_655
K9 O28 2.915255 1_555
K9 O26 2.925422 1_655
K9 O33 2.929612 1_555
K9 O25 3.166203 1_555
K10 O1 2.745468 1_554
K10 O29 2.813313 1_455
K10 O3 2.850379 1_545
K10 O31 2.915255 1_554
K10 O25 2.925422 1_545
K10 O34 2.929612 1_555
K10 O26 3.166203 1_555
K11 O0 2.745468 1_555
K11 O28 2.813313 1_545
K11 O2 2.850379 1_455
K11 O30 2.915255 1_555
K11 O24 2.925422 1_455
K11 O35 2.929612 1_555
K11 O27 3.166203 1_555
H0 O40 0.978701 1_555
H1 O41 0.978701 1_555
H2 O41 0.978701 1_555
H3 O40 0.978701 1_555
H4 O42 0.983896 1_555
H5 O43 0.983896 1_555
H6 O44 0.983896 1_555
H7 O45 0.983896 1_555
H8 O42 0.978612 1_555
H9 O43 0.978612 1_555
H10 O44 0.978612 1_555
H11 O45 0.978612 1_555
N0 O36 1.443195 1_455
N0 S0 1.770711 1_555
N0 S4 1.782989 1_555
N1 O37 1.443195 1_545
N1 S1 1.770711 1_555
N1 S5 1.782989 1_555
N2 O38 1.443195 1_655
N2 S2 1.770711 1_555
N2 S6 1.782989 1_555
N3 O39 1.443195 1_565
N3 S3 1.770711 1_555
N3 S7 1.782989 1_555
O0 S0 1.468317 1_555
O1 S1 1.468317 1_555
O2 S2 1.468317 1_555
O3 S3 1.468317 1_555
O4 S0 1.458432 1_555
O5 S1 1.458432 1_555
O6 S2 1.458432 1_555
O7 S3 1.458432 1_555
O8 S0 1.463430 1_555
O9 S1 1.463430 1_555
O10 S2 1.463430 1_555
O11 S3 1.463430 1_555
O12 S4 1.461185 1_655
O13 S5 1.461185 1_564
O14 S6 1.461185 1_455
O15 S7 1.461185 1_546
O16 S4 1.457430 1_655
O17 S5 1.457430 1_565
O18 S6 1.457430 1_455
O19 S7 1.457430 1_545
O20 S4 1.461173 1_555
O21 S5 1.461173 1_555
O22 S6 1.461173 1_555
O23 S7 1.461173 1_555
O24 S8 1.467928 1_555
O25 S9 1.467928 1_555
O26 S10 1.467928 1_555
O27 S11 1.467928 1_555
O28 S8 1.461219 1_555
O29 S9 1.461219 1_555
O30 S10 1.461219 1_555
O31 S11 1.461219 1_555
O32 S8 1.453932 1_555
O33 S9 1.453932 1_555
O34 S10 1.453932 1_555
O35 S11 1.453932 1_555
O36 S8 1.706348 1_555
O37 S9 1.706348 1_556
O38 S10 1.706348 1_555
O39 S11 1.706348 1_554
