# generated using pymatgen
data_Li6CrSn3(PO4)6
_symmetry_space_group_name_H-M   'P 1'
_cell_length_a   8.51566600
_cell_length_b   8.63150588
_cell_length_c   8.66443522
_cell_angle_alpha   63.69448426
_cell_angle_beta   65.25680212
_cell_angle_gamma   64.52298080
_symmetry_Int_Tables_number   1
_chemical_formula_structural   Li6CrSn3(PO4)6
_chemical_formula_sum   'Li6 Cr1 Sn3 P6 O24'
_cell_volume   494.53051203
_cell_formula_units_Z   1
loop_
 _symmetry_equiv_pos_site_id
 _symmetry_equiv_pos_as_xyz
  1  'x, y, z'
loop_
 _atom_site_type_symbol
 _atom_site_label
 _atom_site_symmetry_multiplicity
 _atom_site_fract_x
 _atom_site_fract_y
 _atom_site_fract_z
 _atom_site_occupancy
  Li  Li0  1  0.98945200  0.97801500  0.02834900  1
  Li  Li1  1  0.15951700  0.37262200  0.74285600  1
  Li  Li2  1  0.53533900  0.51587200  0.47066100  1
  Li  Li3  1  0.86059600  0.68349200  0.22853400  1
  Li  Li4  1  0.21321000  0.86575500  0.67438100  1
  Li  Li5  1  0.68195200  0.21128100  0.86530800  1
  Cr  Cr0  1  0.84633600  0.83613600  0.84655000  1
  Sn  Sn0  1  0.14847300  0.14668400  0.14463000  1
  Sn  Sn1  1  0.35999100  0.35296400  0.36274800  1
  Sn  Sn2  1  0.65667600  0.66586800  0.66791700  1
  P  P0  1  0.74148900  0.41871200  0.06970100  1
  P  P1  1  0.07864600  0.74535900  0.41365500  1
  P  P2  1  0.42585500  0.06246700  0.75265900  1
  P  P3  1  0.55534400  0.96139200  0.24856900  1
  P  P4  1  0.96086300  0.24290200  0.55828300  1
  P  P5  1  0.23745400  0.55265200  0.95392700  1
  O  O0  1  0.29613500  0.49083400  0.12323800  1
  O  O1  1  0.50531300  0.10201900  0.34003900  1
  O  O2  1  0.90626600  0.24116100  0.09036500  1
  O  O3  1  0.10838300  0.31155800  0.55217600  1
  O  O4  1  0.60245200  0.41302700  0.25978900  1
  O  O5  1  0.79769500  0.58915700  0.00261200  1
  O  O6  1  0.10774100  0.90275300  0.23059800  1
  O  O7  1  0.26691700  0.59103800  0.41876500  1
  O  O8  1  0.41978200  0.25695300  0.60673600  1
  O  O9  1  0.40530700  0.02237900  0.15948800  1
  O  O10  1  0.73806100  0.95940900  0.10083600  1
  O  O11  1  0.03302900  0.19815200  0.38170400  1
  O  O12  1  0.02645400  0.80218400  0.57599800  1
  O  O13  1  0.23979900  0.10377300  0.89905600  1
  O  O14  1  0.59525400  0.00047300  0.81026700  1
  O  O15  1  0.57351300  0.76679300  0.38573200  1
  O  O16  1  0.76964500  0.38116400  0.57748700  1
  O  O17  1  0.95154900  0.07093500  0.72757700  1
  O  O18  1  0.18100900  0.39763300  0.96368200  1
  O  O19  1  0.38052600  0.59458700  0.77092000  1
  O  O20  1  0.94449500  0.67841500  0.40352400  1
  O  O21  1  0.07173800  0.72753600  0.95623200  1
  O  O22  1  0.41061100  0.92964800  0.69108800  1
  O  O23  1  0.66613100  0.40725000  0.94336600  1
loop_
_geom_bond_atom_site_label_1
_geom_bond_atom_site_label_2
_geom_bond_distance
_geom_bond_site_symmetry_2
Li0 O10 2.020885 1_555
Li0 O6 2.100765 1_655
Li0 O21 2.254607 1_654
Li0 O2 2.308339 1_565
Li0 O13 2.427336 1_664
Li0 O17 2.483483 1_564
Li1 O8 2.061980 1_555
Li1 O13 2.076101 1_555
Li1 O18 2.105745 1_555
Li1 O3 2.183673 1_555
Li2 O15 2.081073 1_555
Li2 O4 2.140061 1_555
Li2 O16 2.187694 1_555
Li2 O7 2.274631 1_555
Li2 O8 2.436884 1_555
Li2 O19 2.625419 1_555
Li3 O20 1.905825 1_555
Li3 O10 2.116123 1_555
Li3 O15 2.217454 1_555
Li3 O21 2.277247 1_654
Li4 O22 2.054961 1_555
Li4 O19 2.145114 1_555
Li4 O17 2.186947 1_465
Li4 O21 2.242742 1_555
Li4 O12 2.420142 1_555
Li5 O23 2.019504 1_555
Li5 O17 2.181181 1_555
Li5 O16 2.251433 1_555
Li5 O10 2.260446 1_546
Li5 O14 2.510573 1_555
Cr0 O14 2.059310 1_565
Cr0 O5 2.068930 1_556
Cr0 O21 2.157689 1_655
Cr0 O17 2.215874 1_565
Cr0 O12 2.268480 1_655
Cr0 O10 2.523854 1_556
O0 P5 1.541738 1_554
O0 Sn1 2.053656 1_555
O1 P3 1.551797 1_545
O1 Sn1 2.032176 1_555
O2 P0 1.570587 1_555
O2 Sn0 2.040874 1_655
O3 P4 1.577691 1_455
O3 Sn1 2.146490 1_555
O4 P0 1.569343 1_555
O4 Sn1 2.072861 1_555
O5 P0 1.531772 1_555
O6 P1 1.572740 1_555
O6 Sn0 2.032296 1_565
O7 P1 1.586376 1_555
O7 Sn1 2.060902 1_555
O8 P2 1.586875 1_555
O8 Sn1 2.097705 1_555
O9 P3 1.546625 1_545
O9 Sn0 2.011392 1_555
O10 P3 1.545650 1_555
O11 P4 1.549235 1_455
O11 Sn0 2.031216 1_555
O12 P1 1.522262 1_555
O13 P2 1.574448 1_555
O13 Sn0 2.082030 1_556
O14 P2 1.522615 1_555
O15 P3 1.555232 1_555
O15 Sn2 2.503846 1_555
O16 P4 1.542989 1_555
O16 Sn2 2.572954 1_555
O17 P4 1.560541 1_555
O18 P5 1.564485 1_555
O18 Sn0 2.090313 1_556
O19 P5 1.543761 1_555
O19 Sn2 2.388780 1_555
O20 P1 1.530822 1_655
O20 Sn2 2.564212 1_555
O21 P5 1.562365 1_555
O22 P2 1.530952 1_565
O22 Sn2 2.358720 1_555
O23 P0 1.535713 1_556
O23 Sn2 2.443306 1_555
