# generated using pymatgen
data_Te2P4H3O16
_symmetry_space_group_name_H-M   'P 1'
_cell_length_a   5.13990500
_cell_length_b   7.70120371
_cell_length_c   8.23908721
_cell_angle_alpha   90.76272303
_cell_angle_beta   91.24423546
_cell_angle_gamma   103.10562294
_symmetry_Int_Tables_number   1
_chemical_formula_structural   Te2P4H3O16
_chemical_formula_sum   'Te2 P4 H3 O16'
_cell_volume   317.50644278
_cell_formula_units_Z   1
loop_
 _symmetry_equiv_pos_site_id
 _symmetry_equiv_pos_as_xyz
  1  'x, y, z'
loop_
 _atom_site_type_symbol
 _atom_site_label
 _atom_site_symmetry_multiplicity
 _atom_site_fract_x
 _atom_site_fract_y
 _atom_site_fract_z
 _atom_site_occupancy
  Te  Te0  1  0.99681200  0.49626400  0.00283200  1
  Te  Te1  1  0.49841800  0.00262700  0.49738700  1
  P  P0  1  0.10883400  0.25931400  0.66289500  1
  P  P1  1  0.37311500  0.22947100  0.14260500  1
  P  P2  1  0.62038500  0.76317700  0.85450200  1
  P  P3  1  0.88976800  0.74182200  0.33661100  1
  H  H0  1  0.95121700  0.98088600  0.98667000  1
  H  H1  1  0.38830700  0.44672400  0.54592800  1
  H  H2  1  0.60930000  0.55251900  0.45169000  1
  O  O0  1  0.11451000  0.84832600  0.44649400  1
  O  O1  1  0.00469900  0.29434700  0.83138100  1
  O  O2  1  0.18509700  0.36773500  0.17282100  1
  O  O3  1  0.21245800  0.45016100  0.58538900  1
  O  O4  1  0.38538300  0.66193700  0.95715700  1
  O  O5  1  0.53040200  0.79840800  0.68010400  1
  O  O6  1  0.22998600  0.06202800  0.05646900  1
  O  O7  1  0.34793100  0.16921600  0.67346300  1
  O  O8  1  0.65105900  0.83162700  0.32451500  1
  O  O9  1  0.75532000  0.94067600  0.94139300  1
  O  O10  1  0.46759900  0.20225400  0.32120600  1
  O  O11  1  0.61741500  0.33318200  0.04271000  1
  O  O12  1  0.78840700  0.55170000  0.41611800  1
  O  O13  1  0.82539100  0.63934900  0.82982000  1
  O  O14  1  0.99198800  0.70491200  0.16780200  1
  O  O15  1  0.88507700  0.15323700  0.55214100  1
loop_
_geom_bond_atom_site_label_1
_geom_bond_atom_site_label_2
_geom_bond_distance
_geom_bond_site_symmetry_2
H0 O9 1.043119 1_555
H0 O6 1.524092 1_666
H1 O3 0.972999 1_555
H2 O12 0.973514 1_555
O0 P3 1.527054 1_455
O0 Te1 2.090226 1_565
O1 P0 1.540805 1_555
O1 Te0 2.094687 1_456
O2 P1 1.612370 1_555
O2 Te0 2.071314 1_455
O3 P0 1.592605 1_555
O4 P2 1.554694 1_555
O4 Te0 2.155967 1_456
O5 P2 1.546149 1_555
O5 Te1 2.221788 1_565
O6 P1 1.493470 1_555
O7 P0 1.543688 1_555
O7 Te1 2.190424 1_555
O8 P3 1.541097 1_555
O8 Te1 2.201265 1_565
O9 P2 1.544198 1_555
O10 P1 1.571132 1_555
O10 Te1 2.157665 1_555
O11 P1 1.581019 1_555
O11 Te0 2.101475 1_555
O12 P3 1.593346 1_555
O13 P2 1.587733 1_555
O13 Te0 2.109518 1_556
O14 P3 1.542788 1_555
O14 Te0 2.095559 1_555
O15 P0 1.526843 1_655
O15 Te1 2.097694 1_555
