# generated using pymatgen
data_NaFeP3H7O13
_symmetry_space_group_name_H-M   'P 1'
_cell_length_a   8.91854700
_cell_length_b   12.71062600
_cell_length_c   19.10278200
_cell_angle_alpha   90.00000000
_cell_angle_beta   90.00000000
_cell_angle_gamma   90.00000000
_symmetry_Int_Tables_number   1
_chemical_formula_structural   NaFeP3H7O13
_chemical_formula_sum   'Na8 Fe8 P24 H56 O104'
_cell_volume   2165.49739216
_cell_formula_units_Z   8
loop_
 _symmetry_equiv_pos_site_id
 _symmetry_equiv_pos_as_xyz
  1  'x, y, z'
loop_
 _atom_site_type_symbol
 _atom_site_label
 _atom_site_symmetry_multiplicity
 _atom_site_fract_x
 _atom_site_fract_y
 _atom_site_fract_z
 _atom_site_occupancy
  Na  Na0  1  0.19134600  0.98492500  0.26835200  1
  Na  Na1  1  0.30865400  0.51507500  0.76835200  1
  Na  Na2  1  0.69134600  0.51507500  0.73164800  1
  Na  Na3  1  0.80865400  0.98492500  0.23164800  1
  Na  Na4  1  0.80865400  0.01507500  0.73164800  1
  Na  Na5  1  0.69134600  0.48492500  0.23164800  1
  Na  Na6  1  0.30865400  0.48492500  0.26835200  1
  Na  Na7  1  0.19134600  0.01507500  0.76835200  1
  Fe  Fe0  1  0.25149700  0.75376100  0.87505700  1
  Fe  Fe1  1  0.24850300  0.74623900  0.37505700  1
  Fe  Fe2  1  0.75149700  0.74623900  0.12494300  1
  Fe  Fe3  1  0.74850300  0.75376100  0.62494300  1
  Fe  Fe4  1  0.74850300  0.24623900  0.12494300  1
  Fe  Fe5  1  0.75149700  0.25376100  0.62494300  1
  Fe  Fe6  1  0.24850300  0.25376100  0.87505700  1
  Fe  Fe7  1  0.25149700  0.24623900  0.37505700  1
  P  P0  1  0.05108500  0.79152000  0.02132000  1
  P  P1  1  0.44891500  0.70848000  0.52132000  1
  P  P2  1  0.55108500  0.70848000  0.97868000  1
  P  P3  1  0.94891500  0.79152000  0.47868000  1
  P  P4  1  0.94891500  0.20848000  0.97868000  1
  P  P5  1  0.55108500  0.29152000  0.47868000  1
  P  P6  1  0.44891500  0.29152000  0.02132000  1
  P  P7  1  0.05108500  0.20848000  0.52132000  1
  P  P8  1  0.50000000  0.78844700  0.75000000  1
  P  P9  1  0.00000000  0.71155300  0.25000000  1
  P  P10  1  0.50000000  0.21155300  0.25000000  1
  P  P11  1  0.00000000  0.28844700  0.75000000  1
  P  P12  1  0.00000000  0.70746400  0.75000000  1
  P  P13  1  0.50000000  0.79253600  0.25000000  1
  P  P14  1  0.00000000  0.29253600  0.25000000  1
  P  P15  1  0.50000000  0.20746400  0.75000000  1
  P  P16  1  0.15225400  0.50470000  0.91098000  1
  P  P17  1  0.34774600  0.99530000  0.41098000  1
  P  P18  1  0.65225400  0.99530000  0.08902000  1
  P  P19  1  0.84774600  0.50470000  0.58902000  1
  P  P20  1  0.84774600  0.49530000  0.08902000  1
  P  P21  1  0.65225400  0.00470000  0.58902000  1
  P  P22  1  0.34774600  0.00470000  0.91098000  1
  P  P23  1  0.15225400  0.49530000  0.41098000  1
  H  H0  1  0.17311900  0.94457900  0.01839000  1
  H  H1  1  0.32688100  0.55542100  0.51839000  1
  H  H2  1  0.67311800  0.55542100  0.98161000  1
  H  H3  1  0.82688200  0.94457900  0.48161000  1
  H  H4  1  0.82688200  0.05542100  0.98161000  1
  H  H5  1  0.67311800  0.44457900  0.48161000  1
  H  H6  1  0.32688100  0.44457900  0.01839000  1
  H  H7  1  0.17311900  0.05542100  0.51839000  1
  H  H8  1  0.25413500  0.70497300  0.04144700  1
  H  H9  1  0.24586500  0.79502700  0.54144700  1
  H  H10  1  0.75413500  0.79502700  0.95855300  1
  H  H11  1  0.74586500  0.70497300  0.45855300  1
  H  H12  1  0.74586500  0.29502700  0.95855300  1
  H  H13  1  0.75413500  0.20497300  0.45855300  1
  H  H14  1  0.24586500  0.20497300  0.04144700  1
  H  H15  1  0.25413500  0.29502700  0.54144700  1
  H  H16  1  0.62415500  0.84908700  0.83944500  1
  H  H17  1  0.87584500  0.65091300  0.33944500  1
  H  H18  1  0.12415500  0.65091300  0.16055500  1
  H  H19  1  0.37584500  0.84908700  0.66055500  1
  H  H20  1  0.37584500  0.15091300  0.16055500  1
  H  H21  1  0.12415500  0.34908700  0.66055500  1
  H  H22  1  0.87584500  0.34908700  0.83944500  1
  H  H23  1  0.62415500  0.15091300  0.33944500  1
  H  H24  1  0.07716200  0.59589500  0.66623000  1
  H  H25  1  0.42283800  0.90410500  0.16623000  1
  H  H26  1  0.57716200  0.90410500  0.33377000  1
  H  H27  1  0.92283800  0.59589500  0.83377000  1
  H  H28  1  0.92283800  0.40410500  0.33377000  1
  H  H29  1  0.57716200  0.09589500  0.83377000  1
  H  H30  1  0.42283800  0.09589500  0.66623000  1
  H  H31  1  0.07716200  0.40410500  0.16623000  1
  H  H32  1  0.91084800  0.50575600  0.94858600  1
  H  H33  1  0.58915200  0.99424400  0.44858600  1
  H  H34  1  0.41084800  0.99424400  0.05141400  1
  H  H35  1  0.08915200  0.50575600  0.55141400  1
  H  H36  1  0.08915200  0.49424400  0.05141400  1
  H  H37  1  0.41084800  0.00575600  0.55141400  1
  H  H38  1  0.58915200  0.00575600  0.94858600  1
  H  H39  1  0.91084800  0.49424400  0.44858600  1
  H  H40  1  0.05982000  0.99182700  0.12508700  1
  H  H41  1  0.44018000  0.50817300  0.62508700  1
  H  H42  1  0.55982000  0.50817300  0.87491300  1
  H  H43  1  0.94018000  0.99182700  0.37491300  1
  H  H44  1  0.94018000  0.00817300  0.87491300  1
  H  H45  1  0.55982000  0.49182700  0.37491300  1
  H  H46  1  0.44018000  0.49182700  0.12508700  1
  H  H47  1  0.05982000  0.00817300  0.62508700  1
  H  H48  1  0.02655500  0.10047400  0.16320100  1
  H  H49  1  0.47344500  0.39952600  0.66320100  1
  H  H50  1  0.52655500  0.39952600  0.83679900  1
  H  H51  1  0.97344500  0.10047400  0.33679900  1
  H  H52  1  0.97344500  0.89952600  0.83679900  1
  H  H53  1  0.52655500  0.60047400  0.33679900  1
  H  H54  1  0.47344500  0.60047400  0.16320100  1
  H  H55  1  0.02655500  0.89952600  0.66320100  1
  O  O0  1  0.08232800  0.77729300  0.94379500  1
  O  O1  1  0.41767200  0.72270700  0.44379500  1
  O  O2  1  0.58232800  0.72270700  0.05620500  1
  O  O3  1  0.91767200  0.77729300  0.55620500  1
  O  O4  1  0.91767200  0.22270700  0.05620500  1
  O  O5  1  0.58232800  0.27729300  0.55620500  1
  O  O6  1  0.41767200  0.27729300  0.94379500  1
  O  O7  1  0.08232800  0.22270700  0.44379500  1
  O  O8  1  0.89000800  0.76535100  0.04060100  1
  O  O9  1  0.60999200  0.73464900  0.54060100  1
  O  O10  1  0.39000800  0.73464900  0.95939900  1
  O  O11  1  0.10999200  0.76535100  0.45939900  1
  O  O12  1  0.10999200  0.23464900  0.95939900  1
  O  O13  1  0.39000800  0.26535100  0.45939900  1
  O  O14  1  0.60999200  0.26535100  0.04060100  1
  O  O15  1  0.89000800  0.23464900  0.54060100  1
  O  O16  1  0.08592100  0.90789100  0.04516300  1
  O  O17  1  0.41407900  0.59210900  0.54516300  1
  O  O18  1  0.58592100  0.59210900  0.95483700  1
  O  O19  1  0.91407900  0.90789100  0.45483700  1
  O  O20  1  0.91407900  0.09210900  0.95483700  1
  O  O21  1  0.58592100  0.40789100  0.45483700  1
  O  O22  1  0.41407900  0.40789100  0.04516300  1
  O  O23  1  0.08592100  0.09210900  0.54516300  1
  O  O24  1  0.15837600  0.71553900  0.06651400  1
  O  O25  1  0.34162400  0.78446100  0.56651400  1
  O  O26  1  0.65837600  0.78446100  0.93348600  1
  O  O27  1  0.84162400  0.71553900  0.43348600  1
  O  O28  1  0.84162400  0.28446100  0.93348600  1
  O  O29  1  0.65837600  0.21553900  0.43348600  1
  O  O30  1  0.34162400  0.21553900  0.06651400  1
  O  O31  1  0.15837600  0.28446100  0.56651400  1
  O  O32  1  0.41580600  0.72192700  0.80355300  1
  O  O33  1  0.08419400  0.77807300  0.30355300  1
  O  O34  1  0.91580600  0.77807300  0.19644700  1
  O  O35  1  0.58419400  0.72192700  0.69644700  1
  O  O36  1  0.58419400  0.27807300  0.19644700  1
  O  O37  1  0.91580600  0.22192700  0.69644700  1
  O  O38  1  0.08419400  0.22192700  0.80355300  1
  O  O39  1  0.41580600  0.27807300  0.30355300  1
  O  O40  1  0.61095400  0.86663900  0.78959400  1
  O  O41  1  0.88904600  0.63336100  0.28959400  1
  O  O42  1  0.11095400  0.63336100  0.21040600  1
  O  O43  1  0.38904600  0.86663900  0.71040600  1
  O  O44  1  0.38904600  0.13336100  0.21040600  1
  O  O45  1  0.11095400  0.36663900  0.71040600  1
  O  O46  1  0.88904600  0.36663900  0.78959400  1
  O  O47  1  0.61095400  0.13336100  0.28959400  1
  O  O48  1  0.09263600  0.77517700  0.79945500  1
  O  O49  1  0.40736400  0.72482300  0.29945500  1
  O  O50  1  0.59263600  0.72482300  0.20054500  1
  O  O51  1  0.90736400  0.77517700  0.70054500  1
  O  O52  1  0.90736400  0.22482300  0.20054500  1
  O  O53  1  0.59263600  0.27517700  0.70054500  1
  O  O54  1  0.40736400  0.27517700  0.79945500  1
  O  O55  1  0.09263600  0.22482300  0.29945500  1
  O  O56  1  0.11460100  0.63361000  0.70895100  1
  O  O57  1  0.38539900  0.86639000  0.20895100  1
  O  O58  1  0.61460100  0.86639000  0.29104900  1
  O  O59  1  0.88539900  0.63361000  0.79104900  1
  O  O60  1  0.88539900  0.36639000  0.29104900  1
  O  O61  1  0.61460100  0.13361000  0.79104900  1
  O  O62  1  0.38539900  0.13361000  0.70895100  1
  O  O63  1  0.11460100  0.36639000  0.20895100  1
  O  O64  1  0.97419700  0.51682800  0.90401300  1
  O  O65  1  0.52580300  0.98317200  0.40401300  1
  O  O66  1  0.47419700  0.98317200  0.09598700  1
  O  O67  1  0.02580300  0.51682800  0.59598700  1
  O  O68  1  0.02580300  0.48317200  0.09598700  1
  O  O69  1  0.47419700  0.01682800  0.59598700  1
  O  O70  1  0.52580300  0.01682800  0.90401300  1
  O  O71  1  0.97419700  0.48317200  0.40401300  1
  O  O72  1  0.19376800  0.50077800  0.98884300  1
  O  O73  1  0.30623200  0.99922200  0.48884300  1
  O  O74  1  0.69376800  0.99922200  0.01115700  1
  O  O75  1  0.80623200  0.50077800  0.51115700  1
  O  O76  1  0.80623200  0.49922200  0.01115700  1
  O  O77  1  0.69376800  0.00077800  0.51115700  1
  O  O78  1  0.30623200  0.00077800  0.98884300  1
  O  O79  1  0.19376800  0.49922200  0.48884300  1
  O  O80  1  0.21665200  0.59907900  0.87076700  1
  O  O81  1  0.28334800  0.90092100  0.37076700  1
  O  O82  1  0.71665200  0.90092100  0.12923300  1
  O  O83  1  0.78334800  0.59907900  0.62923300  1
  O  O84  1  0.78334800  0.40092100  0.12923300  1
  O  O85  1  0.71665200  0.09907900  0.62923300  1
  O  O86  1  0.28334800  0.09907900  0.87076700  1
  O  O87  1  0.21665200  0.40092100  0.37076700  1
  O  O88  1  0.20208200  0.40674900  0.86969400  1
  O  O89  1  0.29791800  0.09325100  0.36969400  1
  O  O90  1  0.70208200  0.09325100  0.13030600  1
  O  O91  1  0.79791800  0.40674900  0.63030600  1
  O  O92  1  0.79791800  0.59325100  0.13030600  1
  O  O93  1  0.70208200  0.90674900  0.63030600  1
  O  O94  1  0.29791800  0.90674900  0.86969400  1
  O  O95  1  0.20208200  0.59325100  0.36969400  1
  O  O96  1  0.05640600  0.02727600  0.17081200  1
  O  O97  1  0.44359400  0.47272400  0.67081200  1
  O  O98  1  0.55640600  0.47272400  0.82918800  1
  O  O99  1  0.94359400  0.02727600  0.32918800  1
  O  O100  1  0.94359400  0.97272400  0.82918800  1
  O  O101  1  0.55640600  0.52727600  0.32918800  1
  O  O102  1  0.44359400  0.52727600  0.17081200  1
  O  O103  1  0.05640600  0.97272400  0.67081200  1
loop_
_geom_bond_atom_site_label_1
_geom_bond_atom_site_label_2
_geom_bond_distance
_geom_bond_site_symmetry_2
Na0 O96 2.282530 1_565
Na0 O81 2.375054 1_555
Na0 O99 2.553941 1_465
Na0 O89 2.558707 1_565
Na0 O57 2.559849 1_555
Na0 O44 2.809599 1_565
Na0 O33 2.877188 1_555
Na1 O97 2.282530 1_555
Na1 O80 2.375054 1_555
Na1 O98 2.553941 1_555
Na1 O88 2.558707 1_555
Na1 O56 2.559849 1_555
Na1 O45 2.809599 1_555
Na1 O32 2.877188 1_555
Na2 O98 2.282530 1_555
Na2 O83 2.375054 1_555
Na2 O97 2.553941 1_555
Na2 O91 2.558707 1_555
Na2 O59 2.559849 1_555
Na2 O46 2.809599 1_555
Na2 O35 2.877188 1_555
Na3 O99 2.282530 1_565
Na3 O82 2.375054 1_555
Na3 O96 2.553941 1_665
Na3 O90 2.558707 1_565
Na3 O58 2.559849 1_555
Na3 O47 2.809599 1_565
Na3 O34 2.877188 1_555
Na4 O100 2.282530 1_545
Na4 O85 2.375054 1_555
Na4 O103 2.553941 1_645
Na4 O93 2.558707 1_545
Na4 O61 2.559849 1_555
Na4 O40 2.809599 1_545
Na4 O37 2.877188 1_555
Na5 O101 2.282530 1_555
Na5 O84 2.375054 1_555
Na5 O102 2.553941 1_555
Na5 O92 2.558707 1_555
Na5 O60 2.559849 1_555
Na5 O41 2.809599 1_555
Na5 O36 2.877188 1_555
Na6 O102 2.282530 1_555
Na6 O87 2.375054 1_555
Na6 O101 2.553941 1_555
Na6 O95 2.558707 1_555
Na6 O63 2.559849 1_555
Na6 O42 2.809599 1_555
Na6 O39 2.877188 1_555
Na7 O103 2.282530 1_545
Na7 O86 2.375054 1_555
Na7 O100 2.553941 1_445
Na7 O94 2.558707 1_545
Na7 O62 2.559849 1_555
Na7 O43 2.809599 1_545
Na7 O38 2.877188 1_555
Fe0 O94 1.990795 1_555
Fe0 O80 1.992200 1_555
Fe0 O0 2.022366 1_555
Fe0 O48 2.041369 1_555
Fe0 O32 2.043739 1_555
Fe0 O10 2.044720 1_555
Fe1 O95 1.990795 1_555
Fe1 O81 1.992200 1_555
Fe1 O1 2.022366 1_555
Fe1 O49 2.041369 1_555
Fe1 O33 2.043739 1_555
Fe1 O11 2.044720 1_555
Fe2 O92 1.990795 1_555
Fe2 O82 1.992200 1_555
Fe2 O2 2.022366 1_555
Fe2 O50 2.041369 1_555
Fe2 O34 2.043739 1_555
Fe2 O8 2.044720 1_555
Fe3 O93 1.990795 1_555
Fe3 O83 1.992200 1_555
Fe3 O3 2.022366 1_555
Fe3 O51 2.041369 1_555
Fe3 O35 2.043739 1_555
Fe3 O9 2.044720 1_555
Fe4 O90 1.990795 1_555
Fe4 O84 1.992200 1_555
Fe4 O4 2.022366 1_555
Fe4 O52 2.041369 1_555
Fe4 O36 2.043739 1_555
Fe4 O14 2.044720 1_555
Fe5 O91 1.990795 1_555
Fe5 O85 1.992200 1_555
Fe5 O5 2.022366 1_555
Fe5 O53 2.041369 1_555
Fe5 O37 2.043739 1_555
Fe5 O15 2.044720 1_555
Fe6 O88 1.990795 1_555
Fe6 O86 1.992200 1_555
Fe6 O6 2.022366 1_555
Fe6 O54 2.041369 1_555
Fe6 O38 2.043739 1_555
Fe6 O12 2.044720 1_555
Fe7 O89 1.990795 1_555
Fe7 O87 1.992200 1_555
Fe7 O7 2.022366 1_555
Fe7 O55 2.041369 1_555
Fe7 O39 2.043739 1_555
Fe7 O13 2.044720 1_555
H0 O16 1.041065 1_555
H0 O78 1.496070 1_564
H1 O17 1.041065 1_555
H1 O79 1.496070 1_555
H2 O18 1.041058 1_555
H2 O76 1.496077 1_556
H3 O19 1.041058 1_555
H3 O77 1.496077 1_565
H4 O20 1.041058 1_555
H4 O74 1.496077 1_546
H5 O21 1.041058 1_555
H5 O75 1.496077 1_555
H6 O22 1.041065 1_555
H6 O72 1.496070 1_554
H7 O23 1.041065 1_555
H7 O73 1.496070 1_545
H8 O24 0.988283 1_555
H9 O25 0.988283 1_555
H10 O26 0.988283 1_555
H11 O27 0.988283 1_555
H12 O28 0.988283 1_555
H13 O29 0.988283 1_555
H14 O30 0.988283 1_555
H15 O31 0.988283 1_555
H16 O40 0.985137 1_555
H17 O41 0.985137 1_555
H18 O42 0.985137 1_555
H19 O43 0.985137 1_555
H20 O44 0.985137 1_555
H21 O45 0.985137 1_555
H22 O46 0.985137 1_555
H23 O47 0.985137 1_555
H24 O56 1.003643 1_555
H25 O57 1.003643 1_555
H26 O58 1.003643 1_555
H27 O59 1.003643 1_555
H28 O60 1.003643 1_555
H29 O61 1.003643 1_555
H30 O62 1.003643 1_555
H31 O63 1.003643 1_555
H32 O64 1.031507 1_555
H32 O76 1.518593 1_556
H33 O65 1.031507 1_555
H33 O77 1.518593 1_565
H34 O66 1.031507 1_555
H34 O78 1.518593 1_564
H35 O67 1.031507 1_555
H35 O79 1.518593 1_555
H36 O68 1.031507 1_555
H36 O72 1.518593 1_554
H37 O69 1.031507 1_555
H37 O73 1.518593 1_545
H38 O70 1.031507 1_555
H38 O74 1.518593 1_546
H39 O71 1.031507 1_555
H39 O75 1.518593 1_555
H40 O96 0.983314 1_565
H41 O97 0.983314 1_555
H42 O98 0.983314 1_555
H43 O99 0.983314 1_565
H44 O100 0.983314 1_545
H45 O101 0.983314 1_555
H46 O102 0.983314 1_555
H47 O103 0.983314 1_545
H48 O96 0.978594 1_555
H49 O97 0.978594 1_555
H50 O98 0.978594 1_555
H51 O99 0.978594 1_555
H52 O100 0.978594 1_555
H53 O101 0.978594 1_555
H54 O102 0.978594 1_555
H55 O103 0.978594 1_555
O0 P0 1.517740 1_556
O1 P1 1.517740 1_555
O2 P2 1.517740 1_554
O3 P3 1.517740 1_555
O4 P4 1.517740 1_554
O5 P5 1.517740 1_555
O6 P6 1.517740 1_556
O7 P7 1.517740 1_555
O8 P0 1.519882 1_655
O9 P1 1.519882 1_555
O10 P2 1.519882 1_555
O11 P3 1.519882 1_455
O12 P4 1.519882 1_455
O13 P5 1.519882 1_555
O14 P6 1.519882 1_555
O15 P7 1.519882 1_655
O16 P0 1.578562 1_555
O17 P1 1.578562 1_555
O18 P2 1.578562 1_555
O19 P3 1.578562 1_555
O20 P4 1.578562 1_555
O21 P5 1.578562 1_555
O22 P6 1.578562 1_555
O23 P7 1.578562 1_555
O24 P0 1.610486 1_555
O25 P1 1.610486 1_555
O26 P2 1.610486 1_555
O27 P3 1.610486 1_555
O28 P4 1.610486 1_555
O29 P5 1.610486 1_555
O30 P6 1.610486 1_555
O31 P7 1.610486 1_555
O32 P8 1.524885 1_555
O33 P9 1.524885 1_555
O34 P9 1.524885 1_655
O35 P8 1.524885 1_555
O36 P10 1.524885 1_555
O37 P11 1.524885 1_655
O38 P11 1.524885 1_555
O39 P10 1.524885 1_555
O40 P8 1.593442 1_555
O41 P9 1.593442 1_655
O42 P9 1.593442 1_555
O43 P8 1.593442 1_555
O44 P10 1.593442 1_555
O45 P11 1.593442 1_555
O46 P11 1.593442 1_655
O47 P10 1.593442 1_555
O48 P12 1.521789 1_555
O49 P13 1.521789 1_555
O50 P13 1.521789 1_555
O51 P12 1.521789 1_655
O52 P14 1.521789 1_655
O53 P15 1.521789 1_555
O54 P15 1.521789 1_555
O55 P14 1.521789 1_555
O56 P12 1.593971 1_555
O57 P13 1.593971 1_555
O58 P13 1.593971 1_555
O59 P12 1.593971 1_655
O60 P14 1.593971 1_655
O61 P15 1.593971 1_555
O62 P15 1.593971 1_555
O63 P14 1.593971 1_555
O64 P16 1.601016 1_655
O65 P17 1.601016 1_555
O66 P18 1.601016 1_555
O67 P19 1.601016 1_455
O68 P20 1.601016 1_455
O69 P21 1.601016 1_555
O70 P22 1.601016 1_555
O71 P23 1.601016 1_655
O72 P16 1.533599 1_555
O73 P17 1.533599 1_555
O74 P18 1.533599 1_555
O75 P19 1.533599 1_555
O76 P20 1.533599 1_555
O77 P21 1.533599 1_555
O78 P22 1.533599 1_555
O79 P23 1.533599 1_555
O80 P16 1.535917 1_555
O81 P17 1.535917 1_555
O82 P18 1.535917 1_555
O83 P19 1.535917 1_555
O84 P20 1.535917 1_555
O85 P21 1.535917 1_555
O86 P22 1.535917 1_555
O87 P23 1.535917 1_555
O88 P16 1.539340 1_555
O89 P17 1.539340 1_545
O90 P18 1.539340 1_545
O91 P19 1.539340 1_555
O92 P20 1.539340 1_555
O93 P21 1.539340 1_565
O94 P22 1.539340 1_565
O95 P23 1.539340 1_555
