# generated using pymatgen
data_Li3Ti4O8
_symmetry_space_group_name_H-M   'P 1'
_cell_length_a   5.98487035
_cell_length_b   5.98487035
_cell_length_c   5.98487048
_cell_angle_alpha   59.57495159
_cell_angle_beta   59.57495159
_cell_angle_gamma   59.57494233
_symmetry_Int_Tables_number   1
_chemical_formula_structural   Li3Ti4O8
_chemical_formula_sum   'Li3 Ti4 O8'
_cell_volume   150.11791287
_cell_formula_units_Z   1
loop_
 _symmetry_equiv_pos_site_id
 _symmetry_equiv_pos_as_xyz
  1  'x, y, z'
loop_
 _atom_site_type_symbol
 _atom_site_label
 _atom_site_symmetry_multiplicity
 _atom_site_fract_x
 _atom_site_fract_y
 _atom_site_fract_z
 _atom_site_occupancy
  Li  Li0  1  0.50000000  0.00000000  0.50000000  1
  Li  Li1  1  0.00000000  0.50000000  0.50000000  1
  Li  Li2  1  0.50000000  0.50000000  0.00000000  1
  Ti  Ti0  1  0.00000000  0.50000000  0.00000000  1
  Ti  Ti1  1  0.00000000  0.00000000  0.00000000  1
  Ti  Ti2  1  0.00000000  0.00000000  0.50000000  1
  Ti  Ti3  1  0.50000000  0.00000000  0.00000000  1
  O  O0  1  0.76245900  0.22239600  0.76245900  1
  O  O1  1  0.75531800  0.75531800  0.75531800  1
  O  O2  1  0.23754100  0.23754100  0.77760400  1
  O  O3  1  0.22239600  0.76245900  0.76245900  1
  O  O4  1  0.77760400  0.23754100  0.23754100  1
  O  O5  1  0.76245900  0.76245900  0.22239600  1
  O  O6  1  0.24468200  0.24468200  0.24468200  1
  O  O7  1  0.23754100  0.77760400  0.23754100  1
loop_
_geom_bond_atom_site_label_1
_geom_bond_atom_site_label_2
_geom_bond_distance
_geom_bond_site_symmetry_2
Li0 O6 2.155563 1_555
Li0 O1 2.155563 1_545
Li0 O5 2.176258 1_545
Li0 O2 2.176258 1_555
Li0 O4 2.176258 1_555
Li0 O3 2.176258 1_545
Li1 O6 2.155563 1_555
Li1 O1 2.155563 1_455
Li1 O5 2.176258 1_455
Li1 O2 2.176258 1_555
Li1 O7 2.176258 1_555
Li1 O0 2.176258 1_455
Li2 O6 2.155563 1_555
Li2 O1 2.155563 1_554
Li2 O3 2.176258 1_554
Li2 O0 2.176258 1_554
Li2 O4 2.176258 1_555
Li2 O7 2.176258 1_555
O0 Ti1 2.006937 1_656
O0 Ti2 2.049231 1_655
O0 Ti3 2.049231 1_556
O1 Ti3 2.064714 1_566
O1 Ti0 2.064714 1_656
O1 Ti2 2.064714 1_665
O2 Ti1 2.006937 1_556
O2 Ti3 2.049230 1_556
O2 Ti0 2.049230 1_556
O3 Ti1 2.006937 1_566
O3 Ti2 2.049231 1_565
O3 Ti0 2.049231 1_556
O4 Ti1 2.006937 1_655
O4 Ti2 2.049231 1_655
O4 Ti0 2.049231 1_655
O5 Ti1 2.006937 1_665
O5 Ti0 2.049230 1_655
O5 Ti3 2.049230 1_565
O6 Ti0 2.064714 1_555
O6 Ti3 2.064714 1_555
O6 Ti2 2.064714 1_555
O7 Ti1 2.006937 1_565
O7 Ti2 2.049231 1_565
O7 Ti3 2.049231 1_565
