# generated using pymatgen
data_LiCuPO4
_symmetry_space_group_name_H-M   'P 1'
_cell_length_a   7.49445216
_cell_length_b   7.49445216
_cell_length_c   9.77944800
_cell_angle_alpha   90.00000000
_cell_angle_beta   90.00000000
_cell_angle_gamma   120.00000138
_symmetry_Int_Tables_number   1
_chemical_formula_structural   LiCuPO4
_chemical_formula_sum   'Li6 Cu6 P6 O24'
_cell_volume   475.69079807
_cell_formula_units_Z   6
loop_
 _symmetry_equiv_pos_site_id
 _symmetry_equiv_pos_as_xyz
  1  'x, y, z'
loop_
 _atom_site_type_symbol
 _atom_site_label
 _atom_site_symmetry_multiplicity
 _atom_site_fract_x
 _atom_site_fract_y
 _atom_site_fract_z
 _atom_site_occupancy
  Li  Li0  1  0.06965800  0.58772300  0.48213700  1
  Li  Li1  1  0.51806500  0.93034200  0.48213700  1
  Li  Li2  1  0.41227700  0.48193500  0.48213700  1
  Li  Li3  1  0.48193500  0.41227700  0.98213700  1
  Li  Li4  1  0.58772300  0.06965800  0.98213700  1
  Li  Li5  1  0.93034200  0.51806500  0.98213700  1
  Cu  Cu0  1  0.22713200  0.95672100  0.27112400  1
  Cu  Cu1  1  0.04327900  0.27041100  0.27112400  1
  Cu  Cu2  1  0.27041100  0.04327900  0.77112400  1
  Cu  Cu3  1  0.72958900  0.77286800  0.27112400  1
  Cu  Cu4  1  0.77286800  0.72958900  0.77112400  1
  Cu  Cu5  1  0.95672100  0.22713200  0.77112400  1
  P  P0  1  0.33333300  0.66666700  0.18155800  1
  P  P1  1  0.00000000  0.00000000  0.00688600  1
  P  P2  1  0.00000000  0.00000000  0.50688600  1
  P  P3  1  0.33333300  0.66666700  0.77008200  1
  P  P4  1  0.66666700  0.33333300  0.68155800  1
  P  P5  1  0.66666700  0.33333300  0.27008200  1
  O  O0  1  0.09831200  0.87334000  0.45619400  1
  O  O1  1  0.24117800  0.79729300  0.12318600  1
  O  O2  1  0.39887600  0.88538800  0.82862900  1
  O  O3  1  0.11461200  0.51348800  0.82862900  1
  O  O4  1  0.20270700  0.44388500  0.12318600  1
  O  O5  1  0.33333300  0.66666700  0.33959400  1
  O  O6  1  0.00000000  0.00000000  0.17274500  1
  O  O7  1  0.00000000  0.00000000  0.67274500  1
  O  O8  1  0.33333300  0.66666700  0.61247500  1
  O  O9  1  0.12666000  0.22497100  0.45619400  1
  O  O10  1  0.22497100  0.12666000  0.95619400  1
  O  O11  1  0.55611500  0.75882200  0.12318600  1
  O  O12  1  0.48651200  0.60112400  0.82862900  1
  O  O13  1  0.77502900  0.90168800  0.45619400  1
  O  O14  1  0.44388500  0.20270700  0.62318600  1
  O  O15  1  0.51348800  0.11461200  0.32862900  1
  O  O16  1  0.60112400  0.48651200  0.32862900  1
  O  O17  1  0.75882200  0.55611500  0.62318600  1
  O  O18  1  0.66666700  0.33333300  0.83959400  1
  O  O19  1  0.66666700  0.33333300  0.11247500  1
  O  O20  1  0.90168800  0.77502900  0.95619400  1
  O  O21  1  0.79729300  0.24117800  0.62318600  1
  O  O22  1  0.88538800  0.39887600  0.32862900  1
  O  O23  1  0.87334000  0.09831200  0.95619400  1
loop_
_geom_bond_atom_site_label_1
_geom_bond_atom_site_label_2
_geom_bond_distance
_geom_bond_site_symmetry_2
Li0 O22 2.051679 1_455
Li0 O0 2.057361 1_555
Li0 O8 2.170382 1_555
Li0 O5 2.242561 1_555
Li1 O15 2.051679 1_565
Li1 O13 2.057369 1_555
Li1 O8 2.170383 1_555
Li1 O5 2.242562 1_555
Li2 O16 2.051679 1_555
Li2 O9 2.057364 1_555
Li2 O8 2.170388 1_555
Li2 O5 2.242567 1_555
Li3 O12 2.051679 1_555
Li3 O10 2.057364 1_555
Li3 O19 2.170388 1_556
Li3 O18 2.242567 1_555
Li4 O2 2.051679 1_545
Li4 O23 2.057361 1_555
Li4 O19 2.170382 1_556
Li4 O18 2.242561 1_555
Li5 O3 2.051679 1_655
Li5 O20 2.057369 1_555
Li5 O19 2.170383 1_556
Li5 O18 2.242562 1_555
Cu0 O1 1.912474 1_555
Cu0 O15 1.944907 1_565
Cu0 O0 1.998734 1_555
Cu0 O6 2.116727 1_565
Cu1 O4 1.912474 1_555
Cu1 O22 1.944907 1_455
Cu1 O9 1.998737 1_555
Cu1 O6 2.116727 1_555
Cu2 O14 1.912474 1_555
Cu2 O2 1.944907 1_545
Cu2 O10 1.998737 1_555
Cu2 O7 2.116727 1_555
Cu3 O11 1.912474 1_555
Cu3 O16 1.944907 1_555
Cu3 O13 1.998734 1_555
Cu3 O6 2.116727 1_665
Cu4 O17 1.912474 1_555
Cu4 O12 1.944907 1_555
Cu4 O20 1.998734 1_555
Cu4 O7 2.116727 1_665
Cu5 O21 1.912474 1_555
Cu5 O3 1.944907 1_655
Cu5 O23 1.998734 1_555
Cu5 O7 2.116727 1_655
O0 P2 1.545670 1_565
O1 P0 1.561209 1_555
O2 P3 1.565528 1_555
O3 P3 1.565530 1_555
O4 P0 1.561215 1_555
O5 P0 1.545505 1_555
O6 P1 1.622009 1_555
O7 P2 1.622009 1_555
O8 P3 1.541309 1_555
O9 P2 1.545664 1_555
O10 P1 1.545664 1_556
O11 P0 1.561216 1_555
O12 P3 1.565535 1_555
O13 P2 1.545663 1_665
O14 P4 1.561215 1_555
O15 P5 1.565530 1_555
O16 P5 1.565535 1_555
O17 P4 1.561216 1_555
O18 P4 1.545505 1_555
O19 P5 1.541309 1_555
O20 P1 1.545663 1_666
O21 P4 1.561209 1_555
O22 P5 1.565528 1_555
O23 P1 1.545670 1_656
