# generated using pymatgen
data_Li3Co3TeO8
_symmetry_space_group_name_H-M   'P 1'
_cell_length_a   6.05025846
_cell_length_b   6.05025846
_cell_length_c   6.04558165
_cell_angle_alpha   60.40168576
_cell_angle_beta   60.40168576
_cell_angle_gamma   60.52905838
_symmetry_Int_Tables_number   1
_chemical_formula_structural   Li3Co3TeO8
_chemical_formula_sum   'Li3 Co3 Te1 O8'
_cell_volume   158.05514779
_cell_formula_units_Z   1
loop_
 _symmetry_equiv_pos_site_id
 _symmetry_equiv_pos_as_xyz
  1  'x, y, z'
loop_
 _atom_site_type_symbol
 _atom_site_label
 _atom_site_symmetry_multiplicity
 _atom_site_fract_x
 _atom_site_fract_y
 _atom_site_fract_z
 _atom_site_occupancy
  Li  Li0  1  0.00000000  0.50000000  0.50000000  1
  Li  Li1  1  0.50000000  0.00000000  0.50000000  1
  Li  Li2  1  0.00000000  0.00000000  0.00000000  1
  Co  Co0  1  0.50000000  0.00000000  0.00000000  1
  Co  Co1  1  0.00000000  0.50000000  0.00000000  1
  Co  Co2  1  0.50000000  0.50000000  0.50000000  1
  Te  Te0  1  0.00000000  0.00000000  0.50000000  1
  O  O0  1  0.72356400  0.72356400  0.26113000  1
  O  O1  1  0.23029700  0.77305500  0.72587600  1
  O  O2  1  0.77305500  0.23029700  0.72587600  1
  O  O3  1  0.27643600  0.27643600  0.73887000  1
  O  O4  1  0.22690700  0.22690700  0.26877100  1
  O  O5  1  0.76970300  0.22694500  0.27412400  1
  O  O6  1  0.22694500  0.76970300  0.27412400  1
  O  O7  1  0.77309300  0.77309300  0.73122900  1
loop_
_geom_bond_atom_site_label_1
_geom_bond_atom_site_label_2
_geom_bond_distance
_geom_bond_site_symmetry_2
Li0 O6 2.136357 1_555
Li0 O2 2.136357 1_455
Li0 O7 2.173207 1_455
Li0 O4 2.173207 1_555
Li0 O0 2.223209 1_455
Li0 O3 2.223209 1_555
Li1 O5 2.136357 1_555
Li1 O1 2.136357 1_545
Li1 O7 2.173207 1_545
Li1 O4 2.173207 1_555
Li1 O0 2.223209 1_545
Li1 O3 2.223209 1_555
Li2 O6 2.158128 1_545
Li2 O5 2.158128 1_455
Li2 O2 2.158128 1_454
Li2 O1 2.158128 1_544
Li2 O0 2.371239 1_445
Li2 O3 2.371239 1_554
Co0 O0 2.096248 1_545
Co0 O3 2.096248 1_554
Co0 O4 2.138806 1_555
Co0 O7 2.138806 1_544
Co0 O2 2.167161 1_554
Co0 O6 2.167161 1_545
Co1 O3 2.096248 1_554
Co1 O0 2.096248 1_455
Co1 O4 2.138806 1_555
Co1 O7 2.138806 1_454
Co1 O1 2.167161 1_554
Co1 O5 2.167161 1_455
Co2 O0 1.919825 1_555
Co2 O3 1.919825 1_555
Co2 O2 2.152093 1_555
Co2 O1 2.152093 1_555
Co2 O6 2.152093 1_555
Co2 O5 2.152093 1_555
O1 Te0 1.958664 1_565
O2 Te0 1.958664 1_655
O4 Te0 1.945898 1_555
O5 Te0 1.958664 1_655
O6 Te0 1.958664 1_565
O7 Te0 1.945898 1_665
