# generated using pymatgen
data_La2WO6
_symmetry_space_group_name_H-M   'P 1'
_cell_length_a   5.47442005
_cell_length_b   9.41664727
_cell_length_c   10.37036565
_cell_angle_alpha   90.00000000
_cell_angle_beta   90.00000000
_cell_angle_gamma   90.00000000
_symmetry_Int_Tables_number   1
_chemical_formula_structural   La2WO6
_chemical_formula_sum   'La8 W4 O24'
_cell_volume   534.59942826
_cell_formula_units_Z   4
loop_
 _symmetry_equiv_pos_site_id
 _symmetry_equiv_pos_as_xyz
  1  'x, y, z'
loop_
 _atom_site_type_symbol
 _atom_site_label
 _atom_site_symmetry_multiplicity
 _atom_site_fract_x
 _atom_site_fract_y
 _atom_site_fract_z
 _atom_site_occupancy
  La  La0  1  0.02747875  0.39499466  0.04118531  1
  La  La1  1  0.02488092  0.28020300  0.63448282  1
  La  La2  1  0.47511908  0.71979700  0.13448282  1
  La  La3  1  0.47252125  0.60500534  0.54118531  1
  La  La4  1  0.52747875  0.10500534  0.95881469  1
  La  La5  1  0.52488092  0.21979700  0.36551718  1
  La  La6  1  0.97511908  0.78020300  0.86551718  1
  La  La7  1  0.97252125  0.89499466  0.45881469  1
  W  W0  1  0.04175286  0.00346821  0.14482443  1
  W  W1  1  0.45824714  0.99653179  0.64482443  1
  W  W2  1  0.54175286  0.49653179  0.85517557  1
  W  W3  1  0.95824714  0.50346821  0.35517557  1
  O  O0  1  0.06564470  0.64773116  0.47816665  1
  O  O1  1  0.17137203  0.54914592  0.22095177  1
  O  O2  1  0.20168220  0.86376174  0.67560926  1
  O  O3  1  0.18200047  0.86520385  0.25564184  1
  O  O4  1  0.21572353  0.38969165  0.43842030  1
  O  O5  1  0.24750231  0.08860618  0.51027159  1
  O  O6  1  0.25249769  0.91139382  0.01027159  1
  O  O7  1  0.28427647  0.61030835  0.93842030  1
  O  O8  1  0.31799953  0.13479615  0.75564184  1
  O  O9  1  0.29831780  0.13623826  0.17560926  1
  O  O10  1  0.32862797  0.45085408  0.72095177  1
  O  O11  1  0.43435530  0.35226884  0.97816665  1
  O  O12  1  0.56564470  0.85226884  0.52183335  1
  O  O13  1  0.67137203  0.95085408  0.77904823  1
  O  O14  1  0.70168220  0.63623826  0.32439074  1
  O  O15  1  0.68200047  0.63479615  0.74435816  1
  O  O16  1  0.71572353  0.11030835  0.56157970  1
  O  O17  1  0.74750231  0.41139382  0.48972841  1
  O  O18  1  0.75249769  0.58860618  0.98972841  1
  O  O19  1  0.78427647  0.88969165  0.06157970  1
  O  O20  1  0.81799953  0.36520385  0.24435816  1
  O  O21  1  0.79831780  0.36376174  0.82439074  1
  O  O22  1  0.82862797  0.04914592  0.27904823  1
  O  O23  1  0.93435530  0.14773116  0.02183335  1
loop_
_geom_bond_atom_site_label_1
_geom_bond_atom_site_label_2
_geom_bond_distance
_geom_bond_site_symmetry_2
La0 O11 2.355916 1_554
La0 O23 2.391983 1_455
La0 O20 2.415191 1_455
La0 O18 2.423804 1_454
La0 O1 2.490589 1_555
La0 O21 2.591314 1_454
La0 O7 2.687556 1_554
La1 O16 2.448567 1_455
La1 O8 2.455290 1_555
La1 O21 2.456840 1_455
La1 O17 2.466867 1_455
La1 O10 2.480213 1_555
La1 O4 2.507702 1_555
La1 O5 2.529756 1_555
La2 O19 2.448567 1_555
La2 O3 2.455290 1_555
La2 O14 2.456840 1_555
La2 O18 2.466867 1_554
La2 O1 2.480213 1_555
La2 O7 2.507702 1_554
La2 O6 2.529756 1_555
La3 O0 2.355916 1_555
La3 O12 2.391983 1_555
La3 O15 2.415191 1_555
La3 O17 2.423804 1_555
La3 O10 2.490589 1_555
La3 O14 2.591314 1_555
La3 O4 2.687556 1_555
La4 O23 2.355916 1_556
La4 O11 2.391983 1_555
La4 O8 2.415191 1_555
La4 O6 2.423804 1_546
La4 O13 2.490589 1_545
La4 O9 2.591314 1_556
La4 O19 2.687556 1_546
La5 O4 2.448567 1_555
La5 O20 2.455290 1_555
La5 O9 2.456840 1_555
La5 O5 2.466867 1_555
La5 O22 2.480213 1_555
La5 O16 2.507702 1_555
La5 O17 2.529756 1_555
La6 O7 2.448567 1_655
La6 O15 2.455290 1_555
La6 O2 2.456840 1_655
La6 O6 2.466867 1_656
La6 O13 2.480213 1_555
La6 O19 2.507702 1_556
La6 O18 2.529756 1_555
La7 O12 2.355916 1_555
La7 O0 2.391983 1_655
La7 O3 2.415191 1_655
La7 O5 2.423804 1_665
La7 O22 2.490589 1_565
La7 O2 2.591314 1_655
La7 O16 2.687556 1_565
O0 W3 1.953952 1_455
O1 W3 1.866496 1_455
O2 W1 1.907298 1_555
O3 W0 1.898775 1_565
O4 W3 1.969751 1_455
O5 W1 2.007440 1_545
O6 W0 2.007440 1_565
O7 W2 1.969751 1_555
O8 W1 1.898775 1_545
O9 W0 1.907298 1_555
O10 W2 1.866496 1_555
O11 W2 1.953952 1_555
O12 W1 1.953952 1_555
O13 W1 1.866496 1_555
O14 W3 1.907298 1_555
O15 W2 1.898775 1_555
O16 W1 1.969751 1_545
O17 W3 2.007440 1_555
O18 W2 2.007440 1_555
O19 W0 1.969751 1_665
O20 W3 1.898775 1_555
O21 W2 1.907298 1_555
O22 W0 1.866496 1_655
O23 W0 1.953952 1_655
