# generated using pymatgen
data_LiV4O5F7
_symmetry_space_group_name_H-M   'P 1'
_cell_length_a   5.20734400
_cell_length_b   5.41805242
_cell_length_c   7.49524398
_cell_angle_alpha   86.62166116
_cell_angle_beta   89.82631394
_cell_angle_gamma   89.48907379
_symmetry_Int_Tables_number   1
_chemical_formula_structural   LiV4O5F7
_chemical_formula_sum   'Li1 V4 O5 F7'
_cell_volume   211.09173317
_cell_formula_units_Z   1
loop_
 _symmetry_equiv_pos_site_id
 _symmetry_equiv_pos_as_xyz
  1  'x, y, z'
loop_
 _atom_site_type_symbol
 _atom_site_label
 _atom_site_symmetry_multiplicity
 _atom_site_fract_x
 _atom_site_fract_y
 _atom_site_fract_z
 _atom_site_occupancy
  Li  Li0  1  0.00303300  0.55756200  0.26909800  1
  V  V0  1  0.02491900  0.96477300  0.49457800  1
  V  V1  1  0.02695600  0.04316600  0.00481500  1
  V  V2  1  0.52191600  0.52005700  0.00206800  1
  V  V3  1  0.51974100  0.47918400  0.49965300  1
  O  O0  1  0.07306800  0.99085900  0.24988500  1
  O  O1  1  0.20677500  0.29995800  0.96238900  1
  O  O2  1  0.20332300  0.69862200  0.53739400  1
  O  O3  1  0.78212000  0.68276200  0.05689500  1
  O  O4  1  0.78591500  0.31641300  0.44398100  1
  F  F0  1  0.29411200  0.20092200  0.55319900  1
  F  F1  1  0.28957500  0.79580400  0.94566500  1
  F  F2  1  0.37197800  0.49948000  0.25061100  1
  F  F3  1  0.60161800  0.50045000  0.75021900  1
  F  F4  1  0.69269900  0.19782900  0.05061800  1
  F  F5  1  0.69612800  0.79809100  0.44773700  1
  F  F6  1  0.90709700  0.00211400  0.75054300  1
loop_
_geom_bond_atom_site_label_1
_geom_bond_atom_site_label_2
_geom_bond_distance
_geom_bond_site_symmetry_2
Li0 O3 2.045299 1_455
Li0 O4 2.125807 1_455
Li0 O0 2.374909 1_555
Li0 O2 2.433902 1_555
O0 V0 1.847651 1_555
O0 V1 1.857992 1_565
O1 V1 1.697929 1_556
O1 V2 2.069594 1_556
O2 V0 1.723034 1_555
O2 V3 2.051913 1_555
O3 V2 1.687992 1_555
O3 V1 2.354230 1_665
O4 V3 1.700322 1_555
O4 V0 2.279914 1_645
F0 V3 1.942144 1_555
F0 V0 1.974096 1_545
F1 V2 1.941913 1_556
F1 V1 1.973980 1_566
F2 Li0 1.949891 1_555
F2 V2 2.015108 1_555
F2 V3 2.017787 1_555
F3 V3 1.937364 1_555
F3 V2 1.940344 1_556
F4 V1 1.963156 1_655
F4 V2 1.967410 1_555
F5 V3 1.981780 1_555
F5 V0 1.984642 1_655
F5 Li0 2.490129 1_655
F6 V1 2.032454 1_656
F6 V0 2.033342 1_645
