# generated using pymatgen
data_V2Co3Te3O16
_symmetry_space_group_name_H-M   'P 1'
_cell_length_a   6.16897869
_cell_length_b   6.16897869
_cell_length_c   9.21539576
_cell_angle_alpha   88.72717157
_cell_angle_beta   88.72717157
_cell_angle_gamma   59.50029879
_symmetry_Int_Tables_number   1
_chemical_formula_structural   V2Co3Te3O16
_chemical_formula_sum   'V2 Co3 Te3 O16'
_cell_volume   302.07866878
_cell_formula_units_Z   1
loop_
 _symmetry_equiv_pos_site_id
 _symmetry_equiv_pos_as_xyz
  1  'x, y, z'
loop_
 _atom_site_type_symbol
 _atom_site_label
 _atom_site_symmetry_multiplicity
 _atom_site_fract_x
 _atom_site_fract_y
 _atom_site_fract_z
 _atom_site_occupancy
  V  V0  1  0.68126700  0.68126700  0.49429400  1
  V  V1  1  0.35788300  0.35788300  0.03761300  1
  Co  Co0  1  0.82675200  0.82675200  0.79502200  1
  Co  Co1  1  0.17119300  0.67034400  0.30055300  1
  Co  Co2  1  0.67034400  0.17119300  0.30055300  1
  Te  Te0  1  0.32849100  0.82595000  0.78531700  1
  Te  Te1  1  0.82595000  0.32849100  0.78531700  1
  Te  Te2  1  0.17149600  0.17149600  0.28840700  1
  O  O0  1  0.35246000  0.84213400  0.39857800  1
  O  O1  1  0.51427100  0.51427100  0.65924000  1
  O  O2  1  0.64693500  0.64693500  0.90487700  1
  O  O3  1  0.00257700  0.00257700  0.67510400  1
  O  O4  1  0.01010300  0.01010300  0.19929200  1
  O  O5  1  0.84213400  0.35246000  0.39857800  1
  O  O6  1  0.50681900  0.94456300  0.66545100  1
  O  O7  1  0.94456300  0.50681900  0.66545100  1
  O  O8  1  0.15476600  0.15476600  0.89298300  1
  O  O9  1  0.82431400  0.82431400  0.40628000  1
  O  O10  1  0.05271000  0.46446200  0.14929900  1
  O  O11  1  0.46446200  0.05271000  0.14929900  1
  O  O12  1  0.32558400  0.32558400  0.39770500  1
  O  O13  1  0.17240500  0.66920800  0.89328800  1
  O  O14  1  0.48223400  0.48223400  0.14887700  1
  O  O15  1  0.66920800  0.17240500  0.89328800  1
loop_
_geom_bond_atom_site_label_1
_geom_bond_atom_site_label_2
_geom_bond_distance
_geom_bond_site_symmetry_2
Co0 O15 2.062643 1_565
Co0 O13 2.062643 1_655
Co0 O6 2.111732 1_555
Co0 O7 2.111732 1_555
Co0 O2 2.152947 1_555
Co0 O3 2.159147 1_665
Co1 O4 2.022734 1_565
Co1 O12 2.032030 1_555
Co1 O9 2.077480 1_455
Co1 O0 2.116579 1_555
Co1 O14 2.162141 1_555
Co1 O10 2.270779 1_555
Co2 O4 2.022734 1_655
Co2 O12 2.032030 1_555
Co2 O9 2.077480 1_545
Co2 O5 2.116579 1_555
Co2 O14 2.162141 1_555
Co2 O11 2.270779 1_555
O0 V0 1.968398 1_555
O0 Te2 2.015350 1_565
O1 Te0 2.040489 1_555
O1 Te1 2.040489 1_555
O1 V0 2.317604 1_555
O2 Te1 2.032889 1_555
O2 Te0 2.032889 1_555
O3 Te1 2.019646 1_455
O3 Te0 2.019646 1_545
O4 Te2 1.932833 1_555
O5 V0 1.968398 1_555
O5 Te2 2.015350 1_655
O6 Te0 1.921721 1_555
O6 V0 2.132669 1_555
O7 Te1 1.921721 1_555
O7 V0 2.132669 1_555
O8 Te0 2.020677 1_545
O8 Te1 2.020677 1_455
O8 V1 2.580441 1_556
O9 V0 1.715275 1_555
O10 V1 1.929599 1_555
O10 Te2 2.010262 1_555
O11 V1 1.929599 1_555
O11 Te2 2.010262 1_555
O12 Te2 1.955482 1_555
O13 Te0 1.926635 1_555
O13 V1 2.119005 1_556
O14 V1 1.701615 1_555
O15 Te1 1.926635 1_555
O15 V1 2.119005 1_556
