# generated using pymatgen
data_MoPO7
_symmetry_space_group_name_H-M   'P 1'
_cell_length_a   6.41660900
_cell_length_b   7.18369254
_cell_length_c   7.50756214
_cell_angle_alpha   112.19598284
_cell_angle_beta   90.00000000
_cell_angle_gamma   90.00000000
_symmetry_Int_Tables_number   1
_chemical_formula_structural   MoPO7
_chemical_formula_sum   'Mo2 P2 O14'
_cell_volume   320.41656450
_cell_formula_units_Z   2
loop_
 _symmetry_equiv_pos_site_id
 _symmetry_equiv_pos_as_xyz
  1  'x, y, z'
loop_
 _atom_site_type_symbol
 _atom_site_label
 _atom_site_symmetry_multiplicity
 _atom_site_fract_x
 _atom_site_fract_y
 _atom_site_fract_z
 _atom_site_occupancy
  Mo  Mo0  1  0.75000000  0.72257800  0.81979000  1
  Mo  Mo1  1  0.25000000  0.27742200  0.18021000  1
  P  P0  1  0.25000000  0.66114500  0.66660800  1
  P  P1  1  0.75000000  0.33885500  0.33339200  1
  O  O0  1  0.75000000  0.94347700  0.78257300  1
  O  O1  1  0.25000000  0.05652300  0.21742700  1
  O  O2  1  0.75000000  0.78790300  0.06774700  1
  O  O3  1  0.25000000  0.21209700  0.93225300  1
  O  O4  1  0.05930600  0.66667800  0.79448800  1
  O  O5  1  0.55930600  0.33332200  0.20551200  1
  O  O6  1  0.94069400  0.33332200  0.20551200  1
  O  O7  1  0.44069400  0.66667800  0.79448800  1
  O  O8  1  0.75000000  0.52863200  0.51846000  1
  O  O9  1  0.25000000  0.47136800  0.48154000  1
  O  O10  1  0.75000000  0.41136900  0.83234700  1
  O  O11  1  0.25000000  0.58863100  0.16765300  1
  O  O12  1  0.25000000  0.82978100  0.58591300  1
  O  O13  1  0.75000000  0.17021900  0.41408700  1
loop_
_geom_bond_atom_site_label_1
_geom_bond_atom_site_label_2
_geom_bond_distance
_geom_bond_site_symmetry_2
Mo0 O0 1.712083 1_555
Mo0 O2 1.739414 1_556
Mo0 O7 2.019585 1_555
Mo0 O4 2.019585 1_655
Mo0 O8 2.162758 1_555
Mo0 O10 2.272920 1_555
Mo1 O1 1.712083 1_555
Mo1 O3 1.739414 1_554
Mo1 O6 2.019585 1_455
Mo1 O5 2.019585 1_555
Mo1 O9 2.162758 1_555
Mo1 O11 2.272920 1_555
O4 P0 1.546511 1_555
O5 P1 1.546511 1_555
O6 P1 1.546511 1_555
O7 P0 1.546511 1_555
O8 P1 1.535543 1_555
O9 P0 1.535543 1_555
O12 P0 1.545668 1_555
O13 P1 1.545668 1_555
