# generated using pymatgen
data_LiMnB3(HO3)3
_symmetry_space_group_name_H-M   'P 1'
_cell_length_a   9.11765700
_cell_length_b   11.64231400
_cell_length_c   14.23762200
_cell_angle_alpha   90.00000000
_cell_angle_beta   90.00000000
_cell_angle_gamma   90.00000000
_symmetry_Int_Tables_number   1
_chemical_formula_structural   LiMnB3(HO3)3
_chemical_formula_sum   'Li8 Mn8 B24 H24 O72'
_cell_volume   1511.33248433
_cell_formula_units_Z   8
loop_
 _symmetry_equiv_pos_site_id
 _symmetry_equiv_pos_as_xyz
  1  'x, y, z'
loop_
 _atom_site_type_symbol
 _atom_site_label
 _atom_site_symmetry_multiplicity
 _atom_site_fract_x
 _atom_site_fract_y
 _atom_site_fract_z
 _atom_site_occupancy
  Li  Li0  1  0.16327800  0.00000000  0.25000000  1
  Li  Li1  1  0.50521700  0.00000000  0.25000000  1
  Li  Li2  1  0.49478300  0.00000000  0.75000000  1
  Li  Li3  1  0.83672200  0.00000000  0.75000000  1
  Li  Li4  1  0.66327800  0.50000000  0.25000000  1
  Li  Li5  1  0.99478300  0.50000000  0.75000000  1
  Li  Li6  1  0.33672200  0.50000000  0.75000000  1
  Li  Li7  1  0.00521700  0.50000000  0.25000000  1
  Mn  Mn0  1  0.34213200  0.23409300  0.32691800  1
  Mn  Mn1  1  0.65786800  0.23409300  0.82691800  1
  Mn  Mn2  1  0.15786800  0.26590700  0.82691800  1
  Mn  Mn3  1  0.84213200  0.26590700  0.32691800  1
  Mn  Mn4  1  0.15786800  0.73409300  0.67308200  1
  Mn  Mn5  1  0.84213200  0.73409300  0.17308200  1
  Mn  Mn6  1  0.34213200  0.76590700  0.17308200  1
  Mn  Mn7  1  0.65786800  0.76590700  0.67308200  1
  B  B0  1  0.03160000  0.14739300  0.08254400  1
  B  B1  1  0.96840000  0.14739300  0.58254400  1
  B  B2  1  0.53110300  0.14577900  0.07505800  1
  B  B3  1  0.46889700  0.14577900  0.57505800  1
  B  B4  1  0.08971600  0.24343600  0.44604600  1
  B  B5  1  0.91028400  0.24343600  0.94604600  1
  B  B6  1  0.41028400  0.25656400  0.94604600  1
  B  B7  1  0.58971600  0.25656400  0.44604600  1
  B  B8  1  0.03110300  0.35422100  0.07505800  1
  B  B9  1  0.96889700  0.35422100  0.57505800  1
  B  B10  1  0.53160000  0.35260700  0.08254400  1
  B  B11  1  0.46840000  0.35260700  0.58254400  1
  B  B12  1  0.46840000  0.64739300  0.91745600  1
  B  B13  1  0.53160000  0.64739300  0.41745600  1
  B  B14  1  0.03110300  0.64577900  0.42494200  1
  B  B15  1  0.96889700  0.64577900  0.92494200  1
  B  B16  1  0.41028400  0.74343600  0.55395400  1
  B  B17  1  0.58971600  0.74343600  0.05395400  1
  B  B18  1  0.08971600  0.75656400  0.05395400  1
  B  B19  1  0.91028400  0.75656400  0.55395400  1
  B  B20  1  0.46889700  0.85422100  0.92494200  1
  B  B21  1  0.53110300  0.85422100  0.42494200  1
  B  B22  1  0.03160000  0.85260700  0.41745600  1
  B  B23  1  0.96840000  0.85260700  0.91745600  1
  H  H0  1  0.06263900  0.98126000  0.08486300  1
  H  H1  1  0.93736100  0.98126000  0.58486300  1
  H  H2  1  0.56044200  0.02404800  0.42312200  1
  H  H3  1  0.43955800  0.02404800  0.92312200  1
  H  H4  1  0.28688300  0.20028600  0.70081200  1
  H  H5  1  0.71311700  0.20028600  0.20081200  1
  H  H6  1  0.21311700  0.29971400  0.20081200  1
  H  H7  1  0.78688300  0.29971400  0.70081200  1
  H  H8  1  0.06044200  0.47595200  0.42312200  1
  H  H9  1  0.93955800  0.47595200  0.92312200  1
  H  H10  1  0.56263900  0.51874000  0.08486300  1
  H  H11  1  0.43736100  0.51874000  0.58486300  1
  H  H12  1  0.43736100  0.48126000  0.91513700  1
  H  H13  1  0.56263900  0.48126000  0.41513700  1
  H  H14  1  0.06044200  0.52404800  0.07687800  1
  H  H15  1  0.93955800  0.52404800  0.57687800  1
  H  H16  1  0.78688300  0.70028600  0.79918800  1
  H  H17  1  0.21311700  0.70028600  0.29918800  1
  H  H18  1  0.28688300  0.79971400  0.79918800  1
  H  H19  1  0.71311700  0.79971400  0.29918800  1
  H  H20  1  0.43955800  0.97595200  0.57687800  1
  H  H21  1  0.56044200  0.97595200  0.07687800  1
  H  H22  1  0.06263900  0.01874000  0.41513700  1
  H  H23  1  0.93736100  0.01874000  0.91513700  1
  O  O0  1  0.56948900  0.04450200  0.11843000  1
  O  O1  1  0.43051100  0.04450200  0.61843000  1
  O  O2  1  0.08240100  0.04876400  0.12514800  1
  O  O3  1  0.91759900  0.04876400  0.62514800  1
  O  O4  1  0.33429800  0.10353300  0.28391400  1
  O  O5  1  0.66570200  0.10353300  0.78391400  1
  O  O6  1  0.94885100  0.14190200  0.00287400  1
  O  O7  1  0.05114900  0.14190200  0.50287400  1
  O  O8  1  0.54208200  0.14783700  0.49134600  1
  O  O9  1  0.45791800  0.14783700  0.99134600  1
  O  O10  1  0.79121700  0.16519800  0.24057700  1
  O  O11  1  0.20878300  0.16519800  0.74057700  1
  O  O12  1  0.02541500  0.22928900  0.35128300  1
  O  O13  1  0.97458500  0.22928900  0.85128300  1
  O  O14  1  0.25006900  0.24849700  0.43364200  1
  O  O15  1  0.74993100  0.24849700  0.93364200  1
  O  O16  1  0.43055800  0.24659800  0.62215500  1
  O  O17  1  0.56944200  0.24659800  0.12215500  1
  O  O18  1  0.06944200  0.25340200  0.12215500  1
  O  O19  1  0.93055800  0.25340200  0.62215500  1
  O  O20  1  0.75006900  0.25150300  0.43364200  1
  O  O21  1  0.24993100  0.25150300  0.93364200  1
  O  O22  1  0.47458500  0.27071100  0.85128300  1
  O  O23  1  0.52541500  0.27071100  0.35128300  1
  O  O24  1  0.29121700  0.33480200  0.24057700  1
  O  O25  1  0.70878300  0.33480200  0.74057700  1
  O  O26  1  0.04208200  0.35216300  0.49134600  1
  O  O27  1  0.95791800  0.35216300  0.99134600  1
  O  O28  1  0.55114900  0.35809800  0.50287400  1
  O  O29  1  0.44885100  0.35809800  0.00287400  1
  O  O30  1  0.83429800  0.39646700  0.28391400  1
  O  O31  1  0.16570200  0.39646700  0.78391400  1
  O  O32  1  0.58240100  0.45123600  0.12514800  1
  O  O33  1  0.41759900  0.45123600  0.62514800  1
  O  O34  1  0.06948900  0.45549800  0.11843000  1
  O  O35  1  0.93051100  0.45549800  0.61843000  1
  O  O36  1  0.06948900  0.54450200  0.38157000  1
  O  O37  1  0.93051100  0.54450200  0.88157000  1
  O  O38  1  0.58240100  0.54876400  0.37485200  1
  O  O39  1  0.41759900  0.54876400  0.87485200  1
  O  O40  1  0.83429800  0.60353300  0.21608600  1
  O  O41  1  0.16570200  0.60353300  0.71608600  1
  O  O42  1  0.44885100  0.64190200  0.49712600  1
  O  O43  1  0.55114900  0.64190200  0.99712600  1
  O  O44  1  0.04208200  0.64783700  0.00865400  1
  O  O45  1  0.95791800  0.64783700  0.50865400  1
  O  O46  1  0.29121700  0.66519800  0.25942300  1
  O  O47  1  0.70878300  0.66519800  0.75942300  1
  O  O48  1  0.47458500  0.72928900  0.64871700  1
  O  O49  1  0.52541500  0.72928900  0.14871700  1
  O  O50  1  0.24993100  0.74849700  0.56635800  1
  O  O51  1  0.75006900  0.74849700  0.06635800  1
  O  O52  1  0.93055800  0.74659800  0.87784500  1
  O  O53  1  0.06944200  0.74659800  0.37784500  1
  O  O54  1  0.43055800  0.75340200  0.87784500  1
  O  O55  1  0.56944200  0.75340200  0.37784500  1
  O  O56  1  0.25006900  0.75150300  0.06635800  1
  O  O57  1  0.74993100  0.75150300  0.56635800  1
  O  O58  1  0.02541500  0.77071100  0.14871700  1
  O  O59  1  0.97458500  0.77071100  0.64871700  1
  O  O60  1  0.20878300  0.83480200  0.75942300  1
  O  O61  1  0.79121700  0.83480200  0.25942300  1
  O  O62  1  0.45791800  0.85216300  0.50865400  1
  O  O63  1  0.54208200  0.85216300  0.00865400  1
  O  O64  1  0.05114900  0.85809800  0.99712600  1
  O  O65  1  0.94885100  0.85809800  0.49712600  1
  O  O66  1  0.33429800  0.89646700  0.21608600  1
  O  O67  1  0.66570200  0.89646700  0.71608600  1
  O  O68  1  0.08240100  0.95123600  0.37485200  1
  O  O69  1  0.91759900  0.95123600  0.87485200  1
  O  O70  1  0.43051100  0.95549800  0.88157000  1
  O  O71  1  0.56948900  0.95549800  0.38157000  1
loop_
_geom_bond_atom_site_label_1
_geom_bond_atom_site_label_2
_geom_bond_distance
_geom_bond_site_symmetry_2
Li0 O2 2.006472 1_555
Li0 O68 2.006472 1_545
Li0 O66 2.029156 1_545
Li0 O4 2.029156 1_555
Li1 O66 2.028448 1_545
Li1 O4 2.028448 1_555
Li1 O0 2.029996 1_555
Li1 O71 2.029996 1_545
Li2 O5 2.028448 1_555
Li2 O67 2.028448 1_545
Li2 O70 2.029996 1_545
Li2 O1 2.029996 1_555
Li3 O3 2.006472 1_555
Li3 O69 2.006472 1_545
Li3 O67 2.029156 1_545
Li3 O5 2.029156 1_555
Li4 O32 2.006472 1_555
Li4 O38 2.006472 1_555
Li4 O30 2.029156 1_555
Li4 O40 2.029156 1_555
Li5 O31 2.028448 1_655
Li5 O41 2.028448 1_655
Li5 O35 2.029996 1_555
Li5 O37 2.029996 1_555
Li6 O33 2.006472 1_555
Li6 O39 2.006472 1_555
Li6 O41 2.029156 1_555
Li6 O31 2.029156 1_555
Li7 O30 2.028448 1_455
Li7 O40 2.028448 1_455
Li7 O34 2.029996 1_555
Li7 O36 2.029996 1_555
Mn0 O4 1.640257 1_555
Mn0 O14 1.744013 1_555
Mn0 O23 1.759176 1_555
Mn0 O24 1.761075 1_555
Mn1 O5 1.640257 1_555
Mn1 O15 1.744013 1_555
Mn1 O22 1.759176 1_555
Mn1 O25 1.761075 1_555
Mn2 O31 1.640257 1_555
Mn2 O21 1.744013 1_555
Mn2 O13 1.759176 1_455
Mn2 O11 1.761075 1_555
Mn3 O30 1.640257 1_555
Mn3 O20 1.744013 1_555
Mn3 O12 1.759176 1_655
Mn3 O10 1.761075 1_555
Mn4 O41 1.640257 1_555
Mn4 O50 1.744013 1_555
Mn4 O59 1.759176 1_455
Mn4 O60 1.761075 1_555
Mn5 O40 1.640257 1_555
Mn5 O51 1.744013 1_555
Mn5 O58 1.759176 1_655
Mn5 O61 1.761075 1_555
Mn6 O66 1.640257 1_555
Mn6 O56 1.744013 1_555
Mn6 O49 1.759176 1_555
Mn6 O46 1.761075 1_555
Mn7 O67 1.640257 1_555
Mn7 O57 1.744013 1_555
Mn7 O48 1.759176 1_555
Mn7 O47 1.761075 1_555
B0 O6 1.363813 1_455
B0 O2 1.378769 1_555
B0 O18 1.400118 1_555
B1 O7 1.363813 1_655
B1 O3 1.378769 1_555
B1 O19 1.400118 1_555
B2 O9 1.366148 1_554
B2 O0 1.376260 1_555
B2 O17 1.396266 1_555
B3 O8 1.366148 1_555
B3 O1 1.376260 1_555
B3 O16 1.396266 1_555
B4 O14 1.473849 1_555
B4 O7 1.475000 1_555
B4 O12 1.480265 1_555
B4 O26 1.485577 1_555
B5 O15 1.473849 1_555
B5 O6 1.475000 1_556
B5 O13 1.480265 1_555
B5 O27 1.485577 1_555
B6 O21 1.473849 1_555
B6 O29 1.475000 1_556
B6 O22 1.480265 1_555
B6 O9 1.485577 1_555
B7 O20 1.473849 1_555
B7 O28 1.475000 1_555
B7 O23 1.480265 1_555
B7 O8 1.485577 1_555
B8 O27 1.366148 1_454
B8 O34 1.376260 1_555
B8 O18 1.396266 1_555
B9 O26 1.366148 1_655
B9 O35 1.376260 1_555
B9 O19 1.396266 1_555
B10 O29 1.363813 1_555
B10 O32 1.378769 1_555
B10 O17 1.400118 1_555
B11 O28 1.363813 1_555
B11 O33 1.378769 1_555
B11 O16 1.400118 1_555
B12 O43 1.363813 1_555
B12 O39 1.378769 1_555
B12 O54 1.400118 1_555
B13 O42 1.363813 1_555
B13 O38 1.378769 1_555
B13 O55 1.400118 1_555
B14 O45 1.366148 1_455
B14 O36 1.376260 1_555
B14 O53 1.396266 1_555
B15 O44 1.366148 1_656
B15 O37 1.376260 1_555
B15 O52 1.396266 1_555
B16 O50 1.473849 1_555
B16 O42 1.475000 1_555
B16 O48 1.480265 1_555
B16 O62 1.485577 1_555
B17 O51 1.473849 1_555
B17 O43 1.475000 1_554
B17 O49 1.480265 1_555
B17 O63 1.485577 1_555
B18 O56 1.473849 1_555
B18 O64 1.475000 1_554
B18 O58 1.480265 1_555
B18 O44 1.485577 1_555
B19 O57 1.473849 1_555
B19 O65 1.475000 1_555
B19 O59 1.480265 1_555
B19 O45 1.485577 1_555
B20 O63 1.366148 1_556
B20 O70 1.376260 1_555
B20 O54 1.396266 1_555
B21 O62 1.366148 1_555
B21 O71 1.376260 1_555
B21 O55 1.396266 1_555
B22 O65 1.363813 1_455
B22 O68 1.378769 1_555
B22 O53 1.400118 1_555
B23 O64 1.363813 1_655
B23 O69 1.378769 1_555
B23 O52 1.400118 1_555
H0 O2 0.989486 1_565
H1 O3 0.989486 1_565
H2 O71 0.996860 1_545
H3 O70 0.996860 1_545
H4 O11 0.997238 1_555
H5 O10 0.997238 1_555
H6 O24 0.997238 1_555
H7 O25 0.997238 1_555
H8 O36 0.996860 1_555
H9 O37 0.996860 1_555
H10 O32 0.989486 1_555
H11 O33 0.989486 1_555
H12 O39 0.989486 1_555
H13 O38 0.989486 1_555
H14 O34 0.996860 1_555
H15 O35 0.996860 1_555
H16 O47 0.997238 1_555
H17 O46 0.997238 1_555
H18 O60 0.997238 1_555
H19 O61 0.997238 1_555
H20 O1 0.996860 1_565
H21 O0 0.996860 1_565
H22 O68 0.989486 1_545
H23 O69 0.989486 1_545
