# generated using pymatgen
data_Li4V8O13F3
_symmetry_space_group_name_H-M   'P 1'
_cell_length_a   6.00080200
_cell_length_b   6.00098854
_cell_length_c   10.51876355
_cell_angle_alpha   90.65053301
_cell_angle_beta   106.10772598
_cell_angle_gamma   118.30111789
_symmetry_Int_Tables_number   1
_chemical_formula_structural   Li4V8O13F3
_chemical_formula_sum   'Li4 V8 O13 F3'
_cell_volume   315.81353766
_cell_formula_units_Z   1
loop_
 _symmetry_equiv_pos_site_id
 _symmetry_equiv_pos_as_xyz
  1  'x, y, z'
loop_
 _atom_site_type_symbol
 _atom_site_label
 _atom_site_symmetry_multiplicity
 _atom_site_fract_x
 _atom_site_fract_y
 _atom_site_fract_z
 _atom_site_occupancy
  Li  Li0  1  0.12297400  0.32856100  0.94210900  1
  Li  Li1  1  0.88389000  0.16180000  0.55738800  1
  Li  Li2  1  0.10983900  0.83306400  0.44585000  1
  Li  Li3  1  0.88977600  0.66901100  0.05732100  1
  V  V0  1  0.48169800  0.24122900  0.76109000  1
  V  V1  1  0.50545500  0.49468800  0.50106800  1
  V  V2  1  0.00109400  0.75209200  0.75550100  1
  V  V3  1  0.48871700  0.00781700  0.99587200  1
  V  V4  1  0.49824100  0.24931800  0.24941100  1
  V  V5  1  0.49897800  0.74824500  0.75035600  1
  V  V6  1  0.99749300  0.24896300  0.24951100  1
  V  V7  1  0.49809000  0.74977400  0.24921600  1
  O  O0  1  0.24940000  0.11690500  0.86615100  1
  O  O1  1  0.70724900  0.12368800  0.86262600  1
  O  O2  1  0.73048200  0.60600100  0.85482500  1
  O  O3  1  0.26127500  0.16239100  0.37048100  1
  O  O4  1  0.26971200  0.66694800  0.87169800  1
  O  O5  1  0.70515300  0.60935900  0.37118200  1
  O  O6  1  0.26220300  0.88727500  0.64953100  1
  O  O7  1  0.73804900  0.10948500  0.35295100  1
  O  O8  1  0.29977400  0.37484200  0.63483600  1
  O  O9  1  0.73641300  0.33795000  0.12937800  1
  O  O10  1  0.73128400  0.82753100  0.62963100  1
  O  O11  1  0.25861400  0.38959300  0.14769300  1
  O  O12  1  0.29275900  0.89085900  0.12823100  1
  F  F0  1  0.74883900  0.37262000  0.62929600  1
  F  F1  1  0.24918400  0.61971000  0.37554400  1
  F  F2  1  0.74834000  0.87974800  0.12563500  1
loop_
_geom_bond_atom_site_label_1
_geom_bond_atom_site_label_2
_geom_bond_distance
_geom_bond_site_symmetry_2
Li0 O0 2.013507 1_555
Li0 O4 2.036668 1_555
Li0 O11 2.048333 1_556
Li0 O1 2.084483 1_455
Li1 O10 2.029486 1_545
Li1 O7 2.041730 1_555
Li1 O8 2.085476 1_655
Li2 O3 2.022981 1_565
Li2 O5 2.035399 1_455
Li2 O6 2.036456 1_555
Li3 O9 2.013946 1_555
Li3 O12 2.024955 1_655
Li3 O2 2.025547 1_554
O0 V0 1.899590 1_555
O0 V3 2.043811 1_555
O0 V2 2.062609 1_545
O1 V0 1.894832 1_555
O1 V3 2.084467 1_555
O1 V5 2.117395 1_545
O2 V0 2.007013 1_555
O2 V2 2.027173 1_655
O2 V5 2.040767 1_555
O3 V1 2.015116 1_555
O3 V6 2.017858 1_455
O3 V4 2.057318 1_555
O4 V2 2.013745 1_555
O4 V3 2.013763 1_565
O4 V5 2.027804 1_555
O5 V1 1.980932 1_555
O5 V7 2.008142 1_555
O5 V4 2.088406 1_555
O6 V0 2.014077 1_565
O6 V2 2.034714 1_555
O6 V5 2.036573 1_555
O7 V6 2.008315 1_555
O7 V7 2.012728 1_545
O7 V4 2.063312 1_555
O8 V0 1.909990 1_555
O8 V1 2.040937 1_555
O8 V5 2.125770 1_555
O9 V6 2.011611 1_555
O9 V3 2.023034 1_554
O9 V4 2.053166 1_555
O10 V1 2.002489 1_555
O10 V2 2.024464 1_655
O10 V5 2.036996 1_555
O11 V6 2.003091 1_455
O11 V7 2.007026 1_555
O11 V4 2.058060 1_555
O12 V3 1.990422 1_564
O12 V7 1.999525 1_555
O12 V4 2.079181 1_565
F0 Li1 2.029784 1_555
F0 V1 2.105402 1_555
F0 V2 2.187946 1_655
F0 V0 2.274381 1_555
F1 Li2 2.054786 1_555
F1 V6 2.150424 1_455
F1 V7 2.150661 1_555
F1 V1 2.158927 1_555
F2 Li3 2.042427 1_555
F2 V7 2.132801 1_555
F2 V6 2.134172 1_565
F2 V3 2.204565 1_564
