# generated using pymatgen
data_RbPNO2
_symmetry_space_group_name_H-M   'P 1'
_cell_length_a   8.43754585
_cell_length_b   8.43754585
_cell_length_c   8.43754572
_cell_angle_alpha   101.14345125
_cell_angle_beta   101.14345125
_cell_angle_gamma   101.14344494
_symmetry_Int_Tables_number   1
_chemical_formula_structural   RbPNO2
_chemical_formula_sum   'Rb6 P6 N6 O12'
_cell_volume   561.41192797
_cell_formula_units_Z   6
loop_
 _symmetry_equiv_pos_site_id
 _symmetry_equiv_pos_as_xyz
  1  'x, y, z'
loop_
 _atom_site_type_symbol
 _atom_site_label
 _atom_site_symmetry_multiplicity
 _atom_site_fract_x
 _atom_site_fract_y
 _atom_site_fract_z
 _atom_site_occupancy
  Rb  Rb0  1  0.18787600  0.85332900  0.66078700  1
  Rb  Rb1  1  0.66078700  0.18787600  0.85332900  1
  Rb  Rb2  1  0.85332900  0.66078700  0.18787600  1
  Rb  Rb3  1  0.81212400  0.14667100  0.33921300  1
  Rb  Rb4  1  0.33921300  0.81212400  0.14667100  1
  Rb  Rb5  1  0.14667100  0.33921300  0.81212400  1
  P  P0  1  0.28419300  0.18184300  0.44238200  1
  P  P1  1  0.44238200  0.28419300  0.18184300  1
  P  P2  1  0.18184300  0.44238200  0.28419300  1
  P  P3  1  0.71580700  0.81815700  0.55761800  1
  P  P4  1  0.55761800  0.71580700  0.81815700  1
  P  P5  1  0.81815700  0.55761800  0.71580700  1
  N  N0  1  0.56959100  0.81290500  0.66492000  1
  N  N1  1  0.66492000  0.56959100  0.81290500  1
  N  N2  1  0.81290500  0.66492000  0.56959100  1
  N  N3  1  0.43040900  0.18709500  0.33508000  1
  N  N4  1  0.33508000  0.43040900  0.18709500  1
  N  N5  1  0.18709500  0.33508000  0.43040900  1
  O  O0  1  0.37648300  0.63820000  0.80519100  1
  O  O1  1  0.80519100  0.37648300  0.63820000  1
  O  O2  1  0.63820000  0.80519100  0.37648300  1
  O  O3  1  0.62351700  0.36180000  0.19480900  1
  O  O4  1  0.19480900  0.62351700  0.36180000  1
  O  O5  1  0.36180000  0.19480900  0.62351700  1
  O  O6  1  0.85096000  0.97715600  0.64472100  1
  O  O7  1  0.64472100  0.85096000  0.97715600  1
  O  O8  1  0.97715600  0.64472100  0.85096000  1
  O  O9  1  0.14904000  0.02284400  0.35527900  1
  O  O10  1  0.35527900  0.14904000  0.02284400  1
  O  O11  1  0.02284400  0.35527900  0.14904000  1
loop_
_geom_bond_atom_site_label_1
_geom_bond_atom_site_label_2
_geom_bond_distance
_geom_bond_site_symmetry_2
N0 P3 1.664269 1_555
N0 P4 1.667648 1_555
N0 Rb1 3.125891 1_565
N0 Rb0 3.297954 1_555
N1 P4 1.664269 1_555
N1 P5 1.667648 1_555
N1 Rb2 3.125891 1_556
N1 Rb1 3.297954 1_555
N2 P5 1.664269 1_555
N2 P3 1.667648 1_555
N2 Rb0 3.125891 1_655
N2 Rb2 3.297954 1_555
N3 P0 1.664269 1_555
N3 P1 1.667648 1_555
N3 Rb4 3.125891 1_545
N3 Rb3 3.297954 1_555
N4 P1 1.664269 1_555
N4 P2 1.667648 1_555
N4 Rb5 3.125891 1_554
N4 Rb4 3.297954 1_555
N5 P2 1.664269 1_555
N5 P0 1.667648 1_555
N5 Rb3 3.125891 1_455
N5 Rb5 3.297954 1_555
O0 P4 1.515720 1_555
O0 Rb5 2.887478 1_555
O0 Rb0 2.921261 1_555
O0 Rb4 3.073808 1_556
O1 P5 1.515720 1_555
O1 Rb3 2.887478 1_555
O1 Rb1 2.921261 1_555
O1 Rb5 3.073808 1_655
O2 P3 1.515720 1_555
O2 Rb4 2.887478 1_555
O2 Rb2 2.921261 1_555
O2 Rb3 3.073808 1_565
O3 P1 1.515720 1_555
O3 Rb2 2.887478 1_555
O3 Rb3 2.921261 1_555
O3 Rb1 3.073808 1_554
O4 P2 1.515720 1_555
O4 Rb0 2.887478 1_555
O4 Rb4 2.921261 1_555
O4 Rb2 3.073808 1_455
O5 P0 1.515720 1_555
O5 Rb1 2.887478 1_555
O5 Rb5 2.921261 1_555
O5 Rb0 3.073808 1_545
O6 P3 1.530994 1_555
O6 Rb1 3.133487 1_565
O6 Rb3 3.174526 1_565
O6 Rb0 3.200780 1_655
O6 Rb5 3.402417 1_665
O7 P4 1.530994 1_555
O7 Rb2 3.133487 1_556
O7 Rb4 3.174526 1_556
O7 Rb1 3.200781 1_565
O7 Rb3 3.402417 1_566
O8 P5 1.530994 1_555
O8 Rb0 3.133487 1_655
O8 Rb5 3.174526 1_655
O8 Rb2 3.200780 1_556
O8 Rb4 3.402417 1_656
O9 P0 1.530994 1_555
O9 Rb4 3.133487 1_545
O9 Rb0 3.174526 1_545
O9 Rb3 3.200780 1_455
O9 Rb2 3.402417 1_445
O10 P1 1.530994 1_555
O10 Rb5 3.133487 1_554
O10 Rb1 3.174526 1_554
O10 Rb4 3.200781 1_545
O10 Rb0 3.402417 1_544
O11 P2 1.530994 1_555
O11 Rb3 3.133487 1_455
O11 Rb2 3.174526 1_455
O11 Rb5 3.200780 1_554
O11 Rb1 3.402417 1_454
