# generated using pymatgen
data_V(CO3)2
_symmetry_space_group_name_H-M   'P 1'
_cell_length_a   6.14020080
_cell_length_b   12.28108232
_cell_length_c   6.84299231
_cell_angle_alpha   76.28116459
_cell_angle_beta   103.61402933
_cell_angle_gamma   86.95748195
_symmetry_Int_Tables_number   1
_chemical_formula_structural   V(CO3)2
_chemical_formula_sum   'V4 C8 O24'
_cell_volume   483.96087100
_cell_formula_units_Z   4
loop_
 _symmetry_equiv_pos_site_id
 _symmetry_equiv_pos_as_xyz
  1  'x, y, z'
loop_
 _atom_site_type_symbol
 _atom_site_label
 _atom_site_symmetry_multiplicity
 _atom_site_fract_x
 _atom_site_fract_y
 _atom_site_fract_z
 _atom_site_occupancy
  V  V0  1  0.17417800  0.58699800  0.25045600  1
  V  V1  1  0.82596200  0.91299400  0.74947600  1
  V  V2  1  0.17411800  0.08722100  0.24969700  1
  V  V3  1  0.82584400  0.41278100  0.75032000  1
  C  C0  1  0.10871500  0.34466500  0.19477300  1
  C  C1  1  0.10819900  0.84467500  0.19453400  1
  C  C2  1  0.31076000  0.44546100  0.69503000  1
  C  C3  1  0.31092200  0.94577900  0.69441100  1
  C  C4  1  0.68918800  0.05455100  0.30501000  1
  C  C5  1  0.68919100  0.55417800  0.30562600  1
  C  C6  1  0.89124500  0.15534600  0.80522500  1
  C  C7  1  0.89179000  0.65531700  0.80543800  1
  O  O0  1  0.07677500  0.13313900  0.95892500  1
  O  O1  1  0.07701000  0.63306800  0.95945900  1
  O  O2  1  0.26673300  0.03867800  0.54058600  1
  O  O3  1  0.26648200  0.53833800  0.54121700  1
  O  O4  1  0.73330600  0.46132700  0.45948000  1
  O  O5  1  0.73349600  0.96164900  0.45876800  1
  O  O6  1  0.92307500  0.36688100  0.04114300  1
  O  O7  1  0.92304000  0.86694700  0.04050000  1
  O  O8  1  0.15041800  0.39779900  0.75644000  1
  O  O9  1  0.15050600  0.89834200  0.75602200  1
  O  O10  1  0.20308400  0.42471700  0.25700500  1
  O  O11  1  0.20246100  0.92476000  0.25695800  1
  O  O12  1  0.79697700  0.07530600  0.74284800  1
  O  O13  1  0.79747400  0.57525000  0.74311300  1
  O  O14  1  0.84955100  0.10223400  0.24365900  1
  O  O15  1  0.84955400  0.60159600  0.24390300  1
  O  O16  1  0.19276100  0.24324500  0.28397700  1
  O  O17  1  0.19197400  0.74326500  0.28409300  1
  O  O18  1  0.51345400  0.40382400  0.78515500  1
  O  O19  1  0.51350800  0.90393000  0.78425700  1
  O  O20  1  0.48648600  0.09617600  0.21488900  1
  O  O21  1  0.48655800  0.59604700  0.21574900  1
  O  O22  1  0.80712100  0.25675900  0.71603100  1
  O  O23  1  0.80808500  0.75675600  0.71582900  1
loop_
_geom_bond_atom_site_label_1
_geom_bond_atom_site_label_2
_geom_bond_distance
_geom_bond_site_symmetry_2
C0 O16 1.270104 1_555
C0 O10 1.275355 1_555
C0 O6 1.321271 1_455
C1 O17 1.269974 1_555
C1 O11 1.275975 1_555
C1 O7 1.320800 1_455
C2 O18 1.269777 1_555
C2 O8 1.275849 1_555
C2 O3 1.321257 1_555
C3 O19 1.269530 1_555
C3 O9 1.275639 1_555
C3 O2 1.321496 1_565
C4 O20 1.269779 1_555
C4 O14 1.275908 1_555
C4 O5 1.321251 1_545
C5 O21 1.269866 1_555
C5 O15 1.275566 1_555
C5 O4 1.321226 1_555
C6 O22 1.270137 1_555
C6 O12 1.275375 1_555
C6 O0 1.321086 1_655
C7 O23 1.270225 1_555
C7 O13 1.275642 1_555
C7 O1 1.321007 1_655
O0 V2 1.872567 1_556
O1 V0 1.873982 1_556
O2 V2 1.873326 1_555
O3 V0 1.872528 1_555
O4 V3 1.873004 1_555
O5 V1 1.872228 1_555
O6 V3 1.872843 1_554
O7 V1 1.874113 1_554
O8 V3 1.981309 1_455
O9 V1 1.980300 1_455
O10 V0 1.980365 1_555
O11 V2 1.981316 1_565
O12 V1 1.980632 1_545
O13 V3 1.981506 1_555
O14 V2 1.981412 1_655
O15 V0 1.980757 1_655
O16 V2 1.990874 1_555
O17 V0 1.991963 1_555
O18 V3 1.993335 1_555
O19 V1 1.993705 1_555
O20 V2 1.993137 1_555
O21 V0 1.993071 1_555
O22 V3 1.990909 1_555
O23 V1 1.991671 1_555
