# generated using pymatgen
data_LiFePO4F
_symmetry_space_group_name_H-M   'P 1'
_cell_length_a   6.32243500
_cell_length_b   10.70229200
_cell_length_c   12.89289000
_cell_angle_alpha   90.00000000
_cell_angle_beta   90.00000000
_cell_angle_gamma   90.00000000
_symmetry_Int_Tables_number   1
_chemical_formula_structural   LiFePO4F
_chemical_formula_sum   'Li8 Fe8 P8 O32 F8'
_cell_volume   872.39154230
_cell_formula_units_Z   8
loop_
 _symmetry_equiv_pos_site_id
 _symmetry_equiv_pos_as_xyz
  1  'x, y, z'
loop_
 _atom_site_type_symbol
 _atom_site_label
 _atom_site_symmetry_multiplicity
 _atom_site_fract_x
 _atom_site_fract_y
 _atom_site_fract_z
 _atom_site_occupancy
  Li  Li0  1  0.95207400  0.97791700  0.10493000  1
  Li  Li1  1  0.23919000  0.22910900  0.21967500  1
  Li  Li2  1  0.73919000  0.72910900  0.28032500  1
  Li  Li3  1  0.45207400  0.47791700  0.39507000  1
  Li  Li4  1  0.54792600  0.97791700  0.60493000  1
  Li  Li5  1  0.26081000  0.22910900  0.71967500  1
  Li  Li6  1  0.76081000  0.72910900  0.78032500  1
  Li  Li7  1  0.04792600  0.47791700  0.89507000  1
  Fe  Fe0  1  0.99818700  0.49495500  0.11366400  1
  Fe  Fe1  1  0.24733900  0.74661100  0.24802800  1
  Fe  Fe2  1  0.74733900  0.24661100  0.25197200  1
  Fe  Fe3  1  0.49818700  0.99495500  0.38633600  1
  Fe  Fe4  1  0.50181300  0.49495500  0.61366400  1
  Fe  Fe5  1  0.25266100  0.74661100  0.74802800  1
  Fe  Fe6  1  0.75266100  0.24661100  0.75197200  1
  Fe  Fe7  1  0.00181300  0.99495500  0.88633600  1
  P  P0  1  0.83485200  0.24143100  0.00293700  1
  P  P1  1  0.50178300  0.49735100  0.18756700  1
  P  P2  1  0.00178300  0.99735100  0.31243300  1
  P  P3  1  0.33485200  0.74143100  0.49706300  1
  P  P4  1  0.66514800  0.24143100  0.50293700  1
  P  P5  1  0.99821700  0.49735100  0.68756700  1
  P  P6  1  0.49821700  0.99735100  0.81243300  1
  P  P7  1  0.16514800  0.74143100  0.99706300  1
  O  O0  1  0.03007300  0.61819400  0.99848500  1
  O  O1  1  0.98855100  0.35656300  0.00832300  1
  O  O2  1  0.29664400  0.75181000  0.09727000  1
  O  O3  1  0.69260200  0.23808400  0.10003000  1
  O  O4  1  0.30368500  0.47684800  0.12280200  1
  O  O5  1  0.69463200  0.51599600  0.11853400  1
  O  O6  1  0.97540600  0.11151300  0.23633200  1
  O  O7  1  0.02916900  0.88404100  0.23575900  1
  O  O8  1  0.52916900  0.38404100  0.26424100  1
  O  O9  1  0.47540600  0.61151300  0.26366800  1
  O  O10  1  0.19463200  0.01599600  0.38146600  1
  O  O11  1  0.80368500  0.97684800  0.37719800  1
  O  O12  1  0.19260200  0.73808400  0.39997000  1
  O  O13  1  0.79664400  0.25181000  0.40273000  1
  O  O14  1  0.48855100  0.85656300  0.49167700  1
  O  O15  1  0.53007300  0.11819400  0.50151500  1
  O  O16  1  0.46992700  0.61819400  0.49848500  1
  O  O17  1  0.51144900  0.35656300  0.50832300  1
  O  O18  1  0.20335600  0.75181000  0.59727000  1
  O  O19  1  0.80739800  0.23808400  0.60003000  1
  O  O20  1  0.19631500  0.47684800  0.62280200  1
  O  O21  1  0.80536800  0.51599600  0.61853400  1
  O  O22  1  0.52459400  0.11151300  0.73633200  1
  O  O23  1  0.47083100  0.88404100  0.73575900  1
  O  O24  1  0.97083100  0.38404100  0.76424100  1
  O  O25  1  0.02459400  0.61151300  0.76366800  1
  O  O26  1  0.30536800  0.01599600  0.88146600  1
  O  O27  1  0.69631500  0.97684800  0.87719800  1
  O  O28  1  0.30739800  0.73808400  0.89997000  1
  O  O29  1  0.70335600  0.25181000  0.90273000  1
  O  O30  1  0.01144900  0.85656300  0.99167700  1
  O  O31  1  0.96992700  0.11819400  0.00151500  1
  F  F0  1  0.99966000  0.35904100  0.22843500  1
  F  F1  1  0.99563900  0.63081200  0.23077500  1
  F  F2  1  0.49563900  0.13081200  0.26922500  1
  F  F3  1  0.49966000  0.85904100  0.27156500  1
  F  F4  1  0.50034000  0.35904100  0.72843500  1
  F  F5  1  0.50436100  0.63081200  0.73077500  1
  F  F6  1  0.00436100  0.13081200  0.76922500  1
  F  F7  1  0.00034000  0.85904100  0.77156500  1
loop_
_geom_bond_atom_site_label_1
_geom_bond_atom_site_label_2
_geom_bond_distance
_geom_bond_site_symmetry_2
Li0 O30 1.989919 1_654
Li0 O31 2.011053 1_565
Li0 O7 2.022908 1_655
Li0 O6 2.221754 1_565
Li1 O6 2.100351 1_455
Li1 O8 2.537872 1_555
Li2 O9 2.100351 1_555
Li2 O7 2.537872 1_655
Li3 O17 1.989919 1_555
Li3 O16 2.011053 1_555
Li3 O8 2.022908 1_555
Li3 O9 2.221754 1_555
Li4 O14 1.989919 1_555
Li4 O15 2.011053 1_565
Li4 O23 2.022908 1_555
Li4 O22 2.221754 1_565
Li5 O22 2.100351 1_555
Li5 O24 2.537872 1_455
Li6 O25 2.100351 1_655
Li6 O23 2.537872 1_555
Li7 O1 1.989919 1_456
Li7 O0 2.011053 1_555
Li7 O24 2.022908 1_455
Li7 O25 2.221754 1_555
Fe0 O5 1.933392 1_555
Fe0 O4 1.944760 1_655
Fe0 O0 1.996357 1_654
Fe0 O1 2.010466 1_555
Fe1 O2 1.969331 1_555
Fe1 O12 1.991397 1_555
Fe1 O7 2.022615 1_555
Fe1 O9 2.051915 1_555
Fe2 O13 1.969331 1_555
Fe2 O3 1.991397 1_555
Fe2 O8 2.022615 1_555
Fe2 O6 2.051915 1_555
Fe3 O10 1.933392 1_565
Fe3 O11 1.944760 1_555
Fe3 O15 1.996357 1_565
Fe3 O14 2.010466 1_555
Fe4 O21 1.933392 1_555
Fe4 O20 1.944760 1_555
Fe4 O16 1.996357 1_555
Fe4 O17 2.010466 1_555
Fe5 O18 1.969331 1_555
Fe5 O28 1.991397 1_555
Fe5 O23 2.022615 1_555
Fe5 O25 2.051915 1_555
Fe6 O29 1.969331 1_555
Fe6 O19 1.991397 1_555
Fe6 O24 2.022615 1_555
Fe6 O22 2.051915 1_555
Fe7 O26 1.933392 1_565
Fe7 O27 1.944760 1_455
Fe7 O31 1.996357 1_466
Fe7 O30 2.010466 1_555
O0 P7 1.571370 1_555
O1 P0 1.570790 1_555
O2 P7 1.540350 1_554
O3 P0 1.541807 1_555
O4 P1 1.521199 1_555
O5 P1 1.522699 1_555
O6 P2 1.575840 1_645
O7 P2 1.574101 1_555
O8 P1 1.574101 1_555
O9 P1 1.575840 1_555
O10 P2 1.522699 1_545
O11 P2 1.521199 1_655
O12 P3 1.541807 1_555
O13 P4 1.540350 1_555
O14 P3 1.570790 1_555
O15 P4 1.571370 1_555
O16 P3 1.571370 1_555
O17 P4 1.570790 1_555
O18 P3 1.540350 1_555
O19 P4 1.541807 1_555
O20 P5 1.521199 1_455
O21 P5 1.522699 1_555
O22 P6 1.575840 1_545
O23 P6 1.574101 1_555
O24 P5 1.574101 1_555
O25 P5 1.575840 1_455
O26 P6 1.522699 1_545
O27 P6 1.521199 1_555
O28 P7 1.541807 1_555
O29 P0 1.540350 1_556
O30 P7 1.570790 1_555
O31 P0 1.571370 1_555
F0 Fe2 2.021101 1_555
F0 Li1 2.059099 1_655
F0 Fe0 2.074975 1_555
F1 Fe1 2.029236 1_655
F1 Li2 2.035611 1_555
F1 Fe0 2.096215 1_555
F2 Fe2 2.029236 1_555
F2 Li1 2.035611 1_555
F2 Fe3 2.096215 1_545
F3 Fe1 2.021101 1_555
F3 Li2 2.059099 1_555
F3 Fe3 2.074975 1_555
F4 Fe6 2.021101 1_555
F4 Li5 2.059099 1_555
F4 Fe4 2.074975 1_555
F5 Fe5 2.029236 1_555
F5 Li6 2.035611 1_555
F5 Fe4 2.096215 1_555
F6 Fe6 2.029236 1_455
F6 Li5 2.035611 1_555
F6 Fe7 2.096215 1_545
F7 Fe5 2.021101 1_555
F7 Li6 2.059099 1_455
F7 Fe7 2.074975 1_555
