# generated using pymatgen
data_Li2U(WO5)2
_symmetry_space_group_name_H-M   'P 1'
_cell_length_a   7.88290805
_cell_length_b   13.07081800
_cell_length_c   7.61636310
_cell_angle_alpha   90.00000000
_cell_angle_beta   90.01577622
_cell_angle_gamma   90.00000000
_symmetry_Int_Tables_number   1
_chemical_formula_structural   Li2U(WO5)2
_chemical_formula_sum   'Li8 U4 W8 O40'
_cell_volume   784.75998854
_cell_formula_units_Z   4
loop_
 _symmetry_equiv_pos_site_id
 _symmetry_equiv_pos_as_xyz
  1  'x, y, z'
loop_
 _atom_site_type_symbol
 _atom_site_label
 _atom_site_symmetry_multiplicity
 _atom_site_fract_x
 _atom_site_fract_y
 _atom_site_fract_z
 _atom_site_occupancy
  Li  Li0  1  0.31371800  0.00684200  0.99869700  1
  Li  Li1  1  0.31371800  0.99315800  0.49869700  1
  Li  Li2  1  0.49989200  0.98669400  0.24996600  1
  Li  Li3  1  0.49989200  0.01330600  0.74996600  1
  Li  Li4  1  0.68619300  0.00748100  0.50117100  1
  Li  Li5  1  0.68619300  0.99251900  0.00117100  1
  Li  Li6  1  0.85717100  0.49526300  0.98695200  1
  Li  Li7  1  0.85717100  0.50473700  0.48695200  1
  U  U0  1  0.99987900  0.01837600  0.24995300  1
  U  U1  1  0.99987900  0.98162400  0.74995300  1
  U  U2  1  0.49239700  0.52087100  0.24757000  1
  U  U3  1  0.49239700  0.47912900  0.74757000  1
  W  W0  1  0.02514200  0.25593400  0.00038200  1
  W  W1  1  0.02514200  0.74406600  0.50038200  1
  W  W2  1  0.47616700  0.24328400  0.49898300  1
  W  W3  1  0.47616700  0.75671600  0.99898300  1
  W  W4  1  0.52396600  0.24338300  0.99983500  1
  W  W5  1  0.52396600  0.75661700  0.49983500  1
  W  W6  1  0.97659500  0.25625600  0.49839100  1
  W  W7  1  0.97659500  0.74374400  0.99839100  1
  O  O0  1  0.00072100  0.20392900  0.24976000  1
  O  O1  1  0.00156300  0.26059900  0.74942500  1
  O  O2  1  0.00156300  0.73940100  0.24942500  1
  O  O3  1  0.00072100  0.79607100  0.74976000  1
  O  O4  1  0.00449900  0.09314900  0.97017000  1
  O  O5  1  0.00449900  0.90685100  0.47017000  1
  O  O6  1  0.99781400  0.38614300  0.04919800  1
  O  O7  1  0.99781400  0.61385700  0.54919800  1
  O  O8  1  0.24337000  0.01822900  0.24968400  1
  O  O9  1  0.24337000  0.98177100  0.74968400  1
  O  O10  1  0.24226900  0.24385800  0.49820700  1
  O  O11  1  0.24226900  0.75614200  0.99820700  1
  O  O12  1  0.25853900  0.24508800  0.00087400  1
  O  O13  1  0.25853900  0.75491200  0.50087400  1
  O  O14  1  0.26473600  0.52538100  0.24824800  1
  O  O15  1  0.26473600  0.47461900  0.74824800  1
  O  O16  1  0.49515900  0.10187300  0.54058300  1
  O  O17  1  0.49515900  0.89812700  0.04058300  1
  O  O18  1  0.49758300  0.39485300  0.46809800  1
  O  O19  1  0.49758300  0.60514700  0.96809800  1
  O  O20  1  0.50095800  0.22839300  0.24952000  1
  O  O21  1  0.49883900  0.71836700  0.24911900  1
  O  O22  1  0.50095800  0.77160700  0.74952000  1
  O  O23  1  0.49883900  0.28163300  0.74911900  1
  O  O24  1  0.50497100  0.39561300  0.02848700  1
  O  O25  1  0.50497100  0.60438700  0.52848700  1
  O  O26  1  0.50269900  0.10212000  0.95827400  1
  O  O27  1  0.50269900  0.89788000  0.45827400  1
  O  O28  1  0.72773800  0.47871000  0.74670200  1
  O  O29  1  0.72773800  0.52129000  0.24670200  1
  O  O30  1  0.74286700  0.24140600  0.50187900  1
  O  O31  1  0.74286700  0.75859400  0.00187900  1
  O  O32  1  0.75687000  0.24279200  0.99888500  1
  O  O33  1  0.75687000  0.75720800  0.49888500  1
  O  O34  1  0.75637700  0.01821400  0.25003300  1
  O  O35  1  0.75637700  0.98178600  0.75003300  1
  O  O36  1  0.98836900  0.38725900  0.44876000  1
  O  O37  1  0.98836900  0.61274100  0.94876000  1
  O  O38  1  0.99543500  0.09154500  0.52869300  1
  O  O39  1  0.99543500  0.90845500  0.02869300  1
loop_
_geom_bond_atom_site_label_1
_geom_bond_atom_site_label_2
_geom_bond_distance
_geom_bond_site_symmetry_2
Li0 O26 1.966019 1_555
Li0 O8 1.996122 1_556
Li0 O9 2.002828 1_545
Li0 O17 2.041189 1_546
Li1 O27 1.966019 1_555
Li1 O9 1.996122 1_555
Li1 O8 2.002828 1_565
Li1 O16 2.041189 1_565
Li2 O27 1.966019 1_555
Li2 O17 1.970960 1_555
Li2 O34 2.063397 1_565
Li2 O8 2.063722 1_565
Li3 O26 1.966019 1_555
Li3 O16 1.970960 1_555
Li3 O35 2.063397 1_545
Li3 O9 2.063722 1_545
Li4 O16 1.969851 1_555
Li4 O34 1.996246 1_555
Li4 O35 2.002733 1_545
Li4 O27 2.061800 1_545
Li5 O17 1.969851 1_555
Li5 O35 1.996246 1_554
Li5 O34 2.002733 1_565
Li5 O26 2.061800 1_564
Li6 O6 1.867600 1_556
Li6 O37 1.874102 1_555
Li6 O28 2.105967 1_555
Li6 O29 2.252053 1_556
Li7 O7 1.867600 1_555
Li7 O36 1.874102 1_555
Li7 O29 2.105967 1_555
Li7 O28 2.252053 1_555
O0 W6 2.022406 1_455
O0 W0 2.026539 1_555
O0 U0 2.425339 1_455
O1 W0 1.921313 1_556
O1 W6 1.922854 1_455
O2 W1 1.921313 1_555
O2 W7 1.922854 1_454
O3 W7 2.022406 1_455
O3 W1 2.026539 1_555
O3 U1 2.425339 1_455
O4 W0 2.146312 1_556
O4 U1 2.222482 1_445
O4 U0 2.344660 1_456
O5 W1 2.146312 1_555
O5 U0 2.222482 1_465
O5 U1 2.344660 1_455
O6 W0 1.755358 1_655
O7 W1 1.755358 1_655
O8 U0 1.919420 1_455
O9 U1 1.919420 1_455
O10 W2 1.843820 1_555
O10 W6 2.100545 1_455
O11 W3 1.843820 1_555
O11 W7 2.100545 1_455
O12 W0 1.845304 1_555
O12 W4 2.092472 1_554
O13 W1 1.845304 1_555
O13 W5 2.092472 1_555
O14 U2 1.795607 1_555
O15 U3 1.795607 1_555
O16 W2 1.881276 1_555
O17 W3 1.881276 1_554
O18 W2 2.002183 1_555
O18 U2 2.352848 1_555
O18 U3 2.397064 1_555
O19 W3 2.002183 1_555
O19 U3 2.352848 1_555
O19 U2 2.397064 1_556
O20 W2 1.919969 1_555
O20 W4 1.920392 1_554
O21 W3 1.978008 1_554
O21 W5 1.983770 1_555
O21 U2 2.581961 1_555
O22 W3 1.919969 1_555
O22 W5 1.920392 1_555
O23 W2 1.978008 1_555
O23 W4 1.983770 1_555
O23 U3 2.581961 1_555
O24 W4 2.007299 1_554
O24 U2 2.339807 1_555
O24 U3 2.403974 1_554
O25 W5 2.007299 1_555
O25 U3 2.339807 1_555
O25 U2 2.403974 1_555
O26 W4 1.880839 1_555
O27 W5 1.880839 1_555
O28 U3 1.855193 1_555
O29 U2 1.855193 1_555
O30 W6 1.852850 1_555
O30 W2 2.102624 1_555
O31 W7 1.852850 1_554
O31 W3 2.102624 1_554
O32 W4 1.835993 1_555
O32 W0 2.121756 1_656
O33 W5 1.835993 1_555
O33 W1 2.121756 1_655
O34 U0 1.919505 1_555
O35 U1 1.919505 1_555
O36 W6 1.756004 1_555
O37 W7 1.756004 1_555
O38 W6 2.170325 1_555
O38 U1 2.214803 1_545
O38 U0 2.328732 1_555
O39 W7 2.170325 1_554
O39 U0 2.214803 1_565
O39 U1 2.328732 1_554
