# generated using pymatgen
data_Mn5OF11
_symmetry_space_group_name_H-M   'P 1'
_cell_length_a   5.26325424
_cell_length_b   5.70992589
_cell_length_c   9.23451623
_cell_angle_alpha   73.24115398
_cell_angle_beta   91.37187183
_cell_angle_gamma   116.04404864
_symmetry_Int_Tables_number   1
_chemical_formula_structural   Mn5OF11
_chemical_formula_sum   'Mn5 O1 F11'
_cell_volume   237.04607292
_cell_formula_units_Z   1
loop_
 _symmetry_equiv_pos_site_id
 _symmetry_equiv_pos_as_xyz
  1  'x, y, z'
loop_
 _atom_site_type_symbol
 _atom_site_label
 _atom_site_symmetry_multiplicity
 _atom_site_fract_x
 _atom_site_fract_y
 _atom_site_fract_z
 _atom_site_occupancy
  Mn  Mn0  1  0.76066700  0.55928200  0.41570200  1
  Mn  Mn1  1  0.53578400  0.08970700  0.17215800  1
  Mn  Mn2  1  0.32899500  0.59600100  0.89143300  1
  Mn  Mn3  1  0.02992900  0.06266000  0.63570900  1
  Mn  Mn4  1  0.01916200  0.01153800  0.00151700  1
  O  O0  1  0.40287700  0.25980200  0.99000000  1
  F  F0  1  0.02728700  0.27081100  0.79689300  1
  F  F1  1  0.95259400  0.33197500  0.46807300  1
  F  F2  1  0.43260900  0.29582200  0.59083000  1
  F  F3  1  0.53945600  0.34079400  0.28858900  1
  F  F4  1  0.62824100  0.82359200  0.71140900  1
  F  F5  1  0.60670200  0.82019400  0.02961800  1
  F  F6  1  0.61470700  0.82976600  0.33801700  1
  F  F7  1  0.95388900  0.30320000  0.07751600  1
  F  F8  1  0.08887600  0.81025600  0.20136100  1
  F  F9  1  0.01295500  0.79780300  0.52449600  1
  F  F10  1  0.10158900  0.82087900  0.85368800  1
loop_
_geom_bond_atom_site_label_1
_geom_bond_atom_site_label_2
_geom_bond_distance
_geom_bond_site_symmetry_2
Mn1 O0 1.964767 1_554
Mn2 O0 2.072618 1_555
Mn4 O0 1.873208 1_554
F0 Mn4 2.024632 1_556
F0 Mn3 2.159629 1_555
F0 Mn2 2.238489 1_555
F1 Mn0 1.924786 1_555
F1 Mn3 2.018286 1_655
F2 Mn3 1.918910 1_555
F2 Mn0 2.075953 1_555
F3 Mn0 1.947667 1_555
F3 Mn1 2.018782 1_555
F4 Mn3 1.951423 1_665
F4 Mn2 2.003822 1_555
F5 Mn4 1.937647 1_665
F5 Mn2 2.147827 1_554
F5 Mn1 2.436439 1_565
F6 Mn0 1.966381 1_555
F6 Mn1 1.980242 1_565
F7 Mn1 2.052928 1_555
F7 Mn4 2.138222 1_655
F7 Mn2 2.291940 1_654
F8 Mn4 1.993991 1_565
F8 Mn1 2.153601 1_565
F8 Mn0 2.304260 1_455
F9 Mn0 1.940248 1_455
F9 Mn3 2.030380 1_565
F10 Mn2 2.067432 1_555
F10 Mn4 2.130042 1_566
F10 Mn3 2.217737 1_565
