# generated using pymatgen
data_Li2Ni(PS3)2
_symmetry_space_group_name_H-M   'P 1'
_cell_length_a   5.98751300
_cell_length_b   5.99243625
_cell_length_c   7.29351795
_cell_angle_alpha   82.47210039
_cell_angle_beta   105.78090597
_cell_angle_gamma   119.94497697
_symmetry_Int_Tables_number   1
_chemical_formula_structural   Li2Ni(PS3)2
_chemical_formula_sum   'Li2 Ni1 P2 S6'
_cell_volume   218.20539239
_cell_formula_units_Z   1
loop_
 _symmetry_equiv_pos_site_id
 _symmetry_equiv_pos_as_xyz
  1  'x, y, z'
loop_
 _atom_site_type_symbol
 _atom_site_label
 _atom_site_symmetry_multiplicity
 _atom_site_fract_x
 _atom_site_fract_y
 _atom_site_fract_z
 _atom_site_occupancy
  Li  Li0  1  0.66896000  0.33317000  0.99620700  1
  Li  Li1  1  0.57481100  0.99590400  0.48861500  1
  Ni  Ni0  1  0.34110200  0.66841500  0.99617300  1
  P  P0  1  0.06419700  0.00209300  0.16232000  1
  P  P1  1  0.96280500  0.99869500  0.84997900  1
  S  S0  1  0.11616400  0.68811100  0.23613400  1
  S  S1  1  0.25722200  0.97437900  0.78167100  1
  S  S2  1  0.59398900  0.68479700  0.77135000  1
  S  S3  1  0.40146100  0.34254800  0.23356100  1
  S  S4  1  0.95414100  0.33375100  0.77272500  1
  S  S5  1  0.73165800  0.97813800  0.21126200  1
loop_
_geom_bond_atom_site_label_1
_geom_bond_atom_site_label_2
_geom_bond_distance
_geom_bond_site_symmetry_2
Li0 S1 2.576883 1_545
Li0 S5 2.594253 1_546
Li0 S2 2.639962 1_555
Li0 S4 2.660616 1_555
Li0 S3 2.681192 1_556
Li0 S0 2.738024 1_656
Li1 S5 2.484929 1_555
Li1 S2 2.611277 1_555
Li1 S0 2.723418 1_555
Li1 S4 2.738590 1_565
Li1 S3 2.990403 1_565
Ni0 S1 2.408687 1_555
Ni0 S5 2.410124 1_556
Ni0 S2 2.480123 1_555
Ni0 S4 2.491945 1_455
Ni0 S0 2.527020 1_556
Ni0 S3 2.533742 1_556
P0 S3 2.025868 1_555
P0 S0 2.038309 1_545
P0 S5 2.049450 1_445
P0 P1 2.192289 1_444
P1 S1 2.032277 1_655
P1 S4 2.035461 1_565
P1 S2 2.047082 1_555
