# generated using pymatgen
data_Li8V3P8O29
_symmetry_space_group_name_H-M   'P 1'
_cell_length_a   9.90819642
_cell_length_b   9.91427807
_cell_length_c   13.90040604
_cell_angle_alpha   89.95959861
_cell_angle_beta   89.52630032
_cell_angle_gamma   59.95762561
_symmetry_Int_Tables_number   1
_chemical_formula_structural   Li8V3P8O29
_chemical_formula_sum   'Li16 V6 P16 O58'
_cell_volume   1181.97954904
_cell_formula_units_Z   2
loop_
 _symmetry_equiv_pos_site_id
 _symmetry_equiv_pos_as_xyz
  1  'x, y, z'
loop_
 _atom_site_type_symbol
 _atom_site_label
 _atom_site_symmetry_multiplicity
 _atom_site_fract_x
 _atom_site_fract_y
 _atom_site_fract_z
 _atom_site_occupancy
  Li  Li0  1  0.90932156  0.76313671  0.06529049  1
  Li  Li1  1  0.76625145  0.89661241  0.56712941  1
  Li  Li2  1  0.90929992  0.32776870  0.56560582  1
  Li  Li3  1  0.67146348  0.66897678  0.38234314  1
  Li  Li4  1  0.67149245  0.65959412  0.88219098  1
  Li  Li5  1  0.76659195  0.33720261  0.06690424  1
  Li  Li6  1  0.32253560  0.90654119  0.06160272  1
  Li  Li7  1  0.32272061  0.77083942  0.56176068  1
  Li  Li8  1  0.22686512  0.68114359  0.93442731  1
  Li  Li9  1  0.35029795  0.33204782  0.61568962  1
  Li  Li10  1  0.35031072  0.31771141  0.11537412  1
  Li  Li11  1  0.09205563  0.67588098  0.43551691  1
  Li  Li12  1  0.22676880  0.09200790  0.43443706  1
  Li  Li13  1  0.09198599  0.23226173  0.93531891  1
  Li  Li14  1  0.90511251  0.02228549  0.98127844  1
  Li  Li15  1  0.90536854  0.07214157  0.48156213  1
  V  V0  1  0.56532644  0.43053440  0.25358918  1
  V  V1  1  0.43809456  0.56408097  0.74934854  1
  V  V2  1  0.56538339  0.00380394  0.75349212  1
  V  V3  1  0.43809074  0.99783656  0.24917768  1
  V  V4  1  0.00010994  0.56506592  0.24727975  1
  V  V5  1  0.00022920  0.43490725  0.74725876  1
  P  P0  1  0.90670848  0.77411374  0.84254836  1
  P  P1  1  0.77230526  0.91048583  0.34911431  1
  P  P2  1  0.90656012  0.31910065  0.34262751  1
  P  P3  1  0.66602323  0.66136060  0.12432696  1
  P  P4  1  0.66586468  0.67248788  0.62434558  1
  P  P5  1  0.77238663  0.31692736  0.84908541  1
  P  P6  1  0.69362756  0.21946174  0.66369171  1
  P  P7  1  0.31801372  0.91159693  0.84148664  1
  P  P8  1  0.69354207  0.08701009  0.16371799  1
  P  P9  1  0.31801440  0.77032037  0.34132813  1
  P  P10  1  0.23334147  0.67804479  0.15372150  1
  P  P11  1  0.32951856  0.33656136  0.37483254  1
  P  P12  1  0.32972399  0.33372636  0.87473271  1
  P  P13  1  0.09309422  0.67861585  0.65632675  1
  P  P14  1  0.23338797  0.08879743  0.65376775  1
  P  P15  1  0.09297885  0.22856607  0.15639943  1
  O  O0  1  0.99849900  0.76127122  0.56880653  1
  O  O1  1  0.92162556  0.75090350  0.33781442  1
  O  O2  1  0.80285822  0.98461894  0.08544218  1
  O  O3  1  0.74527221  0.92031292  0.84047778  1
  O  O4  1  0.89053365  0.62831260  0.83447237  1
  O  O5  1  0.81493945  0.66485223  0.15707659  1
  O  O6  1  0.89020268  0.48108636  0.33457402  1
  O  O7  1  0.99831908  0.24104180  0.06875276  1
  O  O8  1  0.92160290  0.32746161  0.83779694  1
  O  O9  1  0.66863933  0.81738599  0.67162050  1
  O  O10  1  0.63013358  0.88904007  0.33305027  1
  O  O11  1  0.81478664  0.52003018  0.65735278  1
  O  O12  1  0.66408718  0.64583085  0.01640681  1
  O  O13  1  0.66371851  0.68996783  0.51662369  1
  O  O14  1  0.66871208  0.51375821  0.17164724  1
  O  O15  1  0.48459055  0.88894667  0.83002365  1
  O  O16  1  0.51712448  0.80967312  0.16096672  1
  O  O17  1  0.74542175  0.33378867  0.34052968  1
  O  O18  1  0.77748863  0.20192263  0.76553426  1
  O  O19  1  0.80295135  0.21249632  0.58553165  1
  O  O20  1  0.77359919  0.24019870  0.94261000  1
  O  O21  1  0.63012388  0.48081709  0.83274052  1
  O  O22  1  0.51695425  0.67333622  0.66126196  1
  O  O23  1  0.66964204  0.25317853  0.15833576  1
  O  O24  1  0.48440434  0.62626515  0.32992822  1
  O  O25  1  0.32864715  0.91929042  0.34129871  1
  O  O26  1  0.77729263  0.02059128  0.26555343  1
  O  O27  1  0.77384800  0.98598441  0.44274779  1
  O  O28  1  0.24136868  0.99652582  0.56527862  1
  O  O29  1  0.66966561  0.07718328  0.65844568  1
  O  O30  1  0.53217081  0.36812142  0.66651768  1
  O  O31  1  0.32854348  0.75199279  0.84144650  1
  O  O32  1  0.47386532  0.34073610  0.32464235  1
  O  O33  1  0.37940240  0.51489490  0.16651431  1
  O  O34  1  0.24158060  0.76228380  0.06503359  1
  O  O35  1  0.23324839  0.76201403  0.43010502  1
  O  O36  1  0.21811638  0.78117237  0.24767365  1
  O  O37  1  0.25279145  0.66884544  0.65596524  1
  O  O38  1  0.47406378  0.18521633  0.82446950  1
  O  O39  1  0.53218320  0.09974658  0.16655242  1
  O  O40  1  0.33128719  0.48162629  0.83832391  1
  O  O41  1  0.33924530  0.31992516  0.98191788  1
  O  O42  1  0.33969651  0.34075236  0.48230272  1
  O  O43  1  0.18288877  0.48537921  0.33849051  1
  O  O44  1  0.37945009  0.10590967  0.66644384  1
  O  O45  1  0.33117034  0.18719338  0.33864075  1
  O  O46  1  0.08619186  0.66441522  0.15301240  1
  O  O47  1  0.00239755  0.78212680  0.75027299  1
  O  O48  1  0.99389419  0.77920409  0.93140035  1
  O  O49  1  0.11882672  0.51265356  0.66981465  1
  O  O50  1  0.18303778  0.33175011  0.83814965  1
  O  O51  1  0.11862206  0.36873584  0.17003652  1
  O  O52  1  0.25267499  0.07855575  0.15573603  1
  O  O53  1  0.23325595  0.00468727  0.93002913  1
  O  O54  1  0.21830516  0.00087263  0.74779118  1
  O  O55  1  0.08620627  0.24978002  0.65317893  1
  O  O56  1  0.99385955  0.22661059  0.43159996  1
  O  O57  1  0.00251954  0.21536417  0.25039754  1
loop_
_geom_bond_atom_site_label_1
_geom_bond_atom_site_label_2
_geom_bond_distance
_geom_bond_site_symmetry_2
Li0 O2 1.920835 1_555
Li0 O46 1.957595 1_655
Li0 O48 2.073355 1_554
Li0 O5 2.083929 1_555
Li1 O27 1.960234 1_555
Li1 O29 1.999913 1_565
Li1 O0 2.001371 1_555
Li1 O9 2.097104 1_555
Li2 O19 1.921886 1_555
Li2 O55 1.956779 1_655
Li2 O56 2.076791 1_555
Li2 O11 2.081615 1_555
Li3 O13 1.874943 1_555
Li3 O10 2.122554 1_555
Li3 O6 2.131590 1_555
Li3 O24 2.225741 1_555
Li4 O12 1.874052 1_556
Li4 O21 2.125059 1_555
Li4 O4 2.132819 1_555
Li4 O15 2.220201 1_555
Li5 O20 1.961714 1_554
Li5 O7 1.997595 1_555
Li5 O23 2.002883 1_555
Li5 O14 2.098774 1_555
Li6 O34 1.959362 1_555
Li6 O52 1.976326 1_565
Li6 O53 2.058323 1_564
Li6 O16 2.176115 1_555
Li7 O28 1.962711 1_555
Li7 O37 1.975345 1_555
Li7 O35 2.060926 1_555
Li7 O22 2.174981 1_555
Li8 O31 1.965852 1_555
Li8 O48 2.007440 1_455
Li8 O34 2.021940 1_556
Li8 O40 2.167825 1_555
Li9 O42 1.857473 1_555
Li9 O30 2.130994 1_555
Li9 O49 2.212164 1_555
Li9 O44 2.227204 1_555
Li10 O41 1.858704 1_554
Li10 O39 2.131451 1_555
Li10 O51 2.216310 1_555
Li10 O33 2.231536 1_555
Li11 O35 1.971378 1_555
Li11 O1 2.007015 1_455
Li11 O0 2.048616 1_455
Li11 O43 2.116052 1_555
Li12 O25 1.969287 1_545
Li12 O56 2.006444 1_455
Li12 O28 2.022303 1_545
Li12 O45 2.164873 1_555
Li13 O53 1.972719 1_555
Li13 O8 2.004762 1_455
Li13 O7 2.049388 1_456
Li13 O50 2.116629 1_555
Li14 O2 1.901637 1_546
Li14 O20 1.961013 1_555
Li14 O48 2.220829 1_545
Li15 O19 1.902483 1_555
Li15 O27 1.961046 1_545
Li15 O56 2.220206 1_555
O0 P13 1.509449 1_655
O1 P1 1.539315 1_555
O1 V4 2.033609 1_655
O2 P8 1.506217 1_565
O3 P0 1.529561 1_555
O3 V2 1.970028 1_565
O4 P0 1.536320 1_555
O4 V5 2.054862 1_655
O5 P3 1.564539 1_555
O5 V4 2.033695 1_655
O6 P2 1.535374 1_555
O6 V4 2.058172 1_655
O7 P15 1.510566 1_655
O8 P5 1.540174 1_555
O8 V5 2.034296 1_655
O9 P4 1.592943 1_555
O9 V2 1.961664 1_565
O10 P1 1.544204 1_555
O10 V3 2.030563 1_555
O11 P4 1.565077 1_555
O11 V5 2.033210 1_655
O12 P3 1.509382 1_555
O13 P4 1.506352 1_555
O14 P3 1.592081 1_555
O14 V0 1.962950 1_555
O15 P7 1.557075 1_555
O15 V2 1.991525 1_565
O16 P3 1.553897 1_555
O16 V3 2.030135 1_555
O17 P2 1.529420 1_555
O17 V0 1.971020 1_555
O18 P5 1.610779 1_555
O18 P6 1.612190 1_555
O19 P6 1.504736 1_555
O20 P5 1.502868 1_555
O21 P5 1.546008 1_555
O21 V1 2.026757 1_555
O22 P4 1.554144 1_555
O22 V1 2.028008 1_555
O23 P8 1.544419 1_555
O23 V0 2.018456 1_555
O24 P9 1.556037 1_555
O24 V0 1.991354 1_555
O25 P9 1.532389 1_555
O25 V3 2.059904 1_555
O26 P1 1.610744 1_545
O26 P8 1.611516 1_555
O27 P1 1.505882 1_555
O28 P14 1.511177 1_565
O29 P6 1.545059 1_555
O29 V2 2.017701 1_555
O30 P6 1.539872 1_555
O30 V1 2.034984 1_555
O31 P7 1.532791 1_555
O31 V1 2.059978 1_555
O32 P11 1.605210 1_555
O32 V0 1.838778 1_555
O33 P10 1.549950 1_555
O33 V0 2.012673 1_555
O34 P10 1.512981 1_555
O35 P9 1.512280 1_555
O36 P9 1.612623 1_555
O36 P10 1.617989 1_555
O37 P13 1.536072 1_555
O37 V1 2.064660 1_555
O38 P12 1.605575 1_555
O38 V2 1.839903 1_555
O39 P8 1.539612 1_555
O39 V3 2.032958 1_545
O40 P12 1.558216 1_555
O40 V1 2.039856 1_555
O41 P12 1.495523 1_555
O42 P11 1.500115 1_555
O43 P11 1.551642 1_555
O43 V4 2.028634 1_555
O44 P14 1.550598 1_555
O44 V2 2.012616 1_555
O45 P11 1.556598 1_555
O45 V3 2.045312 1_545
O46 P10 1.530225 1_555
O46 V4 2.058046 1_555
O47 P0 1.614191 1_455
O47 P13 1.620233 1_555
O48 P0 1.528264 1_555
O49 P13 1.545248 1_555
O49 V5 2.004658 1_555
O50 P12 1.553088 1_555
O50 V5 2.025882 1_555
O51 P15 1.544802 1_555
O51 V4 2.003496 1_555
O52 P15 1.535953 1_555
O52 V3 2.066031 1_545
O53 P7 1.510069 1_545
O54 P7 1.612385 1_545
O54 P14 1.617396 1_555
O55 P14 1.530923 1_555
O55 V5 2.055244 1_555
O56 P2 1.529868 1_555
O57 P2 1.614916 1_455
O57 P15 1.620357 1_555
