# generated using pymatgen
data_Li4Fe2(PO4)3
_symmetry_space_group_name_H-M   'P 1'
_cell_length_a   8.39327100
_cell_length_b   8.40930267
_cell_length_c   9.21258576
_cell_angle_alpha   62.89713383
_cell_angle_beta   63.05698776
_cell_angle_gamma   60.71010281
_symmetry_Int_Tables_number   1
_chemical_formula_structural   Li4Fe2(PO4)3
_chemical_formula_sum   'Li8 Fe4 P6 O24'
_cell_volume   482.13021043
_cell_formula_units_Z   2
loop_
 _symmetry_equiv_pos_site_id
 _symmetry_equiv_pos_as_xyz
  1  'x, y, z'
loop_
 _atom_site_type_symbol
 _atom_site_label
 _atom_site_symmetry_multiplicity
 _atom_site_fract_x
 _atom_site_fract_y
 _atom_site_fract_z
 _atom_site_occupancy
  Li  Li0  1  0.91853200  0.66240600  0.14281500  1
  Li  Li1  1  0.66845700  0.27307000  0.13768800  1
  Li  Li2  1  0.27385800  0.93382200  0.10237300  1
  Li  Li3  1  0.73721700  0.21563200  0.58553200  1
  Li  Li4  1  0.26278300  0.78436800  0.41446800  1
  Li  Li5  1  0.72614200  0.06617800  0.89762700  1
  Li  Li6  1  0.33154300  0.72693000  0.86231200  1
  Li  Li7  1  0.08146800  0.33759400  0.85718500  1
  Fe  Fe0  1  0.65449200  0.64610700  0.03946200  1
  Fe  Fe1  1  0.14895300  0.15222600  0.55753400  1
  Fe  Fe2  1  0.85104700  0.84777400  0.44246600  1
  Fe  Fe3  1  0.34550800  0.35389300  0.96053800  1
  P  P0  1  0.96154300  0.24347200  0.24316000  1
  P  P1  1  0.53738000  0.95573200  0.25580300  1
  P  P2  1  0.24971600  0.54439900  0.25062300  1
  P  P3  1  0.75028400  0.45560100  0.74937700  1
  P  P4  1  0.46262000  0.04426800  0.74419700  1
  P  P5  1  0.03845700  0.75652800  0.75684000  1
  O  O0  1  0.54726600  0.14424500  0.10639000  1
  O  O1  1  0.19712700  0.56567700  0.09922300  1
  O  O2  1  0.15134900  0.20047600  0.09587100  1
  O  O3  1  0.83794800  0.45676600  0.19547200  1
  O  O4  1  0.85611800  0.11821300  0.26979000  1
  O  O5  1  0.99487200  0.18773200  0.41490000  1
  O  O6  1  0.74092800  0.84618400  0.27937000  1
  O  O7  1  0.48763000  0.83382300  0.20765100  1
  O  O8  1  0.46435500  0.49969500  0.20007200  1
  O  O9  1  0.81296700  0.60813100  0.58742900  1
  O  O10  1  0.85970300  0.25590600  0.71354700  1
  O  O11  1  0.61789300  0.00867100  0.57773700  1
  O  O12  1  0.38210700  0.99132900  0.42226300  1
  O  O13  1  0.14029700  0.74409400  0.28645300  1
  O  O14  1  0.18703300  0.39186900  0.41257100  1
  O  O15  1  0.53564500  0.50030500  0.79992800  1
  O  O16  1  0.51237000  0.16617700  0.79234900  1
  O  O17  1  0.25907200  0.15381600  0.72063000  1
  O  O18  1  0.00512800  0.81226800  0.58510000  1
  O  O19  1  0.14388200  0.88178700  0.73021000  1
  O  O20  1  0.16205200  0.54323400  0.80452800  1
  O  O21  1  0.84865100  0.79952400  0.90412900  1
  O  O22  1  0.80287300  0.43432300  0.90077700  1
  O  O23  1  0.45273400  0.85575500  0.89361000  1
loop_
_geom_bond_atom_site_label_1
_geom_bond_atom_site_label_2
_geom_bond_distance
_geom_bond_site_symmetry_2
Li0 O3 1.940607 1_555
Li0 O1 1.968829 1_655
Li0 O6 2.002777 1_555
Li0 O21 2.169226 1_554
Li1 O8 1.951479 1_555
Li1 O0 1.979905 1_555
Li1 O4 1.985927 1_555
Li1 O22 2.108071 1_554
Li2 O2 1.940749 1_565
Li2 O23 1.988297 1_554
Li2 O7 2.055398 1_555
Li2 O13 2.059132 1_555
Li3 O5 1.990423 1_555
Li3 O16 2.037694 1_555
Li3 O10 2.089452 1_555
Li3 O11 2.433460 1_555
Li4 O18 1.990423 1_555
Li4 O7 2.037694 1_555
Li4 O13 2.089452 1_555
Li4 O12 2.433460 1_555
Li5 O21 1.940749 1_545
Li5 O0 1.988297 1_556
Li5 O16 2.055398 1_555
Li5 O10 2.059132 1_555
Li6 O15 1.951479 1_555
Li6 O23 1.979905 1_555
Li6 O19 1.985927 1_555
Li6 O1 2.108071 1_556
Li7 O20 1.940607 1_555
Li7 O22 1.968829 1_455
Li7 O17 2.002777 1_555
Li7 O2 2.169226 1_556
Fe0 O8 2.091601 1_555
Fe0 O3 2.119743 1_555
Fe0 O21 2.150551 1_554
Fe0 O23 2.182563 1_554
Fe0 O22 2.194623 1_554
Fe0 O7 2.225555 1_555
Fe1 O14 1.933385 1_555
Fe1 O12 1.987186 1_545
Fe1 O5 2.071945 1_455
Fe1 O17 2.097838 1_555
Fe1 O19 2.107448 1_545
Fe1 O10 2.151411 1_455
Fe2 O9 1.933385 1_555
Fe2 O11 1.987186 1_565
Fe2 O18 2.071945 1_655
Fe2 O6 2.097838 1_555
Fe2 O4 2.107448 1_565
Fe2 O13 2.151411 1_655
Fe3 O15 2.091601 1_555
Fe3 O20 2.119743 1_555
Fe3 O2 2.150551 1_556
Fe3 O0 2.182563 1_556
Fe3 O1 2.194623 1_556
Fe3 O16 2.225555 1_555
O0 P1 1.565751 1_545
O1 P2 1.557400 1_555
O2 P0 1.560252 1_455
O3 P0 1.536466 1_555
O4 P0 1.559643 1_555
O5 P0 1.548633 1_555
O6 P1 1.558358 1_555
O7 P1 1.556666 1_555
O8 P2 1.529793 1_555
O9 P3 1.534028 1_555
O10 P3 1.579168 1_555
O11 P4 1.537926 1_555
O12 P1 1.537926 1_555
O13 P2 1.579168 1_555
O14 P2 1.534028 1_555
O15 P3 1.529793 1_555
O16 P4 1.556666 1_555
O17 P4 1.558358 1_555
O18 P5 1.548633 1_555
O19 P5 1.559643 1_555
O20 P5 1.536466 1_555
O21 P5 1.560252 1_655
O22 P3 1.557400 1_555
O23 P4 1.565751 1_565
