# generated using pymatgen
data_LiMnNbO4
_symmetry_space_group_name_H-M   'P 1'
_cell_length_a   6.22740400
_cell_length_b   9.08416972
_cell_length_c   6.18143534
_cell_angle_alpha   90.00022404
_cell_angle_beta   89.99983561
_cell_angle_gamma   90.00012977
_symmetry_Int_Tables_number   1
_chemical_formula_structural   LiMnNbO4
_chemical_formula_sum   'Li4 Mn4 Nb4 O16'
_cell_volume   349.68871023
_cell_formula_units_Z   4
loop_
 _symmetry_equiv_pos_site_id
 _symmetry_equiv_pos_as_xyz
  1  'x, y, z'
loop_
 _atom_site_type_symbol
 _atom_site_label
 _atom_site_symmetry_multiplicity
 _atom_site_fract_x
 _atom_site_fract_y
 _atom_site_fract_z
 _atom_site_occupancy
  Li  Li0  1  0.24999600  0.14736800  0.00000300  1
  Li  Li1  1  0.74999300  0.64734600  0.49999700  1
  Li  Li2  1  0.74999300  0.85262100  0.00000000  1
  Li  Li3  1  0.24999600  0.35264100  0.50000300  1
  Mn  Mn0  1  0.25008100  0.75004000  0.74978500  1
  Mn  Mn1  1  0.75010000  0.25008800  0.74998000  1
  Mn  Mn2  1  0.75001800  0.24999800  0.25019200  1
  Mn  Mn3  1  0.24988400  0.74992900  0.25005000  1
  Nb  Nb0  1  0.49999900  0.49999900  0.00000200  1
  Nb  Nb1  1  0.99999600  0.00000000  0.49999800  1
  Nb  Nb2  1  0.99999400  0.50000400  0.99999500  1
  Nb  Nb3  1  0.49999700  0.00000500  0.49999200  1
  O  O0  1  0.51386100  0.28159800  0.00003400  1
  O  O1  1  0.01379400  0.78159900  0.49997500  1
  O  O2  1  0.98614500  0.28160200  0.00004400  1
  O  O3  1  0.48619900  0.78159900  0.49995000  1
  O  O4  1  0.01386100  0.71839700  0.99994800  1
  O  O5  1  0.51380900  0.21839600  0.50003900  1
  O  O6  1  0.48612900  0.71839600  0.99997500  1
  O  O7  1  0.98619300  0.21840000  0.50003300  1
  O  O8  1  0.74999500  0.50263800  0.21898500  1
  O  O9  1  0.24999700  0.00264300  0.71896600  1
  O  O10  1  0.74999400  0.50264400  0.78101800  1
  O  O11  1  0.24999500  0.00264200  0.28104200  1
  O  O12  1  0.24999800  0.49735600  0.78102300  1
  O  O13  1  0.74999500  0.99735100  0.28103300  1
  O  O14  1  0.24999400  0.49734900  0.21898800  1
  O  O15  1  0.74999200  0.99735200  0.71895500  1
loop_
_geom_bond_atom_site_label_1
_geom_bond_atom_site_label_2
_geom_bond_distance
_geom_bond_site_symmetry_2
Li0 O2 2.046156 1_455
Li0 O0 2.046200 1_555
Li0 O9 2.178610 1_554
Li0 O11 2.178633 1_555
Li1 O3 2.045974 1_555
Li1 O1 2.046005 1_655
Li1 O8 2.178393 1_555
Li1 O10 2.178413 1_555
Li2 O6 2.046168 1_554
Li2 O4 2.046187 1_654
Li2 O13 2.178618 1_555
Li2 O15 2.178690 1_554
Li3 O7 2.045950 1_455
Li3 O5 2.046026 1_555
Li3 O14 2.178416 1_555
Li3 O12 2.178471 1_555
Mn0 O3 2.151568 1_555
Mn0 O1 2.152183 1_555
Mn0 O6 2.152956 1_555
Mn0 O4 2.153559 1_555
Mn0 O9 2.302584 1_565
Mn0 O12 2.303533 1_555
Mn1 O7 2.152114 1_555
Mn1 O2 2.152223 1_556
Mn1 O5 2.152940 1_555
Mn1 O0 2.152994 1_556
Mn1 O10 2.302269 1_555
Mn1 O15 2.303892 1_545
Mn2 O7 2.151891 1_555
Mn2 O5 2.152060 1_555
Mn2 O2 2.153050 1_555
Mn2 O0 2.153224 1_555
Mn2 O13 2.302993 1_545
Mn2 O8 2.303118 1_555
Mn3 O1 2.151982 1_555
Mn3 O4 2.152320 1_554
Mn3 O3 2.152834 1_555
Mn3 O6 2.153141 1_554
Mn3 O14 2.302499 1_555
Mn3 O11 2.303667 1_565
Nb0 O6 1.985835 1_554
Nb0 O0 1.985869 1_555
Nb0 O10 2.063149 1_554
Nb0 O8 2.063154 1_555
Nb0 O12 2.063162 1_554
Nb0 O14 2.063204 1_555
Nb1 O7 1.985844 1_555
Nb1 O1 1.985852 1_645
Nb1 O11 2.063054 1_655
Nb1 O15 2.063082 1_545
Nb1 O13 2.063106 1_545
Nb1 O9 2.063117 1_655
Nb2 O4 1.985797 1_655
Nb2 O2 1.985874 1_556
Nb2 O12 2.063143 1_655
Nb2 O10 2.063149 1_555
Nb2 O8 2.063191 1_556
Nb2 O14 2.063216 1_656
Nb3 O5 1.985764 1_555
Nb3 O3 1.985897 1_545
Nb3 O11 2.063049 1_555
Nb3 O13 2.063062 1_545
Nb3 O15 2.063070 1_545
Nb3 O9 2.063131 1_555
