# generated using pymatgen
data_NaUHOF5
_symmetry_space_group_name_H-M   'P 1'
_cell_length_a   6.97895300
_cell_length_b   8.74821300
_cell_length_c   15.39392700
_cell_angle_alpha   90.00000000
_cell_angle_beta   90.00000000
_cell_angle_gamma   90.00000000
_symmetry_Int_Tables_number   1
_chemical_formula_structural   NaUHOF5
_chemical_formula_sum   'Na8 U8 H8 O8 F40'
_cell_volume   939.85108026
_cell_formula_units_Z   8
loop_
 _symmetry_equiv_pos_site_id
 _symmetry_equiv_pos_as_xyz
  1  'x, y, z'
loop_
 _atom_site_type_symbol
 _atom_site_label
 _atom_site_symmetry_multiplicity
 _atom_site_fract_x
 _atom_site_fract_y
 _atom_site_fract_z
 _atom_site_occupancy
  Na  Na0  1  0.29738700  0.63962500  0.68554900  1
  Na  Na1  1  0.20261300  0.86037500  0.18554900  1
  Na  Na2  1  0.79738700  0.86037500  0.31445100  1
  Na  Na3  1  0.70261300  0.63962500  0.81445100  1
  Na  Na4  1  0.70261300  0.36037500  0.31445100  1
  Na  Na5  1  0.79738700  0.13962500  0.81445100  1
  Na  Na6  1  0.20261300  0.13962500  0.68554900  1
  Na  Na7  1  0.29738700  0.36037500  0.18554900  1
  U  U0  1  0.16170300  0.67101300  0.95786900  1
  U  U1  1  0.33829700  0.82898700  0.45786900  1
  U  U2  1  0.66170300  0.82898700  0.04213100  1
  U  U3  1  0.83829700  0.67101300  0.54213100  1
  U  U4  1  0.83829700  0.32898700  0.04213100  1
  U  U5  1  0.66170300  0.17101300  0.54213100  1
  U  U6  1  0.33829700  0.17101300  0.95786900  1
  U  U7  1  0.16170300  0.32898700  0.45786900  1
  H  H0  1  0.55963000  0.90354600  0.70715100  1
  H  H1  1  0.94037000  0.59645400  0.20715100  1
  H  H2  1  0.05963000  0.59645400  0.29284900  1
  H  H3  1  0.44037000  0.90354600  0.79284900  1
  H  H4  1  0.44037000  0.09645400  0.29284900  1
  H  H5  1  0.05963000  0.40354600  0.79284900  1
  H  H6  1  0.94037000  0.40354600  0.70715100  1
  H  H7  1  0.55963000  0.09645400  0.20715100  1
  O  O0  1  0.50000000  0.46293400  0.75000000  1
  O  O1  1  0.00000000  0.03706600  0.25000000  1
  O  O2  1  0.50000000  0.53706600  0.25000000  1
  O  O3  1  0.00000000  0.96293400  0.75000000  1
  O  O4  1  0.50000000  0.83664600  0.75000000  1
  O  O5  1  0.00000000  0.66335400  0.25000000  1
  O  O6  1  0.50000000  0.16335400  0.25000000  1
  O  O7  1  0.00000000  0.33664600  0.75000000  1
  F  F0  1  0.15399000  0.66132300  0.82241600  1
  F  F1  1  0.34601000  0.83867700  0.32241600  1
  F  F2  1  0.65399000  0.83867700  0.17758400  1
  F  F3  1  0.84601000  0.66132300  0.67758400  1
  F  F4  1  0.84601000  0.33867700  0.17758400  1
  F  F5  1  0.65399000  0.16132300  0.67758400  1
  F  F6  1  0.34601000  0.16132300  0.82241600  1
  F  F7  1  0.15399000  0.33867700  0.32241600  1
  F  F8  1  0.98589200  0.79831200  0.07155500  1
  F  F9  1  0.51410800  0.70168800  0.57155500  1
  F  F10  1  0.48589200  0.70168800  0.92844500  1
  F  F11  1  0.01410800  0.79831200  0.42844500  1
  F  F12  1  0.01410800  0.20168800  0.92844500  1
  F  F13  1  0.48589200  0.29831200  0.42844500  1
  F  F14  1  0.51410800  0.29831200  0.07155500  1
  F  F15  1  0.98589200  0.20168800  0.57155500  1
  F  F16  1  0.35963000  0.71527900  0.07673000  1
  F  F17  1  0.14037000  0.78472100  0.57673000  1
  F  F18  1  0.85963000  0.78472100  0.92327000  1
  F  F19  1  0.64037000  0.71527900  0.42327000  1
  F  F20  1  0.64037000  0.28472100  0.92327000  1
  F  F21  1  0.85963000  0.21527900  0.42327000  1
  F  F22  1  0.14037000  0.21527900  0.07673000  1
  F  F23  1  0.35963000  0.28472100  0.57673000  1
  F  F24  1  0.91772900  0.49616800  0.92606500  1
  F  F25  1  0.58227100  0.00383200  0.42606500  1
  F  F26  1  0.41772900  0.00383200  0.07393500  1
  F  F27  1  0.08227100  0.49616800  0.57393500  1
  F  F28  1  0.08227100  0.50383200  0.07393500  1
  F  F29  1  0.41772900  0.99616800  0.57393500  1
  F  F30  1  0.58227100  0.99616800  0.92606500  1
  F  F31  1  0.91772900  0.50383200  0.42606500  1
  F  F32  1  0.21135900  0.92560600  0.93583900  1
  F  F33  1  0.28864100  0.57439400  0.43583900  1
  F  F34  1  0.71135900  0.57439400  0.06416100  1
  F  F35  1  0.78864100  0.92560600  0.56416100  1
  F  F36  1  0.78864100  0.07439400  0.06416100  1
  F  F37  1  0.71135900  0.42560600  0.56416100  1
  F  F38  1  0.28864100  0.42560600  0.93583900  1
  F  F39  1  0.21135900  0.07439400  0.43583900  1
loop_
_geom_bond_atom_site_label_1
_geom_bond_atom_site_label_2
_geom_bond_distance
_geom_bond_site_symmetry_2
Na0 O0 2.318000 1_555
Na0 O4 2.440200 1_555
Na1 O1 2.318000 1_565
Na1 O5 2.440200 1_555
Na2 O1 2.318000 1_665
Na2 O5 2.440200 1_655
Na3 O0 2.318000 1_555
Na3 O4 2.440200 1_555
Na4 O2 2.318000 1_555
Na4 O6 2.440200 1_555
Na5 O3 2.318000 1_645
Na5 O7 2.440200 1_655
Na6 O3 2.318000 1_545
Na6 O7 2.440200 1_555
Na7 O2 2.318000 1_555
Na7 O6 2.440200 1_555
H0 O4 0.975090 1_555
H1 O5 0.975090 1_655
H2 O5 0.975090 1_555
H3 O4 0.975090 1_555
H4 O6 0.975090 1_555
H5 O7 0.975090 1_555
H6 O7 0.975090 1_655
H7 O6 0.975090 1_555
F0 U0 2.087570 1_555
F0 Na0 2.340228 1_555
F1 U1 2.087570 1_555
F1 Na1 2.340228 1_555
F2 U2 2.087570 1_555
F2 Na2 2.340228 1_555
F3 U3 2.087570 1_555
F3 Na3 2.340228 1_555
F4 U4 2.087570 1_555
F4 Na4 2.340228 1_555
F5 U5 2.087570 1_555
F5 Na5 2.340228 1_555
F6 U6 2.087570 1_555
F6 Na6 2.340228 1_555
F7 U7 2.087570 1_555
F7 Na7 2.340228 1_555
F8 U2 2.322947 1_555
F8 Na1 2.379448 1_655
F8 U0 2.410067 1_654
F9 U3 2.322947 1_555
F9 Na0 2.379448 1_555
F9 U1 2.410067 1_555
F10 U0 2.322947 1_555
F10 Na3 2.379448 1_555
F10 U2 2.410067 1_556
F11 U1 2.322947 1_555
F11 Na2 2.379448 1_455
F11 U3 2.410067 1_455
F12 U6 2.322947 1_555
F12 Na5 2.379448 1_455
F12 U4 2.410067 1_456
F13 U7 2.322947 1_555
F13 Na4 2.379448 1_555
F13 U5 2.410067 1_555
F14 U4 2.322947 1_555
F14 Na7 2.379448 1_555
F14 U6 2.410067 1_554
F15 U5 2.322947 1_555
F15 Na6 2.379448 1_655
F15 U7 2.410067 1_655
F16 U0 2.325071 1_554
F16 Na1 2.370262 1_555
F16 U2 2.391129 1_555
F17 U1 2.325071 1_555
F17 Na0 2.370262 1_555
F17 U3 2.391129 1_455
F18 U2 2.325071 1_556
F18 Na3 2.370262 1_555
F18 U0 2.391129 1_655
F19 U3 2.325071 1_555
F19 Na2 2.370262 1_555
F19 U1 2.391129 1_555
F20 U4 2.325071 1_556
F20 Na5 2.370262 1_555
F20 U6 2.391129 1_555
F21 U5 2.325071 1_555
F21 Na4 2.370262 1_555
F21 U7 2.391129 1_655
F22 U6 2.325071 1_554
F22 Na7 2.370262 1_555
F22 U4 2.391129 1_455
F23 U7 2.325071 1_555
F23 Na6 2.370262 1_555
F23 U5 2.391129 1_555
F24 U0 2.340608 1_655
F24 U4 2.374585 1_556
F24 Na3 2.604035 1_555
F25 U1 2.340608 1_545
F25 U5 2.374585 1_555
F25 Na2 2.604035 1_545
F26 U2 2.340608 1_545
F26 U6 2.374585 1_554
F26 Na1 2.604035 1_545
F27 U3 2.340608 1_455
F27 U7 2.374585 1_555
F27 Na0 2.604035 1_555
F28 U4 2.340608 1_455
F28 U0 2.374585 1_554
F28 Na7 2.604035 1_555
F29 U5 2.340608 1_565
F29 U1 2.374585 1_555
F29 Na6 2.604035 1_565
F30 U6 2.340608 1_565
F30 U2 2.374585 1_556
F30 Na5 2.604035 1_565
F31 U7 2.340608 1_655
F31 U3 2.374585 1_555
F31 Na4 2.604035 1_555
F32 U0 2.279402 1_555
F32 U6 2.347100 1_565
F33 U1 2.279402 1_555
F33 U7 2.347100 1_555
F34 U2 2.279402 1_555
F34 U4 2.347100 1_555
F35 U3 2.279402 1_555
F35 U5 2.347100 1_565
F36 U4 2.279402 1_555
F36 U2 2.347100 1_545
F37 U5 2.279402 1_555
F37 U3 2.347100 1_555
F38 U6 2.279402 1_555
F38 U0 2.347100 1_555
F39 U7 2.279402 1_555
F39 U1 2.347100 1_545
