# generated using pymatgen
data_Fe3(OF2)2
_symmetry_space_group_name_H-M   'P 1'
_cell_length_a   4.82827900
_cell_length_b   5.77194357
_cell_length_c   7.82556232
_cell_angle_alpha   84.56611367
_cell_angle_beta   89.61818211
_cell_angle_gamma   89.08402360
_symmetry_Int_Tables_number   1
_chemical_formula_structural   Fe3(OF2)2
_chemical_formula_sum   'Fe6 O4 F8'
_cell_volume   217.07640211
_cell_formula_units_Z   2
loop_
 _symmetry_equiv_pos_site_id
 _symmetry_equiv_pos_as_xyz
  1  'x, y, z'
loop_
 _atom_site_type_symbol
 _atom_site_label
 _atom_site_symmetry_multiplicity
 _atom_site_fract_x
 _atom_site_fract_y
 _atom_site_fract_z
 _atom_site_occupancy
  Fe  Fe0  1  0.56287600  0.82994100  0.65919300  1
  Fe  Fe1  1  0.49346500  0.50310300  0.00661700  1
  Fe  Fe2  1  0.48888500  0.16664600  0.33512000  1
  Fe  Fe3  1  0.95984300  0.33375600  0.68028200  1
  Fe  Fe4  1  0.00896000  0.66779600  0.33471500  1
  Fe  Fe5  1  0.99037800  0.99400300  0.98803000  1
  O  O0  1  0.80023700  0.04565200  0.76174700  1
  O  O1  1  0.69634800  0.53718900  0.77812000  1
  O  O2  1  0.67764600  0.88119400  0.42708600  1
  O  O3  1  0.31830700  0.45268200  0.22796600  1
  F  F0  1  0.79807300  0.36045600  0.44175600  1
  F  F1  1  0.79665200  0.69210000  0.09979400  1
  F  F2  1  0.69853500  0.20764300  0.10469200  1
  F  F3  1  0.28983900  0.13338500  0.56621900  1
  F  F4  1  0.31856100  0.79542800  0.89570000  1
  F  F5  1  0.20073800  0.97410300  0.22026100  1
  F  F6  1  0.19444700  0.61722800  0.57968600  1
  F  F7  1  0.20621100  0.30769500  0.89301500  1
loop_
_geom_bond_atom_site_label_1
_geom_bond_atom_site_label_2
_geom_bond_distance
_geom_bond_site_symmetry_2
Fe0 O2 1.893103 1_555
Fe0 O0 1.937737 1_565
Fe0 O1 1.952444 1_555
Fe1 O3 1.921781 1_555
Fe1 O1 2.027764 1_554
Fe2 O2 1.949196 1_545
Fe2 O3 1.952112 1_555
Fe3 O0 1.897162 1_555
Fe3 O1 1.921729 1_555
Fe4 O3 2.142634 1_555
Fe4 O2 2.165373 1_455
Fe5 O0 1.995077 1_565
F0 Fe3 2.019683 1_555
F0 Fe2 2.103130 1_555
F0 Fe4 2.156453 1_655
F1 Fe1 2.020037 1_555
F1 Fe4 2.102813 1_655
F1 Fe5 2.104508 1_554
F2 Fe1 2.045966 1_555
F2 Fe2 2.057861 1_555
F2 Fe5 2.116631 1_544
F3 Fe2 2.036676 1_555
F3 Fe3 2.188744 1_455
F3 Fe0 2.243325 1_545
F4 Fe1 2.000080 1_556
F4 Fe5 2.104779 1_455
F4 Fe0 2.182942 1_555
F5 Fe2 2.057639 1_565
F5 Fe5 2.080588 1_454
F5 Fe4 2.127621 1_555
F6 Fe3 2.093639 1_455
F6 Fe4 2.114436 1_555
F6 Fe0 2.299608 1_555
F7 Fe3 2.045060 1_455
F7 Fe1 2.059709 1_556
F7 Fe5 2.170755 1_445
