# generated using pymatgen
data_Na7(WO3)12
_symmetry_space_group_name_H-M   'P 1'
_cell_length_a   9.58073156
_cell_length_b   9.58073156
_cell_length_c   9.58004478
_cell_angle_alpha   80.40971582
_cell_angle_beta   80.40971582
_cell_angle_gamma   120.00315964
_symmetry_Int_Tables_number   1
_chemical_formula_structural   Na7(WO3)12
_chemical_formula_sum   'Na7 W12 O36'
_cell_volume   717.99933312
_cell_formula_units_Z   1
loop_
 _symmetry_equiv_pos_site_id
 _symmetry_equiv_pos_as_xyz
  1  'x, y, z'
loop_
 _atom_site_type_symbol
 _atom_site_label
 _atom_site_symmetry_multiplicity
 _atom_site_fract_x
 _atom_site_fract_y
 _atom_site_fract_z
 _atom_site_occupancy
  Na  Na0  1  0.41729200  0.08349500  0.74949500  1
  Na  Na1  1  0.74962200  0.74962200  0.74979800  1
  Na  Na2  1  0.25037800  0.25037800  0.25020200  1
  Na  Na3  1  0.08349500  0.41729200  0.74949500  1
  Na  Na4  1  0.58270800  0.91650500  0.25050500  1
  Na  Na5  1  0.00000000  0.00000000  0.00000000  1
  Na  Na6  1  0.91650500  0.58270800  0.25050500  1
  W  W0  1  0.70680700  0.04194900  0.87375400  1
  W  W1  1  0.12631300  0.12631300  0.62241600  1
  W  W2  1  0.04194900  0.70680700  0.87375400  1
  W  W3  1  0.45807300  0.79190500  0.62434900  1
  W  W4  1  0.54192700  0.20809500  0.37565100  1
  W  W5  1  0.95805100  0.29319300  0.12624600  1
  W  W6  1  0.87368700  0.87368700  0.37758400  1
  W  W7  1  0.37755800  0.37755800  0.87358700  1
  W  W8  1  0.29319300  0.95805100  0.12624600  1
  W  W9  1  0.79190500  0.45807300  0.62434900  1
  W  W10  1  0.62244200  0.62244200  0.12641300  1
  W  W11  1  0.20809500  0.54192700  0.37565100  1
  O  O0  1  0.24798100  0.24798100  0.75207800  1
  O  O1  1  0.74972700  0.24972200  0.75008200  1
  O  O2  1  0.08264500  0.91744500  0.75195100  1
  O  O3  1  0.91744500  0.08264500  0.75195100  1
  O  O4  1  0.33325600  0.16675100  0.49986500  1
  O  O5  1  0.00000000  0.00000000  0.50000000  1
  O  O6  1  0.58318700  0.91680300  0.74995800  1
  O  O7  1  0.75027800  0.25027300  0.24991800  1
  O  O8  1  0.83324900  0.66674400  0.50013500  1
  O  O9  1  0.08255500  0.91735500  0.24804900  1
  O  O10  1  0.24972200  0.74972700  0.75008200  1
  O  O11  1  0.41692100  0.58346500  0.74997300  1
  O  O12  1  0.50000000  0.00000000  0.50000000  1
  O  O13  1  0.66674400  0.83324900  0.50013500  1
  O  O14  1  0.91735500  0.08255500  0.24804900  1
  O  O15  1  0.33063600  0.16539500  0.99998400  1
  O  O16  1  0.58346500  0.41692100  0.74997300  1
  O  O17  1  0.91680300  0.58318700  0.74995800  1
  O  O18  1  0.41681300  0.08319700  0.25004200  1
  O  O19  1  0.83471500  0.16528500  0.00000000  1
  O  O20  1  0.75201900  0.75201900  0.24792200  1
  O  O21  1  0.33330500  0.66669500  0.50000000  1
  O  O22  1  0.50000000  0.00000000  0.00000000  1
  O  O23  1  0.41653500  0.58307900  0.25002700  1
  O  O24  1  0.83460500  0.66936400  0.00001600  1
  O  O25  1  0.00000000  0.50000000  0.50000000  1
  O  O26  1  0.16675100  0.33325600  0.49986500  1
  O  O27  1  0.25027300  0.75027800  0.24991800  1
  O  O28  1  0.66936400  0.83460500  0.00001600  1
  O  O29  1  0.58307900  0.41653500  0.25002700  1
  O  O30  1  0.50000000  0.50000000  0.00000000  1
  O  O31  1  0.16528500  0.83471500  0.00000000  1
  O  O32  1  0.66669500  0.33330500  0.50000000  1
  O  O33  1  0.08319700  0.41681300  0.25004200  1
  O  O34  1  0.00000000  0.50000000  0.00000000  1
  O  O35  1  0.16539500  0.33063600  0.99998400  1
loop_
_geom_bond_atom_site_label_1
_geom_bond_atom_site_label_2
_geom_bond_distance
_geom_bond_site_symmetry_2
Na0 O6 2.759575 1_545
Na0 O1 2.759806 1_555
Na0 O12 2.760558 1_555
Na0 O32 2.760823 1_555
Na0 O4 2.766192 1_555
Na0 O22 2.766766 1_556
Na0 O10 2.767625 1_545
Na0 O16 2.767728 1_555
Na0 O0 2.769748 1_555
Na0 O2 2.769877 1_545
Na0 O31 2.770891 1_546
Na0 O15 2.771027 1_555
Na1 O16 2.759902 1_555
Na1 O11 2.759902 1_555
Na1 O13 2.761082 1_555
Na1 O8 2.761082 1_555
Na1 O30 2.764821 1_556
Na1 O5 2.766768 1_665
Na1 O17 2.768112 1_555
Na1 O6 2.768112 1_555
Na1 O28 2.768129 1_556
Na1 O24 2.768129 1_556
Na1 O2 2.769122 1_655
Na1 O3 2.769122 1_565
Na2 O29 2.759902 1_555
Na2 O23 2.759902 1_555
Na2 O4 2.761082 1_555
Na2 O26 2.761082 1_555
Na2 O30 2.764821 1_555
Na2 O5 2.766768 1_555
Na2 O18 2.768112 1_555
Na2 O33 2.768112 1_555
Na2 O15 2.768129 1_554
Na2 O35 2.768129 1_554
Na2 O14 2.769122 1_455
Na2 O9 2.769122 1_545
Na3 O17 2.759575 1_455
Na3 O10 2.759806 1_555
Na3 O25 2.760558 1_555
Na3 O21 2.760823 1_555
Na3 O26 2.766192 1_555
Na3 O34 2.766766 1_556
Na3 O1 2.767625 1_455
Na3 O11 2.767728 1_555
Na3 O0 2.769748 1_555
Na3 O3 2.769877 1_455
Na3 O19 2.770891 1_456
Na3 O35 2.771027 1_555
Na4 O18 2.759575 1_565
Na4 O27 2.759806 1_555
Na4 O12 2.760558 1_565
Na4 O21 2.760823 1_555
Na4 O13 2.766192 1_555
Na4 O22 2.766766 1_565
Na4 O7 2.767625 1_565
Na4 O23 2.767728 1_555
Na4 O20 2.769748 1_555
Na4 O14 2.769877 1_565
Na4 O19 2.770891 1_565
Na4 O28 2.771027 1_555
Na5 O31 2.742835 1_545
Na5 O19 2.742835 1_455
Na5 O0 2.743128 1_554
Na5 O20 2.743128 1_445
Na5 O3 2.743186 1_454
Na5 O9 2.743186 1_545
Na5 O2 2.743186 1_544
Na5 O14 2.743186 1_455
Na5 O15 2.743207 1_554
Na5 O35 2.743207 1_554
Na5 O28 2.743207 1_445
Na5 O24 2.743207 1_445
Na6 O33 2.759575 1_655
Na6 O7 2.759806 1_555
Na6 O25 2.760558 1_655
Na6 O32 2.760823 1_555
Na6 O8 2.766192 1_555
Na6 O34 2.766766 1_655
Na6 O27 2.767625 1_655
Na6 O29 2.767728 1_555
Na6 O20 2.769748 1_555
Na6 O9 2.769877 1_655
Na6 O31 2.770891 1_655
Na6 O24 2.771027 1_555
O0 W7 1.964461 1_555
O0 W1 1.966357 1_555
O1 W0 1.941276 1_555
O1 W9 1.956720 1_555
O2 W2 1.965469 1_555
O2 W1 1.970207 1_565
O3 W0 1.965469 1_555
O3 W1 1.970207 1_655
O4 W1 1.940119 1_555
O4 W4 1.956551 1_555
O5 W1 1.945636 1_555
O5 W6 1.945636 1_445
O6 W0 1.941259 1_565
O6 W3 1.960272 1_555
O7 W5 1.941276 1_555
O7 W4 1.956720 1_555
O8 W6 1.940119 1_555
O8 W9 1.956551 1_555
O9 W8 1.965469 1_555
O9 W6 1.970207 1_455
O10 W2 1.941276 1_555
O10 W3 1.956720 1_555
O11 W7 1.940373 1_555
O11 W3 1.960999 1_555
O12 W4 1.950278 1_555
O12 W3 1.950278 1_545
O13 W6 1.940119 1_555
O13 W3 1.956551 1_555
O14 W5 1.965469 1_555
O14 W6 1.970207 1_545
O15 W8 1.969798 1_546
O15 W7 1.970975 1_555
O16 W7 1.940373 1_555
O16 W9 1.960999 1_555
O17 W2 1.941259 1_655
O17 W9 1.960272 1_555
O18 W8 1.941259 1_545
O18 W4 1.960272 1_555
O19 W0 1.970437 1_554
O19 W5 1.970437 1_555
O20 W10 1.964461 1_555
O20 W6 1.966357 1_555
O21 W11 1.950287 1_555
O21 W3 1.950287 1_555
O22 W0 1.947627 1_554
O22 W8 1.947627 1_545
O23 W10 1.940373 1_555
O23 W11 1.960999 1_555
O24 W2 1.969798 1_654
O24 W10 1.970975 1_555
O25 W11 1.950278 1_555
O25 W9 1.950278 1_455
O26 W1 1.940119 1_555
O26 W11 1.956551 1_555
O27 W8 1.941276 1_555
O27 W11 1.956720 1_555
O28 W0 1.969798 1_564
O28 W10 1.970975 1_555
O29 W10 1.940373 1_555
O29 W4 1.960999 1_555
O30 W7 1.946625 1_554
O30 W10 1.946625 1_555
O31 W2 1.970437 1_554
O31 W8 1.970437 1_555
O32 W4 1.950287 1_555
O32 W9 1.950287 1_555
O33 W5 1.941259 1_455
O33 W11 1.960272 1_555
O34 W2 1.947627 1_554
O34 W5 1.947627 1_455
O35 W5 1.969798 1_456
O35 W7 1.970975 1_555
