# generated using pymatgen
data_Li3Fe3OF7
_symmetry_space_group_name_H-M   'P 1'
_cell_length_a   6.18517726
_cell_length_b   6.18517726
_cell_length_c   10.74862704
_cell_angle_alpha   72.90544489
_cell_angle_beta   72.90544489
_cell_angle_gamma   58.84013761
_symmetry_Int_Tables_number   1
_chemical_formula_structural   Li3Fe3OF7
_chemical_formula_sum   'Li6 Fe6 O2 F14'
_cell_volume   331.23596755
_cell_formula_units_Z   2
loop_
 _symmetry_equiv_pos_site_id
 _symmetry_equiv_pos_as_xyz
  1  'x, y, z'
loop_
 _atom_site_type_symbol
 _atom_site_label
 _atom_site_symmetry_multiplicity
 _atom_site_fract_x
 _atom_site_fract_y
 _atom_site_fract_z
 _atom_site_occupancy
  Li  Li0  1  0.99234900  0.50476900  0.00029600  1
  Li  Li1  1  0.56331800  0.55670600  0.31024200  1
  Li  Li2  1  0.64350100  0.11587500  0.12937000  1
  Li  Li3  1  0.11587500  0.64350100  0.62937000  1
  Li  Li4  1  0.50476900  0.99234900  0.50029600  1
  Li  Li5  1  0.55670600  0.56331800  0.81024200  1
  Fe  Fe0  1  0.30343600  0.80918700  0.06714100  1
  Fe  Fe1  1  0.06027800  0.57553400  0.30571300  1
  Fe  Fe2  1  0.06026600  0.05390100  0.30809000  1
  Fe  Fe3  1  0.05390100  0.06026600  0.80809000  1
  Fe  Fe4  1  0.57553400  0.06027900  0.80571300  1
  Fe  Fe5  1  0.80918700  0.30343600  0.56714100  1
  O  O0  1  0.97333300  0.91153600  0.18904100  1
  O  O1  1  0.91153600  0.97333300  0.68904100  1
  F  F0  1  0.20530400  0.67982500  0.43054300  1
  F  F1  1  0.43650700  0.92026400  0.19845400  1
  F  F2  1  0.69734800  0.65336700  0.44212400  1
  F  F3  1  0.17900300  0.20603900  0.42494000  1
  F  F4  1  0.44953000  0.43889500  0.19428000  1
  F  F5  1  0.93119300  0.43163900  0.19662300  1
  F  F6  1  0.69925700  0.19784000  0.42814600  1
  F  F7  1  0.19784000  0.69925700  0.92814600  1
  F  F8  1  0.43163900  0.93119300  0.69662300  1
  F  F9  1  0.20603900  0.17900300  0.92494000  1
  F  F10  1  0.65336700  0.69734800  0.94212400  1
  F  F11  1  0.43889500  0.44953000  0.69428000  1
  F  F12  1  0.92026400  0.43650700  0.69845400  1
  F  F13  1  0.67982500  0.20530400  0.93054300  1
loop_
_geom_bond_atom_site_label_1
_geom_bond_atom_site_label_2
_geom_bond_distance
_geom_bond_site_symmetry_2
Li2 O0 1.948088 1_545
Li3 O1 1.948088 1_455
Fe0 O0 1.965593 1_455
Fe1 O0 1.971961 1_455
Fe2 O0 2.063686 1_445
Fe3 O1 2.063686 1_445
Fe4 O1 1.971960 1_545
Fe5 O1 1.965593 1_545
F0 Li3 2.018680 1_555
F0 Li1 2.075065 1_555
F0 Fe2 2.155536 1_565
F0 Fe1 2.199142 1_555
F1 Li2 2.042130 1_565
F1 Li1 2.062976 1_555
F1 Fe2 2.111221 1_565
F1 Fe0 2.231554 1_555
F2 Li4 1.988510 1_555
F2 Fe5 2.063008 1_555
F2 Li1 2.180861 1_555
F2 Fe1 2.186847 1_655
F3 Li4 2.009231 1_545
F3 Fe1 2.121145 1_555
F3 Fe2 2.225890 1_555
F3 Fe5 2.234088 1_455
F4 Li2 1.940295 1_555
F4 Li1 2.039684 1_555
F4 Fe0 2.161901 1_555
F4 Fe1 2.177036 1_555
F5 Li0 1.986817 1_555
F5 Li1 2.089836 1_555
F5 Fe2 2.125536 1_655
F5 Fe1 2.168824 1_655
F6 Li4 2.029342 1_545
F6 Li1 2.069110 1_555
F6 Fe2 2.089956 1_655
F6 Fe5 2.179765 1_555
F7 Li0 2.029342 1_456
F7 Li5 2.069110 1_555
F7 Fe3 2.089956 1_565
F7 Fe0 2.179765 1_556
F8 Li4 1.986817 1_555
F8 Li5 2.089836 1_555
F8 Fe3 2.125536 1_565
F8 Fe4 2.168829 1_565
F9 Li0 2.009231 1_456
F9 Fe4 2.121145 1_555
F9 Fe3 2.225890 1_555
F9 Fe0 2.234088 1_546
F10 Li0 1.988510 1_556
F10 Fe0 2.063008 1_556
F10 Li5 2.180861 1_555
F10 Fe4 2.186852 1_565
F11 Li3 1.940295 1_555
F11 Li5 2.039684 1_555
F11 Fe5 2.161901 1_555
F11 Fe4 2.177032 1_555
F12 Li3 2.042130 1_655
F12 Li5 2.062976 1_555
F12 Fe3 2.111221 1_655
F12 Fe5 2.231554 1_555
F13 Li2 2.018680 1_556
F13 Li5 2.075065 1_555
F13 Fe3 2.155536 1_655
F13 Fe4 2.199137 1_555
