# generated using pymatgen
data_HfCo3B2
_symmetry_space_group_name_H-M   'P 1'
_cell_length_a   4.76532455
_cell_length_b   4.76532536
_cell_length_c   3.00897377
_cell_angle_alpha   90.00000000
_cell_angle_beta   90.00000000
_cell_angle_gamma   120.00000779
_symmetry_Int_Tables_number   1
_chemical_formula_structural   HfCo3B2
_chemical_formula_sum   'Hf1 Co3 B2'
_cell_volume   59.17442437
_cell_formula_units_Z   1
loop_
 _symmetry_equiv_pos_site_id
 _symmetry_equiv_pos_as_xyz
  1  'x, y, z'
loop_
 _atom_site_type_symbol
 _atom_site_label
 _atom_site_symmetry_multiplicity
 _atom_site_fract_x
 _atom_site_fract_y
 _atom_site_fract_z
 _atom_site_occupancy
  Hf  Hf0  1  -0.00000000  -0.00000000  0.00000000  1
  Co  Co0  1  0.50000000  0.50000000  0.50000000  1
  Co  Co1  1  0.50000000  -0.00000000  0.50000000  1
  Co  Co2  1  -0.00000000  0.50000000  0.50000000  1
  B  B0  1  0.66666700  0.33333300  -0.00000000  1
  B  B1  1  0.33333300  0.66666700  0.00000000  1
loop_
_geom_bond_atom_site_label_1
_geom_bond_atom_site_label_2
_geom_bond_distance
_geom_bond_site_symmetry_2
Co0 Hf0 2.817900 1_666
Co0 Hf0 2.817900 1_555
Co0 Hf0 2.817900 1_556
Co0 Hf0 2.817900 1_665
Co1 Hf0 2.817900 1_555
Co1 Hf0 2.817900 1_556
Co1 Hf0 2.817900 1_656
Co1 Hf0 2.817900 1_655
Co2 Hf0 2.817900 1_555
Co2 Hf0 2.817900 1_556
Co2 Hf0 2.817900 1_565
Co2 Hf0 2.817900 1_566
B0 Co2 2.038587 1_654
B0 Co2 2.038587 1_655
B0 Co1 2.038587 1_555
B0 Co1 2.038587 1_554
B0 Co0 2.038590 1_554
B0 Co0 2.038590 1_555
B0 Hf0 2.751259 1_655
B0 Hf0 2.751263 1_555
B0 Hf0 2.751263 1_665
B1 Co2 2.038587 1_554
B1 Co2 2.038587 1_555
B1 Co1 2.038587 1_565
B1 Co1 2.038587 1_564
B1 Co0 2.038590 1_554
B1 Co0 2.038590 1_555
B1 Hf0 2.751259 1_565
B1 Hf0 2.751263 1_665
B1 Hf0 2.751263 1_555
