# generated using pymatgen
data_Tm2GeO5
_symmetry_space_group_name_H-M   'P 1'
_cell_length_a   8.09122161
_cell_length_b   8.09122161
_cell_length_c   10.24215960
_cell_angle_alpha   61.29074522
_cell_angle_beta   61.29074522
_cell_angle_gamma   49.06753379
_symmetry_Int_Tables_number   1
_chemical_formula_structural   Tm2GeO5
_chemical_formula_sum   'Tm8 Ge4 O20'
_cell_volume   430.19423052
_cell_formula_units_Z   4
loop_
 _symmetry_equiv_pos_site_id
 _symmetry_equiv_pos_as_xyz
  1  'x, y, z'
loop_
 _atom_site_type_symbol
 _atom_site_label
 _atom_site_symmetry_multiplicity
 _atom_site_fract_x
 _atom_site_fract_y
 _atom_site_fract_z
 _atom_site_occupancy
  Tm  Tm0  1  0.72375480  0.20679779  0.46457353  1
  Tm  Tm1  1  0.26711476  0.00536787  0.16285275  1
  Tm  Tm2  1  0.99463213  0.73288524  0.33714725  1
  Tm  Tm3  1  0.79320221  0.27624520  0.03542647  1
  Tm  Tm4  1  0.20679779  0.72375480  0.96457353  1
  Tm  Tm5  1  0.00536787  0.26711476  0.66285275  1
  Tm  Tm6  1  0.73288524  0.99463213  0.83714725  1
  Tm  Tm7  1  0.27624520  0.79320221  0.53542647  1
  Ge  Ge0  1  0.41023380  0.21818603  0.30952032  1
  Ge  Ge1  1  0.21818603  0.41023380  0.80952032  1
  Ge  Ge2  1  0.78181397  0.58976620  0.19047968  1
  Ge  Ge3  1  0.58976620  0.78181397  0.69047968  1
  O  O0  1  0.08229753  0.88252716  0.39860588  1
  O  O1  1  0.22050052  0.36945853  0.45048055  1
  O  O2  1  0.91796288  0.31427261  0.17638383  1
  O  O3  1  0.68572739  0.08203712  0.32361617  1
  O  O4  1  0.63054147  0.77949948  0.04951945  1
  O  O5  1  0.11747284  0.91770247  0.10139412  1
  O  O6  1  0.34974931  0.03874962  0.32478778  1
  O  O7  1  0.42129970  0.41358831  0.13305735  1
  O  O8  1  0.58641169  0.57870030  0.36694265  1
  O  O9  1  0.96125038  0.65025069  0.17521222  1
  O  O10  1  0.03874962  0.34974931  0.82478778  1
  O  O11  1  0.41358831  0.42129970  0.63305735  1
  O  O12  1  0.57870030  0.58641169  0.86694265  1
  O  O13  1  0.65025069  0.96125038  0.67521222  1
  O  O14  1  0.88252716  0.08229753  0.89860588  1
  O  O15  1  0.36945853  0.22050052  0.95048055  1
  O  O16  1  0.31427261  0.91796288  0.67638383  1
  O  O17  1  0.08203712  0.68572739  0.82361617  1
  O  O18  1  0.77949948  0.63054147  0.54951945  1
  O  O19  1  0.91770247  0.11747284  0.60139412  1
loop_
_geom_bond_atom_site_label_1
_geom_bond_atom_site_label_2
_geom_bond_distance
_geom_bond_site_symmetry_2
Ge0 O6 1.735296 1_555
Ge0 O1 1.745127 1_555
Ge0 O7 1.748997 1_555
Ge0 O3 1.772549 1_555
Ge1 O10 1.735296 1_555
Ge1 O15 1.745127 1_555
Ge1 O11 1.748997 1_555
Ge1 O17 1.772549 1_555
Ge2 O9 1.735296 1_555
Ge2 O4 1.745127 1_555
Ge2 O8 1.748997 1_555
Ge2 O2 1.772549 1_555
Ge3 O13 1.735296 1_555
Ge3 O18 1.745127 1_555
Ge3 O12 1.748997 1_555
Ge3 O16 1.772549 1_555
O0 Tm7 2.145285 1_555
O0 Tm2 2.156830 1_455
O0 Tm1 2.286339 1_565
O0 Tm0 2.367032 1_465
O1 Tm5 2.228837 1_555
O1 Tm2 2.247498 1_455
O2 Tm1 2.225221 1_655
O2 Tm3 2.330642 1_555
O2 Tm0 2.608900 1_555
O3 Tm2 2.225221 1_545
O3 Tm0 2.330642 1_555
O3 Tm3 2.608900 1_555
O4 Tm6 2.228837 1_554
O4 Tm1 2.247498 1_565
O5 Tm4 2.145285 1_554
O5 Tm1 2.156830 1_565
O5 Tm2 2.286339 1_455
O5 Tm3 2.367032 1_465
O6 Tm1 2.236794 1_555
O6 Tm7 2.270027 1_545
O7 Tm3 2.254947 1_555
O7 Tm4 2.301660 1_554
O8 Tm0 2.254947 1_555
O8 Tm7 2.301660 1_555
O9 Tm2 2.236794 1_555
O9 Tm4 2.270027 1_654
O10 Tm5 2.236794 1_555
O10 Tm3 2.270027 1_456
O11 Tm7 2.254947 1_555
O11 Tm0 2.301660 1_555
O12 Tm4 2.254947 1_555
O12 Tm3 2.301660 1_556
O13 Tm6 2.236794 1_555
O13 Tm0 2.270027 1_565
O14 Tm3 2.145285 1_556
O14 Tm6 2.156830 1_545
O14 Tm5 2.286339 1_655
O14 Tm4 2.367032 1_645
O15 Tm1 2.228837 1_556
O15 Tm6 2.247498 1_545
O16 Tm5 2.225221 1_565
O16 Tm7 2.330642 1_555
O16 Tm4 2.608900 1_555
O17 Tm6 2.225221 1_455
O17 Tm4 2.330642 1_555
O17 Tm7 2.608900 1_555
O18 Tm2 2.228837 1_555
O18 Tm5 2.247498 1_655
O19 Tm0 2.145285 1_555
O19 Tm5 2.156830 1_655
O19 Tm6 2.286339 1_545
O19 Tm7 2.367032 1_645
