# generated using pymatgen
data_Na13Ca7S12(ClO16)3
_symmetry_space_group_name_H-M   'P 1'
_cell_length_a   9.72334300
_cell_length_b   9.72914548
_cell_length_c   13.77041013
_cell_angle_alpha   89.93280700
_cell_angle_beta   89.90200504
_cell_angle_gamma   60.48466948
_symmetry_Int_Tables_number   1
_chemical_formula_structural   Na13Ca7S12(ClO16)3
_chemical_formula_sum   'Na13 Ca7 S12 Cl3 O48'
_cell_volume   1133.62006175
_cell_formula_units_Z   1
loop_
 _symmetry_equiv_pos_site_id
 _symmetry_equiv_pos_as_xyz
  1  'x, y, z'
loop_
 _atom_site_type_symbol
 _atom_site_label
 _atom_site_symmetry_multiplicity
 _atom_site_fract_x
 _atom_site_fract_y
 _atom_site_fract_z
 _atom_site_occupancy
  Na  Na0  1  0.27045400  0.73062300  0.87340000  1
  Na  Na1  1  0.73077000  0.99722900  0.87452500  1
  Na  Na2  1  0.74271700  0.99362700  0.37964600  1
  Na  Na3  1  0.66687500  0.66886400  0.99835700  1
  Na  Na4  1  0.66650200  0.67996400  0.49529000  1
  Na  Na5  1  0.66644300  0.67306700  0.25525000  1
  Na  Na6  1  0.00463100  0.73404900  0.62597300  1
  Na  Na7  1  0.99883300  0.26954100  0.87522200  1
  Na  Na8  1  0.32702900  0.33371800  0.74848600  1
  Na  Na9  1  0.33936200  0.32762800  0.24782100  1
  Na  Na10  1  0.33462200  0.32811900  0.50570100  1
  Na  Na11  1  0.33084500  0.33308900  0.99299800  1
  Na  Na12  1  0.25673800  0.00909900  0.62813100  1
  Ca  Ca0  1  0.25391500  0.74866100  0.38145500  1
  Ca  Ca1  1  0.66075000  0.67844400  0.75339400  1
  Ca  Ca2  1  0.99893600  0.74485000  0.12457100  1
  Ca  Ca3  1  0.99541900  0.25816000  0.37902200  1
  Ca  Ca4  1  0.25469400  0.99878400  0.12500100  1
  Ca  Ca5  1  0.73386700  0.25516300  0.62322600  1
  Ca  Ca6  1  0.74242800  0.25398300  0.12448100  1
  S  S0  1  0.63585500  0.96583700  0.62586700  1
  S  S1  1  0.63488500  0.96659800  0.12411600  1
  S  S2  1  0.40543900  0.62736200  0.62557300  1
  S  S3  1  0.39914100  0.63128300  0.12545500  1
  S  S4  1  0.02589600  0.60595800  0.87374400  1
  S  S5  1  0.03343200  0.59686900  0.37210200  1
  S  S6  1  0.96425700  0.39987400  0.62558100  1
  S  S7  1  0.96778800  0.39833500  0.12539400  1
  S  S8  1  0.60680300  0.36980600  0.87213200  1
  S  S9  1  0.60029000  0.37375500  0.37170200  1
  S  S10  1  0.36610800  0.02850700  0.87461400  1
  S  S11  1  0.36449700  0.03485500  0.37178500  1
  Cl  Cl0  1  0.00069100  0.00195600  0.55220000  1
  Cl  Cl1  1  0.00258500  0.99947000  0.28668100  1
  Cl  Cl2  1  0.99862800  0.00028400  0.03194700  1
  O  O0  1  0.36901800  0.71774900  0.53301600  1
  O  O1  1  0.36026100  0.73489500  0.03863500  1
  O  O2  1  0.34508500  0.73857200  0.70827000  1
  O  O3  1  0.34188100  0.73990200  0.21210300  1
  O  O4  1  0.48090800  0.85395700  0.87201700  1
  O  O5  1  0.45771800  0.85878700  0.37019300  1
  O  O6  1  0.53097500  0.89339100  0.63779200  1
  O  O7  1  0.52844000  0.89706100  0.13420100  1
  O  O8  1  0.74638700  0.91380100  0.71016700  1
  O  O9  1  0.74696200  0.91318000  0.20802200  1
  O  O10  1  0.72577800  0.90514300  0.53450600  1
  O  O11  1  0.73201500  0.90134800  0.03469600  1
  O  O12  1  0.57439400  0.53023900  0.13219900  1
  O  O13  1  0.58493800  0.53584700  0.63450000  1
  O  O14  1  0.85108600  0.66483400  0.87091900  1
  O  O15  1  0.85988900  0.66589700  0.37113000  1
  O  O16  1  0.66515400  0.48641100  0.86881800  1
  O  O17  1  0.67933600  0.47183200  0.37057400  1
  O  O18  1  0.88047500  0.57531300  0.63972000  1
  O  O19  1  0.89475900  0.57337300  0.13392300  1
  O  O20  1  0.06879400  0.65109100  0.96808100  1
  O  O21  1  0.09205000  0.64080600  0.28278200  1
  O  O22  1  0.07306100  0.67692700  0.79428800  1
  O  O23  1  0.08726600  0.65431600  0.45638600  1
  O  O24  1  0.90458300  0.36819700  0.53234300  1
  O  O25  1  0.90171900  0.36100800  0.03855100  1
  O  O26  1  0.91574000  0.32763800  0.70497400  1
  O  O27  1  0.91703400  0.33885600  0.21179600  1
  O  O28  1  0.11364600  0.43019400  0.86671200  1
  O  O29  1  0.11286900  0.42000300  0.37580800  1
  O  O30  1  0.34428200  0.51469700  0.62486000  1
  O  O31  1  0.32005100  0.53391000  0.12237600  1
  O  O32  1  0.13737300  0.33455400  0.62308000  1
  O  O33  1  0.14291700  0.32033100  0.12155800  1
  O  O34  1  0.43158600  0.45289800  0.86626400  1
  O  O35  1  0.42434200  0.47451200  0.37458300  1
  O  O36  1  0.27926800  0.07080900  0.96927300  1
  O  O37  1  0.24944100  0.08743300  0.45436200  1
  O  O38  1  0.24825300  0.07324900  0.79576500  1
  O  O39  1  0.26640300  0.09592300  0.28093700  1
  O  O40  1  0.45361300  0.11779300  0.86637800  1
  O  O41  1  0.46661800  0.10737900  0.37920000  1
  O  O42  1  0.53959600  0.14276100  0.62424800  1
  O  O43  1  0.54200300  0.14261700  0.12108800  1
  O  O44  1  0.67725000  0.25475800  0.79026100  1
  O  O45  1  0.64205200  0.27291900  0.28339600  1
  O  O46  1  0.65754700  0.27697900  0.96392100  1
  O  O47  1  0.65305600  0.26849900  0.45848200  1
loop_
_geom_bond_atom_site_label_1
_geom_bond_atom_site_label_2
_geom_bond_distance
_geom_bond_site_symmetry_2
Na0 O34 2.365202 1_555
Na0 O2 2.398429 1_555
Na0 O1 2.446275 1_556
Na0 O22 2.477893 1_555
Na0 O20 2.761744 1_555
Na0 O4 2.836690 1_555
Na1 O40 2.353085 1_565
Na1 O8 2.384534 1_555
Na1 O11 2.391493 1_556
Na1 O44 2.570111 1_565
Na1 O46 2.743291 1_565
Na1 O14 2.846361 1_555
Na2 O10 2.334508 1_555
Na2 O41 2.346177 1_565
Na2 O9 2.484312 1_555
Na2 O47 2.607043 1_565
Na2 O45 2.733806 1_565
Na2 O15 2.810618 1_555
Na3 O14 2.491894 1_555
Na3 O4 2.516798 1_555
Na3 O16 2.523898 1_555
Na3 O11 2.680102 1_556
Na3 O12 2.684762 1_556
Na3 O19 2.690642 1_556
Na3 O7 2.701257 1_556
Na3 O1 2.777878 1_556
Na3 O25 2.784448 1_556
Na4 O15 2.492727 1_555
Na4 O5 2.576911 1_555
Na4 O10 2.582905 1_555
Na4 O17 2.612251 1_555
Na4 O6 2.683930 1_555
Na4 O18 2.691288 1_555
Na4 O13 2.711811 1_555
Na4 O0 2.778379 1_555
Na4 O24 2.810971 1_555
Na5 O15 2.443325 1_555
Na5 O17 2.474339 1_555
Na5 O5 2.504303 1_555
Na5 O7 2.538926 1_555
Na5 O19 2.555377 1_555
Na5 O12 2.615226 1_555
Na6 O18 2.390353 1_455
Na6 O22 2.400317 1_555
Na6 O23 2.466697 1_555
Na6 O8 2.525009 1_455
Na6 O10 2.696036 1_455
Na6 O30 2.918369 1_555
Na7 O28 2.328394 1_655
Na7 O25 2.431361 1_556
Na7 O26 2.453936 1_555
Na7 O38 2.481579 1_655
Na7 O36 2.768112 1_655
Na7 O16 2.870836 1_555
Na8 O28 2.430930 1_555
Na8 O40 2.452504 1_555
Na8 O34 2.485962 1_555
Na8 O30 2.511890 1_555
Na8 O32 2.525663 1_555
Na8 O42 2.619585 1_555
Na9 O31 2.582398 1_555
Na9 O43 2.582429 1_555
Na9 O41 2.604197 1_555
Na9 O29 2.608475 1_555
Na9 O33 2.611867 1_555
Na9 O35 2.635566 1_555
Na9 O39 2.713898 1_555
Na9 O45 2.765185 1_555
Na9 O21 2.842247 1_555
Na10 O32 2.483197 1_555
Na10 O30 2.484330 1_555
Na10 O42 2.520324 1_555
Na10 O41 2.564994 1_555
Na10 O29 2.599590 1_555
Na10 O35 2.694895 1_555
Na10 O47 2.927519 1_555
Na10 O37 2.930199 1_555
Na10 O23 2.966030 1_555
Na11 O40 2.527930 1_555
Na11 O28 2.533698 1_555
Na11 O34 2.545243 1_555
Na11 O33 2.588501 1_556
Na11 O31 2.609204 1_556
Na11 O43 2.648880 1_556
Na11 O36 2.851868 1_555
Na11 O20 2.900906 1_555
Na11 O46 2.972683 1_555
Na12 O6 2.332033 1_545
Na12 O38 2.382643 1_555
Na12 O37 2.500943 1_555
Na12 O2 2.579114 1_545
Na12 O32 2.785086 1_555
Na12 O0 2.810146 1_545
Ca0 O0 2.318125 1_555
Ca0 O35 2.348231 1_555
Ca0 O23 2.447533 1_555
Ca0 O3 2.469637 1_555
Ca0 O21 2.657507 1_555
Ca0 O5 2.681327 1_555
Ca0 Cl1 2.785218 1_555
Ca1 O4 2.386755 1_555
Ca1 O14 2.414545 1_555
Ca1 O6 2.428718 1_555
Ca1 O18 2.429314 1_555
Ca1 O16 2.435813 1_555
Ca1 O13 2.483086 1_555
Ca1 O8 2.857404 1_555
Ca2 O20 2.307879 1_654
Ca2 O19 2.343099 1_555
Ca2 O21 2.385239 1_655
Ca2 O9 2.458977 1_555
Ca2 O11 2.588208 1_555
Ca2 O31 2.765440 1_655
Ca2 Cl2 2.790712 1_565
Ca3 O24 2.334742 1_555
Ca3 O29 2.357315 1_655
Ca3 O37 2.428641 1_655
Ca3 O27 2.431503 1_555
Ca3 O39 2.674555 1_655
Ca3 O17 2.736096 1_555
Ca3 Cl1 2.791167 1_645
Ca4 O36 2.303573 1_564
Ca4 O7 2.342135 1_555
Ca4 O39 2.372480 1_565
Ca4 O3 2.528575 1_555
Ca4 O1 2.542833 1_555
Ca4 O33 2.760422 1_565
Ca4 Cl2 2.795789 1_465
Ca5 O44 2.364636 1_555
Ca5 O13 2.383749 1_555
Ca5 O47 2.384472 1_555
Ca5 O26 2.475680 1_555
Ca5 O42 2.607594 1_555
Ca5 O24 2.705425 1_555
Ca5 Cl0 2.730551 1_655
Ca6 O46 2.332977 1_554
Ca6 O12 2.361757 1_555
Ca6 O45 2.364685 1_555
Ca6 O27 2.529926 1_555
Ca6 O25 2.542286 1_555
Ca6 O43 2.656108 1_555
Ca6 Cl2 2.803530 1_555
Cl0 Na12 2.734215 1_555
Cl0 Na6 2.779010 1_545
Cl1 Na2 2.856046 1_455
O0 S2 1.488380 1_555
O1 S3 1.487163 1_555
O2 S2 1.478797 1_555
O3 S3 1.507109 1_555
O4 S10 1.504478 1_565
O5 S11 1.492163 1_565
O6 S0 1.507018 1_555
O7 S1 1.495805 1_555
O8 S0 1.491882 1_555
O9 S1 1.495839 1_555
O10 S0 1.478243 1_555
O11 S1 1.489391 1_555
O12 S3 1.492835 1_555
O13 S2 1.524257 1_555
O14 S4 1.503189 1_655
O15 S5 1.477174 1_655
O16 S8 1.498332 1_555
O17 S9 1.491318 1_555
O18 S6 1.498376 1_555
O19 S7 1.492251 1_555
O20 S4 1.495997 1_555
O21 S5 1.502283 1_555
O22 S4 1.480783 1_555
O23 S5 1.491741 1_555
O24 S6 1.503258 1_555
O25 S7 1.485997 1_555
O26 S6 1.494931 1_555
O27 S7 1.507240 1_555
O28 S4 1.491334 1_555
O29 S5 1.500181 1_555
O30 S2 1.482398 1_555
O31 S3 1.486174 1_555
O32 S6 1.477930 1_455
O33 S7 1.484877 1_455
O34 S8 1.485225 1_555
O35 S9 1.495591 1_555
O36 S10 1.495504 1_555
O37 S11 1.496466 1_555
O38 S10 1.480960 1_555
O39 S11 1.507231 1_555
O40 S10 1.489658 1_555
O41 S11 1.478212 1_555
O42 S0 1.500672 1_545
O43 S1 1.492026 1_545
O44 S8 1.495983 1_555
O45 S9 1.488158 1_555
O46 S8 1.488995 1_555
O47 S9 1.490460 1_555
