# generated using pymatgen
data_Ti17(NO4)6
_symmetry_space_group_name_H-M   'P 1'
_cell_length_a   7.50209515
_cell_length_b   7.50209515
_cell_length_c   20.06791900
_cell_angle_alpha   90.00000000
_cell_angle_beta   90.00000000
_cell_angle_gamma   99.65938168
_symmetry_Int_Tables_number   1
_chemical_formula_structural   Ti17(NO4)6
_chemical_formula_sum   'Ti34 N12 O48'
_cell_volume   1113.43860632
_cell_formula_units_Z   2
loop_
 _symmetry_equiv_pos_site_id
 _symmetry_equiv_pos_as_xyz
  1  'x, y, z'
loop_
 _atom_site_type_symbol
 _atom_site_label
 _atom_site_symmetry_multiplicity
 _atom_site_fract_x
 _atom_site_fract_y
 _atom_site_fract_z
 _atom_site_occupancy
  Ti  Ti0  1  0.30591800  0.63937200  0.09648700  1
  Ti  Ti1  1  0.02120800  0.36221900  0.66359000  1
  Ti  Ti2  1  0.02120800  0.36221900  0.83641000  1
  Ti  Ti3  1  0.30519700  0.63911400  0.58778400  1
  Ti  Ti4  1  0.30591800  0.63937200  0.40351300  1
  Ti  Ti5  1  0.30519700  0.63911400  0.91221600  1
  Ti  Ti6  1  0.03170900  0.36548200  0.15874300  1
  Ti  Ti7  1  0.03170900  0.36548200  0.34125700  1
  Ti  Ti8  1  0.03224100  0.02753800  0.75000000  1
  Ti  Ti9  1  0.02753800  0.03224100  0.25000000  1
  Ti  Ti10  1  0.63741400  0.63741400  0.00000000  1
  Ti  Ti11  1  0.63741400  0.63741400  0.50000000  1
  Ti  Ti12  1  0.36548200  0.03170900  0.84125700  1
  Ti  Ti13  1  0.69869300  0.36077100  0.25000000  1
  Ti  Ti14  1  0.63911400  0.30519700  0.08778400  1
  Ti  Ti15  1  0.63937200  0.30591800  0.90351300  1
  Ti  Ti16  1  0.63911400  0.30519700  0.41221600  1
  Ti  Ti17  1  0.36221900  0.02120800  0.33641000  1
  Ti  Ti18  1  0.36221900  0.02120800  0.16359000  1
  Ti  Ti19  1  0.36548200  0.03170900  0.65874300  1
  Ti  Ti20  1  0.63937200  0.30591800  0.59648700  1
  Ti  Ti21  1  0.30376600  0.96778800  0.00051200  1
  Ti  Ti22  1  0.30376600  0.96778800  0.49948800  1
  Ti  Ti23  1  0.96778800  0.30376600  0.50051200  1
  Ti  Ti24  1  0.96778800  0.30376600  0.99948800  1
  Ti  Ti25  1  0.36077100  0.69869300  0.75000000  1
  Ti  Ti26  1  0.97234800  0.97241300  0.41107000  1
  Ti  Ti27  1  0.97241300  0.97234800  0.91107000  1
  Ti  Ti28  1  0.68742200  0.69446100  0.16348700  1
  Ti  Ti29  1  0.97234800  0.97241300  0.08893000  1
  Ti  Ti30  1  0.68742200  0.69446100  0.33651300  1
  Ti  Ti31  1  0.97241300  0.97234800  0.58893000  1
  Ti  Ti32  1  0.69446100  0.68742200  0.83651300  1
  Ti  Ti33  1  0.69446100  0.68742200  0.66348700  1
  N  N0  1  0.06386100  0.06386100  0.00000000  1
  N  N1  1  0.06386100  0.06386100  0.50000000  1
  N  N2  1  0.62579100  0.59980200  0.25000000  1
  N  N3  1  0.59980200  0.62579100  0.75000000  1
  N  N4  1  0.72838100  0.39814700  0.99951700  1
  N  N5  1  0.26631700  0.95929600  0.25000000  1
  N  N6  1  0.72838100  0.39814700  0.50048300  1
  N  N7  1  0.27035500  0.93708700  0.75000000  1
  N  N8  1  0.93708700  0.27035500  0.25000000  1
  N  N9  1  0.39814700  0.72838100  0.49951700  1
  N  N10  1  0.95929600  0.26631700  0.75000000  1
  N  N11  1  0.39814700  0.72838100  0.00048300  1
  O  O0  1  0.21057900  0.54293700  0.32038300  1
  O  O1  1  0.21361300  0.54804700  0.68429900  1
  O  O2  1  0.12160600  0.44886500  0.56518700  1
  O  O3  1  0.11608400  0.45057200  0.06400000  1
  O  O4  1  0.12160600  0.44886500  0.93481300  1
  O  O5  1  0.11608400  0.45057200  0.43600000  1
  O  O6  1  0.21057900  0.54293700  0.17961700  1
  O  O7  1  0.21361300  0.54804700  0.81570100  1
  O  O8  1  0.14024600  0.14295000  0.15620400  1
  O  O9  1  0.14024600  0.14295000  0.34379600  1
  O  O10  1  0.14295000  0.14024600  0.84379600  1
  O  O11  1  0.14295000  0.14024600  0.65620400  1
  O  O12  1  0.52209400  0.52240700  0.90633500  1
  O  O13  1  0.52240700  0.52209400  0.40633500  1
  O  O14  1  0.52209400  0.52240700  0.59366500  1
  O  O15  1  0.52240700  0.52209400  0.09366500  1
  O  O16  1  0.80973400  0.47371200  0.15616200  1
  O  O17  1  0.54293700  0.21057900  0.82038300  1
  O  O18  1  0.80973400  0.47371200  0.34383800  1
  O  O19  1  0.54804700  0.21361300  0.31570100  1
  O  O20  1  0.54804700  0.21361300  0.18429900  1
  O  O21  1  0.44886500  0.12160600  0.06518700  1
  O  O22  1  0.44886500  0.12160600  0.43481200  1
  O  O23  1  0.45057200  0.11608400  0.93600000  1
  O  O24  1  0.18405000  0.84979000  0.90929200  1
  O  O25  1  0.82310300  0.48994700  0.85026300  1
  O  O26  1  0.54293700  0.21057900  0.67961700  1
  O  O27  1  0.45057200  0.11608400  0.56400000  1
  O  O28  1  0.18818800  0.85395900  0.09396300  1
  O  O29  1  0.18818800  0.85395900  0.40603700  1
  O  O30  1  0.82310300  0.48994700  0.64973700  1
  O  O31  1  0.18405000  0.84979000  0.59070800  1
  O  O32  1  0.47371200  0.80973400  0.84383800  1
  O  O33  1  0.47371200  0.80973400  0.65616200  1
  O  O34  1  0.85395900  0.18818800  0.59396300  1
  O  O35  1  0.84979000  0.18405000  0.40929200  1
  O  O36  1  0.85395900  0.18818800  0.90603700  1
  O  O37  1  0.48994700  0.82310300  0.14973700  1
  O  O38  1  0.48994700  0.82310300  0.35026300  1
  O  O39  1  0.84979000  0.18405000  0.09070800  1
  O  O40  1  0.88161900  0.87997800  0.68415800  1
  O  O41  1  0.78247100  0.78933800  0.93510200  1
  O  O42  1  0.87997800  0.88161900  0.31584200  1
  O  O43  1  0.88161900  0.87997800  0.81584200  1
  O  O44  1  0.87997800  0.88161900  0.18415800  1
  O  O45  1  0.78247100  0.78933800  0.56489800  1
  O  O46  1  0.78933800  0.78247100  0.43510200  1
  O  O47  1  0.78933800  0.78247100  0.06489800  1
loop_
_geom_bond_atom_site_label_1
_geom_bond_atom_site_label_2
_geom_bond_distance
_geom_bond_site_symmetry_2
N0 Ti27 1.992206 1_444
N0 Ti29 1.992206 1_445
N0 Ti21 2.047961 1_545
N0 Ti24 2.047961 1_454
N1 Ti31 1.992206 1_445
N1 Ti26 1.992206 1_445
N1 Ti22 2.047961 1_545
N1 Ti23 2.047961 1_455
N2 Ti30 1.903171 1_555
N2 Ti28 1.903171 1_555
N2 Ti13 1.960593 1_555
N3 Ti33 1.903171 1_555
N3 Ti32 1.903171 1_555
N3 Ti25 1.960593 1_555
N4 Ti14 1.978801 1_556
N4 Ti10 2.024585 1_556
N4 Ti24 2.038115 1_555
N4 Ti15 2.116927 1_555
N5 Ti18 1.904788 1_565
N5 Ti17 1.904788 1_565
N5 Ti9 1.958915 1_565
N6 Ti16 1.978801 1_555
N6 Ti11 2.024585 1_555
N6 Ti23 2.038115 1_555
N6 Ti20 2.116927 1_555
N7 Ti8 2.014523 1_565
N7 Ti25 2.016377 1_555
N7 Ti19 2.048658 1_565
N7 Ti12 2.048658 1_565
N8 Ti9 2.014523 1_655
N8 Ti13 2.016377 1_555
N8 Ti7 2.048658 1_655
N8 Ti6 2.048658 1_655
N9 Ti3 1.978801 1_555
N9 Ti11 2.024585 1_555
N9 Ti22 2.038115 1_555
N9 Ti4 2.116927 1_555
N10 Ti2 1.904788 1_655
N10 Ti1 1.904788 1_655
N10 Ti8 1.958915 1_655
N11 Ti5 1.978801 1_554
N11 Ti10 2.024585 1_555
N11 Ti21 2.038115 1_555
N11 Ti0 2.116927 1_555
O0 Ti7 1.774539 1_555
O0 Ti4 1.909023 1_555
O1 Ti1 1.877354 1_555
O1 Ti25 1.953397 1_555
O1 Ti3 2.129015 1_555
O2 Ti3 1.865488 1_555
O2 Ti23 1.944104 1_455
O2 Ti1 2.173741 1_555
O3 Ti24 1.927580 1_454
O3 Ti0 1.944865 1_555
O3 Ti6 2.070626 1_555
O4 Ti5 1.865488 1_555
O4 Ti24 1.944104 1_455
O4 Ti2 2.173741 1_555
O5 Ti23 1.927580 1_455
O5 Ti4 1.944865 1_555
O5 Ti7 2.070626 1_555
O6 Ti6 1.774539 1_555
O6 Ti0 1.909023 1_555
O7 Ti2 1.877354 1_555
O7 Ti25 1.953397 1_555
O7 Ti5 2.129015 1_555
O8 Ti6 1.977086 1_555
O8 Ti18 2.034604 1_555
O8 Ti29 2.122553 1_445
O8 Ti9 2.170740 1_555
O9 Ti7 1.977086 1_555
O9 Ti17 2.034604 1_555
O9 Ti26 2.122553 1_445
O9 Ti9 2.170740 1_555
O10 Ti12 1.977086 1_555
O10 Ti2 2.034604 1_555
O10 Ti27 2.122553 1_445
O10 Ti8 2.170740 1_555
O11 Ti19 1.977086 1_555
O11 Ti1 2.034604 1_555
O11 Ti31 2.122553 1_445
O11 Ti8 2.170740 1_555
O12 Ti15 1.973476 1_555
O12 Ti5 1.976443 1_555
O12 Ti32 2.151927 1_555
O12 Ti10 2.185296 1_556
O13 Ti4 1.973476 1_555
O13 Ti16 1.976443 1_555
O13 Ti30 2.151927 1_555
O13 Ti11 2.185296 1_555
O14 Ti20 1.973476 1_555
O14 Ti3 1.976443 1_555
O14 Ti33 2.151927 1_555
O14 Ti11 2.185296 1_555
O15 Ti0 1.973476 1_555
O15 Ti14 1.976443 1_555
O15 Ti28 2.151927 1_555
O15 Ti10 2.185296 1_555
O16 Ti6 1.972016 1_655
O16 Ti28 2.028829 1_555
O16 Ti14 2.139291 1_555
O16 Ti13 2.172830 1_555
O17 Ti12 1.774539 1_555
O17 Ti15 1.909023 1_555
O18 Ti7 1.972016 1_655
O18 Ti30 2.028829 1_555
O18 Ti16 2.139291 1_555
O18 Ti13 2.172830 1_555
O19 Ti17 1.877354 1_555
O19 Ti13 1.953397 1_555
O19 Ti16 2.129015 1_555
O20 Ti18 1.877354 1_555
O20 Ti13 1.953397 1_555
O20 Ti14 2.129015 1_555
O21 Ti14 1.865488 1_555
O21 Ti21 1.944104 1_545
O21 Ti18 2.173741 1_555
O22 Ti16 1.865483 1_555
O22 Ti22 1.944117 1_545
O22 Ti17 2.173723 1_555
O23 Ti21 1.927580 1_546
O23 Ti15 1.944865 1_555
O23 Ti12 2.070626 1_555
O24 Ti5 1.951801 1_555
O24 Ti27 1.964024 1_455
O24 Ti21 2.162067 1_556
O24 Ti12 2.226202 1_565
O25 Ti32 1.918879 1_555
O25 Ti2 1.918903 1_655
O25 Ti15 2.075885 1_555
O26 Ti19 1.774539 1_555
O26 Ti20 1.909023 1_555
O27 Ti22 1.927580 1_545
O27 Ti20 1.944865 1_555
O27 Ti19 2.070626 1_555
O28 Ti0 1.962503 1_555
O28 Ti29 1.976049 1_455
O28 Ti18 2.163684 1_565
O28 Ti21 2.179354 1_555
O29 Ti4 1.962503 1_555
O29 Ti26 1.976049 1_455
O29 Ti17 2.163684 1_565
O29 Ti22 2.179354 1_555
O30 Ti33 1.918879 1_555
O30 Ti1 1.918903 1_655
O30 Ti20 2.075885 1_555
O31 Ti3 1.951801 1_555
O31 Ti31 1.964024 1_455
O31 Ti22 2.162067 1_555
O31 Ti19 2.226202 1_565
O32 Ti12 1.972016 1_565
O32 Ti32 2.028829 1_555
O32 Ti5 2.139291 1_555
O32 Ti25 2.172830 1_555
O33 Ti19 1.972016 1_565
O33 Ti33 2.028829 1_555
O33 Ti3 2.139291 1_555
O33 Ti25 2.172830 1_555
O34 Ti20 1.962503 1_555
O34 Ti31 1.976049 1_545
O34 Ti1 2.163684 1_655
O34 Ti23 2.179354 1_555
O35 Ti16 1.951801 1_555
O35 Ti26 1.964024 1_545
O35 Ti23 2.162067 1_555
O35 Ti7 2.226202 1_655
O36 Ti15 1.962503 1_555
O36 Ti27 1.976049 1_545
O36 Ti2 2.163684 1_655
O36 Ti24 2.179354 1_555
O37 Ti28 1.918879 1_555
O37 Ti18 1.918903 1_565
O37 Ti0 2.075885 1_555
O38 Ti30 1.918879 1_555
O38 Ti17 1.918903 1_565
O38 Ti4 2.075885 1_555
O39 Ti14 1.951801 1_555
O39 Ti29 1.964024 1_545
O39 Ti24 2.162067 1_554
O39 Ti6 2.226202 1_655
O40 Ti33 1.884051 1_555
O40 Ti8 1.956633 1_665
O40 Ti31 2.106607 1_555
O41 Ti27 1.868578 1_555
O41 Ti10 1.939900 1_556
O41 Ti32 2.183000 1_555
O42 Ti30 1.884051 1_555
O42 Ti9 1.956633 1_665
O42 Ti26 2.106607 1_555
O43 Ti32 1.884051 1_555
O43 Ti8 1.956633 1_665
O43 Ti27 2.106607 1_555
O44 Ti28 1.884051 1_555
O44 Ti9 1.956633 1_665
O44 Ti29 2.106607 1_555
O45 Ti31 1.868578 1_555
O45 Ti11 1.939900 1_555
O45 Ti33 2.183000 1_555
O46 Ti26 1.868578 1_555
O46 Ti11 1.939900 1_555
O46 Ti30 2.183000 1_555
O47 Ti29 1.868578 1_555
O47 Ti10 1.939900 1_555
O47 Ti28 2.183000 1_555
