# generated using pymatgen
data_Li2Mn(SiO3)2
_symmetry_space_group_name_H-M   'P 1'
_cell_length_a   7.17997193
_cell_length_b   7.17997193
_cell_length_c   5.41005102
_cell_angle_alpha   71.69310473
_cell_angle_beta   71.69310473
_cell_angle_gamma   84.67224379
_symmetry_Int_Tables_number   1
_chemical_formula_structural   Li2Mn(SiO3)2
_chemical_formula_sum   'Li4 Mn2 Si4 O12'
_cell_volume   251.37669789
_cell_formula_units_Z   2
loop_
 _symmetry_equiv_pos_site_id
 _symmetry_equiv_pos_as_xyz
  1  'x, y, z'
loop_
 _atom_site_type_symbol
 _atom_site_label
 _atom_site_symmetry_multiplicity
 _atom_site_fract_x
 _atom_site_fract_y
 _atom_site_fract_z
 _atom_site_occupancy
  Li  Li0  1  0.84548800  0.48548500  0.10985400  1
  Li  Li1  1  0.80425000  0.19575000  0.00000000  1
  Li  Li2  1  0.51451500  0.15451200  0.89014600  1
  Li  Li3  1  0.21222300  0.78777700  0.50000000  1
  Mn  Mn0  1  0.89622000  0.10378000  0.50000000  1
  Mn  Mn1  1  0.13030000  0.86970000  0.00000000  1
  Si  Si0  1  0.79209400  0.61807200  0.55187200  1
  Si  Si1  1  0.61165100  0.79170300  0.05134400  1
  Si  Si2  1  0.38192800  0.20790600  0.44812800  1
  Si  Si3  1  0.20829700  0.38834900  0.94865600  1
  O  O0  1  0.96214700  0.78947300  0.41081800  1
  O  O1  1  0.85030700  0.38831200  0.61610200  1
  O  O2  1  0.76063600  0.97872100  0.90930300  1
  O  O3  1  0.66158100  0.65163000  0.33149200  1
  O  O4  1  0.61168800  0.14969300  0.38389800  1
  O  O5  1  0.66448000  0.64474200  0.85511100  1
  O  O6  1  0.34837000  0.33841900  0.66850800  1
  O  O7  1  0.38938400  0.87197300  0.10811300  1
  O  O8  1  0.35525800  0.33552000  0.14488900  1
  O  O9  1  0.21052700  0.03785300  0.58918200  1
  O  O10  1  0.12802700  0.61061600  0.89188700  1
  O  O11  1  0.02127900  0.23936400  0.09069700  1
loop_
_geom_bond_atom_site_label_1
_geom_bond_atom_site_label_2
_geom_bond_distance
_geom_bond_site_symmetry_2
Li0 O3 2.053246 1_555
Li0 O11 2.084535 1_655
Li0 O10 2.117344 1_654
Li0 O5 2.180629 1_554
Li1 O11 1.853236 1_655
Li1 O2 1.853236 1_544
Li1 O1 2.045477 1_554
Li1 O4 2.045477 1_555
Li2 O6 2.053246 1_555
Li2 O2 2.084535 1_545
Li2 O7 2.117344 1_546
Li2 O8 2.180629 1_556
Li3 O9 1.998342 1_565
Li3 O0 1.998342 1_455
Li3 O10 2.030237 1_555
Li3 O7 2.030237 1_555
Mn0 O11 2.053370 1_655
Mn0 O2 2.053370 1_545
Mn0 O4 2.286428 1_555
Mn0 O1 2.286428 1_555
Mn0 O9 2.427298 1_655
Mn0 O0 2.427298 1_545
Mn1 O9 2.090057 1_564
Mn1 O0 2.090057 1_455
Mn1 O7 2.120831 1_555
Mn1 O10 2.120831 1_554
O0 Si0 1.640539 1_555
O1 Si0 1.618621 1_555
O2 Si1 1.624799 1_556
O3 Si1 1.659483 1_555
O3 Si0 1.684383 1_555
O4 Si2 1.618621 1_555
O5 Si1 1.661554 1_556
O5 Si0 1.669741 1_555
O6 Si3 1.659483 1_555
O6 Si2 1.684383 1_555
O7 Si1 1.614243 1_555
O8 Si3 1.661554 1_554
O8 Si2 1.669741 1_555
O9 Si2 1.640539 1_555
O10 Si3 1.614243 1_555
O11 Si3 1.624799 1_554
