# generated using pymatgen
data_Na5LiMn2P2(CO7)2
_symmetry_space_group_name_H-M   'P 1'
_cell_length_a   5.21148531
_cell_length_b   11.33871436
_cell_length_c   11.17905182
_cell_angle_alpha   105.78305794
_cell_angle_beta   90.24171495
_cell_angle_gamma   90.00484850
_symmetry_Int_Tables_number   1
_chemical_formula_structural   Na5LiMn2P2(CO7)2
_chemical_formula_sum   'Na10 Li2 Mn4 P4 C4 O28'
_cell_volume   635.67608549
_cell_formula_units_Z   2
loop_
 _symmetry_equiv_pos_site_id
 _symmetry_equiv_pos_as_xyz
  1  'x, y, z'
loop_
 _atom_site_type_symbol
 _atom_site_label
 _atom_site_symmetry_multiplicity
 _atom_site_fract_x
 _atom_site_fract_y
 _atom_site_fract_z
 _atom_site_occupancy
  Na  Na0  1  0.75458000  0.15915900  0.07558600  1
  Na  Na1  1  0.75459600  0.65921200  0.57569200  1
  Na  Na2  1  0.25135700  0.37879500  0.12350500  1
  Na  Na3  1  0.25132400  0.87881700  0.62357400  1
  Na  Na4  1  0.75406400  0.62199400  0.88177400  1
  Na  Na5  1  0.75411600  0.12194000  0.38167600  1
  Na  Na6  1  0.75186100  0.86899700  0.12793200  1
  Na  Na7  1  0.75182200  0.36907400  0.62793900  1
  Na  Na8  1  0.24277100  0.83910000  0.92082100  1
  Na  Na9  1  0.24278300  0.33909500  0.42079200  1
  Li  Li0  1  0.21246800  0.15895500  0.87225200  1
  Li  Li1  1  0.21250500  0.65897400  0.37223100  1
  Mn  Mn0  1  0.77902300  0.05537900  0.69921000  1
  Mn  Mn1  1  0.22394200  0.94416700  0.30541400  1
  Mn  Mn2  1  0.77919700  0.55523900  0.19948400  1
  Mn  Mn3  1  0.22374900  0.44432600  0.80525400  1
  P  P0  1  0.70827300  0.32909400  0.91865200  1
  P  P1  1  0.70855300  0.82889200  0.41870200  1
  P  P2  1  0.30015000  0.66893900  0.08677600  1
  P  P3  1  0.30007900  0.16895900  0.58669500  1
  C  C0  1  0.73437600  0.40350800  0.34486000  1
  C  C1  1  0.73436900  0.90357400  0.84481300  1
  C  C2  1  0.26135500  0.59248900  0.64659800  1
  C  C3  1  0.26133000  0.09249200  0.14662900  1
  O  O0  1  0.27915200  0.15898900  0.06910500  1
  O  O1  1  0.27917900  0.65899400  0.56911700  1
  O  O2  1  0.96124200  0.43142700  0.31255200  1
  O  O3  1  0.96121000  0.93146300  0.81255000  1
  O  O4  1  0.53292800  0.45070100  0.30607800  1
  O  O5  1  0.53286100  0.95070900  0.80601700  1
  O  O6  1  0.82137600  0.19720600  0.87573000  1
  O  O7  1  0.82171800  0.69693200  0.37618700  1
  O  O8  1  0.77404300  0.37802900  0.05907500  1
  O  O9  1  0.77404800  0.87805700  0.55911000  1
  O  O10  1  0.40874200  0.32417800  0.90131100  1
  O  O11  1  0.40904900  0.82393500  0.40125100  1
  O  O12  1  0.18258100  0.59519100  0.17216300  1
  O  O13  1  0.18276500  0.09516800  0.67206900  1
  O  O14  1  0.82055100  0.41180000  0.84148600  1
  O  O15  1  0.82099000  0.91148100  0.34151100  1
  O  O16  1  0.59900700  0.66173000  0.09440100  1
  O  O17  1  0.59897500  0.16181300  0.59430500  1
  O  O18  1  0.21493000  0.61738700  0.94869100  1
  O  O19  1  0.21481400  0.11735800  0.44863800  1
  O  O20  1  0.21686100  0.80616500  0.12716300  1
  O  O21  1  0.21648600  0.30613200  0.62707600  1
  O  O22  1  0.46730200  0.55476700  0.69239500  1
  O  O23  1  0.46731700  0.05484400  0.19243000  1
  O  O24  1  0.03789700  0.56161300  0.68091700  1
  O  O25  1  0.03789900  0.06161400  0.18091500  1
  O  O26  1  0.70871000  0.83058500  0.91543900  1
  O  O27  1  0.70872500  0.33056400  0.41544900  1
loop_
_geom_bond_atom_site_label_1
_geom_bond_atom_site_label_2
_geom_bond_distance
_geom_bond_site_symmetry_2
Na0 O25 2.341778 1_655
Na0 O6 2.414498 1_554
Na0 O0 2.478425 1_555
Na0 O23 2.490591 1_555
Na0 O8 2.540180 1_555
Na0 O0 2.735052 1_655
Na1 O24 2.341361 1_655
Na1 O7 2.409332 1_555
Na1 O1 2.478390 1_555
Na1 O22 2.490566 1_555
Na1 O9 2.540164 1_555
Na1 O1 2.735138 1_655
Na2 O12 2.391758 1_555
Na2 O0 2.403903 1_555
Na2 O4 2.460277 1_555
Na2 O10 2.531124 1_554
Na2 O2 2.539570 1_455
Na2 O8 2.586129 1_455
Na2 O8 2.819934 1_555
Na3 O13 2.391190 1_565
Na3 O1 2.404091 1_555
Na3 O5 2.459085 1_555
Na3 O11 2.532961 1_555
Na3 O3 2.538957 1_455
Na3 O9 2.586048 1_455
Na3 O9 2.820229 1_555
Na4 O26 2.303929 1_555
Na4 O14 2.328239 1_555
Na4 O16 2.437139 1_556
Na4 O18 2.517356 1_655
Na4 O22 2.528181 1_555
Na4 O24 2.624966 1_655
Na4 O18 2.914731 1_555
Na5 O27 2.304177 1_555
Na5 O15 2.331576 1_545
Na5 O17 2.437182 1_555
Na5 O19 2.516643 1_655
Na5 O23 2.527066 1_555
Na5 O25 2.623956 1_655
Na5 O19 2.915684 1_555
Na6 O26 2.305598 1_554
Na6 O15 2.330143 1_555
Na6 O16 2.411676 1_555
Na6 O23 2.518421 1_565
Na6 O20 2.525342 1_655
Na6 O25 2.575117 1_665
Na6 O20 2.877067 1_555
Na7 O27 2.305437 1_555
Na7 O14 2.329289 1_555
Na7 O17 2.411473 1_555
Na7 O22 2.516994 1_555
Na7 O21 2.523940 1_655
Na7 O24 2.574534 1_655
Na7 O21 2.879000 1_555
Na8 O3 2.321580 1_455
Na8 O26 2.430509 1_555
Na8 O20 2.439224 1_556
Na8 O5 2.536478 1_555
Na8 O18 2.620003 1_555
Na8 O26 2.784746 1_455
Na9 O2 2.321083 1_455
Na9 O27 2.430523 1_555
Na9 O21 2.438835 1_555
Na9 O4 2.535979 1_555
Na9 O19 2.620208 1_555
Na9 O27 2.784732 1_455
Li0 O10 2.080218 1_555
Li0 O6 2.082164 1_455
Li0 O13 2.161399 1_555
Li0 O0 2.226349 1_556
Li1 O11 2.078401 1_555
Li1 O7 2.079762 1_455
Li1 O12 2.160261 1_555
Li1 O1 2.226748 1_555
Mn0 O17 2.114945 1_555
Mn0 O9 2.186954 1_545
Mn0 O6 2.190619 1_555
Mn0 O13 2.191463 1_655
Mn0 O5 2.294228 1_545
Mn0 O3 2.332280 1_545
Mn1 O19 2.170811 1_565
Mn1 O11 2.173247 1_555
Mn1 O20 2.173426 1_555
Mn1 O15 2.190543 1_455
Mn1 O25 2.376469 1_565
Mn1 O23 2.377891 1_565
Mn2 O16 2.117147 1_555
Mn2 O8 2.187655 1_555
Mn2 O12 2.190522 1_655
Mn2 O7 2.191396 1_555
Mn2 O4 2.291976 1_555
Mn2 O2 2.328951 1_555
Mn3 O18 2.170906 1_555
Mn3 O21 2.173876 1_555
Mn3 O10 2.173888 1_555
Mn3 O14 2.191730 1_455
Mn3 O24 2.373426 1_555
Mn3 O22 2.375645 1_555
C0 O27 1.296371 1_555
C0 O2 1.301634 1_555
C0 O4 1.303430 1_555
C1 O26 1.297109 1_555
C1 O3 1.301232 1_555
C1 O5 1.303422 1_555
C2 O1 1.297492 1_555
C2 O24 1.304874 1_555
C2 O22 1.308269 1_555
C3 O0 1.297820 1_555
C3 O25 1.304619 1_555
C3 O23 1.308098 1_555
O6 P0 1.557627 1_555
O7 P1 1.558252 1_555
O8 P0 1.552809 1_554
O9 P1 1.552563 1_555
O10 P0 1.571294 1_555
O11 P1 1.571291 1_555
O12 P2 1.557201 1_555
O13 P3 1.556908 1_555
O14 P0 1.552483 1_555
O15 P1 1.551998 1_555
O16 P2 1.562821 1_555
O17 P3 1.562965 1_555
O18 P2 1.557281 1_556
O19 P3 1.557128 1_555
O20 P2 1.559774 1_555
O21 P3 1.559664 1_555
