# generated using pymatgen
data_Co2OF3
_symmetry_space_group_name_H-M   'P 1'
_cell_length_a   4.67680914
_cell_length_b   4.67680914
_cell_length_c   15.90124200
_cell_angle_alpha   90.00000000
_cell_angle_beta   90.00000000
_cell_angle_gamma   93.40981506
_symmetry_Int_Tables_number   1
_chemical_formula_structural   Co2OF3
_chemical_formula_sum   'Co10 O5 F15'
_cell_volume   347.18488398
_cell_formula_units_Z   5
loop_
 _symmetry_equiv_pos_site_id
 _symmetry_equiv_pos_as_xyz
  1  'x, y, z'
loop_
 _atom_site_type_symbol
 _atom_site_label
 _atom_site_symmetry_multiplicity
 _atom_site_fract_x
 _atom_site_fract_y
 _atom_site_fract_z
 _atom_site_occupancy
  Co  Co0  1  0.97598300  0.97598300  0.89984500  1
  Co  Co1  1  0.97598300  0.97598300  0.10015500  1
  Co  Co2  1  0.02457600  0.02457600  0.29986700  1
  Co  Co3  1  0.01768800  0.01768800  0.50000000  1
  Co  Co4  1  0.02457600  0.02457600  0.70013300  1
  Co  Co5  1  0.52006500  0.52006500  0.00000000  1
  Co  Co6  1  0.48069700  0.48069700  0.39989100  1
  Co  Co7  1  0.50006800  0.50006800  0.20001100  1
  Co  Co8  1  0.50006800  0.50006800  0.79998900  1
  Co  Co9  1  0.48069700  0.48069700  0.60010900  1
  O  O0  1  0.29649400  0.29649400  0.50000000  1
  O  O1  1  0.30213100  0.30213100  0.70215000  1
  O  O2  1  0.30213100  0.30213100  0.29785000  1
  O  O3  1  0.69826600  0.69826600  0.89788100  1
  O  O4  1  0.69826600  0.69826600  0.10211900  1
  F  F0  1  0.80600600  0.19514100  0.00000000  1
  F  F1  1  0.80363500  0.19296400  0.39981500  1
  F  F2  1  0.80606400  0.19438200  0.20004600  1
  F  F3  1  0.80363500  0.19296400  0.60018500  1
  F  F4  1  0.80606400  0.19438200  0.79995400  1
  F  F5  1  0.28896900  0.28896900  0.90162300  1
  F  F6  1  0.28896900  0.28896900  0.09837700  1
  F  F7  1  0.71134900  0.71134900  0.30170300  1
  F  F8  1  0.70643300  0.70643300  0.50000000  1
  F  F9  1  0.71134900  0.71134900  0.69829700  1
  F  F10  1  0.19514100  0.80600600  0.00000000  1
  F  F11  1  0.19296400  0.80363500  0.39981500  1
  F  F12  1  0.19438200  0.80606400  0.20004600  1
  F  F13  1  0.19438200  0.80606400  0.79995400  1
  F  F14  1  0.19296400  0.80363500  0.60018500  1
loop_
_geom_bond_atom_site_label_1
_geom_bond_atom_site_label_2
_geom_bond_distance
_geom_bond_site_symmetry_2
Co0 O3 1.781634 1_555
Co0 F5 2.007785 1_665
Co0 F13 2.072278 1_655
Co0 F4 2.072278 1_565
Co0 F0 2.077439 1_566
Co0 F10 2.077439 1_656
Co1 O4 1.781634 1_555
Co1 F6 2.007785 1_665
Co1 F12 2.072278 1_655
Co1 F2 2.072278 1_565
Co1 F0 2.077439 1_565
Co1 F10 2.077439 1_655
Co2 O2 1.780610 1_555
Co2 F7 2.009344 1_445
Co2 F12 2.071479 1_545
Co2 F2 2.071479 1_455
Co2 F11 2.076188 1_545
Co2 F1 2.076188 1_455
Co3 O0 1.788345 1_555
Co3 F8 1.996483 1_445
Co3 F3 2.075960 1_455
Co3 F14 2.075960 1_545
Co3 F1 2.075960 1_455
Co3 F11 2.075960 1_545
Co4 O1 1.780610 1_555
Co4 F9 2.009344 1_445
Co4 F13 2.071479 1_545
Co4 F4 2.071479 1_455
Co4 F3 2.076188 1_455
Co4 F14 2.076188 1_545
Co5 O3 1.985778 1_554
Co5 O4 1.985778 1_555
Co5 F10 2.083096 1_555
Co5 F0 2.083096 1_555
Co5 F6 2.155077 1_555
Co5 F5 2.155077 1_554
Co6 O0 1.982431 1_555
Co6 O2 1.986114 1_555
Co6 F1 2.081745 1_555
Co6 F11 2.081745 1_555
Co6 F7 2.150936 1_555
Co6 F8 2.151868 1_555
Co7 O2 2.008071 1_555
Co7 O4 2.009782 1_555
Co7 F2 2.082122 1_555
Co7 F12 2.082122 1_555
Co7 F6 2.108378 1_555
Co7 F7 2.109835 1_555
Co8 O1 2.008071 1_555
Co8 O3 2.009782 1_555
Co8 F13 2.082122 1_555
Co8 F4 2.082122 1_555
Co8 F5 2.108378 1_555
Co8 F9 2.109835 1_555
Co9 O0 1.982431 1_555
Co9 O1 1.986114 1_555
Co9 F14 2.081745 1_555
Co9 F3 2.081745 1_555
Co9 F9 2.150936 1_555
Co9 F8 2.151868 1_555
