# generated using pymatgen
data_Li7Fe8(BO3)8
_symmetry_space_group_name_H-M   'P 1'
_cell_length_a   5.22932700
_cell_length_b   9.06649655
_cell_length_c   11.47295476
_cell_angle_alpha   113.00665268
_cell_angle_beta   101.97874935
_cell_angle_gamma   89.64142257
_symmetry_Int_Tables_number   1
_chemical_formula_structural   Li7Fe8(BO3)8
_chemical_formula_sum   'Li7 Fe8 B8 O24'
_cell_volume   488.08752167
_cell_formula_units_Z   1
loop_
 _symmetry_equiv_pos_site_id
 _symmetry_equiv_pos_as_xyz
  1  'x, y, z'
loop_
 _atom_site_type_symbol
 _atom_site_label
 _atom_site_symmetry_multiplicity
 _atom_site_fract_x
 _atom_site_fract_y
 _atom_site_fract_z
 _atom_site_occupancy
  Li  Li0  1  0.16912700  0.84643500  0.66485400  1
  Li  Li1  1  0.35179400  0.71106100  0.40874500  1
  Li  Li2  1  0.61496100  0.95102500  0.91307100  1
  Li  Li3  1  0.91869200  0.57648200  0.16916200  1
  Li  Li4  1  0.11457700  0.44806400  0.90923300  1
  Li  Li5  1  0.67046300  0.33259000  0.66265600  1
  Li  Li6  1  0.42698700  0.07399300  0.17007100  1
  Fe  Fe0  1  0.40674900  0.72335900  0.13029000  1
  Fe  Fe1  1  0.10557800  0.77927900  0.88677700  1
  Fe  Fe2  1  0.84102000  0.87517400  0.37965900  1
  Fe  Fe3  1  0.65569000  0.64749800  0.62774700  1
  Fe  Fe4  1  0.34743000  0.34832900  0.37879200  1
  Fe  Fe5  1  0.14637700  0.15561600  0.62658600  1
  Fe  Fe6  1  0.90210600  0.22935800  0.13758900  1
  Fe  Fe7  1  0.59381600  0.27181800  0.88151800  1
  B  B0  1  0.65379000  0.97999200  0.63175400  1
  B  B1  1  0.89729900  0.89398100  0.12303900  1
  B  B2  1  0.14800200  0.48941400  0.63247000  1
  B  B3  1  0.39837700  0.39429500  0.12608800  1
  B  B4  1  0.85681100  0.52970600  0.38128200  1
  B  B5  1  0.59922800  0.60033600  0.86974100  1
  B  B6  1  0.34689600  0.01519500  0.37539500  1
  B  B7  1  0.09853600  0.10432500  0.87679900  1
  O  O0  1  0.14568100  0.88502700  0.09313600  1
  O  O1  1  0.44390300  0.86082800  0.34042200  1
  O  O2  1  0.23562600  0.96799200  0.86016200  1
  O  O3  1  0.50942600  0.84296700  0.62263900  1
  O  O4  1  0.89724600  0.96099200  0.60185300  1
  O  O5  1  0.80434500  0.78076500  0.16075000  1
  O  O6  1  0.24289400  0.51552400  0.11449500  1
  O  O7  1  0.04072900  0.63925200  0.65930700  1
  O  O8  1  0.69300000  0.71646800  0.82995900  1
  O  O9  1  0.62322400  0.55094000  0.43111400  1
  O  O10  1  0.97338500  0.65489400  0.36641700  1
  O  O11  1  0.36591000  0.62101600  0.91243200  1
  O  O12  1  0.64605200  0.38856000  0.09668800  1
  O  O13  1  0.39595600  0.47308200  0.60040200  1
  O  O14  1  0.30786300  0.28077800  0.16430400  1
  O  O15  1  0.96034200  0.38292200  0.34602600  1
  O  O16  1  0.73774000  0.46881400  0.86132900  1
  O  O17  1  0.20010200  0.22602000  0.84927500  1
  O  O18  1  0.12814900  0.03946500  0.42803900  1
  O  O19  1  0.46968900  0.13280100  0.35617000  1
  O  O20  1  0.01662700  0.36687000  0.64090500  1
  O  O21  1  0.74233800  0.01222900  0.10778300  1
  O  O22  1  0.54744700  0.12713500  0.66737000  1
  O  O23  1  0.86381900  0.11696100  0.91621800  1
loop_
_geom_bond_atom_site_label_1
_geom_bond_atom_site_label_2
_geom_bond_distance
_geom_bond_site_symmetry_2
Li0 O3 1.935838 1_555
Li0 O4 1.940195 1_455
Li0 O7 1.971790 1_555
Li0 O2 2.026702 1_555
Li1 O1 1.920197 1_555
Li1 O10 1.957373 1_455
Li1 O9 2.074203 1_555
Li1 O3 2.238396 1_555
Li2 O2 1.973934 1_555
Li2 O23 1.980095 1_565
Li2 O21 2.039606 1_566
Li2 O8 2.040545 1_555
Li3 O6 1.931775 1_655
Li3 O5 1.974630 1_555
Li3 O12 2.014424 1_555
Li3 O10 2.045742 1_555
Li4 O17 1.939066 1_555
Li4 O16 1.961465 1_455
Li4 O11 2.036753 1_555
Li4 O6 2.143243 1_556
Li5 O20 1.921170 1_655
Li5 O22 1.998700 1_555
Li5 O16 2.077666 1_555
Li5 O13 2.110905 1_555
Li6 O21 1.925754 1_555
Li6 O19 1.951037 1_555
Li6 O14 1.993138 1_555
Li6 O0 2.046657 1_545
Fe0 O6 2.001647 1_555
Fe0 O5 2.070189 1_555
Fe0 O0 2.101368 1_555
Fe0 O1 2.205251 1_555
Fe0 O11 2.263178 1_554
Fe1 O2 1.998069 1_555
Fe1 O11 2.034258 1_555
Fe1 O8 2.132010 1_455
Fe1 O0 2.142561 1_556
Fe1 O7 2.363416 1_555
Fe2 O18 1.953733 1_665
Fe2 O1 2.025247 1_555
Fe2 O10 2.068827 1_555
Fe2 O5 2.280117 1_555
Fe2 O4 2.309042 1_555
Fe3 O3 1.942890 1_555
Fe3 O13 1.976379 1_555
Fe3 O7 1.976740 1_655
Fe3 O9 2.045404 1_555
Fe3 O8 2.119196 1_555
Fe4 O19 1.987801 1_555
Fe4 O15 2.026193 1_455
Fe4 O9 2.150960 1_555
Fe4 O14 2.255138 1_555
Fe4 O13 2.301301 1_555
Fe5 O20 1.984920 1_555
Fe5 O18 2.083987 1_555
Fe5 O22 2.089187 1_555
Fe5 O4 2.091737 1_445
Fe5 O17 2.333110 1_555
Fe6 O21 2.016463 1_555
Fe6 O12 2.083495 1_555
Fe6 O14 2.108128 1_655
Fe6 O15 2.202353 1_555
Fe6 O23 2.301608 1_554
Fe7 O17 2.030430 1_555
Fe7 O16 2.054918 1_555
Fe7 O23 2.074144 1_555
Fe7 O12 2.229425 1_556
Fe7 O22 2.247969 1_555
B0 O4 1.378595 1_555
B0 O22 1.383796 1_565
B0 O3 1.414802 1_555
B1 O21 1.383333 1_565
B1 O5 1.384851 1_555
B1 O0 1.404720 1_655
B2 O20 1.355344 1_555
B2 O7 1.410751 1_555
B2 O13 1.411233 1_555
B3 O14 1.385825 1_555
B3 O6 1.394648 1_555
B3 O12 1.400265 1_555
B4 O15 1.374373 1_555
B4 O10 1.375533 1_555
B4 O9 1.434191 1_555
B5 O16 1.372637 1_555
B5 O11 1.391796 1_555
B5 O8 1.425625 1_555
B6 O19 1.359822 1_555
B6 O18 1.378939 1_555
B6 O1 1.419070 1_545
B7 O23 1.382880 1_455
B7 O2 1.392659 1_545
B7 O17 1.395882 1_555
