# generated using pymatgen
data_Li4Mn8O13F3
_symmetry_space_group_name_H-M   'P 1'
_cell_length_a   5.95004043
_cell_length_b   6.08827117
_cell_length_c   10.38523721
_cell_angle_alpha   106.97572210
_cell_angle_beta   75.03828922
_cell_angle_gamma   120.74805360
_symmetry_Int_Tables_number   1
_chemical_formula_structural   Li4Mn8O13F3
_chemical_formula_sum   'Li4 Mn8 O13 F3'
_cell_volume   306.51011882
_cell_formula_units_Z   1
loop_
 _symmetry_equiv_pos_site_id
 _symmetry_equiv_pos_as_xyz
  1  'x, y, z'
loop_
 _atom_site_type_symbol
 _atom_site_label
 _atom_site_symmetry_multiplicity
 _atom_site_fract_x
 _atom_site_fract_y
 _atom_site_fract_z
 _atom_site_occupancy
  Li  Li0  1  0.77845800  0.66933000  0.06126600  1
  Li  Li1  1  0.73415800  0.83885900  0.44271400  1
  Li  Li2  1  0.25863500  0.15882200  0.55682300  1
  Li  Li3  1  0.23636200  0.34175500  0.94311900  1
  Mn  Mn0  1  0.24056000  0.75043300  0.24449800  1
  Mn  Mn1  1  0.00381000  0.50350000  0.49988200  1
  Mn  Mn2  1  0.24127200  0.23350800  0.24507500  1
  Mn  Mn3  1  0.48086800  0.99173100  0.00269100  1
  Mn  Mn4  1  0.24847000  0.75204800  0.75015000  1
  Mn  Mn5  1  0.74572400  0.24752700  0.25124700  1
  Mn  Mn6  1  0.74595400  0.74789400  0.75096200  1
  Mn  Mn7  1  0.74928600  0.24941000  0.75187900  1
  O  O0  1  0.11176900  0.87756300  0.13773100  1
  O  O1  1  0.58021000  0.88712700  0.13205800  1
  O  O2  1  0.12790900  0.38862200  0.15303000  1
  O  O3  1  0.08574600  0.82508200  0.63444800  1
  O  O4  1  0.58076300  0.32300800  0.13208600  1
  O  O5  1  0.08727900  0.39890400  0.63457800  1
  O  O6  1  0.37561600  0.11274800  0.35101000  1
  O  O7  1  0.65425900  0.90193500  0.64877500  1
  O  O8  1  0.91795300  0.61001600  0.36910000  1
  O  O9  1  0.91898600  0.17803800  0.37021300  1
  O  O10  1  0.40637200  0.67279800  0.86551300  1
  O  O11  1  0.84224400  0.59665300  0.85241000  1
  O  O12  1  0.41035700  0.10231700  0.86549500  1
  F  F0  1  0.40179100  0.63495600  0.37500700  1
  F  F1  1  0.59410500  0.35537400  0.61562500  1
  F  F2  1  0.90443300  0.14012900  0.88232100  1
loop_
_geom_bond_atom_site_label_1
_geom_bond_atom_site_label_2
_geom_bond_distance
_geom_bond_site_symmetry_2
Li0 O0 1.955863 1_655
Li0 O11 2.056867 1_554
Li0 O1 2.067014 1_555
Li0 O4 2.071985 1_555
Li1 O7 2.033356 1_555
Li1 O9 2.049111 1_565
Li1 O8 2.055693 1_555
Li2 O6 2.052575 1_555
Li2 O3 2.056141 1_545
Li2 O5 2.058555 1_555
Li3 O10 2.043976 1_555
Li3 O12 2.067070 1_555
Li3 O2 2.085380 1_556
Mn0 O1 1.941525 1_555
Mn0 O8 1.943032 1_455
Mn0 O2 1.949641 1_555
Mn0 O6 1.989174 1_565
Mn0 O0 1.990506 1_555
Mn1 O8 1.933279 1_455
Mn1 O9 1.940285 1_455
Mn1 O3 1.949880 1_555
Mn1 O5 1.952241 1_555
Mn2 O2 1.942161 1_555
Mn2 O4 1.943747 1_555
Mn2 O9 1.946155 1_455
Mn2 O0 1.964221 1_545
Mn2 O6 1.979193 1_555
Mn3 O12 1.953731 1_564
Mn3 O10 1.956296 1_554
Mn3 O4 1.957281 1_565
Mn3 O1 1.963308 1_555
Mn3 O0 2.165878 1_555
Mn4 O12 1.978421 1_565
Mn4 O3 1.982902 1_555
Mn4 O10 1.983222 1_555
Mn4 O5 1.990495 1_555
Mn4 O7 2.183183 1_555
Mn4 O11 2.188177 1_455
Mn5 O6 2.016651 1_555
Mn5 O4 2.031380 1_555
Mn5 O1 2.037274 1_545
Mn5 O8 2.043651 1_555
Mn5 O9 2.043787 1_555
Mn5 O2 2.065435 1_655
Mn6 O11 1.924500 1_555
Mn6 O7 1.925300 1_555
Mn6 O10 1.959251 1_555
Mn6 O3 1.967212 1_655
Mn7 O11 1.918083 1_555
Mn7 O7 1.925729 1_545
Mn7 O12 1.950072 1_555
Mn7 O5 1.966628 1_655
F0 Li1 1.909029 1_555
F0 Mn1 2.238820 1_555
F0 Mn2 2.249317 1_555
F0 Mn0 2.273562 1_555
F1 Li2 1.883994 1_555
F1 Mn6 2.233678 1_555
F1 Mn1 2.252294 1_655
F1 Mn7 2.255626 1_555
F2 Li3 1.875745 1_655
F2 Mn6 2.216364 1_545
F2 Mn7 2.220363 1_555
F2 Mn3 2.331310 1_546
