# generated using pymatgen
data_Na3VSiBO7
_symmetry_space_group_name_H-M   'P 1'
_cell_length_a   5.34403328
_cell_length_b   11.11301537
_cell_length_c   11.11333186
_cell_angle_alpha   106.80341066
_cell_angle_beta   91.31043705
_cell_angle_gamma   88.68774103
_symmetry_Int_Tables_number   1
_chemical_formula_structural   Na3VSiBO7
_chemical_formula_sum   'Na12 V4 Si4 B4 O28'
_cell_volume   631.56481982
_cell_formula_units_Z   4
loop_
 _symmetry_equiv_pos_site_id
 _symmetry_equiv_pos_as_xyz
  1  'x, y, z'
loop_
 _atom_site_type_symbol
 _atom_site_label
 _atom_site_symmetry_multiplicity
 _atom_site_fract_x
 _atom_site_fract_y
 _atom_site_fract_z
 _atom_site_occupancy
  Na  Na0  1  0.76485100  0.16738600  0.08254200  1
  Na  Na1  1  0.76473400  0.66753400  0.58253500  1
  Na  Na2  1  0.23516800  0.83260800  0.91745000  1
  Na  Na3  1  0.23530500  0.33245400  0.41752400  1
  Na  Na4  1  0.25399200  0.12874500  0.87556400  1
  Na  Na5  1  0.25360700  0.62866900  0.37544800  1
  Na  Na6  1  0.25374900  0.37452700  0.12124300  1
  Na  Na7  1  0.25394600  0.87444300  0.62138000  1
  Na  Na8  1  0.74610400  0.62549400  0.87881600  1
  Na  Na9  1  0.74603300  0.12552600  0.37866300  1
  Na  Na10  1  0.74592800  0.87118800  0.12445200  1
  Na  Na11  1  0.74617900  0.37133000  0.62455500  1
  V  V0  1  0.78847200  0.04407300  0.70582000  1
  V  V1  1  0.21152100  0.95585300  0.29409900  1
  V  V2  1  0.78864400  0.54411900  0.20582500  1
  V  V3  1  0.21135000  0.45587400  0.79416700  1
  Si  Si0  1  0.72256400  0.33849000  0.91147500  1
  Si  Si1  1  0.72275500  0.83860000  0.41138600  1
  Si  Si2  1  0.27746800  0.66152500  0.08847900  1
  Si  Si3  1  0.27721800  0.16138900  0.58859400  1
  B  B0  1  0.73331400  0.40780500  0.34231300  1
  B  B1  1  0.73313400  0.90772500  0.84219400  1
  B  B2  1  0.26673500  0.59217800  0.65770400  1
  B  B3  1  0.26690500  0.09229800  0.15782300  1
  O  O0  1  0.31888900  0.16534200  0.08482700  1
  O  O1  1  0.31891000  0.66517200  0.58467500  1
  O  O2  1  0.68112300  0.83469800  0.91520800  1
  O  O3  1  0.68106200  0.33479800  0.41532400  1
  O  O4  1  0.96977200  0.43907800  0.31101300  1
  O  O5  1  0.96928400  0.93905200  0.81086400  1
  O  O6  1  0.03036400  0.56091000  0.68902500  1
  O  O7  1  0.03075400  0.06093900  0.18912900  1
  O  O8  1  0.54463500  0.46646200  0.28365200  1
  O  O9  1  0.54400300  0.96632300  0.78363300  1
  O  O10  1  0.45554900  0.53357200  0.71635800  1
  O  O11  1  0.45603000  0.03368000  0.21638000  1
  O  O12  1  0.42629900  0.36639400  0.88363800  1
  O  O13  1  0.42641700  0.86648300  0.38348700  1
  O  O14  1  0.57367800  0.63369900  0.11637400  1
  O  O15  1  0.57359400  0.13351200  0.61650400  1
  O  O16  1  0.10617500  0.58571100  0.16427800  1
  O  O17  1  0.10621200  0.08546500  0.66445200  1
  O  O18  1  0.89377500  0.41431200  0.83562300  1
  O  O19  1  0.89374200  0.91451600  0.33554200  1
  O  O20  1  0.79000900  0.18772800  0.86518800  1
  O  O21  1  0.79031400  0.68788400  0.36511000  1
  O  O22  1  0.79027200  0.38482900  0.06221400  1
  O  O23  1  0.79005000  0.88484300  0.56217800  1
  O  O24  1  0.20983600  0.61520400  0.93777100  1
  O  O25  1  0.20992600  0.11514600  0.43780500  1
  O  O26  1  0.20993300  0.81228100  0.13479300  1
  O  O27  1  0.20971500  0.31213200  0.63490300  1
loop_
_geom_bond_atom_site_label_1
_geom_bond_atom_site_label_2
_geom_bond_distance
_geom_bond_site_symmetry_2
Na0 O7 2.340492 1_655
Na0 O0 2.384650 1_555
Na0 O20 2.497181 1_554
Na0 O22 2.498155 1_555
Na1 O6 2.340208 1_655
Na1 O1 2.383982 1_555
Na1 O23 2.496749 1_555
Na1 O21 2.498176 1_555
Na2 O5 2.340405 1_455
Na2 O2 2.384613 1_555
Na2 O26 2.497030 1_556
Na2 O24 2.497658 1_555
Na3 O4 2.340055 1_455
Na3 O3 2.383641 1_555
Na3 O25 2.496451 1_555
Na3 O27 2.497556 1_555
Na4 O0 2.262047 1_556
Na4 O9 2.362595 1_545
Na4 O17 2.374804 1_555
Na4 O5 2.548793 1_445
Na4 O20 2.558760 1_455
Na4 O12 2.793100 1_555
Na5 O1 2.262068 1_555
Na5 O8 2.364295 1_555
Na5 O16 2.375087 1_555
Na5 O4 2.545006 1_455
Na5 O21 2.555810 1_455
Na5 O13 2.795871 1_555
Na6 O0 2.261529 1_555
Na6 O8 2.365634 1_555
Na6 O16 2.375311 1_555
Na6 O4 2.547008 1_455
Na6 O22 2.556226 1_455
Na6 O12 2.792974 1_554
Na7 O1 2.261966 1_555
Na7 O9 2.361539 1_555
Na7 O17 2.373888 1_565
Na7 O5 2.546842 1_455
Na7 O23 2.558962 1_455
Na7 O13 2.796325 1_555
Na8 O2 2.261650 1_555
Na8 O10 2.364792 1_555
Na8 O18 2.375319 1_555
Na8 O6 2.548116 1_655
Na8 O24 2.557321 1_655
Na8 O14 2.792050 1_556
Na9 O3 2.262037 1_555
Na9 O11 2.361474 1_555
Na9 O19 2.373681 1_545
Na9 O7 2.547449 1_655
Na9 O25 2.558760 1_655
Na9 O15 2.795648 1_555
Na10 O2 2.261911 1_554
Na10 O11 2.362681 1_565
Na10 O19 2.374596 1_555
Na10 O7 2.549659 1_665
Na10 O26 2.558627 1_655
Na10 O14 2.791304 1_555
Na11 O3 2.261941 1_555
Na11 O10 2.363172 1_555
Na11 O18 2.374296 1_555
Na11 O6 2.546063 1_655
Na11 O27 2.557023 1_655
Na11 O15 2.795457 1_555
B0 O3 1.340130 1_555
B0 O4 1.395951 1_555
B0 O8 1.432525 1_555
B1 O2 1.340027 1_555
B1 O5 1.394762 1_555
B1 O9 1.433170 1_555
B2 O1 1.340076 1_555
B2 O6 1.395586 1_555
B2 O10 1.432650 1_555
B3 O0 1.339984 1_555
B3 O7 1.394798 1_555
B3 O11 1.433249 1_555
O4 V2 2.086044 1_555
O5 V0 2.084007 1_565
O6 V3 2.085308 1_555
O7 V1 2.083831 1_545
O8 V2 1.930790 1_555
O9 V0 1.933021 1_565
O10 V3 1.931648 1_555
O11 V1 1.933058 1_545
O12 Si0 1.645941 1_555
O12 V3 1.940129 1_555
O13 Si1 1.646413 1_555
O13 V1 1.938580 1_555
O14 Si2 1.645612 1_555
O14 V2 1.940756 1_555
O15 Si3 1.646619 1_555
O15 V0 1.938504 1_555
O16 Si2 1.654792 1_555
O16 V2 1.871214 1_455
O17 Si3 1.655165 1_555
O17 V0 1.870814 1_455
O18 Si0 1.654993 1_555
O18 V3 1.870974 1_655
O19 Si1 1.654943 1_555
O19 V1 1.871081 1_655
O20 Si0 1.638315 1_555
O20 V0 2.012628 1_555
O21 Si1 1.637963 1_555
O21 V2 2.012689 1_555
O22 Si0 1.638438 1_554
O22 V2 2.011793 1_555
O23 Si1 1.638509 1_555
O23 V0 2.011545 1_565
O24 Si2 1.638031 1_556
O24 V3 2.012039 1_555
O25 Si3 1.638475 1_555
O25 V1 2.012384 1_545
O26 Si2 1.638359 1_555
O26 V1 2.011684 1_555
O27 Si3 1.638188 1_555
O27 V3 2.012399 1_555
