# generated using pymatgen
data_Sr20FeCo9(MoO6)10
_symmetry_space_group_name_H-M   'P 1'
_cell_length_a   11.29307397
_cell_length_b   28.20413801
_cell_length_c   9.78391524
_cell_angle_alpha   30.21186737
_cell_angle_beta   106.64675133
_cell_angle_gamma   89.85890610
_symmetry_Int_Tables_number   1
_chemical_formula_structural   Sr20FeCo9(MoO6)10
_chemical_formula_sum   'Sr20 Fe1 Co9 Mo10 O60'
_cell_volume   1284.57136747
_cell_formula_units_Z   1
loop_
 _symmetry_equiv_pos_site_id
 _symmetry_equiv_pos_as_xyz
  1  'x, y, z'
loop_
 _atom_site_type_symbol
 _atom_site_label
 _atom_site_symmetry_multiplicity
 _atom_site_fract_x
 _atom_site_fract_y
 _atom_site_fract_z
 _atom_site_occupancy
  Sr  Sr0  1  0.12416700  0.15067200  0.49690200  1
  Sr  Sr1  1  0.12368200  0.35122900  0.49636400  1
  Sr  Sr2  1  0.12510900  0.55091600  0.49773600  1
  Sr  Sr3  1  0.12613300  0.74940800  0.50209900  1
  Sr  Sr4  1  0.12442300  0.94923500  0.50133500  1
  Sr  Sr5  1  0.37452700  0.05083700  0.49848500  1
  Sr  Sr6  1  0.37399100  0.25101300  0.49641600  1
  Sr  Sr7  1  0.37509800  0.45031600  0.49869400  1
  Sr  Sr8  1  0.37469700  0.64973400  0.49970600  1
  Sr  Sr9  1  0.37544800  0.84940600  0.50138800  1
  Sr  Sr10  1  0.62455200  0.15059300  0.49861200  1
  Sr  Sr11  1  0.62530300  0.35026600  0.50029400  1
  Sr  Sr12  1  0.62490200  0.54968400  0.50130600  1
  Sr  Sr13  1  0.62600900  0.74898700  0.50358400  1
  Sr  Sr14  1  0.62547300  0.94916300  0.50151500  1
  Sr  Sr15  1  0.87557700  0.05076500  0.49866500  1
  Sr  Sr16  1  0.87386700  0.25059200  0.49790100  1
  Sr  Sr17  1  0.87489100  0.44908400  0.50226400  1
  Sr  Sr18  1  0.87631800  0.64877100  0.50363600  1
  Sr  Sr19  1  0.87583300  0.84932800  0.50309800  1
  Fe  Fe0  1  0.00000000  0.00000000  0.00000000  1
  Co  Co0  1  0.00013800  0.20009400  0.00046500  1
  Co  Co1  1  0.99982500  0.39999100  0.99993100  1
  Co  Co2  1  0.99986200  0.79990600  0.99953500  1
  Co  Co3  1  0.50024100  0.20031200  0.99985600  1
  Co  Co4  1  0.50000000  0.00000000  0.00000000  1
  Co  Co5  1  0.50023500  0.40007400  0.99866800  1
  Co  Co6  1  0.49976500  0.59992600  0.00133200  1
  Co  Co7  1  0.49975900  0.79968800  0.00014400  1
  Co  Co8  1  0.00017500  0.60000900  0.00006900  1
  Mo  Mo0  1  0.25040000  0.10038700  0.99981900  1
  Mo  Mo1  1  0.25005600  0.29991200  0.00050700  1
  Mo  Mo2  1  0.25038200  0.49998800  0.99996800  1
  Mo  Mo3  1  0.25102200  0.69896100  0.00300700  1
  Mo  Mo4  1  0.25083300  0.89986800  0.00020500  1
  Mo  Mo5  1  0.74916700  0.10013200  0.99979500  1
  Mo  Mo6  1  0.74897800  0.30103900  0.99699300  1
  Mo  Mo7  1  0.74961800  0.50001200  0.00003200  1
  Mo  Mo8  1  0.74994400  0.70008800  0.99949300  1
  Mo  Mo9  1  0.74960000  0.89961300  0.00018100  1
  O  O0  1  0.13003800  0.04373300  0.52122600  1
  O  O1  1  0.12953900  0.24380800  0.51946700  1
  O  O2  1  0.12975200  0.44438400  0.51882300  1
  O  O3  1  0.12978000  0.64407200  0.51975900  1
  O  O4  1  0.12502000  0.85007100  0.49985300  1
  O  O5  1  0.11137900  0.14101200  0.00053600  1
  O  O6  1  0.11179100  0.34079800  0.00169400  1
  O  O7  1  0.11147500  0.54105300  0.00117700  1
  O  O8  1  0.10914200  0.74317500  0.99629500  1
  O  O9  1  0.11093400  0.94233200  0.00057300  1
  O  O10  1  0.14363600  0.04401900  0.00067800  1
  O  O11  1  0.14767100  0.24345100  0.00349800  1
  O  O12  1  0.14679100  0.44441500  0.00078100  1
  O  O13  1  0.14574300  0.64607800  0.99683800  1
  O  O14  1  0.14563700  0.84528000  0.00075700  1
  O  O15  1  0.37135200  0.15416200  0.48605500  1
  O  O16  1  0.37108600  0.35442000  0.48497700  1
  O  O17  1  0.37062700  0.75529700  0.48316600  1
  O  O18  1  0.37200900  0.55352000  0.48842300  1
  O  O19  1  0.37045500  0.95493600  0.48284000  1
  O  O20  1  0.35266900  0.35385000  0.00322400  1
  O  O21  1  0.35295500  0.15475700  0.00093900  1
  O  O22  1  0.35235800  0.55468300  0.00059100  1
  O  O23  1  0.35179500  0.75627300  0.99604300  1
  O  O24  1  0.35246500  0.95533100  0.00011800  1
  O  O25  1  0.38844300  0.25757000  0.00241400  1
  O  O26  1  0.38639300  0.05821100  0.00091400  1
  O  O27  1  0.38887700  0.65894200  0.99718800  1
  O  O28  1  0.38872700  0.45779400  0.00183300  1
  O  O29  1  0.38852600  0.85873000  0.00015500  1
  O  O30  1  0.62937300  0.24470300  0.51683400  1
  O  O31  1  0.62954500  0.04506400  0.51716000  1
  O  O32  1  0.62799200  0.44648000  0.51157700  1
  O  O33  1  0.62891400  0.64558000  0.51502300  1
  O  O34  1  0.62864800  0.84583800  0.51394500  1
  O  O35  1  0.61147400  0.14127000  0.99984500  1
  O  O36  1  0.61127300  0.54220600  0.99816700  1
  O  O37  1  0.61155700  0.74243000  0.99758600  1
  O  O38  1  0.61112300  0.34105800  0.00281200  1
  O  O39  1  0.61360700  0.94178900  0.99908600  1
  O  O40  1  0.64753500  0.04466900  0.99988200  1
  O  O41  1  0.64820500  0.24372700  0.00395700  1
  O  O42  1  0.64764200  0.44531700  0.99940900  1
  O  O43  1  0.64733100  0.64615000  0.99677600  1
  O  O44  1  0.64704500  0.84524300  0.99906100  1
  O  O45  1  0.87498000  0.14992900  0.50014700  1
  O  O46  1  0.87022000  0.35592800  0.48024100  1
  O  O47  1  0.87024800  0.55561600  0.48117700  1
  O  O48  1  0.87046100  0.75619200  0.48053300  1
  O  O49  1  0.86996200  0.95626700  0.47877400  1
  O  O50  1  0.85436300  0.15472000  0.99924300  1
  O  O51  1  0.85425700  0.35392200  0.00316200  1
  O  O52  1  0.85320900  0.55558500  0.99921900  1
  O  O53  1  0.85232900  0.75654900  0.99650200  1
  O  O54  1  0.85636400  0.95598100  0.99932200  1
  O  O55  1  0.88906600  0.05766800  0.99942700  1
  O  O56  1  0.89085800  0.25682500  0.00370500  1
  O  O57  1  0.88852500  0.45894700  0.99882300  1
  O  O58  1  0.88820900  0.65920200  0.99830600  1
  O  O59  1  0.88862100  0.85898800  0.99946400  1
loop_
_geom_bond_atom_site_label_1
_geom_bond_atom_site_label_2
_geom_bond_distance
_geom_bond_site_symmetry_2
Fe0 O4 2.015937 1_545
Fe0 O45 2.015937 1_454
Fe0 O55 2.045754 1_454
Fe0 O9 2.045754 1_545
Fe0 O54 2.047091 1_444
Fe0 O10 2.047091 1_555
Co0 O56 2.045613 1_455
Co0 O11 2.077631 1_555
Co0 O5 2.083772 1_555
Co0 O50 2.091301 1_454
Co0 O46 2.098106 1_454
Co0 O0 2.100265 1_555
Co1 O57 2.072588 1_555
Co1 O6 2.076928 1_656
Co1 O12 2.084435 1_656
Co1 O51 2.088305 1_556
Co1 O47 2.092166 1_555
Co1 O1 2.095339 1_656
Co2 O8 2.045613 1_655
Co2 O53 2.077631 1_555
Co2 O59 2.083772 1_555
Co2 O14 2.091301 1_656
Co2 O3 2.098106 1_656
Co2 O49 2.100265 1_555
Co3 O25 2.068937 1_556
Co3 O16 2.076569 1_555
Co3 O35 2.083510 1_555
Co3 O41 2.085589 1_556
Co3 O31 2.086318 1_556
Co3 O21 2.101101 1_556
Co4 O34 2.072771 1_545
Co4 O15 2.072771 1_554
Co4 O39 2.088815 1_544
Co4 O26 2.088815 1_555
Co4 O24 2.090961 1_545
Co4 O40 2.090961 1_554
Co5 O38 2.045572 1_556
Co5 O18 2.057886 1_555
Co5 O28 2.082375 1_556
Co5 O30 2.089801 1_556
Co5 O42 2.102146 1_555
Co5 O20 2.105136 1_556
Co6 O27 2.045572 1_554
Co6 O32 2.057886 1_555
Co6 O36 2.082375 1_554
Co6 O17 2.089801 1_554
Co6 O22 2.102146 1_555
Co6 O43 2.105136 1_554
Co7 O37 2.068937 1_554
Co7 O33 2.076569 1_555
Co7 O29 2.083510 1_555
Co7 O23 2.085589 1_554
Co7 O19 2.086318 1_554
Co7 O44 2.101101 1_554
Co8 O7 2.072588 1_555
Co8 O58 2.076928 1_454
Co8 O52 2.084435 1_454
Co8 O13 2.088305 1_554
Co8 O2 2.092166 1_555
Co8 O48 2.095339 1_454
Mo0 O21 1.929630 1_556
Mo0 O26 1.932170 1_556
Mo0 O1 1.937406 1_555
Mo0 O5 1.946549 1_556
Mo0 O19 1.948127 1_546
Mo0 O10 1.993344 1_556
Mo1 O20 1.928410 1_555
Mo1 O2 1.942661 1_554
Mo1 O6 1.947473 1_555
Mo1 O25 1.950510 1_555
Mo1 O11 1.954868 1_555
Mo1 O15 1.958245 1_555
Mo2 O22 1.930529 1_556
Mo2 O3 1.936721 1_555
Mo2 O28 1.947929 1_556
Mo2 O12 1.954011 1_556
Mo2 O16 1.956081 1_556
Mo2 O7 1.956455 1_556
Mo3 O13 1.940367 1_554
Mo3 O23 1.943133 1_554
Mo3 O18 1.957724 1_555
Mo3 O27 1.963172 1_554
Mo3 O8 1.978622 1_554
Mo3 O4 2.029255 1_554
Mo4 O0 1.931791 1_564
Mo4 O29 1.938219 1_555
Mo4 O24 1.942008 1_555
Mo4 O14 1.944234 1_555
Mo4 O17 1.947862 1_555
Mo4 O9 1.982889 1_555
Mo5 O49 1.931791 1_546
Mo5 O35 1.938219 1_555
Mo5 O40 1.942008 1_555
Mo5 O50 1.944234 1_555
Mo5 O30 1.947862 1_555
Mo5 O55 1.982889 1_555
Mo6 O51 1.940367 1_556
Mo6 O41 1.943133 1_556
Mo6 O32 1.957724 1_555
Mo6 O38 1.963172 1_556
Mo6 O56 1.978622 1_556
Mo6 O45 2.029255 1_556
Mo7 O42 1.930529 1_554
Mo7 O46 1.936721 1_555
Mo7 O36 1.947929 1_554
Mo7 O52 1.954011 1_554
Mo7 O33 1.956081 1_554
Mo7 O57 1.956455 1_554
Mo8 O43 1.928410 1_555
Mo8 O47 1.942661 1_556
Mo8 O58 1.947473 1_555
Mo8 O37 1.950510 1_555
Mo8 O53 1.954868 1_555
Mo8 O34 1.958245 1_555
Mo9 O44 1.929630 1_554
Mo9 O39 1.932170 1_554
Mo9 O48 1.937406 1_555
Mo9 O59 1.946549 1_554
Mo9 O31 1.948127 1_564
Mo9 O54 1.993344 1_554
O0 Sr15 2.811407 1_455
O0 Sr0 2.812013 1_555
O0 Sr5 2.826764 1_555
O0 Sr4 2.834713 1_545
O1 Sr0 2.819227 1_555
O1 Sr6 2.827263 1_555
O1 Sr16 2.827758 1_455
O1 Sr1 2.835750 1_555
O2 Sr1 2.818876 1_555
O2 Sr2 2.827512 1_555
O2 Sr7 2.828707 1_555
O2 Sr17 2.832224 1_455
O3 Sr2 2.815136 1_555
O3 Sr18 2.817602 1_455
O3 Sr3 2.822407 1_555
O3 Sr8 2.823640 1_555
O4 Sr4 2.809376 1_555
O4 Sr3 2.820114 1_555
O4 Sr19 2.823272 1_455
O4 Sr9 2.823766 1_555
O5 Sr4 2.657644 1_545
O5 Sr16 2.657719 1_454
O5 Sr5 3.047517 1_555
O5 Sr1 3.058350 1_554
O6 Sr0 2.636927 1_555
O6 Sr17 2.653036 1_454
O6 Sr6 3.029178 1_555
O6 Sr2 3.062820 1_554
O7 Sr1 2.634043 1_555
O7 Sr18 2.640429 1_454
O7 Sr7 3.039103 1_555
O7 Sr3 3.045900 1_554
O8 Sr19 2.626360 1_455
O8 Sr2 2.648495 1_556
O8 Sr4 3.016339 1_555
O8 Sr8 3.043323 1_556
O9 Sr15 2.656584 1_464
O9 Sr3 2.661024 1_555
O9 Sr9 3.030058 1_555
O9 Sr0 3.035440 1_564
O10 Sr9 2.662247 1_545
O10 Sr0 2.672371 1_554
O10 Sr4 3.027739 1_545
O10 Sr16 3.035815 1_454
O11 Sr5 2.623173 1_555
O11 Sr1 2.662801 1_554
O11 Sr0 3.021046 1_555
O11 Sr17 3.045482 1_454
O12 Sr6 2.634025 1_555
O12 Sr2 2.657192 1_554
O12 Sr18 3.025915 1_454
O12 Sr1 3.031346 1_555
O13 Sr3 2.640830 1_555
O13 Sr7 2.662711 1_556
O13 Sr19 3.017388 1_455
O13 Sr2 3.032989 1_556
O14 Sr4 2.663568 1_554
O14 Sr8 2.664875 1_555
O14 Sr3 3.019666 1_555
O14 Sr15 3.023992 1_464
O15 Sr5 2.809456 1_555
O15 Sr6 2.819584 1_555
O15 Sr0 2.822470 1_555
O15 Sr10 2.824423 1_555
O16 Sr6 2.820086 1_555
O16 Sr7 2.821303 1_555
O16 Sr1 2.826469 1_555
O16 Sr11 2.828374 1_555
O17 Sr9 2.809427 1_555
O17 Sr3 2.815605 1_555
O17 Sr13 2.827586 1_555
O17 Sr8 2.838139 1_555
O18 Sr8 2.809474 1_555
O18 Sr2 2.814799 1_555
O18 Sr12 2.820043 1_555
O18 Sr7 2.824163 1_555
O19 Sr9 2.820416 1_555
O19 Sr14 2.828201 1_555
O19 Sr4 2.831677 1_555
O19 Sr5 2.837898 1_565
O20 Sr6 2.626058 1_555
O20 Sr2 2.663542 1_554
O20 Sr10 3.024433 1_555
O20 Sr7 3.056303 1_554
O21 Sr5 2.646551 1_555
O21 Sr1 2.665878 1_554
O21 Sr14 3.045404 1_545
O21 Sr6 3.050661 1_554
O22 Sr7 2.639391 1_555
O22 Sr3 2.640737 1_554
O22 Sr11 3.033932 1_555
O22 Sr8 3.044951 1_554
O23 Sr4 2.631030 1_555
O23 Sr8 2.655773 1_556
O23 Sr9 3.027538 1_555
O23 Sr12 3.048497 1_556
O24 Sr9 2.643657 1_555
O24 Sr0 2.648900 1_564
O24 Sr5 3.043088 1_564
O24 Sr13 3.053325 1_555
O25 Sr10 2.647515 1_555
O25 Sr7 2.670071 1_554
O25 Sr5 3.018108 1_555
O25 Sr1 3.050647 1_554
O26 Sr14 2.661778 1_545
O26 Sr6 2.676414 1_554
O26 Sr9 3.030611 1_545
O26 Sr0 3.042461 1_554
O27 Sr9 2.635886 1_555
O27 Sr12 2.661950 1_556
O27 Sr3 3.024028 1_555
O27 Sr7 3.043804 1_556
O28 Sr8 2.655275 1_554
O28 Sr11 2.655500 1_555
O28 Sr6 3.024347 1_555
O28 Sr2 3.040844 1_554
O29 Sr5 2.657208 1_564
O29 Sr13 2.659872 1_555
O29 Sr8 3.050699 1_555
O29 Sr4 3.053066 1_554
O30 Sr10 2.809455 1_555
O30 Sr16 2.815605 1_555
O30 Sr6 2.827586 1_555
O30 Sr11 2.838139 1_555
O31 Sr10 2.820388 1_555
O31 Sr5 2.828201 1_555
O31 Sr15 2.831677 1_555
O31 Sr14 2.837898 1_545
O32 Sr11 2.809474 1_555
O32 Sr17 2.814788 1_555
O32 Sr7 2.820055 1_555
O32 Sr12 2.824163 1_555
O33 Sr13 2.820086 1_555
O33 Sr12 2.821303 1_555
O33 Sr18 2.826469 1_555
O33 Sr8 2.828374 1_555
O34 Sr14 2.809456 1_555
O34 Sr13 2.819584 1_555
O34 Sr19 2.822470 1_555
O34 Sr9 2.824423 1_555
O35 Sr14 2.657208 1_546
O35 Sr6 2.659872 1_555
O35 Sr11 3.050699 1_555
O35 Sr15 3.053066 1_556
O36 Sr11 2.655275 1_556
O36 Sr8 2.655500 1_555
O36 Sr13 3.024347 1_555
O36 Sr17 3.040844 1_556
O37 Sr9 2.647527 1_555
O37 Sr12 2.670071 1_556
O37 Sr14 3.018108 1_555
O37 Sr18 3.050647 1_556
O38 Sr10 2.635899 1_555
O38 Sr7 2.661950 1_554
O38 Sr16 3.024028 1_555
O38 Sr12 3.043804 1_554
O39 Sr5 2.661778 1_565
O39 Sr13 2.676414 1_556
O39 Sr10 3.030596 1_565
O39 Sr19 3.042461 1_556
O40 Sr10 2.643670 1_555
O40 Sr19 2.648900 1_546
O40 Sr14 3.043088 1_546
O40 Sr6 3.053325 1_555
O41 Sr15 2.631030 1_555
O41 Sr11 2.655773 1_554
O41 Sr10 3.027523 1_555
O41 Sr7 3.048497 1_554
O42 Sr12 2.639391 1_555
O42 Sr16 2.640737 1_556
O42 Sr8 3.033932 1_555
O42 Sr11 3.044951 1_556
O43 Sr13 2.626058 1_555
O43 Sr17 2.663542 1_556
O43 Sr9 3.024418 1_555
O43 Sr12 3.056303 1_556
O44 Sr14 2.646551 1_555
O44 Sr18 2.665878 1_556
O44 Sr5 3.045404 1_565
O44 Sr13 3.050661 1_556
O45 Sr15 2.809376 1_555
O45 Sr16 2.820114 1_555
O45 Sr0 2.823272 1_655
O45 Sr10 2.823766 1_555
O46 Sr17 2.815136 1_555
O46 Sr1 2.817602 1_655
O46 Sr16 2.822407 1_555
O46 Sr11 2.823640 1_555
O47 Sr18 2.818876 1_555
O47 Sr17 2.827512 1_555
O47 Sr12 2.828707 1_555
O47 Sr2 2.832224 1_655
O48 Sr19 2.819227 1_555
O48 Sr13 2.827263 1_555
O48 Sr3 2.827758 1_655
O48 Sr18 2.835750 1_555
O49 Sr4 2.811407 1_655
O49 Sr19 2.812013 1_555
O49 Sr14 2.826764 1_555
O49 Sr15 2.834713 1_565
O50 Sr15 2.663568 1_556
O50 Sr11 2.664875 1_555
O50 Sr16 3.019666 1_555
O50 Sr4 3.023992 1_646
O51 Sr16 2.640830 1_555
O51 Sr12 2.662711 1_554
O51 Sr0 3.017388 1_655
O51 Sr17 3.032989 1_554
O52 Sr13 2.634025 1_555
O52 Sr17 2.657192 1_556
O52 Sr1 3.025915 1_656
O52 Sr18 3.031346 1_555
O53 Sr14 2.623173 1_555
O53 Sr18 2.662801 1_556
O53 Sr19 3.021046 1_555
O53 Sr2 3.045482 1_656
O54 Sr10 2.662233 1_565
O54 Sr19 2.672371 1_556
O54 Sr15 3.027739 1_565
O54 Sr3 3.035815 1_656
O55 Sr4 2.656584 1_646
O55 Sr16 2.661024 1_555
O55 Sr10 3.030073 1_555
O55 Sr19 3.035440 1_546
O56 Sr0 2.626360 1_655
O56 Sr17 2.648495 1_554
O56 Sr15 3.016339 1_555
O56 Sr11 3.043323 1_554
O57 Sr18 2.634043 1_555
O57 Sr1 2.640429 1_656
O57 Sr12 3.039103 1_555
O57 Sr16 3.045900 1_556
O58 Sr19 2.636927 1_555
O58 Sr2 2.653036 1_656
O58 Sr13 3.029178 1_555
O58 Sr17 3.062820 1_556
O59 Sr15 2.657644 1_565
O59 Sr3 2.657719 1_656
O59 Sr14 3.047517 1_555
O59 Sr18 3.058350 1_556
