# generated using pymatgen
data_Li2Mn(SiO3)2
_symmetry_space_group_name_H-M   'P 1'
_cell_length_a   7.22742800
_cell_length_b   10.08134300
_cell_length_c   10.30425200
_cell_angle_alpha   90.00000000
_cell_angle_beta   90.00000000
_cell_angle_gamma   90.00000000
_symmetry_Int_Tables_number   1
_chemical_formula_structural   Li2Mn(SiO3)2
_chemical_formula_sum   'Li12 Mn6 Si12 O36'
_cell_volume   750.79027095
_cell_formula_units_Z   6
loop_
 _symmetry_equiv_pos_site_id
 _symmetry_equiv_pos_as_xyz
  1  'x, y, z'
loop_
 _atom_site_type_symbol
 _atom_site_label
 _atom_site_symmetry_multiplicity
 _atom_site_fract_x
 _atom_site_fract_y
 _atom_site_fract_z
 _atom_site_occupancy
  Li  Li0  1  0.78220200  0.24390100  0.00000000  1
  Li  Li1  1  0.76148000  0.76261700  0.00000000  1
  Li  Li2  1  0.28640000  0.45175200  0.23339600  1
  Li  Li3  1  0.22224800  0.04128900  0.23768900  1
  Li  Li4  1  0.77775200  0.54128900  0.26231100  1
  Li  Li5  1  0.71360000  0.95175200  0.26660400  1
  Li  Li6  1  0.23852000  0.26261700  0.50000000  1
  Li  Li7  1  0.21779800  0.74390100  0.50000000  1
  Li  Li8  1  0.71360000  0.95175200  0.73339600  1
  Li  Li9  1  0.77775200  0.54128900  0.73768900  1
  Li  Li10  1  0.22224800  0.04128900  0.76231100  1
  Li  Li11  1  0.28640000  0.45175200  0.76660400  1
  Mn  Mn0  1  0.25172400  0.24669800  0.00000000  1
  Mn  Mn1  1  0.98144900  0.01188300  0.00000000  1
  Mn  Mn2  1  0.52182900  0.48006400  0.00000000  1
  Mn  Mn3  1  0.01855100  0.51188300  0.50000000  1
  Mn  Mn4  1  0.47817100  0.98006400  0.50000000  1
  Mn  Mn5  1  0.74827600  0.74669800  0.50000000  1
  Si  Si0  1  0.98802100  0.52712100  0.00000000  1
  Si  Si1  1  0.51280700  0.96866700  0.00000000  1
  Si  Si2  1  0.02485400  0.74753900  0.22481000  1
  Si  Si3  1  0.47428200  0.74887100  0.22499200  1
  Si  Si4  1  0.52571800  0.24887100  0.27500800  1
  Si  Si5  1  0.97514600  0.24753900  0.27519000  1
  Si  Si6  1  0.48719300  0.46866700  0.50000000  1
  Si  Si7  1  0.01197900  0.02712100  0.50000000  1
  Si  Si8  1  0.97514600  0.24753900  0.72481000  1
  Si  Si9  1  0.52571800  0.24887100  0.72499200  1
  Si  Si10  1  0.47428200  0.74887100  0.77500800  1
  Si  Si11  1  0.02485400  0.74753900  0.77519000  1
  O  O0  1  0.30288100  0.02521600  0.00000000  1
  O  O1  1  0.68782000  0.06852200  0.00000000  1
  O  O2  1  0.19654900  0.46964100  0.00000000  1
  O  O3  1  0.81201400  0.42837200  0.00000000  1
  O  O4  1  0.04243100  0.18812500  0.13642500  1
  O  O5  1  0.55260100  0.86282200  0.12134400  1
  O  O6  1  0.94942400  0.63053800  0.12354600  1
  O  O7  1  0.44907600  0.30911200  0.13933800  1
  O  O8  1  0.94252400  0.88803900  0.17329700  1
  O  O9  1  0.54350300  0.60297400  0.17901900  1
  O  O10  1  0.75103100  0.25600000  0.27854500  1
  O  O11  1  0.24896900  0.75600000  0.22145500  1
  O  O12  1  0.45649700  0.10297400  0.32098100  1
  O  O13  1  0.05747600  0.38803900  0.32670300  1
  O  O14  1  0.55092400  0.80911200  0.36066200  1
  O  O15  1  0.05057600  0.13053800  0.37645400  1
  O  O16  1  0.44739900  0.36282200  0.37865600  1
  O  O17  1  0.95756900  0.68812500  0.36357500  1
  O  O18  1  0.69711900  0.52521600  0.50000000  1
  O  O19  1  0.31218000  0.56852200  0.50000000  1
  O  O20  1  0.18798600  0.92837200  0.50000000  1
  O  O21  1  0.80345100  0.96964100  0.50000000  1
  O  O22  1  0.95756900  0.68812500  0.63642500  1
  O  O23  1  0.44739900  0.36282200  0.62134400  1
  O  O24  1  0.05057600  0.13053800  0.62354600  1
  O  O25  1  0.55092400  0.80911200  0.63933800  1
  O  O26  1  0.05747600  0.38803900  0.67329700  1
  O  O27  1  0.45649700  0.10297400  0.67901900  1
  O  O28  1  0.24896900  0.75600000  0.77854500  1
  O  O29  1  0.75103100  0.25600000  0.72145500  1
  O  O30  1  0.54350300  0.60297400  0.82098100  1
  O  O31  1  0.94252400  0.88803900  0.82670300  1
  O  O32  1  0.44907600  0.30911200  0.86066200  1
  O  O33  1  0.94942400  0.63053800  0.87645400  1
  O  O34  1  0.55260100  0.86282200  0.87865600  1
  O  O35  1  0.04243100  0.18812500  0.86357500  1
loop_
_geom_bond_atom_site_label_1
_geom_bond_atom_site_label_2
_geom_bond_distance
_geom_bond_site_symmetry_2
Li0 O3 1.872156 1_555
Li0 O1 1.895082 1_555
Li0 O35 2.414475 1_654
Li0 O4 2.414475 1_655
Li1 O34 2.205215 1_554
Li1 O5 2.205215 1_555
Li1 O6 2.288833 1_555
Li1 O33 2.288833 1_554
Li1 O8 2.549431 1_555
Li1 O31 2.549431 1_554
Li2 O13 2.018525 1_555
Li2 O7 2.095122 1_555
Li2 O16 2.097178 1_555
Li2 O9 2.467995 1_555
Li2 O2 2.497623 1_555
Li3 O12 1.997409 1_555
Li3 O15 2.096075 1_555
Li3 O4 2.229145 1_555
Li3 O0 2.522795 1_555
Li3 O8 2.629520 1_445
Li4 O9 1.997409 1_555
Li4 O6 2.096075 1_555
Li4 O17 2.229145 1_555
Li4 O18 2.522795 1_555
Li4 O13 2.629520 1_655
Li5 O8 2.018525 1_555
Li5 O14 2.095122 1_555
Li5 O5 2.097178 1_555
Li5 O12 2.467995 1_565
Li5 O21 2.497623 1_555
Li6 O23 2.205215 1_555
Li6 O16 2.205215 1_555
Li6 O24 2.288833 1_555
Li6 O15 2.288833 1_555
Li6 O26 2.549431 1_555
Li6 O13 2.549431 1_555
Li7 O20 1.872156 1_555
Li7 O19 1.895082 1_555
Li7 O22 2.414475 1_455
Li7 O17 2.414475 1_455
Li8 O31 2.018525 1_555
Li8 O25 2.095122 1_555
Li8 O34 2.097178 1_555
Li8 O27 2.467995 1_565
Li8 O21 2.497623 1_555
Li9 O30 1.997409 1_555
Li9 O33 2.096075 1_555
Li9 O22 2.229145 1_555
Li9 O18 2.522795 1_555
Li9 O26 2.629520 1_655
Li10 O27 1.997409 1_555
Li10 O24 2.096075 1_555
Li10 O35 2.229145 1_555
Li10 O0 2.522795 1_556
Li10 O31 2.629520 1_445
Li11 O26 2.018525 1_555
Li11 O32 2.095122 1_555
Li11 O23 2.097178 1_555
Li11 O30 2.467995 1_555
Li11 O2 2.497623 1_556
Mn0 O7 2.119393 1_555
Mn0 O32 2.119393 1_554
Mn0 O4 2.147778 1_555
Mn0 O35 2.147778 1_554
Mn0 O0 2.263241 1_555
Mn0 O2 2.282667 1_555
Mn1 O8 2.196962 1_545
Mn1 O31 2.196962 1_544
Mn1 O1 2.197657 1_555
Mn1 O4 2.308088 1_655
Mn1 O35 2.308088 1_654
Mn1 O0 2.327012 1_655
Mn2 O3 2.161065 1_555
Mn2 O9 2.227703 1_555
Mn2 O30 2.227703 1_554
Mn2 O7 2.303937 1_555
Mn2 O32 2.303937 1_554
Mn2 O2 2.353285 1_555
Mn3 O26 2.196962 1_555
Mn3 O13 2.196962 1_555
Mn3 O19 2.197657 1_555
Mn3 O22 2.308088 1_455
Mn3 O17 2.308088 1_455
Mn3 O18 2.327012 1_455
Mn4 O20 2.161065 1_555
Mn4 O27 2.227703 1_565
Mn4 O12 2.227703 1_565
Mn4 O25 2.303937 1_555
Mn4 O14 2.303937 1_555
Mn4 O21 2.353285 1_555
Mn5 O25 2.119393 1_555
Mn5 O14 2.119393 1_555
Mn5 O22 2.147778 1_555
Mn5 O17 2.147778 1_555
Mn5 O18 2.263241 1_555
Mn5 O21 2.282667 1_555
O0 Si1 1.620794 1_545
O1 Si1 1.616585 1_545
O2 Si0 1.614684 1_455
O3 Si0 1.615316 1_555
O4 Si5 1.624740 1_455
O5 Si3 1.667560 1_555
O5 Si1 1.668752 1_555
O6 Si2 1.666516 1_655
O6 Si0 1.668966 1_555
O7 Si4 1.621728 1_555
O8 Si2 1.625450 1_655
O9 Si3 1.624211 1_555
O10 Si5 1.622388 1_555
O10 Si4 1.630426 1_555
O11 Si2 1.622388 1_555
O11 Si3 1.630426 1_555
O12 Si4 1.624211 1_555
O13 Si5 1.625450 1_455
O14 Si3 1.621728 1_555
O15 Si5 1.666516 1_455
O15 Si7 1.668966 1_555
O16 Si4 1.667560 1_555
O16 Si6 1.668752 1_555
O17 Si2 1.624740 1_655
O18 Si6 1.620794 1_555
O19 Si6 1.616585 1_555
O20 Si7 1.615316 1_565
O21 Si7 1.614684 1_665
O22 Si11 1.624740 1_655
O23 Si9 1.667560 1_555
O23 Si6 1.668752 1_555
O24 Si8 1.666516 1_455
O24 Si7 1.668966 1_555
O25 Si10 1.621728 1_555
O26 Si8 1.625450 1_455
O27 Si9 1.624211 1_555
O28 Si11 1.622388 1_555
O28 Si10 1.630426 1_555
O29 Si8 1.622388 1_555
O29 Si9 1.630426 1_555
O30 Si10 1.624211 1_555
O31 Si11 1.625450 1_655
O32 Si9 1.621728 1_555
O33 Si11 1.666516 1_655
O33 Si0 1.668966 1_556
O34 Si10 1.667560 1_555
O34 Si1 1.668752 1_556
O35 Si8 1.624740 1_455
