# generated using pymatgen
data_Li4Ti3V3(SnO8)2
_symmetry_space_group_name_H-M   'P 1'
_cell_length_a   6.01283618
_cell_length_b   6.01283618
_cell_length_c   9.85820461
_cell_angle_alpha   89.32181693
_cell_angle_beta   89.32181693
_cell_angle_gamma   59.98188789
_symmetry_Int_Tables_number   1
_chemical_formula_structural   Li4Ti3V3(SnO8)2
_chemical_formula_sum   'Li4 Ti3 V3 Sn2 O16'
_cell_volume   308.57969947
_cell_formula_units_Z   1
loop_
 _symmetry_equiv_pos_site_id
 _symmetry_equiv_pos_as_xyz
  1  'x, y, z'
loop_
 _atom_site_type_symbol
 _atom_site_label
 _atom_site_symmetry_multiplicity
 _atom_site_fract_x
 _atom_site_fract_y
 _atom_site_fract_z
 _atom_site_occupancy
  Li  Li0  1  0.66569600  0.66569600  0.10442900  1
  Li  Li1  1  0.99803200  0.99803200  0.00680500  1
  Li  Li2  1  0.00259600  0.00259600  0.50866000  1
  Li  Li3  1  0.33248300  0.33248300  0.60245000  1
  Ti  Ti0  1  0.34164400  0.83342400  0.78486600  1
  Ti  Ti1  1  0.83342400  0.34164400  0.78486600  1
  Ti  Ti2  1  0.17022800  0.17022800  0.28247400  1
  V  V0  1  0.82435100  0.82435100  0.78809500  1
  V  V1  1  0.17066300  0.65944400  0.28688100  1
  V  V2  1  0.65944400  0.17066300  0.28688100  1
  Sn  Sn0  1  0.66925100  0.66925100  0.50628900  1
  Sn  Sn1  1  0.33824300  0.33824300  0.00974500  1
  O  O0  1  0.32660900  0.84443100  0.39895400  1
  O  O1  1  0.51846000  0.51846000  0.66630100  1
  O  O2  1  0.65166500  0.65166500  0.89739600  1
  O  O3  1  0.00538500  0.00538500  0.69528500  1
  O  O4  1  0.00395100  0.00395100  0.19199300  1
  O  O5  1  0.84443100  0.32660900  0.39895400  1
  O  O6  1  0.50483200  0.96390300  0.65672000  1
  O  O7  1  0.96390300  0.50483200  0.65672000  1
  O  O8  1  0.16552700  0.16552700  0.89610700  1
  O  O9  1  0.84283800  0.84283800  0.40284400  1
  O  O10  1  0.03472100  0.47341600  0.16034100  1
  O  O11  1  0.47341600  0.03472100  0.16034100  1
  O  O12  1  0.32650900  0.32650900  0.39389100  1
  O  O13  1  0.16921100  0.67874000  0.90072600  1
  O  O14  1  0.48271300  0.48271300  0.16255000  1
  O  O15  1  0.67874000  0.16921100  0.90072600  1
loop_
_geom_bond_atom_site_label_1
_geom_bond_atom_site_label_2
_geom_bond_distance
_geom_bond_site_symmetry_2
Li0 O14 1.982609 1_555
Li0 O11 2.002761 1_565
Li0 O10 2.002761 1_655
Li0 O2 2.048190 1_554
Li1 O4 1.827504 1_665
Li1 O15 1.970719 1_564
Li1 O13 1.970719 1_654
Li1 O8 2.045065 1_664
Li2 O3 1.840414 1_555
Li2 O9 1.975948 1_445
Li2 O5 1.997589 1_455
Li2 O0 1.997589 1_545
Li3 O6 1.989693 1_545
Li3 O7 1.989693 1_455
Li3 O1 2.044913 1_555
Li3 O12 2.057808 1_555
O0 Ti2 2.041947 1_565
O0 Sn0 2.080309 1_555
O0 V1 2.105772 1_555
O1 Ti1 2.022749 1_555
O1 Ti0 2.022749 1_555
O1 Sn0 2.210710 1_555
O2 Ti0 1.970232 1_555
O2 Ti1 1.970232 1_555
O2 V0 2.084000 1_555
O3 Ti1 1.966186 1_455
O3 Ti0 1.966186 1_545
O3 V0 2.084536 1_445
O4 Ti2 1.958871 1_555
O4 V1 2.017311 1_545
O4 V2 2.017311 1_455
O5 Ti2 2.041947 1_655
O5 Sn0 2.080309 1_555
O5 V2 2.105772 1_555
O6 Ti0 1.972726 1_555
O6 V0 2.119599 1_555
O6 Sn0 2.142545 1_555
O7 Ti1 1.972726 1_555
O7 V0 2.119599 1_555
O7 Sn0 2.142545 1_555
O8 Ti1 2.054292 1_455
O8 Ti0 2.054292 1_545
O8 Sn1 2.132181 1_556
O9 V2 2.051829 1_565
O9 V1 2.051829 1_655
O9 Sn0 2.063589 1_555
O10 Ti2 1.980405 1_555
O10 V1 2.108893 1_555
O10 Sn1 2.162328 1_555
O11 Ti2 1.980405 1_555
O11 V2 2.108893 1_555
O11 Sn1 2.162328 1_555
O12 Ti2 1.976065 1_555
O12 V1 2.023607 1_555
O12 V2 2.023607 1_555
O13 Ti0 2.038694 1_555
O13 Sn1 2.066754 1_556
O13 V0 2.124659 1_455
O14 V2 2.033097 1_555
O14 V1 2.033097 1_555
O14 Sn1 2.143675 1_555
O15 Ti1 2.038694 1_555
O15 Sn1 2.066754 1_556
O15 V0 2.124659 1_545
