# generated using pymatgen
data_NaV2O4
_symmetry_space_group_name_H-M   'P 1'
_cell_length_a   5.01856065
_cell_length_b   5.78265782
_cell_length_c   11.29190410
_cell_angle_alpha   89.99832838
_cell_angle_beta   89.99583028
_cell_angle_gamma   90.00190314
_symmetry_Int_Tables_number   1
_chemical_formula_structural   NaV2O4
_chemical_formula_sum   'Na4 V8 O16'
_cell_volume   327.69804565
_cell_formula_units_Z   4
loop_
 _symmetry_equiv_pos_site_id
 _symmetry_equiv_pos_as_xyz
  1  'x, y, z'
loop_
 _atom_site_type_symbol
 _atom_site_label
 _atom_site_symmetry_multiplicity
 _atom_site_fract_x
 _atom_site_fract_y
 _atom_site_fract_z
 _atom_site_occupancy
  Na  Na0  1  0.02983132  0.74998022  0.25000668  1
  Na  Na1  1  0.97020350  0.25001952  0.74999229  1
  Na  Na2  1  0.35114260  0.74999845  0.74999190  1
  Na  Na3  1  0.64882802  0.25000104  0.25000699  1
  V  V0  1  0.00670321  0.24988904  0.49155359  1
  V  V1  1  0.99328577  0.75009091  0.50844573  1
  V  V2  1  0.49999573  0.00000953  0.50000602  1
  V  V3  1  0.50000865  0.50003220  0.49999980  1
  V  V4  1  0.00669371  0.24998461  0.00845691  1
  V  V5  1  0.99327238  0.75002532  0.99155084  1
  V  V6  1  0.50001901  0.50000805  -0.00000840  1
  V  V7  1  0.50002865  -0.00004325  -0.00000301  1
  O  O0  1  0.34282104  0.24997983  0.09469490  1
  O  O1  1  0.34284726  0.25001590  0.40530182  1
  O  O2  1  0.65715064  0.75001525  0.59469594  1
  O  O3  1  0.65720301  0.74999103  0.90527225  1
  O  O4  1  0.32377663  0.74999170  0.08775233  1
  O  O5  1  0.32380115  0.75007787  0.41224149  1
  O  O6  1  0.67618953  0.24995308  0.58777467  1
  O  O7  1  0.67623386  0.24998357  0.91222337  1
  O  O8  1  0.16769644  0.00203280  0.59459257  1
  O  O9  1  0.16767105  0.00197650  0.90543323  1
  O  O10  1  0.16755826  0.49804195  0.59453590  1
  O  O11  1  0.16763820  0.49805235  0.90544888  1
  O  O12  1  0.83229429  0.99796774  0.40541586  1
  O  O13  1  0.83243301  0.50194021  0.40546530  1
  O  O14  1  0.83232092  0.99796303  0.09458567  1
  O  O15  1  0.83235114  0.50201656  0.09456549  1
loop_
_geom_bond_atom_site_label_1
_geom_bond_atom_site_label_2
_geom_bond_distance
_geom_bond_site_symmetry_2
Na0 O4 2.352144 1_555
Na0 O5 2.352217 1_555
Na0 O12 2.473611 1_455
Na0 O14 2.473680 1_455
Na0 O15 2.473738 1_455
Na0 O13 2.473807 1_455
Na1 O7 2.352016 1_555
Na1 O6 2.352204 1_555
Na1 O8 2.473444 1_655
Na1 O10 2.473643 1_655
Na1 O9 2.473955 1_655
Na1 O11 2.474001 1_655
Na2 O2 2.330904 1_555
Na2 O3 2.331112 1_555
Na2 O8 2.459879 1_565
Na2 O11 2.460019 1_555
Na2 O9 2.460037 1_565
Na2 O10 2.460353 1_555
Na3 O1 2.330804 1_555
Na3 O0 2.331205 1_555
Na3 O12 2.459990 1_545
Na3 O14 2.460122 1_545
Na3 O15 2.460167 1_555
Na3 O13 2.460351 1_555
O0 V4 1.947834 1_555
O0 V6 1.963690 1_555
O0 V7 1.963739 1_555
O1 V0 1.947862 1_555
O1 V2 1.963604 1_555
O1 V3 1.963641 1_555
O2 V1 1.947814 1_555
O2 V3 1.963449 1_555
O2 V2 1.963478 1_565
O3 V5 1.947811 1_555
O3 V6 1.963568 1_556
O3 V7 1.963593 1_566
O4 V7 1.963006 1_565
O4 V6 1.963180 1_555
O4 V5 1.982787 1_454
O5 V2 1.962894 1_565
O5 V3 1.963374 1_555
O5 V1 1.982718 1_455
O6 V2 1.962966 1_555
O6 V3 1.963551 1_555
O6 V0 1.982816 1_655
O7 V7 1.963268 1_556
O7 V6 1.963335 1_556
O7 V4 1.982799 1_656
O8 V1 1.958331 1_445
O8 V2 1.980338 1_555
O8 V0 2.015170 1_555
O9 V5 1.958075 1_445
O9 V7 1.980577 1_556
O9 V4 2.015643 1_556
O10 V1 1.958165 1_455
O10 V3 1.980668 1_555
O10 V0 2.015754 1_555
O11 V5 1.958092 1_455
O11 V6 1.980544 1_556
O11 V4 2.015634 1_556
O12 V0 1.958187 1_665
O12 V2 1.980358 1_565
O12 V1 2.015192 1_555
O13 V0 1.958159 1_655
O13 V3 1.980545 1_555
O13 V1 2.015728 1_555
O14 V4 1.958382 1_665
O14 V7 1.980451 1_565
O14 V5 2.015374 1_554
O15 V4 1.958331 1_655
O15 V6 1.980530 1_555
O15 V5 2.015388 1_554
