# generated using pymatgen
data_Li8Mn2O7
_symmetry_space_group_name_H-M   'P 1'
_cell_length_a   10.11888300
_cell_length_b   7.67150100
_cell_length_c   9.60093142
_cell_angle_alpha   68.59041717
_cell_angle_beta   90.00000000
_cell_angle_gamma   90.00000000
_symmetry_Int_Tables_number   1
_chemical_formula_structural   Li8Mn2O7
_chemical_formula_sum   'Li32 Mn8 O28'
_cell_volume   693.86268464
_cell_formula_units_Z   4
loop_
 _symmetry_equiv_pos_site_id
 _symmetry_equiv_pos_as_xyz
  1  'x, y, z'
loop_
 _atom_site_type_symbol
 _atom_site_label
 _atom_site_symmetry_multiplicity
 _atom_site_fract_x
 _atom_site_fract_y
 _atom_site_fract_z
 _atom_site_occupancy
  Li  Li0  1  0.52812900  0.90230700  0.92250200  1
  Li  Li1  1  0.51858800  0.88638500  0.63282600  1
  Li  Li2  1  0.26922500  0.90556400  0.54611500  1
  Li  Li3  1  0.97187100  0.90230700  0.42250200  1
  Li  Li4  1  0.04320700  0.72808000  0.69401100  1
  Li  Li5  1  0.98141200  0.88638500  0.13282600  1
  Li  Li6  1  0.72108400  0.71474700  0.58794000  1
  Li  Li7  1  0.23077500  0.90556400  0.04611500  1
  Li  Li8  1  0.51764100  0.57949100  0.86619300  1
  Li  Li9  1  0.49197800  0.65209600  0.51910400  1
  Li  Li10  1  0.45679300  0.72808000  0.19401100  1
  Li  Li11  1  0.76151600  0.49230300  0.87708500  1
  Li  Li12  1  0.77891600  0.71474700  0.08794000  1
  Li  Li13  1  0.26151600  0.50769700  0.62291500  1
  Li  Li14  1  0.98235900  0.57949100  0.36619300  1
  Li  Li15  1  0.99197800  0.34790400  0.98089600  1
  Li  Li16  1  0.00802200  0.65209600  0.01910400  1
  Li  Li17  1  0.01764100  0.42050900  0.63380700  1
  Li  Li18  1  0.73848400  0.49230300  0.37708500  1
  Li  Li19  1  0.22108400  0.28525300  0.91206000  1
  Li  Li20  1  0.23848400  0.50769700  0.12291500  1
  Li  Li21  1  0.54320700  0.27192000  0.80598900  1
  Li  Li22  1  0.50802200  0.34790400  0.48089600  1
  Li  Li23  1  0.48235900  0.42050900  0.13380700  1
  Li  Li24  1  0.76922500  0.09443600  0.95388500  1
  Li  Li25  1  0.27891600  0.28525300  0.41206000  1
  Li  Li26  1  0.01858800  0.11361500  0.86717400  1
  Li  Li27  1  0.95679300  0.27192000  0.30598900  1
  Li  Li28  1  0.02812900  0.09769300  0.57749800  1
  Li  Li29  1  0.73077500  0.09443600  0.45388500  1
  Li  Li30  1  0.48141200  0.11361500  0.36717400  1
  Li  Li31  1  0.47187100  0.09769300  0.07749800  1
  Mn  Mn0  1  0.79190700  0.89329400  0.77781300  1
  Mn  Mn1  1  0.70809300  0.89329400  0.27781300  1
  Mn  Mn2  1  0.27680900  0.69384800  0.84287600  1
  Mn  Mn3  1  0.22319100  0.69384800  0.34287600  1
  Mn  Mn4  1  0.77680900  0.30615200  0.65712400  1
  Mn  Mn5  1  0.72319100  0.30615200  0.15712400  1
  Mn  Mn6  1  0.29190700  0.10670600  0.72218700  1
  Mn  Mn7  1  0.20809300  0.10670600  0.22218700  1
  O  O0  1  0.90233600  0.89734600  0.93916300  1
  O  O1  1  0.17021500  0.90392200  0.71843200  1
  O  O2  1  0.88769300  0.87489900  0.61430300  1
  O  O3  1  0.59766400  0.89734600  0.43916300  1
  O  O4  1  0.65802700  0.73233900  0.77359500  1
  O  O5  1  0.32978500  0.90392200  0.21843200  1
  O  O6  1  0.61230700  0.87489900  0.11430300  1
  O  O7  1  0.38684900  0.67233100  0.68962200  1
  O  O8  1  0.84197300  0.73233900  0.27359500  1
  O  O9  1  0.13959100  0.52777700  0.93584300  1
  O  O10  1  0.10091800  0.65971400  0.50524300  1
  O  O11  1  0.11315100  0.67233100  0.18962200  1
  O  O12  1  0.36040900  0.52777700  0.43584300  1
  O  O13  1  0.60091800  0.34028600  0.99475700  1
  O  O14  1  0.39908200  0.65971400  0.00524300  1
  O  O15  1  0.63959100  0.47222300  0.56415700  1
  O  O16  1  0.88684900  0.32766900  0.81037800  1
  O  O17  1  0.89908200  0.34028600  0.49475700  1
  O  O18  1  0.86040900  0.47222300  0.06415700  1
  O  O19  1  0.15802700  0.26766100  0.72640500  1
  O  O20  1  0.61315100  0.32766900  0.31037800  1
  O  O21  1  0.38769300  0.12510100  0.88569700  1
  O  O22  1  0.67021500  0.09607800  0.78156800  1
  O  O23  1  0.34197300  0.26766100  0.22640500  1
  O  O24  1  0.40233600  0.10265400  0.56083700  1
  O  O25  1  0.11230700  0.12510100  0.38569700  1
  O  O26  1  0.82978500  0.09607800  0.28156800  1
  O  O27  1  0.09766400  0.10265400  0.06083700  1
loop_
_geom_bond_atom_site_label_1
_geom_bond_atom_site_label_2
_geom_bond_distance
_geom_bond_site_symmetry_2
Li0 O6 1.969285 1_556
Li0 O21 2.150484 1_565
Li0 O22 2.153898 1_565
Li0 O14 2.172645 1_556
Li1 O24 1.943437 1_565
Li1 O3 1.997586 1_555
Li1 O4 2.011950 1_555
Li1 O7 2.029086 1_555
Li2 O1 1.930218 1_555
Li2 O24 2.067923 1_565
Li2 O7 2.171773 1_555
Li2 O25 2.415793 1_565
Li3 O2 1.969285 1_555
Li3 O25 2.150484 1_665
Li3 O26 2.153898 1_565
Li3 O10 2.172645 1_655
Li4 O2 1.923869 1_455
Li4 O1 1.938374 1_555
Li4 O10 2.143511 1_555
Li4 O9 2.469523 1_555
Li5 O27 1.943437 1_665
Li5 O0 1.997586 1_554
Li5 O8 2.011950 1_555
Li5 O11 2.029086 1_655
Li6 O4 1.943741 1_555
Li6 O3 2.025209 1_555
Li6 O15 2.122224 1_555
Li6 O2 2.154719 1_555
Li7 O5 1.930218 1_555
Li7 O27 2.067923 1_565
Li7 O11 2.171773 1_555
Li7 O21 2.415793 1_564
Li8 O4 1.849920 1_555
Li8 O13 1.986824 1_555
Li8 O14 2.049408 1_556
Li8 O7 2.061848 1_555
Li9 O12 1.969166 1_555
Li9 O15 1.971429 1_555
Li9 O7 2.005362 1_555
Li9 O3 2.053853 1_555
Li10 O6 1.923869 1_555
Li10 O5 1.938374 1_555
Li10 O14 2.143511 1_555
Li10 O12 2.469523 1_555
Li11 O18 2.012204 1_556
Li11 O4 2.034448 1_555
Li11 O16 2.050430 1_555
Li11 O13 2.077344 1_555
Li12 O8 1.943741 1_555
Li12 O0 2.025209 1_554
Li12 O18 2.122224 1_555
Li12 O6 2.154719 1_555
Li13 O12 2.012204 1_555
Li13 O19 2.034448 1_555
Li13 O7 2.050430 1_555
Li13 O10 2.077344 1_555
Li14 O8 1.849920 1_555
Li14 O17 1.986824 1_555
Li14 O10 2.049408 1_655
Li14 O11 2.061848 1_655
Li15 O18 1.969166 1_556
Li15 O9 1.971429 1_655
Li15 O16 2.005362 1_555
Li15 O27 2.053853 1_656
Li16 O9 1.969166 1_554
Li16 O18 1.971429 1_455
Li16 O11 2.005362 1_555
Li16 O0 2.053853 1_454
Li17 O19 1.849920 1_555
Li17 O10 1.986824 1_555
Li17 O17 2.049408 1_455
Li17 O16 2.061848 1_455
Li18 O15 2.012204 1_555
Li18 O8 2.034448 1_555
Li18 O20 2.050430 1_555
Li18 O17 2.077344 1_555
Li19 O19 1.943741 1_555
Li19 O27 2.025209 1_556
Li19 O9 2.122224 1_555
Li19 O21 2.154719 1_555
Li20 O9 2.012204 1_554
Li20 O23 2.034448 1_555
Li20 O11 2.050430 1_555
Li20 O14 2.077344 1_555
Li21 O21 1.923869 1_555
Li21 O22 1.938374 1_555
Li21 O13 2.143511 1_555
Li21 O15 2.469523 1_555
Li22 O15 1.969166 1_555
Li22 O12 1.971429 1_555
Li22 O20 2.005362 1_555
Li22 O24 2.053853 1_555
Li23 O23 1.849920 1_555
Li23 O14 1.986824 1_555
Li23 O13 2.049408 1_554
Li23 O20 2.061848 1_555
Li24 O22 1.930218 1_555
Li24 O0 2.067923 1_545
Li24 O16 2.171773 1_555
Li24 O6 2.415793 1_546
Li25 O23 1.943741 1_555
Li25 O24 2.025209 1_555
Li25 O12 2.122224 1_555
Li25 O25 2.154719 1_555
Li26 O0 1.943437 1_445
Li26 O27 1.997586 1_556
Li26 O19 2.011950 1_555
Li26 O16 2.029086 1_455
Li27 O25 1.923869 1_655
Li27 O26 1.938374 1_555
Li27 O17 2.143511 1_555
Li27 O18 2.469523 1_555
Li28 O25 1.969285 1_555
Li28 O2 2.150484 1_445
Li28 O1 2.153898 1_545
Li28 O17 2.172645 1_455
Li29 O26 1.930218 1_555
Li29 O3 2.067923 1_545
Li29 O20 2.171773 1_555
Li29 O2 2.415793 1_545
Li30 O3 1.943437 1_545
Li30 O24 1.997586 1_555
Li30 O23 2.011950 1_555
Li30 O20 2.029086 1_555
Li31 O21 1.969285 1_554
Li31 O6 2.150484 1_545
Li31 O5 2.153898 1_545
Li31 O13 2.172645 1_554
Mn0 O4 1.843380 1_555
Mn0 O2 1.893545 1_555
Mn0 O0 1.919502 1_555
Mn0 O22 1.994650 1_565
Mn1 O8 1.843380 1_555
Mn1 O6 1.893545 1_555
Mn1 O3 1.919502 1_555
Mn1 O26 1.994650 1_565
Mn2 O9 1.875504 1_555
Mn2 O7 1.899834 1_555
Mn2 O14 1.931702 1_556
Mn2 O1 1.944832 1_555
Mn3 O12 1.875504 1_555
Mn3 O11 1.899834 1_555
Mn3 O10 1.931702 1_555
Mn3 O5 1.944832 1_555
Mn4 O15 1.875504 1_555
Mn4 O16 1.899834 1_555
Mn4 O17 1.931702 1_555
Mn4 O22 1.944832 1_555
Mn5 O18 1.875504 1_555
Mn5 O20 1.899834 1_555
Mn5 O13 1.931702 1_554
Mn5 O26 1.944832 1_555
Mn6 O19 1.843380 1_555
Mn6 O21 1.893545 1_555
Mn6 O24 1.919502 1_555
Mn6 O1 1.994650 1_545
Mn7 O23 1.843380 1_555
Mn7 O25 1.893545 1_555
Mn7 O27 1.919502 1_555
Mn7 O5 1.994650 1_545
