# generated using pymatgen
data_Sr7SiB3NO13
_symmetry_space_group_name_H-M   'P 1'
_cell_length_a   10.78702999
_cell_length_b   10.78702999
_cell_length_c   7.04389500
_cell_angle_alpha   90.00000000
_cell_angle_beta   90.00000000
_cell_angle_gamma   119.99999994
_symmetry_Int_Tables_number   1
_chemical_formula_structural   Sr7SiB3NO13
_chemical_formula_sum   'Sr14 Si2 B6 N2 O26'
_cell_volume   709.81844055
_cell_formula_units_Z   2
loop_
 _symmetry_equiv_pos_site_id
 _symmetry_equiv_pos_as_xyz
  1  'x, y, z'
loop_
 _atom_site_type_symbol
 _atom_site_label
 _atom_site_symmetry_multiplicity
 _atom_site_fract_x
 _atom_site_fract_y
 _atom_site_fract_z
 _atom_site_occupancy
  Sr  Sr0  1  0.12522100  0.86462900  0.18032300  1
  Sr  Sr1  1  0.04248700  0.51807600  0.84848100  1
  Sr  Sr2  1  0.47558900  0.95751300  0.84848100  1
  Sr  Sr3  1  0.13537100  0.26059200  0.18032300  1
  Sr  Sr4  1  0.33333300  0.66666700  0.48499000  1
  Sr  Sr5  1  0.48192400  0.52441100  0.84848100  1
  Sr  Sr6  1  0.26059200  0.12522100  0.68032300  1
  Sr  Sr7  1  0.73940800  0.87477900  0.18032300  1
  Sr  Sr8  1  0.51807600  0.47558900  0.34848100  1
  Sr  Sr9  1  0.66666700  0.33333300  0.98499000  1
  Sr  Sr10  1  0.52441100  0.04248700  0.34848100  1
  Sr  Sr11  1  0.86462900  0.73940800  0.68032300  1
  Sr  Sr12  1  0.95751300  0.48192400  0.34848100  1
  Sr  Sr13  1  0.87477900  0.13537100  0.68032300  1
  Si  Si0  1  0.33333300  0.66666700  0.07446400  1
  Si  Si1  1  0.66666700  0.33333300  0.57446400  1
  B  B0  1  0.17416500  0.81202800  0.64097100  1
  B  B1  1  0.18797200  0.36213700  0.64097100  1
  B  B2  1  0.63786300  0.82583500  0.64097100  1
  B  B3  1  0.36213700  0.17416500  0.14097100  1
  B  B4  1  0.81202800  0.63786300  0.14097100  1
  B  B5  1  0.82583500  0.18797200  0.14097100  1
  N  N0  1  0.00000000  0.00000000  0.97629300  1
  N  N1  1  0.00000000  0.00000000  0.47629300  1
  O  O0  1  0.15305000  0.86598300  0.80784800  1
  O  O1  1  0.06941500  0.67858400  0.57593400  1
  O  O2  1  0.29867100  0.88969100  0.53472000  1
  O  O3  1  0.18333700  0.65108000  0.15720900  1
  O  O4  1  0.11030900  0.40898000  0.53472000  1
  O  O5  1  0.33333300  0.66666700  0.83905600  1
  O  O6  1  0.13401700  0.28706700  0.80784800  1
  O  O7  1  0.46774300  0.81666300  0.15720900  1
  O  O8  1  0.34892000  0.53225700  0.15720900  1
  O  O9  1  0.32141600  0.39083100  0.57593400  1
  O  O10  1  0.60916900  0.93058500  0.57593400  1
  O  O11  1  0.28706700  0.15305000  0.30784800  1
  O  O12  1  0.40898000  0.29867100  0.03472000  1
  O  O13  1  0.59102000  0.70132900  0.53472000  1
  O  O14  1  0.71293300  0.84695000  0.80784800  1
  O  O15  1  0.39083100  0.06941500  0.07593400  1
  O  O16  1  0.67858400  0.60916900  0.07593400  1
  O  O17  1  0.65108000  0.46774300  0.65720900  1
  O  O18  1  0.53225700  0.18333700  0.65720900  1
  O  O19  1  0.86598300  0.71293300  0.30784800  1
  O  O20  1  0.66666700  0.33333300  0.33905600  1
  O  O21  1  0.88969100  0.59102000  0.03472000  1
  O  O22  1  0.81666300  0.34892000  0.65720900  1
  O  O23  1  0.70132900  0.11030900  0.03472000  1
  O  O24  1  0.93058500  0.32141600  0.07593400  1
  O  O25  1  0.84695000  0.13401700  0.30784800  1
loop_
_geom_bond_atom_site_label_1
_geom_bond_atom_site_label_2
_geom_bond_distance
_geom_bond_site_symmetry_2
B0 O0 1.380181 1_555
B0 O1 1.390030 1_555
B0 O2 1.393055 1_555
B1 O6 1.380181 1_555
B1 O9 1.390030 1_555
B1 O4 1.393055 1_555
B2 O14 1.380181 1_555
B2 O10 1.390030 1_555
B2 O13 1.393055 1_555
B3 O11 1.380181 1_555
B3 O15 1.390030 1_555
B3 O12 1.393055 1_555
B4 O19 1.380181 1_555
B4 O16 1.390030 1_555
B4 O21 1.393055 1_555
B5 O25 1.380181 1_555
B5 O24 1.390030 1_555
B5 O23 1.393055 1_555
N0 Sr0 2.827506 1_546
N0 Sr7 2.827506 1_446
N0 Sr3 2.827506 1_556
N0 Sr13 3.205567 1_455
N0 Sr6 3.205567 1_555
N0 Sr11 3.205567 1_445
N1 Sr13 2.827506 1_455
N1 Sr6 2.827506 1_555
N1 Sr11 2.827506 1_445
N1 Sr0 3.205567 1_545
N1 Sr7 3.205567 1_445
N1 Sr3 3.205567 1_555
O0 Sr6 2.593941 1_565
O0 Sr0 2.640003 1_556
O0 Sr11 2.846539 1_455
O1 Sr12 2.442031 1_455
O1 Sr1 2.502961 1_555
O1 Sr11 2.701916 1_455
O1 Sr4 2.982893 1_555
O2 Sr10 2.520632 1_565
O2 Sr4 2.636235 1_555
O2 Sr2 2.768690 1_555
O2 Sr6 2.952830 1_565
O2 Sr0 3.049531 1_555
O3 Si0 1.647390 1_555
O3 Sr12 2.575611 1_455
O3 Sr1 2.629848 1_554
O3 Sr0 2.677685 1_555
O3 Sr4 2.775787 1_555
O4 Sr12 2.520632 1_455
O4 Sr4 2.636242 1_555
O4 Sr1 2.768690 1_555
O4 Sr13 2.952830 1_455
O4 Sr3 3.049531 1_555
O5 Si0 1.658189 1_556
O5 Sr4 2.494004 1_555
O5 Sr2 2.718063 1_555
O5 Sr1 2.718063 1_555
O5 Sr5 2.718072 1_555
O6 Sr13 2.593941 1_455
O6 Sr3 2.640003 1_556
O6 Sr6 2.846539 1_555
O7 Si0 1.647394 1_555
O7 Sr10 2.575611 1_565
O7 Sr2 2.629848 1_554
O7 Sr7 2.677685 1_555
O7 Sr4 2.775790 1_555
O8 Si0 1.647400 1_555
O8 Sr8 2.575611 1_555
O8 Sr5 2.629848 1_554
O8 Sr3 2.677685 1_555
O8 Sr4 2.775793 1_555
O9 Sr8 2.442031 1_555
O9 Sr5 2.502961 1_555
O9 Sr6 2.701916 1_555
O9 Sr4 2.982903 1_555
O10 Sr10 2.442031 1_565
O10 Sr2 2.502961 1_555
O10 Sr13 2.701916 1_565
O10 Sr4 2.982898 1_555
O11 Sr3 2.593941 1_555
O11 Sr6 2.640003 1_555
O11 Sr0 2.846539 1_545
O12 Sr5 2.520632 1_554
O12 Sr9 2.636246 1_554
O12 Sr8 2.768690 1_555
O12 Sr3 2.952830 1_555
O12 Sr6 3.049531 1_554
O13 Sr8 2.520632 1_555
O13 Sr4 2.636246 1_555
O13 Sr5 2.768690 1_555
O13 Sr11 2.952830 1_555
O13 Sr7 3.049531 1_555
O14 Sr11 2.593941 1_555
O14 Sr7 2.640003 1_556
O14 Sr13 2.846539 1_565
O15 Sr2 2.442031 1_544
O15 Sr10 2.502961 1_555
O15 Sr0 2.701916 1_545
O15 Sr9 2.982898 1_554
O16 Sr5 2.442031 1_554
O16 Sr8 2.502961 1_555
O16 Sr7 2.701916 1_555
O16 Sr9 2.982903 1_554
O17 Si1 1.647400 1_555
O17 Sr5 2.575611 1_555
O17 Sr8 2.629848 1_555
O17 Sr11 2.677685 1_555
O17 Sr9 2.775793 1_555
O18 Si1 1.647394 1_555
O18 Sr2 2.575611 1_545
O18 Sr10 2.629848 1_555
O18 Sr6 2.677685 1_555
O18 Sr9 2.775790 1_555
O19 Sr0 2.593941 1_655
O19 Sr11 2.640003 1_555
O19 Sr7 2.846539 1_555
O20 Si1 1.658189 1_555
O20 Sr9 2.494004 1_554
O20 Sr10 2.718063 1_555
O20 Sr12 2.718063 1_555
O20 Sr8 2.718072 1_555
O21 Sr1 2.520632 1_654
O21 Sr9 2.636242 1_554
O21 Sr12 2.768690 1_555
O21 Sr0 2.952830 1_655
O21 Sr11 3.049531 1_554
O22 Si1 1.647390 1_555
O22 Sr1 2.575611 1_655
O22 Sr12 2.629848 1_555
O22 Sr13 2.677685 1_555
O22 Sr9 2.775787 1_555
O23 Sr2 2.520632 1_544
O23 Sr9 2.636235 1_554
O23 Sr10 2.768690 1_555
O23 Sr7 2.952830 1_545
O23 Sr13 3.049531 1_554
O24 Sr1 2.442031 1_654
O24 Sr12 2.502961 1_555
O24 Sr3 2.701916 1_655
O24 Sr9 2.982893 1_554
O25 Sr7 2.593941 1_545
O25 Sr13 2.640003 1_555
O25 Sr3 2.846539 1_655
