# generated using pymatgen
data_NbVO4
_symmetry_space_group_name_H-M   'P 1'
_cell_length_a   4.59267652
_cell_length_b   4.87993303
_cell_length_c   11.70238024
_cell_angle_alpha   90.00035750
_cell_angle_beta   90.02925526
_cell_angle_gamma   90.00065221
_symmetry_Int_Tables_number   1
_chemical_formula_structural   NbVO4
_chemical_formula_sum   'Nb4 V4 O16'
_cell_volume   262.27317155
_cell_formula_units_Z   4
loop_
 _symmetry_equiv_pos_site_id
 _symmetry_equiv_pos_as_xyz
  1  'x, y, z'
loop_
 _atom_site_type_symbol
 _atom_site_label
 _atom_site_symmetry_multiplicity
 _atom_site_fract_x
 _atom_site_fract_y
 _atom_site_fract_z
 _atom_site_occupancy
  Nb  Nb0  1  0.49862512  0.25434057  0.67411255  1
  Nb  Nb1  1  -0.00138473  0.24565285  0.17411721  1
  Nb  Nb2  1  -0.00157269  0.74748925  0.82599344  1
  Nb  Nb3  1  0.49840580  0.75251016  0.32596437  1
  V  V0  1  -0.00149112  0.25224210  0.43794117  1
  V  V1  1  0.49838768  0.74704855  0.06207553  1
  V  V2  1  0.49850484  0.24777165  0.93799158  1
  V  V3  1  -0.00161955  0.75295372  0.56205226  1
  O  O0  1  0.27565835  0.07476524  0.81124656  1
  O  O1  1  0.77560341  0.42519738  0.31121312  1
  O  O2  1  0.72995586  0.42466247  0.80999029  1
  O  O3  1  0.77549447  0.92550064  0.68871356  1
  O  O4  1  0.23002157  0.07539141  0.30996529  1
  O  O5  1  0.27545058  0.57450058  0.18872094  1
  O  O6  1  0.22970905  0.57575556  0.68997796  1
  O  O7  1  0.72978280  0.92420241  0.18997357  1
  O  O8  1  0.25415913  0.57722621  0.93714022  1
  O  O9  1  0.75428722  0.92277350  0.43705747  1
  O  O10  1  0.74329072  0.91782931  0.93930499  1
  O  O11  1  0.75433153  0.42276248  0.56271355  1
  O  O12  1  0.24318848  0.58219643  0.43923292  1
  O  O13  1  0.25440099  0.07720959  0.06277847  1
  O  O14  1  0.24342127  0.08214175  0.56083494  1
  O  O15  1  0.74338627  0.41787619  0.06089003  1
loop_
_geom_bond_atom_site_label_1
_geom_bond_atom_site_label_2
_geom_bond_distance
_geom_bond_site_symmetry_2
Nb0 O11 1.937956 1_555
Nb0 O14 1.958448 1_555
Nb0 O6 2.005049 1_555
Nb0 O3 2.054515 1_545
Nb0 O2 2.084757 1_555
Nb0 O0 2.096085 1_555
Nb1 O13 1.937752 1_555
Nb1 O15 1.958188 1_455
Nb1 O7 2.004918 1_445
Nb1 O5 2.054427 1_555
Nb1 O4 2.084569 1_555
Nb1 O1 2.095784 1_455
Nb2 O8 1.939080 1_555
Nb2 O10 1.955481 1_455
Nb2 O2 2.009200 1_455
Nb2 O0 2.049821 1_565
Nb2 O6 2.089463 1_555
Nb2 O3 2.093347 1_455
Nb3 O9 1.939058 1_555
Nb3 O12 1.955303 1_555
Nb3 O4 2.009182 1_565
Nb3 O1 2.049890 1_555
Nb3 O7 2.089382 1_555
Nb3 O5 2.093048 1_555
O0 V2 1.989623 1_555
O1 V0 1.989526 1_655
O2 V2 2.029890 1_555
O3 V3 1.988825 1_655
O4 V0 2.029738 1_555
O5 V1 1.988807 1_555
O6 V3 2.028790 1_555
O7 V1 2.028601 1_555
O8 V2 1.960667 1_555
O8 V1 2.020089 1_556
O9 V0 1.960378 1_665
O9 V3 2.020260 1_655
O10 V2 1.963809 1_565
O10 V1 2.006343 1_556
O11 V3 1.962811 1_655
O11 V0 2.020818 1_655
O12 V0 1.963555 1_555
O12 V3 2.006463 1_555
O13 V1 1.962550 1_545
O13 V2 2.020834 1_554
O14 V3 1.961443 1_545
O14 V0 2.005211 1_555
O15 V1 1.961287 1_555
O15 V2 2.005161 1_554
