# generated using pymatgen
data_LiCoSiO4
_symmetry_space_group_name_H-M   'P 1'
_cell_length_a   5.21172300
_cell_length_b   6.56179000
_cell_length_c   10.45364100
_cell_angle_alpha   90.00000000
_cell_angle_beta   90.00000000
_cell_angle_gamma   90.00000000
_symmetry_Int_Tables_number   1
_chemical_formula_structural   LiCoSiO4
_chemical_formula_sum   'Li4 Co4 Si4 O16'
_cell_volume   357.49603874
_cell_formula_units_Z   4
loop_
 _symmetry_equiv_pos_site_id
 _symmetry_equiv_pos_as_xyz
  1  'x, y, z'
loop_
 _atom_site_type_symbol
 _atom_site_label
 _atom_site_symmetry_multiplicity
 _atom_site_fract_x
 _atom_site_fract_y
 _atom_site_fract_z
 _atom_site_occupancy
  Li  Li0  1  0.29209200  0.88058900  0.08658700  1
  Li  Li1  1  0.79209200  0.38058900  0.41341300  1
  Li  Li2  1  0.20790800  0.88058900  0.58658700  1
  Li  Li3  1  0.70790800  0.38058900  0.91341300  1
  Co  Co0  1  0.17655200  0.36481900  0.08917800  1
  Co  Co1  1  0.67655200  0.86481900  0.41082200  1
  Co  Co2  1  0.32344800  0.36481900  0.58917800  1
  Co  Co3  1  0.82344800  0.86481900  0.91082200  1
  Si  Si0  1  0.67670200  0.61565500  0.15767100  1
  Si  Si1  1  0.17670200  0.11565500  0.34232900  1
  Si  Si2  1  0.82329800  0.61565500  0.65767100  1
  Si  Si3  1  0.32329800  0.11565500  0.84232900  1
  O  O0  1  0.74887300  0.82912200  0.08328400  1
  O  O1  1  0.82314200  0.42025200  0.09143800  1
  O  O2  1  0.36404400  0.59257200  0.13673000  1
  O  O3  1  0.24269500  0.13254900  0.18880900  1
  O  O4  1  0.74269500  0.63254900  0.31119100  1
  O  O5  1  0.86404400  0.09257200  0.36327000  1
  O  O6  1  0.32314200  0.92025200  0.40856200  1
  O  O7  1  0.24887300  0.32912200  0.41671600  1
  O  O8  1  0.75112700  0.82912200  0.58328400  1
  O  O9  1  0.67685800  0.42025200  0.59143800  1
  O  O10  1  0.13595600  0.59257200  0.63673000  1
  O  O11  1  0.25730500  0.13254900  0.68880900  1
  O  O12  1  0.75730500  0.63254900  0.81119100  1
  O  O13  1  0.63595600  0.09257200  0.86327000  1
  O  O14  1  0.17685800  0.92025200  0.90856200  1
  O  O15  1  0.25112700  0.32912200  0.91671600  1
loop_
_geom_bond_atom_site_label_1
_geom_bond_atom_site_label_2
_geom_bond_distance
_geom_bond_site_symmetry_2
Li0 O14 1.972758 1_554
Li0 O3 1.985345 1_565
Li0 O2 1.996780 1_555
Li0 O0 2.404699 1_555
Li1 O9 1.972758 1_555
Li1 O4 1.985345 1_555
Li1 O5 1.996780 1_555
Li1 O7 2.404699 1_655
Li2 O6 1.972758 1_555
Li2 O11 1.985345 1_565
Li2 O10 1.996780 1_555
Li2 O8 2.404699 1_455
Li3 O1 1.972758 1_556
Li3 O12 1.985345 1_555
Li3 O13 1.996780 1_555
Li3 O15 2.404699 1_555
Co0 O2 1.853474 1_555
Co0 O15 1.859090 1_554
Co0 O1 1.877596 1_455
Co0 O3 1.877890 1_555
Co1 O5 1.853474 1_565
Co1 O8 1.859090 1_555
Co1 O6 1.877596 1_555
Co1 O4 1.877890 1_555
Co2 O10 1.853474 1_555
Co2 O7 1.859090 1_555
Co2 O9 1.877596 1_555
Co2 O11 1.877890 1_555
Co3 O13 1.853474 1_565
Co3 O0 1.859090 1_556
Co3 O14 1.877596 1_655
Co3 O12 1.877890 1_555
O0 Si0 1.645659 1_555
O1 Si0 1.644958 1_555
O2 Si0 1.651088 1_555
O3 Si1 1.645024 1_555
O4 Si0 1.645024 1_555
O5 Si1 1.651088 1_655
O6 Si1 1.644958 1_565
O7 Si1 1.645659 1_555
O8 Si2 1.645659 1_555
O9 Si2 1.644958 1_555
O10 Si2 1.651088 1_455
O11 Si3 1.645024 1_555
O12 Si2 1.645024 1_555
O13 Si3 1.651088 1_555
O14 Si3 1.644958 1_565
O15 Si3 1.645659 1_555
