# generated using pymatgen
data_Li3Ni2(PO4)3
_symmetry_space_group_name_H-M   'P 1'
_cell_length_a   9.77668357
_cell_length_b   9.77668357
_cell_length_c   9.74895014
_cell_angle_alpha   86.60846923
_cell_angle_beta   86.60846923
_cell_angle_gamma   86.32193939
_symmetry_Int_Tables_number   1
_chemical_formula_structural   Li3Ni2(PO4)3
_chemical_formula_sum   'Li12 Ni8 P12 O48'
_cell_volume   926.85647552
_cell_formula_units_Z   4
loop_
 _symmetry_equiv_pos_site_id
 _symmetry_equiv_pos_as_xyz
  1  'x, y, z'
loop_
 _atom_site_type_symbol
 _atom_site_label
 _atom_site_symmetry_multiplicity
 _atom_site_fract_x
 _atom_site_fract_y
 _atom_site_fract_z
 _atom_site_occupancy
  Li  Li0  1  0.27256200  0.45005900  0.60101600  1
  Li  Li1  1  0.31667200  0.98085700  0.53663000  1
  Li  Li2  1  0.84686100  0.76956500  0.71517100  1
  Li  Li3  1  0.54994100  0.72743800  0.39898400  1
  Li  Li4  1  0.01914300  0.68332800  0.46337000  1
  Li  Li5  1  0.46564900  0.26628000  0.09603700  1
  Li  Li6  1  0.66308800  0.02513600  0.97759000  1
  Li  Li7  1  0.97486400  0.33691200  0.02241000  1
  Li  Li8  1  0.23043500  0.15313900  0.28482900  1
  Li  Li9  1  0.73372000  0.53435100  0.90396300  1
  Li  Li10  1  0.01315600  0.45887500  0.74452300  1
  Li  Li11  1  0.54112500  0.98684400  0.25547700  1
  Ni  Ni0  1  0.75504300  0.47204000  0.28653500  1
  Ni  Ni1  1  0.03191200  0.96808800  0.00000000  1
  Ni  Ni2  1  0.25112000  0.53466800  0.21895800  1
  Ni  Ni3  1  0.52796000  0.24495700  0.71346500  1
  Ni  Ni4  1  0.46533200  0.74888000  0.78104200  1
  Ni  Ni5  1  0.74860800  0.25139200  0.50000000  1
  Ni  Ni6  1  0.24926500  0.75073500  0.00000000  1
  Ni  Ni7  1  0.96514000  0.03486000  0.50000000  1
  P  P0  1  0.17235300  0.85617700  0.29991500  1
  P  P1  1  0.67052500  0.54655700  0.60653300  1
  P  P2  1  0.82482400  0.15409300  0.20285400  1
  P  P3  1  0.04854600  0.35262200  0.42467200  1
  P  P4  1  0.35507900  0.04477500  0.92171300  1
  P  P5  1  0.14382300  0.82764700  0.70008500  1
  P  P6  1  0.54914700  0.67595500  0.10279100  1
  P  P7  1  0.32404500  0.45085300  0.89720900  1
  P  P8  1  0.64737800  0.95145400  0.57532800  1
  P  P9  1  0.95522500  0.64492100  0.07828700  1
  P  P10  1  0.45344300  0.32947500  0.39346700  1
  P  P11  1  0.84590700  0.17517600  0.79714600  1
  O  O0  1  0.61393400  0.33588800  0.37205100  1
  O  O1  1  0.62214000  0.11194900  0.57954400  1
  O  O2  1  0.88805100  0.37786000  0.42045600  1
  O  O3  1  0.89332300  0.03460700  0.86539900  1
  O  O4  1  0.30653400  0.40736000  0.05284900  1
  O  O5  1  0.91402600  0.54707700  0.97270300  1
  O  O6  1  0.46473800  0.38117700  0.85183200  1
  O  O7  1  0.87638300  0.17088900  0.63681900  1
  O  O8  1  0.11639200  0.39669800  0.28249300  1
  O  O9  1  0.10739000  0.97153100  0.63118300  1
  O  O10  1  0.68852200  0.18299100  0.83599100  1
  O  O11  1  0.58105100  0.79192700  0.19186800  1
  O  O12  1  0.82911100  0.12361700  0.36318100  1
  O  O13  1  0.77890500  0.58799700  0.70156400  1
  O  O14  1  0.81700900  0.31147800  0.16400900  1
  O  O15  1  0.66411200  0.38606600  0.62794900  1
  O  O16  1  0.91509200  0.29849000  0.84378300  1
  O  O17  1  0.52579200  0.61319500  0.64264000  1
  O  O18  1  0.16500400  0.87667900  0.13885200  1
  O  O19  1  0.96539300  0.10667700  0.13460100  1
  O  O20  1  0.91080600  0.79654500  0.04199100  1
  O  O21  1  0.09016200  0.19642400  0.43853100  1
  O  O22  1  0.70151000  0.08490800  0.15621700  1
  O  O23  1  0.04859700  0.72044300  0.65815300  1
  O  O24  1  0.38804100  0.66617800  0.12563800  1
  O  O25  1  0.11668300  0.62324500  0.08276200  1
  O  O26  1  0.45292300  0.08597400  0.02729700  1
  O  O27  1  0.12332100  0.83499600  0.86114800  1
  O  O28  1  0.37675500  0.88331700  0.91723800  1
  O  O29  1  0.20345500  0.08919400  0.95800900  1
  O  O30  1  0.89514600  0.60782200  0.22514100  1
  O  O31  1  0.60330200  0.88360800  0.71750700  1
  O  O32  1  0.39217800  0.10485400  0.77485900  1
  O  O33  1  0.29830600  0.80223200  0.65700500  1
  O  O34  1  0.80357600  0.90983800  0.56146900  1
  O  O35  1  0.09000500  0.43837400  0.54033700  1
  O  O36  1  0.40819400  0.30059900  0.54720900  1
  O  O37  1  0.61882300  0.53526200  0.14816800  1
  O  O38  1  0.02846900  0.89261000  0.36881700  1
  O  O39  1  0.59264000  0.69346600  0.94715100  1
  O  O40  1  0.56162600  0.90999500  0.45966300  1
  O  O41  1  0.27955700  0.95140300  0.34184700  1
  O  O42  1  0.19776800  0.70169400  0.34299500  1
  O  O43  1  0.41200300  0.22109500  0.29843600  1
  O  O44  1  0.33382200  0.61195900  0.87436200  1
  O  O45  1  0.38680500  0.47420800  0.35736000  1
  O  O46  1  0.20807300  0.41894900  0.80813200  1
  O  O47  1  0.69940100  0.59180600  0.45279100  1
loop_
_geom_bond_atom_site_label_1
_geom_bond_atom_site_label_2
_geom_bond_distance
_geom_bond_site_symmetry_2
Li0 O35 1.925509 1_555
Li0 O36 1.982042 1_555
Li0 O46 2.090063 1_555
Li1 O41 1.995033 1_555
Li1 O33 2.057184 1_555
Li1 O9 2.198934 1_555
Li1 O40 2.532639 1_555
Li2 O13 1.949283 1_555
Li2 O34 2.015581 1_555
Li2 O23 2.051822 1_655
Li2 O31 2.563148 1_555
Li3 O40 1.925509 1_555
Li3 O47 1.982042 1_555
Li3 O11 2.090063 1_555
Li4 O23 1.995033 1_555
Li4 O42 2.057184 1_555
Li4 O38 2.198934 1_555
Li4 O35 2.532639 1_555
Li5 O26 1.936438 1_555
Li5 O43 2.041521 1_555
Li5 O4 2.057466 1_555
Li6 O22 1.934199 1_556
Li6 O10 2.026271 1_555
Li6 O26 2.137747 1_556
Li6 O3 2.448474 1_555
Li7 O16 1.934199 1_554
Li7 O14 2.026271 1_555
Li7 O5 2.137747 1_554
Li7 O19 2.448474 1_555
Li8 O43 1.949283 1_555
Li8 O21 2.015581 1_555
Li8 O41 2.051822 1_545
Li8 O8 2.563148 1_555
Li9 O5 1.936438 1_555
Li9 O13 2.041521 1_555
Li9 O39 2.057466 1_555
Li10 O46 2.045515 1_555
Li10 O16 2.053752 1_455
Li10 O35 2.101924 1_555
Li10 O5 2.548725 1_455
Li11 O11 2.045515 1_555
Li11 O22 2.053752 1_565
Li11 O40 2.101924 1_555
Li11 O26 2.548725 1_565
Ni0 O37 1.995895 1_555
Ni0 O30 2.009717 1_555
Ni0 O2 2.036757 1_555
Ni0 O14 2.066937 1_555
Ni0 O47 2.081474 1_555
Ni0 O0 2.082875 1_555
Ni1 O19 1.994257 1_465
Ni1 O3 1.994257 1_464
Ni1 O18 2.059187 1_555
Ni1 O27 2.059187 1_554
Ni1 O20 2.120943 1_455
Ni1 O29 2.120943 1_564
Ni2 O45 1.986574 1_555
Ni2 O8 1.992668 1_555
Ni2 O25 2.040789 1_555
Ni2 O24 2.052086 1_555
Ni2 O42 2.109643 1_555
Ni2 O4 2.124439 1_555
Ni3 O6 1.995895 1_555
Ni3 O32 2.009717 1_555
Ni3 O1 2.036757 1_555
Ni3 O10 2.066937 1_555
Ni3 O36 2.081474 1_555
Ni3 O15 2.082875 1_555
Ni4 O17 1.986574 1_555
Ni4 O31 1.992668 1_555
Ni4 O28 2.040789 1_555
Ni4 O44 2.052086 1_555
Ni4 O33 2.109643 1_555
Ni4 O39 2.124439 1_555
Ni5 O15 1.976060 1_555
Ni5 O0 1.976060 1_555
Ni5 O7 1.976339 1_555
Ni5 O12 1.976339 1_555
Ni5 O2 1.991589 1_555
Ni5 O1 1.991589 1_555
Ni6 O25 1.961964 1_555
Ni6 O28 1.961964 1_554
Ni6 O24 1.989316 1_555
Ni6 O44 1.989316 1_554
Ni6 O18 1.990552 1_555
Ni6 O27 1.990552 1_554
Ni7 O9 1.989808 1_645
Ni7 O38 1.989808 1_645
Ni7 O7 2.055642 1_555
Ni7 O12 2.055642 1_555
Ni7 O21 2.096947 1_655
Ni7 O34 2.096947 1_545
O0 P10 1.575377 1_555
O1 P8 1.575256 1_545
O2 P3 1.575256 1_655
O3 P11 1.546903 1_555
O4 P7 1.553920 1_554
O5 P9 1.533565 1_556
O6 P7 1.547645 1_555
O7 P11 1.576265 1_555
O8 P3 1.550532 1_555
O9 P5 1.552139 1_555
O10 P11 1.560850 1_555
O11 P6 1.526727 1_555
O12 P2 1.576265 1_555
O13 P1 1.536503 1_555
O14 P2 1.560850 1_555
O15 P1 1.575377 1_555
O16 P11 1.524328 1_555
O17 P1 1.549365 1_555
O18 P0 1.576424 1_555
O19 P2 1.546903 1_555
O20 P9 1.544272 1_555
O21 P3 1.555056 1_555
O22 P2 1.524328 1_555
O23 P5 1.534044 1_555
O24 P6 1.585850 1_555
O25 P9 1.581988 1_455
O26 P4 1.533565 1_554
O27 P5 1.576424 1_555
O28 P4 1.581988 1_565
O29 P4 1.544272 1_555
O30 P9 1.546818 1_555
O31 P8 1.550532 1_555
O32 P4 1.546818 1_555
O33 P5 1.551894 1_555
O34 P8 1.555056 1_555
O35 P3 1.532383 1_555
O36 P10 1.552219 1_555
O37 P6 1.547645 1_555
O38 P0 1.552139 1_555
O39 P6 1.553920 1_556
O40 P8 1.532383 1_555
O41 P0 1.534044 1_555
O42 P0 1.551894 1_555
O43 P10 1.536503 1_555
O44 P7 1.585850 1_555
O45 P10 1.549365 1_555
O46 P7 1.526727 1_555
O47 P1 1.552219 1_555
