# generated using pymatgen
data_Fe4O3F5
_symmetry_space_group_name_H-M   'P 1'
_cell_length_a   4.80889854
_cell_length_b   4.80889854
_cell_length_c   6.19003700
_cell_angle_alpha   90.00000000
_cell_angle_beta   90.00000000
_cell_angle_gamma   94.03397587
_symmetry_Int_Tables_number   1
_chemical_formula_structural   Fe4O3F5
_chemical_formula_sum   'Fe4 O3 F5'
_cell_volume   142.79308573
_cell_formula_units_Z   1
loop_
 _symmetry_equiv_pos_site_id
 _symmetry_equiv_pos_as_xyz
  1  'x, y, z'
loop_
 _atom_site_type_symbol
 _atom_site_label
 _atom_site_symmetry_multiplicity
 _atom_site_fract_x
 _atom_site_fract_y
 _atom_site_fract_z
 _atom_site_occupancy
  Fe  Fe0  1  0.98891800  0.98891800  0.00000000  1
  Fe  Fe1  1  0.02294800  0.02294800  0.50000000  1
  Fe  Fe2  1  0.48811800  0.48811800  0.23807000  1
  Fe  Fe3  1  0.48811800  0.48811800  0.76193000  1
  O  O0  1  0.29015400  0.29015400  0.00000000  1
  O  O1  1  0.32888700  0.32888700  0.50000000  1
  O  O2  1  0.69432200  0.69432200  0.00000000  1
  F  F0  1  0.79942400  0.19684300  0.24161200  1
  F  F1  1  0.79942400  0.19684300  0.75838800  1
  F  F2  1  0.70599600  0.70599600  0.50000000  1
  F  F3  1  0.19684300  0.79942400  0.75838800  1
  F  F4  1  0.19684300  0.79942400  0.24161200  1
loop_
_geom_bond_atom_site_label_1
_geom_bond_atom_site_label_2
_geom_bond_distance
_geom_bond_site_symmetry_2
Fe0 O2 1.931735 1_555
Fe0 O0 1.975276 1_665
Fe1 O1 2.006114 1_555
Fe2 O1 1.928464 1_555
Fe2 O0 1.963857 1_555
Fe2 O2 1.999983 1_555
Fe3 O1 1.928464 1_555
Fe3 O0 1.963857 1_556
Fe3 O2 1.999983 1_556
F0 Fe0 2.048206 1_545
F0 Fe2 2.120997 1_555
F0 Fe1 2.130580 1_655
F1 Fe0 2.048206 1_546
F1 Fe3 2.120997 1_555
F1 Fe1 2.130580 1_655
F2 Fe1 2.078329 1_665
F2 Fe2 2.160999 1_555
F2 Fe3 2.160999 1_555
F3 Fe0 2.048206 1_456
F3 Fe3 2.120997 1_555
F3 Fe1 2.130580 1_565
F4 Fe0 2.048206 1_455
F4 Fe2 2.120997 1_555
F4 Fe1 2.130580 1_565
