# generated using pymatgen
data_Na5LiV6O18
_symmetry_space_group_name_H-M   'P 1'
_cell_length_a   8.09750000
_cell_length_b   10.34680037
_cell_length_c   11.18846101
_cell_angle_alpha   90.39141145
_cell_angle_beta   102.72343605
_cell_angle_gamma   110.46319168
_symmetry_Int_Tables_number   1
_chemical_formula_structural   Na5LiV6O18
_chemical_formula_sum   'Na10 Li2 V12 O36'
_cell_volume   853.07447139
_cell_formula_units_Z   2
loop_
 _symmetry_equiv_pos_site_id
 _symmetry_equiv_pos_as_xyz
  1  'x, y, z'
loop_
 _atom_site_type_symbol
 _atom_site_label
 _atom_site_symmetry_multiplicity
 _atom_site_fract_x
 _atom_site_fract_y
 _atom_site_fract_z
 _atom_site_occupancy
  Na  Na0  1  0.05484000  0.94469800  0.13949600  1
  Na  Na1  1  0.15372100  0.84637100  0.44259900  1
  Na  Na2  1  0.17990400  0.82051900  0.89092400  1
  Na  Na3  1  0.38786100  0.61260400  0.47276900  1
  Na  Na4  1  0.51308600  0.48757600  0.22302800  1
  Na  Na5  1  0.61185200  0.38809200  0.52617200  1
  Na  Na6  1  0.48669900  0.51360200  0.77728500  1
  Na  Na7  1  0.82000000  0.17956400  0.10922000  1
  Na  Na8  1  0.72233600  0.27769700  0.80766600  1
  Na  Na9  1  0.84640400  0.15253100  0.55732000  1
  Li  Li0  1  0.28006700  0.71990200  0.18982900  1
  Li  Li1  1  0.94694400  0.05321500  0.85634300  1
  V  V0  1  0.73731900  0.84101300  0.35760700  1
  V  V1  1  0.82316600  0.59873600  0.02161000  1
  V  V2  1  0.48959600  0.93177500  0.68904900  1
  V  V3  1  0.84787400  0.73908400  0.64824700  1
  V  V4  1  0.59206700  0.82495100  0.97562900  1
  V  V5  1  0.92857000  0.49296700  0.30671600  1
  V  V6  1  0.40355900  0.17493000  0.02437600  1
  V  V7  1  0.07347100  0.50905000  0.69210100  1
  V  V8  1  0.15336900  0.26416500  0.35449500  1
  V  V9  1  0.18001800  0.40308300  0.98059100  1
  V  V10  1  0.51180100  0.06625000  0.31159900  1
  V  V11  1  0.25638300  0.15680000  0.64364200  1
  O  O0  1  0.78678300  0.96363900  0.00886300  1
  O  O1  1  0.87674900  0.83038000  0.27178200  1
  O  O2  1  0.86133400  0.84151800  0.51581900  1
  O  O3  1  0.88053800  0.84057500  0.77483100  1
  O  O4  1  0.45360600  0.83138500  0.06493600  1
  O  O5  1  0.31306600  0.93163800  0.28524300  1
  O  O6  1  0.30160600  0.99577600  0.65888200  1
  O  O7  1  0.45736400  0.83558800  0.56012900  1
  O  O8  1  0.53869500  0.70641800  0.31513900  1
  O  O9  1  0.46764000  0.82331500  0.81774100  1
  O  O10  1  0.80151000  0.48966100  0.14947900  1
  O  O11  1  0.79156900  0.50448400  0.39447100  1
  O  O12  1  0.64676500  0.60755500  0.62369800  1
  O  O13  1  0.02883000  0.72619700  0.05020300  1
  O  O14  1  0.96664100  0.32890900  0.32502400  1
  O  O15  1  0.63577200  0.66328600  0.99192800  1
  O  O16  1  0.79070800  0.50222400  0.89275800  1
  O  O17  1  0.87919700  0.37088800  0.65267900  1
  O  O18  1  0.12367500  0.63126300  0.34074100  1
  O  O19  1  0.21033400  0.50448200  0.10678300  1
  O  O20  1  0.03364200  0.67286700  0.67617400  1
  O  O21  1  0.36867300  0.34044000  0.00978200  1
  O  O22  1  0.98168400  0.26791000  0.95422500  1
  O  O23  1  0.35516800  0.39485500  0.37868800  1
  O  O24  1  0.21195900  0.49811900  0.60554600  1
  O  O25  1  0.19610100  0.50835900  0.84982200  1
  O  O26  1  0.52681100  0.17400300  0.18226000  1
  O  O27  1  0.45062000  0.29523100  0.68187700  1
  O  O28  1  0.54113800  0.16287400  0.43991000  1
  O  O29  1  0.70265600  0.00607700  0.34173300  1
  O  O30  1  0.69504500  0.05951800  0.71710500  1
  O  O31  1  0.54321600  0.16380400  0.93886000  1
  O  O32  1  0.12250800  0.16755400  0.22610000  1
  O  O33  1  0.13583200  0.15758100  0.48496500  1
  O  O34  1  0.11637000  0.16241100  0.73171800  1
  O  O35  1  0.20529100  0.04003800  0.98179700  1
loop_
_geom_bond_atom_site_label_1
_geom_bond_atom_site_label_2
_geom_bond_distance
_geom_bond_site_symmetry_2
Na0 O32 2.325561 1_565
Na0 O1 2.332544 1_455
Na0 O13 2.386868 1_555
Na0 O35 2.387630 1_564
Na0 O5 2.397546 1_555
Na0 O0 2.406241 1_455
Na1 O5 2.401821 1_555
Na1 O18 2.403372 1_555
Na1 O7 2.560602 1_555
Na1 O1 2.560891 1_455
Na1 O2 2.655371 1_455
Na1 O6 2.656608 1_555
Na2 O13 2.402931 1_556
Na2 O35 2.405160 1_565
Na2 O3 2.564175 1_455
Na2 O4 2.576283 1_556
Na2 O9 2.625539 1_555
Na2 O20 2.634566 1_555
Na3 O7 2.326824 1_555
Na3 O24 2.327077 1_555
Na3 O23 2.383682 1_555
Na3 O8 2.384883 1_555
Na3 O18 2.386719 1_555
Na3 O12 2.401638 1_555
Na4 O23 2.394736 1_555
Na4 O8 2.403723 1_555
Na4 O11 2.570866 1_555
Na4 O19 2.575004 1_555
Na4 O21 2.618059 1_555
Na4 O10 2.635117 1_555
Na5 O28 2.341465 1_555
Na5 O11 2.341537 1_555
Na5 O23 2.374961 1_555
Na5 O17 2.375864 1_555
Na5 O12 2.410026 1_555
Na5 O27 2.410444 1_555
Na6 O27 2.387058 1_555
Na6 O12 2.387634 1_555
Na6 O24 2.555530 1_555
Na6 O16 2.558676 1_555
Na6 O25 2.636537 1_555
Na6 O15 2.643506 1_555
Na7 O0 2.395200 1_545
Na7 O22 2.396233 1_554
Na7 O32 2.555368 1_655
Na7 O31 2.557608 1_554
Na7 O14 2.651564 1_555
Na7 O26 2.658423 1_555
Na8 O31 2.326666 1_555
Na8 O16 2.334130 1_555
Na8 O17 2.384699 1_555
Na8 O30 2.385977 1_555
Na8 O22 2.396554 1_555
Na8 O27 2.402749 1_555
Na9 O17 2.395003 1_555
Na9 O30 2.405895 1_555
Na9 O34 2.561000 1_655
Na9 O28 2.569802 1_555
Na9 O33 2.627058 1_655
Na9 O29 2.636151 1_555
Li0 O19 2.238479 1_555
Li0 O4 2.238626 1_555
Li0 O13 2.297295 1_555
Li0 O8 2.298824 1_555
Li0 O5 2.333168 1_555
Li0 O18 2.333826 1_555
Li1 O34 2.209819 1_655
Li1 O3 2.211530 1_545
Li1 O35 2.296455 1_655
Li1 O30 2.299227 1_555
Li1 O22 2.367964 1_555
Li1 O0 2.368332 1_546
O0 V4 1.684015 1_554
O1 V0 1.664893 1_555
O2 V3 1.828208 1_555
O2 V0 1.831688 1_555
O3 V3 1.673021 1_555
O4 V4 1.674715 1_554
O5 V10 1.683664 1_565
O6 V11 1.828107 1_565
O6 V2 1.830641 1_555
O7 V2 1.664962 1_555
O8 V0 1.685290 1_555
O9 V4 1.827485 1_555
O9 V2 1.832899 1_555
O10 V5 1.825359 1_555
O10 V1 1.829046 1_555
O11 V5 1.667194 1_555
O12 V3 1.681583 1_555
O13 V1 1.684911 1_455
O14 V8 1.826294 1_655
O14 V5 1.833371 1_555
O15 V4 1.829244 1_555
O15 V1 1.829921 1_556
O16 V1 1.665696 1_556
O17 V7 1.681127 1_655
O18 V5 1.683858 1_455
O19 V9 1.673751 1_554
O20 V3 1.829298 1_455
O20 V7 1.835694 1_555
O21 V9 1.826438 1_554
O21 V6 1.833267 1_555
O22 V9 1.684492 1_655
O23 V8 1.681405 1_555
O24 V7 1.665452 1_555
O25 V7 1.825751 1_555
O25 V9 1.830481 1_555
O26 V6 1.829467 1_555
O26 V10 1.832117 1_555
O27 V11 1.681788 1_555
O28 V10 1.667631 1_555
O29 V10 1.826427 1_555
O29 V0 1.828815 1_545
O30 V2 1.685225 1_545
O31 V6 1.665447 1_556
O32 V8 1.665208 1_555
O33 V11 1.829524 1_555
O33 V8 1.836040 1_555
O34 V11 1.672492 1_555
O35 V6 1.685149 1_556
