# generated using pymatgen
data_Ta2TiO6
_symmetry_space_group_name_H-M   'P 1'
_cell_length_a   5.71217203
_cell_length_b   5.71217203
_cell_length_c   7.47159990
_cell_angle_alpha   70.73226204
_cell_angle_beta   70.73226204
_cell_angle_gamma   73.65317614
_symmetry_Int_Tables_number   1
_chemical_formula_structural   Ta2TiO6
_chemical_formula_sum   'Ta4 Ti2 O12'
_cell_volume   213.13194205
_cell_formula_units_Z   2
loop_
 _symmetry_equiv_pos_site_id
 _symmetry_equiv_pos_as_xyz
  1  'x, y, z'
loop_
 _atom_site_type_symbol
 _atom_site_label
 _atom_site_symmetry_multiplicity
 _atom_site_fract_x
 _atom_site_fract_y
 _atom_site_fract_z
 _atom_site_occupancy
  Ta  Ta0  1  0.82880500  0.82880500  0.67145700  1
  Ta  Ta1  1  0.82141800  0.82141800  0.17319200  1
  Ta  Ta2  1  0.17119500  0.17119500  0.32854300  1
  Ta  Ta3  1  0.17858200  0.17858200  0.82680800  1
  Ti  Ti0  1  0.50000000  0.50000000  0.50000000  1
  Ti  Ti1  1  0.50000000  0.50000000  0.00000000  1
  O  O0  1  0.12477000  0.53214100  0.17153100  1
  O  O1  1  0.80643500  0.19356500  0.50000000  1
  O  O2  1  0.39826100  0.39826100  0.80510200  1
  O  O3  1  0.73883700  0.73883700  0.46644500  1
  O  O4  1  0.06565900  0.06565900  0.12922200  1
  O  O5  1  0.26116300  0.26116300  0.53355500  1
  O  O6  1  0.60173900  0.60173900  0.19489800  1
  O  O7  1  0.93434100  0.93434100  0.87077800  1
  O  O8  1  0.87523000  0.46785900  0.82846900  1
  O  O9  1  0.19356500  0.80643500  0.50000000  1
  O  O10  1  0.53214100  0.12477000  0.17153100  1
  O  O11  1  0.46785900  0.87523000  0.82846900  1
loop_
_geom_bond_atom_site_label_1
_geom_bond_atom_site_label_2
_geom_bond_distance
_geom_bond_site_symmetry_2
O0 Ta2 1.999694 1_555
O0 Ta1 2.029968 1_455
O0 Ti1 2.095512 1_555
O1 Ta2 2.048246 1_655
O1 Ta0 2.048246 1_545
O1 Ti0 2.098374 1_555
O2 Ta3 1.947644 1_555
O2 Ti1 2.025617 1_556
O2 Ti0 2.076903 1_555
O3 Ta1 2.001709 1_555
O3 Ta0 2.015498 1_555
O3 Ti0 2.093228 1_555
O4 Ta3 2.061069 1_554
O4 Ta2 2.081888 1_555
O4 Ta1 2.119309 1_445
O5 Ta3 2.001709 1_555
O5 Ta2 2.015498 1_555
O5 Ti0 2.093228 1_555
O6 Ta1 1.947644 1_555
O6 Ti1 2.025617 1_555
O6 Ti0 2.076903 1_555
O7 Ta1 2.061069 1_556
O7 Ta0 2.081888 1_555
O7 Ta3 2.119309 1_665
O8 Ta0 1.999694 1_555
O8 Ta3 2.029968 1_655
O8 Ti1 2.095512 1_556
O9 Ta0 2.048246 1_455
O9 Ta2 2.048246 1_565
O9 Ti0 2.098374 1_555
O10 Ta2 1.999694 1_555
O10 Ta1 2.029968 1_545
O10 Ti1 2.095512 1_555
O11 Ta0 1.999694 1_555
O11 Ta3 2.029968 1_565
O11 Ti1 2.095512 1_556
