# generated using pymatgen
data_LiCr4(PO4)3
_symmetry_space_group_name_H-M   'P 1'
_cell_length_a   10.72749351
_cell_length_b   10.72749351
_cell_length_c   10.72749351
_cell_angle_alpha   142.67533324
_cell_angle_beta   142.67533324
_cell_angle_gamma   53.81282396
_symmetry_Int_Tables_number   1
_chemical_formula_structural   LiCr4(PO4)3
_chemical_formula_sum   'Li2 Cr8 P6 O24'
_cell_volume   450.88915038
_cell_formula_units_Z   2
loop_
 _symmetry_equiv_pos_site_id
 _symmetry_equiv_pos_as_xyz
  1  'x, y, z'
loop_
 _atom_site_type_symbol
 _atom_site_label
 _atom_site_symmetry_multiplicity
 _atom_site_fract_x
 _atom_site_fract_y
 _atom_site_fract_z
 _atom_site_occupancy
  Li  Li0  1  0.25000000  0.75000000  0.50000000  1
  Li  Li1  1  0.50000000  0.50000000  0.00000000  1
  Cr  Cr0  1  0.37500000  0.37241700  0.49741700  1
  Cr  Cr1  1  0.77529800  0.77529800  0.00000000  1
  Cr  Cr2  1  0.62758300  0.12500000  0.00258300  1
  Cr  Cr3  1  0.87500000  0.87758300  0.50258300  1
  Cr  Cr4  1  0.22470200  0.22470200  0.00000000  1
  Cr  Cr5  1  0.52529800  0.02529800  0.50000000  1
  Cr  Cr6  1  0.97470200  0.47470200  0.50000000  1
  Cr  Cr7  1  0.12241700  0.62500000  0.99741700  1
  P  P0  1  0.00000000  0.00000000  0.00000000  1
  P  P1  1  0.87500000  0.48086700  0.10586700  1
  P  P2  1  0.37500000  0.76913300  0.89413300  1
  P  P3  1  0.23086700  0.12500000  0.60586700  1
  P  P4  1  0.75000000  0.25000000  0.50000000  1
  P  P5  1  0.51913300  0.62500000  0.39413300  1
  O  O0  1  0.23126400  0.09289900  0.24049900  1
  O  O1  1  0.67485200  0.34188000  0.80680000  1
  O  O2  1  0.07514800  0.38194800  0.16702800  1
  O  O3  1  0.61805200  0.78508000  0.69320000  1
  O  O4  1  0.27874800  0.55985500  0.71572100  1
  O  O5  1  0.47125200  0.68697400  0.78110800  1
  O  O6  1  0.90586600  0.69014500  0.21889200  1
  O  O7  1  0.84413400  0.56302600  0.28427900  1
  O  O8  1  0.09188000  0.92485200  0.30680000  1
  O  O9  1  0.90710100  0.14760000  0.13836500  1
  O  O10  1  0.44014500  0.15586600  0.71889200  1
  O  O11  1  0.21492000  0.90812000  0.83297200  1
  O  O12  1  0.53508000  0.86805200  0.19320000  1
  O  O13  1  0.31302600  0.09413400  0.78427900  1
  O  O14  1  0.74076600  0.10240000  0.25950100  1
  O  O15  1  0.89760000  0.15710100  0.63836500  1
  O  O16  1  0.85240000  0.99076600  0.75950100  1
  O  O17  1  0.13194800  0.32514800  0.66702800  1
  O  O18  1  0.65812000  0.46492000  0.33297200  1
  O  O19  1  0.51873600  0.25923400  0.36163500  1
  O  O20  1  0.84289900  0.48126400  0.74049900  1
  O  O21  1  0.30985500  0.52874800  0.21572100  1
  O  O22  1  0.43697400  0.72125200  0.28110800  1
  O  O23  1  0.00923400  0.76873600  0.86163500  1
loop_
_geom_bond_atom_site_label_1
_geom_bond_atom_site_label_2
_geom_bond_distance
_geom_bond_site_symmetry_2
Li0 O13 2.269061 1_565
Li0 O6 2.269061 1_455
Li0 O5 2.269063 1_555
Li0 O21 2.269063 1_555
Li1 O10 2.269061 1_554
Li1 O7 2.269061 1_555
Li1 O22 2.269063 1_555
Li1 O4 2.269063 1_554
Cr0 O4 2.120970 1_555
Cr0 O5 2.120975 1_555
Cr0 O19 2.126494 1_555
Cr0 O0 2.126498 1_555
Cr0 O2 2.230505 1_555
Cr0 O1 2.230505 1_555
Cr1 O14 2.183831 1_565
Cr1 O20 2.183834 1_554
Cr1 O6 2.231560 1_555
Cr1 O5 2.231570 1_554
Cr1 O3 2.280140 1_554
Cr1 O8 2.280140 1_655
Cr2 O13 2.120978 1_554
Cr2 O10 2.120978 1_554
Cr2 O14 2.126493 1_555
Cr2 O9 2.126498 1_555
Cr2 O3 2.230505 1_544
Cr2 O18 2.230505 1_555
Cr3 O7 2.120978 1_555
Cr3 O6 2.120978 1_555
Cr3 O16 2.126493 1_555
Cr3 O15 2.126498 1_565
Cr3 O11 2.230505 1_655
Cr3 O12 2.230505 1_555
Cr4 O15 2.183834 1_454
Cr4 O19 2.183838 1_555
Cr4 O13 2.231560 1_554
Cr4 O21 2.231570 1_555
Cr4 O11 2.280140 1_544
Cr4 O2 2.280140 1_555
Cr5 O16 2.183831 1_545
Cr5 O0 2.183834 1_555
Cr5 O10 2.231560 1_555
Cr5 O22 2.231570 1_545
Cr5 O12 2.280140 1_545
Cr5 O1 2.280140 1_555
Cr6 O9 2.183834 1_555
Cr6 O23 2.183838 1_655
Cr6 O7 2.231560 1_555
Cr6 O4 2.231570 1_655
Cr6 O18 2.280140 1_555
Cr6 O17 2.280140 1_655
Cr7 O21 2.120970 1_556
Cr7 O22 2.120975 1_556
Cr7 O23 2.126494 1_555
Cr7 O20 2.126498 1_455
Cr7 O8 2.230505 1_556
Cr7 O17 2.230505 1_555
O0 P0 1.566791 1_555
O1 P1 1.530657 1_556
O2 P1 1.530657 1_455
O3 P5 1.530657 1_555
O4 P2 1.590585 1_555
O5 P2 1.590580 1_555
O6 P1 1.590590 1_555
O7 P1 1.590590 1_555
O8 P3 1.530657 1_565
O9 P0 1.566791 1_655
O10 P3 1.590590 1_555
O11 P2 1.530657 1_555
O12 P2 1.530657 1_554
O13 P3 1.590590 1_555
O14 P4 1.566798 1_555
O15 P4 1.566791 1_555
O16 P0 1.566798 1_666
O17 P3 1.530657 1_555
O18 P5 1.530657 1_555
O19 P4 1.566792 1_555
O20 P4 1.566791 1_555
O21 P5 1.590585 1_555
O22 P5 1.590580 1_555
O23 P0 1.566792 1_566
