# generated using pymatgen
data_Fe5O3F7
_symmetry_space_group_name_H-M   'P 1'
_cell_length_a   4.78410718
_cell_length_b   4.78880120
_cell_length_c   15.74672736
_cell_angle_alpha   89.99077133
_cell_angle_beta   90.03797696
_cell_angle_gamma   90.15054375
_symmetry_Int_Tables_number   1
_chemical_formula_structural   Fe5O3F7
_chemical_formula_sum   'Fe10 O6 F14'
_cell_volume   360.75837112
_cell_formula_units_Z   2
loop_
 _symmetry_equiv_pos_site_id
 _symmetry_equiv_pos_as_xyz
  1  'x, y, z'
loop_
 _atom_site_type_symbol
 _atom_site_label
 _atom_site_symmetry_multiplicity
 _atom_site_fract_x
 _atom_site_fract_y
 _atom_site_fract_z
 _atom_site_occupancy
  Fe  Fe0  1  0.97473900  0.95290100  0.99334100  1
  Fe  Fe1  1  0.02799900  0.02680300  0.19879000  1
  Fe  Fe2  1  0.02775600  0.01166400  0.40553100  1
  Fe  Fe3  1  0.02443100  0.97021500  0.60039800  1
  Fe  Fe4  1  0.02666100  0.97158900  0.79987000  1
  Fe  Fe5  1  0.50096500  0.49394600  0.09970700  1
  Fe  Fe6  1  0.47105000  0.51067700  0.49292100  1
  Fe  Fe7  1  0.48350100  0.47295600  0.29763000  1
  Fe  Fe8  1  0.48697100  0.51386300  0.70012600  1
  Fe  Fe9  1  0.48859800  0.51981500  0.90660000  1
  O  O0  1  0.20378900  0.79871800  0.50721600  1
  O  O1  1  0.18584300  0.81297200  0.70065600  1
  O  O2  1  0.17237200  0.81436500  0.89963800  1
  O  O3  1  0.32774300  0.31894300  0.19626500  1
  O  O4  1  0.31882500  0.31589700  0.39758900  1
  O  O5  1  0.68486600  0.68605100  0.00920900  1
  F  F0  1  0.19593500  0.79730200  0.09515300  1
  F  F1  1  0.22042700  0.80274500  0.29872700  1
  F  F2  1  0.27967600  0.28778600  0.00828800  1
  F  F3  1  0.29734900  0.30133300  0.59523500  1
  F  F4  1  0.29123800  0.30100800  0.80331700  1
  F  F5  1  0.71135800  0.70241400  0.20057800  1
  F  F6  1  0.70261400  0.70043900  0.39667800  1
  F  F7  1  0.69701200  0.70056300  0.59365300  1
  F  F8  1  0.69912100  0.71281900  0.80072800  1
  F  F9  1  0.80173900  0.19136100  0.09275300  1
  F  F10  1  0.79347400  0.21218200  0.51035400  1
  F  F11  1  0.80951700  0.21026100  0.30116200  1
  F  F12  1  0.79478500  0.18975300  0.89829400  1
  F  F13  1  0.79964400  0.19865400  0.69959100  1
loop_
_geom_bond_atom_site_label_1
_geom_bond_atom_site_label_2
_geom_bond_distance
_geom_bond_site_symmetry_2
Fe0 O2 1.875287 1_655
Fe0 O5 1.899909 1_556
Fe1 O3 2.001169 1_555
Fe2 O4 2.016634 1_555
Fe2 O0 2.077305 1_545
Fe3 O0 1.889317 1_555
Fe3 O1 1.912274 1_555
Fe4 O2 1.876660 1_555
Fe4 O1 1.898074 1_555
Fe5 O5 1.910003 1_555
Fe5 O3 1.923161 1_555
Fe6 O0 1.896817 1_555
Fe6 O4 1.910326 1_555
Fe7 O3 1.908636 1_555
Fe7 O4 1.913654 1_555
Fe8 O1 2.034217 1_555
Fe9 O5 2.029909 1_556
Fe9 O2 2.073965 1_555
F0 Fe0 2.060787 1_454
F0 Fe5 2.063014 1_555
F0 Fe1 2.126867 1_565
F1 Fe7 2.022118 1_555
F1 Fe1 2.116118 1_565
F1 Fe2 2.164838 1_565
F2 Fe5 2.039783 1_555
F2 Fe0 2.177811 1_444
F2 Fe9 2.189376 1_554
F3 Fe3 2.053025 1_545
F3 Fe6 2.070783 1_555
F3 Fe8 2.140231 1_555
F4 Fe4 2.020675 1_545
F4 Fe8 2.133707 1_555
F4 Fe9 2.151237 1_555
F5 Fe5 2.127403 1_555
F5 Fe1 2.167114 1_665
F5 Fe7 2.174086 1_555
F6 Fe6 2.084789 1_555
F6 Fe2 2.155906 1_665
F6 Fe7 2.170384 1_555
F7 Fe3 2.030170 1_655
F7 Fe6 2.122392 1_555
F7 Fe8 2.148749 1_555
F8 Fe4 1.995259 1_655
F8 Fe8 2.107293 1_555
F8 Fe9 2.155184 1_555
F9 Fe5 2.047779 1_555
F9 Fe0 2.108745 1_544
F9 Fe1 2.140650 1_655
F10 Fe6 2.123411 1_555
F10 Fe3 2.139643 1_645
F10 Fe2 2.216187 1_655
F11 Fe7 2.007104 1_555
F11 Fe1 2.114357 1_655
F11 Fe2 2.167490 1_655
F12 Fe0 2.066543 1_545
F12 Fe9 2.161857 1_555
F12 Fe4 2.175552 1_645
F13 Fe8 2.127926 1_555
F13 Fe3 2.191327 1_645
F13 Fe4 2.204259 1_645
