# generated using pymatgen
data_Li3NiPCO7
_symmetry_space_group_name_H-M   'P 1'
_cell_length_a   6.34393402
_cell_length_b   9.52362065
_cell_length_c   9.76299479
_cell_angle_alpha   116.65656557
_cell_angle_beta   90.00543230
_cell_angle_gamma   90.00492622
_symmetry_Int_Tables_number   1
_chemical_formula_structural   Li3NiPCO7
_chemical_formula_sum   'Li12 Ni4 P4 C4 O28'
_cell_volume   527.15856086
_cell_formula_units_Z   4
loop_
 _symmetry_equiv_pos_site_id
 _symmetry_equiv_pos_as_xyz
  1  'x, y, z'
loop_
 _atom_site_type_symbol
 _atom_site_label
 _atom_site_symmetry_multiplicity
 _atom_site_fract_x
 _atom_site_fract_y
 _atom_site_fract_z
 _atom_site_occupancy
  Li  Li0  1  0.26111400  0.10978300  0.44081900  1
  Li  Li1  1  0.26082300  0.10984000  0.94093600  1
  Li  Li2  1  0.76083900  0.89015700  0.55910600  1
  Li  Li3  1  0.76108300  0.89017700  0.05915600  1
  Li  Li4  1  0.48231800  0.28165200  0.26240300  1
  Li  Li5  1  0.48212200  0.28173400  0.76254700  1
  Li  Li6  1  0.98233800  0.71833900  0.73752400  1
  Li  Li7  1  0.98253400  0.71840000  0.23760000  1
  Li  Li8  1  0.74311300  0.36100000  0.56976200  1
  Li  Li9  1  0.74323600  0.36080800  0.06969900  1
  Li  Li10  1  0.24321000  0.63917200  0.43029900  1
  Li  Li11  1  0.24318100  0.63903300  0.93025900  1
  Ni  Ni0  1  0.99560000  0.26165100  0.75691400  1
  Ni  Ni1  1  0.49579500  0.73840600  0.74290100  1
  Ni  Ni2  1  0.99594700  0.26205200  0.25739500  1
  Ni  Ni3  1  0.49603100  0.73794300  0.24262900  1
  P  P0  1  0.24750600  0.40981700  0.56702600  1
  P  P1  1  0.24743600  0.40973700  0.06697200  1
  P  P2  1  0.74745100  0.59023400  0.43302600  1
  P  P3  1  0.74744800  0.59019300  0.93295300  1
  C  C0  1  0.76315200  0.04442000  0.37951400  1
  C  C1  1  0.76312400  0.04441700  0.87947700  1
  C  C2  1  0.26313100  0.95560000  0.62048700  1
  C  C3  1  0.26316200  0.95558300  0.12053600  1
  O  O0  1  0.77163800  0.06813100  0.51927600  1
  O  O1  1  0.77151500  0.06813800  0.01921800  1
  O  O2  1  0.27152100  0.93185600  0.48082700  1
  O  O3  1  0.27153600  0.93186400  0.98081400  1
  O  O4  1  0.23735100  0.10022300  0.23212600  1
  O  O5  1  0.23727900  0.10022300  0.73211800  1
  O  O6  1  0.73734200  0.89978200  0.76787600  1
  O  O7  1  0.73733900  0.89976000  0.26789200  1
  O  O8  1  0.77573800  0.15880600  0.34255300  1
  O  O9  1  0.77574100  0.15880700  0.84255300  1
  O  O10  1  0.27578400  0.84114800  0.65742100  1
  O  O11  1  0.27578800  0.84117300  0.15742400  1
  O  O12  1  0.05584700  0.31803500  0.58540000  1
  O  O13  1  0.05587400  0.31800100  0.08550600  1
  O  O14  1  0.55582700  0.68196600  0.41452100  1
  O  O15  1  0.55591600  0.68201100  0.91455300  1
  O  O16  1  0.44124300  0.31202000  0.56746400  1
  O  O17  1  0.44123300  0.31202100  0.06746200  1
  O  O18  1  0.94124000  0.68798800  0.43254800  1
  O  O19  1  0.94125800  0.68794500  0.93253300  1
  O  O20  1  0.75036500  0.41780000  0.30638900  1
  O  O21  1  0.75018300  0.41774500  0.80627300  1
  O  O22  1  0.25042200  0.58225800  0.69369700  1
  O  O23  1  0.25039700  0.58219200  0.19362100  1
  O  O24  1  0.22500100  0.41195500  0.40787300  1
  O  O25  1  0.22492900  0.41184100  0.90784200  1
  O  O26  1  0.72498400  0.58813400  0.59215200  1
  O  O27  1  0.72501500  0.58802900  0.09212700  1
loop_
_geom_bond_atom_site_label_1
_geom_bond_atom_site_label_2
_geom_bond_distance
_geom_bond_site_symmetry_2
Li0 O2 1.903205 1_545
Li0 O4 2.003942 1_555
Li0 O16 2.099223 1_555
Li0 O12 2.260648 1_555
Li1 O3 1.902964 1_545
Li1 O5 2.004831 1_555
Li1 O17 2.099639 1_556
Li1 O13 2.258944 1_556
Li2 O0 1.902674 1_565
Li2 O6 2.004341 1_555
Li2 O18 2.099897 1_555
Li2 O14 2.259028 1_555
Li3 O1 1.903108 1_565
Li3 O7 2.004292 1_555
Li3 O19 2.099620 1_554
Li3 O15 2.259493 1_554
Li4 O20 2.063277 1_555
Li4 O17 2.065820 1_555
Li4 O24 2.154328 1_555
Li4 O4 2.242573 1_555
Li4 O8 2.503510 1_555
Li5 O21 2.062841 1_555
Li5 O16 2.066583 1_555
Li5 O25 2.152523 1_555
Li5 O5 2.242266 1_555
Li5 O9 2.504184 1_555
Li6 O22 2.063495 1_655
Li6 O19 2.066641 1_555
Li6 O26 2.153495 1_555
Li6 O6 2.242883 1_555
Li6 O10 2.503140 1_655
Li7 O23 2.062877 1_655
Li7 O18 2.066321 1_555
Li7 O27 2.155126 1_555
Li7 O7 2.243322 1_555
Li7 O11 2.502398 1_655
Li8 O16 1.968739 1_555
Li8 O12 2.045236 1_655
Li8 O26 2.077485 1_555
Li8 O21 2.122757 1_555
Li8 O8 2.199741 1_555
Li9 O17 1.969191 1_555
Li9 O13 2.044565 1_655
Li9 O27 2.078207 1_555
Li9 O20 2.123918 1_555
Li9 O9 2.198513 1_554
Li10 O18 1.969122 1_455
Li10 O14 2.044321 1_555
Li10 O24 2.078149 1_555
Li10 O23 2.123850 1_555
Li10 O10 2.198239 1_555
Li11 O19 1.969020 1_455
Li11 O15 2.045340 1_555
Li11 O25 2.077959 1_555
Li11 O22 2.123210 1_555
Li11 O11 2.199177 1_556
Ni0 O12 2.011278 1_655
Ni0 O21 2.055203 1_555
Ni0 O9 2.082915 1_555
Ni0 O5 2.106978 1_655
Ni0 O25 2.107560 1_655
Ni1 O15 2.012434 1_555
Ni1 O22 2.055184 1_555
Ni1 O10 2.081986 1_555
Ni1 O6 2.105437 1_555
Ni1 O26 2.106906 1_555
Ni2 O13 2.011730 1_655
Ni2 O20 2.054283 1_555
Ni2 O8 2.084021 1_555
Ni2 O24 2.103625 1_655
Ni2 O4 2.107323 1_655
Ni3 O14 2.011729 1_555
Ni3 O23 2.054276 1_555
Ni3 O11 2.084354 1_555
Ni3 O27 2.103811 1_555
Ni3 O7 2.106589 1_555
C0 O0 1.280332 1_555
C0 O8 1.294613 1_555
C0 O7 1.328613 1_545
C1 O1 1.280076 1_556
C1 O9 1.294425 1_555
C1 O6 1.328356 1_545
C2 O2 1.279241 1_555
C2 O10 1.295082 1_555
C2 O5 1.328493 1_565
C3 O3 1.279906 1_554
C3 O11 1.294390 1_555
C3 O4 1.328428 1_565
O12 P0 1.554066 1_555
O13 P1 1.553891 1_555
O14 P2 1.554162 1_555
O15 P3 1.553831 1_555
O16 P0 1.543319 1_555
O17 P1 1.543295 1_555
O18 P2 1.543315 1_555
O19 P3 1.543254 1_555
O20 P2 1.550467 1_555
O21 P3 1.550682 1_555
O22 P0 1.550614 1_555
O23 P1 1.550642 1_555
O24 P0 1.569544 1_555
O25 P1 1.569174 1_556
O26 P2 1.569121 1_555
O27 P3 1.569847 1_554
