# generated using pymatgen
data_Li4Fe2Ni3Te3O16
_symmetry_space_group_name_H-M   'P 1'
_cell_length_a   6.11584800
_cell_length_b   6.15009010
_cell_length_c   9.72599109
_cell_angle_alpha   89.70959655
_cell_angle_beta   90.88658323
_cell_angle_gamma   119.01025983
_symmetry_Int_Tables_number   1
_chemical_formula_structural   Li4Fe2Ni3Te3O16
_chemical_formula_sum   'Li4 Fe2 Ni3 Te3 O16'
_cell_volume   319.88545278
_cell_formula_units_Z   1
loop_
 _symmetry_equiv_pos_site_id
 _symmetry_equiv_pos_as_xyz
  1  'x, y, z'
loop_
 _atom_site_type_symbol
 _atom_site_label
 _atom_site_symmetry_multiplicity
 _atom_site_fract_x
 _atom_site_fract_y
 _atom_site_fract_z
 _atom_site_occupancy
  Li  Li0  1  0.33732900  0.66671900  0.12391600  1
  Li  Li1  1  0.02028100  0.98089200  0.01276400  1
  Li  Li2  1  0.00494200  0.98169400  0.49269200  1
  Li  Li3  1  0.68645000  0.33454300  0.59595300  1
  Fe  Fe0  1  0.31684400  0.68176700  0.49143700  1
  Fe  Fe1  1  0.62657900  0.33773100  0.02882100  1
  Ni  Ni0  1  0.17611700  0.83638100  0.78567200  1
  Ni  Ni1  1  0.82527100  0.66344000  0.28456100  1
  Ni  Ni2  1  0.33563200  0.17425100  0.28740900  1
  Te  Te0  1  0.66439400  0.82922700  0.78407300  1
  Te  Te1  1  0.16776500  0.34041300  0.78265700  1
  Te  Te2  1  0.82638000  0.17292800  0.28567800  1
  O  O0  1  0.67466800  0.86408100  0.40080600  1
  O  O1  1  0.51293900  0.53658700  0.65938100  1
  O  O2  1  0.36274100  0.68753000  0.89929400  1
  O  O3  1  0.97579000  0.97501600  0.67968800  1
  O  O4  1  0.98616200  0.01100700  0.19324300  1
  O  O5  1  0.13901900  0.32420600  0.40361100  1
  O  O6  1  0.50115800  0.96375200  0.66455900  1
  O  O7  1  0.04853700  0.52752600  0.65361600  1
  O  O8  1  0.81864400  0.13083000  0.89843600  1
  O  O9  1  0.16709400  0.83886000  0.39838900  1
  O  O10  1  0.95583500  0.45983000  0.15785300  1
  O  O11  1  0.52995600  0.03720100  0.16332600  1
  O  O12  1  0.67705800  0.32945400  0.39441000  1
  O  O13  1  0.82287200  0.67921800  0.89797000  1
  O  O14  1  0.51102000  0.48314000  0.16082900  1
  O  O15  1  0.32882200  0.15207400  0.91111500  1
loop_
_geom_bond_atom_site_label_1
_geom_bond_atom_site_label_2
_geom_bond_distance
_geom_bond_site_symmetry_2
Li0 O14 1.918167 1_555
Li0 O11 2.029207 1_565
Li0 O10 2.076464 1_455
Li0 O2 2.191279 1_554
Li1 O4 1.791973 1_465
Li1 O15 1.940827 1_564
Li1 O13 1.988228 1_454
Li1 O8 2.158156 1_464
Li2 O3 1.828496 1_455
Li2 O9 1.864841 1_555
Li2 O0 1.983798 1_455
Li2 O5 2.046562 1_565
Li3 O12 1.960122 1_555
Li3 O7 2.011496 1_655
Li3 O1 2.087497 1_555
Li3 O6 2.105023 1_545
Fe0 O9 1.847948 1_555
Fe0 O5 2.102094 1_555
Fe0 O0 2.119670 1_555
Fe0 O7 2.153060 1_555
Fe0 O6 2.277741 1_555
Fe0 O1 2.422143 1_555
Fe1 O14 1.897466 1_555
Fe1 O15 1.965315 1_554
Fe1 O11 2.101613 1_555
Fe1 O10 2.158338 1_555
Fe1 O13 2.246402 1_554
Fe1 O8 2.473715 1_554
Ni0 O3 2.062946 1_455
Ni0 O2 2.079934 1_555
Ni0 O15 2.088146 1_565
Ni0 O7 2.103012 1_555
Ni0 O6 2.122653 1_555
Ni0 O13 2.198047 1_455
Ni1 O14 2.060685 1_555
Ni1 O4 2.072186 1_565
Ni1 O12 2.093806 1_555
Ni1 O9 2.124343 1_655
Ni1 O10 2.177229 1_555
Ni1 O0 2.190439 1_555
Ni2 O4 2.069371 1_455
Ni2 O14 2.077447 1_555
Ni2 O12 2.089008 1_555
Ni2 O9 2.105202 1_545
Ni2 O11 2.146063 1_555
Ni2 O5 2.168398 1_555
O0 Te2 2.005931 1_565
O1 Te0 1.984518 1_555
O1 Te1 2.223271 1_555
O2 Te0 1.978255 1_555
O2 Te1 2.186271 1_555
O3 Te0 1.963662 1_555
O3 Te1 2.204262 1_665
O4 Te2 1.932607 1_555
O5 Te2 2.013628 1_455
O6 Te0 1.946218 1_555
O7 Te1 2.049886 1_555
O8 Te0 1.964423 1_545
O8 Te1 2.208775 1_655
O10 Te2 1.984704 1_555
O11 Te2 1.968489 1_555
O12 Te2 1.942148 1_555
O13 Te0 1.959943 1_555
O15 Te1 2.219620 1_555
