# generated using pymatgen
data_Fe4O7F
_symmetry_space_group_name_H-M   'P 1'
_cell_length_a   7.08957624
_cell_length_b   7.08957624
_cell_length_c   6.63558400
_cell_angle_alpha   90.00000000
_cell_angle_beta   90.00000000
_cell_angle_gamma   129.67261775
_symmetry_Int_Tables_number   1
_chemical_formula_structural   Fe4O7F
_chemical_formula_sum   'Fe8 O14 F2'
_cell_volume   256.71063901
_cell_formula_units_Z   2
loop_
 _symmetry_equiv_pos_site_id
 _symmetry_equiv_pos_as_xyz
  1  'x, y, z'
loop_
 _atom_site_type_symbol
 _atom_site_label
 _atom_site_symmetry_multiplicity
 _atom_site_fract_x
 _atom_site_fract_y
 _atom_site_fract_z
 _atom_site_occupancy
  Fe  Fe0  1  0.37565700  0.62434300  0.02061900  1
  Fe  Fe1  1  0.87438900  0.12561100  0.99330100  1
  Fe  Fe2  1  0.63441600  0.88457500  0.49217200  1
  Fe  Fe3  1  0.11542500  0.36558400  0.49217200  1
  Fe  Fe4  1  0.36558400  0.11542500  0.99217200  1
  Fe  Fe5  1  0.88457500  0.63441600  0.99217200  1
  Fe  Fe6  1  0.62434300  0.37565700  0.52061900  1
  Fe  Fe7  1  0.12561100  0.87438900  0.49330100  1
  O  O0  1  0.21932800  0.27574800  0.99920800  1
  O  O1  1  0.72425200  0.78067200  0.99920800  1
  O  O2  1  0.37595700  0.62404300  0.31743200  1
  O  O3  1  0.87405700  0.12594300  0.29694200  1
  O  O4  1  0.12666700  0.87333300  0.18775900  1
  O  O5  1  0.87333300  0.12666700  0.68775900  1
  O  O6  1  0.52964400  0.97306200  0.99970400  1
  O  O7  1  0.02693800  0.47035600  0.99970400  1
  O  O8  1  0.27574800  0.21932800  0.49920800  1
  O  O9  1  0.78067200  0.72425200  0.49920800  1
  O  O10  1  0.97306200  0.52964400  0.49970400  1
  O  O11  1  0.47035600  0.02693800  0.49970400  1
  O  O12  1  0.62404300  0.37595700  0.81743200  1
  O  O13  1  0.12594300  0.87405700  0.79694200  1
  F  F0  1  0.37602900  0.62397100  0.70177900  1
  F  F1  1  0.62397100  0.37602900  0.20177900  1
loop_
_geom_bond_atom_site_label_1
_geom_bond_atom_site_label_2
_geom_bond_distance
_geom_bond_site_symmetry_2
Fe0 O0 1.964452 1_554
Fe0 O1 1.964452 1_554
Fe0 O6 1.969043 1_554
Fe0 O7 1.969043 1_554
Fe0 O2 1.969531 1_555
Fe1 O7 1.941673 1_655
Fe1 O6 1.941673 1_545
Fe1 O0 1.947138 1_655
Fe1 O1 1.947138 1_545
Fe1 O3 2.014840 1_556
Fe1 O5 2.027495 1_555
Fe2 O3 1.944453 1_565
Fe2 O5 1.946107 1_565
Fe2 O2 1.947389 1_555
Fe2 O11 1.967963 1_565
Fe2 O9 1.968252 1_555
Fe3 O3 1.944453 1_455
Fe3 O5 1.946107 1_455
Fe3 O2 1.947389 1_555
Fe3 O10 1.967963 1_455
Fe3 O8 1.968252 1_555
Fe4 O13 1.944453 1_545
Fe4 O4 1.946107 1_546
Fe4 O12 1.947389 1_555
Fe4 O6 1.967963 1_545
Fe4 O0 1.968252 1_555
Fe5 O13 1.944453 1_655
Fe5 O4 1.946107 1_656
Fe5 O12 1.947389 1_555
Fe5 O7 1.967963 1_655
Fe5 O1 1.968252 1_555
Fe6 O9 1.964452 1_555
Fe6 O8 1.964452 1_555
Fe6 O11 1.969043 1_555
Fe6 O10 1.969043 1_555
Fe6 O12 1.969531 1_555
Fe7 O10 1.941673 1_455
Fe7 O11 1.941673 1_565
Fe7 O9 1.947138 1_455
Fe7 O8 1.947138 1_565
Fe7 O13 2.014840 1_555
Fe7 O4 2.027495 1_555
F0 Fe2 2.093421 1_555
F0 Fe3 2.093421 1_555
F0 Fe0 2.115695 1_556
F1 Fe5 2.093421 1_554
F1 Fe4 2.093421 1_554
F1 Fe6 2.115695 1_555
