# generated using pymatgen
data_Li5Ti2V5O12
_symmetry_space_group_name_H-M   'P 1'
_cell_length_a   5.21740157
_cell_length_b   5.21740247
_cell_length_c   10.04908845
_cell_angle_alpha   84.58323584
_cell_angle_beta   95.41676780
_cell_angle_gamma   59.12177052
_symmetry_Int_Tables_number   1
_chemical_formula_structural   Li5Ti2V5O12
_chemical_formula_sum   'Li5 Ti2 V5 O12'
_cell_volume   230.43824297
_cell_formula_units_Z   1
loop_
 _symmetry_equiv_pos_site_id
 _symmetry_equiv_pos_as_xyz
  1  'x, y, z'
loop_
 _atom_site_type_symbol
 _atom_site_label
 _atom_site_symmetry_multiplicity
 _atom_site_fract_x
 _atom_site_fract_y
 _atom_site_fract_z
 _atom_site_occupancy
  Li  Li0  1  0.15912200  0.67090500  0.50539800  1
  Li  Li1  1  0.32484600  0.83534700  0.99451400  1
  Li  Li2  1  0.67090500  0.15912200  0.99460200  1
  Li  Li3  1  0.83534700  0.32484600  0.50548600  1
  Li  Li4  1  0.91950800  0.91950800  0.75000000  1
  Ti  Ti0  1  0.25194600  0.25194600  0.75000000  1
  Ti  Ti1  1  0.75086000  0.75086000  0.25000000  1
  V  V0  1  0.99686400  0.50568000  0.99555300  1
  V  V1  1  0.50568000  0.99686400  0.50444700  1
  V  V2  1  0.42216200  0.42216200  0.25000000  1
  V  V3  1  0.57967400  0.57967400  0.75000000  1
  V  V4  1  0.08287400  0.08287400  0.25000000  1
  O  O0  1  0.96576000  0.21989900  0.86524500  1
  O  O1  1  0.21989900  0.96576000  0.63475500  1
  O  O2  1  0.11766400  0.38711000  0.36837400  1
  O  O3  1  0.38711000  0.11766400  0.13162600  1
  O  O4  1  0.29963600  0.51719100  0.86567800  1
  O  O5  1  0.51719100  0.29963600  0.63432200  1
  O  O6  1  0.48502400  0.70539300  0.37095000  1
  O  O7  1  0.70539300  0.48502400  0.12905000  1
  O  O8  1  0.60402700  0.88101300  0.86394000  1
  O  O9  1  0.88101300  0.60402700  0.63606000  1
  O  O10  1  0.79576600  0.02172800  0.37233300  1
  O  O11  1  0.02172800  0.79576600  0.12766700  1
loop_
_geom_bond_atom_site_label_1
_geom_bond_atom_site_label_2
_geom_bond_distance
_geom_bond_site_symmetry_2
Li0 O10 2.056675 1_465
Li0 O5 2.067757 1_555
Li0 O9 2.178099 1_455
Li0 O2 2.189213 1_555
Li0 O1 2.226519 1_555
Li0 O6 2.334717 1_555
Li1 O7 2.100575 1_556
Li1 O0 2.100749 1_465
Li1 O8 2.135001 1_555
Li1 O3 2.227876 1_566
Li1 O11 2.239811 1_556
Li1 O4 2.246473 1_555
Li2 O11 2.056675 1_646
Li2 O4 2.067757 1_555
Li2 O8 2.178099 1_545
Li2 O3 2.189213 1_556
Li2 O0 2.226519 1_555
Li2 O7 2.334717 1_556
Li3 O6 2.100575 1_555
Li3 O1 2.100749 1_645
Li3 O9 2.135001 1_555
Li3 O2 2.227876 1_655
Li3 O10 2.239811 1_555
Li3 O5 2.246472 1_555
Li4 O5 2.126437 1_565
Li4 O4 2.126437 1_655
Li4 O1 2.129288 1_655
Li4 O0 2.129288 1_565
Li4 O8 2.170798 1_555
Li4 O9 2.170798 1_555
O0 Ti0 2.035886 1_655
O0 V3 2.047047 1_555
O0 V0 2.130990 1_555
O1 Ti0 2.035886 1_565
O1 V3 2.047047 1_555
O1 V1 2.130989 1_555
O2 Ti1 2.023674 1_455
O2 V4 2.139867 1_555
O2 V2 2.141577 1_555
O2 V1 2.198775 1_545
O3 Ti1 2.023674 1_545
O3 V4 2.139866 1_555
O3 V2 2.141577 1_555
O3 V0 2.198775 1_454
O4 Ti0 1.982656 1_555
O4 V3 2.080943 1_555
O4 V0 2.161986 1_455
O5 Ti0 1.982656 1_555
O5 V3 2.080943 1_555
O5 V1 2.161986 1_545
O6 Ti1 2.014648 1_555
O6 V2 2.128345 1_555
O6 V4 2.140915 1_565
O6 V1 2.156382 1_555
O7 Ti1 2.014648 1_555
O7 V2 2.128344 1_555
O7 V4 2.140915 1_655
O7 V0 2.156382 1_554
O8 Ti0 1.991562 1_565
O8 V3 2.077603 1_555
O8 V0 2.159713 1_555
O9 Ti0 1.991561 1_655
O9 V3 2.077603 1_555
O9 V1 2.159713 1_555
O10 Ti1 2.043736 1_545
O10 V2 2.135021 1_555
O10 V1 2.149061 1_545
O10 V4 2.149665 1_655
O11 Ti1 2.043736 1_455
O11 V2 2.135020 1_555
O11 V0 2.149061 1_454
O11 V4 2.149665 1_565
