# generated using pymatgen
data_CoNiH12C4(N2O3)2
_symmetry_space_group_name_H-M   'P 1'
_cell_length_a   6.94181700
_cell_length_b   13.13197100
_cell_length_c   14.79789800
_cell_angle_alpha   90.00000000
_cell_angle_beta   90.00000000
_cell_angle_gamma   90.00000000
_symmetry_Int_Tables_number   1
_chemical_formula_structural   CoNiH12C4(N2O3)2
_chemical_formula_sum   'Co4 Ni4 H48 C16 N16 O24'
_cell_volume   1348.97252729
_cell_formula_units_Z   4
loop_
 _symmetry_equiv_pos_site_id
 _symmetry_equiv_pos_as_xyz
  1  'x, y, z'
loop_
 _atom_site_type_symbol
 _atom_site_label
 _atom_site_symmetry_multiplicity
 _atom_site_fract_x
 _atom_site_fract_y
 _atom_site_fract_z
 _atom_site_occupancy
  Co  Co0  1  0.00000000  0.00000000  0.50000000  1
  Co  Co1  1  0.50000000  0.50000000  0.00000000  1
  Co  Co2  1  0.00000000  0.00000000  0.00000000  1
  Co  Co3  1  0.50000000  0.50000000  0.50000000  1
  Ni  Ni0  1  0.50315400  0.05546900  0.75000000  1
  Ni  Ni1  1  0.99684600  0.55546900  0.75000000  1
  Ni  Ni2  1  0.49684600  0.94453100  0.25000000  1
  Ni  Ni3  1  0.00315400  0.44453100  0.25000000  1
  H  H0  1  0.02867300  0.78938800  0.52507600  1
  H  H1  1  0.47132700  0.28938800  0.97492400  1
  H  H2  1  0.97132700  0.21061200  0.02507600  1
  H  H3  1  0.52867300  0.71061200  0.47492400  1
  H  H4  1  0.97132700  0.21061200  0.47492400  1
  H  H5  1  0.52867300  0.71061200  0.02507600  1
  H  H6  1  0.02867300  0.78938800  0.97492400  1
  H  H7  1  0.47132700  0.28938800  0.52507600  1
  H  H8  1  0.31125400  0.27225100  0.75000000  1
  H  H9  1  0.18874600  0.77225100  0.75000000  1
  H  H10  1  0.68874600  0.72774900  0.25000000  1
  H  H11  1  0.81125400  0.22774900  0.25000000  1
  H  H12  1  0.91811000  0.67332400  0.41933600  1
  H  H13  1  0.58189000  0.17332400  0.08066400  1
  H  H14  1  0.08189000  0.32667600  0.91933600  1
  H  H15  1  0.41811000  0.82667600  0.58066400  1
  H  H16  1  0.08189000  0.32667600  0.58066400  1
  H  H17  1  0.41811000  0.82667600  0.91933600  1
  H  H18  1  0.91811000  0.67332400  0.08066400  1
  H  H19  1  0.58189000  0.17332400  0.41933600  1
  H  H20  1  0.85963900  0.83204600  0.58397800  1
  H  H21  1  0.64036100  0.33204600  0.91602200  1
  H  H22  1  0.14036100  0.16795400  0.08397800  1
  H  H23  1  0.35963900  0.66795400  0.41602200  1
  H  H24  1  0.14036100  0.16795400  0.41602200  1
  H  H25  1  0.35963900  0.66795400  0.08397800  1
  H  H26  1  0.85963900  0.83204600  0.91602200  1
  H  H27  1  0.64036100  0.33204600  0.58397800  1
  H  H28  1  0.06515100  0.60614900  0.46888400  1
  H  H29  1  0.43484900  0.10614900  0.03111600  1
  H  H30  1  0.93484900  0.39385100  0.96888400  1
  H  H31  1  0.56515100  0.89385100  0.53111600  1
  H  H32  1  0.93484900  0.39385100  0.53111600  1
  H  H33  1  0.56515100  0.89385100  0.96888400  1
  H  H34  1  0.06515100  0.60614900  0.03111600  1
  H  H35  1  0.43484900  0.10614900  0.46888400  1
  H  H36  1  0.05607500  0.71713300  0.30233600  1
  H  H37  1  0.44392500  0.21713300  0.19766400  1
  H  H38  1  0.94392500  0.28286700  0.80233600  1
  H  H39  1  0.55607500  0.78286700  0.69766400  1
  H  H40  1  0.94392500  0.28286700  0.69766400  1
  H  H41  1  0.55607500  0.78286700  0.80233600  1
  H  H42  1  0.05607500  0.71713300  0.19766400  1
  H  H43  1  0.44392500  0.21713300  0.30233600  1
  H  H44  1  0.48908600  0.34387300  0.75000000  1
  H  H45  1  0.01091400  0.84387300  0.75000000  1
  H  H46  1  0.51091400  0.65612700  0.25000000  1
  H  H47  1  0.98908600  0.15612700  0.25000000  1
  C  C0  1  0.69016800  0.05156000  0.65806900  1
  C  C1  1  0.80983200  0.55156000  0.84193100  1
  C  C2  1  0.30983200  0.94844000  0.15806900  1
  C  C3  1  0.19016800  0.44844000  0.34193100  1
  C  C4  1  0.30983200  0.94844000  0.34193100  1
  C  C5  1  0.19016800  0.44844000  0.15806900  1
  C  C6  1  0.69016800  0.05156000  0.84193100  1
  C  C7  1  0.80983200  0.55156000  0.65806900  1
  C  C8  1  0.31961700  0.04556000  0.65703400  1
  C  C9  1  0.18038300  0.54556000  0.84296600  1
  C  C10  1  0.68038300  0.95444000  0.15703400  1
  C  C11  1  0.81961700  0.45444000  0.34296600  1
  C  C12  1  0.68038300  0.95444000  0.34296600  1
  C  C13  1  0.81961700  0.45444000  0.15703400  1
  C  C14  1  0.31961700  0.04556000  0.84296600  1
  C  C15  1  0.18038300  0.54556000  0.65703400  1
  N  N0  1  0.79419800  0.04207100  0.59621600  1
  N  N1  1  0.70580200  0.54207200  0.90378400  1
  N  N2  1  0.20580200  0.95792800  0.09621600  1
  N  N3  1  0.29419800  0.45792900  0.40378400  1
  N  N4  1  0.20580200  0.95792800  0.40378400  1
  N  N5  1  0.29419800  0.45792900  0.09621600  1
  N  N6  1  0.79419800  0.04207100  0.90378400  1
  N  N7  1  0.70580200  0.54207200  0.59621600  1
  N  N8  1  0.77974900  0.96686300  0.40611200  1
  N  N9  1  0.72025100  0.46686300  0.09388800  1
  N  N10  1  0.22025100  0.03313700  0.90611200  1
  N  N11  1  0.27974900  0.53313700  0.59388800  1
  N  N12  1  0.22025100  0.03313700  0.59388800  1
  N  N13  1  0.27974900  0.53313700  0.90611200  1
  N  N14  1  0.77974900  0.96686300  0.09388800  1
  N  N15  1  0.72025100  0.46686300  0.40611200  1
  O  O0  1  0.98433200  0.85034800  0.55806800  1
  O  O1  1  0.51566800  0.35034800  0.94193200  1
  O  O2  1  0.01566800  0.14965200  0.05806800  1
  O  O3  1  0.48433200  0.64965200  0.44193200  1
  O  O4  1  0.01566800  0.14965200  0.44193200  1
  O  O5  1  0.48433200  0.64965200  0.05806800  1
  O  O6  1  0.98433200  0.85034800  0.94193200  1
  O  O7  1  0.51566800  0.35034800  0.55806800  1
  O  O8  1  0.04831500  0.67475300  0.44425500  1
  O  O9  1  0.45168500  0.17475300  0.05574500  1
  O  O10  1  0.95168500  0.32524700  0.94425500  1
  O  O11  1  0.54831500  0.82524700  0.55574500  1
  O  O12  1  0.95168500  0.32524700  0.55574500  1
  O  O13  1  0.54831500  0.82524700  0.94425500  1
  O  O14  1  0.04831500  0.67475300  0.05574500  1
  O  O15  1  0.45168500  0.17475300  0.44425500  1
  O  O16  1  0.45315300  0.27212800  0.75000000  1
  O  O17  1  0.04684700  0.77212800  0.75000000  1
  O  O18  1  0.54684700  0.72787200  0.25000000  1
  O  O19  1  0.95315300  0.22787200  0.25000000  1
  O  O20  1  0.97147300  0.72432200  0.25000000  1
  O  O21  1  0.52852700  0.22432200  0.25000000  1
  O  O22  1  0.02852700  0.27567800  0.75000000  1
  O  O23  1  0.47147300  0.77567800  0.75000000  1
loop_
_geom_bond_atom_site_label_1
_geom_bond_atom_site_label_2
_geom_bond_distance
_geom_bond_site_symmetry_2
Co0 N0 2.091275 1_455
Co0 N4 2.091279 1_545
Co0 N12 2.111233 1_555
Co0 N8 2.111233 1_445
Co0 O4 2.147629 1_555
Co0 O0 2.147629 1_445
Co1 N5 2.091275 1_555
Co1 N1 2.091279 1_554
Co1 N9 2.111233 1_555
Co1 N13 2.111233 1_554
Co1 O5 2.147629 1_555
Co1 O1 2.147629 1_554
Co2 N6 2.091275 1_454
Co2 N2 2.091279 1_545
Co2 N14 2.111233 1_445
Co2 N10 2.111233 1_554
Co2 O2 2.147629 1_555
Co2 O6 2.147629 1_444
Co3 N3 2.091275 1_555
Co3 N7 2.091279 1_555
Co3 N15 2.111233 1_555
Co3 N11 2.111233 1_555
Co3 O7 2.147629 1_555
Co3 O3 2.147629 1_555
H0 O0 0.986882 1_455
H1 O1 0.986882 1_555
H2 O2 0.986882 1_655
H3 O3 0.986882 1_555
H4 O4 0.986882 1_655
H5 O5 0.986882 1_555
H6 O6 0.986882 1_455
H7 O7 0.986882 1_555
H8 O16 0.985038 1_555
H9 O17 0.985038 1_555
H10 O18 0.985038 1_555
H11 O19 0.985038 1_555
H12 O8 0.976365 1_655
H13 O9 0.976365 1_555
H14 O10 0.976365 1_455
H15 O11 0.976365 1_555
H16 O12 0.976365 1_455
H17 O13 0.976365 1_555
H18 O14 0.976365 1_655
H19 O15 0.976365 1_555
H20 O0 0.976743 1_555
H21 O1 0.976743 1_555
H22 O2 0.976743 1_555
H23 O3 0.976743 1_555
H24 O4 0.976743 1_555
H25 O5 0.976743 1_555
H26 O6 0.976743 1_555
H27 O7 0.976743 1_555
H28 O8 0.978836 1_555
H29 O9 0.978836 1_555
H30 O10 0.978836 1_555
H31 O11 0.978836 1_555
H32 O12 0.978836 1_555
H33 O13 0.978836 1_555
H34 O14 0.978836 1_555
H35 O15 0.978836 1_555
H36 O20 0.976533 1_455
H37 O21 0.976533 1_555
H38 O22 0.976533 1_655
H39 O23 0.976533 1_555
H40 O22 0.976533 1_655
H41 O23 0.976533 1_555
H42 O20 0.976533 1_455
H43 O21 0.976533 1_555
H44 O16 0.974614 1_555
H45 O17 0.974614 1_555
H46 O18 0.974614 1_555
H47 O19 0.974614 1_555
C0 N0 1.172520 1_555
C0 Ni0 1.881130 1_555
C1 N1 1.172518 1_555
C1 Ni1 1.881130 1_555
C2 N2 1.172518 1_555
C2 Ni2 1.881130 1_555
C3 N3 1.172520 1_555
C3 Ni3 1.881130 1_555
C4 N4 1.172518 1_555
C4 Ni2 1.881130 1_555
C5 N5 1.172520 1_555
C5 Ni3 1.881130 1_555
C6 N6 1.172520 1_555
C6 Ni0 1.881130 1_555
C7 N7 1.172518 1_555
C7 Ni1 1.881130 1_555
C8 N12 1.172846 1_555
C8 Ni0 1.879566 1_555
C9 N13 1.172846 1_555
C9 Ni1 1.879566 1_455
C10 N14 1.172846 1_555
C10 Ni2 1.879566 1_555
C11 N15 1.172846 1_555
C11 Ni3 1.879566 1_655
C12 N8 1.172846 1_555
C12 Ni2 1.879566 1_555
C13 N9 1.172846 1_555
C13 Ni3 1.879566 1_655
C14 N10 1.172846 1_555
C14 Ni0 1.879566 1_555
C15 N11 1.172846 1_555
C15 Ni1 1.879566 1_455
