# generated using pymatgen
data_VF5
_symmetry_space_group_name_H-M   'P 1'
_cell_length_a   10.55601100
_cell_length_b   5.36141800
_cell_length_c   6.22170761
_cell_angle_alpha   75.83915095
_cell_angle_beta   90.00000000
_cell_angle_gamma   90.00000000
_symmetry_Int_Tables_number   1
_chemical_formula_structural   VF5
_chemical_formula_sum   'V4 F20'
_cell_volume   341.41878738
_cell_formula_units_Z   4
loop_
 _symmetry_equiv_pos_site_id
 _symmetry_equiv_pos_as_xyz
  1  'x, y, z'
loop_
 _atom_site_type_symbol
 _atom_site_label
 _atom_site_symmetry_multiplicity
 _atom_site_fract_x
 _atom_site_fract_y
 _atom_site_fract_z
 _atom_site_occupancy
  V  V0  1  0.95312700  0.57533600  0.73410600  1
  V  V1  1  0.45312700  0.42466400  0.76589400  1
  V  V2  1  0.54687300  0.57533600  0.23410600  1
  V  V3  1  0.04687300  0.42466400  0.26589400  1
  F  F0  1  0.07116300  0.81408600  0.68839300  1
  F  F1  1  0.82315600  0.78190100  0.68230700  1
  F  F2  1  0.37306000  0.72219000  0.69931000  1
  F  F3  1  0.58103300  0.61407000  0.91297400  1
  F  F4  1  0.42883700  0.81408600  0.18839300  1
  F  F5  1  0.67684400  0.78190100  0.18230700  1
  F  F6  1  0.12694000  0.72219000  0.19931000  1
  F  F7  1  0.58218400  0.62169400  0.52902900  1
  F  F8  1  0.91896700  0.61407000  0.41297400  1
  F  F9  1  0.08218400  0.37830600  0.97097100  1
  F  F10  1  0.91781600  0.62169400  0.02902900  1
  F  F11  1  0.08103300  0.38593000  0.58702600  1
  F  F12  1  0.41781600  0.37830600  0.47097100  1
  F  F13  1  0.87306000  0.27781000  0.80069000  1
  F  F14  1  0.32315600  0.21809900  0.81769300  1
  F  F15  1  0.57116300  0.18591400  0.81160700  1
  F  F16  1  0.41896700  0.38593000  0.08702600  1
  F  F17  1  0.62694000  0.27781000  0.30069000  1
  F  F18  1  0.17684400  0.21809900  0.31769300  1
  F  F19  1  0.92883700  0.18591400  0.31160700  1
loop_
_geom_bond_atom_site_label_1
_geom_bond_atom_site_label_2
_geom_bond_distance
_geom_bond_site_symmetry_2
F0 V0 1.758905 1_455
F1 V0 1.743003 1_555
F2 V1 1.762715 1_555
F3 V2 1.990502 1_556
F3 V1 2.036235 1_555
F4 V2 1.758905 1_555
F5 V2 1.743003 1_555
F6 V3 1.762715 1_555
F7 V2 1.946999 1_555
F7 V1 2.093306 1_555
F8 V0 1.990502 1_555
F8 V3 2.036235 1_655
F9 V3 1.946999 1_556
F9 V0 2.093306 1_455
F10 V0 1.946999 1_554
F10 V3 2.093306 1_655
F11 V3 1.990502 1_555
F11 V0 2.036235 1_455
F12 V1 1.946999 1_555
F12 V2 2.093306 1_555
F13 V0 1.762715 1_555
F14 V1 1.743003 1_555
F15 V1 1.758905 1_555
F16 V1 1.990502 1_554
F16 V2 2.036235 1_555
F17 V2 1.762715 1_555
F18 V3 1.743003 1_555
F19 V3 1.758905 1_655
