# generated using pymatgen
data_Fe3(PO4)2
_symmetry_space_group_name_H-M   'P 1'
_cell_length_a   10.08227000
_cell_length_b   8.91578000
_cell_length_c   21.05642342
_cell_angle_alpha   80.95817793
_cell_angle_beta   90.00000000
_cell_angle_gamma   90.00000000
_symmetry_Int_Tables_number   1
_chemical_formula_structural   Fe3(PO4)2
_chemical_formula_sum   'Fe36 P24 O96'
_cell_volume   1869.26929345
_cell_formula_units_Z   12
loop_
 _symmetry_equiv_pos_site_id
 _symmetry_equiv_pos_as_xyz
  1  'x, y, z'
loop_
 _atom_site_type_symbol
 _atom_site_label
 _atom_site_symmetry_multiplicity
 _atom_site_fract_x
 _atom_site_fract_y
 _atom_site_fract_z
 _atom_site_occupancy
  Fe  Fe0  1  0.90681700  0.93511000  0.94027600  1
  Fe  Fe1  1  0.39557900  0.90300600  0.89219800  1
  Fe  Fe2  1  0.21454900  0.96011000  0.54236700  1
  Fe  Fe3  1  0.61476600  0.89108100  0.58334700  1
  Fe  Fe4  1  0.58221300  0.79384300  0.78268800  1
  Fe  Fe5  1  0.11356100  0.95766300  0.24393200  1
  Fe  Fe6  1  0.70400700  0.89688300  0.29612100  1
  Fe  Fe7  1  0.08221300  0.70615700  0.71731200  1
  Fe  Fe8  1  0.11476600  0.60891900  0.91665300  1
  Fe  Fe9  1  0.71454900  0.53989000  0.95763300  1
  Fe  Fe10  1  0.27949700  0.76416800  0.35938600  1
  Fe  Fe11  1  0.87809300  0.72340500  0.42510600  1
  Fe  Fe12  1  0.89557900  0.59699400  0.60780200  1
  Fe  Fe13  1  0.37809300  0.77659500  0.07489400  1
  Fe  Fe14  1  0.77949700  0.73583200  0.14061400  1
  Fe  Fe15  1  0.40681700  0.56489000  0.55972400  1
  Fe  Fe16  1  0.38643900  0.45766300  0.74393200  1
  Fe  Fe17  1  0.79599300  0.39688300  0.79612100  1
  Fe  Fe18  1  0.20400700  0.60311700  0.20387900  1
  Fe  Fe19  1  0.61356100  0.54233700  0.25606800  1
  Fe  Fe20  1  0.59318300  0.43511000  0.44027600  1
  Fe  Fe21  1  0.22050300  0.26416800  0.85938600  1
  Fe  Fe22  1  0.62190700  0.22340500  0.92510600  1
  Fe  Fe23  1  0.10442100  0.40300600  0.39219800  1
  Fe  Fe24  1  0.12190700  0.27659500  0.57489400  1
  Fe  Fe25  1  0.72050300  0.23583200  0.64061400  1
  Fe  Fe26  1  0.28545100  0.46011000  0.04236700  1
  Fe  Fe27  1  0.88523400  0.39108100  0.08334700  1
  Fe  Fe28  1  0.91778700  0.29384300  0.28268800  1
  Fe  Fe29  1  0.29599300  0.10311700  0.70387900  1
  Fe  Fe30  1  0.88643900  0.04233700  0.75606800  1
  Fe  Fe31  1  0.41778700  0.20615700  0.21731200  1
  Fe  Fe32  1  0.38523400  0.10891900  0.41665300  1
  Fe  Fe33  1  0.78545100  0.03989000  0.45763300  1
  Fe  Fe34  1  0.60442100  0.09699400  0.10780200  1
  Fe  Fe35  1  0.09318300  0.06489000  0.05972400  1
  P  P0  1  0.13007300  0.94998200  0.82818900  1
  P  P1  1  0.64498700  0.87056700  0.99903300  1
  P  P2  1  0.92449800  0.96689600  0.60592100  1
  P  P3  1  0.35721000  0.80778300  0.66947400  1
  P  P4  1  0.85721000  0.69221700  0.83052600  1
  P  P5  1  0.55534100  0.80123600  0.43927400  1
  P  P6  1  0.43151900  0.84899300  0.21780800  1
  P  P7  1  0.42449800  0.53310400  0.89407900  1
  P  P8  1  0.14498700  0.62943300  0.50096700  1
  P  P9  1  0.63007300  0.55001800  0.67181100  1
  P  P10  1  0.93151900  0.65100700  0.28219200  1
  P  P11  1  0.05534100  0.69876400  0.06072600  1
  P  P12  1  0.94465900  0.30123600  0.93927400  1
  P  P13  1  0.06848100  0.34899300  0.71780800  1
  P  P14  1  0.36992700  0.44998200  0.32818900  1
  P  P15  1  0.85501300  0.37056700  0.49903300  1
  P  P16  1  0.57550200  0.46689600  0.10592100  1
  P  P17  1  0.56848100  0.15100700  0.78219200  1
  P  P18  1  0.44465900  0.19876400  0.56072600  1
  P  P19  1  0.14279000  0.30778300  0.16947400  1
  P  P20  1  0.64279000  0.19221700  0.33052600  1
  P  P21  1  0.07550200  0.03310400  0.39407900  1
  P  P22  1  0.35501300  0.12943300  0.00096700  1
  P  P23  1  0.86992700  0.05001800  0.17181100  1
  O  O0  1  0.53352500  0.99804100  0.82510100  1
  O  O1  1  0.49752900  0.84372200  0.98298300  1
  O  O2  1  0.07418000  0.90033900  0.76599900  1
  O  O3  1  0.24338600  0.92068100  0.64673200  1
  O  O4  1  0.44310100  0.88783100  0.71526200  1
  O  O5  1  0.20007100  0.81959700  0.87477900  1
  O  O6  1  0.81524800  0.94564000  0.55650100  1
  O  O7  1  0.78870200  0.84005900  0.79461300  1
  O  O8  1  0.73942300  0.74522700  0.98389100  1
  O  O9  1  0.95738100  0.94112900  0.42941100  1
  O  O10  1  0.60896600  0.91212200  0.48344300  1
  O  O11  1  0.13509600  0.94104200  0.34403700  1
  O  O12  1  0.93704700  0.72727700  0.88914900  1
  O  O13  1  0.96914800  0.80660700  0.63815600  1
  O  O14  1  0.42973500  0.87798700  0.40309300  1
  O  O15  1  0.98505400  0.97449800  0.13978100  1
  O  O16  1  0.46914800  0.69339300  0.86184400  1
  O  O17  1  0.43704700  0.77272300  0.61085100  1
  O  O18  1  0.29417800  0.98422400  0.04280300  1
  O  O19  1  0.75944400  0.92883100  0.19174500  1
  O  O20  1  0.31979200  0.88000300  0.26442100  1
  O  O21  1  0.23942300  0.75477300  0.51610900  1
  O  O22  1  0.66843300  0.77955600  0.39173100  1
  O  O23  1  0.28870200  0.65994100  0.70538700  1
  O  O24  1  0.31524800  0.55436000  0.94349900  1
  O  O25  1  0.70007100  0.68040300  0.62522100  1
  O  O26  1  0.94310100  0.61216900  0.78473800  1
  O  O27  1  0.65310600  0.88340200  0.07250200  1
  O  O28  1  0.74338600  0.57931900  0.85326800  1
  O  O29  1  0.88231000  0.76617800  0.32513800  1
  O  O30  1  0.57418000  0.59966100  0.73400100  1
  O  O31  1  0.55379300  0.77428800  0.25627900  1
  O  O32  1  0.02068000  0.85455300  0.02128700  1
  O  O33  1  0.99752900  0.65627800  0.51701700  1
  O  O34  1  0.52068000  0.64544700  0.47871300  1
  O  O35  1  0.05379300  0.72571200  0.24372100  1
  O  O36  1  0.38231000  0.73382200  0.17486200  1
  O  O37  1  0.54261900  0.44112900  0.92941100  1
  O  O38  1  0.89103400  0.41212200  0.98344300  1
  O  O39  1  0.15310600  0.61659800  0.42749800  1
  O  O40  1  0.36490400  0.44104200  0.84403700  1
  O  O41  1  0.16843300  0.72044400  0.10826900  1
  O  O42  1  0.03352500  0.50195900  0.67489900  1
  O  O43  1  0.07026500  0.37798700  0.90309300  1
  O  O44  1  0.51494600  0.47449800  0.63978100  1
  O  O45  1  0.81979200  0.61999700  0.23557900  1
  O  O46  1  0.20582200  0.48422400  0.54280300  1
  O  O47  1  0.74055600  0.42883100  0.69174500  1
  O  O48  1  0.25944400  0.57116900  0.30825500  1
  O  O49  1  0.79417800  0.51577600  0.45719700  1
  O  O50  1  0.18020800  0.38000300  0.76442100  1
  O  O51  1  0.48505400  0.52550200  0.36021900  1
  O  O52  1  0.92973500  0.62201300  0.09690700  1
  O  O53  1  0.96647500  0.49804100  0.32510100  1
  O  O54  1  0.83156700  0.27955600  0.89173100  1
  O  O55  1  0.63509600  0.55895800  0.15596300  1
  O  O56  1  0.84689400  0.38340200  0.57250200  1
  O  O57  1  0.10896600  0.58787800  0.01655700  1
  O  O58  1  0.45738100  0.55887100  0.07058900  1
  O  O59  1  0.61769000  0.26617800  0.82513800  1
  O  O60  1  0.94620700  0.27428800  0.75627900  1
  O  O61  1  0.47932000  0.35455300  0.52128700  1
  O  O62  1  0.00247100  0.34372200  0.48298300  1
  O  O63  1  0.97932000  0.14544700  0.97871300  1
  O  O64  1  0.44620700  0.22571200  0.74372100  1
  O  O65  1  0.42582000  0.40033900  0.26599900  1
  O  O66  1  0.11769000  0.23382200  0.67486200  1
  O  O67  1  0.25661400  0.42068100  0.14673200  1
  O  O68  1  0.34689400  0.11659800  0.92749800  1
  O  O69  1  0.05689900  0.38783100  0.21526200  1
  O  O70  1  0.29992900  0.31959700  0.37477900  1
  O  O71  1  0.68475200  0.44564000  0.05650100  1
  O  O72  1  0.71129800  0.34005900  0.29461300  1
  O  O73  1  0.33156700  0.22044400  0.60826900  1
  O  O74  1  0.76057700  0.24522700  0.48389100  1
  O  O75  1  0.68020800  0.11999700  0.73557900  1
  O  O76  1  0.24055600  0.07116900  0.80825500  1
  O  O77  1  0.70582200  0.01577600  0.95719700  1
  O  O78  1  0.56295300  0.22727700  0.38914900  1
  O  O79  1  0.53085200  0.30660700  0.13815600  1
  O  O80  1  0.01494600  0.02550200  0.86021900  1
  O  O81  1  0.57026500  0.12201300  0.59690700  1
  O  O82  1  0.03085200  0.19339300  0.36184400  1
  O  O83  1  0.06295300  0.27272300  0.11085100  1
  O  O84  1  0.86490400  0.05895800  0.65596300  1
  O  O85  1  0.39103400  0.08787800  0.51655700  1
  O  O86  1  0.04261900  0.05887100  0.57058900  1
  O  O87  1  0.26057700  0.25477300  0.01610900  1
  O  O88  1  0.21129800  0.15994100  0.20538700  1
  O  O89  1  0.18475200  0.05436000  0.44349900  1
  O  O90  1  0.79992900  0.18040300  0.12522100  1
  O  O91  1  0.55689900  0.11216900  0.28473800  1
  O  O92  1  0.75661400  0.07931900  0.35326800  1
  O  O93  1  0.92582000  0.09966100  0.23400100  1
  O  O94  1  0.50247100  0.15627800  0.01701700  1
  O  O95  1  0.46647500  0.00195900  0.17489900  1
loop_
_geom_bond_atom_site_label_1
_geom_bond_atom_site_label_2
_geom_bond_distance
_geom_bond_site_symmetry_2
Fe0 O80 2.062191 1_665
Fe0 O32 2.087686 1_656
Fe0 O77 2.198041 1_565
Fe0 O63 2.276679 1_565
Fe0 O12 2.304874 1_555
Fe0 O8 2.463575 1_555
Fe1 O0 2.066904 1_555
Fe1 O5 2.158419 1_555
Fe1 O1 2.161618 1_555
Fe1 O16 2.196993 1_555
Fe1 O68 2.205636 1_565
Fe1 O76 2.642362 1_565
Fe2 O21 2.009564 1_555
Fe2 O86 2.073106 1_565
Fe2 O85 2.136490 1_565
Fe2 O89 2.140199 1_565
Fe2 O3 2.189644 1_555
Fe3 O10 2.083218 1_555
Fe3 O17 2.113636 1_555
Fe3 O25 2.127162 1_555
Fe3 O6 2.134349 1_555
Fe3 O81 2.169524 1_565
Fe4 O4 2.076329 1_555
Fe4 O16 2.100101 1_555
Fe4 O7 2.144661 1_555
Fe4 O30 2.147730 1_555
Fe4 O0 2.205471 1_555
Fe5 O11 2.100945 1_555
Fe5 O88 2.102899 1_565
Fe5 O35 2.154705 1_555
Fe5 O20 2.212475 1_555
Fe5 O93 2.268531 1_465
Fe5 O15 2.531247 1_455
Fe6 O31 2.116705 1_555
Fe6 O22 2.148013 1_555
Fe6 O29 2.176982 1_555
Fe6 O92 2.233867 1_565
Fe6 O19 2.242105 1_555
Fe6 O91 2.407683 1_565
Fe7 O26 2.076329 1_455
Fe7 O13 2.100101 1_455
Fe7 O23 2.144661 1_555
Fe7 O2 2.147730 1_555
Fe7 O42 2.205471 1_555
Fe8 O57 2.083218 1_556
Fe8 O12 2.113636 1_455
Fe8 O5 2.127162 1_555
Fe8 O24 2.134349 1_555
Fe8 O43 2.169524 1_555
Fe9 O8 2.009564 1_555
Fe9 O37 2.073106 1_555
Fe9 O38 2.136490 1_555
Fe9 O71 2.140199 1_556
Fe9 O28 2.189644 1_555
Fe10 O14 2.112994 1_555
Fe10 O11 2.133239 1_555
Fe10 O20 2.140337 1_555
Fe10 O48 2.177900 1_555
Fe10 O39 2.195166 1_555
Fe11 O49 2.050875 1_555
Fe11 O29 2.079861 1_555
Fe11 O9 2.114414 1_555
Fe11 O22 2.258821 1_555
Fe11 O33 2.278080 1_555
Fe12 O42 2.066904 1_655
Fe12 O25 2.158419 1_555
Fe12 O33 2.161618 1_555
Fe12 O13 2.196993 1_555
Fe12 O56 2.205636 1_555
Fe12 O47 2.642362 1_555
Fe13 O18 2.050875 1_555
Fe13 O36 2.079861 1_555
Fe13 O58 2.114414 1_555
Fe13 O41 2.258821 1_555
Fe13 O1 2.278080 1_554
Fe14 O52 2.112994 1_555
Fe14 O55 2.133239 1_555
Fe14 O45 2.140337 1_555
Fe14 O19 2.177900 1_555
Fe14 O27 2.195166 1_555
Fe15 O44 2.062191 1_555
Fe15 O34 2.087686 1_555
Fe15 O46 2.198041 1_555
Fe15 O61 2.276679 1_555
Fe15 O17 2.304874 1_555
Fe15 O21 2.463575 1_555
Fe16 O40 2.100945 1_555
Fe16 O23 2.102899 1_555
Fe16 O64 2.154705 1_555
Fe16 O50 2.212475 1_555
Fe16 O30 2.268531 1_555
Fe16 O44 2.531247 1_555
Fe17 O60 2.116705 1_555
Fe17 O54 2.148013 1_555
Fe17 O59 2.176982 1_555
Fe17 O28 2.233867 1_555
Fe17 O47 2.242105 1_555
Fe17 O26 2.407683 1_555
Fe18 O35 2.116705 1_555
Fe18 O41 2.148013 1_555
Fe18 O36 2.176982 1_555
Fe18 O67 2.233867 1_555
Fe18 O48 2.242105 1_555
Fe18 O69 2.407683 1_555
Fe19 O55 2.100945 1_555
Fe19 O72 2.102899 1_555
Fe19 O31 2.154705 1_555
Fe19 O45 2.212475 1_555
Fe19 O65 2.268531 1_555
Fe19 O51 2.531247 1_555
Fe20 O51 2.062191 1_555
Fe20 O61 2.087686 1_555
Fe20 O49 2.198041 1_555
Fe20 O34 2.276679 1_555
Fe20 O78 2.304874 1_555
Fe20 O74 2.463575 1_555
Fe21 O43 2.112994 1_555
Fe21 O40 2.133239 1_555
Fe21 O50 2.140337 1_555
Fe21 O76 2.177900 1_555
Fe21 O68 2.195166 1_555
Fe22 O77 2.050875 1_555
Fe22 O59 2.079861 1_555
Fe22 O37 2.114414 1_555
Fe22 O54 2.258821 1_555
Fe22 O94 2.278080 1_556
Fe23 O53 2.066904 1_455
Fe23 O70 2.158419 1_555
Fe23 O62 2.161618 1_555
Fe23 O82 2.196993 1_555
Fe23 O39 2.205636 1_555
Fe23 O48 2.642362 1_555
Fe24 O46 2.050875 1_555
Fe24 O66 2.079861 1_555
Fe24 O86 2.114414 1_555
Fe24 O73 2.258821 1_555
Fe24 O62 2.278080 1_555
Fe25 O81 2.112994 1_555
Fe25 O84 2.133239 1_555
Fe25 O75 2.140337 1_555
Fe25 O47 2.177900 1_555
Fe25 O56 2.195166 1_555
Fe26 O87 2.009564 1_555
Fe26 O58 2.073106 1_555
Fe26 O57 2.136490 1_555
Fe26 O24 2.140199 1_554
Fe26 O67 2.189644 1_555
Fe27 O38 2.083218 1_554
Fe27 O83 2.113636 1_655
Fe27 O90 2.127162 1_555
Fe27 O71 2.134349 1_555
Fe27 O52 2.169524 1_555
Fe28 O69 2.076329 1_655
Fe28 O82 2.100101 1_655
Fe28 O72 2.144661 1_555
Fe28 O93 2.147730 1_555
Fe28 O53 2.205471 1_555
Fe29 O64 2.116705 1_555
Fe29 O73 2.148013 1_555
Fe29 O66 2.176982 1_555
Fe29 O3 2.233867 1_545
Fe29 O76 2.242105 1_555
Fe29 O4 2.407683 1_545
Fe30 O84 2.100945 1_555
Fe30 O7 2.102899 1_545
Fe30 O60 2.154705 1_555
Fe30 O75 2.212475 1_555
Fe30 O2 2.268531 1_645
Fe30 O80 2.531247 1_655
Fe31 O91 2.076329 1_555
Fe31 O79 2.100101 1_555
Fe31 O88 2.144661 1_555
Fe31 O65 2.147730 1_555
Fe31 O95 2.205471 1_555
Fe32 O85 2.083218 1_555
Fe32 O78 2.113636 1_555
Fe32 O70 2.127162 1_555
Fe32 O89 2.134349 1_555
Fe32 O14 2.169524 1_545
Fe33 O74 2.009564 1_555
Fe33 O9 2.073106 1_545
Fe33 O10 2.136490 1_545
Fe33 O6 2.140199 1_545
Fe33 O92 2.189644 1_555
Fe34 O95 2.066904 1_555
Fe34 O90 2.158419 1_555
Fe34 O94 2.161618 1_555
Fe34 O79 2.196993 1_555
Fe34 O27 2.205636 1_545
Fe34 O19 2.642362 1_545
Fe35 O15 2.062191 1_445
Fe35 O63 2.087686 1_454
Fe35 O18 2.198041 1_545
Fe35 O32 2.276679 1_545
Fe35 O83 2.304874 1_555
Fe35 O87 2.463575 1_555
O0 P17 1.553455 1_565
O1 P1 1.551526 1_555
O2 P0 1.552554 1_555
O3 P3 1.551772 1_555
O4 P3 1.550836 1_555
O5 P0 1.566330 1_555
O6 P2 1.547269 1_555
O7 P4 1.572606 1_555
O8 P1 1.539159 1_555
O9 P21 1.566042 1_665
O10 P5 1.556821 1_555
O11 P21 1.554629 1_565
O12 P4 1.546168 1_555
O13 P2 1.549455 1_555
O14 P5 1.577517 1_555
O15 P23 1.548637 1_565
O16 P7 1.549455 1_555
O17 P3 1.546168 1_555
O18 P22 1.571584 1_565
O19 P23 1.562652 1_565
O20 P6 1.547255 1_555
O21 P8 1.539159 1_555
O22 P5 1.549344 1_555
O23 P3 1.572606 1_555
O24 P7 1.547269 1_555
O25 P9 1.566330 1_555
O26 P4 1.550836 1_555
O27 P1 1.571187 1_554
O28 P4 1.551772 1_555
O29 P10 1.552465 1_555
O30 P9 1.552554 1_555
O31 P6 1.565259 1_555
O32 P11 1.542232 1_555
O33 P8 1.551526 1_655
O34 P5 1.542232 1_555
O35 P10 1.565259 1_455
O36 P6 1.552465 1_555
O37 P7 1.566042 1_555
O38 P12 1.556821 1_555
O39 P8 1.571187 1_555
O40 P7 1.554629 1_555
O41 P11 1.549344 1_555
O42 P13 1.553455 1_555
O43 P12 1.577517 1_455
O44 P9 1.548637 1_555
O45 P10 1.547255 1_555
O46 P8 1.571584 1_555
O47 P9 1.562652 1_555
O48 P14 1.562652 1_555
O49 P15 1.571584 1_555
O50 P13 1.547255 1_555
O51 P14 1.548637 1_555
O52 P11 1.577517 1_655
O53 P10 1.553455 1_555
O54 P12 1.549344 1_555
O55 P16 1.554629 1_555
O56 P15 1.571187 1_555
O57 P11 1.556821 1_555
O58 P16 1.566042 1_555
O59 P17 1.552465 1_555
O60 P13 1.565259 1_655
O61 P18 1.542232 1_555
O62 P15 1.551526 1_455
O63 P12 1.542232 1_555
O64 P17 1.565259 1_555
O65 P14 1.552554 1_555
O66 P13 1.552465 1_555
O67 P19 1.551772 1_555
O68 P22 1.571187 1_556
O69 P19 1.550836 1_555
O70 P14 1.566330 1_555
O71 P16 1.547269 1_555
O72 P20 1.572606 1_555
O73 P18 1.549344 1_555
O74 P15 1.539159 1_555
O75 P17 1.547255 1_555
O76 P0 1.562652 1_545
O77 P1 1.571584 1_545
O78 P20 1.546168 1_555
O79 P16 1.549455 1_555
O80 P0 1.548637 1_545
O81 P18 1.577517 1_555
O82 P21 1.549455 1_555
O83 P19 1.546168 1_555
O84 P2 1.554629 1_545
O85 P18 1.556821 1_555
O86 P2 1.566042 1_445
O87 P22 1.539159 1_555
O88 P19 1.572606 1_555
O89 P21 1.547269 1_555
O90 P23 1.566330 1_555
O91 P20 1.550836 1_555
O92 P20 1.551772 1_555
O93 P23 1.552554 1_555
O94 P22 1.551526 1_555
O95 P6 1.553455 1_545
