# generated using pymatgen
data_LiVPO5
_symmetry_space_group_name_H-M   'P 1'
_cell_length_a   9.69256200
_cell_length_b   5.34874400
_cell_length_c   7.51045889
_cell_angle_alpha   70.55815147
_cell_angle_beta   90.00000000
_cell_angle_gamma   90.00000000
_symmetry_Int_Tables_number   1
_chemical_formula_structural   LiVPO5
_chemical_formula_sum   'Li4 V4 P4 O20'
_cell_volume   367.16329747
_cell_formula_units_Z   4
loop_
 _symmetry_equiv_pos_site_id
 _symmetry_equiv_pos_as_xyz
  1  'x, y, z'
loop_
 _atom_site_type_symbol
 _atom_site_label
 _atom_site_symmetry_multiplicity
 _atom_site_fract_x
 _atom_site_fract_y
 _atom_site_fract_z
 _atom_site_occupancy
  Li  Li0  1  0.60554200  0.44587300  0.71386400  1
  Li  Li1  1  0.10554200  0.55412700  0.78613600  1
  Li  Li2  1  0.89445800  0.44587300  0.21386400  1
  Li  Li3  1  0.39445800  0.55412700  0.28613600  1
  V  V0  1  0.42098100  0.01451000  0.65441700  1
  V  V1  1  0.92098100  0.98549000  0.84558300  1
  V  V2  1  0.07901900  0.01451000  0.15441700  1
  V  V3  1  0.57901900  0.98549000  0.34558300  1
  P  P0  1  0.15464500  0.16382300  0.54307900  1
  P  P1  1  0.34535500  0.16382300  0.04307900  1
  P  P2  1  0.65464500  0.83617700  0.95692100  1
  P  P3  1  0.84535500  0.83617700  0.45692100  1
  O  O0  1  0.71316500  0.66576000  0.49880400  1
  O  O1  1  0.21808700  0.88645100  0.65992000  1
  O  O2  1  0.54911100  0.20782300  0.51467000  1
  O  O3  1  0.91544800  0.82419400  0.64413400  1
  O  O4  1  0.04906500  0.25657300  0.66567200  1
  O  O5  1  0.41544800  0.17580600  0.85586600  1
  O  O6  1  0.71808700  0.11354900  0.84008000  1
  O  O7  1  0.21316500  0.33424000  0.00119600  1
  O  O8  1  0.54906500  0.74342700  0.83432800  1
  O  O9  1  0.95088900  0.20782300  0.01467000  1
  O  O10  1  0.04911100  0.79217700  0.98533000  1
  O  O11  1  0.45093500  0.25657300  0.16567200  1
  O  O12  1  0.78683500  0.66576000  0.99880400  1
  O  O13  1  0.28191300  0.88645100  0.15992000  1
  O  O14  1  0.58455200  0.82419400  0.14413400  1
  O  O15  1  0.95093500  0.74342700  0.33432800  1
  O  O16  1  0.08455200  0.17580600  0.35586600  1
  O  O17  1  0.45088900  0.79217700  0.48533000  1
  O  O18  1  0.78191300  0.11354900  0.34008000  1
  O  O19  1  0.28683500  0.33424000  0.50119600  1
loop_
_geom_bond_atom_site_label_1
_geom_bond_atom_site_label_2
_geom_bond_distance
_geom_bond_site_symmetry_2
Li0 O0 1.953372 1_555
Li0 O6 2.031358 1_555
Li0 O8 2.147037 1_555
Li0 O2 2.329501 1_555
Li0 O5 2.365014 1_555
Li0 O17 2.550983 1_555
Li1 O7 1.953372 1_556
Li1 O1 2.031358 1_555
Li1 O4 2.147037 1_555
Li1 O10 2.329501 1_555
Li1 O3 2.365014 1_455
Li1 O9 2.550983 1_456
Li2 O12 1.953372 1_554
Li2 O18 2.031358 1_555
Li2 O15 2.147037 1_555
Li2 O9 2.329501 1_555
Li2 O16 2.365014 1_655
Li2 O10 2.550983 1_654
Li3 O19 1.953372 1_555
Li3 O13 2.031358 1_555
Li3 O11 2.147037 1_555
Li3 O17 2.329501 1_555
Li3 O14 2.365014 1_555
Li3 O2 2.550983 1_555
O0 P3 1.542908 1_555
O0 V3 2.151595 1_555
O1 P0 1.575612 1_565
O1 V0 2.078315 1_565
O2 V0 1.729335 1_555
O2 V3 2.028859 1_545
O3 P3 1.543589 1_555
O3 V1 1.976159 1_555
O4 P0 1.563698 1_555
O4 V1 2.040866 1_445
O5 P1 1.543589 1_556
O5 V0 1.976159 1_555
O6 P2 1.575612 1_545
O6 V1 2.078315 1_545
O7 P1 1.542908 1_555
O7 V2 2.151595 1_555
O8 P2 1.563698 1_555
O8 V0 2.040866 1_565
O9 V2 1.729335 1_655
O9 V1 2.028859 1_544
O10 V1 1.729335 1_455
O10 V2 2.028859 1_566
O11 P1 1.563698 1_555
O11 V3 2.040866 1_545
O12 P2 1.542908 1_555
O12 V1 2.151595 1_555
O13 P1 1.575612 1_565
O13 V2 2.078315 1_565
O14 P2 1.543589 1_554
O14 V3 1.976159 1_555
O15 P3 1.563698 1_555
O15 V2 2.040866 1_665
O16 P0 1.543589 1_555
O16 V2 1.976159 1_555
O17 V3 1.729335 1_555
O17 V0 2.028859 1_565
O18 P3 1.575612 1_545
O18 V3 2.078315 1_545
O19 P0 1.542908 1_555
O19 V0 2.151595 1_555
