# generated using pymatgen
data_K2Ti8O17
_symmetry_space_group_name_H-M   'P 1'
_cell_length_a   8.09953259
_cell_length_b   8.09953259
_cell_length_c   12.02089944
_cell_angle_alpha   84.52390570
_cell_angle_beta   84.52390570
_cell_angle_gamma   26.98026688
_symmetry_Int_Tables_number   1
_chemical_formula_structural   K2Ti8O17
_chemical_formula_sum   'K2 Ti8 O17'
_cell_volume   356.04792865
_cell_formula_units_Z   1
loop_
 _symmetry_equiv_pos_site_id
 _symmetry_equiv_pos_as_xyz
  1  'x, y, z'
loop_
 _atom_site_type_symbol
 _atom_site_label
 _atom_site_symmetry_multiplicity
 _atom_site_fract_x
 _atom_site_fract_y
 _atom_site_fract_z
 _atom_site_occupancy
  K  K0  1  0.44492458  0.44492458  0.80518969  1
  K  K1  1  0.55507542  0.55507542  0.19481031  1
  Ti  Ti0  1  0.88988333  0.88988333  0.07053046  1
  Ti  Ti1  1  0.84863063  0.84863063  0.32776543  1
  Ti  Ti2  1  0.80542711  0.80542711  0.57599019  1
  Ti  Ti3  1  0.75777831  0.75777831  0.83139994  1
  Ti  Ti4  1  0.24222169  0.24222169  0.16860006  1
  Ti  Ti5  1  0.19457289  0.19457289  0.42400981  1
  Ti  Ti6  1  0.15136937  0.15136937  0.67223457  1
  Ti  Ti7  1  0.11011667  0.11011667  0.92946954  1
  O  O0  1  0.93473503  0.93473503  0.21807755  1
  O  O1  1  0.89268002  0.89268002  0.46305783  1
  O  O2  1  0.84807302  0.84807302  0.71072367  1
  O  O3  1  0.82962768  0.82962768  0.93607192  1
  O  O4  1  0.36243505  0.36243505  0.08493471  1
  O  O5  1  0.31373502  0.31373502  0.32232878  1
  O  O6  1  0.27161591  0.27161591  0.56776671  1
  O  O7  1  0.22792847  0.22792847  0.81834582  1
  O  O8  1  0.77207153  0.77207153  0.18165418  1
  O  O9  1  0.72838409  0.72838409  0.43223329  1
  O  O10  1  0.68626498  0.68626498  0.67767122  1
  O  O11  1  0.63756495  0.63756495  0.91506529  1
  O  O12  1  0.17037232  0.17037232  0.06392808  1
  O  O13  1  0.15192698  0.15192698  0.28927633  1
  O  O14  1  0.10731998  0.10731998  0.53694217  1
  O  O15  1  0.06526497  0.06526497  0.78192245  1
  O  O16  1  -0.00000000  -0.00000000  0.00000000  1
loop_
_geom_bond_atom_site_label_1
_geom_bond_atom_site_label_2
_geom_bond_distance
_geom_bond_site_symmetry_2
K0 O15 2.671614 1_655
K0 O15 2.671614 1_565
K0 O2 2.743547 1_545
K0 O2 2.743547 1_455
K0 O3 2.963608 1_455
K0 O3 2.963608 1_545
K0 O16 3.194591 1_566
K0 O16 3.194591 1_656
K1 O0 2.671614 1_455
K1 O0 2.671614 1_545
K1 O13 2.743547 1_655
K1 O13 2.743547 1_565
K1 O12 2.963608 1_565
K1 O12 2.963608 1_655
K1 O16 3.194591 1_655
K1 O16 3.194591 1_565
O0 Ti1 1.796434 1_555
O0 Ti0 1.972547 1_555
O1 Ti1 1.829732 1_555
O1 Ti2 1.834597 1_555
O2 Ti2 1.813278 1_555
O2 Ti3 1.929355 1_555
O3 Ti3 1.773030 1_555
O3 Ti0 1.953068 1_556
O4 Ti0 1.942221 1_455
O4 Ti0 1.942221 1_545
O4 Ti4 2.055111 1_555
O5 Ti1 1.970650 1_455
O5 Ti1 1.970650 1_545
O5 Ti5 2.137063 1_555
O5 Ti4 2.256659 1_555
O6 Ti2 1.968187 1_455
O6 Ti2 1.968187 1_545
O6 Ti6 2.167468 1_555
O6 Ti5 2.206971 1_555
O7 Ti3 1.957086 1_545
O7 Ti3 1.957086 1_455
O7 Ti7 2.177559 1_555
O7 Ti6 2.225984 1_555
O8 Ti4 1.957086 1_655
O8 Ti4 1.957086 1_565
O8 Ti0 2.177559 1_555
O8 Ti1 2.225984 1_555
O9 Ti5 1.968187 1_565
O9 Ti5 1.968187 1_655
O9 Ti1 2.167468 1_555
O9 Ti2 2.206971 1_555
O10 Ti6 1.970650 1_655
O10 Ti6 1.970650 1_565
O10 Ti2 2.137063 1_555
O10 Ti3 2.256659 1_555
O11 Ti7 1.942221 1_565
O11 Ti7 1.942221 1_655
O11 Ti3 2.055111 1_555
O12 Ti4 1.773030 1_555
O12 Ti7 1.953068 1_554
O13 Ti5 1.813278 1_555
O13 Ti4 1.929355 1_555
O14 Ti6 1.829732 1_555
O14 Ti5 1.834597 1_555
O15 Ti6 1.796434 1_555
O15 Ti7 1.972547 1_555
O16 Ti7 1.854433 1_554
O16 Ti0 1.854433 1_445
