# generated using pymatgen
data_LiFeBO3
_symmetry_space_group_name_H-M   'P 1'
_cell_length_a   9.02972300
_cell_length_b   10.34733200
_cell_length_c   10.48650609
_cell_angle_alpha   88.64205684
_cell_angle_beta   90.00000000
_cell_angle_gamma   90.00000000
_symmetry_Int_Tables_number   1
_chemical_formula_structural   LiFeBO3
_chemical_formula_sum   'Li16 Fe16 B16 O48'
_cell_volume   979.51623437
_cell_formula_units_Z   16
loop_
 _symmetry_equiv_pos_site_id
 _symmetry_equiv_pos_as_xyz
  1  'x, y, z'
loop_
 _atom_site_type_symbol
 _atom_site_label
 _atom_site_symmetry_multiplicity
 _atom_site_fract_x
 _atom_site_fract_y
 _atom_site_fract_z
 _atom_site_occupancy
  Li  Li0  1  0.75979900  0.66084700  0.54222600  1
  Li  Li1  1  0.74020100  0.16084700  0.54222600  1
  Li  Li2  1  0.25979900  0.83915300  0.45777400  1
  Li  Li3  1  0.24020100  0.33915300  0.45777400  1
  Li  Li4  1  0.24406100  0.59120800  0.29476500  1
  Li  Li5  1  0.25593900  0.09120800  0.29476500  1
  Li  Li6  1  0.75844400  0.83867100  0.20649300  1
  Li  Li7  1  0.74155600  0.33867100  0.20649300  1
  Li  Li8  1  0.74324300  0.58965500  0.04501600  1
  Li  Li9  1  0.75675700  0.08965500  0.04501600  1
  Li  Li10  1  0.24324300  0.91034500  0.95498400  1
  Li  Li11  1  0.25675700  0.41034500  0.95498400  1
  Li  Li12  1  0.25844400  0.66132900  0.79350700  1
  Li  Li13  1  0.24155600  0.16132900  0.79350700  1
  Li  Li14  1  0.74406100  0.90879200  0.70523500  1
  Li  Li15  1  0.75593900  0.40879200  0.70523500  1
  Fe  Fe0  1  0.08632600  0.62024700  0.55067600  1
  Fe  Fe1  1  0.41367400  0.12024700  0.55067600  1
  Fe  Fe2  1  0.58632600  0.87975300  0.44932400  1
  Fe  Fe3  1  0.91367400  0.37975300  0.44932400  1
  Fe  Fe4  1  0.58436500  0.62198200  0.29915300  1
  Fe  Fe5  1  0.91563500  0.12198200  0.29915300  1
  Fe  Fe6  1  0.08936300  0.87526800  0.20567500  1
  Fe  Fe7  1  0.41063700  0.37526800  0.20567500  1
  Fe  Fe8  1  0.08408600  0.63015200  0.04455200  1
  Fe  Fe9  1  0.41591400  0.13015200  0.04455200  1
  Fe  Fe10  1  0.58408600  0.86984800  0.95544800  1
  Fe  Fe11  1  0.91591400  0.36984800  0.95544800  1
  Fe  Fe12  1  0.58936300  0.62473200  0.79432500  1
  Fe  Fe13  1  0.91063700  0.12473200  0.79432500  1
  Fe  Fe14  1  0.08436500  0.87801800  0.70084700  1
  Fe  Fe15  1  0.41563500  0.37801800  0.70084700  1
  B  B0  1  0.41622900  0.62896700  0.54319500  1
  B  B1  1  0.08377100  0.12896700  0.54319500  1
  B  B2  1  0.91622900  0.87103300  0.45680500  1
  B  B3  1  0.58377100  0.37103300  0.45680500  1
  B  B4  1  0.91700600  0.62990800  0.29190900  1
  B  B5  1  0.58299400  0.12990800  0.29190900  1
  B  B6  1  0.41649100  0.87925800  0.20703000  1
  B  B7  1  0.08350900  0.37925800  0.20703000  1
  B  B8  1  0.41607200  0.62108800  0.04170600  1
  B  B9  1  0.08392800  0.12108800  0.04170600  1
  B  B10  1  0.91607200  0.87891200  0.95829400  1
  B  B11  1  0.58392800  0.37891200  0.95829400  1
  B  B12  1  0.91649100  0.62074200  0.79297000  1
  B  B13  1  0.58350900  0.12074200  0.79297000  1
  B  B14  1  0.41700600  0.87009200  0.70809100  1
  B  B15  1  0.08299400  0.37009200  0.70809100  1
  O  O0  1  0.41274400  0.90884300  0.57973800  1
  O  O1  1  0.08725600  0.40884300  0.57973800  1
  O  O2  1  0.78814500  0.85841600  0.52950200  1
  O  O3  1  0.71185500  0.35841600  0.52950200  1
  O  O4  1  0.05268900  0.84275600  0.51365600  1
  O  O5  1  0.44731100  0.34275600  0.51365600  1
  O  O6  1  0.55268900  0.65724400  0.48634400  1
  O  O7  1  0.94731100  0.15724400  0.48634400  1
  O  O8  1  0.28814500  0.64158400  0.47049800  1
  O  O9  1  0.21185500  0.14158400  0.47049800  1
  O  O10  1  0.91274400  0.59115700  0.42026200  1
  O  O11  1  0.58725600  0.09115700  0.42026200  1
  O  O12  1  0.90916500  0.90812700  0.32806200  1
  O  O13  1  0.59083500  0.40812700  0.32806200  1
  O  O14  1  0.29111200  0.89195400  0.28332900  1
  O  O15  1  0.20888800  0.39195400  0.28332900  1
  O  O16  1  0.55025200  0.84158800  0.26338800  1
  O  O17  1  0.94974800  0.34158800  0.26338800  1
  O  O18  1  0.05334000  0.65999900  0.23416100  1
  O  O19  1  0.44666000  0.15999900  0.23416100  1
  O  O20  1  0.78843500  0.64177100  0.22041000  1
  O  O21  1  0.71156500  0.14177100  0.22041000  1
  O  O22  1  0.41178500  0.58995200  0.17173600  1
  O  O23  1  0.08821500  0.08995200  0.17173600  1
  O  O24  1  0.40936900  0.90924200  0.07746000  1
  O  O25  1  0.09063100  0.40924200  0.07746000  1
  O  O26  1  0.78991600  0.89075600  0.03262000  1
  O  O27  1  0.71008400  0.39075600  0.03262000  1
  O  O28  1  0.05036300  0.84121000  0.01532000  1
  O  O29  1  0.44963700  0.34121000  0.01532000  1
  O  O30  1  0.55036300  0.65879000  0.98468000  1
  O  O31  1  0.94963700  0.15879000  0.98468000  1
  O  O32  1  0.28991600  0.60924400  0.96738000  1
  O  O33  1  0.21008400  0.10924400  0.96738000  1
  O  O34  1  0.90936900  0.59075800  0.92254000  1
  O  O35  1  0.59063100  0.09075800  0.92254000  1
  O  O36  1  0.91178500  0.91004800  0.82826400  1
  O  O37  1  0.58821500  0.41004800  0.82826400  1
  O  O38  1  0.28843500  0.85822900  0.77959000  1
  O  O39  1  0.21156500  0.35822900  0.77959000  1
  O  O40  1  0.55334000  0.84000100  0.76583900  1
  O  O41  1  0.94666000  0.34000100  0.76583900  1
  O  O42  1  0.05025200  0.65841200  0.73661200  1
  O  O43  1  0.44974800  0.15841200  0.73661200  1
  O  O44  1  0.79111200  0.60804600  0.71667100  1
  O  O45  1  0.70888800  0.10804600  0.71667100  1
  O  O46  1  0.40916500  0.59187300  0.67193800  1
  O  O47  1  0.09083500  0.09187300  0.67193800  1
loop_
_geom_bond_atom_site_label_1
_geom_bond_atom_site_label_2
_geom_bond_distance
_geom_bond_site_symmetry_2
Li0 O44 1.917676 1_555
Li0 O6 1.960427 1_555
Li0 O10 2.026521 1_555
Li0 O2 2.061456 1_555
Li1 O45 1.917676 1_555
Li1 O7 1.960427 1_555
Li1 O11 2.026521 1_555
Li1 O3 2.061456 1_555
Li2 O14 1.917676 1_555
Li2 O4 1.960427 1_555
Li2 O0 2.026521 1_555
Li2 O8 2.061456 1_555
Li3 O15 1.917676 1_555
Li3 O5 1.960427 1_555
Li3 O1 2.026521 1_555
Li3 O9 2.061456 1_555
Li4 O18 1.963401 1_555
Li4 O8 1.967663 1_555
Li4 O22 1.989761 1_555
Li4 O15 2.092313 1_555
Li5 O19 1.963401 1_555
Li5 O9 1.967663 1_555
Li5 O23 1.989761 1_555
Li5 O14 2.092313 1_545
Li6 O26 1.910272 1_555
Li6 O16 1.972769 1_555
Li6 O12 2.009321 1_555
Li6 O20 2.057061 1_555
Li7 O27 1.910272 1_555
Li7 O17 1.972769 1_555
Li7 O13 2.009321 1_555
Li7 O21 2.057061 1_555
Li8 O20 1.971611 1_555
Li8 O34 1.974638 1_554
Li8 O30 1.980902 1_554
Li8 O27 2.086839 1_555
Li9 O21 1.971611 1_555
Li9 O35 1.974638 1_554
Li9 O31 1.980902 1_554
Li9 O26 2.086839 1_545
Li10 O38 1.971611 1_555
Li10 O24 1.974638 1_556
Li10 O28 1.980902 1_556
Li10 O33 2.086839 1_565
Li11 O39 1.971611 1_555
Li11 O25 1.974638 1_556
Li11 O29 1.980902 1_556
Li11 O32 2.086839 1_555
Li12 O32 1.910272 1_555
Li12 O42 1.972769 1_555
Li12 O46 2.009321 1_555
Li12 O38 2.057061 1_555
Li13 O33 1.910272 1_555
Li13 O43 1.972769 1_555
Li13 O47 2.009321 1_555
Li13 O39 2.057061 1_555
Li14 O40 1.963401 1_555
Li14 O2 1.967663 1_555
Li14 O36 1.989761 1_555
Li14 O45 2.092313 1_565
Li15 O41 1.963401 1_555
Li15 O3 1.967663 1_555
Li15 O37 1.989761 1_555
Li15 O44 2.092313 1_555
Fe0 O8 2.016904 1_555
Fe0 O42 2.024931 1_555
Fe0 O10 2.106453 1_455
Fe0 O1 2.201446 1_555
Fe0 O4 2.345533 1_555
Fe1 O9 2.016904 1_555
Fe1 O43 2.024931 1_555
Fe1 O11 2.106453 1_555
Fe1 O0 2.201446 1_545
Fe1 O5 2.345533 1_555
Fe2 O2 2.016904 1_555
Fe2 O16 2.024931 1_555
Fe2 O0 2.106453 1_555
Fe2 O11 2.201446 1_565
Fe2 O6 2.345533 1_555
Fe3 O3 2.016904 1_555
Fe3 O17 2.024931 1_555
Fe3 O1 2.106453 1_655
Fe3 O10 2.201446 1_555
Fe3 O7 2.345533 1_555
Fe4 O6 2.025383 1_555
Fe4 O20 2.027631 1_555
Fe4 O22 2.084372 1_555
Fe4 O13 2.227135 1_555
Fe4 O16 2.314879 1_555
Fe5 O7 2.025383 1_555
Fe5 O21 2.027631 1_555
Fe5 O23 2.084372 1_655
Fe5 O12 2.227135 1_545
Fe5 O17 2.314879 1_555
Fe6 O14 2.004574 1_555
Fe6 O28 2.065478 1_555
Fe6 O12 2.104996 1_455
Fe6 O23 2.241417 1_565
Fe6 O18 2.263864 1_555
Fe7 O15 2.004574 1_555
Fe7 O29 2.065478 1_555
Fe7 O13 2.104996 1_555
Fe7 O22 2.241417 1_555
Fe7 O19 2.263864 1_555
Fe8 O18 2.038392 1_555
Fe8 O32 2.040676 1_554
Fe8 O34 2.077718 1_454
Fe8 O28 2.219082 1_555
Fe8 O25 2.304389 1_555
Fe9 O19 2.038392 1_555
Fe9 O33 2.040676 1_554
Fe9 O35 2.077718 1_554
Fe9 O29 2.219082 1_555
Fe9 O24 2.304389 1_545
Fe10 O40 2.038392 1_555
Fe10 O26 2.040676 1_556
Fe10 O24 2.077718 1_556
Fe10 O30 2.219082 1_555
Fe10 O35 2.304389 1_565
Fe11 O41 2.038392 1_555
Fe11 O27 2.040676 1_556
Fe11 O25 2.077718 1_656
Fe11 O31 2.219082 1_555
Fe11 O34 2.304389 1_555
Fe12 O44 2.004574 1_555
Fe12 O30 2.065478 1_555
Fe12 O46 2.104996 1_555
Fe12 O37 2.241417 1_555
Fe12 O40 2.263864 1_555
Fe13 O45 2.004574 1_555
Fe13 O31 2.065478 1_555
Fe13 O47 2.104996 1_655
Fe13 O36 2.241417 1_545
Fe13 O41 2.263864 1_555
Fe14 O4 2.025383 1_555
Fe14 O38 2.027631 1_555
Fe14 O36 2.084372 1_455
Fe14 O47 2.227135 1_565
Fe14 O42 2.314879 1_555
Fe15 O5 2.025383 1_555
Fe15 O39 2.027631 1_555
Fe15 O37 2.084372 1_555
Fe15 O46 2.227135 1_555
Fe15 O43 2.314879 1_555
B0 O8 1.389649 1_555
B0 O46 1.396246 1_555
B0 O6 1.396806 1_555
B1 O9 1.389649 1_555
B1 O47 1.396246 1_555
B1 O7 1.396806 1_455
B2 O2 1.389649 1_555
B2 O12 1.396246 1_555
B2 O4 1.396806 1_655
B3 O3 1.389649 1_555
B3 O13 1.396246 1_555
B3 O5 1.396806 1_555
B4 O20 1.385892 1_555
B4 O10 1.395824 1_555
B4 O18 1.403650 1_655
B5 O21 1.385892 1_555
B5 O11 1.395824 1_555
B5 O19 1.403650 1_555
B6 O24 1.388012 1_555
B6 O14 1.394328 1_555
B6 O16 1.396114 1_555
B7 O25 1.388012 1_555
B7 O15 1.394328 1_555
B7 O17 1.396114 1_455
B8 O32 1.387340 1_554
B8 O22 1.394192 1_555
B8 O30 1.403269 1_554
B9 O33 1.387340 1_554
B9 O23 1.394192 1_555
B9 O31 1.403269 1_454
B10 O26 1.387340 1_556
B10 O36 1.394192 1_555
B10 O28 1.403269 1_656
B11 O27 1.387340 1_556
B11 O37 1.394192 1_555
B11 O29 1.403269 1_556
B12 O34 1.388012 1_555
B12 O44 1.394328 1_555
B12 O42 1.396114 1_655
B13 O35 1.388012 1_555
B13 O45 1.394328 1_555
B13 O43 1.396114 1_555
B14 O38 1.385892 1_555
B14 O0 1.395824 1_555
B14 O40 1.403650 1_555
B15 O39 1.385892 1_555
B15 O1 1.395824 1_555
B15 O41 1.403650 1_455
