# generated using pymatgen
data_Ba3CaZrWO9
_symmetry_space_group_name_H-M   'P 1'
_cell_length_a   6.03256118
_cell_length_b   6.03256118
_cell_length_c   45.28276000
_cell_angle_alpha   90.00000000
_cell_angle_beta   90.00000000
_cell_angle_gamma   119.99999105
_symmetry_Int_Tables_number   1
_chemical_formula_structural   Ba3CaZrWO9
_chemical_formula_sum   'Ba18 Ca6 Zr6 W6 O54'
_cell_volume   1427.14148602
_cell_formula_units_Z   6
loop_
 _symmetry_equiv_pos_site_id
 _symmetry_equiv_pos_as_xyz
  1  'x, y, z'
loop_
 _atom_site_type_symbol
 _atom_site_label
 _atom_site_symmetry_multiplicity
 _atom_site_fract_x
 _atom_site_fract_y
 _atom_site_fract_z
 _atom_site_occupancy
  Ba  Ba0  1  0.00000000  0.00000000  0.03054500  1
  Ba  Ba1  1  0.33333300  0.66666700  0.13879700  1
  Ba  Ba2  1  0.66666700  0.33333300  0.24984000  1
  Ba  Ba3  1  0.66666700  0.33333300  0.08338900  1
  Ba  Ba4  1  0.00000000  0.00000000  0.35698700  1
  Ba  Ba5  1  0.00000000  0.00000000  0.19472000  1
  Ba  Ba6  1  0.33333300  0.66666700  0.30187900  1
  Ba  Ba7  1  0.33333300  0.66666700  0.47158000  1
  Ba  Ba8  1  0.66666700  0.33333300  0.41657200  1
  Ba  Ba9  1  0.66666700  0.33333300  0.58673400  1
  Ba  Ba10  1  0.00000000  0.00000000  0.69329700  1
  Ba  Ba11  1  0.00000000  0.00000000  0.53251000  1
  Ba  Ba12  1  0.33333300  0.66666700  0.64026800  1
  Ba  Ba13  1  0.33333300  0.66666700  0.80350900  1
  Ba  Ba14  1  0.66666700  0.33333300  0.74822100  1
  Ba  Ba15  1  0.66666700  0.33333300  0.91603900  1
  Ba  Ba16  1  0.00000000  0.00000000  0.86159700  1
  Ba  Ba17  1  0.33333300  0.66666700  0.97445600  1
  Ca  Ca0  1  0.66666700  0.33333300  0.99580600  1
  Ca  Ca1  1  0.00000000  0.00000000  0.10962400  1
  Ca  Ca2  1  0.66666700  0.33333300  0.33653200  1
  Ca  Ca3  1  0.33333300  0.66666700  0.22350900  1
  Ca  Ca4  1  0.00000000  0.00000000  0.44741600  1
  Ca  Ca5  1  0.33333300  0.66666700  0.88502400  1
  Zr  Zr0  1  0.33333300  0.66666700  0.05333900  1
  Zr  Zr1  1  0.66666700  0.33333300  0.16662400  1
  Zr  Zr2  1  0.00000000  0.00000000  0.28033200  1
  Zr  Zr3  1  0.66666700  0.33333300  0.66673800  1
  Zr  Zr4  1  0.33333300  0.66666700  0.56027400  1
  Zr  Zr5  1  0.00000000  0.00000000  0.77497000  1
  W  W0  1  0.33333300  0.66666700  0.39505200  1
  W  W1  1  0.66666700  0.33333300  0.50643100  1
  W  W2  1  0.00000000  0.00000000  0.61367400  1
  W  W3  1  0.33333300  0.66666700  0.72019200  1
  W  W4  1  0.66666700  0.33333300  0.82747500  1
  W  W5  1  0.00000000  0.00000000  0.93825500  1
  O  O0  1  0.16958500  0.33917100  0.07882900  1
  O  O1  1  0.01636700  0.50818300  0.02315200  1
  O  O2  1  0.49181700  0.50818300  0.02315200  1
  O  O3  1  0.16958500  0.83041500  0.07882900  1
  O  O4  1  0.66082900  0.83041500  0.07882900  1
  O  O5  1  0.49181700  0.98363300  0.02315200  1
  O  O6  1  0.50560400  0.01120700  0.19384400  1
  O  O7  1  0.34435800  0.17217900  0.13924200  1
  O  O8  1  0.82782100  0.17217900  0.13924200  1
  O  O9  1  0.50560400  0.49439600  0.19384400  1
  O  O10  1  0.98879300  0.49439600  0.19384400  1
  O  O11  1  0.82782100  0.65564200  0.13924200  1
  O  O12  1  0.84216700  0.68433300  0.31053200  1
  O  O13  1  0.67233700  0.83616900  0.25436900  1
  O  O14  1  0.84216700  0.15783300  0.31053200  1
  O  O15  1  0.16383100  0.83616900  0.25436900  1
  O  O16  1  0.31566700  0.15783300  0.31053200  1
  O  O17  1  0.16383100  0.32766300  0.25436900  1
  O  O18  1  0.18397000  0.36794100  0.42405500  1
  O  O19  1  0.02091900  0.51045900  0.37329800  1
  O  O20  1  0.18397000  0.81603000  0.42405500  1
  O  O21  1  0.48954100  0.51045900  0.37329800  1
  O  O22  1  0.63205900  0.81603000  0.42405500  1
  O  O23  1  0.48954100  0.97908100  0.37329800  1
  O  O24  1  0.35712000  0.17856000  0.48530400  1
  O  O25  1  0.50767500  0.01535000  0.53501100  1
  O  O26  1  0.82144000  0.17856000  0.48530400  1
  O  O27  1  0.50767500  0.49232500  0.53501100  1
  O  O28  1  0.82144000  0.64288000  0.48530400  1
  O  O29  1  0.98465000  0.49232500  0.53501100  1
  O  O30  1  0.65758700  0.82879300  0.58770800  1
  O  O31  1  0.83569400  0.67138800  0.64028200  1
  O  O32  1  0.17120700  0.82879300  0.58770800  1
  O  O33  1  0.83569400  0.16430600  0.64028200  1
  O  O34  1  0.32861200  0.16430600  0.64028200  1
  O  O35  1  0.17120700  0.34241300  0.58770800  1
  O  O36  1  0.01143200  0.50571600  0.69393200  1
  O  O37  1  0.16923800  0.33847600  0.74346700  1
  O  O38  1  0.16923800  0.83076200  0.74346700  1
  O  O39  1  0.49428400  0.50571600  0.69393200  1
  O  O40  1  0.66152400  0.83076200  0.74346700  1
  O  O41  1  0.49428400  0.98856800  0.69393200  1
  O  O42  1  0.33800800  0.16900400  0.79744300  1
  O  O43  1  0.50581000  0.01162100  0.84795200  1
  O  O44  1  0.83099600  0.16900400  0.79744300  1
  O  O45  1  0.50581000  0.49419000  0.84795200  1
  O  O46  1  0.98837900  0.49419000  0.84795200  1
  O  O47  1  0.83099600  0.66199200  0.79744300  1
  O  O48  1  0.84366900  0.68733800  0.96069600  1
  O  O49  1  0.69932200  0.84966100  0.91015800  1
  O  O50  1  0.84366900  0.15633100  0.96069600  1
  O  O51  1  0.15033900  0.84966100  0.91015800  1
  O  O52  1  0.31266200  0.15633100  0.96069600  1
  O  O53  1  0.15033900  0.30067800  0.91015800  1
loop_
_geom_bond_atom_site_label_1
_geom_bond_atom_site_label_2
_geom_bond_distance
_geom_bond_site_symmetry_2
Ba0 O3 2.814298 1_545
Ba0 O0 2.814301 1_555
Ba0 O4 2.814301 1_445
Ba0 O5 3.036003 1_445
Ba0 O1 3.036003 1_555
Ba0 O2 3.036007 1_555
Ba0 O2 3.036007 1_445
Ba0 O5 3.036009 1_545
Ba0 O1 3.036009 1_545
Ba1 O11 3.016895 1_455
Ba1 O7 3.016895 1_565
Ba1 O8 3.016898 1_455
Ba1 O8 3.016898 1_565
Ba1 O11 3.016901 1_555
Ba1 O7 3.016901 1_555
Ba1 O6 3.074646 1_565
Ba1 O10 3.074646 1_455
Ba1 O9 3.074652 1_555
Ba1 O3 3.209578 1_555
Ba1 O0 3.209579 1_555
Ba1 O4 3.209579 1_555
Ba2 O13 3.023384 1_545
Ba2 O17 3.023384 1_655
Ba2 O15 3.023390 1_545
Ba2 O15 3.023390 1_655
Ba2 O13 3.023396 1_555
Ba2 O17 3.023396 1_555
Ba2 O9 3.043302 1_555
Ba2 O6 3.043302 1_555
Ba2 O10 3.043302 1_555
Ba2 O14 3.303905 1_555
Ba2 O12 3.303905 1_555
Ba2 O16 3.303905 1_555
Ba3 O4 3.023488 1_545
Ba3 O0 3.023488 1_655
Ba3 O3 3.023494 1_545
Ba3 O3 3.023494 1_655
Ba3 O4 3.023500 1_555
Ba3 O0 3.023500 1_555
Ba3 O8 3.038436 1_555
Ba3 O7 3.038439 1_555
Ba3 O11 3.038439 1_555
Ba3 O2 3.283002 1_555
Ba3 O5 3.283002 1_545
Ba3 O1 3.283002 1_655
Ba4 O14 2.672990 1_455
Ba4 O16 2.672993 1_555
Ba4 O12 2.672993 1_445
Ba4 O23 3.107316 1_445
Ba4 O19 3.107316 1_555
Ba4 O21 3.107319 1_445
Ba4 O21 3.107319 1_555
Ba4 O19 3.107322 1_545
Ba4 O23 3.107322 1_545
Ba5 O10 3.017107 1_455
Ba5 O6 3.017107 1_455
Ba5 O9 3.017110 1_445
Ba5 O9 3.017110 1_555
Ba5 O10 3.017113 1_445
Ba5 O6 3.017113 1_555
Ba5 O8 3.089936 1_455
Ba5 O11 3.089936 1_445
Ba5 O7 3.089936 1_555
Ba5 O15 3.197830 1_545
Ba5 O17 3.197833 1_555
Ba5 O13 3.197833 1_445
Ba6 O15 2.786604 1_555
Ba6 O13 2.786604 1_555
Ba6 O17 2.786604 1_555
Ba6 O12 3.043019 1_455
Ba6 O16 3.043019 1_565
Ba6 O14 3.043025 1_455
Ba6 O14 3.043025 1_565
Ba6 O16 3.043031 1_555
Ba6 O12 3.043031 1_555
Ba7 O20 2.658383 1_555
Ba7 O18 2.658384 1_555
Ba7 O22 2.658384 1_555
Ba7 O24 3.082140 1_565
Ba7 O28 3.082140 1_455
Ba7 O26 3.082143 1_455
Ba7 O26 3.082143 1_565
Ba7 O28 3.082146 1_555
Ba7 O24 3.082146 1_555
Ba7 O25 3.401274 1_565
Ba7 O29 3.401274 1_455
Ba7 O27 3.401277 1_555
Ba8 O21 2.695390 1_555
Ba8 O19 2.695390 1_655
Ba8 O23 2.695390 1_545
Ba8 O18 3.040629 1_655
Ba8 O22 3.040629 1_545
Ba8 O20 3.040634 1_655
Ba8 O20 3.040634 1_545
Ba8 O22 3.040641 1_555
Ba8 O18 3.040641 1_555
Ba9 O25 2.871495 1_555
Ba9 O29 2.871495 1_555
Ba9 O27 2.871498 1_555
Ba9 O33 2.999803 1_555
Ba9 O31 2.999806 1_555
Ba9 O34 2.999806 1_555
Ba9 O30 3.016976 1_555
Ba9 O35 3.016976 1_555
Ba9 O35 3.016976 1_655
Ba9 O30 3.016976 1_545
Ba9 O32 3.016976 1_545
Ba9 O32 3.016976 1_655
Ba10 O38 2.878921 1_545
Ba10 O37 2.878921 1_555
Ba10 O40 2.878921 1_445
Ba10 O33 2.951363 1_455
Ba10 O34 2.951363 1_555
Ba10 O31 2.951363 1_445
Ba10 O36 3.017009 1_545
Ba10 O41 3.017009 1_545
Ba10 O36 3.017009 1_555
Ba10 O41 3.017009 1_445
Ba10 O39 3.017009 1_445
Ba10 O39 3.017009 1_555
Ba11 O26 2.837309 1_455
Ba11 O24 2.837309 1_555
Ba11 O28 2.837309 1_445
Ba11 O25 3.019471 1_455
Ba11 O29 3.019471 1_455
Ba11 O29 3.019471 1_445
Ba11 O25 3.019471 1_555
Ba11 O27 3.019472 1_445
Ba11 O27 3.019472 1_555
Ba11 O30 3.073711 1_445
Ba11 O35 3.073711 1_555
Ba11 O32 3.073714 1_545
Ba12 O32 2.921361 1_555
Ba12 O30 2.921367 1_555
Ba12 O35 2.921367 1_555
Ba12 O41 2.955226 1_555
Ba12 O36 2.955226 1_555
Ba12 O39 2.955228 1_555
Ba12 O31 3.016378 1_455
Ba12 O34 3.016378 1_565
Ba12 O33 3.016382 1_455
Ba12 O33 3.016382 1_565
Ba12 O34 3.016385 1_555
Ba12 O31 3.016385 1_555
Ba13 O45 2.701471 1_555
Ba13 O43 2.701471 1_565
Ba13 O46 2.701471 1_455
Ba13 O42 3.028858 1_565
Ba13 O47 3.028858 1_455
Ba13 O44 3.028861 1_565
Ba13 O44 3.028861 1_455
Ba13 O47 3.028864 1_555
Ba13 O42 3.028864 1_555
Ba13 O38 3.214347 1_555
Ba13 O40 3.214350 1_555
Ba13 O37 3.214350 1_555
Ba14 O44 2.813575 1_555
Ba14 O47 2.813578 1_555
Ba14 O42 2.813578 1_555
Ba14 O37 3.024069 1_655
Ba14 O40 3.024069 1_545
Ba14 O38 3.024073 1_545
Ba14 O38 3.024073 1_655
Ba14 O40 3.024075 1_555
Ba14 O37 3.024075 1_555
Ba14 O41 3.047579 1_545
Ba14 O36 3.047579 1_655
Ba14 O39 3.047582 1_555
Ba15 O50 2.740382 1_555
Ba15 O52 2.740386 1_555
Ba15 O48 2.740386 1_555
Ba15 O53 3.032813 1_655
Ba15 O49 3.032813 1_545
Ba15 O51 3.032817 1_655
Ba15 O51 3.032817 1_545
Ba15 O53 3.032819 1_555
Ba15 O49 3.032819 1_555
Ba16 O51 2.702417 1_545
Ba16 O53 2.702417 1_555
Ba16 O49 2.702417 1_445
Ba16 O43 3.079512 1_555
Ba16 O46 3.079512 1_445
Ba16 O45 3.079516 1_555
Ba16 O45 3.079516 1_445
Ba16 O46 3.079518 1_455
Ba16 O43 3.079518 1_455
Ba16 O44 3.399667 1_455
Ba16 O47 3.399667 1_445
Ba16 O42 3.399667 1_555
Ba17 O1 2.757637 1_556
Ba17 O5 2.757637 1_556
Ba17 O2 2.757643 1_556
Ba17 O52 3.081856 1_565
Ba17 O48 3.081856 1_455
Ba17 O50 3.081859 1_455
Ba17 O50 3.081859 1_565
Ba17 O48 3.081862 1_555
Ba17 O52 3.081862 1_555
Ca0 O2 2.207070 1_556
Ca0 O5 2.207070 1_546
Ca0 O1 2.207070 1_656
Ca0 O50 2.438882 1_555
Ca0 O52 2.438886 1_555
Ca0 O48 2.438886 1_555
Ca1 O8 2.243958 1_455
Ca1 O7 2.243958 1_555
Ca1 O11 2.243958 1_445
Ca1 O3 2.254853 1_545
Ca1 O0 2.254858 1_555
Ca1 O4 2.254858 1_445
Ca2 O14 2.179171 1_555
Ca2 O12 2.179171 1_555
Ca2 O16 2.179171 1_555
Ca2 O21 2.489378 1_555
Ca2 O19 2.489379 1_655
Ca2 O23 2.489379 1_545
Ca3 O10 2.245993 1_455
Ca3 O6 2.245993 1_565
Ca3 O9 2.246001 1_555
Ca3 O15 2.255994 1_555
Ca3 O13 2.255994 1_555
Ca3 O17 2.255994 1_555
Ca4 O20 2.194102 1_545
Ca4 O22 2.194107 1_445
Ca4 O18 2.194107 1_555
Ca4 O26 2.534649 1_455
Ca4 O24 2.534649 1_555
Ca4 O28 2.534649 1_445
Ca5 O51 2.225149 1_555
Ca5 O53 2.225154 1_555
Ca5 O49 2.225154 1_555
Ca5 O45 2.462903 1_555
Ca5 O46 2.462903 1_455
Ca5 O43 2.462903 1_565
O0 Zr0 2.063898 1_555
O1 Zr0 2.147254 1_555
O2 Zr0 2.147261 1_555
O3 Zr0 2.063898 1_555
O4 Zr0 2.063898 1_555
O5 Zr0 2.147254 1_555
O6 Zr1 2.086012 1_555
O7 Zr1 2.091125 1_555
O8 Zr1 2.091120 1_555
O9 Zr1 2.086012 1_555
O10 Zr1 2.086012 1_555
O11 Zr1 2.091125 1_555
O12 Zr2 2.142400 1_665
O13 Zr2 2.076672 1_665
O14 Zr2 2.142396 1_655
O15 Zr2 2.076667 1_565
O16 Zr2 2.142400 1_555
O17 Zr2 2.076672 1_555
O18 W0 2.039725 1_555
O19 W0 1.906393 1_555
O20 W0 2.039725 1_555
O21 W0 1.906401 1_555
O22 W0 2.039725 1_555
O23 W0 1.906393 1_555
O24 W1 1.878971 1_555
O25 W1 2.105866 1_555
O25 Zr4 2.151062 1_545
O26 W1 1.878966 1_555
O27 W1 2.105870 1_555
O27 Zr4 2.151066 1_555
O28 W1 1.878971 1_555
O29 W1 2.105866 1_555
O29 Zr4 2.151062 1_655
O30 Zr4 2.100707 1_555
O30 W2 2.140712 1_665
O31 W2 2.097402 1_665
O31 Zr3 2.134099 1_555
O32 Zr4 2.100699 1_555
O32 W2 2.140716 1_565
O33 W2 2.097402 1_655
O33 Zr3 2.134095 1_555
O34 W2 2.097402 1_555
O34 Zr3 2.134099 1_555
O35 Zr4 2.100707 1_555
O35 W2 2.140712 1_555
O36 W3 2.059664 1_555
O36 Zr3 2.181885 1_455
O37 W3 2.012617 1_555
O37 Zr5 2.271997 1_555
O38 W3 2.012612 1_555
O38 Zr5 2.271997 1_565
O39 W3 2.059668 1_555
O39 Zr3 2.181889 1_555
O40 W3 2.012617 1_555
O40 Zr5 2.271997 1_665
O41 W3 2.059664 1_555
O41 Zr3 2.181885 1_565
O42 Zr5 2.038111 1_555
O42 W4 2.190344 1_555
O43 W4 1.919551 1_555
O44 Zr5 2.038111 1_655
O44 W4 2.190340 1_555
O45 W4 1.919560 1_555
O46 W4 1.919551 1_555
O47 Zr5 2.038111 1_665
O47 W4 2.190344 1_555
O48 W5 1.923752 1_665
O49 W5 2.021468 1_665
O50 W5 1.923752 1_655
O51 W5 2.021468 1_565
O52 W5 1.923752 1_555
O53 W5 2.021468 1_555
