# generated using pymatgen
data_TmTaO4
_symmetry_space_group_name_H-M   'P 1'
_cell_length_a   5.24267362
_cell_length_b   7.48501242
_cell_length_c   7.46047481
_cell_angle_alpha   82.17995891
_cell_angle_beta   90.00000000
_cell_angle_gamma   90.00000000
_symmetry_Int_Tables_number   1
_chemical_formula_structural   TmTaO4
_chemical_formula_sum   'Tm4 Ta4 O16'
_cell_volume   290.03747369
_cell_formula_units_Z   4
loop_
 _symmetry_equiv_pos_site_id
 _symmetry_equiv_pos_as_xyz
  1  'x, y, z'
loop_
 _atom_site_type_symbol
 _atom_site_label
 _atom_site_symmetry_multiplicity
 _atom_site_fract_x
 _atom_site_fract_y
 _atom_site_fract_z
 _atom_site_occupancy
  Tm  Tm0  1  0.27712241  0.38535482  0.35497023  1
  Tm  Tm1  1  0.22287759  0.88535482  0.35497023  1
  Tm  Tm2  1  0.77712241  0.11464518  0.64502977  1
  Tm  Tm3  1  0.72287759  0.61464518  0.64502977  1
  Ta  Ta0  1  0.77050242  0.18248728  0.16458398  1
  Ta  Ta1  1  0.72949758  0.68248728  0.16458398  1
  Ta  Ta2  1  0.27050242  0.31751272  0.83541602  1
  Ta  Ta3  1  0.22949758  0.81751272  0.83541602  1
  O  O0  1  0.09957536  0.31266940  0.06985314  1
  O  O1  1  0.40042464  0.81266940  0.06985314  1
  O  O2  1  0.61866458  0.43332587  0.17056698  1
  O  O3  1  0.88133542  0.93332587  0.17056698  1
  O  O4  1  0.49211289  0.11474055  0.32458908  1
  O  O5  1  0.98601773  0.17180989  0.39255897  1
  O  O6  1  0.00788711  0.61474055  0.32458908  1
  O  O7  1  0.51398227  0.67180989  0.39255897  1
  O  O8  1  0.48601773  0.32819011  0.60744103  1
  O  O9  1  0.99211289  0.38525945  0.67541092  1
  O  O10  1  0.01398227  0.82819011  0.60744103  1
  O  O11  1  0.50788711  0.88525945  0.67541092  1
  O  O12  1  0.11866458  0.06667413  0.82943302  1
  O  O13  1  0.38133542  0.56667413  0.82943302  1
  O  O14  1  0.59957536  0.18733060  0.93014686  1
  O  O15  1  0.90042464  0.68733060  0.93014686  1
loop_
_geom_bond_atom_site_label_1
_geom_bond_atom_site_label_2
_geom_bond_distance
_geom_bond_site_symmetry_2
O0 Ta2 1.961154 1_554
O0 Ta0 2.058629 1_455
O0 Tm0 2.449884 1_555
O1 Ta3 1.961154 1_554
O1 Ta1 2.058629 1_555
O1 Tm1 2.449884 1_555
O2 Ta1 1.948104 1_555
O2 Ta0 2.045383 1_555
O2 Tm0 2.256852 1_555
O3 Ta0 1.948104 1_565
O3 Ta1 2.045383 1_555
O3 Tm1 2.256852 1_655
O4 Ta0 1.909849 1_555
O4 Tm1 2.210379 1_545
O4 Tm0 2.355754 1_555
O4 Tm2 2.819107 1_555
O5 Ta0 2.034391 1_555
O5 Tm2 2.170468 1_555
O5 Tm0 2.200157 1_655
O5 Tm1 2.526168 1_645
O6 Ta1 1.909849 1_455
O6 Tm0 2.210379 1_555
O6 Tm1 2.355754 1_555
O6 Tm3 2.819107 1_455
O7 Ta1 2.034391 1_555
O7 Tm3 2.170468 1_555
O7 Tm1 2.200157 1_555
O7 Tm0 2.526168 1_555
O8 Ta2 2.034391 1_555
O8 Tm0 2.170468 1_555
O8 Tm2 2.200157 1_555
O8 Tm3 2.526168 1_555
O9 Ta2 1.909849 1_655
O9 Tm3 2.210379 1_555
O9 Tm2 2.355754 1_555
O9 Tm0 2.819107 1_655
O10 Ta3 2.034391 1_555
O10 Tm1 2.170468 1_555
O10 Tm3 2.200157 1_455
O10 Tm2 2.526168 1_465
O11 Ta3 1.909849 1_555
O11 Tm2 2.210379 1_565
O11 Tm3 2.355754 1_555
O11 Tm1 2.819107 1_555
O12 Ta3 1.948104 1_545
O12 Ta2 2.045383 1_555
O12 Tm2 2.256852 1_455
O13 Ta2 1.948104 1_555
O13 Ta3 2.045383 1_555
O13 Tm3 2.256852 1_555
O14 Ta0 1.961154 1_556
O14 Ta2 2.058629 1_555
O14 Tm2 2.449884 1_555
O15 Ta1 1.961154 1_556
O15 Ta3 2.058629 1_655
O15 Tm3 2.449884 1_555
