# generated using pymatgen
data_Ba2SrI6
_symmetry_space_group_name_H-M   'P 1'
_cell_length_a   8.29648106
_cell_length_b   8.59820706
_cell_length_c   25.09552018
_cell_angle_alpha   87.20455848
_cell_angle_beta   90.00000000
_cell_angle_gamma   90.00000000
_symmetry_Int_Tables_number   1
_chemical_formula_structural   Ba2SrI6
_chemical_formula_sum   'Ba8 Sr4 I24'
_cell_volume   1788.05518615
_cell_formula_units_Z   4
loop_
 _symmetry_equiv_pos_site_id
 _symmetry_equiv_pos_as_xyz
  1  'x, y, z'
loop_
 _atom_site_type_symbol
 _atom_site_label
 _atom_site_symmetry_multiplicity
 _atom_site_fract_x
 _atom_site_fract_y
 _atom_site_fract_z
 _atom_site_occupancy
  Ba  Ba0  1  0.44522822  0.76983201  0.73868744  1
  Ba  Ba1  1  0.01971985  0.67348733  0.90778725  1
  Ba  Ba2  1  0.05477178  0.76983201  0.23868744  1
  Ba  Ba3  1  0.48028015  0.67348733  0.40778725  1
  Ba  Ba4  1  0.51971985  0.32651267  0.59221275  1
  Ba  Ba5  1  0.94522822  0.23016799  0.76131256  1
  Ba  Ba6  1  0.98028015  0.32651267  0.09221275  1
  Ba  Ba7  1  0.55477178  0.23016799  0.26131256  1
  Sr  Sr0  1  0.96494818  0.84213626  0.58946127  1
  Sr  Sr1  1  0.53505182  0.84213626  0.08946127  1
  Sr  Sr2  1  0.46494818  0.15786374  0.91053873  1
  Sr  Sr3  1  0.03505182  0.15786374  0.41053873  1
  I  I0  1  0.21173542  0.97549703  0.82810512  1
  I  I1  1  0.71274306  0.92398950  0.83968597  1
  I  I2  1  0.29842071  0.86651759  0.98501728  1
  I  I3  1  0.28826458  0.97549703  0.32810512  1
  I  I4  1  0.78725694  0.92398950  0.33968597  1
  I  I5  1  0.20157929  0.86651759  0.48501728  1
  I  I6  1  0.70934068  0.63677253  0.52224423  1
  I  I7  1  0.23521100  0.58692211  0.63997234  1
  I  I8  1  0.74945529  0.53187354  0.68720751  1
  I  I9  1  0.24945529  0.46812646  0.81279249  1
  I  I10  1  0.79065932  0.63677253  0.02224423  1
  I  I11  1  0.73521100  0.41307789  0.86002766  1
  I  I12  1  0.26478900  0.58692211  0.13997234  1
  I  I13  1  0.20934068  0.36322747  0.97775577  1
  I  I14  1  0.75054471  0.53187354  0.18720751  1
  I  I15  1  0.25054471  0.46812646  0.31279249  1
  I  I16  1  0.76478900  0.41307789  0.36002766  1
  I  I17  1  0.29065932  0.36322747  0.47775577  1
  I  I18  1  0.79842071  0.13348241  0.51498272  1
  I  I19  1  0.21274306  0.07601050  0.66031403  1
  I  I20  1  0.71173542  0.02450297  0.67189488  1
  I  I21  1  0.70157929  0.13348241  0.01498272  1
  I  I22  1  0.28725694  0.07601050  0.16031403  1
  I  I23  1  0.78826458  0.02450297  0.17189488  1
loop_
_geom_bond_atom_site_label_1
_geom_bond_atom_site_label_2
_geom_bond_distance
_geom_bond_site_symmetry_2
Ba0 I7 3.467913 1_555
Ba0 I20 3.483576 1_565
Ba0 I0 3.507449 1_555
Ba0 I9 3.515045 1_555
Ba0 I8 3.533228 1_555
Ba0 I1 3.665340 1_555
Ba0 I19 3.743548 1_565
Ba1 I10 3.445744 1_456
Ba1 I2 3.488723 1_555
Ba1 I13 3.495382 1_555
Ba1 I11 3.504746 1_455
Ba1 I0 3.573941 1_555
Ba1 I9 3.583910 1_555
Ba1 I1 3.699627 1_455
Ba2 I12 3.467913 1_555
Ba2 I23 3.483576 1_465
Ba2 I3 3.507449 1_555
Ba2 I15 3.515045 1_555
Ba2 I14 3.533228 1_455
Ba2 I4 3.665340 1_455
Ba2 I22 3.743548 1_565
Ba3 I6 3.445744 1_555
Ba3 I5 3.488723 1_555
Ba3 I17 3.495382 1_555
Ba3 I16 3.504746 1_555
Ba3 I3 3.573941 1_555
Ba3 I15 3.583910 1_555
Ba3 I4 3.699627 1_555
Ba4 I17 3.445744 1_555
Ba4 I18 3.488723 1_555
Ba4 I6 3.495382 1_555
Ba4 I7 3.504746 1_555
Ba4 I20 3.573941 1_555
Ba4 I8 3.583910 1_555
Ba4 I19 3.699627 1_555
Ba5 I11 3.467913 1_555
Ba5 I0 3.483576 1_645
Ba5 I20 3.507449 1_555
Ba5 I8 3.515045 1_555
Ba5 I9 3.533228 1_655
Ba5 I19 3.665340 1_655
Ba5 I1 3.743548 1_545
Ba6 I13 3.445744 1_654
Ba6 I21 3.488723 1_555
Ba6 I10 3.495382 1_555
Ba6 I12 3.504746 1_655
Ba6 I23 3.573941 1_555
Ba6 I14 3.583910 1_555
Ba6 I22 3.699627 1_655
Ba7 I16 3.467913 1_555
Ba7 I3 3.483576 1_545
Ba7 I23 3.507449 1_555
Ba7 I14 3.515045 1_555
Ba7 I15 3.533228 1_555
Ba7 I22 3.665340 1_555
Ba7 I4 3.743548 1_545
I0 Sr2 3.386435 1_565
I1 Sr2 3.432272 1_565
I2 Sr1 3.273311 1_556
I2 Sr2 3.349753 1_565
I3 Sr3 3.386435 1_565
I4 Sr3 3.432272 1_665
I5 Sr0 3.273311 1_455
I5 Sr3 3.349753 1_565
I6 Sr0 3.278874 1_555
I7 Sr0 3.343413 1_455
I8 Sr0 3.961296 1_555
I9 Sr2 3.961296 1_555
I10 Sr1 3.278874 1_555
I11 Sr2 3.343413 1_555
I12 Sr1 3.343413 1_555
I13 Sr2 3.278874 1_555
I14 Sr1 3.961296 1_555
I15 Sr3 3.961296 1_555
I16 Sr3 3.343413 1_655
I17 Sr3 3.278874 1_555
I18 Sr3 3.273311 1_655
I18 Sr0 3.349753 1_545
I19 Sr0 3.432272 1_445
I20 Sr0 3.386435 1_545
I21 Sr2 3.273311 1_554
I21 Sr1 3.349753 1_545
I22 Sr1 3.432272 1_545
I23 Sr1 3.386435 1_545
