# generated using pymatgen
data_K8Li9(FeO4)4
_symmetry_space_group_name_H-M   'P 1'
_cell_length_a   5.56758000
_cell_length_b   9.14214348
_cell_length_c   10.49165752
_cell_angle_alpha   91.24626671
_cell_angle_beta   98.68322908
_cell_angle_gamma   89.87873556
_symmetry_Int_Tables_number   1
_chemical_formula_structural   K8Li9(FeO4)4
_chemical_formula_sum   'K8 Li9 Fe4 O16'
_cell_volume   527.77519707
_cell_formula_units_Z   1
loop_
 _symmetry_equiv_pos_site_id
 _symmetry_equiv_pos_as_xyz
  1  'x, y, z'
loop_
 _atom_site_type_symbol
 _atom_site_label
 _atom_site_symmetry_multiplicity
 _atom_site_fract_x
 _atom_site_fract_y
 _atom_site_fract_z
 _atom_site_occupancy
  K  K0  1  0.17222200  0.00185400  0.87645200  1
  K  K1  1  0.10182400  0.71872900  0.37392700  1
  K  K2  1  0.36247900  0.51676900  0.64444300  1
  K  K3  1  0.35584600  0.26829300  0.12296700  1
  K  K4  1  0.64886700  0.73696800  0.87350800  1
  K  K5  1  0.62855200  0.49293000  0.35272500  1
  K  K6  1  0.89276200  0.27133700  0.61961300  1
  K  K7  1  0.83697600  0.00035100  0.14304300  1
  Li  Li0  1  0.07591200  0.75760800  0.70269400  1
  Li  Li1  1  0.16280200  0.98516300  0.56041800  1
  Li  Li2  1  0.27756900  0.49220200  0.92543200  1
  Li  Li3  1  0.41041600  0.25533200  0.80426200  1
  Li  Li4  1  0.41356500  0.96685200  0.30421700  1
  Li  Li5  1  0.59463100  0.02341400  0.70453600  1
  Li  Li6  1  0.58252500  0.74071800  0.19316400  1
  Li  Li7  1  0.72363200  0.50868400  0.07061800  1
  Li  Li8  1  0.92937900  0.24729300  0.30351600  1
  Fe  Fe0  1  0.17510300  0.71513700  0.06058800  1
  Fe  Fe1  1  0.34928900  0.20564600  0.44848500  1
  Fe  Fe2  1  0.67075400  0.80132900  0.55052700  1
  Fe  Fe3  1  0.82404200  0.28425200  0.93793500  1
  O  O0  1  0.14831700  0.69707500  0.87944900  1
  O  O1  1  0.11563500  0.30026400  0.87360900  1
  O  O2  1  0.14918200  0.05292700  0.38021800  1
  O  O3  1  0.19745000  0.37997600  0.41811900  1
  O  O4  1  0.39332100  0.83252300  0.62861700  1
  O  O5  1  0.36708100  0.18101800  0.62404300  1
  O  O6  1  0.33279800  0.89030600  0.12514700  1
  O  O7  1  0.40224400  0.56717600  0.11462600  1
  O  O8  1  0.59679100  0.43151800  0.87847400  1
  O  O9  1  0.66415400  0.10808900  0.87842400  1
  O  O10  1  0.57665100  0.78748200  0.37599700  1
  O  O11  1  0.60088000  0.19478100  0.35598000  1
  O  O12  1  0.84818900  0.63616800  0.57948500  1
  O  O13  1  0.87825000  0.93355000  0.64465200  1
  O  O14  1  0.87805500  0.70323800  0.12131700  1
  O  O15  1  0.86085300  0.30370700  0.11992600  1
loop_
_geom_bond_atom_site_label_1
_geom_bond_atom_site_label_2
_geom_bond_distance
_geom_bond_site_symmetry_2
K0 O1 2.745866 1_555
K0 O13 2.778421 1_445
K0 O0 2.790878 1_545
K0 O6 2.838103 1_546
K0 O9 2.904888 1_555
K0 O9 2.991731 1_455
K1 O10 2.715413 1_555
K1 O14 2.753856 1_455
K1 O12 2.865277 1_455
K1 O10 2.992622 1_455
K1 O2 3.065621 1_565
K1 O4 3.071352 1_555
K1 O3 3.173379 1_555
K2 O3 2.695073 1_555
K2 O8 2.729452 1_555
K2 O4 2.901976 1_555
K2 O12 3.047075 1_455
K2 O5 3.072612 1_555
K2 O12 3.093568 1_555
K3 O11 2.711072 1_555
K3 O7 2.749688 1_555
K3 O15 2.769660 1_455
K3 O1 2.773733 1_554
K3 O15 2.835965 1_555
K4 O14 2.741247 1_556
K4 O0 2.795301 1_655
K4 O8 2.810511 1_555
K4 O0 2.821557 1_555
K4 O4 2.894373 1_555
K5 O10 2.717332 1_555
K5 O7 2.721825 1_555
K5 O11 2.731643 1_555
K5 O3 2.799382 1_555
K5 O12 2.804111 1_555
K6 O5 2.759204 1_655
K6 O1 2.771885 1_655
K6 O11 3.056892 1_555
K7 O14 2.732848 1_545
K7 O15 2.794347 1_555
K7 O2 2.844277 1_655
K7 O6 2.961675 1_545
K7 O6 2.967226 1_645
K7 O9 2.985316 1_554
Li0 O0 1.930215 1_555
Li0 O12 1.989907 1_455
Li0 O13 2.000481 1_455
Li0 O4 2.153850 1_555
Li1 O4 1.965971 1_555
Li1 O13 1.989377 1_455
Li1 O2 1.992827 1_565
Li1 O5 2.161607 1_565
Li2 O8 1.989372 1_555
Li2 O1 2.001177 1_555
Li2 O0 2.046319 1_555
Li2 O7 2.102022 1_556
Li3 O1 1.932970 1_555
Li3 O5 1.975338 1_555
Li3 O8 1.996484 1_555
Li3 O9 2.029482 1_555
Li4 O2 1.934927 1_565
Li4 O6 1.977534 1_555
Li4 O10 1.980297 1_555
Li4 O11 2.348100 1_565
Li5 O9 1.950391 1_555
Li5 O13 1.958255 1_545
Li5 O5 2.028891 1_555
Li5 O4 2.148131 1_545
Li6 O14 1.937468 1_555
Li6 O10 1.961282 1_555
Li6 O7 1.975781 1_555
Li6 O6 2.011817 1_555
Li7 O7 1.983831 1_555
Li7 O14 2.003228 1_555
Li7 O15 2.068740 1_555
Li7 O8 2.137913 1_554
Li8 O15 1.985484 1_555
Li8 O11 2.048821 1_555
Li8 O3 2.132378 1_655
Li8 O2 2.249067 1_655
Fe0 O14 1.864113 1_455
Fe0 O7 1.886819 1_555
Fe0 O0 1.887349 1_554
Fe0 O6 1.890338 1_555
Fe1 O3 1.814183 1_555
Fe1 O11 1.821979 1_555
Fe1 O5 1.848225 1_555
Fe1 O2 1.850864 1_555
Fe2 O12 1.808621 1_555
Fe2 O10 1.828663 1_555
Fe2 O13 1.838610 1_555
Fe2 O4 1.873108 1_555
Fe3 O1 1.857061 1_655
Fe3 O9 1.889580 1_555
Fe3 O15 1.893838 1_556
Fe3 O8 1.895680 1_555
