# generated using pymatgen
data_LiCuPO4
_symmetry_space_group_name_H-M   'P 1'
_cell_length_a   7.43572300
_cell_length_b   8.26096300
_cell_length_c   17.05961965
_cell_angle_alpha   63.15473415
_cell_angle_beta   90.00000000
_cell_angle_gamma   90.00000000
_symmetry_Int_Tables_number   1
_chemical_formula_structural   LiCuPO4
_chemical_formula_sum   'Li12 Cu12 P12 O48'
_cell_volume   934.97439876
_cell_formula_units_Z   12
loop_
 _symmetry_equiv_pos_site_id
 _symmetry_equiv_pos_as_xyz
  1  'x, y, z'
loop_
 _atom_site_type_symbol
 _atom_site_label
 _atom_site_symmetry_multiplicity
 _atom_site_fract_x
 _atom_site_fract_y
 _atom_site_fract_z
 _atom_site_occupancy
  Li  Li0  1  0.76067200  0.86121100  0.59038900  1
  Li  Li1  1  0.72424700  0.17963100  0.22842000  1
  Li  Li2  1  0.76754700  0.46013500  0.91967800  1
  Li  Li3  1  0.26754700  0.53986500  0.58032200  1
  Li  Li4  1  0.22424700  0.82036900  0.27158000  1
  Li  Li5  1  0.26067200  0.13878900  0.90961100  1
  Li  Li6  1  0.73932800  0.86121100  0.09038900  1
  Li  Li7  1  0.77575300  0.17963100  0.72842000  1
  Li  Li8  1  0.73245300  0.46013500  0.41967800  1
  Li  Li9  1  0.23245300  0.53986500  0.08032200  1
  Li  Li10  1  0.27575300  0.82036900  0.77158000  1
  Li  Li11  1  0.23932800  0.13878900  0.40961100  1
  Cu  Cu0  1  0.48399000  0.21661200  0.06065400  1
  Cu  Cu1  1  0.52692700  0.83937700  0.41208100  1
  Cu  Cu2  1  0.39297000  0.50865600  0.75734700  1
  Cu  Cu3  1  0.89297000  0.49134400  0.74265300  1
  Cu  Cu4  1  0.02692700  0.16062300  0.08791900  1
  Cu  Cu5  1  0.98399000  0.78338800  0.43934600  1
  Cu  Cu6  1  0.01601000  0.21661200  0.56065400  1
  Cu  Cu7  1  0.97307300  0.83937700  0.91208100  1
  Cu  Cu8  1  0.10703000  0.50865600  0.25734700  1
  Cu  Cu9  1  0.60703000  0.49134400  0.24265300  1
  Cu  Cu10  1  0.47307300  0.16062300  0.58791900  1
  Cu  Cu11  1  0.51601000  0.78338800  0.93934600  1
  P  P0  1  0.17913900  0.86890900  0.59225800  1
  P  P1  1  0.31425300  0.18571400  0.22972800  1
  P  P2  1  0.18145600  0.47365600  0.92891200  1
  P  P3  1  0.68145600  0.52634400  0.57108800  1
  P  P4  1  0.81425300  0.81428600  0.27027200  1
  P  P5  1  0.67913900  0.13109100  0.90774200  1
  P  P6  1  0.32086100  0.86890900  0.09225800  1
  P  P7  1  0.18574700  0.18571400  0.72972800  1
  P  P8  1  0.31854400  0.47365600  0.42891200  1
  P  P9  1  0.81854400  0.52634400  0.07108800  1
  P  P10  1  0.68574700  0.81428600  0.77027200  1
  P  P11  1  0.82086100  0.13109100  0.40774200  1
  O  O0  1  0.99788600  0.05235000  0.38946000  1
  O  O1  1  0.86397800  0.32082900  0.12123300  1
  O  O2  1  0.69148000  0.97061100  0.46272700  1
  O  O3  1  0.78155200  0.62915100  0.79318100  1
  O  O4  1  0.31446700  0.43315000  0.00562800  1
  O  O5  1  0.48800200  0.24281800  0.17099000  1
  O  O6  1  0.36466600  0.08220000  0.32686000  1
  O  O7  1  0.26475900  0.73723400  0.68009000  1
  O  O8  1  0.00682300  0.35991100  0.96539100  1
  O  O9  1  0.13130000  0.76073200  0.54023300  1
  O  O10  1  0.26366100  0.40504400  0.86537800  1
  O  O11  1  0.19294900  0.07463400  0.19879800  1
  O  O12  1  0.76366100  0.59495600  0.63462200  1
  O  O13  1  0.69294900  0.92536600  0.30120200  1
  O  O14  1  0.63130000  0.23926800  0.95976700  1
  O  O15  1  0.50682300  0.64008900  0.53460900  1
  O  O16  1  0.76475900  0.26276600  0.81991000  1
  O  O17  1  0.86466600  0.91780000  0.17314000  1
  O  O18  1  0.98800200  0.75718200  0.32901000  1
  O  O19  1  0.28155200  0.37084900  0.70681900  1
  O  O20  1  0.81446700  0.56685000  0.49437200  1
  O  O21  1  0.19148000  0.02938900  0.03727300  1
  O  O22  1  0.36397800  0.67917100  0.37876700  1
  O  O23  1  0.49788600  0.94765000  0.11054000  1
  O  O24  1  0.50211400  0.05235000  0.88946000  1
  O  O25  1  0.63602200  0.32082900  0.62123300  1
  O  O26  1  0.80852000  0.97061100  0.96272700  1
  O  O27  1  0.18553300  0.43315000  0.50562800  1
  O  O28  1  0.71844800  0.62915100  0.29318100  1
  O  O29  1  0.01199800  0.24281800  0.67099000  1
  O  O30  1  0.13533400  0.08220000  0.82686000  1
  O  O31  1  0.23524100  0.73723400  0.18009000  1
  O  O32  1  0.49317700  0.35991100  0.46539100  1
  O  O33  1  0.36870000  0.76073200  0.04023300  1
  O  O34  1  0.30705100  0.07463400  0.69879800  1
  O  O35  1  0.23633900  0.40504400  0.36537800  1
  O  O36  1  0.80705100  0.92536600  0.80120200  1
  O  O37  1  0.73633900  0.59495600  0.13462200  1
  O  O38  1  0.86870000  0.23926800  0.45976700  1
  O  O39  1  0.99317700  0.64008900  0.03460900  1
  O  O40  1  0.73524100  0.26276600  0.31991000  1
  O  O41  1  0.63533400  0.91780000  0.67314000  1
  O  O42  1  0.51199800  0.75718200  0.82901000  1
  O  O43  1  0.68553300  0.56685000  0.99437200  1
  O  O44  1  0.21844800  0.37084900  0.20681900  1
  O  O45  1  0.30852000  0.02938900  0.53727300  1
  O  O46  1  0.13602200  0.67917100  0.87876700  1
  O  O47  1  0.00211400  0.94765000  0.61054000  1
loop_
_geom_bond_atom_site_label_1
_geom_bond_atom_site_label_2
_geom_bond_distance
_geom_bond_site_symmetry_2
Li0 O41 1.917304 1_555
Li0 O12 1.977063 1_555
Li0 O2 2.011694 1_555
Li0 O47 2.018134 1_655
Li1 O13 1.911108 1_545
Li1 O5 1.963744 1_555
Li1 O1 1.964024 1_555
Li1 O40 1.970406 1_555
Li2 O14 1.922539 1_555
Li2 O43 1.946108 1_555
Li2 O8 1.968762 1_655
Li2 O3 1.973816 1_555
Li3 O9 1.922539 1_555
Li3 O27 1.946108 1_555
Li3 O15 1.968762 1_555
Li3 O19 1.973816 1_555
Li4 O11 1.911108 1_565
Li4 O18 1.963744 1_455
Li4 O22 1.964024 1_555
Li4 O31 1.970406 1_555
Li5 O30 1.917304 1_555
Li5 O10 1.977063 1_555
Li5 O21 2.011694 1_556
Li5 O24 2.018134 1_555
Li6 O17 1.917304 1_555
Li6 O37 1.977063 1_555
Li6 O26 2.011694 1_554
Li6 O23 2.018134 1_555
Li7 O36 1.911108 1_545
Li7 O29 1.963744 1_655
Li7 O25 1.964024 1_555
Li7 O16 1.970406 1_555
Li8 O38 1.922539 1_555
Li8 O20 1.946108 1_555
Li8 O32 1.968762 1_555
Li8 O28 1.973816 1_555
Li9 O33 1.922539 1_555
Li9 O4 1.946108 1_555
Li9 O39 1.968762 1_455
Li9 O44 1.973816 1_555
Li10 O34 1.911108 1_565
Li10 O42 1.963744 1_555
Li10 O46 1.964024 1_555
Li10 O7 1.970406 1_555
Li11 O6 1.917304 1_555
Li11 O35 1.977063 1_555
Li11 O45 2.011694 1_555
Li11 O0 2.018134 1_455
Cu0 O14 1.976378 1_554
Cu0 O5 1.989674 1_555
Cu0 O23 1.990958 1_545
Cu0 O4 2.037985 1_555
Cu1 O15 1.998485 1_555
Cu1 O22 2.054732 1_555
Cu1 O2 2.065167 1_555
Cu1 O13 2.095947 1_555
Cu1 O6 2.226942 1_565
Cu2 O19 1.900439 1_555
Cu2 O10 1.904978 1_555
Cu2 O7 1.990928 1_555
Cu3 O3 1.900439 1_555
Cu3 O12 1.904978 1_555
Cu3 O16 1.990928 1_555
Cu4 O8 1.998485 1_554
Cu4 O1 2.054732 1_455
Cu4 O21 2.065167 1_555
Cu4 O11 2.095947 1_555
Cu4 O17 2.226942 1_445
Cu5 O9 1.976378 1_655
Cu5 O18 1.989674 1_555
Cu5 O0 1.990958 1_565
Cu5 O20 2.037985 1_555
Cu6 O38 1.976378 1_455
Cu6 O29 1.989674 1_555
Cu6 O47 1.990958 1_545
Cu6 O27 2.037985 1_555
Cu7 O39 1.998485 1_556
Cu7 O46 2.054732 1_655
Cu7 O26 2.065167 1_555
Cu7 O36 2.095947 1_555
Cu7 O30 2.226942 1_665
Cu8 O44 1.900439 1_555
Cu8 O35 1.904978 1_555
Cu8 O31 1.990928 1_555
Cu9 O28 1.900439 1_555
Cu9 O37 1.904978 1_555
Cu9 O40 1.990928 1_555
Cu10 O32 1.998485 1_555
Cu10 O25 2.054732 1_555
Cu10 O45 2.065167 1_555
Cu10 O34 2.095947 1_555
Cu10 O41 2.226942 1_545
Cu11 O33 1.976378 1_556
Cu11 O42 1.989674 1_555
Cu11 O24 1.990958 1_565
Cu11 O43 2.037985 1_555
O0 P11 1.560861 1_555
O1 P9 1.554537 1_555
O2 P11 1.561988 1_565
O3 P10 1.568258 1_555
O4 P2 1.551595 1_554
O5 P1 1.571254 1_555
O6 P1 1.528974 1_555
O7 P0 1.536762 1_555
O8 P2 1.558280 1_555
O9 P0 1.558581 1_555
O10 P2 1.557083 1_555
O11 P1 1.539914 1_555
O12 P3 1.557083 1_555
O13 P4 1.539914 1_555
O14 P5 1.558581 1_555
O15 P3 1.558280 1_555
O16 P5 1.536762 1_555
O17 P4 1.528974 1_555
O18 P4 1.571254 1_555
O19 P7 1.568258 1_555
O20 P3 1.551595 1_555
O21 P6 1.561988 1_545
O22 P8 1.554537 1_555
O23 P6 1.560861 1_555
O24 P5 1.560861 1_555
O25 P3 1.554537 1_555
O26 P5 1.561988 1_565
O27 P8 1.551595 1_555
O28 P4 1.568258 1_555
O29 P7 1.571254 1_555
O30 P7 1.528974 1_555
O31 P6 1.536762 1_555
O32 P8 1.558280 1_555
O33 P6 1.558581 1_555
O34 P7 1.539914 1_555
O35 P8 1.557083 1_555
O36 P10 1.539914 1_555
O37 P9 1.557083 1_555
O38 P11 1.558581 1_555
O39 P9 1.558280 1_555
O40 P11 1.536762 1_555
O41 P10 1.528974 1_555
O42 P10 1.571254 1_555
O43 P9 1.551595 1_556
O44 P1 1.568258 1_555
O45 P0 1.561988 1_545
O46 P2 1.554537 1_555
O47 P0 1.560861 1_555
