# generated using pymatgen
data_Zr2(PO4)3
_symmetry_space_group_name_H-M   'P 1'
_cell_length_a   9.17579271
_cell_length_b   9.17579271
_cell_length_c   9.17579206
_cell_angle_alpha   58.46276009
_cell_angle_beta   58.46276009
_cell_angle_gamma   58.46276346
_symmetry_Int_Tables_number   1
_chemical_formula_structural   Zr2(PO4)3
_chemical_formula_sum   'Zr4 P6 O24'
_cell_volume   527.06624458
_cell_formula_units_Z   2
loop_
 _symmetry_equiv_pos_site_id
 _symmetry_equiv_pos_as_xyz
  1  'x, y, z'
loop_
 _atom_site_type_symbol
 _atom_site_label
 _atom_site_symmetry_multiplicity
 _atom_site_fract_x
 _atom_site_fract_y
 _atom_site_fract_z
 _atom_site_occupancy
  Zr  Zr0  1  0.14030782  0.14030782  0.14030782  1
  Zr  Zr1  1  0.35969218  0.35969218  0.35969218  1
  Zr  Zr2  1  0.85969218  0.85969218  0.85969218  1
  Zr  Zr3  1  0.64030782  0.64030782  0.64030782  1
  P  P0  1  0.75000000  0.03098349  0.46901651  1
  P  P1  1  0.96901651  0.53098349  0.25000000  1
  P  P2  1  0.53098349  0.25000000  0.96901651  1
  P  P3  1  0.46901651  0.75000000  0.03098349  1
  P  P4  1  0.03098349  0.46901651  0.75000000  1
  P  P5  1  0.25000000  0.96901651  0.53098349  1
  O  O0  1  0.91691311  0.05920716  0.30000662  1
  O  O1  1  0.77690825  0.00119944  0.63416210  1
  O  O2  1  0.69999338  0.08308689  0.94079284  1
  O  O3  1  -0.00119944  0.36583790  0.22309175  1
  O  O4  1  0.86583790  0.49880056  0.72309175  1
  O  O5  1  0.58308689  0.19999338  0.44079284  1
  O  O6  1  0.80000662  0.55920716  0.41691311  1
  O  O7  1  0.94079284  0.69999338  0.08308689  1
  O  O8  1  0.50119944  0.27690825  0.13416210  1
  O  O9  1  0.36583790  0.22309175  -0.00119944  1
  O  O10  1  0.27690825  0.13416210  0.50119944  1
  O  O11  1  0.55920716  0.41691311  0.80000662  1
  O  O12  1  0.44079284  0.58308689  0.19999338  1
  O  O13  1  0.72309175  0.86583790  0.49880056  1
  O  O14  1  0.63416210  0.77690825  0.00119944  1
  O  O15  1  0.49880056  0.72309175  0.86583790  1
  O  O16  1  0.05920716  0.30000662  0.91691311  1
  O  O17  1  0.19999338  0.44079284  0.58308689  1
  O  O18  1  0.41691311  0.80000662  0.55920716  1
  O  O19  1  0.13416210  0.50119944  0.27690825  1
  O  O20  1  0.00119944  0.63416210  0.77690825  1
  O  O21  1  0.30000662  0.91691311  0.05920716  1
  O  O22  1  0.22309175  -0.00119944  0.36583790  1
  O  O23  1  0.08308689  0.94079284  0.69999338  1
loop_
_geom_bond_atom_site_label_1
_geom_bond_atom_site_label_2
_geom_bond_distance
_geom_bond_site_symmetry_2
O0 P0 1.525733 1_555
O0 Zr0 2.053194 1_655
O1 P0 1.522988 1_555
O1 Zr2 2.084989 1_545
O2 P2 1.525733 1_555
O2 Zr2 2.053194 1_545
O3 P1 1.522988 1_455
O3 Zr0 2.084989 1_555
O4 P4 1.522988 1_655
O4 Zr3 2.084989 1_555
O5 P0 1.525733 1_555
O5 Zr1 2.053194 1_555
O6 P1 1.525733 1_555
O6 Zr3 2.053194 1_555
O7 P1 1.525733 1_555
O7 Zr2 2.053194 1_554
O8 P2 1.522988 1_554
O8 Zr1 2.084989 1_555
O9 P2 1.522988 1_554
O9 Zr0 2.084989 1_555
O10 P5 1.522988 1_545
O10 Zr1 2.084989 1_555
O11 P2 1.525733 1_555
O11 Zr3 2.053194 1_555
O12 P3 1.525733 1_555
O12 Zr1 2.053194 1_555
O13 P0 1.522988 1_565
O13 Zr3 2.084989 1_555
O14 P3 1.522988 1_555
O14 Zr2 2.084989 1_554
O15 P3 1.522988 1_556
O15 Zr3 2.084989 1_555
O16 P4 1.525733 1_555
O16 Zr0 2.053194 1_556
O17 P4 1.525733 1_555
O17 Zr1 2.053194 1_555
O18 P5 1.525733 1_555
O18 Zr3 2.053194 1_555
O19 P1 1.522988 1_455
O19 Zr1 2.084989 1_555
O20 P4 1.522988 1_555
O20 Zr2 2.084989 1_455
O21 P3 1.525733 1_555
O21 Zr0 2.053194 1_565
O22 P5 1.522988 1_545
O22 Zr0 2.084989 1_555
O23 P5 1.525733 1_555
O23 Zr2 2.053194 1_455
