# generated using pymatgen
data_NaTi4O8
_symmetry_space_group_name_H-M   'P 1'
_cell_length_a   6.06816700
_cell_length_b   7.13030030
_cell_length_c   10.35614041
_cell_angle_alpha   101.08854776
_cell_angle_beta   91.21276839
_cell_angle_gamma   94.58974250
_symmetry_Int_Tables_number   1
_chemical_formula_structural   NaTi4O8
_chemical_formula_sum   'Na3 Ti12 O24'
_cell_volume   438.00639900
_cell_formula_units_Z   3
loop_
 _symmetry_equiv_pos_site_id
 _symmetry_equiv_pos_as_xyz
  1  'x, y, z'
loop_
 _atom_site_type_symbol
 _atom_site_label
 _atom_site_symmetry_multiplicity
 _atom_site_fract_x
 _atom_site_fract_y
 _atom_site_fract_z
 _atom_site_occupancy
  Na  Na0  1  0.01996400  0.42661600  0.06422600  1
  Na  Na1  1  0.74071800  0.57337000  0.69444600  1
  Na  Na2  1  0.46892400  0.57132200  0.42446500  1
  Ti  Ti0  1  0.00037800  0.98045800  0.99249500  1
  Ti  Ti1  1  0.25373300  0.00169400  0.24769500  1
  Ti  Ti2  1  0.74234900  0.02116300  0.75784600  1
  Ti  Ti3  1  0.50014200  0.01325400  0.50623000  1
  Ti  Ti4  1  0.26452800  0.30709500  0.78929000  1
  Ti  Ti5  1  0.02435900  0.29786300  0.53822500  1
  Ti  Ti6  1  0.77942200  0.29726200  0.29550100  1
  Ti  Ti7  1  0.52223400  0.30012600  0.04843100  1
  Ti  Ti8  1  0.48282900  0.69385200  0.96070200  1
  Ti  Ti9  1  0.22495500  0.70441200  0.70859400  1
  Ti  Ti10  1  0.72550900  0.70406700  0.20508700  1
  Ti  Ti11  1  0.98222000  0.70142000  0.45074900  1
  O  O0  1  0.02143600  0.14476900  0.85609800  1
  O  O1  1  0.52153300  0.13899400  0.34845200  1
  O  O2  1  0.77288700  0.14289700  0.59900300  1
  O  O3  1  0.26675200  0.13969800  0.09839400  1
  O  O4  1  0.29182800  0.18746700  0.60241700  1
  O  O5  1  0.53935300  0.18527600  0.85112300  1
  O  O6  1  0.03935800  0.18353000  0.35131300  1
  O  O7  1  0.78099800  0.18253200  0.10161700  1
  O  O8  1  0.31365700  0.45203300  0.97416600  1
  O  O9  1  0.04329400  0.44930700  0.73048000  1
  O  O10  1  0.54760700  0.45296000  0.22355400  1
  O  O11  1  0.78815500  0.45408100  0.47723600  1
  O  O12  1  0.43813300  0.54778900  0.77435000  1
  O  O13  1  0.18815100  0.54435800  0.52850100  1
  O  O14  1  0.95686400  0.54512600  0.27403100  1
  O  O15  1  0.70989500  0.54917500  0.02212000  1
  O  O16  1  0.20946100  0.81227600  0.89886600  1
  O  O17  1  0.97023600  0.81647600  0.64683800  1
  O  O18  1  0.71985900  0.81510100  0.39701500  1
  O  O19  1  0.46282200  0.81381900  0.14721600  1
  O  O20  1  0.48222300  0.85352800  0.64672600  1
  O  O21  1  0.72850200  0.85238400  0.89408300  1
  O  O22  1  0.23635400  0.85810700  0.40205400  1
  O  O23  1  0.98055700  0.85994100  0.15224200  1
loop_
_geom_bond_atom_site_label_1
_geom_bond_atom_site_label_2
_geom_bond_distance
_geom_bond_site_symmetry_2
Na0 O8 2.040238 1_554
Na0 O15 2.206590 1_455
Na0 O14 2.227636 1_455
Na0 O7 2.271730 1_455
Na0 O0 2.649920 1_554
Na0 O3 2.701768 1_555
Na1 O12 2.039165 1_555
Na1 O9 2.156594 1_655
Na1 O17 2.271347 1_555
Na1 O11 2.279697 1_555
Na1 O21 2.585694 1_555
Na1 O20 2.746552 1_555
Na2 O13 2.050755 1_555
Na2 O10 2.168061 1_555
Na2 O11 2.267184 1_555
Na2 O18 2.281594 1_555
Na2 O22 2.618696 1_555
Na2 O20 2.745582 1_555
O0 Ti0 2.001120 1_545
O0 Ti2 2.005850 1_455
O0 Ti4 2.017997 1_555
O1 Ti1 1.992159 1_555
O1 Ti6 2.003721 1_555
O1 Ti3 2.011067 1_555
O2 Ti3 1.965459 1_555
O2 Ti5 1.996002 1_655
O2 Ti2 2.007531 1_555
O3 Ti1 1.985738 1_555
O3 Ti7 1.989345 1_555
O3 Ti0 2.063243 1_544
O4 Ti4 1.975237 1_555
O4 Ti3 1.990442 1_555
O4 Ti5 2.013928 1_555
O5 Ti2 1.914698 1_555
O5 Ti7 2.058067 1_556
O5 Ti4 2.084771 1_555
O6 Ti6 1.956045 1_455
O6 Ti5 1.957577 1_555
O6 Ti1 2.078133 1_555
O7 Ti7 1.955448 1_555
O7 Ti6 2.017717 1_555
O7 Ti0 2.206729 1_644
O8 Ti8 1.965081 1_555
O8 Ti7 1.966033 1_556
O8 Ti4 1.997008 1_555
O9 Ti4 1.903216 1_555
O9 Ti5 2.070479 1_555
O9 Ti9 2.103205 1_555
O10 Ti7 1.923933 1_555
O10 Ti10 2.058851 1_555
O10 Ti6 2.071273 1_555
O11 Ti6 1.993015 1_555
O11 Ti5 2.044968 1_655
O11 Ti11 2.107057 1_555
O12 Ti9 1.967421 1_555
O12 Ti4 1.974544 1_555
O12 Ti8 2.010524 1_555
O13 Ti5 1.969735 1_555
O13 Ti9 1.988373 1_555
O13 Ti11 1.998083 1_455
O14 Ti11 1.947067 1_555
O14 Ti6 2.046720 1_555
O14 Ti10 2.070878 1_555
O15 Ti8 1.951936 1_554
O15 Ti10 1.997452 1_555
O15 Ti7 2.097637 1_555
O16 Ti0 1.958643 1_555
O16 Ti9 1.979808 1_555
O16 Ti8 2.064476 1_555
O17 Ti9 1.946540 1_655
O17 Ti11 2.043806 1_555
O17 Ti2 2.260288 1_565
O18 Ti11 1.960577 1_555
O18 Ti10 1.995142 1_555
O18 Ti3 2.191754 1_565
O19 Ti10 1.962683 1_555
O19 Ti8 1.966824 1_554
O19 Ti1 2.068544 1_565
O20 Ti9 2.004221 1_555
O20 Ti3 2.012510 1_565
O20 Ti2 2.082469 1_565
O21 Ti0 1.980950 1_655
O21 Ti8 2.012462 1_555
O21 Ti2 2.021854 1_565
O22 Ti11 1.963304 1_455
O22 Ti3 2.033326 1_565
O22 Ti1 2.057699 1_565
O23 Ti10 1.981060 1_555
O23 Ti1 2.006201 1_665
O23 Ti0 2.007120 1_654
