# generated using pymatgen
data_NaCr2O4
_symmetry_space_group_name_H-M   'P 1'
_cell_length_a   2.97350100
_cell_length_b   9.06493400
_cell_length_c   10.61801200
_cell_angle_alpha   90.00000000
_cell_angle_beta   90.00000000
_cell_angle_gamma   90.00000000
_symmetry_Int_Tables_number   1
_chemical_formula_structural   NaCr2O4
_chemical_formula_sum   'Na4 Cr8 O16'
_cell_volume   286.20416341
_cell_formula_units_Z   4
loop_
 _symmetry_equiv_pos_site_id
 _symmetry_equiv_pos_as_xyz
  1  'x, y, z'
loop_
 _atom_site_type_symbol
 _atom_site_label
 _atom_site_symmetry_multiplicity
 _atom_site_fract_x
 _atom_site_fract_y
 _atom_site_fract_z
 _atom_site_occupancy
  Na  Na0  1  0.25000000  0.74316600  0.15278800  1
  Na  Na1  1  0.75000000  0.75683400  0.65278800  1
  Na  Na2  1  0.25000000  0.24316600  0.34721200  1
  Na  Na3  1  0.75000000  0.25683400  0.84721200  1
  Cr  Cr0  1  0.25000000  0.56411800  0.38730300  1
  Cr  Cr1  1  0.25000000  0.58057700  0.89507400  1
  Cr  Cr2  1  0.75000000  0.91942300  0.39507400  1
  Cr  Cr3  1  0.75000000  0.93588200  0.88730300  1
  Cr  Cr4  1  0.25000000  0.06411800  0.11269700  1
  Cr  Cr5  1  0.25000000  0.08057700  0.60492600  1
  Cr  Cr6  1  0.75000000  0.41942300  0.10492600  1
  Cr  Cr7  1  0.75000000  0.43588200  0.61269700  1
  O  O0  1  0.75000000  0.52125600  0.78452300  1
  O  O1  1  0.25000000  0.57552600  0.57247200  1
  O  O2  1  0.75000000  0.61275100  0.01764800  1
  O  O3  1  0.75000000  0.70591600  0.35126200  1
  O  O4  1  0.25000000  0.79408400  0.85126200  1
  O  O5  1  0.25000000  0.88724900  0.51764800  1
  O  O6  1  0.75000000  0.92447400  0.07247200  1
  O  O7  1  0.25000000  0.97874400  0.28452300  1
  O  O8  1  0.75000000  0.02125600  0.71547700  1
  O  O9  1  0.25000000  0.07552600  0.92752800  1
  O  O10  1  0.75000000  0.11275100  0.48235200  1
  O  O11  1  0.75000000  0.20591600  0.14873800  1
  O  O12  1  0.25000000  0.29408400  0.64873800  1
  O  O13  1  0.25000000  0.38724900  0.98235200  1
  O  O14  1  0.75000000  0.42447400  0.42752800  1
  O  O15  1  0.25000000  0.47874400  0.21547700  1
loop_
_geom_bond_atom_site_label_1
_geom_bond_atom_site_label_2
_geom_bond_distance
_geom_bond_site_symmetry_2
Na0 O6 2.374643 1_455
Na0 O6 2.374643 1_555
Na0 O2 2.380551 1_555
Na0 O2 2.380551 1_455
Na0 O15 2.487674 1_555
Na0 O7 2.552821 1_555
Na0 O3 2.601073 1_455
Na0 O3 2.601073 1_555
Na1 O1 2.374643 1_555
Na1 O1 2.374643 1_655
Na1 O5 2.380551 1_655
Na1 O5 2.380551 1_555
Na1 O8 2.487674 1_565
Na1 O0 2.552821 1_555
Na1 O4 2.601073 1_655
Na1 O4 2.601073 1_555
Na2 O14 2.374643 1_455
Na2 O14 2.374643 1_555
Na2 O10 2.380551 1_455
Na2 O10 2.380551 1_555
Na2 O7 2.487674 1_545
Na2 O15 2.552821 1_555
Na2 O11 2.601073 1_555
Na2 O11 2.601073 1_455
Na3 O9 2.374643 1_555
Na3 O9 2.374643 1_655
Na3 O13 2.380551 1_655
Na3 O13 2.380551 1_555
Na3 O0 2.487674 1_555
Na3 O8 2.552821 1_555
Na3 O12 2.601073 1_555
Na3 O12 2.601073 1_655
Cr0 O1 1.968844 1_555
Cr0 O15 1.981806 1_555
Cr0 O14 1.998815 1_555
Cr0 O14 1.998815 1_455
Cr0 O3 2.002274 1_555
Cr0 O3 2.002274 1_455
Cr1 O0 1.969130 1_455
Cr1 O0 1.969130 1_555
Cr1 O13 1.982444 1_555
Cr1 O4 1.990549 1_555
Cr1 O2 1.997341 1_456
Cr1 O2 1.997341 1_556
Cr2 O7 1.969130 1_655
Cr2 O7 1.969130 1_555
Cr2 O10 1.982444 1_565
Cr2 O3 1.990549 1_555
Cr2 O5 1.997341 1_555
Cr2 O5 1.997341 1_655
Cr3 O6 1.968844 1_556
Cr3 O8 1.981806 1_565
Cr3 O9 1.998815 1_565
Cr3 O9 1.998815 1_665
Cr3 O4 2.002274 1_555
Cr3 O4 2.002274 1_655
Cr4 O9 1.968844 1_554
Cr4 O7 1.981806 1_545
Cr4 O6 1.998815 1_445
Cr4 O6 1.998815 1_545
Cr4 O11 2.002274 1_555
Cr4 O11 2.002274 1_455
Cr5 O8 1.969130 1_455
Cr5 O8 1.969130 1_555
Cr5 O5 1.982444 1_545
Cr5 O12 1.990549 1_555
Cr5 O10 1.997341 1_555
Cr5 O10 1.997341 1_455
Cr6 O15 1.969130 1_655
Cr6 O15 1.969130 1_555
Cr6 O2 1.982444 1_555
Cr6 O11 1.990549 1_555
Cr6 O13 1.997341 1_654
Cr6 O13 1.997341 1_554
Cr7 O14 1.968844 1_555
Cr7 O0 1.981806 1_555
Cr7 O1 1.998815 1_555
Cr7 O1 1.998815 1_655
Cr7 O12 2.002274 1_555
Cr7 O12 2.002274 1_655
