# generated using pymatgen
data_K2NaCa2TiSi7HO20
_symmetry_space_group_name_H-M   'P 1'
_cell_length_a   7.06618716
_cell_length_b   10.40562636
_cell_length_c   12.17040552
_cell_angle_alpha   92.65274739
_cell_angle_beta   90.58204788
_cell_angle_gamma   99.14170767
_symmetry_Int_Tables_number   1
_chemical_formula_structural   K2NaCa2TiSi7HO20
_chemical_formula_sum   'K4 Na2 Ca4 Ti2 Si14 H2 O40'
_cell_volume   882.41470011
_cell_formula_units_Z   2
loop_
 _symmetry_equiv_pos_site_id
 _symmetry_equiv_pos_as_xyz
  1  'x, y, z'
loop_
 _atom_site_type_symbol
 _atom_site_label
 _atom_site_symmetry_multiplicity
 _atom_site_fract_x
 _atom_site_fract_y
 _atom_site_fract_z
 _atom_site_occupancy
  K  K0  1  0.22018922  0.33696323  0.09653552  1
  K  K1  1  0.77981078  0.66303677  0.90346448  1
  K  K2  1  0.72682459  0.44835639  0.34892929  1
  K  K3  1  0.27317541  0.55164361  0.65107071  1
  Na  Na0  1  0.61175178  0.97801082  0.10854565  1
  Na  Na1  1  0.38824822  0.02198918  0.89145435  1
  Ca  Ca0  1  0.08850438  0.87975483  0.40694626  1
  Ca  Ca1  1  0.91149562  0.12024517  0.59305374  1
  Ca  Ca2  1  0.59030986  0.87557500  0.42030810  1
  Ca  Ca3  1  0.40969014  0.12442500  0.57969190  1
  Ti  Ti0  1  0.10266183  0.98576894  0.10006617  1
  Ti  Ti1  1  0.89733817  0.01423106  0.89993383  1
  Si  Si0  1  0.12591190  0.86911894  0.69194410  1
  Si  Si1  1  0.87408810  0.13088106  0.30805590  1
  Si  Si2  1  0.57585948  0.87098006  0.70124576  1
  Si  Si3  1  0.42414052  0.12901994  0.29875424  1
  Si  Si4  1  0.80346863  0.68376779  0.58450099  1
  Si  Si5  1  0.19653137  0.31623221  0.41549901  1
  Si  Si6  1  0.00350064  0.31631040  0.81824806  1
  Si  Si7  1  0.99649936  0.68368960  0.18175194  1
  Si  Si8  1  0.43207749  0.30990065  0.81341551  1
  Si  Si9  1  0.56792251  0.69009935  0.18658449  1
  Si  Si10  1  0.73391389  0.39673425  0.64851444  1
  Si  Si11  1  0.26608611  0.60326575  0.35148556  1
  Si  Si12  1  0.71885602  0.27603055  0.99099935  1
  Si  Si13  1  0.28114398  0.72396945  0.00900065  1
  H  H0  1  0.30051572  0.74048862  0.82716749  1
  H  H1  1  0.69948428  0.25951138  0.17283251  1
  O  O0  1  0.00351167  0.72404027  0.65634914  1
  O  O1  1  0.99648833  0.27595973  0.34365086  1
  O  O2  1  0.05071287  0.91949340  0.80706867  1
  O  O3  1  0.94928713  0.08050660  0.19293133  1
  O  O4  1  0.12650755  0.96559193  0.59332010  1
  O  O5  1  0.87349245  0.03440807  0.40667990  1
  O  O6  1  0.34160977  0.83509331  0.71769362  1
  O  O7  1  0.65839023  0.16490669  0.28230638  1
  O  O8  1  0.66463308  0.91676977  0.82072770  1
  O  O9  1  0.33536692  0.08323023  0.17927230  1
  O  O10  1  0.62196297  0.96968419  0.60418652  1
  O  O11  1  0.37803703  0.03031581  0.39581348  1
  O  O12  1  0.63256988  0.72731220  0.66198430  1
  O  O13  1  0.36743012  0.27268780  0.33801570  1
  O  O14  1  0.81246307  0.74255491  0.46637408  1
  O  O15  1  0.18753693  0.25744509  0.53362592  1
  O  O16  1  0.76157204  0.52477683  0.57403397  1
  O  O17  1  0.23842796  0.47522317  0.42596603  1
  O  O18  1  0.93118181  0.40600917  0.72328671  1
  O  O19  1  0.06881819  0.59399083  0.27671329  1
  O  O20  1  0.91046192  0.35613988  0.93527833  1
  O  O21  1  0.08953808  0.64386012  0.06472167  1
  O  O22  1  0.94049681  0.16481034  0.78590951  1
  O  O23  1  0.05950319  0.83518966  0.21409049  1
  O  O24  1  0.23198772  0.36758265  0.83039558  1
  O  O25  1  0.76801228  0.63241735  0.16960442  1
  O  O26  1  0.40950910  0.16723843  0.76163143  1
  O  O27  1  0.59049090  0.83276157  0.23836857  1
  O  O28  1  0.53258782  0.32729195  0.93682709  1
  O  O29  1  0.46741218  0.67270805  0.06317291  1
  O  O30  1  0.56126041  0.41578516  0.73487611  1
  O  O31  1  0.43873959  0.58421484  0.26512389  1
  O  O32  1  0.69567526  0.26814128  0.57124751  1
  O  O33  1  0.30432474  0.73185872  0.42875249  1
  O  O34  1  0.72756764  0.32764761  0.11982307  1
  O  O35  1  0.27243236  0.67235239  0.88017693  1
  O  O36  1  0.70952189  0.12168017  0.97298597  1
  O  O37  1  0.29047811  0.87831983  0.02701403  1
  O  O38  1  0.11847199  0.09915727  0.98545715  1
  O  O39  1  0.88152801  0.90084273  0.01454285  1
loop_
_geom_bond_atom_site_label_1
_geom_bond_atom_site_label_2
_geom_bond_distance
_geom_bond_site_symmetry_2
K0 O38 2.751884 1_554
K0 O20 2.961278 1_454
K0 O28 2.966602 1_554
K0 O9 3.091839 1_555
K0 O13 3.241600 1_555
K0 O24 3.269918 1_554
K0 O3 3.297619 1_455
K0 O31 3.376177 1_555
K1 O39 2.751884 1_556
K1 O21 2.961278 1_656
K1 O29 2.966602 1_556
K1 O8 3.091839 1_555
K1 O12 3.241600 1_555
K1 O25 3.269918 1_556
K1 O2 3.297619 1_655
K1 O30 3.376177 1_555
K2 O19 2.812764 1_655
K2 O16 2.814384 1_555
K2 O1 2.816217 1_555
K2 O31 2.861547 1_555
K2 O13 2.881655 1_555
K2 O25 2.956143 1_555
K2 O7 2.984648 1_555
K2 O34 3.005096 1_555
K2 O14 3.281716 1_555
K2 O32 3.352082 1_555
K3 O18 2.812764 1_455
K3 O17 2.814384 1_555
K3 O0 2.816217 1_555
K3 O30 2.861547 1_555
K3 O12 2.881655 1_555
K3 O24 2.956143 1_555
K3 O6 2.984648 1_555
K3 O35 3.005096 1_555
K3 O15 3.281716 1_555
K3 O33 3.352082 1_555
Na0 O27 2.226441 1_555
Na0 O36 2.314606 1_564
Na0 O39 2.456265 1_555
Na0 O37 2.514968 1_555
Na0 O9 2.525905 1_565
Na0 O3 2.630861 1_565
Na0 O7 2.786458 1_565
Na1 O26 2.226441 1_555
Na1 O37 2.314606 1_546
Na1 O38 2.456265 1_555
Na1 O36 2.514968 1_555
Na1 O8 2.525905 1_545
Na1 O2 2.630861 1_545
Na1 O6 2.786458 1_545
Ca0 O33 2.353687 1_555
Ca0 O14 2.367565 1_455
Ca0 O23 2.371783 1_555
Ca0 O11 2.380193 1_565
Ca0 O5 2.382297 1_465
Ca0 O4 2.395561 1_555
Ca1 O32 2.353687 1_555
Ca1 O15 2.367565 1_655
Ca1 O22 2.371783 1_555
Ca1 O10 2.380193 1_545
Ca1 O4 2.382297 1_645
Ca1 O5 2.395561 1_555
Ca2 O27 2.238398 1_555
Ca2 O33 2.321393 1_555
Ca2 O14 2.332119 1_555
Ca2 O11 2.394618 1_565
Ca2 O10 2.394671 1_555
Ca2 O5 2.396757 1_565
Ca3 O26 2.238398 1_555
Ca3 O32 2.321393 1_555
Ca3 O15 2.332119 1_555
Ca3 O10 2.394618 1_545
Ca3 O11 2.394671 1_555
Ca3 O4 2.396757 1_545
H0 O35 0.979035 1_555
H0 K3 2.823658 1_555
H1 O34 0.979035 1_555
H1 K2 2.823658 1_555
O0 Si4 1.640447 1_455
O0 Si0 1.652781 1_555
O1 Si5 1.640447 1_655
O1 Si1 1.652781 1_555
O2 Si0 1.598713 1_555
O2 Ti1 1.919631 1_465
O3 Si1 1.598713 1_555
O3 Ti0 1.919631 1_645
O4 Si0 1.599612 1_555
O5 Si1 1.599612 1_555
O6 Si0 1.648840 1_555
O6 Si2 1.654273 1_555
O7 Si1 1.648840 1_555
O7 Si3 1.654273 1_555
O8 Si2 1.599191 1_555
O8 Ti1 2.002248 1_565
O9 Si3 1.599191 1_555
O9 Ti0 2.002248 1_545
O10 Si2 1.603176 1_555
O11 Si3 1.603176 1_555
O12 Si4 1.646304 1_555
O12 Si2 1.658889 1_555
O13 Si5 1.646304 1_555
O13 Si3 1.658889 1_555
O14 Si4 1.586187 1_555
O15 Si5 1.586187 1_555
O16 Si4 1.632485 1_555
O16 Si10 1.633311 1_555
O17 Si5 1.632485 1_555
O17 Si11 1.633311 1_555
O18 Si10 1.644332 1_555
O18 Si6 1.645424 1_655
O19 Si11 1.644332 1_555
O19 Si7 1.645424 1_455
O20 Si6 1.638167 1_655
O20 Si12 1.643235 1_555
O21 Si7 1.638167 1_455
O21 Si13 1.643235 1_555
O22 Si6 1.598219 1_655
O22 Ti1 2.128826 1_555
O23 Si7 1.598219 1_455
O23 Ti0 2.128826 1_555
O24 Si6 1.620912 1_555
O24 Si8 1.632823 1_555
O25 Si7 1.620912 1_555
O25 Si9 1.632823 1_555
O26 Si8 1.569225 1_555
O27 Si9 1.569225 1_555
O28 Si12 1.640001 1_555
O28 Si8 1.644812 1_555
O29 Si13 1.640001 1_555
O29 Si9 1.644812 1_555
O30 Si10 1.648040 1_555
O30 Si8 1.660272 1_555
O31 Si11 1.648040 1_555
O31 Si9 1.660272 1_555
O32 Si10 1.584698 1_555
O33 Si11 1.584698 1_555
O34 Si12 1.630942 1_554
O35 Si13 1.630942 1_556
O36 Si12 1.601706 1_555
O36 Ti1 2.050686 1_555
O37 Si13 1.601706 1_555
O37 Ti0 2.050686 1_555
O38 Ti0 1.861124 1_546
O38 Ti1 1.936232 1_455
O39 Ti1 1.861124 1_564
O39 Ti0 1.936232 1_655
