# generated using pymatgen
data_Zn2SO6
_symmetry_space_group_name_H-M   'P 1'
_cell_length_a   4.63842000
_cell_length_b   6.76748800
_cell_length_c   14.99166900
_cell_angle_alpha   90.00000000
_cell_angle_beta   90.00000000
_cell_angle_gamma   90.00000000
_symmetry_Int_Tables_number   1
_chemical_formula_structural   Zn2SO6
_chemical_formula_sum   'Zn8 S4 O24'
_cell_volume   470.59526148
_cell_formula_units_Z   4
loop_
 _symmetry_equiv_pos_site_id
 _symmetry_equiv_pos_as_xyz
  1  'x, y, z'
loop_
 _atom_site_type_symbol
 _atom_site_label
 _atom_site_symmetry_multiplicity
 _atom_site_fract_x
 _atom_site_fract_y
 _atom_site_fract_z
 _atom_site_occupancy
  Zn  Zn0  1  0.73600500  0.05490500  0.49470600  1
  Zn  Zn1  1  0.76399500  0.94509500  0.99470600  1
  Zn  Zn2  1  0.23600500  0.44509500  0.50529400  1
  Zn  Zn3  1  0.26399500  0.55490500  0.00529400  1
  Zn  Zn4  1  0.64247800  0.35861600  0.34604700  1
  Zn  Zn5  1  0.85752200  0.64138400  0.84604700  1
  Zn  Zn6  1  0.14247800  0.14138400  0.65395300  1
  Zn  Zn7  1  0.35752200  0.85861600  0.15395300  1
  S  S0  1  0.26968400  0.80150900  0.37100600  1
  S  S1  1  0.23031600  0.19849100  0.87100600  1
  S  S2  1  0.76968400  0.69849100  0.62899400  1
  S  S3  1  0.73031600  0.30150900  0.12899400  1
  O  O0  1  0.00720800  0.82053300  0.42392000  1
  O  O1  1  0.49279300  0.17946700  0.92392000  1
  O  O2  1  0.50720800  0.67946700  0.57608000  1
  O  O3  1  0.99279200  0.32053300  0.07608000  1
  O  O4  1  0.40538400  0.60317600  0.39616100  1
  O  O5  1  0.09461600  0.39682400  0.89616100  1
  O  O6  1  0.90538400  0.89682400  0.60383900  1
  O  O7  1  0.59461600  0.10317600  0.10383900  1
  O  O8  1  0.48411200  0.95980700  0.39015400  1
  O  O9  1  0.01588800  0.04019300  0.89015400  1
  O  O10  1  0.98411200  0.54019300  0.60984600  1
  O  O11  1  0.51588800  0.45980700  0.10984600  1
  O  O12  1  0.91280000  0.29824300  0.44072100  1
  O  O13  1  0.58720000  0.70175700  0.94072100  1
  O  O14  1  0.41280000  0.20175700  0.55927900  1
  O  O15  1  0.08720000  0.79824300  0.05927900  1
  O  O16  1  0.20624000  0.79968400  0.27413300  1
  O  O17  1  0.29376000  0.20031600  0.77413300  1
  O  O18  1  0.70624000  0.70031600  0.72586700  1
  O  O19  1  0.79376000  0.29968400  0.22586700  1
  O  O20  1  0.25526200  0.23516300  0.33830900  1
  O  O21  1  0.24473800  0.76483700  0.83830900  1
  O  O22  1  0.75526200  0.26483700  0.66169100  1
  O  O23  1  0.74473800  0.73516300  0.16169100  1
loop_
_geom_bond_atom_site_label_1
_geom_bond_atom_site_label_2
_geom_bond_distance
_geom_bond_site_symmetry_2
O0 S0 1.458799 1_555
O0 Zn0 2.285681 1_465
O1 S1 1.458803 1_555
O1 Zn1 2.285678 1_545
O2 S2 1.458799 1_555
O2 Zn2 2.285681 1_555
O3 S3 1.458799 1_555
O3 Zn3 2.285681 1_655
O4 S0 1.529689 1_555
O4 Zn2 2.106780 1_555
O4 Zn4 2.124402 1_555
O5 S1 1.529689 1_555
O5 Zn3 2.106780 1_556
O5 Zn5 2.124402 1_455
O6 S2 1.529689 1_555
O6 Zn0 2.106780 1_565
O6 Zn6 2.124402 1_665
O7 S3 1.529689 1_555
O7 Zn1 2.106780 1_544
O7 Zn7 2.124402 1_545
O8 S0 1.489727 1_555
O8 Zn0 2.058175 1_565
O9 S1 1.489727 1_555
O9 Zn1 2.058175 1_445
O10 S2 1.489727 1_555
O10 Zn2 2.058175 1_655
O11 S3 1.489727 1_555
O11 Zn3 2.058175 1_555
O12 Zn4 1.937418 1_555
O12 Zn0 2.009825 1_555
O12 Zn2 2.042619 1_655
O13 Zn5 1.937418 1_555
O13 Zn1 2.009825 1_555
O13 Zn3 2.042619 1_556
O14 Zn6 1.937418 1_555
O14 Zn2 2.009825 1_555
O14 Zn0 2.042619 1_555
O15 Zn7 1.937418 1_555
O15 Zn3 2.009825 1_555
O15 Zn1 2.042619 1_454
O16 S0 1.481855 1_555
O16 Zn7 1.974227 1_555
O17 S1 1.481855 1_555
O17 Zn6 1.974227 1_555
O18 S2 1.481855 1_555
O18 Zn5 1.974227 1_555
O19 S3 1.481855 1_555
O19 Zn4 1.974227 1_555
O20 Zn4 1.984271 1_555
O21 Zn5 1.984271 1_455
O22 Zn6 1.984271 1_655
O23 Zn7 1.984271 1_555
