# generated using pymatgen
data_V2O3F
_symmetry_space_group_name_H-M   'P 1'
_cell_length_a   4.58555614
_cell_length_b   10.37261962
_cell_length_c   5.53148601
_cell_angle_alpha   82.08131361
_cell_angle_beta   90.07170563
_cell_angle_gamma   89.97354548
_symmetry_Int_Tables_number   1
_chemical_formula_structural   V2O3F
_chemical_formula_sum   'V8 O12 F4'
_cell_volume   260.59183722
_cell_formula_units_Z   4
loop_
 _symmetry_equiv_pos_site_id
 _symmetry_equiv_pos_as_xyz
  1  'x, y, z'
loop_
 _atom_site_type_symbol
 _atom_site_label
 _atom_site_symmetry_multiplicity
 _atom_site_fract_x
 _atom_site_fract_y
 _atom_site_fract_z
 _atom_site_occupancy
  V  V0  1  0.50002800  0.25001100  0.74999100  1
  V  V1  1  0.99999200  0.75000800  0.74999400  1
  V  V2  1  0.51746200  0.98768100  0.50532900  1
  V  V3  1  0.48258600  0.51229200  0.99470600  1
  V  V4  1  0.98218800  0.48677100  0.50012800  1
  V  V5  1  0.01780600  0.01321800  0.99986000  1
  V  V6  1  0.99999400  0.24999100  0.25000800  1
  V  V7  1  0.49987900  0.75003900  0.24998900  1
  O  O0  1  0.79402300  0.57018100  0.77539500  1
  O  O1  1  0.70594300  0.07052600  0.77656700  1
  O  O2  1  0.29407800  0.42947700  0.72344500  1
  O  O3  1  0.20599600  0.92982400  0.72462300  1
  O  O4  1  0.80531700  0.32263000  0.52366600  1
  O  O5  1  0.69303300  0.82369200  0.52398600  1
  O  O6  1  0.30693800  0.67630400  0.97597500  1
  O  O7  1  0.19472200  0.17736100  0.97631300  1
  O  O8  1  0.79047600  0.07548400  0.27775900  1
  O  O9  1  0.70924500  0.57480900  0.27679800  1
  O  O10  1  0.29073700  0.92520500  0.22319600  1
  O  O11  1  0.20954000  0.42450800  0.22223600  1
  F  F0  1  0.80737600  0.82967500  0.02693500  1
  F  F1  1  0.69394400  0.32926600  0.02663600  1
  F  F2  1  0.30608500  0.17072800  0.47336900  1
  F  F3  1  0.19261100  0.67031700  0.47309400  1
loop_
_geom_bond_atom_site_label_1
_geom_bond_atom_site_label_2
_geom_bond_distance
_geom_bond_site_symmetry_2
O0 V3 1.917323 1_555
O0 V4 2.043778 1_555
O0 V1 2.078652 1_555
O1 V5 1.927825 1_655
O1 V2 2.022167 1_545
O1 V0 2.074089 1_555
O2 V4 1.927964 1_455
O2 V3 2.022157 1_555
O2 V0 2.073996 1_555
O3 V2 1.917291 1_555
O3 V5 2.043606 1_565
O3 V1 2.078633 1_455
O4 V4 1.874558 1_555
O4 V0 1.959586 1_555
O4 V6 1.993246 1_555
O5 V2 1.871461 1_555
O5 V1 1.964600 1_555
O5 V7 1.995378 1_555
O6 V3 1.871799 1_555
O6 V1 1.964533 1_455
O6 V7 1.995437 1_556
O7 V5 1.874664 1_555
O7 V0 1.959728 1_555
O7 V6 1.993472 1_456
O8 V2 1.915843 1_545
O8 V5 2.035612 1_654
O8 V6 2.036781 1_555
O9 V4 1.900190 1_555
O9 V7 2.042332 1_555
O9 V3 2.052059 1_554
O10 V5 1.900072 1_564
O10 V7 2.041270 1_555
O10 V2 2.052215 1_555
O11 V3 1.915732 1_554
O11 V4 2.035620 1_455
O11 V6 2.036927 1_455
F0 V7 1.979263 1_555
F0 V1 2.039904 1_554
F0 V5 2.121690 1_664
F1 V6 1.971553 1_555
F1 V0 2.037670 1_554
F1 V3 2.116639 1_554
F2 V6 1.971611 1_455
F2 V0 2.037769 1_555
F2 V2 2.116865 1_545
F3 V7 1.978970 1_555
F3 V1 2.039854 1_455
F3 V4 2.121715 1_455
