# generated using pymatgen
data_Mn6O11F
_symmetry_space_group_name_H-M   'P 1'
_cell_length_a   5.39327407
_cell_length_b   5.39327407
_cell_length_c   7.08658514
_cell_angle_alpha   71.96284477
_cell_angle_beta   71.96284477
_cell_angle_gamma   71.67763793
_symmetry_Int_Tables_number   1
_chemical_formula_structural   Mn6O11F
_chemical_formula_sum   'Mn6 O11 F1'
_cell_volume   180.84433893
_cell_formula_units_Z   1
loop_
 _symmetry_equiv_pos_site_id
 _symmetry_equiv_pos_as_xyz
  1  'x, y, z'
loop_
 _atom_site_type_symbol
 _atom_site_label
 _atom_site_symmetry_multiplicity
 _atom_site_fract_x
 _atom_site_fract_y
 _atom_site_fract_z
 _atom_site_occupancy
  Mn  Mn0  1  0.33221700  0.33221700  0.16563700  1
  Mn  Mn1  1  0.34445900  0.34445900  0.66763200  1
  Mn  Mn2  1  0.66225200  0.66225200  0.33100700  1
  Mn  Mn3  1  0.66890000  0.66890000  0.83821300  1
  Mn  Mn4  1  0.99379500  0.99379500  0.48858700  1
  Mn  Mn5  1  0.99930400  0.99930400  0.00980600  1
  O  O0  1  0.97168800  0.35959300  0.33584100  1
  O  O1  1  0.63943300  0.02942400  0.66548600  1
  O  O2  1  0.43469900  0.43469900  0.37139400  1
  O  O3  1  0.76837700  0.76837700  0.03894900  1
  O  O4  1  0.89414000  0.89414000  0.29773700  1
  O  O5  1  0.56769100  0.56769100  0.62913900  1
  O  O6  1  0.23275900  0.23275900  0.96165200  1
  O  O7  1  0.69431200  0.30429000  0.99896900  1
  O  O8  1  0.02942400  0.63943300  0.66548600  1
  O  O9  1  0.35959300  0.97168800  0.33584100  1
  O  O10  1  0.30429000  0.69431200  0.99896900  1
  F  F0  1  0.10266800  0.10266800  0.69965600  1
loop_
_geom_bond_atom_site_label_1
_geom_bond_atom_site_label_2
_geom_bond_distance
_geom_bond_site_symmetry_2
Mn0 O7 1.930877 1_554
Mn0 O10 1.930877 1_554
Mn0 O9 1.932579 1_545
Mn0 O0 1.932579 1_455
Mn0 O6 1.950990 1_554
Mn0 O2 1.981745 1_555
Mn1 O5 1.864937 1_555
Mn1 O1 1.928606 1_555
Mn1 O8 1.928606 1_555
Mn1 O6 1.934106 1_555
Mn1 O2 1.940195 1_555
Mn2 O2 1.898988 1_555
Mn2 O3 1.917710 1_555
Mn2 O9 1.933605 1_555
Mn2 O0 1.933605 1_555
Mn2 O4 1.949859 1_555
Mn2 O5 1.952659 1_555
Mn3 O10 1.929622 1_555
Mn3 O7 1.929622 1_555
Mn3 O3 1.930155 1_556
Mn3 O8 1.938183 1_655
Mn3 O1 1.938183 1_565
Mn3 O5 1.995014 1_555
Mn4 O4 1.867847 1_555
Mn4 O9 1.920319 1_655
Mn4 O0 1.920319 1_565
Mn4 O8 1.922404 1_655
Mn4 O1 1.922404 1_565
Mn5 O4 1.890955 1_555
Mn5 O10 1.927719 1_654
Mn5 O7 1.927719 1_564
Mn5 O6 1.936910 1_664
Mn5 O3 1.949778 1_555
F0 Mn5 2.032286 1_446
F0 Mn1 2.038432 1_555
F0 Mn4 2.057040 1_445
