# generated using pymatgen
data_Li4MnFe3(PO4)4
_symmetry_space_group_name_H-M   'P 1'
_cell_length_a   10.51487500
_cell_length_b   7.73553600
_cell_length_c   7.74525644
_cell_angle_alpha   75.91128617
_cell_angle_beta   90.00000000
_cell_angle_gamma   90.00000000
_symmetry_Int_Tables_number   1
_chemical_formula_structural   Li4MnFe3(PO4)4
_chemical_formula_sum   'Li8 Mn2 Fe6 P8 O32'
_cell_volume   611.03520742
_cell_formula_units_Z   2
loop_
 _symmetry_equiv_pos_site_id
 _symmetry_equiv_pos_as_xyz
  1  'x, y, z'
loop_
 _atom_site_type_symbol
 _atom_site_label
 _atom_site_symmetry_multiplicity
 _atom_site_fract_x
 _atom_site_fract_y
 _atom_site_fract_z
 _atom_site_occupancy
  Li  Li0  1  0.25104100  0.24994600  0.75046400  1
  Li  Li1  1  0.25007300  0.74987200  0.24958300  1
  Li  Li2  1  0.25047600  0.99997600  0.50026600  1
  Li  Li3  1  0.25059500  0.49996000  0.99993900  1
  Li  Li4  1  0.74992700  0.24987200  0.24958300  1
  Li  Li5  1  0.74952400  0.49997600  0.50026600  1
  Li  Li6  1  0.74895900  0.74994600  0.75046400  1
  Li  Li7  1  0.74940500  0.99996000  0.99993900  1
  Mn  Mn0  1  0.96735900  0.13531700  0.61430000  1
  Mn  Mn1  1  0.03264100  0.63531700  0.61430000  1
  Fe  Fe0  1  0.96719900  0.63685800  0.11327700  1
  Fe  Fe1  1  0.03280100  0.13685800  0.11327700  1
  Fe  Fe2  1  0.46748100  0.36247100  0.38712800  1
  Fe  Fe3  1  0.46752700  0.86235600  0.88807400  1
  Fe  Fe4  1  0.53251900  0.86247100  0.38712800  1
  Fe  Fe5  1  0.53247300  0.36235600  0.88807400  1
  P  P0  1  0.84390800  0.41639200  0.83550700  1
  P  P1  1  0.84459400  0.91687000  0.33118900  1
  P  P2  1  0.15540600  0.41687000  0.33118900  1
  P  P3  1  0.15609200  0.91639200  0.83550700  1
  P  P4  1  0.34595800  0.08376400  0.16633600  1
  P  P5  1  0.34701200  0.58341700  0.66650600  1
  P  P6  1  0.65404200  0.58376400  0.16633600  1
  P  P7  1  0.65298800  0.08341700  0.66650600  1
  O  O0  1  0.78986200  0.02107900  0.72867000  1
  O  O1  1  0.79119800  0.52203500  0.22811300  1
  O  O2  1  0.84815000  0.25398800  0.99501300  1
  O  O3  1  0.84819400  0.75725100  0.49364900  1
  O  O4  1  0.91446700  0.08641100  0.36264000  1
  O  O5  1  0.91331500  0.38486800  0.66592400  1
  O  O6  1  0.91462600  0.88069300  0.16362800  1
  O  O7  1  0.91348600  0.58464600  0.87159900  1
  O  O8  1  0.08537400  0.38069300  0.16362800  1
  O  O9  1  0.08651400  0.08464600  0.87159900  1
  O  O10  1  0.08668500  0.88486800  0.66592400  1
  O  O11  1  0.08553300  0.58641100  0.36264000  1
  O  O12  1  0.15180600  0.25725100  0.49364900  1
  O  O13  1  0.15185000  0.75398800  0.99501300  1
  O  O14  1  0.20880200  0.02203500  0.22811300  1
  O  O15  1  0.21013800  0.52107900  0.72867000  1
  O  O16  1  0.29302300  0.47770500  0.27057000  1
  O  O17  1  0.29330500  0.97815000  0.77362700  1
  O  O18  1  0.34917500  0.74470900  0.50531400  1
  O  O19  1  0.34931000  0.24495100  0.00519700  1
  O  O20  1  0.41589700  0.11808800  0.33497000  1
  O  O21  1  0.41676300  0.41499400  0.63158300  1
  O  O22  1  0.41584300  0.91496300  0.13203100  1
  O  O23  1  0.41664900  0.61827000  0.83490500  1
  O  O24  1  0.58410300  0.61808800  0.33497000  1
  O  O25  1  0.58323700  0.91499400  0.63158300  1
  O  O26  1  0.58415700  0.41496300  0.13203100  1
  O  O27  1  0.58335100  0.11827000  0.83490500  1
  O  O28  1  0.65069000  0.74495100  0.00519700  1
  O  O29  1  0.65082500  0.24470900  0.50531400  1
  O  O30  1  0.70697700  0.97770500  0.27057000  1
  O  O31  1  0.70669500  0.47815000  0.77362700  1
loop_
_geom_bond_atom_site_label_1
_geom_bond_atom_site_label_2
_geom_bond_distance
_geom_bond_site_symmetry_2
Li0 O15 2.107137 1_555
Li0 O17 2.113409 1_545
Li0 O9 2.219022 1_555
Li0 O19 2.219162 1_556
Li0 O21 2.223061 1_555
Li0 O12 2.234672 1_555
Li1 O14 2.116112 1_565
Li1 O16 2.120447 1_555
Li1 O11 2.195423 1_555
Li1 O13 2.219183 1_554
Li1 O22 2.220813 1_555
Li1 O18 2.229825 1_555
Li2 O14 2.118783 1_565
Li2 O17 2.130735 1_555
Li2 O10 2.202047 1_555
Li2 O20 2.220317 1_565
Li2 O18 2.222642 1_555
Li2 O12 2.233857 1_565
Li3 O16 2.108707 1_556
Li3 O15 2.110675 1_555
Li3 O13 2.214587 1_555
Li3 O8 2.215223 1_556
Li3 O19 2.220634 1_556
Li3 O23 2.224987 1_555
Li4 O1 2.116112 1_555
Li4 O30 2.120447 1_545
Li4 O4 2.195423 1_555
Li4 O2 2.219183 1_554
Li4 O26 2.220813 1_555
Li4 O29 2.229825 1_555
Li5 O1 2.118783 1_555
Li5 O31 2.130735 1_555
Li5 O5 2.202047 1_555
Li5 O24 2.220317 1_555
Li5 O29 2.222642 1_555
Li5 O3 2.233857 1_555
Li6 O0 2.107137 1_565
Li6 O31 2.113409 1_555
Li6 O7 2.219022 1_555
Li6 O28 2.219162 1_556
Li6 O25 2.223061 1_555
Li6 O3 2.234672 1_555
Li7 O30 2.108707 1_556
Li7 O0 2.110675 1_565
Li7 O2 2.214587 1_565
Li7 O6 2.215223 1_556
Li7 O28 2.220634 1_556
Li7 O27 2.224987 1_565
Mn0 O5 2.141276 1_555
Mn0 O4 2.147253 1_555
Mn0 O0 2.160507 1_555
Mn0 O12 2.257258 1_655
Mn0 O10 2.260611 1_645
Mn0 O9 2.305329 1_655
Mn1 O10 2.141276 1_555
Mn1 O11 2.147253 1_555
Mn1 O15 2.160507 1_555
Mn1 O3 2.257258 1_455
Mn1 O5 2.260611 1_455
Mn1 O7 2.305329 1_455
Fe0 O7 2.086631 1_554
Fe0 O6 2.091296 1_555
Fe0 O1 2.149473 1_555
Fe0 O13 2.241800 1_654
Fe0 O11 2.250285 1_655
Fe0 O8 2.290532 1_655
Fe1 O9 2.086631 1_554
Fe1 O8 2.091296 1_555
Fe1 O14 2.149473 1_555
Fe1 O2 2.241800 1_454
Fe1 O4 2.250285 1_455
Fe1 O6 2.290532 1_445
Fe2 O20 2.098317 1_555
Fe2 O21 2.099721 1_555
Fe2 O16 2.140758 1_555
Fe2 O29 2.231222 1_555
Fe2 O26 2.276657 1_555
Fe2 O24 2.277693 1_555
Fe3 O23 2.097472 1_555
Fe3 O22 2.098937 1_556
Fe3 O17 2.134821 1_555
Fe3 O28 2.226176 1_556
Fe3 O27 2.274831 1_565
Fe3 O25 2.280092 1_555
Fe4 O24 2.098317 1_555
Fe4 O25 2.099721 1_555
Fe4 O30 2.140758 1_555
Fe4 O18 2.231222 1_555
Fe4 O22 2.276657 1_555
Fe4 O20 2.277693 1_565
Fe5 O27 2.097472 1_555
Fe5 O26 2.098937 1_556
Fe5 O31 2.134821 1_555
Fe5 O19 2.226176 1_556
Fe5 O23 2.274831 1_555
Fe5 O21 2.280092 1_555
O0 P7 1.556487 1_555
O1 P6 1.557434 1_555
O2 P0 1.533258 1_555
O3 P1 1.533923 1_555
O4 P1 1.573110 1_545
O5 P0 1.572642 1_555
O6 P1 1.575334 1_555
O7 P0 1.576234 1_555
O8 P2 1.575334 1_555
O9 P3 1.576234 1_545
O10 P3 1.572642 1_555
O11 P2 1.573110 1_555
O12 P2 1.533923 1_555
O13 P3 1.533258 1_555
O14 P4 1.557434 1_555
O15 P5 1.556487 1_555
O16 P2 1.558272 1_555
O17 P3 1.558226 1_555
O18 P5 1.535431 1_555
O19 P4 1.534915 1_555
O20 P4 1.576730 1_555
O21 P5 1.574813 1_555
O22 P4 1.576233 1_565
O23 P5 1.575189 1_555
O24 P6 1.576730 1_555
O25 P7 1.574813 1_565
O26 P6 1.576233 1_555
O27 P7 1.575189 1_555
O28 P6 1.534915 1_555
O29 P7 1.535431 1_555
O30 P1 1.558272 1_555
O31 P0 1.558226 1_555
