# generated using pymatgen
data_Li2CrSi4O11
_symmetry_space_group_name_H-M   'P 1'
_cell_length_a   8.44177706
_cell_length_b   8.44177706
_cell_length_c   8.44177706
_cell_angle_alpha   101.98091511
_cell_angle_beta   101.98091511
_cell_angle_gamma   125.79085914
_symmetry_Int_Tables_number   1
_chemical_formula_structural   Li2CrSi4O11
_chemical_formula_sum   'Li4 Cr2 Si8 O22'
_cell_volume   434.39291625
_cell_formula_units_Z   2
loop_
 _symmetry_equiv_pos_site_id
 _symmetry_equiv_pos_as_xyz
  1  'x, y, z'
loop_
 _atom_site_type_symbol
 _atom_site_label
 _atom_site_symmetry_multiplicity
 _atom_site_fract_x
 _atom_site_fract_y
 _atom_site_fract_z
 _atom_site_occupancy
  Li  Li0  1  0.65515200  0.62133800  0.27649000  1
  Li  Li1  1  0.37866200  0.65515200  0.03381500  1
  Li  Li2  1  0.62133800  0.34484800  0.96618500  1
  Li  Li3  1  0.34484800  0.37866200  0.72351000  1
  Cr  Cr0  1  0.24466000  0.24466000  0.00000000  1
  Cr  Cr1  1  0.75534000  0.75534000  0.00000000  1
  Si  Si0  1  0.49986000  0.17780400  0.28555100  1
  Si  Si1  1  0.10774800  0.78569100  0.28555100  1
  Si  Si2  1  0.17780400  0.89225200  0.67794300  1
  Si  Si3  1  0.78569100  0.50014000  0.67794300  1
  Si  Si4  1  0.82219600  0.10774800  0.32205700  1
  Si  Si5  1  0.21430900  0.49986000  0.32205700  1
  Si  Si6  1  0.89225200  0.21430900  0.71444900  1
  Si  Si7  1  0.50014000  0.82219600  0.71444900  1
  O  O0  1  0.00000000  0.00000000  0.00000000  1
  O  O1  1  0.50000000  0.50000000  0.00000000  1
  O  O2  1  0.45410600  0.21487200  0.10794700  1
  O  O3  1  0.89307500  0.65384200  0.10794700  1
  O  O4  1  0.28597600  0.03741600  0.32339300  1
  O  O5  1  0.67746500  0.41013200  0.45965100  1
  O  O6  1  0.04951900  0.78218700  0.45965100  1
  O  O7  1  0.58986800  0.04951900  0.26733200  1
  O  O8  1  0.21781300  0.67746500  0.26733200  1
  O  O9  1  0.21487200  0.10692500  0.76076700  1
  O  O10  1  0.65384200  0.54589400  0.76076700  1
  O  O11  1  0.96258400  0.28597600  0.24856000  1
  O  O12  1  0.03741600  0.71402400  0.75144000  1
  O  O13  1  0.34615800  0.45410600  0.23923300  1
  O  O14  1  0.78512800  0.89307500  0.23923300  1
  O  O15  1  0.78218700  0.32253500  0.73266800  1
  O  O16  1  0.41013200  0.95048100  0.73266800  1
  O  O17  1  0.95048100  0.21781300  0.54034900  1
  O  O18  1  0.32253500  0.58986800  0.54034900  1
  O  O19  1  0.71402400  0.96258400  0.67660700  1
  O  O20  1  0.10692500  0.34615800  0.89205300  1
  O  O21  1  0.54589400  0.78512800  0.89205300  1
loop_
_geom_bond_atom_site_label_1
_geom_bond_atom_site_label_2
_geom_bond_distance
_geom_bond_site_symmetry_2
Li0 O14 2.015891 1_555
Li0 O13 2.015892 1_555
Li0 O1 2.093212 1_555
Li1 O20 2.015892 1_554
Li1 O21 2.015894 1_554
Li1 O1 2.093213 1_555
Li2 O3 2.015892 1_556
Li2 O2 2.015894 1_556
Li2 O1 2.093213 1_556
Li3 O9 2.015891 1_555
Li3 O10 2.015892 1_555
Li3 O1 2.093212 1_556
Cr0 O0 1.882026 1_555
Cr0 O1 1.964182 1_555
Cr0 O20 1.991489 1_554
Cr0 O9 1.991489 1_554
Cr0 O13 1.991492 1_555
Cr0 O2 1.991496 1_555
Cr1 O0 1.882026 1_665
Cr1 O1 1.964182 1_555
Cr1 O3 1.991489 1_555
Cr1 O14 1.991489 1_555
Cr1 O10 1.991492 1_554
Cr1 O21 1.991496 1_554
O2 Si0 1.609569 1_555
O3 Si1 1.609574 1_655
O4 Si1 1.631072 1_545
O4 Si0 1.631080 1_555
O5 Si0 1.644241 1_555
O5 Si3 1.647902 1_555
O6 Si1 1.644245 1_555
O6 Si2 1.647904 1_555
O7 Si4 1.644237 1_555
O7 Si0 1.647910 1_555
O8 Si5 1.644253 1_555
O8 Si1 1.647895 1_555
O9 Si2 1.609579 1_545
O10 Si3 1.609570 1_555
O11 Si5 1.631074 1_655
O11 Si4 1.631076 1_555
O12 Si3 1.631074 1_455
O12 Si2 1.631076 1_555
O13 Si5 1.609570 1_555
O14 Si4 1.609579 1_565
O15 Si3 1.644253 1_555
O15 Si6 1.647895 1_555
O16 Si2 1.644237 1_555
O16 Si7 1.647910 1_555
O17 Si6 1.644245 1_555
O17 Si4 1.647904 1_555
O18 Si7 1.644241 1_555
O18 Si5 1.647902 1_555
O19 Si6 1.631072 1_565
O19 Si7 1.631080 1_555
O20 Si6 1.609574 1_455
O21 Si7 1.609569 1_555
