# generated using pymatgen
data_Li6Fe2P(CO4)4
_symmetry_space_group_name_H-M   'P 1'
_cell_length_a   9.45095264
_cell_length_b   9.45095264
_cell_length_c   9.43891509
_cell_angle_alpha   60.07595667
_cell_angle_beta   60.07595667
_cell_angle_gamma   89.93136851
_symmetry_Int_Tables_number   1
_chemical_formula_structural   Li6Fe2P(CO4)4
_chemical_formula_sum   'Li12 Fe4 P2 C8 O32'
_cell_volume   597.87361131
_cell_formula_units_Z   2
loop_
 _symmetry_equiv_pos_site_id
 _symmetry_equiv_pos_as_xyz
  1  'x, y, z'
loop_
 _atom_site_type_symbol
 _atom_site_label
 _atom_site_symmetry_multiplicity
 _atom_site_fract_x
 _atom_site_fract_y
 _atom_site_fract_z
 _atom_site_occupancy
  Li  Li0  1  0.82173800  0.17826200  0.75000000  1
  Li  Li1  1  0.42948600  0.17725900  0.74813700  1
  Li  Li2  1  0.82317200  0.57040500  0.35476100  1
  Li  Li3  1  0.42959500  0.17682800  0.14523900  1
  Li  Li4  1  0.57354700  0.42645300  0.25000000  1
  Li  Li5  1  0.17725900  0.42948600  0.24813700  1
  Li  Li6  1  0.82274100  0.57051400  0.75186300  1
  Li  Li7  1  0.42645300  0.57354700  0.75000000  1
  Li  Li8  1  0.17682800  0.42959500  0.64523900  1
  Li  Li9  1  0.57040500  0.82317200  0.85476100  1
  Li  Li10  1  0.17826200  0.82173800  0.25000000  1
  Li  Li11  1  0.57051400  0.82274100  0.25186300  1
  Fe  Fe0  1  0.00000000  0.00000000  0.00000000  1
  Fe  Fe1  1  0.00000000  0.00000000  0.50000000  1
  Fe  Fe2  1  0.50000000  0.00000000  0.50000000  1
  Fe  Fe3  1  0.00000000  0.50000000  0.00000000  1
  P  P0  1  0.37548300  0.62451700  0.25000000  1
  P  P1  1  0.62451700  0.37548300  0.75000000  1
  C  C0  1  0.22043800  0.16365900  0.55952700  1
  C  C1  1  0.21983300  0.77679300  0.94595800  1
  C  C2  1  0.83634100  0.77956200  0.94047300  1
  C  C3  1  0.22320700  0.78016700  0.55404200  1
  C  C4  1  0.77679300  0.21983300  0.44595800  1
  C  C5  1  0.16365900  0.22043800  0.05952700  1
  C  C6  1  0.78016700  0.22320700  0.05404200  1
  C  C7  1  0.77956200  0.83634100  0.44047300  1
  O  O0  1  0.44223300  0.82584700  0.11562700  1
  O  O1  1  0.44267000  0.55809600  0.38363900  1
  O  O2  1  0.17415300  0.55776700  0.38437300  1
  O  O3  1  0.44190400  0.55733000  0.11636100  1
  O  O4  1  0.08681700  0.15903600  0.70669900  1
  O  O5  1  0.36415500  0.17385300  0.54080400  1
  O  O6  1  0.20453100  0.91249700  0.95279900  1
  O  O7  1  0.20372500  0.16008300  0.43175000  1
  O  O8  1  0.83991700  0.79627500  0.06825000  1
  O  O9  1  0.84096400  0.91318300  0.79330100  1
  O  O10  1  0.36409800  0.78708500  0.80853900  1
  O  O11  1  0.09027800  0.63490600  0.08138600  1
  O  O12  1  0.36509400  0.90972200  0.41861400  1
  O  O13  1  0.82614700  0.63584400  0.95919600  1
  O  O14  1  0.08750300  0.79546900  0.54720100  1
  O  O15  1  0.78708500  0.36409800  0.30853900  1
  O  O16  1  0.21291500  0.63590200  0.69146100  1
  O  O17  1  0.91249700  0.20453100  0.45279900  1
  O  O18  1  0.17385300  0.36415500  0.04080400  1
  O  O19  1  0.63490600  0.09027800  0.58138600  1
  O  O20  1  0.90972200  0.36509400  0.91861400  1
  O  O21  1  0.63590200  0.21291500  0.19146100  1
  O  O22  1  0.15903600  0.08681700  0.20669900  1
  O  O23  1  0.16008300  0.20372500  0.93175000  1
  O  O24  1  0.79627500  0.83991700  0.56825000  1
  O  O25  1  0.79546900  0.08750300  0.04720100  1
  O  O26  1  0.63584400  0.82614700  0.45919600  1
  O  O27  1  0.91318300  0.84096400  0.29330100  1
  O  O28  1  0.55809600  0.44267000  0.88363900  1
  O  O29  1  0.82584700  0.44223300  0.61562700  1
  O  O30  1  0.55733000  0.44190400  0.61636100  1
  O  O31  1  0.55776700  0.17415300  0.88437300  1
loop_
_geom_bond_atom_site_label_1
_geom_bond_atom_site_label_2
_geom_bond_distance
_geom_bond_site_symmetry_2
Li0 O31 2.151335 1_555
Li0 O29 2.151335 1_555
Li0 O4 2.351119 1_655
Li0 O9 2.351119 1_545
Li0 O17 2.360465 1_555
Li0 O25 2.360465 1_556
Li1 O31 2.154531 1_555
Li1 O30 2.160256 1_555
Li1 O19 2.271692 1_555
Li1 O5 2.341061 1_555
Li1 O23 2.361642 1_555
Li1 O6 2.367598 1_545
Li2 O29 2.148739 1_555
Li2 O30 2.170318 1_555
Li2 O15 2.259898 1_555
Li2 O11 2.310391 1_655
Li2 O27 2.373086 1_555
Li2 O8 2.389473 1_555
Li3 O31 2.148739 1_554
Li3 O28 2.170318 1_554
Li3 O21 2.259898 1_555
Li3 O12 2.310391 1_545
Li3 O22 2.373086 1_555
Li3 O7 2.389473 1_555
Li4 O3 2.162045 1_555
Li4 O1 2.162045 1_555
Li4 O13 2.281191 1_554
Li4 O5 2.281194 1_555
Li4 O15 2.347403 1_555
Li4 O21 2.347403 1_555
Li5 O2 2.154531 1_555
Li5 O3 2.160256 1_555
Li5 O11 2.271692 1_555
Li5 O18 2.341061 1_555
Li5 O7 2.361642 1_555
Li5 O17 2.367598 1_455
Li6 O29 2.154531 1_555
Li6 O28 2.160256 1_555
Li6 O20 2.271692 1_555
Li6 O13 2.341054 1_555
Li6 O24 2.361642 1_555
Li6 O14 2.367598 1_655
Li7 O28 2.162045 1_555
Li7 O30 2.162045 1_555
Li7 O26 2.281191 1_555
Li7 O18 2.281194 1_556
Li7 O16 2.347403 1_555
Li7 O10 2.347403 1_555
Li8 O2 2.148739 1_555
Li8 O1 2.170318 1_555
Li8 O16 2.259898 1_555
Li8 O20 2.310391 1_455
Li8 O4 2.373086 1_555
Li8 O23 2.389473 1_555
Li9 O0 2.148739 1_556
Li9 O3 2.170318 1_556
Li9 O10 2.259898 1_555
Li9 O19 2.310391 1_565
Li9 O9 2.373086 1_555
Li9 O24 2.389473 1_555
Li10 O0 2.151335 1_555
Li10 O2 2.151335 1_555
Li10 O22 2.351119 1_565
Li10 O27 2.351119 1_455
Li10 O6 2.360465 1_554
Li10 O14 2.360465 1_555
Li11 O0 2.154531 1_555
Li11 O1 2.160256 1_555
Li11 O12 2.271692 1_555
Li11 O26 2.341054 1_555
Li11 O8 2.361642 1_555
Li11 O25 2.367598 1_565
Fe0 O6 2.030635 1_544
Fe0 O25 2.030635 1_455
Fe0 O27 2.044937 1_445
Fe0 O4 2.044937 1_554
Fe0 O23 2.051390 1_554
Fe0 O8 2.051390 1_445
Fe1 O17 2.030635 1_455
Fe1 O14 2.030635 1_545
Fe1 O9 2.044937 1_445
Fe1 O22 2.044937 1_555
Fe1 O24 2.051390 1_445
Fe1 O7 2.051390 1_555
Fe2 O19 2.139492 1_555
Fe2 O12 2.139492 1_545
Fe2 O10 2.146548 1_545
Fe2 O21 2.146548 1_555
Fe2 O26 2.151581 1_545
Fe2 O5 2.151586 1_555
Fe3 O20 2.139492 1_454
Fe3 O11 2.139492 1_555
Fe3 O15 2.146548 1_455
Fe3 O16 2.146548 1_554
Fe3 O13 2.151581 1_454
Fe3 O18 2.151586 1_555
C0 O5 1.276413 1_555
C0 O7 1.308227 1_555
C0 O4 1.309863 1_555
C1 O10 1.288747 1_555
C1 O11 1.289798 1_556
C1 O6 1.320165 1_555
C2 O13 1.276422 1_555
C2 O8 1.308227 1_556
C2 O9 1.309863 1_555
C3 O16 1.288747 1_555
C3 O12 1.289798 1_555
C3 O14 1.320165 1_555
C4 O15 1.288747 1_555
C4 O19 1.289798 1_555
C4 O17 1.320165 1_555
C5 O18 1.276413 1_555
C5 O23 1.308227 1_554
C5 O22 1.309863 1_555
C6 O21 1.288747 1_555
C6 O20 1.289798 1_554
C6 O25 1.320165 1_555
C7 O26 1.276422 1_555
C7 O24 1.308227 1_555
C7 O27 1.309863 1_555
O0 P0 1.556898 1_555
O1 P0 1.548084 1_555
O2 P0 1.556898 1_555
O3 P0 1.548084 1_555
O28 P1 1.548084 1_555
O29 P1 1.556898 1_555
O30 P1 1.548084 1_555
O31 P1 1.556898 1_555
