# generated using pymatgen
data_LiCr2O4
_symmetry_space_group_name_H-M   'P 1'
_cell_length_a   5.87300437
_cell_length_b   5.87300437
_cell_length_c   9.51549463
_cell_angle_alpha   89.60906035
_cell_angle_beta   89.60906035
_cell_angle_gamma   120.02244282
_symmetry_Int_Tables_number   1
_chemical_formula_structural   LiCr2O4
_chemical_formula_sum   'Li4 Cr8 O16'
_cell_volume   284.14755304
_cell_formula_units_Z   4
loop_
 _symmetry_equiv_pos_site_id
 _symmetry_equiv_pos_as_xyz
  1  'x, y, z'
loop_
 _atom_site_type_symbol
 _atom_site_label
 _atom_site_symmetry_multiplicity
 _atom_site_fract_x
 _atom_site_fract_y
 _atom_site_fract_z
 _atom_site_occupancy
  Li  Li0  1  0.33598600  0.66787000  0.89615200  1
  Li  Li1  1  0.99847400  0.99839000  0.99639300  1
  Li  Li2  1  0.99839000  0.99847400  0.49639300  1
  Li  Li3  1  0.66787000  0.33598600  0.39615200  1
  Cr  Cr0  1  0.66471600  0.83350100  0.21021700  1
  Cr  Cr1  1  0.32823300  0.66445400  0.48303100  1
  Cr  Cr2  1  0.17092800  0.34206100  0.21489700  1
  Cr  Cr3  1  0.16967400  0.83362000  0.21018600  1
  Cr  Cr4  1  0.83362000  0.16967400  0.71018600  1
  Cr  Cr5  1  0.66445400  0.32823300  0.98303100  1
  Cr  Cr6  1  0.83350100  0.66471600  0.71021700  1
  Cr  Cr7  1  0.34206100  0.17092800  0.71489700  1
  O  O0  1  0.66942100  0.83530100  0.60709600  1
  O  O1  1  0.48620300  0.52840400  0.33843500  1
  O  O2  1  0.33704000  0.67221300  0.10264000  1
  O  O3  1  0.99777900  0.99673600  0.31152400  1
  O  O4  1  0.99673600  0.99777900  0.81152400  1
  O  O5  1  0.15420500  0.32793700  0.60440200  1
  O  O6  1  0.47815200  0.95764500  0.33566600  1
  O  O7  1  0.04103400  0.52870100  0.33816900  1
  O  O8  1  0.82681600  0.15480200  0.10511100  1
  O  O9  1  0.15480200  0.82681600  0.60511100  1
  O  O10  1  0.95764500  0.47815200  0.83566600  1
  O  O11  1  0.52870100  0.04103400  0.83816900  1
  O  O12  1  0.67221300  0.33704000  0.60264000  1
  O  O13  1  0.83530100  0.66942100  0.10709600  1
  O  O14  1  0.52840400  0.48620300  0.83843500  1
  O  O15  1  0.32793700  0.15420500  0.10440200  1
loop_
_geom_bond_atom_site_label_1
_geom_bond_atom_site_label_2
_geom_bond_distance
_geom_bond_site_symmetry_2
Li0 O2 1.965187 1_556
Li0 O11 1.970106 1_565
Li0 O14 1.980678 1_555
Li0 O10 2.014635 1_455
Li1 O4 1.759237 1_555
Li1 O8 1.963635 1_566
Li1 O13 1.966333 1_556
Li1 O15 1.976307 1_666
Li2 O3 1.759237 1_555
Li2 O9 1.963635 1_655
Li2 O0 1.966333 1_555
Li2 O5 1.976307 1_665
Li3 O12 1.965187 1_555
Li3 O7 1.970106 1_655
Li3 O1 1.980678 1_555
Li3 O6 2.014635 1_545
Cr0 O8 1.905508 1_565
Cr0 O3 1.958674 1_555
Cr0 O13 1.964870 1_555
Cr0 O2 1.965850 1_555
Cr0 O1 1.967546 1_555
Cr0 O6 1.987587 1_555
Cr1 O7 2.020343 1_555
Cr1 O1 2.032650 1_555
Cr1 O6 2.034600 1_555
Cr1 O5 2.053252 1_555
Cr1 O9 2.065682 1_555
Cr1 O0 2.110015 1_555
Cr2 O3 1.972480 1_445
Cr2 O2 1.979147 1_555
Cr2 O7 2.000378 1_555
Cr2 O1 2.006867 1_555
Cr2 O15 2.047836 1_555
Cr2 O8 2.050738 1_455
Cr3 O15 1.905843 1_565
Cr3 O3 1.958018 1_455
Cr3 O2 1.960597 1_555
Cr3 O7 1.965865 1_555
Cr3 O13 1.973016 1_455
Cr3 O6 1.989799 1_555
Cr4 O5 1.905843 1_655
Cr4 O4 1.958018 1_545
Cr4 O12 1.960597 1_555
Cr4 O11 1.965865 1_555
Cr4 O0 1.973016 1_545
Cr4 O10 1.989799 1_555
Cr5 O11 2.020343 1_555
Cr5 O14 2.032650 1_555
Cr5 O10 2.034600 1_555
Cr5 O15 2.053252 1_556
Cr5 O8 2.065682 1_556
Cr5 O13 2.110015 1_556
Cr6 O9 1.905508 1_655
Cr6 O4 1.958674 1_555
Cr6 O0 1.964870 1_555
Cr6 O12 1.965850 1_555
Cr6 O14 1.967546 1_555
Cr6 O10 1.987587 1_555
Cr7 O4 1.972480 1_445
Cr7 O12 1.979147 1_555
Cr7 O11 2.000378 1_555
Cr7 O14 2.006867 1_555
Cr7 O5 2.047836 1_555
Cr7 O9 2.050738 1_545
