# generated using pymatgen
data_Li4Mn2Ni5O12
_symmetry_space_group_name_H-M   'P 1'
_cell_length_a   5.00317697
_cell_length_b   8.82775031
_cell_length_c   9.73656396
_cell_angle_alpha   90.00000222
_cell_angle_beta   100.34017313
_cell_angle_gamma   90.00000627
_symmetry_Int_Tables_number   1
_chemical_formula_structural   Li4Mn2Ni5O12
_chemical_formula_sum   'Li8 Mn4 Ni10 O24'
_cell_volume   423.04886538
_cell_formula_units_Z   2
loop_
 _symmetry_equiv_pos_site_id
 _symmetry_equiv_pos_as_xyz
  1  'x, y, z'
loop_
 _atom_site_type_symbol
 _atom_site_label
 _atom_site_symmetry_multiplicity
 _atom_site_fract_x
 _atom_site_fract_y
 _atom_site_fract_z
 _atom_site_occupancy
  Li  Li0  1  0.24673900  0.08635900  0.99401600  1
  Li  Li1  1  0.75161700  0.07588300  0.50668300  1
  Li  Li2  1  0.49382000  0.41603900  0.75120400  1
  Li  Li3  1  0.75151800  0.41587200  0.50687300  1
  Li  Li4  1  0.25326100  0.58635900  0.50598400  1
  Li  Li5  1  0.74838300  0.57588300  0.99331700  1
  Li  Li6  1  0.00618000  0.91603900  0.74879600  1
  Li  Li7  1  0.74848200  0.91587200  0.99312700  1
  Mn  Mn0  1  0.99896600  0.25456300  0.74754000  1
  Mn  Mn1  1  0.50130900  0.25053400  0.24726500  1
  Mn  Mn2  1  0.99869100  0.75053400  0.25273500  1
  Mn  Mn3  1  0.50103400  0.75456300  0.75246000  1
  Ni  Ni0  1  0.00113300  0.07996200  0.25351800  1
  Ni  Ni1  1  0.49792500  0.08283400  0.74736500  1
  Ni  Ni2  1  0.26102200  0.24915000  0.50489700  1
  Ni  Ni3  1  0.00474800  0.41833200  0.24869700  1
  Ni  Ni4  1  0.74354300  0.25933300  0.99374100  1
  Ni  Ni5  1  0.00207500  0.58283400  0.75263500  1
  Ni  Ni6  1  0.49886700  0.57996200  0.24648200  1
  Ni  Ni7  1  0.23897800  0.74915000  0.99510300  1
  Ni  Ni8  1  0.75645700  0.75933300  0.50625900  1
  Ni  Ni9  1  0.49525200  0.91833200  0.25130300  1
  O  O0  1  0.14027300  0.09976600  0.63773900  1
  O  O1  1  0.38843700  0.09936200  0.36474800  1
  O  O2  1  0.36889400  0.23228400  0.85909900  1
  O  O3  1  0.13015500  0.24007700  0.13833500  1
  O  O4  1  0.61771800  0.09718400  0.13089300  1
  O  O5  1  0.85740300  0.10103600  0.86528600  1
  O  O6  1  0.12116600  0.40379100  0.62894600  1
  O  O7  1  0.64695100  0.24580700  0.62774800  1
  O  O8  1  0.38665800  0.40584200  0.36700700  1
  O  O9  1  0.86802700  0.24911900  0.36403500  1
  O  O10  1  0.62467700  0.40870900  0.13429500  1
  O  O11  1  0.87807100  0.41246900  0.85801400  1
  O  O12  1  0.11156300  0.59936200  0.13525200  1
  O  O13  1  0.35972700  0.59976600  0.86226100  1
  O  O14  1  0.13110600  0.73228400  0.64090100  1
  O  O15  1  0.64259700  0.60103600  0.63471400  1
  O  O16  1  0.36984500  0.74007700  0.36166500  1
  O  O17  1  0.88228200  0.59718400  0.36910700  1
  O  O18  1  0.11334200  0.90584200  0.13299300  1
  O  O19  1  0.85304900  0.74580700  0.87225200  1
  O  O20  1  0.63197300  0.74911900  0.13596500  1
  O  O21  1  0.37883400  0.90379100  0.87105400  1
  O  O22  1  0.62192900  0.91246900  0.64198600  1
  O  O23  1  0.87532300  0.90870900  0.36570500  1
loop_
_geom_bond_atom_site_label_1
_geom_bond_atom_site_label_2
_geom_bond_distance
_geom_bond_site_symmetry_2
Li0 O2 2.011661 1_555
Li0 O4 2.083812 1_556
Li0 O3 2.109590 1_556
Li0 O5 2.122661 1_455
Li0 O21 2.179826 1_545
Li0 O18 2.267180 1_546
Li1 O7 2.033573 1_555
Li1 O1 2.086387 1_555
Li1 O22 2.131760 1_545
Li1 O0 2.136146 1_655
Li1 O23 2.179469 1_545
Li1 O9 2.212998 1_555
Li2 O11 2.015120 1_555
Li2 O6 2.026854 1_555
Li2 O2 2.088379 1_555
Li2 O13 2.123748 1_555
Li2 O7 2.149598 1_555
Li2 O15 2.193313 1_555
Li3 O6 2.013779 1_655
Li3 O7 2.033156 1_555
Li3 O8 2.074191 1_555
Li3 O9 2.175304 1_555
Li3 O15 2.182130 1_555
Li3 O17 2.259241 1_555
Li4 O14 2.011661 1_555
Li4 O17 2.083812 1_455
Li4 O16 2.109590 1_555
Li4 O15 2.122661 1_555
Li4 O6 2.179826 1_555
Li4 O8 2.267180 1_555
Li5 O19 2.033573 1_555
Li5 O12 2.086387 1_656
Li5 O11 2.131760 1_555
Li5 O13 2.136146 1_555
Li5 O10 2.179469 1_556
Li5 O20 2.212998 1_556
Li6 O22 2.015120 1_455
Li6 O21 2.026854 1_555
Li6 O14 2.088379 1_555
Li6 O0 2.123747 1_565
Li6 O19 2.149598 1_455
Li6 O5 2.193313 1_465
Li7 O21 2.013779 1_555
Li7 O19 2.033156 1_555
Li7 O18 2.074191 1_656
Li7 O20 2.175304 1_556
Li7 O5 2.182130 1_565
Li7 O4 2.259241 1_566
Mn0 O6 1.922488 1_655
Mn0 O11 1.923413 1_555
Mn0 O7 1.931517 1_555
Mn0 O0 1.944594 1_655
Mn0 O2 1.980491 1_655
Mn0 O5 1.986023 1_555
Mn1 O1 1.907925 1_555
Mn1 O4 1.921598 1_555
Mn1 O10 1.945327 1_555
Mn1 O8 1.951430 1_555
Mn1 O3 1.968412 1_555
Mn1 O9 1.977440 1_555
Mn2 O12 1.907925 1_655
Mn2 O17 1.921598 1_555
Mn2 O23 1.945327 1_555
Mn2 O18 1.951430 1_655
Mn2 O16 1.968412 1_655
Mn2 O20 1.977440 1_555
Mn3 O21 1.922488 1_555
Mn3 O22 1.923413 1_555
Mn3 O19 1.931517 1_555
Mn3 O13 1.944594 1_555
Mn3 O14 1.980491 1_555
Mn3 O15 1.986023 1_555
Ni0 O3 1.982969 1_555
Ni0 O9 2.022007 1_455
Ni0 O23 2.030187 1_445
Ni0 O1 2.050301 1_555
Ni0 O18 2.071572 1_545
Ni0 O4 2.075156 1_455
Ni1 O2 1.895517 1_555
Ni1 O0 1.917794 1_555
Ni1 O5 1.958949 1_555
Ni1 O22 1.981918 1_545
Ni1 O7 2.072173 1_555
Ni1 O21 2.135672 1_545
Ni2 O0 2.014314 1_555
Ni2 O6 2.028644 1_555
Ni2 O1 2.080663 1_555
Ni2 O7 2.081055 1_555
Ni2 O8 2.100933 1_555
Ni2 O9 2.186094 1_455
Ni3 O10 2.025715 1_455
Ni3 O8 2.049384 1_555
Ni3 O9 2.058189 1_455
Ni3 O3 2.065560 1_555
Ni3 O12 2.066749 1_555
Ni3 O17 2.121455 1_455
Ni4 O5 2.024180 1_555
Ni4 O10 2.063375 1_556
Ni4 O11 2.084758 1_555
Ni4 O2 2.099282 1_555
Ni4 O4 2.128447 1_556
Ni4 O3 2.185137 1_656
Ni5 O14 1.895517 1_555
Ni5 O13 1.917794 1_555
Ni5 O15 1.958949 1_455
Ni5 O11 1.981918 1_455
Ni5 O19 2.072173 1_455
Ni5 O6 2.135672 1_555
Ni6 O16 1.982969 1_555
Ni6 O20 2.022007 1_555
Ni6 O10 2.030187 1_555
Ni6 O12 2.050301 1_555
Ni6 O8 2.071572 1_555
Ni6 O17 2.075156 1_555
Ni7 O13 2.014314 1_555
Ni7 O21 2.028644 1_555
Ni7 O12 2.080663 1_556
Ni7 O19 2.081055 1_455
Ni7 O18 2.100933 1_556
Ni7 O20 2.186094 1_556
Ni8 O15 2.024180 1_555
Ni8 O23 2.063375 1_555
Ni8 O22 2.084758 1_555
Ni8 O14 2.099282 1_655
Ni8 O17 2.128447 1_555
Ni8 O16 2.185137 1_555
Ni9 O23 2.025715 1_555
Ni9 O18 2.049384 1_555
Ni9 O20 2.058189 1_555
Ni9 O16 2.065560 1_555
Ni9 O1 2.066749 1_565
Ni9 O4 2.121455 1_565
