# generated using pymatgen
data_Li2Cr(FeO3)2
_symmetry_space_group_name_H-M   'P 1'
_cell_length_a   6.68527700
_cell_length_b   6.69244148
_cell_length_c   8.37387597
_cell_angle_alpha   71.30169604
_cell_angle_beta   71.23223269
_cell_angle_gamma   82.98596125
_symmetry_Int_Tables_number   1
_chemical_formula_structural   Li2Cr(FeO3)2
_chemical_formula_sum   'Li6 Cr3 Fe6 O18'
_cell_volume   335.93580395
_cell_formula_units_Z   3
loop_
 _symmetry_equiv_pos_site_id
 _symmetry_equiv_pos_as_xyz
  1  'x, y, z'
loop_
 _atom_site_type_symbol
 _atom_site_label
 _atom_site_symmetry_multiplicity
 _atom_site_fract_x
 _atom_site_fract_y
 _atom_site_fract_z
 _atom_site_occupancy
  Li  Li0  1  0.66342700  0.00107000  0.83215800  1
  Li  Li1  1  0.66216200  0.33522500  0.50153000  1
  Li  Li2  1  0.00042000  0.33315900  0.16950900  1
  Li  Li3  1  0.99958000  0.66684100  0.83049100  1
  Li  Li4  1  0.33657300  0.99893000  0.16784200  1
  Li  Li5  1  0.33783800  0.66477500  0.49847000  1
  Cr  Cr0  1  0.00000000  0.00000000  0.00000000  1
  Cr  Cr1  1  0.99959200  0.33163800  0.66651700  1
  Cr  Cr2  1  0.00040800  0.66836200  0.33348300  1
  Fe  Fe0  1  0.33371600  0.66339300  0.99985900  1
  Fe  Fe1  1  0.33201100  0.00066700  0.66500000  1
  Fe  Fe2  1  0.33299200  0.33376300  0.33385000  1
  Fe  Fe3  1  0.66798900  0.99933300  0.33500000  1
  Fe  Fe4  1  0.66628400  0.33660700  0.00014100  1
  Fe  Fe5  1  0.66700800  0.66623700  0.66615000  1
  O  O0  1  0.67731300  0.67593400  0.43514800  1
  O  O1  1  0.68820900  0.01802000  0.07698700  1
  O  O2  1  0.68629300  0.35473900  0.74331000  1
  O  O3  1  0.01875200  0.68378600  0.08215200  1
  O  O4  1  0.01113300  0.01145500  0.76683600  1
  O  O5  1  0.35363000  0.68548000  0.74389500  1
  O  O6  1  0.98886700  0.98854500  0.23316400  1
  O  O7  1  0.98124800  0.31621400  0.91784800  1
  O  O8  1  0.31179100  0.98198000  0.92301300  1
  O  O9  1  0.02038300  0.35377600  0.41354600  1
  O  O10  1  0.35087000  0.01964100  0.41079000  1
  O  O11  1  0.34137300  0.34184400  0.10373700  1
  O  O12  1  0.97961700  0.64622400  0.58645400  1
  O  O13  1  0.32268700  0.32406600  0.56485200  1
  O  O14  1  0.31370700  0.64526100  0.25669000  1
  O  O15  1  0.64913000  0.98035900  0.58921000  1
  O  O16  1  0.64637000  0.31452000  0.25610500  1
  O  O17  1  0.65862700  0.65815600  0.89626300  1
loop_
_geom_bond_atom_site_label_1
_geom_bond_atom_site_label_2
_geom_bond_distance
_geom_bond_site_symmetry_2
Li0 O15 2.115740 1_545
Li0 O1 2.148434 1_556
Li0 O17 2.184702 1_545
Li0 O4 2.214565 1_655
Li0 O8 2.231934 1_545
Li0 O2 2.250613 1_555
Li1 O2 2.127693 1_555
Li1 O16 2.140047 1_555
Li1 O13 2.163091 1_555
Li1 O0 2.173926 1_555
Li1 O15 2.253501 1_545
Li1 O9 2.274195 1_655
Li2 O9 2.138612 1_555
Li2 O11 2.169390 1_555
Li2 O7 2.191098 1_454
Li2 O6 2.199533 1_445
Li2 O3 2.228988 1_555
Li2 O16 2.247978 1_455
Li3 O12 2.138612 1_555
Li3 O17 2.169390 1_555
Li3 O3 2.191098 1_656
Li3 O4 2.199533 1_665
Li3 O7 2.228988 1_555
Li3 O5 2.247978 1_655
Li4 O10 2.115740 1_565
Li4 O8 2.148434 1_554
Li4 O11 2.184702 1_565
Li4 O6 2.214565 1_455
Li4 O1 2.231934 1_565
Li4 O14 2.250613 1_555
Li5 O14 2.127693 1_555
Li5 O5 2.140047 1_555
Li5 O0 2.163091 1_555
Li5 O13 2.173926 1_555
Li5 O10 2.253501 1_565
Li5 O12 2.274195 1_455
Cr0 O6 1.906708 1_445
Cr0 O4 1.906708 1_554
Cr0 O8 1.974513 1_544
Cr0 O1 1.974513 1_455
Cr0 O7 2.006170 1_454
Cr0 O3 2.006170 1_545
Cr1 O2 1.985524 1_555
Cr1 O12 1.995932 1_555
Cr1 O9 2.035438 1_655
Cr1 O4 2.037263 1_655
Cr1 O7 2.037847 1_555
Cr1 O13 2.051958 1_655
Cr2 O14 1.985524 1_555
Cr2 O9 1.995932 1_555
Cr2 O12 2.035438 1_455
Cr2 O6 2.037263 1_455
Cr2 O3 2.037847 1_555
Cr2 O0 2.051958 1_455
Fe0 O3 1.995892 1_556
Fe0 O8 2.021435 1_555
Fe0 O11 2.047365 1_556
Fe0 O5 2.061997 1_555
Fe0 O17 2.064049 1_555
Fe0 O14 2.075938 1_556
Fe1 O5 2.000068 1_545
Fe1 O15 2.008716 1_545
Fe1 O4 2.039282 1_555
Fe1 O10 2.054600 1_555
Fe1 O13 2.056313 1_555
Fe1 O8 2.084448 1_545
Fe2 O11 1.893041 1_555
Fe2 O13 1.893580 1_555
Fe2 O14 1.975937 1_555
Fe2 O9 1.980506 1_555
Fe2 O16 1.984882 1_555
Fe2 O10 1.992127 1_555
Fe3 O16 2.000068 1_565
Fe3 O10 2.008716 1_565
Fe3 O6 2.039282 1_555
Fe3 O15 2.054600 1_555
Fe3 O0 2.056313 1_555
Fe3 O1 2.084448 1_565
Fe4 O7 1.995892 1_554
Fe4 O1 2.021435 1_555
Fe4 O17 2.047365 1_554
Fe4 O16 2.061997 1_555
Fe4 O11 2.064049 1_555
Fe4 O2 2.075938 1_554
Fe5 O17 1.893041 1_555
Fe5 O0 1.893580 1_555
Fe5 O2 1.975937 1_555
Fe5 O12 1.980506 1_555
Fe5 O5 1.984882 1_555
Fe5 O15 1.992127 1_555
