# generated using pymatgen
data_V4CrCuO12
_symmetry_space_group_name_H-M   'P 1'
_cell_length_a   5.90421530
_cell_length_b   6.73637464
_cell_length_c   6.73759050
_cell_angle_alpha   96.25864064
_cell_angle_beta   75.24547141
_cell_angle_gamma   104.74408712
_symmetry_Int_Tables_number   1
_chemical_formula_structural   V4CrCuO12
_chemical_formula_sum   'V4 Cr1 Cu1 O12'
_cell_volume   250.32508581
_cell_formula_units_Z   1
loop_
 _symmetry_equiv_pos_site_id
 _symmetry_equiv_pos_as_xyz
  1  'x, y, z'
loop_
 _atom_site_type_symbol
 _atom_site_label
 _atom_site_symmetry_multiplicity
 _atom_site_fract_x
 _atom_site_fract_y
 _atom_site_fract_z
 _atom_site_occupancy
  V  V0  1  0.76327500  0.21120400  0.60930400  1
  V  V1  1  0.73684400  0.60938000  0.21131200  1
  V  V2  1  0.24741300  0.38386600  0.79982300  1
  V  V3  1  0.25256500  0.79976000  0.38400100  1
  Cr  Cr0  1  0.75008900  0.08120500  0.08114000  1
  Cu  Cu0  1  0.24936100  0.90690200  0.90631800  1
  O  O0  1  0.67437300  0.03767300  0.79894900  1
  O  O1  1  0.82596800  0.79912500  0.03777700  1
  O  O2  1  0.78100100  0.09377600  0.36998900  1
  O  O3  1  0.71907700  0.37009100  0.09373400  1
  O  O4  1  0.11214400  0.18330100  0.96686300  1
  O  O5  1  0.38796100  0.96676200  0.18341200  1
  O  O6  1  0.55029500  0.36790400  0.66380900  1
  O  O7  1  0.94971200  0.66365900  0.36807000  1
  O  O8  1  0.05392200  0.36309500  0.62503400  1
  O  O9  1  0.44617400  0.62506200  0.36322600  1
  O  O10  1  0.26017500  0.61433700  0.92287300  1
  O  O11  1  0.23965000  0.92289400  0.61436300  1
loop_
_geom_bond_atom_site_label_1
_geom_bond_atom_site_label_2
_geom_bond_distance
_geom_bond_site_symmetry_2
Cr0 O2 1.991253 1_555
Cr0 O3 1.991298 1_555
Cr0 O1 2.035292 1_545
Cr0 O0 2.036020 1_554
Cr0 O4 2.040630 1_654
Cr0 O5 2.041309 1_545
Cu0 O11 1.997765 1_555
Cu0 O10 2.004067 1_555
Cu0 O4 2.173340 1_565
Cu0 O5 2.182618 1_556
Cu0 O1 2.376816 1_456
Cu0 O0 2.384403 1_565
O0 V0 1.716503 1_555
O1 V1 1.716925 1_555
O2 V0 1.707231 1_555
O3 V1 1.707267 1_555
O4 V2 1.747674 1_555
O5 V3 1.747742 1_555
O6 V0 1.785019 1_555
O6 V2 1.814103 1_555
O7 V1 1.785161 1_555
O7 V3 1.814188 1_655
O8 V0 1.782757 1_455
O8 V2 1.810951 1_555
O9 V1 1.782705 1_555
O9 V3 1.810675 1_555
O10 V2 1.671834 1_555
O11 V3 1.671534 1_555
