# generated using pymatgen
data_Li5Fe4(PO4)4
_symmetry_space_group_name_H-M   'P 1'
_cell_length_a   8.46982816
_cell_length_b   8.46982816
_cell_length_c   10.38752000
_cell_angle_alpha   89.99931954
_cell_angle_beta   89.99931954
_cell_angle_gamma   74.51929136
_symmetry_Int_Tables_number   1
_chemical_formula_structural   Li5Fe4(PO4)4
_chemical_formula_sum   'Li10 Fe8 P8 O32'
_cell_volume   718.14495401
_cell_formula_units_Z   2
loop_
 _symmetry_equiv_pos_site_id
 _symmetry_equiv_pos_as_xyz
  1  'x, y, z'
loop_
 _atom_site_type_symbol
 _atom_site_label
 _atom_site_symmetry_multiplicity
 _atom_site_fract_x
 _atom_site_fract_y
 _atom_site_fract_z
 _atom_site_occupancy
  Li  Li0  1  0.12191900  0.06760300  0.91632500  1
  Li  Li1  1  0.75802900  0.19314800  0.84408200  1
  Li  Li2  1  0.25763800  0.69280100  0.83869000  1
  Li  Li3  1  0.76075500  0.70170000  0.65316700  1
  Li  Li4  1  0.26129600  0.19871500  0.65411100  1
  Li  Li5  1  0.06760300  0.12191900  0.41632500  1
  Li  Li6  1  0.69280100  0.25763800  0.33869000  1
  Li  Li7  1  0.19314800  0.75802900  0.34408200  1
  Li  Li8  1  0.70170000  0.76075500  0.15316700  1
  Li  Li9  1  0.19871500  0.26129600  0.15411100  1
  Fe  Fe0  1  0.51714100  0.94032700  0.84187100  1
  Fe  Fe1  1  0.00202500  0.45504600  0.84523000  1
  Fe  Fe2  1  0.00592000  0.93601300  0.65565800  1
  Fe  Fe3  1  0.50838000  0.45183400  0.64870100  1
  Fe  Fe4  1  0.45504600  0.00202500  0.34523000  1
  Fe  Fe5  1  0.94032700  0.51714100  0.34187100  1
  Fe  Fe6  1  0.45183400  0.50838000  0.14870100  1
  Fe  Fe7  1  0.93601300  0.00592000  0.15565800  1
  P  P0  1  0.89187200  0.82313300  0.90761900  1
  P  P1  1  0.37943500  0.31551700  0.90327600  1
  P  P2  1  0.38294900  0.82261200  0.59605500  1
  P  P3  1  0.88715400  0.32160100  0.59389400  1
  P  P4  1  0.82313300  0.89187200  0.40761900  1
  P  P5  1  0.31551700  0.37943500  0.40327600  1
  P  P6  1  0.32160100  0.88715400  0.09389400  1
  P  P7  1  0.82261200  0.38294900  0.09605500  1
  O  O0  1  0.34582600  0.85708400  0.94472500  1
  O  O1  1  0.86452300  0.34091900  0.95042000  1
  O  O2  1  0.53349400  0.17111400  0.87960300  1
  O  O3  1  0.04151900  0.67290000  0.87789100  1
  O  O4  1  0.74402300  0.79164700  0.83039500  1
  O  O5  1  0.22625200  0.26454400  0.84747400  1
  O  O6  1  0.93466100  0.98232900  0.86079000  1
  O  O7  1  0.40315700  0.46845400  0.83168700  1
  O  O8  1  0.91723100  0.47790300  0.65610700  1
  O  O9  1  0.41472000  0.97747200  0.66036200  1
  O  O10  1  0.24337300  0.76871700  0.66190500  1
  O  O11  1  0.73609400  0.28298400  0.65882600  1
  O  O12  1  0.04346700  0.17697600  0.60852700  1
  O  O13  1  0.54096700  0.67666700  0.61108600  1
  O  O14  1  0.83572700  0.84939900  0.55060500  1
  O  O15  1  0.35544200  0.34791600  0.54823800  1
  O  O16  1  0.34091900  0.86452300  0.45042000  1
  O  O17  1  0.85708400  0.34582600  0.44472500  1
  O  O18  1  0.67290000  0.04151900  0.37789100  1
  O  O19  1  0.17111400  0.53349400  0.37960300  1
  O  O20  1  0.26454400  0.22625200  0.34747400  1
  O  O21  1  0.79164700  0.74402300  0.33039500  1
  O  O22  1  0.98232900  0.93466100  0.36079000  1
  O  O23  1  0.46845400  0.40315700  0.33168700  1
  O  O24  1  0.47790300  0.91723100  0.15610700  1
  O  O25  1  0.97747200  0.41472000  0.16036200  1
  O  O26  1  0.28298400  0.73609400  0.15882600  1
  O  O27  1  0.76871700  0.24337300  0.16190500  1
  O  O28  1  0.67666700  0.54096700  0.11108600  1
  O  O29  1  0.17697600  0.04346700  0.10852700  1
  O  O30  1  0.84939900  0.83572700  0.05060500  1
  O  O31  1  0.34791600  0.35544200  0.04823800  1
loop_
_geom_bond_atom_site_label_1
_geom_bond_atom_site_label_2
_geom_bond_distance
_geom_bond_site_symmetry_2
Li0 O6 1.995373 1_445
Li0 O29 2.048021 1_556
Li0 O5 2.204913 1_555
Li0 O0 2.248941 1_545
Li1 O2 1.994281 1_555
Li1 O6 2.007636 1_545
Li1 O1 2.050095 1_555
Li1 O11 2.059396 1_555
Li2 O3 1.926035 1_555
Li2 O10 1.938751 1_555
Li2 O7 1.971004 1_555
Li2 O0 2.064484 1_555
Li3 O14 1.878085 1_555
Li3 O13 1.977923 1_555
Li3 O4 1.982927 1_555
Li3 O8 2.002336 1_555
Li4 O12 1.960461 1_555
Li4 O9 1.975957 1_545
Li4 O15 1.995030 1_555
Li4 O5 2.084457 1_555
Li5 O22 1.995373 1_445
Li5 O12 2.048021 1_555
Li5 O20 2.204913 1_555
Li5 O17 2.248941 1_455
Li6 O18 1.926035 1_555
Li6 O27 1.938751 1_555
Li6 O23 1.971004 1_555
Li6 O17 2.064484 1_555
Li7 O19 1.994281 1_555
Li7 O22 2.007636 1_455
Li7 O16 2.050095 1_555
Li7 O26 2.059396 1_555
Li8 O30 1.878085 1_555
Li8 O28 1.977923 1_555
Li8 O21 1.982927 1_555
Li8 O24 2.002336 1_555
Li9 O29 1.960461 1_555
Li9 O25 1.975957 1_455
Li9 O31 1.995030 1_555
Li9 O20 2.084457 1_555
Fe0 O4 2.000238 1_555
Fe0 O2 2.034283 1_565
Fe0 O9 2.064143 1_555
Fe0 O0 2.071249 1_555
Fe1 O3 1.990281 1_555
Fe1 O1 2.021272 1_455
Fe1 O8 2.082886 1_455
Fe1 O5 2.138921 1_555
Fe2 O14 2.090813 1_455
Fe2 O10 2.129691 1_555
Fe2 O12 2.202862 1_565
Fe2 O6 2.220839 1_455
Fe3 O13 2.033655 1_555
Fe3 O15 2.037243 1_555
Fe3 O11 2.074551 1_555
Fe3 O7 2.088065 1_555
Fe4 O18 1.990281 1_555
Fe4 O16 2.021272 1_545
Fe4 O24 2.082886 1_545
Fe4 O20 2.138921 1_555
Fe5 O21 2.000238 1_555
Fe5 O19 2.034283 1_655
Fe5 O25 2.064143 1_555
Fe5 O17 2.071249 1_555
Fe6 O28 2.033655 1_555
Fe6 O31 2.037243 1_555
Fe6 O26 2.074551 1_555
Fe6 O23 2.088065 1_555
Fe7 O30 2.090813 1_545
Fe7 O27 2.129691 1_555
Fe7 O29 2.202862 1_655
Fe7 O22 2.220839 1_545
O0 P6 1.574804 1_556
O1 P7 1.572832 1_556
O2 P1 1.551470 1_555
O3 P0 1.568450 1_455
O4 P0 1.568769 1_555
O5 P1 1.582643 1_555
O6 P0 1.564255 1_555
O7 P1 1.552482 1_555
O8 P3 1.554078 1_555
O9 P2 1.558030 1_555
O10 P2 1.536837 1_555
O11 P3 1.556367 1_555
O12 P3 1.552640 1_455
O13 P2 1.568596 1_555
O14 P4 1.525229 1_555
O15 P5 1.550758 1_555
O16 P2 1.572832 1_555
O17 P3 1.574804 1_555
O18 P4 1.568450 1_545
O19 P5 1.551470 1_555
O20 P5 1.582643 1_555
O21 P4 1.568769 1_555
O22 P4 1.564255 1_555
O23 P5 1.552482 1_555
O24 P6 1.554078 1_555
O25 P7 1.558030 1_555
O26 P6 1.556367 1_555
O27 P7 1.536837 1_555
O28 P7 1.568596 1_555
O29 P6 1.552640 1_545
O30 P0 1.525229 1_554
O31 P1 1.550758 1_554
