# generated using pymatgen
data_Li4V2Co3Sn3O16
_symmetry_space_group_name_H-M   'P 1'
_cell_length_a   6.16470352
_cell_length_b   6.16470352
_cell_length_c   9.67047670
_cell_angle_alpha   89.49503354
_cell_angle_beta   89.49503354
_cell_angle_gamma   59.18334352
_symmetry_Int_Tables_number   1
_chemical_formula_structural   Li4V2Co3Sn3O16
_chemical_formula_sum   'Li4 V2 Co3 Sn3 O16'
_cell_volume   315.60768213
_cell_formula_units_Z   1
loop_
 _symmetry_equiv_pos_site_id
 _symmetry_equiv_pos_as_xyz
  1  'x, y, z'
loop_
 _atom_site_type_symbol
 _atom_site_label
 _atom_site_symmetry_multiplicity
 _atom_site_fract_x
 _atom_site_fract_y
 _atom_site_fract_z
 _atom_site_occupancy
  Li  Li0  1  0.68397400  0.68397400  0.09851400  1
  Li  Li1  1  0.98092500  0.98092500  0.01832300  1
  Li  Li2  1  0.98998500  0.98998500  0.49846200  1
  Li  Li3  1  0.32965100  0.32965100  0.59780300  1
  V  V0  1  0.67559000  0.67559000  0.50123000  1
  V  V1  1  0.36158300  0.36158300  0.02697900  1
  Co  Co0  1  0.82249200  0.82249200  0.78352900  1
  Co  Co1  1  0.17819300  0.65963400  0.29067900  1
  Co  Co2  1  0.65963400  0.17819300  0.29067900  1
  Sn  Sn0  1  0.33376500  0.82622500  0.78465100  1
  Sn  Sn1  1  0.82622500  0.33376500  0.78465100  1
  Sn  Sn2  1  0.17630200  0.17630200  0.28501800  1
  O  O0  1  0.35821700  0.82478700  0.41101800  1
  O  O1  1  0.50966400  0.50966400  0.65797100  1
  O  O2  1  0.66277000  0.66277000  0.89830900  1
  O  O3  1  0.98863400  0.98863400  0.68637900  1
  O  O4  1  0.00189300  0.00189300  0.20789100  1
  O  O5  1  0.82478700  0.35821700  0.41101800  1
  O  O6  1  0.51515300  0.94569800  0.64549500  1
  O  O7  1  0.94569800  0.51515300  0.64549500  1
  O  O8  1  0.14566400  0.14566400  0.90676100  1
  O  O9  1  0.81812500  0.81812500  0.41288400  1
  O  O10  1  0.05561100  0.48225600  0.14573600  1
  O  O11  1  0.48225600  0.05561100  0.14573600  1
  O  O12  1  0.33780800  0.33780800  0.39411700  1
  O  O13  1  0.17814300  0.63983300  0.91272200  1
  O  O14  1  0.48994900  0.48994900  0.13878500  1
  O  O15  1  0.63983300  0.17814300  0.91272200  1
loop_
_geom_bond_atom_site_label_1
_geom_bond_atom_site_label_2
_geom_bond_distance
_geom_bond_site_symmetry_2
Li0 O2 1.951666 1_554
Li0 O10 2.023155 1_655
Li0 O11 2.023155 1_565
Li0 O14 2.112446 1_555
Li1 O4 1.849205 1_665
Li1 O8 2.060290 1_664
Li1 O15 2.083058 1_564
Li1 O13 2.083058 1_654
Li2 O3 1.817158 1_555
Li2 O9 2.027510 1_555
Li2 O5 2.125560 1_565
Li2 O0 2.125560 1_655
Li3 O12 1.970795 1_555
Li3 O1 2.021404 1_555
Li3 O6 2.083188 1_545
Li3 O7 2.083188 1_455
Co0 O3 2.005383 1_555
Co0 O2 2.031230 1_555
Co0 O6 2.121490 1_555
Co0 O7 2.121490 1_555
Co0 O13 2.264908 1_655
Co0 O15 2.264908 1_565
Co1 O12 1.971575 1_555
Co1 O4 1.977372 1_565
Co1 O10 2.150293 1_555
Co1 O0 2.196320 1_555
Co1 O14 2.205221 1_555
Co1 O9 2.242851 1_455
Co2 O12 1.971575 1_555
Co2 O4 1.977372 1_655
Co2 O11 2.150293 1_555
Co2 O5 2.196320 1_555
Co2 O14 2.205221 1_555
Co2 O9 2.242851 1_545
O0 V0 1.899248 1_555
O0 Sn2 2.219415 1_565
O1 Sn1 2.082195 1_555
O1 Sn0 2.082195 1_555
O1 V0 2.325397 1_555
O2 Sn0 2.064679 1_555
O2 Sn1 2.064679 1_555
O3 Sn0 2.066075 1_655
O3 Sn1 2.066075 1_565
O4 Sn2 2.020155 1_555
O5 V0 1.899248 1_555
O5 Sn2 2.219415 1_655
O6 V0 2.006605 1_555
O6 Sn0 2.098472 1_555
O7 V0 2.006605 1_555
O7 Sn1 2.098472 1_555
O8 Sn1 2.072247 1_455
O8 Sn0 2.072247 1_545
O8 V1 2.600955 1_556
O9 V0 1.743185 1_555
O10 V1 1.992324 1_555
O10 Sn2 2.111936 1_555
O11 V1 1.992324 1_555
O11 Sn2 2.111936 1_555
O12 Sn2 2.036759 1_555
O13 V1 1.855578 1_556
O13 Sn0 2.204094 1_555
O14 V1 1.758760 1_555
O15 V1 1.855578 1_556
O15 Sn1 2.204094 1_555
