# generated using pymatgen
data_Zr2N2O
_symmetry_space_group_name_H-M   'P 1'
_cell_length_a   5.54073400
_cell_length_b   5.78298927
_cell_length_c   16.18152604
_cell_angle_alpha   90.04521235
_cell_angle_beta   89.99997167
_cell_angle_gamma   90.25049568
_symmetry_Int_Tables_number   1
_chemical_formula_structural   Zr2N2O
_chemical_formula_sum   'Zr16 N16 O8'
_cell_volume   518.48342579
_cell_formula_units_Z   8
loop_
 _symmetry_equiv_pos_site_id
 _symmetry_equiv_pos_as_xyz
  1  'x, y, z'
loop_
 _atom_site_type_symbol
 _atom_site_label
 _atom_site_symmetry_multiplicity
 _atom_site_fract_x
 _atom_site_fract_y
 _atom_site_fract_z
 _atom_site_occupancy
  Zr  Zr0  1  0.99639000  0.79589100  0.92442600  1
  Zr  Zr1  1  0.98725400  0.25144800  0.81232600  1
  Zr  Zr2  1  0.99069900  0.70469800  0.42817300  1
  Zr  Zr3  1  0.99437000  0.25034800  0.31478100  1
  Zr  Zr4  1  0.50784700  0.74886600  0.81373200  1
  Zr  Zr5  1  0.50497600  0.74967000  0.31420900  1
  Zr  Zr6  1  0.50314100  0.20576000  0.42158700  1
  Zr  Zr7  1  0.50490000  0.29371200  0.92553700  1
  Zr  Zr8  1  0.50934300  0.79406000  0.57171800  1
  Zr  Zr9  1  0.52526300  0.70393500  0.06959100  1
  Zr  Zr10  1  0.48176200  0.23433700  0.69036000  1
  Zr  Zr11  1  0.49905400  0.26309300  0.18635200  1
  Zr  Zr12  1  0.98690900  0.29245200  0.57385300  1
  Zr  Zr13  1  0.00218900  0.75191200  0.68368600  1
  Zr  Zr14  1  0.00474600  0.75902000  0.18617800  1
  Zr  Zr15  1  0.97521600  0.20198100  0.06972000  1
  N  N0  1  0.15803400  0.89311800  0.79860200  1
  N  N1  1  0.15340800  0.60916900  0.29760700  1
  N  N2  1  0.20620100  0.02538300  0.62082800  1
  N  N3  1  0.34421600  0.39104700  0.79873400  1
  N  N4  1  0.34939300  0.11047600  0.29943600  1
  N  N5  1  0.65073000  0.88154500  0.70012600  1
  N  N6  1  0.64592800  0.62520200  0.19966700  1
  N  N7  1  0.63281500  0.33640300  0.05231600  1
  N  N8  1  0.70434800  0.02285500  0.87876700  1
  N  N9  1  0.70425100  0.47721000  0.37797400  1
  N  N10  1  0.79584800  0.52181400  0.87929100  1
  N  N11  1  0.79633700  0.97975800  0.38051400  1
  N  N12  1  0.85841100  0.66275600  0.55136000  1
  N  N13  1  0.86795300  0.83681900  0.05160200  1
  N  N14  1  0.85420400  0.12453800  0.20062600  1
  N  N15  1  0.84717100  0.37802000  0.69914300  1
  O  O0  1  0.15064300  0.16804000  0.95325900  1
  O  O1  1  0.15252000  0.33443300  0.45314400  1
  O  O2  1  0.19630800  0.47447200  0.12337200  1
  O  O3  1  0.30704400  0.51638200  0.62084500  1
  O  O4  1  0.30472400  0.97396900  0.12473400  1
  O  O5  1  0.35142800  0.82917100  0.45165000  1
  O  O6  1  0.35047900  0.66805400  0.95219700  1
  O  O7  1  0.64354300  0.15818200  0.54797600  1
loop_
_geom_bond_atom_site_label_1
_geom_bond_atom_site_label_2
_geom_bond_distance
_geom_bond_site_symmetry_2
N0 Zr4 2.127676 1_555
N0 Zr13 2.204924 1_555
N0 Zr1 2.292424 1_465
N0 Zr0 2.293705 1_455
N1 Zr5 2.124302 1_555
N1 Zr14 2.165478 1_555
N1 Zr3 2.268151 1_455
N1 Zr2 2.363091 1_455
N2 Zr12 2.111332 1_455
N2 Zr13 2.190960 1_545
N2 Zr10 2.244767 1_555
N2 Zr8 2.293507 1_545
N3 Zr10 2.116823 1_555
N3 Zr1 2.144351 1_455
N3 Zr4 2.268379 1_555
N3 Zr7 2.307780 1_555
N4 Zr3 2.144521 1_455
N4 Zr11 2.193435 1_555
N4 Zr6 2.220452 1_555
N4 Zr5 2.273855 1_545
N5 Zr13 2.106503 1_655
N5 Zr4 2.142849 1_555
N5 Zr10 2.254119 1_565
N5 Zr8 2.276388 1_555
N6 Zr5 2.136860 1_555
N6 Zr14 2.141478 1_655
N6 Zr11 2.253487 1_555
N6 Zr9 2.255832 1_555
N7 Zr15 2.072687 1_555
N7 Zr7 2.183918 1_554
N7 Zr9 2.227299 1_555
N7 Zr11 2.330638 1_555
N8 Zr7 2.064156 1_555
N8 Zr4 2.187629 1_545
N8 Zr0 2.215185 1_545
N8 Zr1 2.311846 1_555
N9 Zr6 2.047048 1_555
N9 Zr5 2.187269 1_555
N9 Zr2 2.211238 1_555
N9 Zr3 2.316701 1_555
N10 Zr0 2.064708 1_555
N10 Zr1 2.180673 1_555
N10 Zr7 2.209473 1_555
N10 Zr4 2.327308 1_555
N11 Zr2 2.074034 1_555
N11 Zr3 2.184399 1_565
N11 Zr6 2.192293 1_565
N11 Zr5 2.346644 1_555
N12 Zr8 2.106719 1_555
N12 Zr2 2.137462 1_555
N12 Zr12 2.289063 1_555
N12 Zr13 2.340945 1_655
N13 Zr9 2.065947 1_555
N13 Zr0 2.190458 1_554
N13 Zr15 2.210567 1_565
N13 Zr14 2.350224 1_655
N14 Zr3 2.130159 1_555
N14 Zr11 2.140480 1_555
N14 Zr15 2.266280 1_555
N14 Zr14 2.287604 1_645
N15 Zr1 2.121222 1_555
N15 Zr10 2.189719 1_555
N15 Zr12 2.226293 1_555
N15 Zr13 2.336680 1_655
O0 Zr15 2.129738 1_456
O0 Zr7 2.137803 1_555
O0 Zr0 2.358423 1_445
O0 Zr1 2.501700 1_455
O1 Zr6 2.144895 1_555
O1 Zr12 2.171393 1_455
O1 Zr2 2.360134 1_455
O1 Zr3 2.451864 1_455
O2 Zr15 2.172216 1_455
O2 Zr14 2.209037 1_555
O2 Zr11 2.316580 1_555
O2 Zr9 2.412668 1_555
O3 Zr8 2.110267 1_555
O3 Zr10 2.208966 1_555
O3 Zr12 2.319454 1_455
O3 Zr13 2.400062 1_555
O4 Zr9 2.177715 1_555
O4 Zr11 2.220522 1_565
O4 Zr14 2.297862 1_555
O4 Zr15 2.426376 1_465
O5 Zr8 2.140973 1_555
O5 Zr2 2.155058 1_455
O5 Zr6 2.381550 1_565
O5 Zr5 2.425528 1_555
O6 Zr9 2.141745 1_556
O6 Zr0 2.147274 1_455
O6 Zr7 2.370510 1_555
O6 Zr4 2.448864 1_555
O7 Zr12 2.093880 1_555
O7 Zr6 2.205980 1_555
O7 Zr8 2.263206 1_545
O7 Zr10 2.511510 1_555
