# generated using pymatgen
data_Li3MgPCO7
_symmetry_space_group_name_H-M   'P 1'
_cell_length_a   6.47029600
_cell_length_b   4.95614400
_cell_length_c   8.39248735
_cell_angle_alpha   86.86917650
_cell_angle_beta   90.00000000
_cell_angle_gamma   90.00000000
_symmetry_Int_Tables_number   1
_chemical_formula_structural   Li3MgPCO7
_chemical_formula_sum   'Li6 Mg2 P2 C2 O14'
_cell_volume   268.72623205
_cell_formula_units_Z   2
loop_
 _symmetry_equiv_pos_site_id
 _symmetry_equiv_pos_as_xyz
  1  'x, y, z'
loop_
 _atom_site_type_symbol
 _atom_site_label
 _atom_site_symmetry_multiplicity
 _atom_site_fract_x
 _atom_site_fract_y
 _atom_site_fract_z
 _atom_site_occupancy
  Li  Li0  1  0.75000000  0.25560500  0.91094000  1
  Li  Li1  1  0.98097300  0.76615700  0.73347400  1
  Li  Li2  1  0.51902700  0.76615700  0.73347400  1
  Li  Li3  1  0.48097300  0.23384300  0.26652600  1
  Li  Li4  1  0.01902700  0.23384300  0.26652600  1
  Li  Li5  1  0.25000000  0.74439500  0.08906000  1
  Mg  Mg0  1  0.25000000  0.21103700  0.65559000  1
  Mg  Mg1  1  0.75000000  0.78896300  0.34441000  1
  P  P0  1  0.75000000  0.28727600  0.58610900  1
  P  P1  1  0.25000000  0.71272400  0.41389100  1
  C  C0  1  0.25000000  0.27561400  0.95581900  1
  C  C1  1  0.75000000  0.72438600  0.04418100  1
  O  O0  1  0.25000000  0.02750800  0.91496600  1
  O  O1  1  0.75000000  0.66452700  0.89447000  1
  O  O2  1  0.25000000  0.47008400  0.84564700  1
  O  O3  1  0.93869300  0.18704100  0.68739100  1
  O  O4  1  0.56130700  0.18704100  0.68739100  1
  O  O5  1  0.75000000  0.60203800  0.56695900  1
  O  O6  1  0.25000000  0.82306000  0.58315000  1
  O  O7  1  0.75000000  0.17694000  0.41685000  1
  O  O8  1  0.25000000  0.39796200  0.43304100  1
  O  O9  1  0.43869300  0.81295900  0.31260900  1
  O  O10  1  0.06130700  0.81295900  0.31260900  1
  O  O11  1  0.75000000  0.52991600  0.15435300  1
  O  O12  1  0.25000000  0.33547300  0.10553000  1
  O  O13  1  0.75000000  0.97249200  0.08503400  1
loop_
_geom_bond_atom_site_label_1
_geom_bond_atom_site_label_2
_geom_bond_distance
_geom_bond_site_symmetry_2
Li0 O13 1.969682 1_546
Li0 O1 2.023839 1_555
Li0 O4 2.279381 1_555
Li0 O3 2.279381 1_555
Li0 O11 2.514930 1_556
Li1 O1 2.058741 1_555
Li1 O3 2.118378 1_565
Li1 O6 2.159229 1_655
Li1 O5 2.229829 1_555
Li1 O2 2.432806 1_655
Li2 O1 2.058741 1_555
Li2 O4 2.118378 1_565
Li2 O6 2.159229 1_555
Li2 O5 2.229829 1_555
Li2 O2 2.432806 1_555
Li3 O12 2.058741 1_555
Li3 O9 2.118378 1_545
Li3 O7 2.159229 1_555
Li3 O8 2.229829 1_555
Li3 O11 2.432806 1_555
Li4 O12 2.058741 1_555
Li4 O10 2.118378 1_545
Li4 O7 2.159229 1_455
Li4 O8 2.229829 1_555
Li4 O11 2.432806 1_455
Li5 O0 1.969682 1_564
Li5 O12 2.023839 1_555
Li5 O10 2.279381 1_555
Li5 O9 2.279381 1_555
Li5 O2 2.514930 1_554
Mg0 O3 2.034479 1_455
Mg0 O4 2.034479 1_555
Mg0 O8 2.039047 1_555
Mg0 O6 2.048103 1_545
Mg0 O2 2.101478 1_555
Mg0 O0 2.312917 1_555
Mg1 O9 2.034479 1_555
Mg1 O10 2.034479 1_655
Mg1 O5 2.039047 1_555
Mg1 O7 2.048103 1_565
Mg1 O11 2.101478 1_555
Mg1 O13 2.312917 1_555
C0 O0 1.294465 1_555
C0 O2 1.298663 1_555
C0 O12 1.306671 1_556
C1 O13 1.294465 1_555
C1 O11 1.298663 1_555
C1 O1 1.306671 1_554
O3 P0 1.553632 1_555
O4 P0 1.553632 1_555
O5 P0 1.559507 1_555
O6 P1 1.549747 1_555
O7 P0 1.549747 1_555
O8 P1 1.559507 1_555
O9 P1 1.553632 1_555
O10 P1 1.553632 1_555
