# generated using pymatgen
data_Na3GeH11O9
_symmetry_space_group_name_H-M   'P 1'
_cell_length_a   11.16919200
_cell_length_b   11.99340800
_cell_length_c   13.20229900
_cell_angle_alpha   90.00000000
_cell_angle_beta   90.00000000
_cell_angle_gamma   90.00000000
_symmetry_Int_Tables_number   1
_chemical_formula_structural   Na3GeH11O9
_chemical_formula_sum   'Na24 Ge8 H88 O72'
_cell_volume   1768.53609866
_cell_formula_units_Z   8
loop_
 _symmetry_equiv_pos_site_id
 _symmetry_equiv_pos_as_xyz
  1  'x, y, z'
loop_
 _atom_site_type_symbol
 _atom_site_label
 _atom_site_symmetry_multiplicity
 _atom_site_fract_x
 _atom_site_fract_y
 _atom_site_fract_z
 _atom_site_occupancy
  Na  Na0  1  0.63327400  0.82636300  0.12856800  1
  Na  Na1  1  0.86672600  0.32636300  0.87143200  1
  Na  Na2  1  0.13327400  0.17363700  0.37143200  1
  Na  Na3  1  0.36672600  0.67363700  0.62856800  1
  Na  Na4  1  0.36672600  0.17363700  0.87143200  1
  Na  Na5  1  0.13327400  0.67363700  0.12856800  1
  Na  Na6  1  0.86672600  0.82636300  0.62856800  1
  Na  Na7  1  0.63327400  0.32636300  0.37143200  1
  Na  Na8  1  0.60714900  0.68218900  0.91691900  1
  Na  Na9  1  0.89285100  0.18218900  0.08308100  1
  Na  Na10  1  0.10714900  0.31781100  0.58308100  1
  Na  Na11  1  0.39285100  0.81781100  0.41691900  1
  Na  Na12  1  0.39285100  0.31781100  0.08308100  1
  Na  Na13  1  0.10714900  0.81781100  0.91691900  1
  Na  Na14  1  0.89285100  0.68218900  0.41691900  1
  Na  Na15  1  0.60714900  0.18218900  0.58308100  1
  Na  Na16  1  0.37550600  0.83648300  0.82177700  1
  Na  Na17  1  0.12449400  0.33648300  0.17822300  1
  Na  Na18  1  0.87550600  0.16351700  0.67822300  1
  Na  Na19  1  0.62449400  0.66351700  0.32177700  1
  Na  Na20  1  0.62449400  0.16351700  0.17822300  1
  Na  Na21  1  0.87550600  0.66351700  0.82177700  1
  Na  Na22  1  0.12449400  0.83648300  0.32177700  1
  Na  Na23  1  0.37550600  0.33648300  0.67822300  1
  Ge  Ge0  1  0.62867900  0.97878000  0.86917900  1
  Ge  Ge1  1  0.87132100  0.47878000  0.13082100  1
  Ge  Ge2  1  0.12867900  0.02122000  0.63082100  1
  Ge  Ge3  1  0.37132100  0.52122000  0.36917900  1
  Ge  Ge4  1  0.37132100  0.02122000  0.13082100  1
  Ge  Ge5  1  0.12867900  0.52122000  0.86917900  1
  Ge  Ge6  1  0.87132100  0.97878000  0.36917900  1
  Ge  Ge7  1  0.62867900  0.47878000  0.63082100  1
  H  H0  1  0.49668000  0.88764200  0.99518500  1
  H  H1  1  0.00332000  0.38764200  0.00481500  1
  H  H2  1  0.99668000  0.11235800  0.50481500  1
  H  H3  1  0.50332000  0.61235800  0.49518500  1
  H  H4  1  0.50332000  0.11235800  0.00481500  1
  H  H5  1  0.99668000  0.61235800  0.99518500  1
  H  H6  1  0.00332000  0.88764200  0.49518500  1
  H  H7  1  0.49668000  0.38764200  0.50481500  1
  H  H8  1  0.50699100  0.91985500  0.27629100  1
  H  H9  1  0.99300900  0.41985500  0.72370900  1
  H  H10  1  0.00699100  0.08014500  0.22370900  1
  H  H11  1  0.49300900  0.58014500  0.77629100  1
  H  H12  1  0.49300900  0.08014500  0.72370900  1
  H  H13  1  0.00699100  0.58014500  0.27629100  1
  H  H14  1  0.99300900  0.91985500  0.77629100  1
  H  H15  1  0.50699100  0.41985500  0.22370900  1
  H  H16  1  0.62639000  0.90319100  0.34325300  1
  H  H17  1  0.87361000  0.40319100  0.65674700  1
  H  H18  1  0.12639000  0.09680900  0.15674700  1
  H  H19  1  0.37361000  0.59680900  0.84325300  1
  H  H20  1  0.37361000  0.09680900  0.65674700  1
  H  H21  1  0.12639000  0.59680900  0.34325300  1
  H  H22  1  0.87361000  0.90319100  0.84325300  1
  H  H23  1  0.62639000  0.40319100  0.15674700  1
  H  H24  1  0.64933800  0.69135800  0.69210600  1
  H  H25  1  0.85066200  0.19135800  0.30789400  1
  H  H26  1  0.14933800  0.30864200  0.80789400  1
  H  H27  1  0.35066200  0.80864200  0.19210600  1
  H  H28  1  0.35066200  0.30864200  0.30789400  1
  H  H29  1  0.14933800  0.80864200  0.69210600  1
  H  H30  1  0.85066200  0.69135800  0.19210600  1
  H  H31  1  0.64933800  0.19135800  0.80789400  1
  H  H32  1  0.66352600  0.81321400  0.74109300  1
  H  H33  1  0.83647400  0.31321400  0.25890700  1
  H  H34  1  0.16352600  0.18678600  0.75890700  1
  H  H35  1  0.33647400  0.68678600  0.24109300  1
  H  H36  1  0.33647400  0.18678600  0.25890700  1
  H  H37  1  0.16352600  0.68678600  0.74109300  1
  H  H38  1  0.83647400  0.81321400  0.24109300  1
  H  H39  1  0.66352600  0.31321400  0.75890700  1
  H  H40  1  0.69870500  0.82743800  0.47179500  1
  H  H41  1  0.80129500  0.32743800  0.52820500  1
  H  H42  1  0.19870500  0.17256200  0.02820500  1
  H  H43  1  0.30129500  0.67256200  0.97179500  1
  H  H44  1  0.30129500  0.17256200  0.52820500  1
  H  H45  1  0.19870500  0.67256200  0.47179500  1
  H  H46  1  0.80129500  0.82743800  0.97179500  1
  H  H47  1  0.69870500  0.32743800  0.02820500  1
  H  H48  1  0.65971800  0.71089900  0.53297800  1
  H  H49  1  0.84028200  0.21089900  0.46702200  1
  H  H50  1  0.15971800  0.28910100  0.96702200  1
  H  H51  1  0.34028200  0.78910100  0.03297800  1
  H  H52  1  0.34028200  0.28910100  0.46702200  1
  H  H53  1  0.15971800  0.78910100  0.53297800  1
  H  H54  1  0.84028200  0.71089900  0.03297800  1
  H  H55  1  0.65971800  0.21089900  0.96702200  1
  H  H56  1  0.76257900  0.99765400  0.03944400  1
  H  H57  1  0.73742100  0.49765400  0.96055600  1
  H  H58  1  0.26257900  0.00234600  0.46055600  1
  H  H59  1  0.23742100  0.50234600  0.53944400  1
  H  H60  1  0.23742100  0.00234600  0.96055600  1
  H  H61  1  0.26257900  0.50234600  0.03944400  1
  H  H62  1  0.73742100  0.99765400  0.53944400  1
  H  H63  1  0.76257900  0.49765400  0.46055600  1
  H  H64  1  0.80513300  0.98423200  0.16034200  1
  H  H65  1  0.69486700  0.48423200  0.83965800  1
  H  H66  1  0.30513300  0.01576800  0.33965800  1
  H  H67  1  0.19486700  0.51576800  0.66034200  1
  H  H68  1  0.19486700  0.01576800  0.83965800  1
  H  H69  1  0.30513300  0.51576800  0.16034200  1
  H  H70  1  0.69486700  0.98423200  0.66034200  1
  H  H71  1  0.80513300  0.48423200  0.33965800  1
  H  H72  1  0.37523600  0.92326900  0.60052800  1
  H  H73  1  0.12476400  0.42326900  0.39947200  1
  H  H74  1  0.87523600  0.07673100  0.89947200  1
  H  H75  1  0.62476400  0.57673100  0.10052800  1
  H  H76  1  0.62476400  0.07673100  0.39947200  1
  H  H77  1  0.87523600  0.57673100  0.60052800  1
  H  H78  1  0.12476400  0.92326900  0.10052800  1
  H  H79  1  0.37523600  0.42326900  0.89947200  1
  H  H80  1  0.50178900  0.88708900  0.64572800  1
  H  H81  1  0.99821100  0.38708900  0.35427200  1
  H  H82  1  0.00178900  0.11291100  0.85427200  1
  H  H83  1  0.49821100  0.61291100  0.14572800  1
  H  H84  1  0.49821100  0.11291100  0.35427200  1
  H  H85  1  0.00178900  0.61291100  0.64572800  1
  H  H86  1  0.99821100  0.88708900  0.14572800  1
  H  H87  1  0.50178900  0.38708900  0.85427200  1
  O  O0  1  0.54160800  0.86847900  0.93021100  1
  O  O1  1  0.95839200  0.36847900  0.06978900  1
  O  O2  1  0.04160800  0.13152100  0.56978900  1
  O  O3  1  0.45839200  0.63152100  0.43021100  1
  O  O4  1  0.45839200  0.13152100  0.06978900  1
  O  O5  1  0.04160800  0.63152100  0.93021100  1
  O  O6  1  0.95839200  0.86847900  0.43021100  1
  O  O7  1  0.54160800  0.36847900  0.56978900  1
  O  O8  1  0.77932900  0.96582500  0.91102500  1
  O  O9  1  0.72067100  0.46582500  0.08897500  1
  O  O10  1  0.27932900  0.03417500  0.58897500  1
  O  O11  1  0.22067100  0.53417500  0.41102500  1
  O  O12  1  0.22067100  0.03417500  0.08897500  1
  O  O13  1  0.27932900  0.53417500  0.91102500  1
  O  O14  1  0.72067100  0.96582500  0.41102500  1
  O  O15  1  0.77932900  0.46582500  0.58897500  1
  O  O16  1  0.57103900  0.11183400  0.89747900  1
  O  O17  1  0.92896100  0.61183400  0.10252100  1
  O  O18  1  0.07103900  0.88816600  0.60252100  1
  O  O19  1  0.42896100  0.38816600  0.39747900  1
  O  O20  1  0.42896100  0.88816600  0.10252100  1
  O  O21  1  0.07103900  0.38816600  0.89747900  1
  O  O22  1  0.92896100  0.11183400  0.39747900  1
  O  O23  1  0.57103900  0.61183400  0.60252100  1
  O  O24  1  0.60321100  0.94345800  0.74034700  1
  O  O25  1  0.89678900  0.44345800  0.25965300  1
  O  O26  1  0.10321100  0.05654200  0.75965300  1
  O  O27  1  0.39678900  0.55654200  0.24034700  1
  O  O28  1  0.39678900  0.05654200  0.25965300  1
  O  O29  1  0.10321100  0.55654200  0.74034700  1
  O  O30  1  0.89678900  0.94345800  0.24034700  1
  O  O31  1  0.60321100  0.44345800  0.75965300  1
  O  O32  1  0.55892400  0.86168000  0.30592600  1
  O  O33  1  0.94107600  0.36168000  0.69407400  1
  O  O34  1  0.05892400  0.13832000  0.19407400  1
  O  O35  1  0.44107600  0.63832000  0.80592600  1
  O  O36  1  0.44107600  0.13832000  0.69407400  1
  O  O37  1  0.05892400  0.63832000  0.30592600  1
  O  O38  1  0.94107600  0.86168000  0.80592600  1
  O  O39  1  0.55892400  0.36168000  0.19407400  1
  O  O40  1  0.69946300  0.73591000  0.74096200  1
  O  O41  1  0.80053700  0.23591000  0.25903800  1
  O  O42  1  0.19946300  0.26409000  0.75903800  1
  O  O43  1  0.30053700  0.76409000  0.24096200  1
  O  O44  1  0.30053700  0.26409000  0.25903800  1
  O  O45  1  0.19946300  0.76409000  0.74096200  1
  O  O46  1  0.80053700  0.73591000  0.24096200  1
  O  O47  1  0.69946300  0.23591000  0.75903800  1
  O  O48  1  0.72153700  0.75055000  0.49185100  1
  O  O49  1  0.77846300  0.25055000  0.50814900  1
  O  O50  1  0.22153700  0.24945000  0.00814900  1
  O  O51  1  0.27846300  0.74945000  0.99185100  1
  O  O52  1  0.27846300  0.24945000  0.50814900  1
  O  O53  1  0.22153700  0.74945000  0.49185100  1
  O  O54  1  0.77846300  0.75055000  0.99185100  1
  O  O55  1  0.72153700  0.25055000  0.00814900  1
  O  O56  1  0.74041400  0.01381100  0.11162900  1
  O  O57  1  0.75958600  0.51381100  0.88837100  1
  O  O58  1  0.24041400  0.98618900  0.38837100  1
  O  O59  1  0.25958600  0.48618900  0.61162900  1
  O  O60  1  0.25958600  0.98618900  0.88837100  1
  O  O61  1  0.24041400  0.48618900  0.11162900  1
  O  O62  1  0.75958600  0.01381100  0.61162900  1
  O  O63  1  0.74041400  0.51381100  0.38837100  1
  O  O64  1  0.43343900  0.85927600  0.60407600  1
  O  O65  1  0.06656100  0.35927600  0.39592400  1
  O  O66  1  0.93343900  0.14072400  0.89592400  1
  O  O67  1  0.56656100  0.64072400  0.10407600  1
  O  O68  1  0.56656100  0.14072400  0.39592400  1
  O  O69  1  0.93343900  0.64072400  0.60407600  1
  O  O70  1  0.06656100  0.85927600  0.10407600  1
  O  O71  1  0.43343900  0.35927600  0.89592400  1
loop_
_geom_bond_atom_site_label_1
_geom_bond_atom_site_label_2
_geom_bond_distance
_geom_bond_site_symmetry_2
Na0 O67 2.369985 1_555
Na0 O20 2.423891 1_555
Na0 O32 2.520279 1_555
Na0 O56 2.556591 1_565
Na0 O54 2.591221 1_554
Na0 O46 2.620851 1_555
Na1 O66 2.369985 1_555
Na1 O21 2.423891 1_655
Na1 O33 2.520279 1_555
Na1 O57 2.556591 1_555
Na1 O55 2.591221 1_556
Na1 O47 2.620851 1_555
Na2 O65 2.369985 1_555
Na2 O22 2.423891 1_455
Na2 O34 2.520279 1_555
Na2 O58 2.556591 1_545
Na2 O52 2.591221 1_555
Na2 O44 2.620851 1_555
Na3 O64 2.369985 1_555
Na3 O23 2.423891 1_555
Na3 O35 2.520279 1_555
Na3 O59 2.556591 1_555
Na3 O53 2.591221 1_555
Na3 O45 2.620851 1_555
Na4 O71 2.369985 1_555
Na4 O16 2.423891 1_555
Na4 O36 2.520279 1_555
Na4 O60 2.556591 1_545
Na4 O50 2.591221 1_556
Na4 O42 2.620851 1_555
Na5 O70 2.369985 1_555
Na5 O17 2.423891 1_455
Na5 O37 2.520279 1_555
Na5 O61 2.556591 1_555
Na5 O51 2.591221 1_554
Na5 O43 2.620851 1_555
Na6 O69 2.369985 1_555
Na6 O18 2.423891 1_655
Na6 O38 2.520279 1_555
Na6 O62 2.556591 1_565
Na6 O48 2.591221 1_555
Na6 O40 2.620851 1_555
Na7 O68 2.369985 1_555
Na7 O19 2.423891 1_555
Na7 O39 2.520279 1_555
Na7 O63 2.556591 1_555
Na7 O49 2.591221 1_555
Na7 O41 2.620851 1_555
Na8 O54 2.304803 1_555
Na8 O0 2.357660 1_555
Na8 O35 2.421728 1_555
Na8 O67 2.560896 1_556
Na8 O40 2.621971 1_555
Na9 O55 2.304803 1_555
Na9 O1 2.357660 1_555
Na9 O34 2.421728 1_655
Na9 O66 2.560896 1_554
Na9 O41 2.621971 1_555
Na10 O52 2.304803 1_555
Na10 O2 2.357660 1_555
Na10 O33 2.421728 1_455
Na10 O65 2.560896 1_555
Na10 O42 2.621971 1_555
Na11 O53 2.304803 1_555
Na11 O3 2.357660 1_555
Na11 O32 2.421728 1_555
Na11 O64 2.560896 1_555
Na11 O43 2.621971 1_555
Na12 O50 2.304803 1_555
Na12 O4 2.357660 1_555
Na12 O39 2.421728 1_555
Na12 O71 2.560896 1_554
Na12 O44 2.621971 1_555
Na13 O51 2.304803 1_555
Na13 O5 2.357660 1_555
Na13 O38 2.421728 1_455
Na13 O70 2.560896 1_556
Na13 O45 2.621971 1_555
Na14 O48 2.304803 1_555
Na14 O6 2.357660 1_555
Na14 O37 2.421728 1_655
Na14 O69 2.560896 1_555
Na14 O46 2.621971 1_555
Na15 O49 2.304803 1_555
Na15 O7 2.357660 1_555
Na15 O36 2.421728 1_555
Na15 O68 2.560896 1_555
Na15 O47 2.621971 1_555
Na16 O0 2.374560 1_555
Na16 O60 2.381823 1_555
Na16 O45 2.399662 1_555
Na16 O35 2.495719 1_555
Na16 O51 2.702973 1_555
Na17 O1 2.374560 1_455
Na17 O61 2.381823 1_555
Na17 O44 2.399662 1_555
Na17 O34 2.495719 1_555
Na17 O50 2.702973 1_555
Na18 O2 2.374560 1_655
Na18 O62 2.381823 1_555
Na18 O47 2.399662 1_555
Na18 O33 2.495719 1_555
Na18 O49 2.702973 1_555
Na19 O3 2.374560 1_555
Na19 O63 2.381823 1_555
Na19 O46 2.399662 1_555
Na19 O32 2.495719 1_555
Na19 O48 2.702973 1_555
Na20 O4 2.374560 1_555
Na20 O56 2.381823 1_555
Na20 O41 2.399662 1_555
Na20 O39 2.495719 1_555
Na20 O55 2.702973 1_555
Na21 O5 2.374560 1_655
Na21 O57 2.381823 1_555
Na21 O40 2.399662 1_555
Na21 O38 2.495719 1_555
Na21 O54 2.702973 1_555
Na22 O6 2.374560 1_455
Na22 O58 2.381823 1_555
Na22 O43 2.399662 1_555
Na22 O37 2.495719 1_555
Na22 O53 2.702973 1_555
Na23 O7 2.374560 1_555
Na23 O59 2.381823 1_555
Na23 O42 2.399662 1_555
Na23 O36 2.495719 1_555
Na23 O52 2.702973 1_555
Ge0 O16 1.760838 1_565
Ge0 O24 1.775772 1_555
Ge0 O8 1.777816 1_555
Ge0 O0 1.828950 1_555
Ge1 O17 1.760838 1_555
Ge1 O25 1.775772 1_555
Ge1 O9 1.777816 1_555
Ge1 O1 1.828950 1_555
Ge2 O18 1.760838 1_545
Ge2 O26 1.775772 1_555
Ge2 O10 1.777816 1_555
Ge2 O2 1.828950 1_555
Ge3 O19 1.760838 1_555
Ge3 O27 1.775772 1_555
Ge3 O11 1.777816 1_555
Ge3 O3 1.828950 1_555
Ge4 O20 1.760838 1_545
Ge4 O28 1.775772 1_555
Ge4 O12 1.777816 1_555
Ge4 O4 1.828950 1_555
Ge5 O21 1.760838 1_555
Ge5 O29 1.775772 1_555
Ge5 O13 1.777816 1_555
Ge5 O5 1.828950 1_555
Ge6 O22 1.760838 1_565
Ge6 O30 1.775772 1_555
Ge6 O14 1.777816 1_555
Ge6 O6 1.828950 1_555
Ge7 O23 1.760838 1_555
Ge7 O31 1.775772 1_555
Ge7 O15 1.777816 1_555
Ge7 O7 1.828950 1_555
H0 O0 1.020032 1_555
H0 O20 1.606316 1_556
H0 Na0 2.443097 1_556
H1 O1 1.020032 1_455
H1 O21 1.606316 1_554
H1 Na1 2.443097 1_454
H2 O2 1.020032 1_655
H2 O22 1.606316 1_555
H2 Na2 2.443097 1_655
H3 O3 1.020032 1_555
H3 O23 1.606316 1_555
H3 Na3 2.443097 1_555
H4 O4 1.020032 1_555
H4 O16 1.606316 1_554
H4 Na4 2.443097 1_554
H5 O5 1.020032 1_655
H5 O17 1.606316 1_556
H5 Na5 2.443097 1_656
H6 O6 1.020032 1_455
H6 O18 1.606316 1_555
H6 Na6 2.443097 1_455
H7 O7 1.020032 1_555
H7 O19 1.606316 1_555
H7 Na7 2.443097 1_555
H8 O32 0.988100 1_555
H9 O33 0.988100 1_555
H10 O34 0.988100 1_555
H11 O35 0.988100 1_555
H12 O36 0.988100 1_555
H13 O37 0.988100 1_555
H14 O38 0.988100 1_555
H15 O39 0.988100 1_555
H16 O32 1.028854 1_555
H16 O14 1.572820 1_555
H17 O33 1.028854 1_555
H17 O15 1.572820 1_555
H18 O34 1.028854 1_555
H18 O12 1.572820 1_555
H19 O35 1.028854 1_555
H19 O13 1.572820 1_555
H20 O36 1.028854 1_555
H20 O10 1.572820 1_555
H21 O37 1.028854 1_555
H21 O11 1.572820 1_555
H22 O38 1.028854 1_555
H22 O8 1.572820 1_555
H23 O39 1.028854 1_555
H23 O9 1.572820 1_555
H24 O40 1.007466 1_555
H25 O41 1.007466 1_555
H26 O42 1.007466 1_555
H27 O43 1.007466 1_555
H28 O44 1.007466 1_555
H29 O45 1.007466 1_555
H30 O46 1.007466 1_555
H31 O47 1.007466 1_555
H32 O40 1.010297 1_555
H32 O24 1.701173 1_555
H33 O41 1.010297 1_555
H33 O25 1.701173 1_555
H34 O42 1.010297 1_555
H34 O26 1.701173 1_555
H35 O43 1.010297 1_555
H35 O27 1.701173 1_555
H36 O44 1.010297 1_555
H36 O28 1.701173 1_555
H37 O45 1.010297 1_555
H37 O29 1.701173 1_555
H38 O46 1.010297 1_555
H38 O30 1.701173 1_555
H39 O47 1.010297 1_555
H39 O31 1.701173 1_555
H40 O48 0.992725 1_555
H41 O49 0.992725 1_555
H42 O50 0.992725 1_555
H43 O51 0.992725 1_555
H44 O52 0.992725 1_555
H45 O53 0.992725 1_555
H46 O54 0.992725 1_555
H47 O55 0.992725 1_555
H48 O48 0.998855 1_555
H49 O49 0.998855 1_555
H50 O50 0.998855 1_556
H51 O51 0.998855 1_554
H52 O52 0.998855 1_555
H53 O53 0.998855 1_555
H54 O54 0.998855 1_554
H55 O55 0.998855 1_556
H56 O56 1.003525 1_565
H57 O57 1.003525 1_555
H58 O58 1.003525 1_545
H59 O59 1.003525 1_555
H60 O60 1.003525 1_545
H61 O61 1.003525 1_555
H62 O62 1.003525 1_565
H63 O63 1.003525 1_555
H64 O56 1.030525 1_565
H64 O30 1.550101 1_555
H65 O57 1.030525 1_555
H65 O31 1.550101 1_555
H66 O58 1.030525 1_545
H66 O28 1.550101 1_555
H67 O59 1.030525 1_555
H67 O29 1.550101 1_555
H68 O60 1.030525 1_545
H68 O26 1.550101 1_555
H69 O61 1.030525 1_555
H69 O27 1.550101 1_555
H70 O62 1.030525 1_565
H70 O24 1.550101 1_555
H71 O63 1.030525 1_555
H71 O25 1.550101 1_555
H72 O64 1.006899 1_555
H73 O65 1.006899 1_555
H74 O66 1.006899 1_555
H75 O67 1.006899 1_555
H76 O68 1.006899 1_555
H77 O69 1.006899 1_555
H78 O70 1.006899 1_555
H79 O71 1.006899 1_555
H80 O64 0.998231 1_555
H81 O65 0.998231 1_655
H82 O66 0.998231 1_455
H83 O67 0.998231 1_555
H84 O68 0.998231 1_555
H85 O69 0.998231 1_455
H86 O70 0.998231 1_655
H87 O71 0.998231 1_555
