# generated using pymatgen
data_LiMn2P2(O4F)2
_symmetry_space_group_name_H-M   'P 1'
_cell_length_a   5.07142300
_cell_length_b   12.80474539
_cell_length_c   12.83628942
_cell_angle_alpha   60.30821803
_cell_angle_beta   89.88645543
_cell_angle_gamma   89.88818033
_symmetry_Int_Tables_number   1
_chemical_formula_structural   LiMn2P2(O4F)2
_chemical_formula_sum   'Li4 Mn8 P8 O32 F8'
_cell_volume   724.11953968
_cell_formula_units_Z   4
loop_
 _symmetry_equiv_pos_site_id
 _symmetry_equiv_pos_as_xyz
  1  'x, y, z'
loop_
 _atom_site_type_symbol
 _atom_site_label
 _atom_site_symmetry_multiplicity
 _atom_site_fract_x
 _atom_site_fract_y
 _atom_site_fract_z
 _atom_site_occupancy
  Li  Li0  1  0.77467600  0.57423000  0.32862100  1
  Li  Li1  1  0.27275100  0.17671500  0.42253000  1
  Li  Li2  1  0.75935300  0.34191000  0.07690600  1
  Li  Li3  1  0.26078500  0.17002800  0.16098700  1
  Mn  Mn0  1  0.73972300  0.81583200  0.11723900  1
  Mn  Mn1  1  0.77959100  0.31241500  0.62203200  1
  Mn  Mn2  1  0.21731000  0.39614000  0.18062800  1
  Mn  Mn3  1  0.72112600  0.10095900  0.32178000  1
  Mn  Mn4  1  0.28208700  0.88133300  0.68638600  1
  Mn  Mn5  1  0.78002000  0.62542500  0.81060700  1
  Mn  Mn6  1  0.23324600  0.68604000  0.38319200  1
  Mn  Mn7  1  0.27473000  0.19038200  0.87712300  1
  P  P0  1  0.27649000  0.41493500  0.43110000  1
  P  P1  1  0.71629200  0.58143000  0.07788100  1
  P  P2  1  0.23629500  0.91305500  0.93191500  1
  P  P3  1  0.77711500  0.06921900  0.58725400  1
  P  P4  1  0.22123700  0.91834700  0.42069800  1
  P  P5  1  0.77400900  0.09138800  0.06394600  1
  P  P6  1  0.27308100  0.42711600  0.91677000  1
  P  P7  1  0.72764600  0.58615500  0.57160600  1
  O  O0  1  0.40744400  0.83111600  0.04230900  1
  O  O1  1  0.78897900  0.65551100  0.13996300  1
  O  O2  1  0.15886900  0.54499000  0.36599300  1
  O  O3  1  0.57307300  0.41893900  0.45435600  1
  O  O4  1  0.12427900  0.33252500  0.54540100  1
  O  O5  1  0.42274600  0.54898800  0.09210000  1
  O  O6  1  0.86683500  0.45954000  0.15041200  1
  O  O7  1  0.23332700  0.36105000  0.34639900  1
  O  O8  1  0.73804700  0.16054000  0.62907900  1
  O  O9  1  0.32355300  0.04515100  0.87254800  1
  O  O10  1  0.94304400  0.89902100  0.97413100  1
  O  O11  1  0.67102300  0.12984400  0.45537900  1
  O  O12  1  0.07801900  0.03595800  0.58838600  1
  O  O13  1  0.16173300  0.35545200  0.05047800  1
  O  O14  1  0.61539300  0.95718500  0.66784300  1
  O  O15  1  0.25262600  0.86976600  0.84062900  1
  O  O16  1  0.71467300  0.14050600  0.15178500  1
  O  O17  1  0.36747800  0.04069400  0.33741400  1
  O  O18  1  0.80840400  0.64908400  0.94731700  1
  O  O19  1  0.92898400  0.94638800  0.40786300  1
  O  O20  1  0.33115500  0.86330100  0.54919400  1
  O  O21  1  0.07579000  0.11329900  0.03293600  1
  O  O22  1  0.69764700  0.95766900  0.12981400  1
  O  O23  1  0.30476000  0.83580000  0.37038900  1
  O  O24  1  0.75445700  0.63446800  0.65774300  1
  O  O25  1  0.11541600  0.54223900  0.84412800  1
  O  O26  1  0.56699800  0.45399300  0.92252000  1
  O  O27  1  0.89328200  0.66365500  0.45636800  1
  O  O28  1  0.43514400  0.59728600  0.52805800  1
  O  O29  1  0.81355700  0.45339400  0.63546700  1
  O  O30  1  0.22122300  0.34407600  0.86399200  1
  O  O31  1  0.60676500  0.17060000  0.95357000  1
  F  F0  1  0.53719800  0.71413500  0.27907300  1
  F  F1  1  0.97275300  0.21681900  0.78789300  1
  F  F2  1  0.50553200  0.28273200  0.21987500  1
  F  F3  1  0.02080300  0.20885000  0.27480000  1
  F  F4  1  0.98083100  0.79107900  0.72024000  1
  F  F5  1  0.46914300  0.72748200  0.76894300  1
  F  F6  1  0.03326900  0.77406800  0.22623300  1
  F  F7  1  0.46501300  0.27142400  0.72757600  1
loop_
_geom_bond_atom_site_label_1
_geom_bond_atom_site_label_2
_geom_bond_distance
_geom_bond_site_symmetry_2
Li0 O2 1.997378 1_655
Li0 O3 2.103862 1_555
Li0 O1 2.110843 1_555
Li0 O27 2.495729 1_555
Li1 O7 2.068841 1_555
Li1 O11 2.089391 1_555
Li1 O12 2.225661 1_555
Li1 O17 2.517522 1_555
Li2 O26 2.030583 1_554
Li2 O13 2.061485 1_655
Li2 O6 2.206642 1_555
Li2 O16 2.274163 1_555
Li3 O17 2.109500 1_555
Li3 O13 2.136229 1_555
Li3 O21 2.302437 1_555
Li3 O16 2.344177 1_555
Mn0 O0 1.903081 1_555
Mn0 O10 1.905427 1_554
Mn0 O22 1.912825 1_555
Mn0 O1 1.940831 1_555
Mn1 O29 1.904706 1_555
Mn1 O8 1.913573 1_555
Mn1 O4 1.957961 1_655
Mn1 O3 2.164474 1_555
Mn2 O6 1.911499 1_455
Mn2 O7 1.946727 1_555
Mn2 O13 2.001662 1_555
Mn2 O5 2.001821 1_555
Mn3 O17 1.924307 1_555
Mn3 O11 1.941281 1_555
Mn3 O16 1.981065 1_555
Mn3 O19 2.019763 1_545
Mn4 O20 1.901932 1_555
Mn4 O14 1.906052 1_555
Mn4 O15 1.916428 1_555
Mn4 O12 2.025679 1_565
Mn5 O24 1.912153 1_555
Mn5 O18 1.928686 1_555
Mn5 O25 1.937705 1_655
Mn5 O26 2.220029 1_555
Mn6 O23 1.877805 1_555
Mn6 O27 1.914620 1_455
Mn6 O28 1.925426 1_555
Mn6 O2 1.962410 1_555
Mn7 O31 1.902952 1_555
Mn7 O9 1.905092 1_555
Mn7 O30 1.909082 1_555
Mn7 O21 2.008123 1_556
O0 P2 1.546173 1_554
O1 P1 1.556331 1_555
O2 P0 1.564252 1_555
O3 P0 1.539901 1_555
O4 P0 1.525441 1_555
O5 P1 1.532423 1_555
O6 P1 1.563427 1_555
O7 P0 1.565507 1_555
O8 P3 1.521665 1_555
O9 P2 1.536948 1_545
O10 P2 1.561757 1_655
O11 P3 1.567732 1_555
O12 P3 1.581686 1_455
O13 P6 1.595179 1_554
O14 P3 1.527034 1_565
O15 P2 1.526454 1_555
O16 P5 1.567765 1_555
O17 P4 1.577798 1_545
O18 P1 1.528944 1_556
O19 P4 1.514294 1_655
O20 P4 1.542234 1_555
O21 P5 1.571016 1_455
O22 P5 1.537435 1_565
O23 P4 1.545015 1_555
O24 P7 1.517326 1_555
O25 P6 1.522653 1_555
O26 P6 1.540556 1_555
O27 P7 1.556476 1_555
O28 P7 1.567419 1_555
O29 P7 1.539382 1_555
O30 P6 1.540842 1_555
O31 P5 1.527512 1_556
F0 Mn6 1.951785 1_555
F0 Li0 1.982454 1_555
F0 Mn0 2.093538 1_555
F1 Mn7 1.841917 1_655
F1 Mn1 2.100619 1_555
F2 Mn2 1.941393 1_555
F2 Li2 2.053262 1_555
F2 Li3 2.299149 1_555
F2 Mn3 2.302947 1_555
F2 Li1 2.549342 1_555
F3 Mn3 1.939389 1_455
F3 Li3 2.138391 1_555
F3 Li1 2.152309 1_555
F3 Mn2 2.310493 1_555
F4 Mn4 1.834485 1_655
F4 Mn5 2.109077 1_555
F5 Mn5 1.944824 1_555
F5 Mn4 1.957655 1_555
F6 Mn0 1.929652 1_455
F6 Mn6 2.027854 1_555
F7 Mn7 1.927743 1_555
F7 Mn1 1.986546 1_555
