# generated using pymatgen
data_Li24Ti11CrO36
_symmetry_space_group_name_H-M   'P 1'
_cell_length_a   8.85234387
_cell_length_b   8.85234387
_cell_length_c   11.81903208
_cell_angle_alpha   60.32025648
_cell_angle_beta   60.32025648
_cell_angle_gamma   59.75347800
_symmetry_Int_Tables_number   1
_chemical_formula_structural   Li24Ti11CrO36
_chemical_formula_sum   'Li24 Ti11 Cr1 O36'
_cell_volume   656.81869871
_cell_formula_units_Z   1
loop_
 _symmetry_equiv_pos_site_id
 _symmetry_equiv_pos_as_xyz
  1  'x, y, z'
loop_
 _atom_site_type_symbol
 _atom_site_label
 _atom_site_symmetry_multiplicity
 _atom_site_fract_x
 _atom_site_fract_y
 _atom_site_fract_z
 _atom_site_occupancy
  Li  Li0  1  0.82960600  0.17185200  0.74895400  1
  Li  Li1  1  0.83332000  0.50011700  0.49992400  1
  Li  Li2  1  0.49928000  0.16839000  0.24875100  1
  Li  Li3  1  0.49439700  0.83766200  0.25008200  1
  Li  Li4  1  0.49972000  0.16752300  0.00047300  1
  Li  Li5  1  0.16233800  0.50560300  0.74991800  1
  Li  Li6  1  0.50480600  0.49431300  0.75100400  1
  Li  Li7  1  0.49984000  0.16691600  0.74988700  1
  Li  Li8  1  0.16664100  0.83335900  0.50000000  1
  Li  Li9  1  0.17261000  0.16138400  0.24993400  1
  Li  Li10  1  0.16547400  0.83432800  0.25084100  1
  Li  Li11  1  0.16262600  0.50375800  0.24962600  1
  Li  Li12  1  0.16567200  0.83452600  0.74915900  1
  Li  Li13  1  0.83898500  0.82950700  0.24927600  1
  Li  Li14  1  0.83308400  0.50016000  0.25011300  1
  Li  Li15  1  0.82814800  0.17039400  0.25104600  1
  Li  Li16  1  0.83247700  0.50028000  0.99952700  1
  Li  Li17  1  0.49624200  0.83737400  0.75037400  1
  Li  Li18  1  0.83861600  0.82739000  0.75006600  1
  Li  Li19  1  0.83161000  0.50072000  0.75124900  1
  Li  Li20  1  0.49988300  0.16668000  0.50007600  1
  Li  Li21  1  0.50568700  0.49519400  0.24899600  1
  Li  Li22  1  0.16677400  0.83322600  0.00000000  1
  Li  Li23  1  0.17049300  0.16101500  0.75072400  1
  Ti  Ti0  1  0.50105500  0.83252700  0.49979800  1
  Ti  Ti1  1  0.49917200  0.50082800  0.50000000  1
  Ti  Ti2  1  0.16609500  0.16766100  0.49979100  1
  Ti  Ti3  1  0.16747300  0.49894500  0.50020200  1
  Ti  Ti4  1  0.16809500  0.49489400  0.00295800  1
  Ti  Ti5  1  0.16641200  0.16596400  0.99982500  1
  Ti  Ti6  1  0.83452200  0.16547800  0.50000000  1
  Ti  Ti7  1  0.83233900  0.83390500  0.50020900  1
  Ti  Ti8  1  0.83403600  0.83358800  0.00017500  1
  Ti  Ti9  1  0.83092200  0.16907800  0.00000000  1
  Ti  Ti10  1  0.50510600  0.83190500  0.99704200  1
  Cr  Cr0  1  0.49574100  0.50425900  0.00000000  1
  O  O0  1  0.66313900  0.32954400  0.61539900  1
  O  O1  1  0.64540000  0.66852500  0.38719300  1
  O  O2  1  0.68796100  0.99796400  0.11287600  1
  O  O3  1  0.35456700  0.66453200  0.61319000  1
  O  O4  1  0.66645300  0.33918400  0.88668500  1
  O  O5  1  0.33147500  0.35460000  0.61280700  1
  O  O6  1  0.33699100  0.00363000  0.38470200  1
  O  O7  1  0.33546800  0.64543300  0.38681000  1
  O  O8  1  0.33054200  0.35325600  0.11297000  1
  O  O9  1  0.32883400  0.99469900  0.11547500  1
  O  O10  1  0.02081800  0.33133500  0.61304500  1
  O  O11  1  0.34062300  0.64345500  0.88849000  1
  O  O12  1  0.99805300  0.02108400  0.61289500  1
  O  O13  1  0.99637000  0.66300900  0.61529800  1
  O  O14  1  0.31220300  0.33535900  0.88701400  1
  O  O15  1  0.00211700  0.31210600  0.38697900  1
  O  O16  1  0.00395400  0.67047400  0.38454100  1
  O  O17  1  0.97891600  0.00194700  0.38710500  1
  O  O18  1  0.02153600  0.33161500  0.11332000  1
  O  O19  1  0.99658400  0.66361300  0.11531800  1
  O  O20  1  0.99653400  0.02229500  0.11321500  1
  O  O21  1  0.68789400  0.99788300  0.61302100  1
  O  O22  1  0.00530100  0.67116600  0.88452500  1
  O  O23  1  0.00203600  0.31203900  0.88712400  1
  O  O24  1  0.66498000  0.68792700  0.61260200  1
  O  O25  1  0.97770500  0.00346600  0.88678500  1
  O  O26  1  0.67045600  0.33686100  0.38460100  1
  O  O27  1  0.66866500  0.97918200  0.38695500  1
  O  O28  1  0.66464100  0.68779700  0.11298600  1
  O  O29  1  0.66081600  0.33354700  0.11331500  1
  O  O30  1  0.66838500  0.97846400  0.88668000  1
  O  O31  1  0.32952600  0.99604600  0.61545900  1
  O  O32  1  0.64674400  0.66945800  0.88703000  1
  O  O33  1  0.31207300  0.33502000  0.38739800  1
  O  O34  1  0.35654500  0.65937700  0.11151000  1
  O  O35  1  0.33638700  0.00341600  0.88468200  1
loop_
_geom_bond_atom_site_label_1
_geom_bond_atom_site_label_2
_geom_bond_distance
_geom_bond_site_symmetry_2
Li0 O25 2.082295 1_555
Li0 O12 2.082440 1_555
Li0 O0 2.158907 1_555
Li0 O4 2.198718 1_555
Li0 O10 2.215325 1_655
Li0 O30 2.240187 1_545
Li1 O24 2.118884 1_555
Li1 O1 2.120023 1_555
Li1 O10 2.120331 1_655
Li1 O15 2.122302 1_655
Li1 O0 2.151041 1_555
Li1 O16 2.152660 1_655
Li2 O29 2.065545 1_555
Li2 O6 2.068122 1_555
Li2 O8 2.189784 1_555
Li2 O33 2.202078 1_555
Li2 O2 2.202089 1_545
Li2 O27 2.215367 1_545
Li3 O28 2.086395 1_555
Li3 O1 2.093029 1_555
Li3 O9 2.162847 1_555
Li3 O6 2.165334 1_565
Li3 O7 2.218935 1_555
Li3 O2 2.235735 1_555
Li4 O8 2.103881 1_555
Li4 O2 2.119534 1_545
Li4 O14 2.123171 1_554
Li4 O30 2.135909 1_544
Li4 O4 2.136907 1_554
Li4 O9 2.170831 1_545
Li5 O14 2.086395 1_555
Li5 O5 2.093029 1_555
Li5 O22 2.162847 1_555
Li5 O13 2.165334 1_455
Li5 O3 2.218935 1_555
Li5 O23 2.235735 1_555
Li6 O11 2.085310 1_555
Li6 O3 2.094802 1_555
Li6 O4 2.148718 1_555
Li6 O0 2.166000 1_555
Li6 O14 2.221214 1_555
Li6 O24 2.235801 1_555
Li7 O0 2.060047 1_555
Li7 O35 2.066423 1_555
Li7 O30 2.198487 1_545
Li7 O5 2.199450 1_555
Li7 O14 2.200274 1_555
Li7 O21 2.201764 1_545
Li8 O17 2.120035 1_465
Li8 O12 2.120035 1_465
Li8 O7 2.123681 1_555
Li8 O3 2.123681 1_555
Li8 O13 2.150295 1_455
Li8 O6 2.150295 1_565
Li9 O18 2.089258 1_555
Li9 O15 2.090977 1_555
Li9 O6 2.156402 1_555
Li9 O9 2.169151 1_545
Li9 O8 2.210936 1_555
Li9 O17 2.231499 1_455
Li10 O9 2.047962 1_555
Li10 O16 2.056069 1_555
Li10 O17 2.187855 1_465
Li10 O7 2.200422 1_555
Li10 O20 2.207450 1_465
Li10 O34 2.258212 1_555
Li11 O8 2.086032 1_555
Li11 O33 2.089660 1_555
Li11 O19 2.161808 1_455
Li11 O16 2.172026 1_555
Li11 O34 2.211272 1_555
Li11 O15 2.224735 1_555
Li12 O22 2.047962 1_555
Li12 O31 2.056069 1_555
Li12 O12 2.187855 1_465
Li12 O3 2.200422 1_555
Li12 O25 2.207450 1_465
Li12 O11 2.258212 1_555
Li13 O2 2.086907 1_555
Li13 O27 2.090363 1_555
Li13 O19 2.158882 1_555
Li13 O16 2.163890 1_655
Li13 O20 2.214215 1_565
Li13 O1 2.240127 1_555
Li14 O26 2.060047 1_555
Li14 O19 2.066423 1_555
Li14 O18 2.198487 1_655
Li14 O1 2.199450 1_555
Li14 O28 2.200274 1_555
Li14 O15 2.201764 1_655
Li15 O20 2.082295 1_555
Li15 O17 2.082440 1_555
Li15 O26 2.158907 1_555
Li15 O29 2.198718 1_555
Li15 O27 2.215325 1_545
Li15 O18 2.240187 1_655
Li16 O32 2.103881 1_555
Li16 O23 2.119534 1_655
Li16 O28 2.123171 1_556
Li16 O18 2.135909 1_656
Li16 O29 2.136907 1_556
Li16 O22 2.170831 1_655
Li17 O32 2.086032 1_555
Li17 O24 2.089660 1_555
Li17 O35 2.161808 1_565
Li17 O31 2.172026 1_555
Li17 O11 2.211272 1_555
Li17 O21 2.224735 1_555
Li18 O30 2.089258 1_555
Li18 O21 2.090977 1_555
Li18 O13 2.156402 1_555
Li18 O22 2.169151 1_655
Li18 O32 2.210936 1_555
Li18 O12 2.231499 1_565
Li19 O4 2.065545 1_555
Li19 O13 2.068122 1_555
Li19 O32 2.189784 1_555
Li19 O24 2.202078 1_555
Li19 O23 2.202089 1_655
Li19 O10 2.215367 1_655
Li20 O33 2.118884 1_555
Li20 O5 2.120023 1_555
Li20 O27 2.120331 1_545
Li20 O21 2.122302 1_545
Li20 O26 2.151041 1_555
Li20 O31 2.152660 1_545
Li21 O34 2.085310 1_555
Li21 O7 2.094802 1_555
Li21 O29 2.148718 1_555
Li21 O26 2.166000 1_555
Li21 O28 2.221214 1_555
Li21 O33 2.235801 1_555
Li22 O34 2.122945 1_555
Li22 O11 2.122945 1_554
Li22 O25 2.131356 1_464
Li22 O20 2.131356 1_465
Li22 O19 2.144923 1_455
Li22 O35 2.144923 1_564
Li23 O23 2.086907 1_555
Li23 O10 2.090363 1_555
Li23 O35 2.158882 1_555
Li23 O31 2.163890 1_545
Li23 O25 2.214215 1_455
Li23 O5 2.240127 1_555
Cr0 O11 1.902687 1_554
Cr0 O34 1.902687 1_555
Cr0 O29 1.980365 1_555
Cr0 O4 1.980365 1_554
Cr0 O32 1.994102 1_554
Cr0 O8 1.994102 1_555
O0 Ti1 1.990329 1_555
O0 Ti6 1.990978 1_555
O1 Ti0 1.967781 1_555
O1 Ti1 1.980849 1_555
O2 Ti8 1.970236 1_555
O2 Ti9 1.983416 1_565
O3 Ti1 1.970668 1_555
O3 Ti0 1.984277 1_555
O4 Ti9 1.976372 1_556
O5 Ti3 1.967781 1_555
O5 Ti1 1.980849 1_555
O6 Ti2 1.988078 1_555
O6 Ti0 1.988434 1_545
O7 Ti1 1.970668 1_555
O7 Ti3 1.984277 1_555
O8 Ti4 1.936845 1_555
O9 Ti5 1.982963 1_564
O9 Ti10 2.010020 1_554
O10 Ti2 1.970685 1_555
O10 Ti3 1.982905 1_555
O11 Ti4 2.026758 1_556
O12 Ti6 1.967119 1_555
O12 Ti2 1.985206 1_655
O13 Ti7 1.988078 1_555
O13 Ti3 1.988434 1_655
O14 Ti4 1.967238 1_556
O14 Ti5 1.989380 1_555
O15 Ti2 1.969334 1_555
O15 Ti6 1.982594 1_455
O16 Ti7 1.989376 1_455
O16 Ti3 1.989810 1_555
O17 Ti6 1.967119 1_555
O17 Ti7 1.985206 1_545
O18 Ti4 1.954501 1_555
O18 Ti5 1.985983 1_554
O19 Ti8 1.979070 1_555
O19 Ti4 1.995597 1_655
O20 Ti5 1.979415 1_654
O20 Ti9 1.982402 1_555
O21 Ti7 1.969334 1_555
O21 Ti6 1.982594 1_565
O22 Ti8 1.982963 1_456
O22 Ti4 2.010020 1_556
O23 Ti5 1.970236 1_555
O23 Ti9 1.983416 1_456
O24 Ti0 1.968838 1_555
O24 Ti7 1.977182 1_555
O25 Ti8 1.979415 1_546
O25 Ti9 1.982402 1_556
O26 Ti1 1.990329 1_555
O26 Ti6 1.990978 1_555
O27 Ti7 1.970685 1_555
O27 Ti0 1.982905 1_555
O28 Ti10 1.967238 1_554
O28 Ti8 1.989380 1_555
O29 Ti9 1.976372 1_555
O30 Ti10 1.954501 1_555
O30 Ti8 1.985983 1_556
O31 Ti2 1.989376 1_565
O31 Ti0 1.989810 1_555
O32 Ti10 1.936845 1_555
O33 Ti3 1.968838 1_555
O33 Ti2 1.977182 1_555
O34 Ti10 2.026758 1_554
O35 Ti5 1.979070 1_555
O35 Ti10 1.995597 1_545
