# generated using pymatgen
data_La4(B2O5)3
_symmetry_space_group_name_H-M   'P 1'
_cell_length_a   6.52669502
_cell_length_b   6.52669502
_cell_length_c   19.83799627
_cell_angle_alpha   82.93915849
_cell_angle_beta   82.93915849
_cell_angle_gamma   40.62843357
_symmetry_Int_Tables_number   1
_chemical_formula_structural   La4(B2O5)3
_chemical_formula_sum   'La8 B12 O30'
_cell_volume   545.51024652
_cell_formula_units_Z   2
loop_
 _symmetry_equiv_pos_site_id
 _symmetry_equiv_pos_as_xyz
  1  'x, y, z'
loop_
 _atom_site_type_symbol
 _atom_site_label
 _atom_site_symmetry_multiplicity
 _atom_site_fract_x
 _atom_site_fract_y
 _atom_site_fract_z
 _atom_site_occupancy
  La  La0  1  0.64353200  0.07511600  0.30421400  1
  La  La1  1  0.66142500  0.08733300  0.09459800  1
  La  La2  1  0.07511600  0.64353200  0.80421400  1
  La  La3  1  0.08733300  0.66142500  0.59459800  1
  La  La4  1  0.91266700  0.33857500  0.40540200  1
  La  La5  1  0.92488400  0.35646800  0.19578600  1
  La  La6  1  0.33857500  0.91266700  0.90540200  1
  La  La7  1  0.35646800  0.92488400  0.69578600  1
  B  B0  1  0.18924200  0.60814100  0.41174800  1
  B  B1  1  0.21308200  0.66164300  0.19458100  1
  B  B2  1  0.62927400  0.02700600  0.47338900  1
  B  B3  1  0.60814100  0.18924200  0.91174800  1
  B  B4  1  0.66164300  0.21308200  0.69458100  1
  B  B5  1  0.02700600  0.62927400  0.97338900  1
  B  B6  1  0.97299400  0.37072600  0.02661100  1
  B  B7  1  0.33835700  0.78691800  0.30541900  1
  B  B8  1  0.39185900  0.81075800  0.08825200  1
  B  B9  1  0.37072600  0.97299400  0.52661100  1
  B  B10  1  0.78691800  0.33835700  0.80541900  1
  B  B11  1  0.81075800  0.39185900  0.58825200  1
  O  O0  1  0.17701500  0.80900800  0.12388100  1
  O  O1  1  0.51957700  0.30037700  0.43380300  1
  O  O2  1  0.53204300  0.34387200  0.19656400  1
  O  O3  1  0.97475300  0.76831300  0.47339100  1
  O  O4  1  0.80900800  0.17701500  0.62388100  1
  O  O5  1  0.30037700  0.51957700  0.93380300  1
  O  O6  1  0.08706800  0.54751600  0.36447000  1
  O  O7  1  0.34387200  0.53204300  0.69656400  1
  O  O8  1  0.76831300  0.97475300  0.97339100  1
  O  O9  1  0.96821900  0.68786700  0.20228000  1
  O  O10  1  0.07538100  0.50270300  0.04687000  1
  O  O11  1  0.49729700  0.92461900  0.45313000  1
  O  O12  1  0.54751600  0.08706800  0.86447000  1
  O  O13  1  0.68786700  0.96821900  0.70228000  1
  O  O14  1  0.31213300  0.03178100  0.29772000  1
  O  O15  1  0.45248400  0.91293200  0.13553000  1
  O  O16  1  0.50270300  0.07538100  0.54687000  1
  O  O17  1  0.92461900  0.49729700  0.95313000  1
  O  O18  1  0.03178100  0.31213300  0.79772000  1
  O  O19  1  0.23168700  0.02524700  0.02660900  1
  O  O20  1  0.65612800  0.46795700  0.30343600  1
  O  O21  1  0.91293200  0.45248400  0.63553000  1
  O  O22  1  0.69962300  0.48042300  0.06619700  1
  O  O23  1  0.19099200  0.82298500  0.37611900  1
  O  O24  1  0.14693800  0.85306200  0.25000000  1
  O  O25  1  0.02524700  0.23168700  0.52660900  1
  O  O26  1  0.46795700  0.65612800  0.80343600  1
  O  O27  1  0.48042300  0.69962300  0.56619700  1
  O  O28  1  0.82298500  0.19099200  0.87611900  1
  O  O29  1  0.85306200  0.14693800  0.75000000  1
loop_
_geom_bond_atom_site_label_1
_geom_bond_atom_site_label_2
_geom_bond_distance
_geom_bond_site_symmetry_2
La0 O2 2.385504 1_555
La0 O14 2.404359 1_555
La0 O24 2.517697 1_645
La0 O6 2.524760 1_645
La0 O20 2.625026 1_555
La0 O6 2.639542 1_555
La0 O9 2.653494 1_545
La0 O1 2.835036 1_555
La1 O15 2.381457 1_545
La1 O2 2.423806 1_555
La1 O0 2.429747 1_645
La1 O8 2.460103 1_544
La1 O9 2.669896 1_545
La1 O10 2.714167 1_645
La1 O10 2.719511 1_555
La1 O22 2.746408 1_555
La2 O7 2.385504 1_555
La2 O18 2.404359 1_555
La2 O29 2.517697 1_465
La2 O12 2.524760 1_465
La2 O26 2.625026 1_555
La2 O12 2.639542 1_555
La2 O13 2.653494 1_455
La2 O5 2.835036 1_555
La3 O21 2.381457 1_455
La3 O7 2.423806 1_555
La3 O4 2.429747 1_465
La3 O3 2.460103 1_455
La3 O13 2.669896 1_455
La3 O16 2.714167 1_465
La3 O16 2.719511 1_555
La3 O27 2.746408 1_555
La4 O6 2.381457 1_655
La4 O20 2.423806 1_555
La4 O23 2.429747 1_645
La4 O25 2.460103 1_655
La4 O14 2.669896 1_655
La4 O11 2.714167 1_645
La4 O11 2.719511 1_555
La4 O1 2.746408 1_555
La5 O20 2.385504 1_555
La5 O9 2.404359 1_555
La5 O24 2.517697 1_645
La5 O15 2.524760 1_645
La5 O2 2.625026 1_555
La5 O15 2.639542 1_555
La5 O14 2.653494 1_655
La5 O22 2.835036 1_555
La6 O12 2.381457 1_565
La6 O26 2.423806 1_555
La6 O28 2.429747 1_465
La6 O19 2.460103 1_566
La6 O18 2.669896 1_565
La6 O17 2.714167 1_465
La6 O17 2.719511 1_555
La6 O5 2.746408 1_555
La7 O26 2.385504 1_555
La7 O13 2.404359 1_555
La7 O29 2.517697 1_465
La7 O21 2.524760 1_465
La7 O7 2.625026 1_555
La7 O21 2.639542 1_555
La7 O18 2.653494 1_565
La7 O27 2.835036 1_555
B0 O6 1.458231 1_555
B0 O3 1.489984 1_455
B0 O23 1.498199 1_555
B0 O1 1.522113 1_555
B1 O2 1.443327 1_555
B1 O9 1.462162 1_455
B1 O0 1.534107 1_555
B1 O24 1.535649 1_555
B2 O3 1.468419 1_545
B2 O1 1.472234 1_555
B2 O16 1.525859 1_555
B2 O11 1.541070 1_545
B3 O12 1.458231 1_555
B3 O8 1.489984 1_545
B3 O28 1.498199 1_555
B3 O5 1.522113 1_555
B4 O7 1.443327 1_555
B4 O13 1.462162 1_545
B4 O4 1.534107 1_555
B4 O29 1.535649 1_555
B5 O8 1.468419 1_455
B5 O5 1.472234 1_555
B5 O10 1.525859 1_556
B5 O17 1.541070 1_455
B6 O19 1.468419 1_655
B6 O22 1.472234 1_555
B6 O17 1.525859 1_554
B6 O10 1.541070 1_655
B7 O20 1.443327 1_555
B7 O14 1.462162 1_565
B7 O23 1.534107 1_555
B7 O24 1.535649 1_555
B8 O15 1.458231 1_555
B8 O19 1.489984 1_565
B8 O0 1.498199 1_555
B8 O22 1.522113 1_555
B9 O25 1.468419 1_565
B9 O27 1.472234 1_555
B9 O11 1.525859 1_555
B9 O16 1.541070 1_565
B10 O26 1.443327 1_555
B10 O18 1.462162 1_655
B10 O28 1.534107 1_555
B10 O29 1.535649 1_555
B11 O21 1.458231 1_555
B11 O25 1.489984 1_655
B11 O4 1.498199 1_555
B11 O27 1.522113 1_555
