# generated using pymatgen
data_Li4TiFe3Cu2(PO4)6
_symmetry_space_group_name_H-M   'P 1'
_cell_length_a   8.57580800
_cell_length_b   8.67570223
_cell_length_c   8.72801762
_cell_angle_alpha   61.26068290
_cell_angle_beta   61.57688898
_cell_angle_gamma   61.54831927
_symmetry_Int_Tables_number   1
_chemical_formula_structural   Li4TiFe3Cu2(PO4)6
_chemical_formula_sum   'Li4 Ti1 Fe3 Cu2 P6 O24'
_cell_volume   474.24172602
_cell_formula_units_Z   1
loop_
 _symmetry_equiv_pos_site_id
 _symmetry_equiv_pos_as_xyz
  1  'x, y, z'
loop_
 _atom_site_type_symbol
 _atom_site_label
 _atom_site_symmetry_multiplicity
 _atom_site_fract_x
 _atom_site_fract_y
 _atom_site_fract_z
 _atom_site_occupancy
  Li  Li0  1  0.25425700  0.64741900  0.84668800  1
  Li  Li1  1  0.71562500  0.34249000  0.15683100  1
  Li  Li2  1  0.34371000  0.15515300  0.71600800  1
  Li  Li3  1  0.15597000  0.71593100  0.34433800  1
  Ti  Ti0  1  0.14786100  0.14763500  0.15297300  1
  Fe  Fe0  1  0.85416400  0.85908800  0.85468700  1
  Fe  Fe1  1  0.64590700  0.64244000  0.63749100  1
  Fe  Fe2  1  0.35085300  0.34783600  0.35136800  1
  Cu  Cu0  1  0.97579400  0.01348600  0.99893000  1
  Cu  Cu1  1  0.51879900  0.49522800  0.48598000  1
  P  P0  1  0.25290700  0.95307600  0.55275000  1
  P  P1  1  0.95126100  0.55261100  0.25422300  1
  P  P2  1  0.55402100  0.25216700  0.95381300  1
  P  P3  1  0.75642700  0.03631200  0.45905200  1
  P  P4  1  0.45196400  0.75331000  0.03536100  1
  P  P5  1  0.04231700  0.45974300  0.75878200  1
  O  O0  1  0.87045800  0.49983300  0.71606900  1
  O  O1  1  0.70228800  0.87772200  0.48800100  1
  O  O2  1  0.94330300  0.73048700  0.08247800  1
  O  O3  1  0.45914100  0.70646300  0.88152800  1
  O  O4  1  0.00863200  0.37810900  0.20045900  1
  O  O5  1  0.76023400  0.55993800  0.41103000  1
  O  O6  1  0.74033300  0.09267300  0.92262900  1
  O  O7  1  0.53852500  0.42118300  0.77451500  1
  O  O8  1  0.82553300  0.99419600  0.61047300  1
  O  O9  1  0.40741700  0.75948300  0.56405900  1
  O  O10  1  0.91632400  0.06674900  0.26353200  1
  O  O11  1  0.61826800  0.80956600  0.98168600  1
  O  O12  1  0.38121500  0.19061600  0.01388000  1
  O  O13  1  0.09527400  0.92301900  0.74151700  1
  O  O14  1  0.59576700  0.22764300  0.44035700  1
  O  O15  1  0.19446200  0.00799100  0.38345600  1
  O  O16  1  0.43935800  0.59196300  0.22462800  1
  O  O17  1  0.26027200  0.91665100  0.07306000  1
  O  O18  1  0.23013900  0.43229900  0.59750300  1
  O  O19  1  0.02482600  0.61122300  0.81542400  1
  O  O20  1  0.53665500  0.30529400  0.10632900  1
  O  O21  1  0.06463300  0.26540800  0.92227500  1
  O  O22  1  0.31288000  0.10283100  0.53277100  1
  O  O23  1  0.10223000  0.53173500  0.31606800  1
loop_
_geom_bond_atom_site_label_1
_geom_bond_atom_site_label_2
_geom_bond_distance
_geom_bond_site_symmetry_2
Li0 O13 2.095961 1_555
Li0 O9 2.140455 1_555
Li0 O3 2.226675 1_555
Li0 O19 2.286170 1_555
Li0 O7 2.315198 1_555
Li0 O2 2.497320 1_456
Li1 O20 1.976564 1_555
Li1 O14 2.087197 1_555
Li1 O10 2.238915 1_555
Li1 O16 2.378823 1_555
Li2 O22 2.012141 1_555
Li2 O18 2.033657 1_555
Li2 O21 2.292816 1_555
Li2 O14 2.397052 1_555
Li3 O23 2.004032 1_555
Li3 O16 2.080273 1_555
Li3 O17 2.222983 1_555
Li3 O18 2.441306 1_555
Fe0 O11 1.934245 1_555
Fe0 O8 1.949074 1_555
Fe0 O19 2.028813 1_655
Fe0 O6 2.032476 1_565
Fe0 O13 2.044596 1_655
Fe0 O2 2.069535 1_556
Fe1 O0 1.969910 1_555
Fe1 O1 1.970151 1_555
Fe1 O5 2.056059 1_555
Fe1 O9 2.065927 1_555
Fe1 O7 2.095539 1_555
Fe1 O3 2.110218 1_555
Fe2 O22 2.015774 1_555
Fe2 O23 2.024298 1_555
Fe2 O20 2.050327 1_555
Fe2 O16 2.182883 1_555
Fe2 O14 2.188441 1_555
Fe2 O18 2.213062 1_555
Cu0 O6 2.123976 1_555
Cu0 O2 2.318229 1_546
Cu0 O13 2.334862 1_645
Cu0 O10 2.342575 1_556
Cu0 O21 2.345226 1_655
Cu0 O17 2.470469 1_646
Cu1 O5 2.120164 1_555
Cu1 O14 2.272058 1_555
Cu1 O9 2.330018 1_555
Cu1 O16 2.337826 1_555
Cu1 O7 2.351510 1_555
Cu1 O18 2.420018 1_555
O0 P5 1.530375 1_655
O1 P3 1.528115 1_565
O2 P1 1.551001 1_555
O3 P4 1.547245 1_556
O4 P1 1.583637 1_455
O4 Ti0 1.909589 1_555
O5 P1 1.552725 1_555
O6 P2 1.543775 1_555
O7 P2 1.556395 1_555
O8 P3 1.518641 1_565
O9 P0 1.559153 1_555
O10 P3 1.595699 1_555
O10 Ti0 2.053962 1_655
O11 P4 1.516251 1_556
O12 P2 1.581579 1_554
O12 Ti0 1.892249 1_555
O13 P0 1.553195 1_555
O14 P3 1.566742 1_555
O15 P0 1.569081 1_545
O15 Ti0 1.906449 1_555
O16 P4 1.565401 1_555
O17 P4 1.591429 1_555
O17 Ti0 2.072421 1_565
O18 P5 1.559190 1_555
O19 P5 1.536351 1_555
O20 P2 1.530526 1_554
O21 P5 1.598239 1_555
O21 Ti0 2.074255 1_556
O22 P0 1.521967 1_545
O23 P1 1.532385 1_455
