# generated using pymatgen
data_Dy2P4O13
_symmetry_space_group_name_H-M   'P 1'
_cell_length_a   9.71825900
_cell_length_b   8.85384000
_cell_length_c   14.13157420
_cell_angle_alpha   74.18417929
_cell_angle_beta   90.00000000
_cell_angle_gamma   90.00000000
_symmetry_Int_Tables_number   1
_chemical_formula_structural   Dy2P4O13
_chemical_formula_sum   'Dy8 P16 O52'
_cell_volume   1169.90394195
_cell_formula_units_Z   4
loop_
 _symmetry_equiv_pos_site_id
 _symmetry_equiv_pos_as_xyz
  1  'x, y, z'
loop_
 _atom_site_type_symbol
 _atom_site_label
 _atom_site_symmetry_multiplicity
 _atom_site_fract_x
 _atom_site_fract_y
 _atom_site_fract_z
 _atom_site_occupancy
  Dy  Dy0  1  0.99926700  0.71641700  0.99320600  1
  Dy  Dy1  1  0.99434900  0.78578900  0.51249700  1
  Dy  Dy2  1  0.50073300  0.71641700  0.49320600  1
  Dy  Dy3  1  0.50565100  0.78578900  0.01249700  1
  Dy  Dy4  1  0.49434900  0.21421100  0.98750300  1
  Dy  Dy5  1  0.49926700  0.28358300  0.50679400  1
  Dy  Dy6  1  0.00565100  0.21421100  0.48750300  1
  Dy  Dy7  1  0.00073300  0.28358300  0.00679400  1
  P  P0  1  0.72117200  0.97099400  0.59499900  1
  P  P1  1  0.75506400  0.89013200  0.81301800  1
  P  P2  1  0.26660100  0.76575600  0.68668300  1
  P  P3  1  0.77882800  0.97099400  0.09499900  1
  P  P4  1  0.74493600  0.89013200  0.31301800  1
  P  P5  1  0.27982900  0.54223500  0.90283100  1
  P  P6  1  0.23339900  0.76575600  0.18668300  1
  P  P7  1  0.77982900  0.45776500  0.59716900  1
  P  P8  1  0.22017100  0.54223500  0.40283100  1
  P  P9  1  0.76660100  0.23424400  0.81331700  1
  P  P10  1  0.72017100  0.45776500  0.09716900  1
  P  P11  1  0.25506400  0.10986800  0.68698200  1
  P  P12  1  0.22117200  0.02900600  0.90500100  1
  P  P13  1  0.73339900  0.23424400  0.31331700  1
  P  P14  1  0.24493600  0.10986800  0.18698200  1
  P  P15  1  0.27882800  0.02900600  0.40500100  1
  O  O0  1  0.30535000  0.92877200  0.71091000  1
  O  O1  1  0.15428700  0.87460600  0.90454300  1
  O  O2  1  0.87326500  0.98840400  0.56024300  1
  O  O3  1  0.62434000  0.86448200  0.87176900  1
  O  O4  1  0.72452400  0.86421000  0.70795400  1
  O  O5  1  0.63968500  0.87787300  0.53871300  1
  O  O6  1  0.87421300  0.78464100  0.85570700  1
  O  O7  1  0.19465000  0.92877200  0.21091000  1
  O  O8  1  0.34571300  0.87460600  0.40454300  1
  O  O9  1  0.62673500  0.98840400  0.06024300  1
  O  O10  1  0.36720500  0.63419200  0.95690000  1
  O  O11  1  0.12372400  0.77375700  0.64450300  1
  O  O12  1  0.87566000  0.86448200  0.37176900  1
  O  O13  1  0.77547600  0.86421000  0.20795400  1
  O  O14  1  0.38098900  0.72585000  0.62612600  1
  O  O15  1  0.26726200  0.64018000  0.78960700  1
  O  O16  1  0.86031500  0.87787300  0.03871300  1
  O  O17  1  0.84552200  0.61300800  0.59780100  1
  O  O18  1  0.12862900  0.52010400  0.94210600  1
  O  O19  1  0.62578700  0.78464100  0.35570700  1
  O  O20  1  0.13279500  0.63419200  0.45690000  1
  O  O21  1  0.37627600  0.77375700  0.14450300  1
  O  O22  1  0.11901100  0.72585000  0.12612600  1
  O  O23  1  0.23273800  0.64018000  0.28960700  1
  O  O24  1  0.62862900  0.47989600  0.55789400  1
  O  O25  1  0.34552200  0.38699200  0.90219900  1
  O  O26  1  0.65447800  0.61300800  0.09780100  1
  O  O27  1  0.37137100  0.52010400  0.44210600  1
  O  O28  1  0.76726200  0.35982000  0.71039300  1
  O  O29  1  0.88098900  0.27415000  0.87387400  1
  O  O30  1  0.62372400  0.22624300  0.85549700  1
  O  O31  1  0.86720500  0.36580800  0.54310000  1
  O  O32  1  0.37421300  0.21535900  0.64429300  1
  O  O33  1  0.87137100  0.47989600  0.05789400  1
  O  O34  1  0.15447800  0.38699200  0.40219900  1
  O  O35  1  0.13968500  0.12212700  0.96128700  1
  O  O36  1  0.73273800  0.35982000  0.21039300  1
  O  O37  1  0.61901100  0.27415000  0.37387400  1
  O  O38  1  0.22452400  0.13579000  0.79204600  1
  O  O39  1  0.12434000  0.13551800  0.62823100  1
  O  O40  1  0.87627600  0.22624300  0.35549700  1
  O  O41  1  0.63279500  0.36580800  0.04310000  1
  O  O42  1  0.37326500  0.01159600  0.93975700  1
  O  O43  1  0.65428700  0.12539400  0.59545700  1
  O  O44  1  0.80535000  0.07122800  0.78909000  1
  O  O45  1  0.12578700  0.21535900  0.14429300  1
  O  O46  1  0.36031500  0.12212700  0.46128700  1
  O  O47  1  0.27547600  0.13579000  0.29204600  1
  O  O48  1  0.37566000  0.13551800  0.12823100  1
  O  O49  1  0.12673500  0.01159600  0.43975700  1
  O  O50  1  0.84571300  0.12539400  0.09545700  1
  O  O51  1  0.69465000  0.07122800  0.28909000  1
loop_
_geom_bond_atom_site_label_1
_geom_bond_atom_site_label_2
_geom_bond_distance
_geom_bond_site_symmetry_2
Dy0 O16 2.186698 1_556
Dy0 O1 2.201037 1_655
Dy0 O22 2.230462 1_656
Dy0 O6 2.231057 1_555
Dy0 O33 2.392149 1_556
Dy0 O18 2.409811 1_655
Dy1 O20 2.191779 1_655
Dy1 O17 2.209090 1_555
Dy1 O11 2.227945 1_655
Dy1 O12 2.239546 1_555
Dy1 O49 2.364043 1_665
Dy1 O2 2.391207 1_555
Dy2 O5 2.186698 1_555
Dy2 O8 2.201037 1_555
Dy2 O14 2.230462 1_555
Dy2 O19 2.231057 1_555
Dy2 O24 2.392149 1_555
Dy2 O27 2.409811 1_555
Dy3 O10 2.191779 1_554
Dy3 O26 2.209090 1_555
Dy3 O21 2.227945 1_555
Dy3 O3 2.239546 1_554
Dy3 O42 2.364043 1_564
Dy3 O9 2.391207 1_555
Dy4 O41 2.191779 1_556
Dy4 O25 2.209090 1_555
Dy4 O30 2.227945 1_555
Dy4 O48 2.239546 1_556
Dy4 O9 2.364043 1_546
Dy4 O42 2.391207 1_555
Dy5 O46 2.186698 1_555
Dy5 O43 2.201037 1_555
Dy5 O37 2.230462 1_555
Dy5 O32 2.231057 1_555
Dy5 O27 2.392149 1_555
Dy5 O24 2.409811 1_555
Dy6 O31 2.191779 1_455
Dy6 O34 2.209090 1_555
Dy6 O40 2.227945 1_455
Dy6 O39 2.239546 1_555
Dy6 O2 2.364043 1_445
Dy6 O49 2.391207 1_555
Dy7 O35 2.186698 1_554
Dy7 O50 2.201037 1_455
Dy7 O29 2.230462 1_454
Dy7 O45 2.231057 1_555
Dy7 O18 2.392149 1_554
Dy7 O33 2.409811 1_455
O0 P2 1.616026 1_555
O0 P11 1.621265 1_565
O1 P12 1.515306 1_565
O2 P0 1.551917 1_555
O3 P1 1.500681 1_555
O4 P1 1.590880 1_555
O4 P0 1.618722 1_555
O5 P0 1.515598 1_555
O6 P1 1.506630 1_555
O7 P6 1.616026 1_555
O7 P14 1.621265 1_565
O8 P15 1.515306 1_565
O9 P3 1.551917 1_555
O10 P5 1.518827 1_555
O11 P2 1.505084 1_555
O12 P4 1.500681 1_555
O13 P4 1.590880 1_555
O13 P3 1.618722 1_555
O14 P2 1.502583 1_555
O15 P2 1.571696 1_555
O15 P5 1.603343 1_555
O16 P3 1.515598 1_555
O17 P7 1.517760 1_555
O18 P5 1.564064 1_555
O19 P4 1.506630 1_555
O20 P8 1.518827 1_555
O21 P6 1.505084 1_555
O22 P6 1.502583 1_555
O23 P6 1.571696 1_555
O23 P8 1.603343 1_555
O24 P7 1.564064 1_555
O25 P5 1.517760 1_555
O26 P10 1.517760 1_555
O27 P8 1.564064 1_555
O28 P9 1.571696 1_555
O28 P7 1.603343 1_555
O29 P9 1.502583 1_555
O30 P9 1.505084 1_555
O31 P7 1.518827 1_555
O32 P11 1.506630 1_555
O33 P10 1.564064 1_555
O34 P8 1.517760 1_555
O35 P12 1.515598 1_555
O36 P13 1.571696 1_555
O36 P10 1.603343 1_555
O37 P13 1.502583 1_555
O38 P11 1.590880 1_555
O38 P12 1.618722 1_555
O39 P11 1.500681 1_555
O40 P13 1.505084 1_555
O41 P10 1.518827 1_555
O42 P12 1.551917 1_555
O43 P0 1.515306 1_545
O44 P9 1.616026 1_555
O44 P1 1.621265 1_545
O45 P14 1.506630 1_555
O46 P15 1.515598 1_555
O47 P14 1.590880 1_555
O47 P15 1.618722 1_555
O48 P14 1.500681 1_555
O49 P15 1.551917 1_555
O50 P3 1.515306 1_545
O51 P13 1.616026 1_555
O51 P4 1.621265 1_545
