# generated using pymatgen
data_NaSiSbCO7
_symmetry_space_group_name_H-M   'P 1'
_cell_length_a   6.52653900
_cell_length_b   5.35166200
_cell_length_c   9.31632393
_cell_angle_alpha   87.32391279
_cell_angle_beta   90.00000000
_cell_angle_gamma   90.00000000
_symmetry_Int_Tables_number   1
_chemical_formula_structural   NaSiSbCO7
_chemical_formula_sum   'Na2 Si2 Sb2 C2 O14'
_cell_volume   325.04412120
_cell_formula_units_Z   2
loop_
 _symmetry_equiv_pos_site_id
 _symmetry_equiv_pos_as_xyz
  1  'x, y, z'
loop_
 _atom_site_type_symbol
 _atom_site_label
 _atom_site_symmetry_multiplicity
 _atom_site_fract_x
 _atom_site_fract_y
 _atom_site_fract_z
 _atom_site_occupancy
  Na  Na0  1  0.52594400  0.75988600  0.77781800  1
  Na  Na1  1  0.02594400  0.24011400  0.22218200  1
  Si  Si0  1  0.74383800  0.27498900  0.56530400  1
  Si  Si1  1  0.24383800  0.72501100  0.43469600  1
  Sb  Sb0  1  0.23789100  0.21184100  0.65765800  1
  Sb  Sb1  1  0.73789100  0.78815900  0.34234200  1
  C  C0  1  0.25561200  0.27565900  0.92353400  1
  C  C1  1  0.75561200  0.72434100  0.07646600  1
  O  O0  1  0.75154300  0.69199700  0.94768000  1
  O  O1  1  0.25286500  0.05184500  0.86288900  1
  O  O2  1  0.26043500  0.46319600  0.81935100  1
  O  O3  1  0.93894900  0.21049400  0.66998700  1
  O  O4  1  0.54463800  0.19992700  0.66413800  1
  O  O5  1  0.25622300  0.87380400  0.58444900  1
  O  O6  1  0.73421400  0.57873700  0.52193200  1
  O  O7  1  0.23421400  0.42126300  0.47806800  1
  O  O8  1  0.75622300  0.12619600  0.41555100  1
  O  O9  1  0.04463800  0.80007300  0.33586200  1
  O  O10  1  0.43894900  0.78950600  0.33001300  1
  O  O11  1  0.76043500  0.53680400  0.18064900  1
  O  O12  1  0.75286500  0.94815500  0.13711100  1
  O  O13  1  0.25154300  0.30800300  0.05232000  1
loop_
_geom_bond_atom_site_label_1
_geom_bond_atom_site_label_2
_geom_bond_distance
_geom_bond_site_symmetry_2
Na0 O0 2.179562 1_555
Na0 O2 2.369851 1_555
Na0 O1 2.522206 1_565
Na0 O4 2.539573 1_565
Na0 O5 2.571632 1_555
Na0 O6 2.947261 1_555
Na1 O13 2.179562 1_555
Na1 O11 2.369851 1_455
Na1 O12 2.522206 1_445
Na1 O9 2.539573 1_545
Na1 O8 2.571632 1_455
Na1 O7 2.947261 1_555
C0 O13 1.220495 1_556
C0 O1 1.348108 1_555
C0 O2 1.363591 1_555
C1 O0 1.220495 1_554
C1 O12 1.348108 1_555
C1 O11 1.363591 1_555
O1 Sb0 2.060478 1_555
O2 Sb0 2.071119 1_555
O3 Si0 1.631067 1_555
O3 Sb0 1.954428 1_655
O4 Si0 1.632443 1_555
O4 Sb0 2.003831 1_555
O5 Si1 1.640362 1_555
O5 Sb0 1.966572 1_565
O6 Si0 1.657804 1_555
O6 Sb1 1.969999 1_555
O7 Si1 1.657804 1_555
O7 Sb0 1.969999 1_555
O8 Si0 1.640362 1_555
O8 Sb1 1.966572 1_545
O9 Si1 1.632443 1_555
O9 Sb1 2.003831 1_455
O10 Si1 1.631067 1_555
O10 Sb1 1.954428 1_555
O11 Sb1 2.071119 1_555
O12 Sb1 2.060478 1_555
