# generated using pymatgen
data_La2P4O13
_symmetry_space_group_name_H-M   'P 1'
_cell_length_a   10.17224500
_cell_length_b   9.22125900
_cell_length_c   14.48132750
_cell_angle_alpha   73.61066977
_cell_angle_beta   90.00000000
_cell_angle_gamma   90.00000000
_symmetry_Int_Tables_number   1
_chemical_formula_structural   La2P4O13
_chemical_formula_sum   'La8 P16 O52'
_cell_volume   1303.16669738
_cell_formula_units_Z   4
loop_
 _symmetry_equiv_pos_site_id
 _symmetry_equiv_pos_as_xyz
  1  'x, y, z'
loop_
 _atom_site_type_symbol
 _atom_site_label
 _atom_site_symmetry_multiplicity
 _atom_site_fract_x
 _atom_site_fract_y
 _atom_site_fract_z
 _atom_site_occupancy
  La  La0  1  0.99873800  0.72207500  0.99383200  1
  La  La1  1  0.99411000  0.77847900  0.51467100  1
  La  La2  1  0.50126200  0.72207500  0.49383200  1
  La  La3  1  0.50589000  0.77847900  0.01467100  1
  La  La4  1  0.49411000  0.22152100  0.98532900  1
  La  La5  1  0.49873800  0.27792500  0.50616800  1
  La  La6  1  0.00589000  0.22152100  0.48532900  1
  La  La7  1  0.00126200  0.27792500  0.00616800  1
  P  P0  1  0.72397000  0.97268300  0.59724800  1
  P  P1  1  0.75360600  0.89746300  0.81106700  1
  P  P2  1  0.26641700  0.77156600  0.68881300  1
  P  P3  1  0.77603000  0.97268300  0.09724800  1
  P  P4  1  0.74639400  0.89746300  0.31106700  1
  P  P5  1  0.27810200  0.54451400  0.89910100  1
  P  P6  1  0.23358300  0.77156600  0.18881300  1
  P  P7  1  0.77810200  0.45548600  0.60089900  1
  P  P8  1  0.22189800  0.54451400  0.39910100  1
  P  P9  1  0.76641700  0.22843400  0.81118700  1
  P  P10  1  0.72189800  0.45548600  0.10089900  1
  P  P11  1  0.25360600  0.10253700  0.68893300  1
  P  P12  1  0.22397000  0.02731700  0.90275200  1
  P  P13  1  0.73358300  0.22843400  0.31118700  1
  P  P14  1  0.24639400  0.10253700  0.18893300  1
  P  P15  1  0.27603000  0.02731700  0.40275200  1
  O  O0  1  0.29953500  0.92746000  0.71425300  1
  O  O1  1  0.16195100  0.87699600  0.90332900  1
  O  O2  1  0.86879800  0.98749400  0.56325900  1
  O  O3  1  0.62962300  0.87063100  0.86972600  1
  O  O4  1  0.72512600  0.87046300  0.70910300  1
  O  O5  1  0.64331800  0.88268500  0.54437500  1
  O  O6  1  0.86929500  0.79881900  0.85329100  1
  O  O7  1  0.20046500  0.92746000  0.21425300  1
  O  O8  1  0.33804900  0.87699600  0.40332900  1
  O  O9  1  0.63120200  0.98749400  0.06325900  1
  O  O10  1  0.36378800  0.62696700  0.95441200  1
  O  O11  1  0.13051600  0.77624500  0.64765500  1
  O  O12  1  0.87037700  0.87063100  0.36972600  1
  O  O13  1  0.77487400  0.87046300  0.20910300  1
  O  O14  1  0.37724900  0.73995600  0.62833000  1
  O  O15  1  0.27064000  0.64734700  0.78886800  1
  O  O16  1  0.85668200  0.88268500  0.04437500  1
  O  O17  1  0.83894700  0.60445600  0.60481900  1
  O  O18  1  0.13402300  0.52406300  0.93664500  1
  O  O19  1  0.63070500  0.79881900  0.35329100  1
  O  O20  1  0.13621200  0.62696700  0.45441200  1
  O  O21  1  0.36948400  0.77624500  0.14765500  1
  O  O22  1  0.12275100  0.73995600  0.12833000  1
  O  O23  1  0.22936000  0.64734700  0.28886800  1
  O  O24  1  0.63402300  0.47593700  0.56335500  1
  O  O25  1  0.33894700  0.39554400  0.89518100  1
  O  O26  1  0.66105300  0.60445600  0.10481900  1
  O  O27  1  0.36597700  0.52406300  0.43664500  1
  O  O28  1  0.77064000  0.35265300  0.71113200  1
  O  O29  1  0.87724900  0.26004400  0.87167000  1
  O  O30  1  0.63051600  0.22375500  0.85234500  1
  O  O31  1  0.86378800  0.37303300  0.54558800  1
  O  O32  1  0.36929500  0.20118100  0.64670900  1
  O  O33  1  0.86597700  0.47593700  0.06335500  1
  O  O34  1  0.16105300  0.39554400  0.39518100  1
  O  O35  1  0.14331800  0.11731500  0.95562500  1
  O  O36  1  0.72936000  0.35265300  0.21113200  1
  O  O37  1  0.62275100  0.26004400  0.37167000  1
  O  O38  1  0.22512600  0.12953700  0.79089700  1
  O  O39  1  0.12962300  0.12936900  0.63027400  1
  O  O40  1  0.86948400  0.22375500  0.35234500  1
  O  O41  1  0.63621200  0.37303300  0.04558800  1
  O  O42  1  0.36879800  0.01250600  0.93674100  1
  O  O43  1  0.66195100  0.12300400  0.59667100  1
  O  O44  1  0.79953500  0.07254000  0.78574700  1
  O  O45  1  0.13070500  0.20118100  0.14670900  1
  O  O46  1  0.35668200  0.11731500  0.45562500  1
  O  O47  1  0.27487400  0.12953700  0.29089700  1
  O  O48  1  0.37037700  0.12936900  0.13027400  1
  O  O49  1  0.13120200  0.01250600  0.43674100  1
  O  O50  1  0.83804900  0.12300400  0.09667100  1
  O  O51  1  0.70046500  0.07254000  0.28574700  1
loop_
_geom_bond_atom_site_label_1
_geom_bond_atom_site_label_2
_geom_bond_distance
_geom_bond_site_symmetry_2
La0 O16 2.330022 1_556
La0 O1 2.336303 1_655
La0 O6 2.358794 1_555
La0 O22 2.365027 1_656
La0 O33 2.588322 1_556
La0 O18 2.601332 1_655
La1 O20 2.343274 1_655
La1 O17 2.363967 1_555
La1 O11 2.368965 1_655
La1 O12 2.388619 1_555
La1 O49 2.549709 1_665
La1 O2 2.569057 1_555
La2 O5 2.330022 1_555
La2 O8 2.336303 1_555
La2 O19 2.358794 1_555
La2 O14 2.365027 1_555
La2 O24 2.588322 1_555
La2 O27 2.601332 1_555
La3 O10 2.343274 1_554
La3 O26 2.363967 1_555
La3 O21 2.368965 1_555
La3 O3 2.388619 1_554
La3 O42 2.549709 1_564
La3 O9 2.569057 1_555
La4 O41 2.343274 1_556
La4 O25 2.363967 1_555
La4 O30 2.368965 1_555
La4 O48 2.388619 1_556
La4 O9 2.549709 1_546
La4 O42 2.569057 1_555
La5 O46 2.330022 1_555
La5 O43 2.336303 1_555
La5 O32 2.358794 1_555
La5 O37 2.365027 1_555
La5 O27 2.588322 1_555
La5 O24 2.601332 1_555
La6 O31 2.343274 1_455
La6 O34 2.363967 1_555
La6 O40 2.368965 1_455
La6 O39 2.388619 1_555
La6 O2 2.549709 1_445
La6 O49 2.569057 1_555
La7 O35 2.330022 1_554
La7 O50 2.336303 1_455
La7 O45 2.358794 1_555
La7 O29 2.365027 1_454
La7 O18 2.588322 1_554
La7 O33 2.601332 1_455
O0 P2 1.616971 1_555
O0 P11 1.620200 1_565
O1 P12 1.520836 1_565
O2 P0 1.547055 1_555
O3 P1 1.501593 1_555
O4 P1 1.591745 1_555
O4 P0 1.628122 1_555
O5 P0 1.518763 1_555
O6 P1 1.507420 1_555
O7 P6 1.616971 1_555
O7 P14 1.620200 1_565
O8 P15 1.520836 1_565
O9 P3 1.547055 1_555
O10 P5 1.524154 1_555
O11 P2 1.501224 1_555
O12 P4 1.501593 1_555
O13 P4 1.591745 1_555
O13 P3 1.628122 1_555
O14 P2 1.505738 1_555
O15 P2 1.573756 1_555
O15 P5 1.612126 1_555
O16 P3 1.518763 1_555
O17 P7 1.522278 1_555
O18 P5 1.556053 1_555
O19 P4 1.507420 1_555
O20 P8 1.524154 1_555
O21 P6 1.501224 1_555
O22 P6 1.505738 1_555
O23 P6 1.573756 1_555
O23 P8 1.612126 1_555
O24 P7 1.556053 1_555
O25 P5 1.522278 1_555
O26 P10 1.522278 1_555
O27 P8 1.556053 1_555
O28 P9 1.573756 1_555
O28 P7 1.612126 1_555
O29 P9 1.505738 1_555
O30 P9 1.501224 1_555
O31 P7 1.524154 1_555
O32 P11 1.507420 1_555
O33 P10 1.556053 1_555
O34 P8 1.522278 1_555
O35 P12 1.518763 1_555
O36 P13 1.573756 1_555
O36 P10 1.612126 1_555
O37 P13 1.505738 1_555
O38 P11 1.591745 1_555
O38 P12 1.628122 1_555
O39 P11 1.501593 1_555
O40 P13 1.501224 1_555
O41 P10 1.524154 1_555
O42 P12 1.547055 1_555
O43 P0 1.520836 1_545
O44 P9 1.616971 1_555
O44 P1 1.620200 1_545
O45 P14 1.507420 1_555
O46 P15 1.518763 1_555
O47 P14 1.591745 1_555
O47 P15 1.628122 1_555
O48 P14 1.501593 1_555
O49 P15 1.547055 1_555
O50 P3 1.520836 1_545
O51 P13 1.616971 1_555
O51 P4 1.620200 1_545
