# generated using pymatgen
data_Li4(NiO2)5
_symmetry_space_group_name_H-M   'P 1'
_cell_length_a   8.00654121
_cell_length_b   4.98801152
_cell_length_c   5.69069117
_cell_angle_alpha   64.25370746
_cell_angle_beta   112.59661497
_cell_angle_gamma   87.29592187
_symmetry_Int_Tables_number   1
_chemical_formula_structural   Li4(NiO2)5
_chemical_formula_sum   'Li4 Ni5 O10'
_cell_volume   182.62081987
_cell_formula_units_Z   1
loop_
 _symmetry_equiv_pos_site_id
 _symmetry_equiv_pos_as_xyz
  1  'x, y, z'
loop_
 _atom_site_type_symbol
 _atom_site_label
 _atom_site_symmetry_multiplicity
 _atom_site_fract_x
 _atom_site_fract_y
 _atom_site_fract_z
 _atom_site_occupancy
  Li  Li0  1  0.24656300  0.23411600  0.80952600  1
  Li  Li1  1  0.05831900  0.84809000  0.61587700  1
  Li  Li2  1  0.74160400  0.75206800  0.18395700  1
  Li  Li3  1  0.55358900  0.36594100  0.99051800  1
  Ni  Ni0  1  0.99748100  0.00257900  0.99597800  1
  Ni  Ni1  1  0.19883100  0.39788100  0.20351800  1
  Ni  Ni2  1  0.60107200  0.20182000  0.59655200  1
  Ni  Ni3  1  0.39995800  0.79990100  0.39993700  1
  Ni  Ni4  1  0.80256400  0.59754100  0.80407500  1
  O  O0  1  0.41802800  0.21085500  0.21551100  1
  O  O1  1  0.21239200  0.82013000  0.00291000  1
  O  O2  1  0.02304200  0.41960800  0.81369100  1
  O  O3  1  0.38173900  0.38922800  0.58420400  1
  O  O4  1  0.82885900  0.01042700  0.63458000  1
  O  O5  1  0.16923000  0.98459100  0.35730700  1
  O  O6  1  0.63078000  0.61541500  0.44271000  1
  O  O7  1  0.97131700  0.58935000  0.16560800  1
  O  O8  1  0.77688800  0.18059500  0.98633600  1
  O  O9  1  0.58764500  0.77966900  0.79710800  1
loop_
_geom_bond_atom_site_label_1
_geom_bond_atom_site_label_2
_geom_bond_distance
_geom_bond_site_symmetry_2
Li0 O3 1.922939 1_555
Li0 O1 1.964799 1_546
Li0 O2 1.988671 1_555
Li0 O0 2.133186 1_556
Li1 O5 1.899499 1_555
Li1 O1 2.005270 1_556
Li1 O2 2.031256 1_555
Li1 O4 2.031505 1_465
Li2 O6 1.899819 1_555
Li2 O9 2.005008 1_554
Li2 O8 2.031297 1_564
Li2 O7 2.032906 1_555
Li3 O0 1.924180 1_556
Li3 O9 1.963403 1_555
Li3 O8 1.986845 1_555
Li3 O3 2.135342 1_555
Ni0 O1 1.886649 1_646
Ni0 O8 1.909476 1_555
Ni0 O7 1.921397 1_546
Ni0 O2 1.942581 1_655
Ni0 O5 1.944781 1_646
Ni0 O4 1.960915 1_555
Ni1 O7 1.905712 1_455
Ni1 O0 1.911323 1_555
Ni1 O5 1.926121 1_545
Ni1 O1 1.943960 1_555
Ni1 O2 2.071531 1_554
Ni1 O3 2.077114 1_555
Ni2 O4 1.907184 1_555
Ni2 O3 1.912033 1_555
Ni2 O6 1.927768 1_555
Ni2 O9 1.943156 1_545
Ni2 O8 2.072511 1_555
Ni2 O0 2.078099 1_555
Ni3 O3 1.896464 1_555
Ni3 O0 1.897343 1_565
Ni3 O6 1.902818 1_555
Ni3 O5 1.902902 1_555
Ni3 O1 2.133151 1_555
Ni3 O9 2.134059 1_555
Ni4 O9 1.885909 1_555
Ni4 O2 1.908564 1_655
Ni4 O4 1.920236 1_565
Ni4 O8 1.942548 1_555
Ni4 O6 1.945275 1_555
Ni4 O7 1.961009 1_556
