# generated using pymatgen
data_Li3V2P4(HO8)2
_symmetry_space_group_name_H-M   'P 1'
_cell_length_a   8.08138800
_cell_length_b   7.55483800
_cell_length_c   9.74926870
_cell_angle_alpha   75.27805544
_cell_angle_beta   90.00000000
_cell_angle_gamma   90.00000000
_symmetry_Int_Tables_number   1
_chemical_formula_structural   Li3V2P4(HO8)2
_chemical_formula_sum   'Li6 V4 P8 H4 O32'
_cell_volume   575.68669498
_cell_formula_units_Z   2
loop_
 _symmetry_equiv_pos_site_id
 _symmetry_equiv_pos_as_xyz
  1  'x, y, z'
loop_
 _atom_site_type_symbol
 _atom_site_label
 _atom_site_symmetry_multiplicity
 _atom_site_fract_x
 _atom_site_fract_y
 _atom_site_fract_z
 _atom_site_occupancy
  Li  Li0  1  0.37051700  0.90374200  0.82246700  1
  Li  Li1  1  0.13643800  0.40253900  0.57495900  1
  Li  Li2  1  0.63643800  0.59746100  0.42504100  1
  Li  Li3  1  0.87051700  0.09625800  0.17753300  1
  Li  Li4  1  0.13137800  0.40250700  0.07493400  1
  Li  Li5  1  0.63137800  0.59749300  0.92506600  1
  V  V0  1  0.50462800  0.25100100  0.62565400  1
  V  V1  1  0.00462800  0.74899900  0.37434600  1
  V  V2  1  0.49696900  0.24195700  0.12734800  1
  V  V3  1  0.99696900  0.75804300  0.87265200  1
  P  P0  1  0.34690300  0.51698300  0.81199000  1
  P  P1  1  0.85036300  0.48435500  0.69259100  1
  P  P2  1  0.15194100  0.00998000  0.56256400  1
  P  P3  1  0.65194100  0.99002000  0.43743600  1
  P  P4  1  0.35036300  0.51564500  0.30740900  1
  P  P5  1  0.84690300  0.48301700  0.18801000  1
  P  P6  1  0.15577300  0.01795100  0.05812300  1
  P  P7  1  0.65577300  0.98204900  0.94187700  1
  H  H0  1  0.50970800  0.76836300  0.60295300  1
  H  H1  1  0.00970800  0.23163700  0.39704700  1
  H  H2  1  0.49411900  0.74121200  0.13322200  1
  H  H3  1  0.99411900  0.25878800  0.86677800  1
  O  O0  1  0.55231000  0.08950400  0.81482700  1
  O  O1  1  0.17758700  0.56235800  0.86949100  1
  O  O2  1  0.82723800  0.60694400  0.79891700  1
  O  O3  1  0.44526100  0.69334000  0.75168600  1
  O  O4  1  0.04901800  0.89650900  0.69264800  1
  O  O5  1  0.31571000  0.05996600  0.62119100  1
  O  O6  1  0.94660800  0.30632000  0.75969500  1
  O  O7  1  0.32658200  0.39849200  0.70458800  1
  O  O8  1  0.66798600  0.10378700  0.54497800  1
  O  O9  1  0.05850700  0.19548500  0.49924700  1
  O  O10  1  0.68208400  0.44287400  0.63552700  1
  O  O11  1  0.95903200  0.58699300  0.56666000  1
  O  O12  1  0.55850700  0.80451500  0.50075300  1
  O  O13  1  0.16798600  0.89621300  0.45502200  1
  O  O14  1  0.81571000  0.94003400  0.37880900  1
  O  O15  1  0.54901800  0.10349100  0.30735200  1
  O  O16  1  0.45903200  0.41300700  0.43334000  1
  O  O17  1  0.18208400  0.55712600  0.36447300  1
  O  O18  1  0.82658200  0.60150800  0.29541200  1
  O  O19  1  0.44660800  0.69368000  0.24030500  1
  O  O20  1  0.05231000  0.91049600  0.18517300  1
  O  O21  1  0.33067500  0.06710200  0.10130200  1
  O  O22  1  0.94526100  0.30666000  0.24831400  1
  O  O23  1  0.32723800  0.39305600  0.20108300  1
  O  O24  1  0.67409400  0.10263500  0.04998800  1
  O  O25  1  0.05965400  0.19678900  0.99825100  1
  O  O26  1  0.67758700  0.43764200  0.13050900  1
  O  O27  1  0.95188300  0.59793400  0.05861300  1
  O  O28  1  0.55965400  0.80321100  0.00174900  1
  O  O29  1  0.17409400  0.89736500  0.95001200  1
  O  O30  1  0.83067500  0.93289800  0.89869800  1
  O  O31  1  0.45188300  0.40206600  0.94138700  1
loop_
_geom_bond_atom_site_label_1
_geom_bond_atom_site_label_2
_geom_bond_distance
_geom_bond_site_symmetry_2
Li0 O3 1.981219 1_555
Li0 O29 2.009437 1_555
Li0 O0 2.019982 1_565
Li0 O5 2.064615 1_565
Li0 O28 2.300749 1_556
Li1 O7 1.984863 1_555
Li1 O11 1.986604 1_455
Li1 O9 1.993801 1_555
Li1 O17 2.119667 1_555
Li1 O6 2.336702 1_455
Li2 O18 1.984863 1_555
Li2 O16 1.986604 1_555
Li2 O12 1.993801 1_555
Li2 O10 2.119667 1_555
Li2 O19 2.336702 1_555
Li3 O22 1.981219 1_555
Li3 O24 2.009437 1_555
Li3 O20 2.019982 1_645
Li3 O14 2.064615 1_545
Li3 O25 2.300749 1_654
Li4 O25 1.975059 1_554
Li4 O23 1.994579 1_555
Li4 O27 2.046920 1_455
Li4 O1 2.092885 1_554
Li4 O22 2.240918 1_455
Li5 O28 1.975059 1_556
Li5 O2 1.994579 1_555
Li5 O31 2.046920 1_555
Li5 O26 2.092885 1_556
Li5 O3 2.240918 1_555
H0 O12 1.041426 1_555
H0 O3 1.509104 1_555
H1 O9 1.041426 1_555
H1 O22 1.509104 1_455
H2 O19 1.084310 1_555
H2 O28 1.355604 1_555
H3 O6 1.084310 1_555
H3 O25 1.355604 1_655
O0 P7 1.543146 1_545
O0 V0 1.973537 1_555
O1 P0 1.549747 1_555
O1 V3 2.083324 1_455
O2 P1 1.566891 1_555
O2 V3 2.029380 1_555
O3 P0 1.534436 1_555
O4 P2 1.575605 1_565
O4 V3 1.848750 1_455
O5 P2 1.526633 1_555
O5 V0 2.108938 1_555
O6 P1 1.547521 1_555
O7 P0 1.549556 1_555
O7 V0 2.083253 1_555
O8 P3 1.520792 1_545
O8 V0 2.010721 1_555
O9 P2 1.573399 1_555
O10 P1 1.531578 1_555
O10 V0 2.058652 1_555
O11 P1 1.547891 1_555
O11 V1 1.995689 1_655
O12 P3 1.573399 1_555
O13 P2 1.520792 1_565
O13 V1 2.010721 1_555
O14 P3 1.526633 1_555
O14 V1 2.108938 1_655
O15 P3 1.575605 1_545
O15 V2 1.848750 1_555
O16 P4 1.547891 1_555
O16 V0 1.995689 1_555
O17 P4 1.531578 1_555
O17 V1 2.058652 1_555
O18 P5 1.549556 1_555
O18 V1 2.083253 1_655
O19 P4 1.547521 1_555
O20 P6 1.543146 1_565
O20 V1 1.973537 1_555
O21 P6 1.546734 1_555
O21 V2 1.945776 1_555
O22 P5 1.534436 1_555
O23 P4 1.566891 1_555
O23 V2 2.029380 1_555
O24 P7 1.565506 1_544
O24 V2 2.032024 1_555
O25 P6 1.539062 1_556
O26 P5 1.549747 1_555
O26 V2 2.083324 1_555
O27 P5 1.583755 1_555
O27 V3 1.941184 1_554
O28 P7 1.539062 1_554
O29 P6 1.565506 1_566
O29 V3 2.032024 1_455
O30 P7 1.546734 1_555
O30 V3 1.945776 1_555
O31 P0 1.583755 1_555
O31 V2 1.941184 1_556
