# generated using pymatgen
data_Li7VO5F
_symmetry_space_group_name_H-M   'P 1'
_cell_length_a   5.37788543
_cell_length_b   5.92125652
_cell_length_c   5.40291633
_cell_angle_alpha   117.24069531
_cell_angle_beta   119.26166009
_cell_angle_gamma   63.11301559
_symmetry_Int_Tables_number   1
_chemical_formula_structural   Li7VO5F
_chemical_formula_sum   'Li7 V1 O5 F1'
_cell_volume   127.52673538
_cell_formula_units_Z   1
loop_
 _symmetry_equiv_pos_site_id
 _symmetry_equiv_pos_as_xyz
  1  'x, y, z'
loop_
 _atom_site_type_symbol
 _atom_site_label
 _atom_site_symmetry_multiplicity
 _atom_site_fract_x
 _atom_site_fract_y
 _atom_site_fract_z
 _atom_site_occupancy
  Li  Li0  1  0.23385100  0.36844700  0.46152800  1
  Li  Li1  1  0.47277800  0.66818900  0.89943500  1
  Li  Li2  1  0.28950900  0.97248700  0.62303400  1
  Li  Li3  1  0.74481700  0.98578800  0.34677400  1
  Li  Li4  1  0.48505200  0.35692000  0.11258300  1
  Li  Li5  1  0.91255500  0.38634000  0.80640200  1
  Li  Li6  1  0.78287600  0.62645600  0.51442200  1
  V  V0  1  0.95823300  0.01707600  0.97631500  1
  O  O0  1  0.07483600  0.76743800  0.61724200  1
  O  O1  1  0.23570500  0.18155100  0.06606800  1
  O  O2  1  0.61320900  0.25912700  0.77881700  1
  O  O3  1  0.77185300  0.78013000  0.91361300  1
  O  O4  1  0.91177900  0.24019300  0.38477600  1
  F  F0  1  0.40854700  0.74235700  0.24849000  1
loop_
_geom_bond_atom_site_label_1
_geom_bond_atom_site_label_2
_geom_bond_distance
_geom_bond_site_symmetry_2
Li0 O1 1.906890 1_555
Li0 O2 1.980494 1_555
Li0 O4 1.986953 1_455
Li0 O0 2.019176 1_555
Li1 O0 1.934646 1_555
Li1 O3 1.956898 1_555
Li1 O2 2.059978 1_555
Li2 O0 2.001418 1_555
Li2 O4 2.166928 1_465
Li2 O1 2.233004 1_566
Li2 O3 2.339742 1_555
Li2 O2 2.559647 1_565
Li3 O4 1.969167 1_565
Li3 O0 2.018841 1_655
Li3 O3 2.131835 1_554
Li3 O2 2.385331 1_565
Li3 O1 2.412390 1_565
Li4 O1 1.905436 1_555
Li4 O2 1.990066 1_554
Li4 O4 2.025726 1_555
Li5 O1 1.930475 1_656
Li5 O2 1.985115 1_555
Li5 O3 1.985263 1_555
Li5 O4 2.031630 1_555
Li6 O0 1.838217 1_655
Li6 O3 1.939803 1_555
Li6 O4 1.943282 1_555
O0 V0 2.016837 1_465
O1 V0 1.893412 1_454
O2 V0 1.922204 1_555
O3 V0 1.895455 1_565
O4 V0 2.061430 1_554
F0 Li6 1.847553 1_555
F0 Li1 1.900077 1_554
F0 Li4 1.956808 1_555
F0 Li2 2.077209 1_555
F0 V0 2.412206 1_464
F0 Li3 2.519565 1_555
