# generated using pymatgen
data_Li2CaSiO4
_symmetry_space_group_name_H-M   'P 1'
_cell_length_a   4.87726339
_cell_length_b   4.87726339
_cell_length_c   4.87726339
_cell_angle_alpha   117.64062523
_cell_angle_beta   117.64062523
_cell_angle_gamma   94.13756868
_symmetry_Int_Tables_number   1
_chemical_formula_structural   Li2CaSiO4
_chemical_formula_sum   'Li2 Ca1 Si1 O4'
_cell_volume   84.72436341
_cell_formula_units_Z   1
loop_
 _symmetry_equiv_pos_site_id
 _symmetry_equiv_pos_as_xyz
  1  'x, y, z'
loop_
 _atom_site_type_symbol
 _atom_site_label
 _atom_site_symmetry_multiplicity
 _atom_site_fract_x
 _atom_site_fract_y
 _atom_site_fract_z
 _atom_site_occupancy
  Li  Li0  1  0.25000000  0.75000000  0.50000000  1
  Li  Li1  1  0.75000000  0.25000000  0.50000000  1
  Ca  Ca0  1  0.50000000  0.50000000  0.00000000  1
  Si  Si0  1  0.00000000  0.00000000  0.00000000  1
  O  O0  1  0.94792500  0.33160200  0.00000000  1
  O  O1  1  0.33160200  0.94792500  0.00000000  1
  O  O2  1  0.66839800  0.66839800  0.61632200  1
  O  O3  1  0.05207500  0.05207500  0.38367800  1
loop_
_geom_bond_atom_site_label_1
_geom_bond_atom_site_label_2
_geom_bond_distance
_geom_bond_site_symmetry_2
Li0 O3 1.974074 1_565
Li0 O0 1.974076 1_455
Li0 O1 1.974076 1_556
Li0 O2 1.974077 1_555
Li1 O3 1.974074 1_655
Li1 O1 1.974076 1_545
Li1 O0 1.974076 1_556
Li1 O2 1.974077 1_555
Ca0 O2 2.388756 1_555
Ca0 O3 2.388759 1_554
Ca0 O0 2.388761 1_555
Ca0 O1 2.388761 1_555
Ca0 O3 2.757828 1_665
Ca0 O1 2.757829 1_545
Ca0 O0 2.757829 1_455
Ca0 O2 2.757833 1_554
O0 Si0 1.655136 1_655
O1 Si0 1.655136 1_565
O2 Si0 1.655137 1_666
O3 Si0 1.655141 1_555
