# generated using pymatgen
data_Mn6O5F7
_symmetry_space_group_name_H-M   'P 1'
_cell_length_a   4.65680416
_cell_length_b   5.73145498
_cell_length_c   15.66196265
_cell_angle_alpha   90.15645799
_cell_angle_beta   89.15957838
_cell_angle_gamma   89.94451011
_symmetry_Int_Tables_number   1
_chemical_formula_structural   Mn6O5F7
_chemical_formula_sum   'Mn12 O10 F14'
_cell_volume   417.97516851
_cell_formula_units_Z   2
loop_
 _symmetry_equiv_pos_site_id
 _symmetry_equiv_pos_as_xyz
  1  'x, y, z'
loop_
 _atom_site_type_symbol
 _atom_site_label
 _atom_site_symmetry_multiplicity
 _atom_site_fract_x
 _atom_site_fract_y
 _atom_site_fract_z
 _atom_site_occupancy
  Mn  Mn0  1  0.05841100  0.15823300  0.41397000  1
  Mn  Mn1  1  0.00625900  0.84417500  0.24327600  1
  Mn  Mn2  1  0.00268600  0.14814900  0.07716100  1
  Mn  Mn3  1  0.00179500  0.15849400  0.74220300  1
  Mn  Mn4  1  0.02404600  0.86125900  0.57901300  1
  Mn  Mn5  1  0.03682600  0.86046800  0.90898600  1
  Mn  Mn6  1  0.50867400  0.33571400  0.93028100  1
  Mn  Mn7  1  0.49641400  0.33652300  0.58733900  1
  Mn  Mn8  1  0.49452400  0.34379900  0.25109300  1
  Mn  Mn9  1  0.50923200  0.65617000  0.09206700  1
  Mn  Mn10  1  0.48841100  0.65279700  0.42404800  1
  Mn  Mn11  1  0.49793100  0.64842000  0.75210400  1
  O  O0  1  0.23127800  0.10682300  0.30061100  1
  O  O1  1  0.21767900  0.11147400  0.63616900  1
  O  O2  1  0.22333000  0.11849200  0.97034500  1
  O  O3  1  0.21594400  0.88761300  0.13392300  1
  O  O4  1  0.23517000  0.88959800  0.47292300  1
  O  O5  1  0.22507000  0.89097200  0.79963200  1
  O  O6  1  0.29569200  0.39135400  0.48012400  1
  O  O7  1  0.72055200  0.38025800  0.03389200  1
  O  O8  1  0.70722800  0.61678100  0.19862800  1
  O  O9  1  0.70759100  0.37431600  0.69499100  1
  F  F0  1  0.23762900  0.38798000  0.14610700  1
  F  F1  1  0.25046400  0.59705100  0.31170500  1
  F  F2  1  0.25179800  0.60746400  0.64443000  1
  F  F3  1  0.26883800  0.39339300  0.82201600  1
  F  F4  1  0.27602600  0.62487900  0.98358700  1
  F  F5  1  0.74434400  0.38778100  0.36406600  1
  F  F6  1  0.75228900  0.62126800  0.53426800  1
  F  F7  1  0.74324900  0.61254500  0.86663100  1
  F  F8  1  0.76448000  0.87701900  0.35790600  1
  F  F9  1  0.75089800  0.11688400  0.18476800  1
  F  F10  1  0.77308200  0.12700200  0.51728300  1
  F  F11  1  0.76404500  0.87981200  0.01204600  1
  F  F12  1  0.76195700  0.12181500  0.85018900  1
  F  F13  1  0.75615600  0.87322500  0.68222000  1
loop_
_geom_bond_atom_site_label_1
_geom_bond_atom_site_label_2
_geom_bond_distance
_geom_bond_site_symmetry_2
Mn0 O0 1.960038 1_555
Mn0 O4 1.981982 1_545
Mn0 O6 2.026962 1_555
Mn1 O3 1.975470 1_555
Mn1 O8 2.038090 1_455
Mn1 O0 2.047869 1_565
Mn2 O2 1.957314 1_554
Mn2 O7 1.995706 1_455
Mn2 O3 2.009142 1_545
Mn3 O1 1.946611 1_555
Mn3 O9 1.996330 1_455
Mn3 O5 2.067110 1_545
Mn4 O1 1.920996 1_565
Mn4 O4 1.925537 1_555
Mn5 O5 1.921001 1_555
Mn5 O2 1.970801 1_565
Mn6 O2 1.921575 1_555
Mn6 O7 1.928010 1_556
Mn7 O6 1.959727 1_555
Mn7 O9 1.975806 1_555
Mn7 O1 1.978121 1_555
Mn8 O0 1.982451 1_555
Mn8 O8 2.022474 1_555
Mn9 O8 1.932177 1_555
Mn9 O3 2.005044 1_555
Mn9 O7 2.064495 1_555
Mn10 O4 1.945113 1_555
Mn10 O6 1.951611 1_555
Mn11 O5 2.016048 1_555
Mn11 O9 2.045778 1_555
F0 Mn8 2.063577 1_555
F0 Mn2 2.069296 1_555
F0 Mn9 2.158303 1_555
F1 Mn8 2.063344 1_555
F1 Mn10 2.116743 1_555
F1 Mn1 2.118708 1_555
F2 Mn11 2.065870 1_555
F2 Mn4 2.080268 1_555
F2 Mn7 2.113693 1_555
F3 Mn6 2.071180 1_555
F3 Mn11 2.109757 1_555
F3 Mn3 2.227384 1_555
F4 Mn9 2.037406 1_556
F4 Mn5 2.114958 1_555
F4 Mn6 2.140084 1_555
F5 Mn0 2.125154 1_655
F5 Mn10 2.136819 1_555
F5 Mn8 2.146200 1_555
F6 Mn4 2.002191 1_655
F6 Mn10 2.141531 1_555
F6 Mn7 2.180884 1_555
F7 Mn5 2.086490 1_655
F7 Mn11 2.150917 1_555
F7 Mn6 2.164380 1_555
F8 Mn10 2.085381 1_555
F8 Mn1 2.113004 1_655
F8 Mn0 2.296553 1_665
F9 Mn8 2.036932 1_555
F9 Mn2 2.047286 1_655
F9 Mn1 2.175553 1_645
F10 Mn7 2.062578 1_555
F10 Mn0 2.086794 1_655
F10 Mn4 2.158268 1_645
F11 Mn5 2.042037 1_654
F11 Mn9 2.142398 1_555
F11 Mn2 2.160640 1_665
F12 Mn3 2.024599 1_655
F12 Mn6 2.100730 1_555
F12 Mn5 2.183699 1_645
F13 Mn4 2.028272 1_655
F13 Mn11 2.067900 1_555
F13 Mn3 2.211575 1_665
