# generated using pymatgen
data_Y2Th5O13
_symmetry_space_group_name_H-M   'P 1'
_cell_length_a   22.82254973
_cell_length_b   22.82254973
_cell_length_c   22.82254931
_cell_angle_alpha   9.86381215
_cell_angle_beta   9.86381215
_cell_angle_gamma   9.86381049
_symmetry_Int_Tables_number   1
_chemical_formula_structural   Y2Th5O13
_chemical_formula_sum   'Y2 Th5 O13'
_cell_volume   302.86139991
_cell_formula_units_Z   1
loop_
 _symmetry_equiv_pos_site_id
 _symmetry_equiv_pos_as_xyz
  1  'x, y, z'
loop_
 _atom_site_type_symbol
 _atom_site_label
 _atom_site_symmetry_multiplicity
 _atom_site_fract_x
 _atom_site_fract_y
 _atom_site_fract_z
 _atom_site_occupancy
  Y  Y0  1  0.99935800  0.99935800  0.99935800  1
  Y  Y1  1  0.71606700  0.71606700  0.71606700  1
  Th  Th0  1  0.42734200  0.42734200  0.42734200  1
  Th  Th1  1  0.14216500  0.14216500  0.14216500  1
  Th  Th2  1  0.85670000  0.85670000  0.85670000  1
  Th  Th3  1  0.28594000  0.28594000  0.28594000  1
  Th  Th4  1  0.57129900  0.57129900  0.57129900  1
  O  O0  1  0.39216400  0.39216400  0.39216400  1
  O  O1  1  0.03045000  0.03045000  0.03045000  1
  O  O2  1  0.10692900  0.10692900  0.10692900  1
  O  O3  1  0.46419600  0.46419600  0.46419600  1
  O  O4  1  0.74943300  0.74943300  0.74943300  1
  O  O5  1  0.82162100  0.82162100  0.82162100  1
  O  O6  1  0.17868900  0.17868900  0.17868900  1
  O  O7  1  0.25081400  0.25081400  0.25081400  1
  O  O8  1  0.53610400  0.53610400  0.53610400  1
  O  O9  1  0.89322000  0.89322000  0.89322000  1
  O  O10  1  0.60774400  0.60774400  0.60774400  1
  O  O11  1  0.32635600  0.32635600  0.32635600  1
  O  O12  1  0.96483000  0.96483000  0.96483000  1
loop_
_geom_bond_atom_site_label_1
_geom_bond_atom_site_label_2
_geom_bond_distance
_geom_bond_site_symmetry_2
O0 Y1 2.354967 1_455
O0 Y1 2.354967 1_545
O0 Y1 2.354967 1_554
O0 Th0 2.396658 1_555
O1 Y0 2.118281 1_444
O1 Y1 2.607674 1_544
O1 Y1 2.607674 1_454
O1 Y1 2.607674 1_445
O2 Th1 2.400609 1_555
O2 Th0 2.430624 1_545
O2 Th0 2.430624 1_455
O2 Th0 2.430624 1_554
O3 Th1 2.392910 1_565
O3 Th1 2.392910 1_655
O3 Th1 2.392910 1_556
O3 Th0 2.510843 1_555
O4 Y1 2.273207 1_555
O4 Th0 2.391598 1_655
O4 Th0 2.391598 1_565
O4 Th0 2.391598 1_556
O5 Th2 2.389913 1_555
O5 Th1 2.427406 1_566
O5 Th1 2.427406 1_656
O5 Th1 2.427406 1_665
O6 Th2 2.393832 1_454
O6 Th2 2.393832 1_544
O6 Th2 2.393832 1_445
O6 Th1 2.488360 1_555
O7 Th3 2.393115 1_555
O7 Th4 2.428852 1_455
O7 Th4 2.428852 1_545
O7 Th4 2.428852 1_554
O8 Th4 2.397816 1_555
O8 Th2 2.426137 1_455
O8 Th2 2.426137 1_545
O8 Th2 2.426137 1_554
O9 Th4 2.395332 1_655
O9 Th4 2.395332 1_565
O9 Th4 2.395332 1_556
O9 Th2 2.488087 1_555
O10 Th3 2.397931 1_655
O10 Th3 2.397931 1_565
O10 Th3 2.397931 1_556
O10 Th4 2.482978 1_555
O11 Y0 2.306379 1_454
O11 Y0 2.306379 1_544
O11 Y0 2.306379 1_445
O11 Th3 2.753520 1_555
O12 Y0 2.352373 1_555
O12 Th3 2.413833 1_566
O12 Th3 2.413833 1_656
O12 Th3 2.413833 1_665
