# generated using pymatgen
data_Li2MnCo3O8
_symmetry_space_group_name_H-M   'P 1'
_cell_length_a   5.80633935
_cell_length_b   5.80633935
_cell_length_c   5.80633872
_cell_angle_alpha   60.13427700
_cell_angle_beta   60.13427700
_cell_angle_gamma   60.13427828
_symmetry_Int_Tables_number   1
_chemical_formula_structural   Li2MnCo3O8
_chemical_formula_sum   'Li2 Mn1 Co3 O8'
_cell_volume   138.83892374
_cell_formula_units_Z   1
loop_
 _symmetry_equiv_pos_site_id
 _symmetry_equiv_pos_as_xyz
  1  'x, y, z'
loop_
 _atom_site_type_symbol
 _atom_site_label
 _atom_site_symmetry_multiplicity
 _atom_site_fract_x
 _atom_site_fract_y
 _atom_site_fract_z
 _atom_site_occupancy
  Li  Li0  1  0.87467500  0.87467500  0.87467500  1
  Li  Li1  1  0.12532500  0.12532500  0.12532500  1
  Mn  Mn0  1  0.50000000  0.50000000  0.50000000  1
  Co  Co0  1  0.50000000  0.00000000  0.50000000  1
  Co  Co1  1  0.00000000  0.50000000  0.50000000  1
  Co  Co2  1  0.50000000  0.50000000  0.00000000  1
  O  O0  1  0.29026500  0.73430500  0.73430500  1
  O  O1  1  0.73430500  0.29026500  0.73430500  1
  O  O2  1  0.26189500  0.26189500  0.26189500  1
  O  O3  1  0.73430500  0.73430500  0.29026500  1
  O  O4  1  0.26569500  0.26569500  0.70973500  1
  O  O5  1  0.73810500  0.73810500  0.73810500  1
  O  O6  1  0.26569500  0.70973500  0.26569500  1
  O  O7  1  0.70973500  0.26569500  0.26569500  1
loop_
_geom_bond_atom_site_label_1
_geom_bond_atom_site_label_2
_geom_bond_distance
_geom_bond_site_symmetry_2
Li0 O5 1.940403 1_555
Li0 O3 1.973706 1_556
Li0 O1 1.973706 1_565
Li0 O0 1.973706 1_655
Li1 O2 1.940403 1_555
Li1 O4 1.973706 1_554
Li1 O6 1.973706 1_545
Li1 O7 1.973706 1_455
Mn0 O1 1.930794 1_555
Mn0 O6 1.930794 1_555
Mn0 O7 1.930794 1_555
Mn0 O0 1.930794 1_555
Mn0 O3 1.930794 1_555
Mn0 O4 1.930794 1_555
Co0 O4 1.960768 1_555
Co0 O3 1.960768 1_545
Co0 O0 1.960768 1_545
Co0 O7 1.960768 1_555
Co0 O5 1.962425 1_545
Co0 O2 1.962425 1_555
Co1 O3 1.960768 1_455
Co1 O4 1.960768 1_555
Co1 O1 1.960768 1_455
Co1 O6 1.960768 1_555
Co1 O5 1.962425 1_455
Co1 O2 1.962425 1_555
Co2 O7 1.960768 1_555
Co2 O1 1.960768 1_554
Co2 O0 1.960768 1_554
Co2 O6 1.960768 1_555
Co2 O5 1.962425 1_554
Co2 O2 1.962425 1_555
