# generated using pymatgen
data_K2Ge2O5
_symmetry_space_group_name_H-M   'P 1'
_cell_length_a   10.36852386
_cell_length_b   10.36852386
_cell_length_c   10.41420469
_cell_angle_alpha   68.55083916
_cell_angle_beta   68.55083916
_cell_angle_gamma   69.21002428
_symmetry_Int_Tables_number   1
_chemical_formula_structural   K2Ge2O5
_chemical_formula_sum   'K12 Ge12 O30'
_cell_volume   937.72341811
_cell_formula_units_Z   6
loop_
 _symmetry_equiv_pos_site_id
 _symmetry_equiv_pos_as_xyz
  1  'x, y, z'
loop_
 _atom_site_type_symbol
 _atom_site_label
 _atom_site_symmetry_multiplicity
 _atom_site_fract_x
 _atom_site_fract_y
 _atom_site_fract_z
 _atom_site_occupancy
  K  K0  1  0.36905400  0.31154600  0.03671800  1
  K  K1  1  0.56660400  0.03544000  0.21549500  1
  K  K2  1  0.31154600  0.36905400  0.53671800  1
  K  K3  1  0.03544000  0.56660400  0.71549500  1
  K  K4  1  0.71810900  0.16352400  0.37960700  1
  K  K5  1  0.38426400  0.89481300  0.06714500  1
  K  K6  1  0.16352400  0.71810900  0.87960700  1
  K  K7  1  0.32581900  0.85899400  0.47221400  1
  K  K8  1  0.89481300  0.38426400  0.56714500  1
  K  K9  1  0.85899400  0.32581900  0.97221400  1
  K  K10  1  0.79615500  0.76395900  0.48073300  1
  K  K11  1  0.76395900  0.79615500  0.98073300  1
  Ge  Ge0  1  0.09058600  0.12377400  0.27593600  1
  Ge  Ge1  1  0.12377400  0.09058600  0.77593600  1
  Ge  Ge2  1  0.15325400  0.61231300  0.26610000  1
  Ge  Ge3  1  0.99841400  0.95784400  0.12315600  1
  Ge  Ge4  1  0.52058100  0.47959500  0.17822800  1
  Ge  Ge5  1  0.61231300  0.15325400  0.76610000  1
  Ge  Ge6  1  0.95784400  0.99841400  0.62315600  1
  Ge  Ge7  1  0.47959500  0.52058100  0.67822800  1
  Ge  Ge8  1  0.63935700  0.60833700  0.33344400  1
  Ge  Ge9  1  0.97311400  0.47768700  0.17292200  1
  Ge  Ge10  1  0.60833700  0.63935700  0.83344400  1
  Ge  Ge11  1  0.47768700  0.97311400  0.67292200  1
  O  O0  1  0.06464800  0.09715400  0.12467200  1
  O  O1  1  0.00018300  0.00605100  0.43471300  1
  O  O2  1  0.09715400  0.06464800  0.62467200  1
  O  O3  1  0.26958300  0.09522100  0.24945200  1
  O  O4  1  0.00605100  0.00018300  0.93471300  1
  O  O5  1  0.13719600  0.51676700  0.15875200  1
  O  O6  1  0.09522100  0.26958300  0.74945200  1
  O  O7  1  0.05570900  0.57893300  0.43986700  1
  O  O8  1  0.56356500  0.31515300  0.15052500  1
  O  O9  1  0.14051400  0.79376300  0.14918400  1
  O  O10  1  0.51676700  0.13719600  0.65875200  1
  O  O11  1  0.33881200  0.55348600  0.26585700  1
  O  O12  1  0.57893300  0.05570900  0.93986700  1
  O  O13  1  0.57910800  0.61663500  0.02217800  1
  O  O14  1  0.31515300  0.56356500  0.65052500  1
  O  O15  1  0.60895700  0.45732100  0.31075900  1
  O  O16  1  0.79376300  0.14051400  0.64918400  1
  O  O17  1  0.55348600  0.33881200  0.76585700  1
  O  O18  1  0.97149300  0.29855600  0.29058800  1
  O  O19  1  0.61663500  0.57910800  0.52217800  1
  O  O20  1  0.54729800  0.77120100  0.25249100  1
  O  O21  1  0.96191500  0.51635200  0.00354300  1
  O  O22  1  0.45732100  0.60895700  0.81075900  1
  O  O23  1  0.83131200  0.58946700  0.27816200  1
  O  O24  1  0.29855600  0.97149300  0.79058800  1
  O  O25  1  0.77120100  0.54729800  0.75249100  1
  O  O26  1  0.51635200  0.96191500  0.50354300  1
  O  O27  1  0.58946700  0.83131200  0.77816200  1
  O  O28  1  0.83104200  0.95823600  0.23126000  1
  O  O29  1  0.95823600  0.83104200  0.73126000  1
loop_
_geom_bond_atom_site_label_1
_geom_bond_atom_site_label_2
_geom_bond_distance
_geom_bond_site_symmetry_2
K0 O8 2.703275 1_555
K0 O3 2.709197 1_555
K0 O17 2.747581 1_554
K0 O5 2.834457 1_555
K0 O12 3.007178 1_554
K0 O22 3.317477 1_554
K1 O28 2.619240 1_545
K1 O20 2.693652 1_545
K1 O26 2.705135 1_545
K1 O8 2.717645 1_555
K1 O12 2.758531 1_554
K1 O3 2.828839 1_555
K2 O14 2.703275 1_555
K2 O6 2.709197 1_555
K2 O11 2.747581 1_555
K2 O10 2.834457 1_555
K2 O7 3.007178 1_555
K2 O15 3.317477 1_555
K3 O29 2.619240 1_455
K3 O25 2.693652 1_455
K3 O21 2.705135 1_456
K3 O14 2.717645 1_555
K3 O7 2.758531 1_555
K3 O6 2.828839 1_555
K4 O28 2.757022 1_545
K4 O15 2.761017 1_555
K4 O10 2.875665 1_555
K4 O1 2.949809 1_655
K4 O8 2.999223 1_555
K4 O16 3.088976 1_555
K4 O26 3.093241 1_545
K4 O18 3.098806 1_555
K5 O20 2.695368 1_555
K5 O12 2.725905 1_564
K5 O9 2.803747 1_555
K5 O13 2.962985 1_555
K5 O3 2.969265 1_565
K5 O24 3.067988 1_554
K5 O27 3.128798 1_554
K5 O0 3.205361 1_565
K6 O29 2.757022 1_455
K6 O22 2.761017 1_555
K6 O5 2.875665 1_556
K6 O4 2.949809 1_565
K6 O14 2.999223 1_555
K6 O9 3.088976 1_556
K6 O21 3.093241 1_456
K6 O24 3.098806 1_555
K7 O26 2.714888 1_555
K7 O20 2.744910 1_555
K7 O3 2.746064 1_565
K7 O14 2.962051 1_555
K7 O2 2.970358 1_565
K8 O25 2.695368 1_555
K8 O7 2.725905 1_655
K8 O16 2.803747 1_555
K8 O19 2.962985 1_555
K8 O6 2.969265 1_655
K8 O18 3.067988 1_555
K8 O23 3.128798 1_555
K8 O2 3.205361 1_655
K9 O21 2.714888 1_556
K9 O25 2.744910 1_555
K9 O6 2.746064 1_655
K9 O8 2.962051 1_556
K9 O0 2.970358 1_656
K10 O28 2.634559 1_555
K10 O7 2.682997 1_655
K10 O26 2.882936 1_555
K10 O25 2.889726 1_555
K10 O19 2.943535 1_555
K10 O23 3.101202 1_555
K10 O27 3.215527 1_555
K11 O29 2.634559 1_555
K11 O12 2.682997 1_565
K11 O21 2.882936 1_556
K11 O20 2.889726 1_556
K11 O13 2.943535 1_556
K11 O27 3.101202 1_555
K11 O23 3.215527 1_556
Ge0 O3 1.703969 1_555
Ge0 O1 1.818035 1_555
Ge0 O18 1.818821 1_455
Ge0 O0 1.819502 1_555
Ge1 O6 1.703969 1_555
Ge1 O4 1.818035 1_555
Ge1 O24 1.818821 1_545
Ge1 O2 1.819502 1_555
Ge2 O7 1.693927 1_555
Ge2 O11 1.799494 1_555
Ge2 O9 1.818075 1_555
Ge2 O5 1.822678 1_555
Ge3 O28 1.687769 1_555
Ge3 O0 1.813028 1_665
Ge3 O9 1.820451 1_655
Ge3 O4 1.825180 1_664
Ge4 O8 1.707408 1_555
Ge4 O11 1.788919 1_555
Ge4 O13 1.797312 1_555
Ge4 O15 1.827447 1_555
Ge5 O12 1.693927 1_555
Ge5 O17 1.799494 1_555
Ge5 O16 1.818075 1_555
Ge5 O10 1.822678 1_555
Ge6 O29 1.687769 1_555
Ge6 O2 1.813028 1_665
Ge6 O16 1.820451 1_565
Ge6 O1 1.825180 1_665
Ge7 O14 1.707408 1_555
Ge7 O17 1.788919 1_555
Ge7 O19 1.797312 1_555
Ge7 O22 1.827447 1_555
Ge8 O20 1.696036 1_555
Ge8 O15 1.811712 1_555
Ge8 O19 1.813002 1_555
Ge8 O23 1.816292 1_555
Ge9 O21 1.698611 1_555
Ge9 O23 1.801941 1_555
Ge9 O18 1.814967 1_555
Ge9 O5 1.828216 1_655
Ge10 O25 1.696036 1_555
Ge10 O22 1.811712 1_555
Ge10 O13 1.813002 1_556
Ge10 O27 1.816292 1_555
Ge11 O26 1.698611 1_555
Ge11 O27 1.801941 1_555
Ge11 O24 1.814967 1_555
Ge11 O10 1.828216 1_565
