# generated using pymatgen
data_Li3Ti4VO8
_symmetry_space_group_name_H-M   'P 1'
_cell_length_a   5.93665783
_cell_length_b   5.93665783
_cell_length_c   5.99918136
_cell_angle_alpha   59.84848516
_cell_angle_beta   59.84848516
_cell_angle_gamma   59.43976766
_symmetry_Int_Tables_number   1
_chemical_formula_structural   Li3Ti4VO8
_chemical_formula_sum   'Li3 Ti4 V1 O8'
_cell_volume   148.52461176
_cell_formula_units_Z   1
loop_
 _symmetry_equiv_pos_site_id
 _symmetry_equiv_pos_as_xyz
  1  'x, y, z'
loop_
 _atom_site_type_symbol
 _atom_site_label
 _atom_site_symmetry_multiplicity
 _atom_site_fract_x
 _atom_site_fract_y
 _atom_site_fract_z
 _atom_site_occupancy
  Li  Li0  1  0.00000000  0.50000000  0.00000000  1
  Li  Li1  1  0.00000000  0.00000000  0.00000000  1
  Li  Li2  1  0.50000000  0.00000000  0.00000000  1
  Ti  Ti0  1  0.50000000  0.50000000  0.00000000  1
  Ti  Ti1  1  0.00000000  0.00000000  0.50000000  1
  Ti  Ti2  1  0.00000000  0.50000000  0.50000000  1
  Ti  Ti3  1  0.50000000  0.00000000  0.50000000  1
  V  V0  1  0.50000000  0.50000000  0.50000000  1
  O  O0  1  0.74999100  0.74999100  0.75763900  1
  O  O1  1  0.24816100  0.75430300  0.24514600  1
  O  O2  1  0.75061000  0.75061000  0.26590100  1
  O  O3  1  0.24569700  0.75183900  0.75485400  1
  O  O4  1  0.75430300  0.24816100  0.24514600  1
  O  O5  1  0.24939000  0.24939000  0.73409900  1
  O  O6  1  0.75183900  0.24569700  0.75485400  1
  O  O7  1  0.25000900  0.25000900  0.24236100  1
loop_
_geom_bond_atom_site_label_1
_geom_bond_atom_site_label_2
_geom_bond_distance
_geom_bond_site_symmetry_2
Li0 O7 2.068749 1_555
Li0 O0 2.068749 1_454
Li0 O3 2.092724 1_554
Li0 O4 2.092724 1_455
Li0 O2 2.172974 1_455
Li0 O5 2.172974 1_554
Li1 O3 2.073000 1_544
Li1 O6 2.073000 1_454
Li1 O4 2.073000 1_455
Li1 O1 2.073000 1_545
Li1 O5 2.100609 1_554
Li1 O2 2.100609 1_445
Li2 O7 2.068749 1_555
Li2 O0 2.068749 1_544
Li2 O1 2.092724 1_545
Li2 O6 2.092724 1_554
Li2 O2 2.172974 1_545
Li2 O5 2.172974 1_554
O0 Ti0 2.103218 1_556
O0 Ti1 2.103754 1_665
O0 Ti3 2.134088 1_565
O0 Ti2 2.134088 1_655
O1 Ti0 2.098507 1_555
O1 Ti1 2.104268 1_565
O1 Ti2 2.113631 1_555
O1 V0 2.129402 1_555
O2 Ti3 2.031677 1_565
O2 Ti2 2.031677 1_655
O2 V0 2.110029 1_555
O3 Ti0 2.098507 1_556
O3 Ti1 2.104268 1_565
O3 Ti3 2.113631 1_565
O3 V0 2.129402 1_555
O4 Ti0 2.098507 1_555
O4 Ti1 2.104268 1_655
O4 Ti3 2.113631 1_555
O4 V0 2.129402 1_555
O5 Ti3 2.031677 1_555
O5 Ti2 2.031677 1_555
O5 V0 2.110029 1_555
O6 Ti0 2.098507 1_556
O6 Ti1 2.104268 1_655
O6 Ti2 2.113631 1_655
O6 V0 2.129402 1_555
O7 Ti0 2.103218 1_555
O7 Ti1 2.103754 1_555
O7 Ti2 2.134088 1_555
O7 Ti3 2.134088 1_555
