# generated using pymatgen
data_LiVO2
_symmetry_space_group_name_H-M   'P 1'
_cell_length_a   4.09956400
_cell_length_b   4.20012164
_cell_length_c   5.27857782
_cell_angle_alpha   113.43880233
_cell_angle_beta   112.73357104
_cell_angle_gamma   90.05063710
_symmetry_Int_Tables_number   1
_chemical_formula_structural   LiVO2
_chemical_formula_sum   'Li2 V2 O4'
_cell_volume   75.61738445
_cell_formula_units_Z   2
loop_
 _symmetry_equiv_pos_site_id
 _symmetry_equiv_pos_as_xyz
  1  'x, y, z'
loop_
 _atom_site_type_symbol
 _atom_site_label
 _atom_site_symmetry_multiplicity
 _atom_site_fract_x
 _atom_site_fract_y
 _atom_site_fract_z
 _atom_site_occupancy
  Li  Li0  1  0.62453200  0.62573400  0.75276200  1
  Li  Li1  1  0.37829600  0.88268000  0.24848000  1
  V  V0  1  0.12058100  0.13788800  0.74417300  1
  V  V1  1  0.88024100  0.37607600  0.25330500  1
  O  O0  1  0.10425300  0.68925000  0.70960400  1
  O  O1  1  0.64071700  0.07960400  0.78236500  1
  O  O2  1  0.89637500  0.82509200  0.28746700  1
  O  O3  1  0.35999000  0.43447000  0.21483300  1
loop_
_geom_bond_atom_site_label_1
_geom_bond_atom_site_label_2
_geom_bond_distance
_geom_bond_site_symmetry_2
Li0 O1 1.848681 1_565
Li0 O0 2.084755 1_555
Li0 O0 2.093912 1_655
Li0 O1 2.359619 1_555
Li0 O2 2.365712 1_556
Li0 O3 2.384943 1_555
Li1 O3 1.817850 1_555
Li1 O2 2.077133 1_555
Li1 O2 2.087370 1_455
Li1 O1 2.363113 1_565
Li1 O0 2.388177 1_554
Li1 O3 2.392874 1_565
O0 V0 1.818045 1_565
O0 V1 2.035386 1_455
O0 V0 2.393252 1_555
O1 V0 2.077380 1_655
O1 V1 2.084005 1_556
O1 V0 2.086945 1_555
O2 V1 1.820331 1_555
O2 V0 2.036720 1_665
O2 V1 2.390701 1_565
O3 V1 2.077742 1_455
O3 V0 2.082914 1_554
O3 V1 2.087110 1_555
