# generated using pymatgen
data_Na2TlPCO7
_symmetry_space_group_name_H-M   'P 1'
_cell_length_a   6.96491400
_cell_length_b   5.25850600
_cell_length_c   9.19288662
_cell_angle_alpha   89.97887765
_cell_angle_beta   90.00000000
_cell_angle_gamma   90.00000000
_symmetry_Int_Tables_number   1
_chemical_formula_structural   Na2TlPCO7
_chemical_formula_sum   'Na4 Tl2 P2 C2 O14'
_cell_volume   336.68983639
_cell_formula_units_Z   2
loop_
 _symmetry_equiv_pos_site_id
 _symmetry_equiv_pos_as_xyz
  1  'x, y, z'
loop_
 _atom_site_type_symbol
 _atom_site_label
 _atom_site_symmetry_multiplicity
 _atom_site_fract_x
 _atom_site_fract_y
 _atom_site_fract_z
 _atom_site_occupancy
  Na  Na0  1  0.50156200  0.22731500  0.21685200  1
  Na  Na1  1  0.99843800  0.22731500  0.21685200  1
  Na  Na2  1  0.49843800  0.77268500  0.78314800  1
  Na  Na3  1  0.00156200  0.77268500  0.78314800  1
  Tl  Tl0  1  0.25000000  0.76651000  0.36821000  1
  Tl  Tl1  1  0.75000000  0.23349000  0.63179000  1
  P  P0  1  0.75000000  0.71569300  0.41611200  1
  P  P1  1  0.25000000  0.28430700  0.58388800  1
  C  C0  1  0.25000000  0.72988900  0.07008000  1
  C  C1  1  0.75000000  0.27011100  0.92992000  1
  O  O0  1  0.75000000  0.29672100  0.06683900  1
  O  O1  1  0.25000000  0.95245100  0.13412000  1
  O  O2  1  0.25000000  0.52891300  0.15843400  1
  O  O3  1  0.92845300  0.82209500  0.33620100  1
  O  O4  1  0.57154700  0.82209500  0.33620100  1
  O  O5  1  0.25000000  0.20626700  0.41997600  1
  O  O6  1  0.75000000  0.41413700  0.41169100  1
  O  O7  1  0.25000000  0.58586300  0.58830900  1
  O  O8  1  0.75000000  0.79373300  0.58002400  1
  O  O9  1  0.42845300  0.17790500  0.66379900  1
  O  O10  1  0.07154700  0.17790500  0.66379900  1
  O  O11  1  0.75000000  0.47108700  0.84156600  1
  O  O12  1  0.75000000  0.04754900  0.86588000  1
  O  O13  1  0.25000000  0.70327900  0.93316100  1
loop_
_geom_bond_atom_site_label_1
_geom_bond_atom_site_label_2
_geom_bond_distance
_geom_bond_site_symmetry_2
Na0 O0 2.242483 1_555
Na0 O1 2.395460 1_545
Na0 O2 2.423408 1_555
Na0 O4 2.445438 1_545
Na0 O5 2.562962 1_555
Na0 O6 2.677439 1_555
Na1 O0 2.242483 1_555
Na1 O1 2.395460 1_645
Na1 O2 2.423408 1_655
Na1 O3 2.445438 1_545
Na1 O5 2.562962 1_655
Na1 O6 2.677439 1_555
Na2 O13 2.242483 1_555
Na2 O12 2.395460 1_565
Na2 O11 2.423408 1_555
Na2 O9 2.445438 1_565
Na2 O8 2.562962 1_555
Na2 O7 2.677439 1_555
Na3 O13 2.242483 1_555
Na3 O12 2.395460 1_465
Na3 O11 2.423408 1_455
Na3 O10 2.445438 1_565
Na3 O8 2.562962 1_455
Na3 O7 2.677439 1_555
C0 O13 1.266486 1_554
C0 O1 1.310265 1_555
C0 O2 1.332659 1_555
C1 O0 1.266486 1_556
C1 O12 1.310265 1_555
C1 O11 1.332659 1_555
O1 Tl0 2.363352 1_555
O2 Tl0 2.298194 1_555
O3 P0 1.548301 1_555
O3 Tl0 2.277615 1_655
O4 P0 1.548301 1_555
O4 Tl0 2.277615 1_555
O5 P1 1.561852 1_555
O5 Tl0 2.361094 1_545
O6 P0 1.586270 1_555
O6 Tl1 2.234923 1_555
O7 P1 1.586270 1_555
O7 Tl0 2.234923 1_555
O8 P0 1.561852 1_555
O8 Tl1 2.361094 1_565
O9 P1 1.548301 1_555
O9 Tl1 2.277615 1_555
O10 P1 1.548301 1_555
O10 Tl1 2.277615 1_455
O11 Tl1 2.298194 1_555
O12 Tl1 2.363352 1_555
