# generated using pymatgen
data_ZrOF4
_symmetry_space_group_name_H-M   'P 1'
_cell_length_a   8.09134770
_cell_length_b   8.09134770
_cell_length_c   8.09134770
_cell_angle_alpha   119.26688470
_cell_angle_beta   119.26688470
_cell_angle_gamma   91.27455356
_symmetry_Int_Tables_number   1
_chemical_formula_structural   ZrOF4
_chemical_formula_sum   'Zr4 O4 F16'
_cell_volume   378.63196193
_cell_formula_units_Z   4
loop_
 _symmetry_equiv_pos_site_id
 _symmetry_equiv_pos_as_xyz
  1  'x, y, z'
loop_
 _atom_site_type_symbol
 _atom_site_label
 _atom_site_symmetry_multiplicity
 _atom_site_fract_x
 _atom_site_fract_y
 _atom_site_fract_z
 _atom_site_occupancy
  Zr  Zr0  1  0.87500000  0.26678700  0.89178700  1
  Zr  Zr1  1  0.37500000  0.98321300  0.10821300  1
  Zr  Zr2  1  0.01678700  0.12500000  0.39178700  1
  Zr  Zr3  1  0.73321300  0.62500000  0.60821300  1
  O  O0  1  0.15063600  0.15063600  0.00000000  1
  O  O1  1  0.59936400  0.09936400  0.50000000  1
  O  O2  1  0.84936400  0.84936400  0.00000000  1
  O  O3  1  0.90063600  0.40063600  0.50000000  1
  F  F0  1  0.11473700  0.50109000  0.16401700  1
  F  F1  1  0.63526300  0.29928000  0.88635300  1
  F  F2  1  0.33707300  0.95072000  0.83598300  1
  F  F3  1  0.41292700  0.74891000  0.11364700  1
  F  F4  1  0.04928000  0.88526300  0.38635300  1
  F  F5  1  0.70072000  0.58707300  0.33598300  1
  F  F6  1  0.49891000  0.66292700  0.61364700  1
  F  F7  1  0.25109000  0.36473700  0.66401700  1
  F  F8  1  0.81459400  0.47505300  0.78342700  1
  F  F9  1  0.93540600  0.21883300  0.16045900  1
  F  F10  1  0.69162600  0.03116700  0.21657300  1
  F  F11  1  0.05837400  0.77494700  0.83954100  1
  F  F12  1  0.96883300  0.18540600  0.66045900  1
  F  F13  1  0.78116700  0.94162600  0.71657300  1
  F  F14  1  0.52494700  0.30837400  0.33954100  1
  F  F15  1  0.22505300  0.06459400  0.28342700  1
loop_
_geom_bond_atom_site_label_1
_geom_bond_atom_site_label_2
_geom_bond_distance
_geom_bond_site_symmetry_2
O0 Zr1 2.369067 1_545
O0 Zr0 2.369067 1_454
O1 Zr0 2.369067 1_555
O1 Zr1 2.369067 1_545
O2 Zr2 2.369067 1_665
O2 Zr3 2.369067 1_554
O3 Zr3 2.369067 1_555
O3 Zr2 2.369067 1_655
F0 Zr0 1.945369 1_454
F1 Zr0 1.945369 1_555
F2 Zr1 1.945369 1_556
F3 Zr1 1.945369 1_555
F4 Zr2 1.945369 1_565
F5 Zr3 1.945369 1_555
F6 Zr3 1.945369 1_555
F7 Zr2 1.945369 1_555
F8 Zr3 2.172588 1_555
F8 Zr0 2.215772 1_555
F9 Zr2 2.172588 1_655
F9 Zr0 2.215772 1_554
F10 Zr2 2.172588 1_655
F10 Zr1 2.215772 1_545
F11 Zr3 2.172588 1_455
F11 Zr1 2.215772 1_556
F12 Zr0 2.172588 1_555
F12 Zr2 2.215772 1_655
F13 Zr0 2.172588 1_565
F13 Zr3 2.215772 1_555
F14 Zr1 2.172588 1_545
F14 Zr3 2.215772 1_555
F15 Zr1 2.172588 1_545
F15 Zr2 2.215772 1_555
