# generated using pymatgen
data_Li2FeF4
_symmetry_space_group_name_H-M   'P 1'
_cell_length_a   7.12972700
_cell_length_b   10.05541900
_cell_length_c   10.21522415
_cell_angle_alpha   62.18278409
_cell_angle_beta   90.00000000
_cell_angle_gamma   90.00000000
_symmetry_Int_Tables_number   1
_chemical_formula_structural   Li2FeF4
_chemical_formula_sum   'Li16 Fe8 F32'
_cell_volume   647.72363032
_cell_formula_units_Z   8
loop_
 _symmetry_equiv_pos_site_id
 _symmetry_equiv_pos_as_xyz
  1  'x, y, z'
loop_
 _atom_site_type_symbol
 _atom_site_label
 _atom_site_symmetry_multiplicity
 _atom_site_fract_x
 _atom_site_fract_y
 _atom_site_fract_z
 _atom_site_occupancy
  Li  Li0  1  0.99307300  0.92617600  0.65648100  1
  Li  Li1  1  0.62693200  0.56920400  0.87417200  1
  Li  Li2  1  0.58990700  0.92951300  0.64447200  1
  Li  Li3  1  0.02236000  0.57375600  0.84557700  1
  Li  Li4  1  0.50692700  0.42617600  0.65648100  1
  Li  Li5  1  0.87306800  0.06920400  0.87417200  1
  Li  Li6  1  0.91009300  0.42951300  0.64447200  1
  Li  Li7  1  0.47764000  0.07375600  0.84557700  1
  Li  Li8  1  0.52236000  0.92624400  0.15442300  1
  Li  Li9  1  0.08990700  0.57048700  0.35552800  1
  Li  Li10  1  0.12693200  0.93079600  0.12582800  1
  Li  Li11  1  0.49307300  0.57382400  0.34351900  1
  Li  Li12  1  0.97764000  0.42624400  0.15442300  1
  Li  Li13  1  0.41009300  0.07048700  0.35552800  1
  Li  Li14  1  0.37306800  0.43079600  0.12582800  1
  Li  Li15  1  0.00692700  0.07382400  0.34351900  1
  Fe  Fe0  1  0.28808900  0.76044300  0.97915700  1
  Fe  Fe1  1  0.21191100  0.26044300  0.97915700  1
  Fe  Fe2  1  0.21250700  0.74736800  0.51684700  1
  Fe  Fe3  1  0.71250700  0.75263200  0.48315300  1
  Fe  Fe4  1  0.28749300  0.24736800  0.51684700  1
  Fe  Fe5  1  0.78749300  0.25263200  0.48315300  1
  Fe  Fe6  1  0.78808900  0.73955700  0.02084300  1
  Fe  Fe7  1  0.71191100  0.23955700  0.02084300  1
  F  F0  1  0.03340200  0.88048800  0.96323300  1
  F  F1  1  0.16444300  0.56101500  0.01256300  1
  F  F2  1  0.40462900  0.91627200  0.79731800  1
  F  F3  1  0.77835300  0.75740600  0.81497500  1
  F  F4  1  0.46659800  0.38048800  0.96323300  1
  F  F5  1  0.33555700  0.06101500  0.01256300  1
  F  F6  1  0.13670900  0.74685700  0.70033900  1
  F  F7  1  0.09537100  0.41627200  0.79731800  1
  F  F8  1  0.83447500  0.92382000  0.50487000  1
  F  F9  1  0.72164700  0.25740600  0.81497500  1
  F  F10  1  0.65168800  0.57446800  0.68604700  1
  F  F11  1  0.46568000  0.85958600  0.50815600  1
  F  F12  1  0.96568000  0.64041400  0.49184400  1
  F  F13  1  0.36329100  0.24685700  0.70033900  1
  F  F14  1  0.15168800  0.92553200  0.31395300  1
  F  F15  1  0.33447500  0.57618000  0.49513000  1
  F  F16  1  0.66552500  0.42382000  0.50487000  1
  F  F17  1  0.84831200  0.07446800  0.68604700  1
  F  F18  1  0.63670900  0.75314300  0.29966100  1
  F  F19  1  0.03432000  0.35958600  0.50815600  1
  F  F20  1  0.53432000  0.14041400  0.49184400  1
  F  F21  1  0.34831200  0.42553200  0.31395300  1
  F  F22  1  0.27835300  0.74259400  0.18502500  1
  F  F23  1  0.16552500  0.07618000  0.49513000  1
  F  F24  1  0.90462900  0.58372800  0.20268200  1
  F  F25  1  0.86329100  0.25314300  0.29966100  1
  F  F26  1  0.66444300  0.93898500  0.98743700  1
  F  F27  1  0.53340200  0.61951200  0.03676700  1
  F  F28  1  0.22164700  0.24259400  0.18502500  1
  F  F29  1  0.59537100  0.08372800  0.20268200  1
  F  F30  1  0.83555700  0.43898500  0.98743700  1
  F  F31  1  0.96659800  0.11951200  0.03676700  1
loop_
_geom_bond_atom_site_label_1
_geom_bond_atom_site_label_2
_geom_bond_distance
_geom_bond_site_symmetry_2
F0 Li5 2.030800 1_465
F0 Li10 2.059975 1_556
F0 Fe0 2.144203 1_555
F0 Fe6 2.152966 1_456
F1 Li3 1.936077 1_554
F1 Li14 1.962590 1_555
F1 Li12 1.969130 1_455
F1 Fe0 2.067917 1_554
F2 Li7 1.936564 1_565
F2 Fe0 1.969662 1_555
F2 Li2 2.001632 1_555
F3 Li1 2.011094 1_555
F3 Fe6 2.026652 1_556
F3 Li2 2.240665 1_555
F3 Li0 2.297954 1_555
F3 Li3 2.448618 1_655
F4 Li1 2.030800 1_555
F4 Li14 2.059975 1_556
F4 Fe1 2.144203 1_555
F4 Fe7 2.152966 1_556
F5 Li7 1.936077 1_554
F5 Li10 1.962590 1_545
F5 Li8 1.969130 1_545
F5 Fe1 2.067917 1_554
F6 Li3 1.866914 1_555
F6 Li0 1.935661 1_455
F6 Fe2 1.948464 1_555
F7 Li3 1.936564 1_555
F7 Fe1 1.969662 1_555
F7 Li6 2.001632 1_455
F8 Li0 1.926660 1_555
F8 Fe3 2.030992 1_555
F8 Li15 2.045302 1_665
F8 Li2 2.270161 1_555
F9 Li5 2.011094 1_555
F9 Fe7 2.026652 1_556
F9 Li6 2.240665 1_555
F9 Li4 2.297954 1_555
F9 Li7 2.448618 1_555
F10 Li1 1.905807 1_555
F10 Li4 1.949430 1_555
F10 Fe3 2.056160 1_555
F10 Li6 2.505383 1_555
F11 Li13 1.999849 1_565
F11 Li2 2.032674 1_555
F11 Fe2 2.108528 1_555
F11 Fe3 2.138962 1_555
F12 Li6 1.999849 1_555
F12 Li9 2.032674 1_655
F12 Fe3 2.108528 1_555
F12 Fe2 2.138962 1_655
F13 Li7 1.866914 1_555
F13 Li4 1.935661 1_555
F13 Fe4 1.948464 1_555
F14 Li10 1.905807 1_555
F14 Li15 1.949430 1_565
F14 Fe2 2.056160 1_555
F14 Li13 2.505383 1_565
F15 Li11 1.926660 1_555
F15 Fe2 2.030992 1_555
F15 Li4 2.045302 1_555
F15 Li9 2.270161 1_555
F16 Li4 1.926660 1_555
F16 Fe5 2.030992 1_555
F16 Li11 2.045302 1_555
F16 Li6 2.270161 1_555
F17 Li5 1.905807 1_555
F17 Li0 1.949430 1_545
F17 Fe5 2.056160 1_555
F17 Li2 2.505383 1_545
F18 Li8 1.866914 1_555
F18 Li11 1.935661 1_555
F18 Fe3 1.948464 1_555
F19 Li9 1.999849 1_555
F19 Li6 2.032674 1_455
F19 Fe4 2.108528 1_555
F19 Fe5 2.138962 1_455
F20 Li2 1.999849 1_545
F20 Li13 2.032674 1_555
F20 Fe5 2.108528 1_555
F20 Fe4 2.138962 1_555
F21 Li14 1.905807 1_555
F21 Li11 1.949430 1_555
F21 Fe4 2.056160 1_555
F21 Li9 2.505383 1_555
F22 Li10 2.011094 1_555
F22 Fe0 2.026652 1_554
F22 Li9 2.240665 1_555
F22 Li11 2.297954 1_555
F22 Li8 2.448618 1_555
F23 Li15 1.926660 1_555
F23 Fe4 2.030992 1_555
F23 Li0 2.045302 1_445
F23 Li13 2.270161 1_555
F24 Li12 1.936564 1_555
F24 Fe6 1.969662 1_555
F24 Li9 2.001632 1_655
F25 Li12 1.866914 1_555
F25 Li15 1.935661 1_655
F25 Fe5 1.948464 1_555
F26 Li8 1.936077 1_556
F26 Li5 1.962590 1_565
F26 Li7 1.969130 1_565
F26 Fe6 2.067917 1_556
F27 Li14 2.030800 1_555
F27 Li1 2.059975 1_554
F27 Fe6 2.144203 1_555
F27 Fe0 2.152966 1_554
F28 Li14 2.011094 1_555
F28 Fe1 2.026652 1_554
F28 Li13 2.240665 1_555
F28 Li15 2.297954 1_555
F28 Li12 2.448618 1_455
F29 Li8 1.936564 1_545
F29 Fe7 1.969662 1_555
F29 Li13 2.001632 1_555
F30 Li12 1.936077 1_556
F30 Li1 1.962590 1_555
F30 Li3 1.969130 1_655
F30 Fe7 2.067917 1_556
F31 Li10 2.030800 1_645
F31 Li5 2.059975 1_554
F31 Fe7 2.144203 1_555
F31 Fe1 2.152966 1_654
