# generated using pymatgen
data_Li4Mn5Sn3O16
_symmetry_space_group_name_H-M   'P 1'
_cell_length_a   6.09524183
_cell_length_b   6.09524183
_cell_length_c   9.86586282
_cell_angle_alpha   89.44622145
_cell_angle_beta   89.44622145
_cell_angle_gamma   60.38381201
_symmetry_Int_Tables_number   1
_chemical_formula_structural   Li4Mn5Sn3O16
_chemical_formula_sum   'Li4 Mn5 Sn3 O16'
_cell_volume   318.63034005
_cell_formula_units_Z   1
loop_
 _symmetry_equiv_pos_site_id
 _symmetry_equiv_pos_as_xyz
  1  'x, y, z'
loop_
 _atom_site_type_symbol
 _atom_site_label
 _atom_site_symmetry_multiplicity
 _atom_site_fract_x
 _atom_site_fract_y
 _atom_site_fract_z
 _atom_site_occupancy
  Li  Li0  1  0.32248700  0.32248700  0.88384900  1
  Li  Li1  1  0.01829000  0.01829000  0.99323400  1
  Li  Li2  1  0.01472000  0.01472000  0.50090600  1
  Li  Li3  1  0.66037700  0.66037700  0.39438800  1
  Mn  Mn0  1  0.33035200  0.33035200  0.49659800  1
  Mn  Mn1  1  0.16730000  0.16730000  0.21753700  1
  Mn  Mn2  1  0.65907500  0.65907500  0.99009000  1
  Mn  Mn3  1  0.33730800  0.82567900  0.71519600  1
  Mn  Mn4  1  0.82567900  0.33730800  0.71519600  1
  Sn  Sn0  1  0.16574800  0.66103900  0.21463900  1
  Sn  Sn1  1  0.66103900  0.16574800  0.21463900  1
  Sn  Sn2  1  0.82940400  0.82940400  0.71421300  1
  O  O0  1  0.16646100  0.68837100  0.60178400  1
  O  O1  1  0.48093300  0.48093300  0.33950200  1
  O  O2  1  0.32528200  0.32528200  0.10050000  1
  O  O3  1  0.00613100  0.00613100  0.31848900  1
  O  O4  1  0.00742100  0.00742100  0.81065100  1
  O  O5  1  0.68837100  0.16646100  0.60178400  1
  O  O6  1  0.02978000  0.46914700  0.33442100  1
  O  O7  1  0.46914700  0.02978000  0.33442100  1
  O  O8  1  0.84633300  0.84633300  0.09315200  1
  O  O9  1  0.16408200  0.16408200  0.61118200  1
  O  O10  1  0.50425500  0.95714900  0.83263700  1
  O  O11  1  0.95714900  0.50425500  0.83263700  1
  O  O12  1  0.65611300  0.65611300  0.60643700  1
  O  O13  1  0.31877600  0.85419800  0.10567700  1
  O  O14  1  0.51105700  0.51105700  0.82808800  1
  O  O15  1  0.85419800  0.31877600  0.10567700  1
loop_
_geom_bond_atom_site_label_1
_geom_bond_atom_site_label_2
_geom_bond_distance
_geom_bond_site_symmetry_2
Li0 O10 2.003490 1_545
Li0 O11 2.003490 1_455
Li0 O14 2.055739 1_555
Li0 O2 2.137981 1_556
Li1 O4 1.806253 1_555
Li1 O15 1.947509 1_456
Li1 O13 1.947509 1_546
Li1 O8 2.052975 1_446
Li2 O3 1.802986 1_555
Li2 O9 1.923227 1_555
Li2 O0 1.990956 1_545
Li2 O5 1.990956 1_455
Li3 O1 1.972589 1_555
Li3 O6 2.042541 1_655
Li3 O7 2.042541 1_565
Li3 O12 2.092026 1_555
Mn0 O9 2.074369 1_555
Mn0 O0 2.169340 1_555
Mn0 O5 2.169340 1_555
Mn0 O1 2.205581 1_555
Mn0 O7 2.265127 1_555
Mn0 O6 2.265127 1_555
Mn1 O3 1.959093 1_555
Mn1 O6 1.978748 1_555
Mn1 O7 1.978748 1_555
Mn1 O15 1.997990 1_455
Mn1 O13 1.997990 1_545
Mn1 O2 2.015255 1_555
Mn2 O13 2.135303 1_556
Mn2 O15 2.135303 1_556
Mn2 O10 2.209909 1_555
Mn2 O11 2.209909 1_555
Mn2 O8 2.229767 1_556
Mn2 O14 2.245604 1_555
Mn3 O10 1.966417 1_555
Mn3 O0 1.984652 1_555
Mn3 O4 1.984725 1_565
Mn3 O12 1.997912 1_555
Mn3 O14 2.003455 1_555
Mn3 O9 2.061528 1_565
Mn4 O11 1.966417 1_555
Mn4 O5 1.984652 1_555
Mn4 O4 1.984725 1_655
Mn4 O12 1.997912 1_555
Mn4 O14 2.003455 1_555
Mn4 O9 2.061528 1_655
O0 Sn2 2.102118 1_455
O1 Sn1 2.085315 1_555
O1 Sn0 2.085315 1_555
O2 Sn1 2.111478 1_555
O2 Sn0 2.111478 1_555
O3 Sn0 2.102478 1_545
O3 Sn1 2.102478 1_455
O4 Sn2 2.112703 1_445
O5 Sn2 2.102118 1_545
O6 Sn0 2.088978 1_555
O7 Sn1 2.088978 1_555
O8 Sn0 2.085247 1_655
O8 Sn1 2.085247 1_565
O10 Sn2 2.084879 1_555
O11 Sn2 2.084879 1_555
O12 Sn2 2.123219 1_555
O13 Sn0 2.110296 1_555
O15 Sn1 2.110296 1_555
