# generated using pymatgen
data_La3Bi3O11
_symmetry_space_group_name_H-M   'P 1'
_cell_length_a   10.17042600
_cell_length_b   10.17042600
_cell_length_c   10.17042600
_cell_angle_alpha   90.00000000
_cell_angle_beta   90.00000000
_cell_angle_gamma   90.00000000
_symmetry_Int_Tables_number   1
_chemical_formula_structural   La3Bi3O11
_chemical_formula_sum   'La12 Bi12 O44'
_cell_volume   1052.00410067
_cell_formula_units_Z   4
loop_
 _symmetry_equiv_pos_site_id
 _symmetry_equiv_pos_as_xyz
  1  'x, y, z'
loop_
 _atom_site_type_symbol
 _atom_site_label
 _atom_site_symmetry_multiplicity
 _atom_site_fract_x
 _atom_site_fract_y
 _atom_site_fract_z
 _atom_site_occupancy
  La  La0  1  0.75000000  0.75000000  0.25000000  1
  La  La1  1  0.75000000  0.25000000  0.75000000  1
  La  La2  1  0.87329000  0.87329000  0.87329000  1
  La  La3  1  0.87329000  0.12671000  0.12671000  1
  La  La4  1  0.12671000  0.87329000  0.12671000  1
  La  La5  1  0.12671000  0.12671000  0.87329000  1
  La  La6  1  0.25000000  0.25000000  0.25000000  1
  La  La7  1  0.25000000  0.75000000  0.75000000  1
  La  La8  1  0.37329000  0.37329000  0.62671000  1
  La  La9  1  0.37329000  0.62671000  0.37329000  1
  La  La10  1  0.62671000  0.37329000  0.37329000  1
  La  La11  1  0.62671000  0.62671000  0.62671000  1
  Bi  Bi0  1  0.83430900  0.50000000  0.00000000  1
  Bi  Bi1  1  0.00000000  0.83430900  0.50000000  1
  Bi  Bi2  1  0.00000000  0.50000000  0.33430900  1
  Bi  Bi3  1  0.00000000  0.50000000  0.66569100  1
  Bi  Bi4  1  0.00000000  0.16569100  0.50000000  1
  Bi  Bi5  1  0.16569100  0.50000000  0.00000000  1
  Bi  Bi6  1  0.33430900  0.00000000  0.50000000  1
  Bi  Bi7  1  0.50000000  0.00000000  0.83430900  1
  Bi  Bi8  1  0.50000000  0.00000000  0.16569100  1
  Bi  Bi9  1  0.50000000  0.33430900  0.00000000  1
  Bi  Bi10  1  0.50000000  0.66569100  0.00000000  1
  Bi  Bi11  1  0.66569100  0.00000000  0.50000000  1
  O  O0  1  0.78151500  0.81201600  0.49615900  1
  O  O1  1  0.78151500  0.18798400  0.50384100  1
  O  O2  1  0.81201600  0.49615900  0.78151500  1
  O  O3  1  0.81201600  0.50384100  0.21848500  1
  O  O4  1  0.86115600  0.50000000  0.50000000  1
  O  O5  1  0.89786000  0.89786000  0.10214000  1
  O  O6  1  0.89786000  0.10214000  0.89786000  1
  O  O7  1  0.00384100  0.71848500  0.68798400  1
  O  O8  1  0.00384100  0.28151500  0.31201600  1
  O  O9  1  0.00000000  0.63884400  0.00000000  1
  O  O10  1  0.00000000  0.36115600  0.00000000  1
  O  O11  1  0.00000000  0.00000000  0.36115600  1
  O  O12  1  0.00000000  0.00000000  0.63884400  1
  O  O13  1  0.99615900  0.28151500  0.68798400  1
  O  O14  1  0.99615900  0.71848500  0.31201600  1
  O  O15  1  0.10214000  0.89786000  0.89786000  1
  O  O16  1  0.10214000  0.10214000  0.10214000  1
  O  O17  1  0.13884400  0.50000000  0.50000000  1
  O  O18  1  0.18798400  0.50384100  0.78151500  1
  O  O19  1  0.18798400  0.49615900  0.21848500  1
  O  O20  1  0.21848500  0.81201600  0.50384100  1
  O  O21  1  0.21848500  0.18798400  0.49615900  1
  O  O22  1  0.28151500  0.31201600  0.00384100  1
  O  O23  1  0.28151500  0.68798400  0.99615900  1
  O  O24  1  0.31201600  0.00384100  0.28151500  1
  O  O25  1  0.31201600  0.99615900  0.71848500  1
  O  O26  1  0.36115600  0.00000000  0.00000000  1
  O  O27  1  0.39786000  0.39786000  0.39786000  1
  O  O28  1  0.39786000  0.60214000  0.60214000  1
  O  O29  1  0.50384100  0.78151500  0.18798400  1
  O  O30  1  0.50384100  0.21848500  0.81201600  1
  O  O31  1  0.50000000  0.86115600  0.50000000  1
  O  O32  1  0.50000000  0.13884400  0.50000000  1
  O  O33  1  0.50000000  0.50000000  0.86115600  1
  O  O34  1  0.50000000  0.50000000  0.13884400  1
  O  O35  1  0.49615900  0.78151500  0.81201600  1
  O  O36  1  0.49615900  0.21848500  0.18798400  1
  O  O37  1  0.60214000  0.39786000  0.60214000  1
  O  O38  1  0.60214000  0.60214000  0.39786000  1
  O  O39  1  0.63884400  0.00000000  0.00000000  1
  O  O40  1  0.68798400  0.00384100  0.71848500  1
  O  O41  1  0.68798400  0.99615900  0.28151500  1
  O  O42  1  0.71848500  0.68798400  0.00384100  1
  O  O43  1  0.71848500  0.31201600  0.99615900  1
loop_
_geom_bond_atom_site_label_1
_geom_bond_atom_site_label_2
_geom_bond_distance
_geom_bond_site_symmetry_2
La0 O0 2.601591 1_555
La0 O14 2.601591 1_555
La0 O41 2.601591 1_555
La0 O3 2.601591 1_555
La0 O29 2.601591 1_555
La0 O42 2.601591 1_555
La0 O38 2.604657 1_555
La0 O5 2.604657 1_555
La1 O2 2.601591 1_555
La1 O43 2.601591 1_555
La1 O13 2.601591 1_555
La1 O30 2.601591 1_555
La1 O1 2.601591 1_555
La1 O40 2.601591 1_555
La1 O37 2.604657 1_555
La1 O6 2.604657 1_555
La2 O15 2.354178 1_655
La2 O6 2.354178 1_565
La2 O5 2.354178 1_556
La2 O7 2.791712 1_655
La2 O40 2.791712 1_565
La2 O42 2.791712 1_556
La2 O9 3.001151 1_656
La2 O39 3.001151 1_566
La2 O12 3.001151 1_665
La3 O16 2.354178 1_655
La3 O6 2.354178 1_554
La3 O5 2.354178 1_545
La3 O8 2.791712 1_655
La3 O43 2.791712 1_554
La3 O41 2.791712 1_545
La3 O10 3.001151 1_655
La3 O11 3.001151 1_655
La3 O39 3.001151 1_555
La4 O16 2.354178 1_565
La4 O5 2.354178 1_455
La4 O15 2.354178 1_554
La4 O24 2.791712 1_565
La4 O14 2.791712 1_455
La4 O23 2.791712 1_554
La4 O11 3.001151 1_565
La4 O26 3.001151 1_565
La4 O9 3.001151 1_555
La5 O16 2.354178 1_556
La5 O6 2.354178 1_455
La5 O15 2.354178 1_545
La5 O22 2.791712 1_556
La5 O25 2.791712 1_545
La5 O13 2.791712 1_455
La5 O26 3.001151 1_556
La5 O10 3.001151 1_556
La5 O12 3.001151 1_555
La6 O21 2.601591 1_555
La6 O19 2.601591 1_555
La6 O36 2.601591 1_555
La6 O8 2.601591 1_555
La6 O24 2.601591 1_555
La6 O22 2.601591 1_555
La6 O16 2.604657 1_555
La6 O27 2.604657 1_555
La7 O35 2.601591 1_555
La7 O25 2.601591 1_555
La7 O23 2.601591 1_555
La7 O20 2.601591 1_555
La7 O18 2.601591 1_555
La7 O7 2.601591 1_555
La7 O28 2.604657 1_555
La7 O15 2.604657 1_555
La8 O37 2.354178 1_555
La8 O28 2.354178 1_555
La8 O27 2.354178 1_555
La8 O30 2.791712 1_555
La8 O18 2.791712 1_555
La8 O21 2.791712 1_555
La8 O33 3.001151 1_555
La8 O32 3.001151 1_555
La8 O17 3.001151 1_555
La9 O38 2.354178 1_555
La9 O28 2.354178 1_555
La9 O27 2.354178 1_555
La9 O20 2.791712 1_555
La9 O29 2.791712 1_555
La9 O19 2.791712 1_555
La9 O31 3.001151 1_555
La9 O17 3.001151 1_555
La9 O34 3.001151 1_555
La10 O37 2.354178 1_555
La10 O38 2.354178 1_555
La10 O27 2.354178 1_555
La10 O3 2.791712 1_555
La10 O1 2.791712 1_555
La10 O36 2.791712 1_555
La10 O4 3.001151 1_555
La10 O32 3.001151 1_555
La10 O34 3.001151 1_555
La11 O38 2.354178 1_555
La11 O37 2.354178 1_555
La11 O28 2.354178 1_555
La11 O2 2.791712 1_555
La11 O35 2.791712 1_555
La11 O0 2.791712 1_555
La11 O31 3.001151 1_555
La11 O4 3.001151 1_555
La11 O33 3.001151 1_555
Bi0 O9 2.198581 1_655
Bi0 O10 2.198581 1_655
Bi0 O3 2.233964 1_555
Bi0 O2 2.233964 1_554
Bi0 O42 2.245982 1_555
Bi0 O43 2.245982 1_554
Bi1 O12 2.198581 1_565
Bi1 O11 2.198581 1_565
Bi1 O20 2.233964 1_555
Bi1 O0 2.233964 1_455
Bi1 O7 2.245982 1_555
Bi1 O14 2.245982 1_455
Bi2 O17 2.198581 1_555
Bi2 O4 2.198581 1_455
Bi2 O14 2.233964 1_455
Bi2 O8 2.233964 1_555
Bi2 O19 2.245982 1_555
Bi2 O3 2.245982 1_455
Bi3 O17 2.198581 1_555
Bi3 O4 2.198581 1_455
Bi3 O7 2.233964 1_555
Bi3 O13 2.233964 1_455
Bi3 O18 2.245982 1_555
Bi3 O2 2.245982 1_455
Bi4 O11 2.198581 1_555
Bi4 O12 2.198581 1_555
Bi4 O21 2.233964 1_555
Bi4 O1 2.233964 1_455
Bi4 O13 2.245982 1_455
Bi4 O8 2.245982 1_555
Bi5 O9 2.198581 1_555
Bi5 O10 2.198581 1_555
Bi5 O19 2.233964 1_555
Bi5 O18 2.233964 1_554
Bi5 O23 2.245982 1_554
Bi5 O22 2.245982 1_555
Bi6 O32 2.198581 1_555
Bi6 O31 2.198581 1_545
Bi6 O25 2.233964 1_545
Bi6 O24 2.233964 1_555
Bi6 O21 2.245982 1_555
Bi6 O20 2.245982 1_545
Bi7 O39 2.198581 1_556
Bi7 O26 2.198581 1_556
Bi7 O30 2.233964 1_555
Bi7 O35 2.233964 1_545
Bi7 O40 2.245982 1_555
Bi7 O25 2.245982 1_545
Bi8 O39 2.198581 1_555
Bi8 O26 2.198581 1_555
Bi8 O36 2.233964 1_555
Bi8 O29 2.233964 1_545
Bi8 O41 2.245982 1_545
Bi8 O24 2.245982 1_555
Bi9 O34 2.198581 1_555
Bi9 O33 2.198581 1_554
Bi9 O43 2.233964 1_554
Bi9 O22 2.233964 1_555
Bi9 O36 2.245982 1_555
Bi9 O30 2.245982 1_554
Bi10 O34 2.198581 1_555
Bi10 O33 2.198581 1_554
Bi10 O42 2.233964 1_555
Bi10 O23 2.233964 1_554
Bi10 O29 2.245982 1_555
Bi10 O35 2.245982 1_554
Bi11 O32 2.198581 1_555
Bi11 O31 2.198581 1_545
Bi11 O40 2.233964 1_555
Bi11 O41 2.233964 1_545
Bi11 O1 2.245982 1_555
Bi11 O0 2.245982 1_545
