# generated using pymatgen
data_NaTiO2
_symmetry_space_group_name_H-M   'P 1'
_cell_length_a   6.23480091
_cell_length_b   6.23480091
_cell_length_c   6.23480091
_cell_angle_alpha   60.00000000
_cell_angle_beta   60.00000000
_cell_angle_gamma   60.00000000
_symmetry_Int_Tables_number   1
_chemical_formula_structural   NaTiO2
_chemical_formula_sum   'Na4 Ti4 O8'
_cell_volume   171.37709296
_cell_formula_units_Z   4
loop_
 _symmetry_equiv_pos_site_id
 _symmetry_equiv_pos_as_xyz
  1  'x, y, z'
loop_
 _atom_site_type_symbol
 _atom_site_label
 _atom_site_symmetry_multiplicity
 _atom_site_fract_x
 _atom_site_fract_y
 _atom_site_fract_z
 _atom_site_occupancy
  Na  Na0  1  0.62500000  0.62500000  0.12500000  1
  Na  Na1  1  0.62500000  0.62500000  0.62500000  1
  Na  Na2  1  0.62500000  0.12500000  0.62500000  1
  Na  Na3  1  0.12500000  0.62500000  0.62500000  1
  Ti  Ti0  1  0.62500000  0.12500000  0.12500000  1
  Ti  Ti1  1  0.12500000  0.12500000  0.12500000  1
  Ti  Ti2  1  0.12500000  0.62500000  0.12500000  1
  Ti  Ti3  1  0.12500000  0.12500000  0.62500000  1
  O  O0  1  0.91629900  0.36123400  0.36123400  1
  O  O1  1  0.88876600  0.88876600  0.33370100  1
  O  O2  1  0.36123400  0.91629900  0.36123400  1
  O  O3  1  0.36123400  0.36123400  0.36123400  1
  O  O4  1  0.88876600  0.88876600  0.88876600  1
  O  O5  1  0.88876600  0.33370100  0.88876600  1
  O  O6  1  0.36123400  0.36123400  0.91629900  1
  O  O7  1  0.33370100  0.88876600  0.88876600  1
loop_
_geom_bond_atom_site_label_1
_geom_bond_atom_site_label_2
_geom_bond_distance
_geom_bond_site_symmetry_2
Na0 O3 2.332041 1_555
Na0 O4 2.332041 1_554
Na0 O2 2.332045 1_555
Na0 O0 2.332045 1_555
Na0 O7 2.332045 1_554
Na0 O5 2.332045 1_554
Na1 O7 2.332041 1_555
Na1 O1 2.332041 1_555
Na1 O5 2.332041 1_555
Na1 O2 2.332041 1_555
Na1 O6 2.332041 1_555
Na1 O0 2.332041 1_555
Na2 O3 2.332041 1_555
Na2 O4 2.332041 1_545
Na2 O6 2.332045 1_555
Na2 O0 2.332045 1_555
Na2 O7 2.332045 1_545
Na2 O1 2.332045 1_545
Na3 O3 2.332041 1_555
Na3 O4 2.332041 1_455
Na3 O2 2.332045 1_555
Na3 O6 2.332045 1_555
Na3 O1 2.332045 1_455
Na3 O5 2.332045 1_455
O0 Ti3 2.090013 1_655
O0 Ti2 2.090013 1_655
O0 Ti1 2.090017 1_655
O1 Ti2 2.090013 1_655
O1 Ti0 2.090013 1_565
O1 Ti1 2.090017 1_665
O2 Ti3 2.090013 1_565
O2 Ti0 2.090013 1_565
O2 Ti1 2.090017 1_565
O3 Ti3 2.090017 1_555
O3 Ti0 2.090017 1_555
O3 Ti2 2.090017 1_555
O4 Ti2 2.090017 1_656
O4 Ti0 2.090017 1_566
O4 Ti3 2.090017 1_665
O5 Ti3 2.090013 1_655
O5 Ti0 2.090013 1_556
O5 Ti1 2.090017 1_656
O6 Ti2 2.090013 1_556
O6 Ti0 2.090013 1_556
O6 Ti1 2.090017 1_556
O7 Ti3 2.090013 1_565
O7 Ti2 2.090013 1_556
O7 Ti1 2.090017 1_566
