# generated using pymatgen
data_LiNbCoO4
_symmetry_space_group_name_H-M   'P 1'
_cell_length_a   6.04666894
_cell_length_b   6.20012900
_cell_length_c   8.76928201
_cell_angle_alpha   90.00011269
_cell_angle_beta   90.00221451
_cell_angle_gamma   90.00037776
_symmetry_Int_Tables_number   1
_chemical_formula_structural   LiNbCoO4
_chemical_formula_sum   'Li4 Nb4 Co4 O16'
_cell_volume   328.76149964
_cell_formula_units_Z   4
loop_
 _symmetry_equiv_pos_site_id
 _symmetry_equiv_pos_as_xyz
  1  'x, y, z'
loop_
 _atom_site_type_symbol
 _atom_site_label
 _atom_site_symmetry_multiplicity
 _atom_site_fract_x
 _atom_site_fract_y
 _atom_site_fract_z
 _atom_site_occupancy
  Li  Li0  1  0.00000200  0.25000000  0.14019800  1
  Li  Li1  1  0.49999900  0.75000000  0.64019800  1
  Li  Li2  1  0.00000100  0.75000000  0.85980200  1
  Li  Li3  1  0.49999800  0.25000000  0.35980200  1
  Nb  Nb0  1  0.99998800  0.50000900  0.49999200  1
  Nb  Nb1  1  0.50001200  0.99999100  0.00000800  1
  Nb  Nb2  1  0.99999500  0.99999000  0.49999100  1
  Nb  Nb3  1  0.50000500  0.50001000  0.00000900  1
  Co  Co0  1  0.75000000  0.25000000  0.75000000  1
  Co  Co1  1  0.75000000  0.75000000  0.25000000  1
  Co  Co2  1  0.25000000  0.75000000  0.25000000  1
  Co  Co3  1  0.25000000  0.25000000  0.75000000  1
  O  O0  1  0.99999200  0.52014600  0.27354800  1
  O  O1  1  0.49999700  0.02013400  0.77354300  1
  O  O2  1  0.99998100  0.97985500  0.27354800  1
  O  O3  1  0.49999700  0.47986500  0.77354300  1
  O  O4  1  0.00000300  0.02013500  0.72645700  1
  O  O5  1  0.50001900  0.52014500  0.22645200  1
  O  O6  1  0.00000300  0.47986600  0.72645700  1
  O  O7  1  0.50000700  0.97985400  0.22645200  1
  O  O8  1  0.22225400  0.75000100  0.50386100  1
  O  O9  1  0.72226100  0.25000000  0.00387500  1
  O  O10  1  0.77773500  0.74999900  0.50388700  1
  O  O11  1  0.27774700  0.24999900  0.00387200  1
  O  O12  1  0.77773900  0.25000000  0.49612500  1
  O  O13  1  0.27774600  0.74999900  0.99613900  1
  O  O14  1  0.22225300  0.25000100  0.49612800  1
  O  O15  1  0.72226500  0.75000100  0.99611300  1
loop_
_geom_bond_atom_site_label_1
_geom_bond_atom_site_label_2
_geom_bond_distance
_geom_bond_site_symmetry_2
Li0 O2 2.042760 1_445
Li0 O0 2.042762 1_455
Li0 O9 2.061399 1_455
Li0 O11 2.061510 1_555
Li1 O1 2.042675 1_565
Li1 O3 2.042684 1_555
Li1 O10 2.061389 1_555
Li1 O8 2.061490 1_555
Li2 O6 2.042675 1_555
Li2 O4 2.042684 1_565
Li2 O15 2.061389 1_455
Li2 O13 2.061490 1_555
Li3 O5 2.042760 1_555
Li3 O7 2.042762 1_545
Li3 O12 2.061399 1_555
Li3 O14 2.061510 1_555
Nb0 O0 1.989673 1_555
Nb0 O6 1.989859 1_655
Nb0 O10 2.051742 1_555
Nb0 O8 2.051784 1_655
Nb0 O12 2.051796 1_555
Nb0 O14 2.051870 1_655
Nb1 O7 1.989673 1_555
Nb1 O1 1.989859 1_564
Nb1 O15 2.051742 1_554
Nb1 O13 2.051784 1_554
Nb1 O9 2.051796 1_565
Nb1 O11 2.051870 1_565
Nb2 O2 1.989663 1_555
Nb2 O4 1.989868 1_665
Nb2 O8 2.051756 1_655
Nb2 O10 2.051762 1_555
Nb2 O12 2.051842 1_565
Nb2 O14 2.051843 1_665
Nb3 O5 1.989663 1_555
Nb3 O3 1.989868 1_554
Nb3 O13 2.051756 1_554
Nb3 O15 2.051762 1_554
Nb3 O9 2.051842 1_555
Nb3 O11 2.051843 1_555
Co0 O6 2.087823 1_655
Co0 O1 2.087823 1_555
Co0 O4 2.087832 1_655
Co0 O3 2.087832 1_555
Co0 O12 2.232617 1_555
Co0 O9 2.232617 1_556
Co1 O2 2.087672 1_555
Co1 O5 2.087672 1_555
Co1 O0 2.087730 1_555
Co1 O7 2.087735 1_555
Co1 O10 2.232707 1_555
Co1 O15 2.232707 1_554
Co2 O7 2.087794 1_555
Co2 O0 2.087798 1_455
Co2 O2 2.087864 1_455
Co2 O5 2.087864 1_555
Co2 O13 2.232498 1_554
Co2 O8 2.232498 1_555
Co3 O3 2.087780 1_555
Co3 O4 2.087780 1_555
Co3 O1 2.087799 1_555
Co3 O6 2.087799 1_555
Co3 O11 2.232582 1_556
Co3 O14 2.232582 1_555
