# generated using pymatgen
data_Mn3CrO8
_symmetry_space_group_name_H-M   'P 1'
_cell_length_a   5.87190199
_cell_length_b   5.87190199
_cell_length_c   5.87190209
_cell_angle_alpha   59.74163418
_cell_angle_beta   59.74163418
_cell_angle_gamma   59.74163250
_symmetry_Int_Tables_number   1
_chemical_formula_structural   Mn3CrO8
_chemical_formula_sum   'Mn3 Cr1 O8'
_cell_volume   142.31994985
_cell_formula_units_Z   1
loop_
 _symmetry_equiv_pos_site_id
 _symmetry_equiv_pos_as_xyz
  1  'x, y, z'
loop_
 _atom_site_type_symbol
 _atom_site_label
 _atom_site_symmetry_multiplicity
 _atom_site_fract_x
 _atom_site_fract_y
 _atom_site_fract_z
 _atom_site_occupancy
  Mn  Mn0  1  0.00000000  0.50000000  0.50000000  1
  Mn  Mn1  1  0.50000000  0.00000000  0.50000000  1
  Mn  Mn2  1  0.50000000  0.50000000  0.00000000  1
  Cr  Cr0  1  0.00000000  0.00000000  0.00000000  1
  O  O0  1  0.26753900  0.26753900  0.26753900  1
  O  O1  1  0.26968300  0.76656200  0.76656200  1
  O  O2  1  0.76656200  0.26968300  0.76656200  1
  O  O3  1  0.73246100  0.73246100  0.73246100  1
  O  O4  1  0.76656200  0.76656200  0.26968300  1
  O  O5  1  0.73031700  0.23343800  0.23343800  1
  O  O6  1  0.23343800  0.73031700  0.23343800  1
  O  O7  1  0.23343800  0.23343800  0.73031700  1
loop_
_geom_bond_atom_site_label_1
_geom_bond_atom_site_label_2
_geom_bond_distance
_geom_bond_site_symmetry_2
Mn0 O7 1.931444 1_555
Mn0 O4 1.931444 1_455
Mn0 O6 1.931445 1_555
Mn0 O2 1.931445 1_455
Mn0 O3 1.936464 1_455
Mn0 O0 1.936464 1_555
Mn1 O7 1.931444 1_555
Mn1 O4 1.931444 1_545
Mn1 O5 1.931445 1_555
Mn1 O1 1.931445 1_545
Mn1 O3 1.936464 1_545
Mn1 O0 1.936464 1_555
Mn2 O5 1.931444 1_555
Mn2 O6 1.931444 1_555
Mn2 O1 1.931444 1_554
Mn2 O2 1.931444 1_554
Mn2 O3 1.936464 1_554
Mn2 O0 1.936464 1_555
Cr0 O6 1.945215 1_545
Cr0 O5 1.945215 1_455
Cr0 O2 1.945215 1_454
Cr0 O1 1.945215 1_544
Cr0 O7 1.945215 1_554
Cr0 O4 1.945215 1_445
