# generated using pymatgen
data_NaVAsCO7
_symmetry_space_group_name_H-M   'P 1'
_cell_length_a   9.45442818
_cell_length_b   6.50636001
_cell_length_c   5.51388099
_cell_angle_alpha   89.99916403
_cell_angle_beta   86.74998356
_cell_angle_gamma   89.99439185
_symmetry_Int_Tables_number   1
_chemical_formula_structural   NaVAsCO7
_chemical_formula_sum   'Na2 V2 As2 C2 O14'
_cell_volume   338.63487665
_cell_formula_units_Z   2
loop_
 _symmetry_equiv_pos_site_id
 _symmetry_equiv_pos_as_xyz
  1  'x, y, z'
loop_
 _atom_site_type_symbol
 _atom_site_label
 _atom_site_symmetry_multiplicity
 _atom_site_fract_x
 _atom_site_fract_y
 _atom_site_fract_z
 _atom_site_occupancy
  Na  Na0  1  0.20325800  0.49269800  0.22448400  1
  Na  Na1  1  0.79675100  0.99269200  0.77550300  1
  V  V0  1  0.33383000  0.76770600  0.78943500  1
  V  V1  1  0.66614700  0.26757600  0.21055600  1
  As  As0  1  0.44430200  0.26105700  0.71955500  1
  As  As1  1  0.55570800  0.76090100  0.28041200  1
  C  C0  1  0.08511700  0.74160100  0.71542700  1
  C  C1  1  0.91485100  0.24166100  0.28457700  1
  O  O0  1  0.04135900  0.24896800  0.32318100  1
  O  O1  1  0.13964600  0.74385300  0.93507300  1
  O  O2  1  0.19180400  0.73428700  0.54388400  1
  O  O3  1  0.33659100  0.04940800  0.79051600  1
  O  O4  1  0.33368800  0.45857800  0.80490400  1
  O  O5  1  0.40537100  0.74536300  0.12541100  1
  O  O6  1  0.48197200  0.25445700  0.41116100  1
  O  O7  1  0.51805900  0.75455900  0.58888400  1
  O  O8  1  0.59466300  0.24547900  0.87455900  1
  O  O9  1  0.66628600  0.95852700  0.19502600  1
  O  O10  1  0.66343000  0.54930800  0.20951500  1
  O  O11  1  0.80818100  0.23426600  0.45613600  1
  O  O12  1  0.86035300  0.24383600  0.06494600  1
  O  O13  1  0.95863100  0.74891800  0.67685600  1
loop_
_geom_bond_atom_site_label_1
_geom_bond_atom_site_label_2
_geom_bond_distance
_geom_bond_site_symmetry_2
Na0 O0 2.249407 1_555
Na0 O2 2.358496 1_555
Na0 O1 2.384755 1_554
Na0 O5 2.556276 1_555
Na0 O4 2.568803 1_554
Na1 O13 2.249233 1_555
Na1 O11 2.358274 1_565
Na1 O12 2.384912 1_566
Na1 O8 2.556367 1_565
Na1 O9 2.568711 1_556
As0 O8 1.702749 1_555
As0 O4 1.706075 1_555
As0 O6 1.718005 1_555
As0 O3 1.743992 1_555
As1 O5 1.702546 1_555
As1 O9 1.706580 1_555
As1 O7 1.718355 1_555
As1 O10 1.743548 1_555
C0 O13 1.227350 1_455
C0 O1 1.342967 1_555
C0 O2 1.343930 1_555
C1 O0 1.227603 1_655
C1 O12 1.342757 1_555
C1 O11 1.343899 1_555
O1 V0 1.967830 1_555
O2 V0 1.972227 1_555
O3 V0 1.833058 1_545
O4 V0 2.013102 1_555
O5 V0 2.013093 1_554
O6 V1 2.011077 1_555
O7 V0 2.011348 1_555
O8 V1 2.012891 1_556
O9 V1 2.012605 1_565
O10 V1 1.833241 1_555
O11 V1 1.972286 1_555
O12 V1 1.967881 1_555
