# generated using pymatgen
data_KY(H2N)4
_symmetry_space_group_name_H-M   'P 1'
_cell_length_a   9.22860115
_cell_length_b   9.22860115
_cell_length_c   6.03997100
_cell_angle_alpha   78.59207746
_cell_angle_beta   78.59207746
_cell_angle_gamma   133.00845039
_symmetry_Int_Tables_number   1
_chemical_formula_structural   KY(H2N)4
_chemical_formula_sum   'K2 Y2 H16 N8'
_cell_volume   326.60421719
_cell_formula_units_Z   2
loop_
 _symmetry_equiv_pos_site_id
 _symmetry_equiv_pos_as_xyz
  1  'x, y, z'
loop_
 _atom_site_type_symbol
 _atom_site_label
 _atom_site_symmetry_multiplicity
 _atom_site_fract_x
 _atom_site_fract_y
 _atom_site_fract_z
 _atom_site_occupancy
  K  K0  1  0.69465100  0.30534900  0.25000000  1
  K  K1  1  0.30534900  0.69465100  0.75000000  1
  Y  Y0  1  0.06472800  0.93527200  0.75000000  1
  Y  Y1  1  0.93527200  0.06472800  0.25000000  1
  H  H0  1  0.66490000  0.61943000  0.28488900  1
  H  H1  1  0.78857900  0.50145500  0.73310900  1
  H  H2  1  0.87270000  0.70585200  0.33541200  1
  H  H3  1  0.38057000  0.33510000  0.21511100  1
  H  H4  1  0.95666700  0.34866800  0.45159700  1
  H  H5  1  0.65133200  0.04333300  0.04840300  1
  H  H6  1  0.29414800  0.12730000  0.16458800  1
  H  H7  1  0.50145500  0.78857900  0.23310900  1
  H  H8  1  0.49854500  0.21142100  0.76689100  1
  H  H9  1  0.70585200  0.87270000  0.83541200  1
  H  H10  1  0.34866800  0.95666700  0.95159700  1
  H  H11  1  0.04333300  0.65133200  0.54840300  1
  H  H12  1  0.61943000  0.66490000  0.78488900  1
  H  H13  1  0.12730000  0.29414800  0.66458800  1
  H  H14  1  0.21142100  0.49854500  0.26689100  1
  H  H15  1  0.33510000  0.38057000  0.71511100  1
  N  N0  1  0.94716200  0.62112800  0.71404100  1
  N  N1  1  0.83562000  0.74618300  0.20355300  1
  N  N2  1  0.62112800  0.94716200  0.21404100  1
  N  N3  1  0.25381700  0.16438000  0.29644700  1
  N  N4  1  0.74618300  0.83562000  0.70355300  1
  N  N5  1  0.37887200  0.05283800  0.78595900  1
  N  N6  1  0.16438000  0.25381700  0.79644700  1
  N  N7  1  0.05283800  0.37887200  0.28595900  1
loop_
_geom_bond_atom_site_label_1
_geom_bond_atom_site_label_2
_geom_bond_distance
_geom_bond_site_symmetry_2
K0 N0 2.902040 1_554
K0 N5 2.902040 1_555
K0 N7 2.952433 1_655
K0 N2 2.952433 1_545
K1 N2 2.902040 1_555
K1 N7 2.902040 1_556
K1 N5 2.952433 1_565
K1 N0 2.952433 1_455
H0 N1 1.021860 1_555
H1 N0 1.026081 1_555
H1 K0 2.885798 1_556
H2 N1 1.026754 1_555
H3 N3 1.021860 1_555
H4 N7 1.033072 1_655
H4 K0 2.743708 1_555
H5 N2 1.033072 1_545
H5 K0 2.743708 1_555
H6 N3 1.026754 1_555
H7 N2 1.026081 1_555
H7 K1 2.885798 1_555
H8 N5 1.026081 1_555
H8 K0 2.885798 1_555
H9 N4 1.026754 1_555
H10 N5 1.033072 1_565
H10 K1 2.743708 1_555
H11 N0 1.033072 1_455
H11 K1 2.743708 1_555
H12 N4 1.021860 1_555
H13 N6 1.026754 1_555
H14 N7 1.026081 1_555
H14 K1 2.885798 1_554
H15 N6 1.021860 1_555
N0 Y0 2.383362 1_655
N1 Y0 2.409235 1_654
N1 Y1 2.511289 1_565
N2 Y1 2.383362 1_565
N3 Y0 2.409235 1_545
N3 Y1 2.511289 1_455
N4 Y1 2.409235 1_565
N4 Y0 2.511289 1_655
N5 Y0 2.383362 1_545
N6 Y1 2.409235 1_456
N6 Y0 2.511289 1_545
N7 Y1 2.383362 1_455
