# generated using pymatgen
data_Li3Fe8(BO3)8
_symmetry_space_group_name_H-M   'P 1'
_cell_length_a   5.23573600
_cell_length_b   9.10743579
_cell_length_c   10.18203326
_cell_angle_alpha   89.58783770
_cell_angle_beta   89.24255857
_cell_angle_gamma   89.58683479
_symmetry_Int_Tables_number   1
_chemical_formula_structural   Li3Fe8(BO3)8
_chemical_formula_sum   'Li3 Fe8 B8 O24'
_cell_volume   485.45411150
_cell_formula_units_Z   1
loop_
 _symmetry_equiv_pos_site_id
 _symmetry_equiv_pos_as_xyz
  1  'x, y, z'
loop_
 _atom_site_type_symbol
 _atom_site_label
 _atom_site_symmetry_multiplicity
 _atom_site_fract_x
 _atom_site_fract_y
 _atom_site_fract_z
 _atom_site_occupancy
  Li  Li0  1  0.14842600  0.17895600  0.66336500  1
  Li  Li1  1  0.18697800  0.16975700  0.15967400  1
  Li  Li2  1  0.33016500  0.33469100  0.39889200  1
  Fe  Fe0  1  0.16165800  0.83014500  0.62922400  1
  Fe  Fe1  1  0.18296900  0.50554000  0.12561200  1
  Fe  Fe2  1  0.32993400  0.99210600  0.87799500  1
  Fe  Fe3  1  0.33276100  0.66936900  0.37434300  1
  Fe  Fe4  1  0.65430500  0.34941300  0.63043300  1
  Fe  Fe5  1  0.66967800  0.99632900  0.13014900  1
  Fe  Fe6  1  0.83041100  0.15397000  0.38459900  1
  Fe  Fe7  1  0.83023200  0.49806200  0.88300800  1
  B  B0  1  0.15157200  0.49849700  0.62250600  1
  B  B1  1  0.16282400  0.83683400  0.13152400  1
  B  B2  1  0.34096400  0.99860900  0.37692300  1
  B  B3  1  0.33539700  0.66531800  0.87606100  1
  B  B4  1  0.67212500  0.00435300  0.63365200  1
  B  B5  1  0.67850700  0.32265500  0.12545300  1
  B  B6  1  0.82755800  0.49648800  0.37521300  1
  B  B7  1  0.81981100  0.16649400  0.87623400  1
  O  O0  1  0.09322500  0.49900900  0.34472200  1
  O  O1  1  0.07817200  0.14101700  0.85731600  1
  O  O2  1  0.22211300  0.79739800  0.82736400  1
  O  O3  1  0.24008900  0.87137400  0.43453300  1
  O  O4  1  0.20644900  0.12798800  0.36984600  1
  O  O5  1  0.17520400  0.55799500  0.92374700  1
  O  O6  1  0.27984000  0.36749800  0.60199100  1
  O  O7  1  0.30567200  0.95949700  0.08149000  1
  O  O8  1  0.25752700  0.63086100  0.57550400  1
  O  O9  1  0.29256300  0.71762100  0.18250600  1
  O  O10  1  0.42052100  0.32600900  0.14400300  1
  O  O11  1  0.40596000  0.00473800  0.67074100  1
  O  O12  1  0.58337500  0.99200200  0.32180900  1
  O  O13  1  0.59051600  0.65154800  0.87654400  1
  O  O14  1  0.70851000  0.29730300  0.84080800  1
  O  O15  1  0.71747600  0.36455300  0.41622500  1
  O  O16  1  0.67994100  0.61961000  0.36774600  1
  O  O17  1  0.66752700  0.05326100  0.92857000  1
  O  O18  1  0.82109800  0.43884200  0.07679200  1
  O  O19  1  0.81335900  0.87914600  0.63897200  1
  O  O20  1  0.78213700  0.13547100  0.59393600  1
  O  O21  1  0.81685300  0.19243000  0.16040800  1
  O  O22  1  0.90674300  0.84509800  0.12622000  1
  O  O23  1  0.91771700  0.50225400  0.68474500  1
loop_
_geom_bond_atom_site_label_1
_geom_bond_atom_site_label_2
_geom_bond_distance
_geom_bond_site_symmetry_2
Li0 O6 1.950054 1_555
Li0 O1 2.031599 1_555
Li0 O11 2.076398 1_555
Li0 O20 2.094122 1_455
Li1 O10 1.887427 1_555
Li1 O21 1.947288 1_455
Li1 O7 2.163002 1_545
Li1 O4 2.174421 1_555
Li2 O0 2.015489 1_555
Li2 O4 2.020306 1_555
Li2 O15 2.058016 1_555
Li2 O6 2.104403 1_555
Fe0 O19 1.875806 1_455
Fe0 O8 1.959368 1_555
Fe0 O3 2.051664 1_555
Fe0 O2 2.065473 1_555
Fe0 O11 2.096783 1_565
Fe1 O10 2.056179 1_555
Fe1 O18 2.061958 1_455
Fe1 O9 2.106289 1_555
Fe1 O5 2.107685 1_554
Fe1 O0 2.274290 1_555
Fe2 O1 1.896997 1_565
Fe2 O17 1.934426 1_565
Fe2 O2 1.940180 1_555
Fe2 O7 2.093376 1_556
Fe2 O11 2.144730 1_565
Fe3 O16 1.870668 1_555
Fe3 O3 1.997792 1_555
Fe3 O9 2.012447 1_555
Fe3 O0 2.028776 1_555
Fe3 O8 2.108014 1_555
Fe4 O6 1.991134 1_555
Fe4 O23 2.050475 1_555
Fe4 O20 2.089879 1_555
Fe4 O15 2.205163 1_555
Fe4 O14 2.212157 1_555
Fe5 O22 1.847716 1_555
Fe5 O21 1.977993 1_565
Fe5 O12 1.997467 1_555
Fe5 O7 2.006687 1_555
Fe5 O17 2.113500 1_564
Fe6 O4 1.985156 1_655
Fe6 O15 2.029545 1_555
Fe6 O12 2.078599 1_545
Fe6 O20 2.148642 1_555
Fe6 O21 2.308888 1_555
Fe7 O13 1.873276 1_555
Fe7 O5 1.941541 1_655
Fe7 O14 1.992279 1_555
Fe7 O18 2.041795 1_556
Fe7 O23 2.064266 1_555
B0 O23 1.371542 1_455
B0 O6 1.380715 1_555
B0 O8 1.408663 1_555
B1 O22 1.344118 1_455
B1 O9 1.378500 1_555
B1 O7 1.435519 1_555
B2 O4 1.370320 1_565
B2 O12 1.382012 1_555
B2 O3 1.398810 1_555
B3 O13 1.340780 1_555
B3 O5 1.374346 1_555
B3 O2 1.426025 1_555
B4 O19 1.355754 1_545
B4 O20 1.384957 1_555
B4 O11 1.438991 1_555
B5 O10 1.361568 1_555
B5 O18 1.384427 1_555
B5 O21 1.430501 1_555
B6 O16 1.359533 1_555
B6 O15 1.395275 1_555
B6 O0 1.421488 1_655
B7 O14 1.370526 1_555
B7 O1 1.382025 1_655
B7 O17 1.405669 1_555
