# generated using pymatgen
data_BaAlO5
_symmetry_space_group_name_H-M   'P 1'
_cell_length_a   5.79977300
_cell_length_b   6.58822058
_cell_length_c   6.88047347
_cell_angle_alpha   102.48495513
_cell_angle_beta   89.96186095
_cell_angle_gamma   106.80364078
_symmetry_Int_Tables_number   1
_chemical_formula_structural   BaAlO5
_chemical_formula_sum   'Ba2 Al2 O10'
_cell_volume   245.18868048
_cell_formula_units_Z   2
loop_
 _symmetry_equiv_pos_site_id
 _symmetry_equiv_pos_as_xyz
  1  'x, y, z'
loop_
 _atom_site_type_symbol
 _atom_site_label
 _atom_site_symmetry_multiplicity
 _atom_site_fract_x
 _atom_site_fract_y
 _atom_site_fract_z
 _atom_site_occupancy
  Ba  Ba0  1  0.26767800  0.03975500  0.26617700  1
  Ba  Ba1  1  0.73232200  0.96024500  0.73382300  1
  Al  Al0  1  0.36831900  0.35924900  0.83827800  1
  Al  Al1  1  0.63168100  0.64075100  0.16172200  1
  O  O0  1  0.13520200  0.25667100  0.00117500  1
  O  O1  1  0.86479800  0.74332900  0.99882500  1
  O  O2  1  0.17453400  0.29443200  0.60412900  1
  O  O3  1  0.82546600  0.70556800  0.39587100  1
  O  O4  1  0.54589600  0.27370600  0.63169500  1
  O  O5  1  0.45410400  0.72629400  0.36830500  1
  O  O6  1  0.23985200  0.03380300  0.73411600  1
  O  O7  1  0.76014800  0.96619700  0.26588400  1
  O  O8  1  0.46236800  0.65702700  0.93168000  1
  O  O9  1  0.53763200  0.34297300  0.06832000  1
loop_
_geom_bond_atom_site_label_1
_geom_bond_atom_site_label_2
_geom_bond_distance
_geom_bond_site_symmetry_2
Ba0 O2 2.710992 1_555
Ba0 O9 2.767650 1_555
Ba0 O0 2.778586 1_555
Ba0 O5 2.801276 1_545
Ba0 O7 2.841514 1_445
Ba0 O4 2.862814 1_555
Ba0 O1 2.910592 1_444
Ba0 O7 3.031945 1_545
Ba0 O3 3.131000 1_445
Ba0 O6 3.231704 1_555
Ba0 O8 3.473247 1_544
Ba1 O3 2.710992 1_555
Ba1 O8 2.767650 1_555
Ba1 O1 2.778586 1_555
Ba1 O4 2.801276 1_565
Ba1 O6 2.841514 1_665
Ba1 O5 2.862814 1_555
Ba1 O0 2.910592 1_666
Ba1 O6 3.031945 1_565
Ba1 O2 3.131000 1_665
Ba1 O7 3.231704 1_555
Ba1 O9 3.473247 1_566
Al0 O0 1.827043 1_556
Al0 O4 1.840100 1_555
Al0 O8 1.842805 1_555
Al0 O2 1.862388 1_555
Al0 O9 1.901936 1_556
Al0 O6 2.019562 1_555
Al1 O1 1.827043 1_554
Al1 O5 1.840100 1_555
Al1 O9 1.842805 1_555
Al1 O3 1.862388 1_555
Al1 O8 1.901936 1_554
Al1 O7 2.019562 1_555
