# generated using pymatgen
data_Li5Co2(PO4)3
_symmetry_space_group_name_H-M   'P 1'
_cell_length_a   8.69997864
_cell_length_b   8.79295979
_cell_length_c   12.41254049
_cell_angle_alpha   90.02394366
_cell_angle_beta   89.30162288
_cell_angle_gamma   89.93155521
_symmetry_Int_Tables_number   1
_chemical_formula_structural   Li5Co2(PO4)3
_chemical_formula_sum   'Li20 Co8 P12 O48'
_cell_volume   949.47020023
_cell_formula_units_Z   4
loop_
 _symmetry_equiv_pos_site_id
 _symmetry_equiv_pos_as_xyz
  1  'x, y, z'
loop_
 _atom_site_type_symbol
 _atom_site_label
 _atom_site_symmetry_multiplicity
 _atom_site_fract_x
 _atom_site_fract_y
 _atom_site_fract_z
 _atom_site_occupancy
  Li  Li0  1  0.93237900  0.52074400  0.35029200  1
  Li  Li1  1  0.92764800  0.09356200  0.69570000  1
  Li  Li2  1  0.85697500  0.73251300  0.74684600  1
  Li  Li3  1  0.90461000  0.65709400  0.97472000  1
  Li  Li4  1  0.79720100  0.77004700  0.18412100  1
  Li  Li5  1  0.70277900  0.26916100  0.31618100  1
  Li  Li6  1  0.59540500  0.15543800  0.52441900  1
  Li  Li7  1  0.64298700  0.23218400  0.75325200  1
  Li  Li8  1  0.57234500  0.59364500  0.80447500  1
  Li  Li9  1  0.56878600  0.02075100  0.14978800  1
  Li  Li10  1  0.44579700  0.98700900  0.84171800  1
  Li  Li11  1  0.42385300  0.40585000  0.19386900  1
  Li  Li12  1  0.37398900  0.77163600  0.25654400  1
  Li  Li13  1  0.34669600  0.68144600  0.49300000  1
  Li  Li14  1  0.30040900  0.73836100  0.69585900  1
  Li  Li15  1  0.19941300  0.23795700  0.80372100  1
  Li  Li16  1  0.15208600  0.18253800  0.00659000  1
  Li  Li17  1  0.12612800  0.27188400  0.24384500  1
  Li  Li18  1  0.07520600  0.90587500  0.30669900  1
  Li  Li19  1  0.05466600  0.48679000  0.65826100  1
  Co  Co0  1  0.74132400  0.53061500  0.59866300  1
  Co  Co1  1  0.75797600  0.03093500  0.90110400  1
  Co  Co2  1  0.75025900  0.45022400  0.11015900  1
  Co  Co3  1  0.75004000  0.95094500  0.39033600  1
  Co  Co4  1  0.25000500  0.04469300  0.60162500  1
  Co  Co5  1  0.24860600  0.54501600  0.89864500  1
  Co  Co6  1  0.25554900  0.94406000  0.10772600  1
  Co  Co7  1  0.24514600  0.44370400  0.39237900  1
  P  P0  1  0.95022000  0.24736300  0.49331200  1
  P  P1  1  0.89221000  0.39353400  0.84958700  1
  P  P2  1  0.89225600  0.10034500  0.15603400  1
  P  P3  1  0.60759100  0.89348600  0.65043700  1
  P  P4  1  0.60796300  0.60041100  0.34370900  1
  P  P5  1  0.55042700  0.74767400  0.00667900  1
  P  P6  1  0.45228300  0.24788100  0.99075200  1
  P  P7  1  0.39745600  0.39940700  0.64833500  1
  P  P8  1  0.39523200  0.10787400  0.34776400  1
  P  P9  1  0.10267800  0.89981500  0.85170600  1
  P  P10  1  0.10464000  0.60830200  0.15259800  1
  P  P11  1  0.04750900  0.74791400  0.50950800  1
  O  O0  1  0.95786000  0.86165200  0.44161800  1
  O  O1  1  0.92730400  0.86356900  0.86961100  1
  O  O2  1  0.95541000  0.68046500  0.60644500  1
  O  O3  1  0.93367800  0.58931300  0.19095900  1
  O  O4  1  0.90954100  0.37356700  0.57620400  1
  O  O5  1  0.84925000  0.22689000  0.81837300  1
  O  O6  1  0.87474700  0.42108800  0.97054600  1
  O  O7  1  0.87191900  0.97559100  0.24431300  1
  O  O8  1  0.83745700  0.25854500  0.19426800  1
  O  O9  1  0.79763700  0.17910300  0.44889900  1
  O  O10  1  0.79582600  0.04752000  0.05969400  1
  O  O11  1  0.79146900  0.51044800  0.78652500  1
  O  O12  1  0.70831700  0.01015400  0.71362100  1
  O  O13  1  0.70436500  0.54752100  0.44012000  1
  O  O14  1  0.70310500  0.67970500  0.05075900  1
  O  O15  1  0.66258100  0.75832000  0.30563800  1
  O  O16  1  0.62547700  0.92134400  0.52945700  1
  O  O17  1  0.62806000  0.47549300  0.25541600  1
  O  O18  1  0.65082700  0.72687200  0.68150400  1
  O  O19  1  0.59031000  0.87369100  0.92361800  1
  O  O20  1  0.54469900  0.18026500  0.89374900  1
  O  O21  1  0.57284000  0.36295900  0.63019800  1
  O  O22  1  0.56653100  0.08849200  0.30956100  1
  O  O23  1  0.54186200  0.36122000  0.05880600  1
  O  O24  1  0.45807400  0.62818600  0.94402900  1
  O  O25  1  0.43631400  0.91866700  0.68736000  1
  O  O26  1  0.43029800  0.61364200  0.36371400  1
  O  O27  1  0.46000900  0.81587900  0.10561500  1
  O  O28  1  0.39958900  0.11990000  0.07011400  1
  O  O29  1  0.33970800  0.26648200  0.30602600  1
  O  O30  1  0.37895100  0.51938600  0.74047400  1
  O  O31  1  0.38599200  0.10875100  0.47131200  1
  O  O32  1  0.31870600  0.24838100  0.67886700  1
  O  O33  1  0.30023200  0.31764400  0.94351700  1
  O  O34  1  0.32222400  0.47330600  0.54894600  1
  O  O35  1  0.29791100  0.98076000  0.29497400  1
  O  O36  1  0.20195500  0.48079500  0.20494600  1
  O  O37  1  0.17751700  0.97341700  0.95114100  1
  O  O38  1  0.19966100  0.81779000  0.55632300  1
  O  O39  1  0.18075400  0.74780900  0.82086500  1
  O  O40  1  0.12142100  0.01946400  0.75964400  1
  O  O41  1  0.11369700  0.60862900  0.02860200  1
  O  O42  1  0.16052100  0.76681900  0.19375600  1
  O  O43  1  0.10082400  0.62011800  0.42993800  1
  O  O44  1  0.06359000  0.41828500  0.81249900  1
  O  O45  1  0.04045600  0.31558900  0.39443500  1
  O  O46  1  0.06978900  0.11382900  0.13618300  1
  O  O47  1  0.04198400  0.12789600  0.55586600  1
loop_
_geom_bond_atom_site_label_1
_geom_bond_atom_site_label_2
_geom_bond_distance
_geom_bond_site_symmetry_2
Li0 O43 1.981442 1_655
Li0 O3 2.067733 1_555
Li0 O45 2.108977 1_655
Li0 O13 2.275638 1_555
Li1 O40 1.981640 1_655
Li1 O47 2.013037 1_655
Li1 O5 2.032105 1_555
Li1 O12 2.054660 1_555
Li2 O18 1.978004 1_555
Li2 O2 1.985440 1_555
Li2 O1 2.011795 1_555
Li2 O11 2.092047 1_555
Li3 O14 1.990566 1_556
Li3 O41 1.991459 1_656
Li3 O6 2.092398 1_555
Li3 O1 2.243621 1_555
Li4 O15 1.901249 1_555
Li4 O3 1.985088 1_555
Li4 O14 2.018638 1_555
Li4 O7 2.064162 1_555
Li5 O8 1.904707 1_555
Li5 O22 1.985518 1_555
Li5 O9 2.013608 1_555
Li5 O17 2.072030 1_555
Li6 O31 1.988259 1_555
Li6 O9 1.994588 1_555
Li6 O16 2.075693 1_545
Li6 O21 2.254539 1_555
Li7 O5 1.977601 1_555
Li7 O20 1.986488 1_555
Li7 O21 2.012514 1_555
Li7 O12 2.089555 1_555
Li8 O30 1.980684 1_555
Li8 O24 2.009486 1_555
Li8 O18 2.036263 1_555
Li8 O11 2.050669 1_555
Li9 O28 1.984452 1_555
Li9 O22 2.070326 1_555
Li9 O27 2.111226 1_545
Li9 O10 2.270475 1_555
Li10 O19 1.906824 1_555
Li10 O25 2.010445 1_555
Li10 O20 2.015239 1_565
Li11 O29 1.988586 1_555
Li11 O23 1.993781 1_555
Li11 O17 2.037207 1_555
Li11 O36 2.042167 1_555
Li12 O26 1.988803 1_555
Li12 O35 2.008866 1_555
Li12 O42 2.023291 1_555
Li12 O27 2.046510 1_555
Li13 O26 1.851880 1_555
Li13 O38 1.913759 1_555
Li13 O34 1.968620 1_555
Li13 O43 2.349978 1_555
Li14 O39 1.859698 1_555
Li14 O25 1.980978 1_555
Li14 O38 2.071814 1_555
Li14 O30 2.118462 1_555
Li15 O32 1.856988 1_555
Li15 O44 1.978537 1_555
Li15 O33 2.075779 1_555
Li15 O40 2.112350 1_555
Li16 O46 1.854435 1_555
Li16 O33 1.914482 1_554
Li16 O37 1.974354 1_544
Li16 O28 2.366552 1_555
Li17 O46 1.993391 1_555
Li17 O36 2.009619 1_555
Li17 O29 2.021247 1_555
Li17 O45 2.040074 1_555
Li18 O0 1.989435 1_455
Li18 O42 1.995578 1_555
Li18 O7 2.033357 1_455
Li18 O35 2.050615 1_555
Li19 O4 1.912116 1_455
Li19 O44 2.009626 1_555
Li19 O2 2.017526 1_455
Co0 O13 2.003436 1_555
Co0 O4 2.027643 1_555
Co0 O21 2.113459 1_555
Co0 O18 2.151910 1_555
Co0 O2 2.285755 1_555
Co0 O11 2.384162 1_555
Co1 O10 2.005091 1_556
Co1 O19 2.027997 1_545
Co1 O1 2.114004 1_545
Co1 O5 2.153782 1_555
Co1 O20 2.274588 1_555
Co1 O12 2.379068 1_555
Co2 O6 2.048158 1_554
Co2 O23 2.082565 1_555
Co2 O17 2.093519 1_555
Co2 O8 2.126931 1_555
Co2 O14 2.188639 1_555
Co2 O3 2.256248 1_555
Co3 O16 2.044399 1_555
Co3 O0 2.077425 1_555
Co3 O7 2.100128 1_555
Co3 O15 2.138711 1_555
Co3 O9 2.175490 1_565
Co3 O22 2.247737 1_565
Co4 O47 2.038476 1_555
Co4 O31 2.070992 1_555
Co4 O38 2.120332 1_545
Co4 O32 2.121162 1_555
Co4 O25 2.241983 1_545
Co4 O40 2.257272 1_555
Co5 O24 2.049645 1_555
Co5 O41 2.060111 1_556
Co5 O39 2.114947 1_555
Co5 O33 2.124601 1_555
Co5 O44 2.240828 1_555
Co5 O30 2.266286 1_555
Co6 O28 2.042032 1_565
Co6 O42 2.058056 1_555
Co6 O37 2.082624 1_554
Co6 O27 2.104564 1_555
Co6 O46 2.223695 1_565
Co6 O35 2.379604 1_555
Co7 O43 2.044644 1_555
Co7 O29 2.056225 1_555
Co7 O34 2.079896 1_555
Co7 O45 2.108229 1_555
Co7 O26 2.224042 1_555
Co7 O36 2.383676 1_555
O0 P11 1.527575 1_655
O1 P9 1.572208 1_655
O2 P11 1.555557 1_655
O3 P10 1.565330 1_655
O4 P0 1.550666 1_555
O5 P1 1.562451 1_555
O6 P1 1.526452 1_555
O7 P2 1.559508 1_565
O8 P2 1.542685 1_555
O9 P0 1.563904 1_555
O10 P2 1.540937 1_555
O11 P1 1.566185 1_555
O12 P3 1.566405 1_545
O13 P4 1.541361 1_555
O14 P5 1.561094 1_555
O15 P4 1.540666 1_555
O16 P3 1.527720 1_555
O17 P4 1.559487 1_555
O18 P3 1.561793 1_555
O19 P5 1.550583 1_556
O20 P6 1.557027 1_555
O21 P7 1.572250 1_555
O22 P8 1.567480 1_555
O23 P6 1.526861 1_554
O24 P5 1.539718 1_556
O25 P3 1.569066 1_555
O26 P4 1.566690 1_555
O27 P5 1.568844 1_555
O28 P6 1.561434 1_554
O29 P8 1.565837 1_555
O30 P7 1.562364 1_555
O31 P8 1.534687 1_555
O32 P7 1.540382 1_555
O33 P6 1.577092 1_555
O34 P7 1.546577 1_555
O35 P8 1.552641 1_565
O36 P10 1.551696 1_555
O37 P9 1.544684 1_555
O38 P11 1.577278 1_555
O39 P9 1.544493 1_555
O40 P9 1.560810 1_545
O41 P10 1.540166 1_555
O42 P10 1.564353 1_555
O43 P11 1.562051 1_555
O44 P1 1.570512 1_455
O45 P0 1.568678 1_455
O46 P2 1.565739 1_455
O47 P0 1.535418 1_455
