# generated using pymatgen
data_Na3NdV2O8
_symmetry_space_group_name_H-M   'P 1'
_cell_length_a   5.64669000
_cell_length_b   14.38861604
_cell_length_c   15.05064420
_cell_angle_alpha   91.35350872
_cell_angle_beta   100.80048639
_cell_angle_gamma   89.99567154
_symmetry_Int_Tables_number   1
_chemical_formula_structural   Na3NdV2O8
_chemical_formula_sum   'Na18 Nd6 V12 O48'
_cell_volume   1200.82690228
_cell_formula_units_Z   6
loop_
 _symmetry_equiv_pos_site_id
 _symmetry_equiv_pos_as_xyz
  1  'x, y, z'
loop_
 _atom_site_type_symbol
 _atom_site_label
 _atom_site_symmetry_multiplicity
 _atom_site_fract_x
 _atom_site_fract_y
 _atom_site_fract_z
 _atom_site_occupancy
  Na  Na0  1  0.67795600  0.46882000  0.34016300  1
  Na  Na1  1  0.10168600  0.91368800  0.20308400  1
  Na  Na2  1  0.31199700  0.73267700  0.64283500  1
  Na  Na3  1  0.71287600  0.80982300  0.53834100  1
  Na  Na4  1  0.96510800  0.99693200  0.95436400  1
  Na  Na5  1  0.55980700  0.55986600  0.08418100  1
  Na  Na6  1  0.21589100  0.09118900  0.40297300  1
  Na  Na7  1  0.66825300  0.97013600  0.33936800  1
  Na  Na8  1  0.09365200  0.41296400  0.20238800  1
  Na  Na9  1  0.52580900  0.05968000  0.08418800  1
  Na  Na10  1  0.92591700  0.65091700  0.75487000  1
  Na  Na11  1  0.83095300  0.15125900  0.75456300  1
  Na  Na12  1  0.99251000  0.49579400  0.95630400  1
  Na  Na13  1  0.32625600  0.23196900  0.64171300  1
  Na  Na14  1  0.45439400  0.37839100  0.88042600  1
  Na  Na15  1  0.43292800  0.87846100  0.88179200  1
  Na  Na16  1  0.82381000  0.31045900  0.54016500  1
  Na  Na17  1  0.19215500  0.59124500  0.40153700  1
  Nd  Nd0  1  0.42446700  0.48590500  0.64451400  1
  Nd  Nd1  1  0.61030600  0.71865700  0.29271800  1
  Nd  Nd2  1  0.04231000  0.75099100  0.00101600  1
  Nd  Nd3  1  0.68556300  0.21786900  0.29349900  1
  Nd  Nd4  1  0.21836300  0.98544100  0.64529900  1
  Nd  Nd5  1  0.96095800  0.25110700  0.00068700  1
  V  V0  1  0.40355700  0.12888100  0.86901300  1
  V  V1  1  0.82832400  0.88315000  0.76124900  1
  V  V2  1  0.81037800  0.57928000  0.53048800  1
  V  V3  1  0.71838200  0.07830600  0.53135800  1
  V  V4  1  0.07969300  0.63359700  0.18885700  1
  V  V5  1  0.46699900  0.62850800  0.86972700  1
  V  V6  1  0.18179500  0.83931000  0.42386800  1
  V  V7  1  0.54522900  0.33927100  0.10655200  1
  V  V8  1  0.93142700  0.38393700  0.76070000  1
  V  V9  1  0.24372700  0.33798200  0.42393700  1
  V  V10  1  0.10867500  0.13334100  0.18913400  1
  V  V11  1  0.56157800  0.84031700  0.10593600  1
  O  O0  1  0.96268600  0.81098600  0.69210100  1
  O  O1  1  0.97085100  0.35243200  0.87400900  1
  O  O2  1  0.25068900  0.35942300  0.53961800  1
  O  O3  1  0.77934500  0.64899500  0.89797000  1
  O  O4  1  0.39569000  0.53346400  0.92697100  1
  O  O5  1  0.61869900  0.87053800  0.22075300  1
  O  O6  1  0.75044500  0.39178600  0.04947100  1
  O  O7  1  0.51288300  0.72182700  0.10176900  1
  O  O8  1  0.95584500  0.99204300  0.75426400  1
  O  O9  1  0.89756600  0.85098900  0.87425100  1
  O  O10  1  0.31205800  0.72546900  0.90175400  1
  O  O11  1  0.73440000  0.61059000  0.41751600  1
  O  O12  1  0.83992700  0.59590000  0.23698500  1
  O  O13  1  0.80021400  0.87169500  0.05480300  1
  O  O14  1  0.87279700  0.81181400  0.40154700  1
  O  O15  1  0.23633200  0.93350500  0.36234800  1
  O  O16  1  0.11914900  0.14935500  0.89728300  1
  O  O17  1  0.60898600  0.36933100  0.22145600  1
  O  O18  1  0.58997500  0.22540600  0.90298800  1
  O  O19  1  0.03365600  0.60101400  0.07444900  1
  O  O20  1  0.05338100  0.24211000  0.39306300  1
  O  O21  1  0.04282200  0.10179800  0.07455100  1
  O  O22  1  0.53192900  0.31131300  0.40247200  1
  O  O23  1  0.66306200  0.64589500  0.60030800  1
  O  O24  1  0.34417800  0.74436800  0.39285100  1
  O  O25  1  0.72865900  0.31180800  0.69155600  1
  O  O26  1  0.51096700  0.88508000  0.72893200  1
  O  O27  1  0.36657200  0.61057800  0.75312900  1
  O  O28  1  0.12762400  0.58600100  0.56187800  1
  O  O29  1  0.39751700  0.09657700  0.23736500  1
  O  O30  1  0.53288100  0.03320800  0.92494700  1
  O  O31  1  0.25488800  0.37166700  0.05662700  1
  O  O32  1  0.29918000  0.89310000  0.04942300  1
  O  O33  1  0.38700100  0.11293100  0.75220100  1
  O  O34  1  0.21750900  0.38534800  0.72917400  1
  O  O35  1  0.12695400  0.43184800  0.36216200  1
  O  O36  1  0.68347400  0.11068700  0.41872900  1
  O  O37  1  0.83789900  0.96733000  0.54066500  1
  O  O38  1  0.34219600  0.58522500  0.24867400  1
  O  O39  1  0.79797900  0.49299600  0.75217700  1
  O  O40  1  0.10684900  0.75252100  0.19273200  1
  O  O41  1  0.70292000  0.46808600  0.54058000  1
  O  O42  1  0.93297000  0.14492700  0.60206300  1
  O  O43  1  0.90564100  0.08312300  0.24791200  1
  O  O44  1  0.08027700  0.25203200  0.19461500  1
  O  O45  1  0.28820200  0.86048500  0.53966000  1
  O  O46  1  0.43113900  0.08420000  0.56166000  1
  O  O47  1  0.58489200  0.22082100  0.10164600  1
loop_
_geom_bond_atom_site_label_1
_geom_bond_atom_site_label_2
_geom_bond_distance
_geom_bond_site_symmetry_2
Na0 O17 2.238611 1_555
Na0 O11 2.316657 1_555
Na0 O35 2.552282 1_655
Na0 O22 2.661956 1_555
Na0 O12 2.694085 1_555
Na0 O38 2.725064 1_555
Na1 O40 2.321071 1_555
Na1 O15 2.385334 1_555
Na1 O13 2.599268 1_455
Na1 O32 2.759373 1_555
Na1 O43 2.797499 1_465
Na1 O5 2.859040 1_455
Na1 O5 2.948852 1_555
Na2 O45 2.422379 1_555
Na2 O27 2.425489 1_555
Na2 O0 2.493646 1_455
Na2 O23 2.517139 1_555
Na2 O28 2.534957 1_555
Na2 O26 2.659062 1_555
Na3 O37 2.371288 1_555
Na3 O14 2.398887 1_555
Na3 O0 2.473920 1_555
Na3 O45 2.509797 1_555
Na3 O23 2.591281 1_555
Na3 O24 2.865412 1_555
Na4 O21 2.305435 1_666
Na4 O9 2.391048 1_555
Na4 O30 2.455808 1_565
Na4 O16 2.583398 1_665
Na4 O32 2.631827 1_656
Na4 O13 2.656260 1_556
Na5 O7 2.359675 1_555
Na5 O4 2.395289 1_554
Na5 O12 2.576875 1_555
Na5 O6 2.726029 1_555
Na5 O19 2.771726 1_655
Na5 O19 3.006599 1_555
Na6 O15 2.344301 1_545
Na6 O20 2.354490 1_555
Na6 O46 2.472846 1_555
Na6 O36 2.620767 1_555
Na6 O43 2.642725 1_455
Na6 O29 2.870124 1_555
Na7 O5 2.238536 1_555
Na7 O36 2.317614 1_565
Na7 O15 2.582774 1_555
Na7 O14 2.663544 1_555
Na7 O43 2.670587 1_565
Na7 O29 2.693661 1_565
Na8 O44 2.316303 1_555
Na8 O35 2.385675 1_555
Na8 O31 2.584887 1_555
Na8 O6 2.727797 1_455
Na8 O38 2.854988 1_555
Na8 O17 2.875672 1_455
Na8 O17 2.939298 1_555
Na9 O47 2.344081 1_555
Na9 O30 2.425591 1_554
Na9 O29 2.586428 1_555
Na9 O32 2.710462 1_545
Na9 O21 2.771641 1_555
Na10 O39 2.381523 1_555
Na10 O3 2.448524 1_555
Na10 O23 2.513518 1_555
Na10 O0 2.533094 1_555
Na10 O27 2.559770 1_655
Na11 O8 2.397089 1_545
Na11 O16 2.440440 1_655
Na11 O42 2.468569 1_555
Na11 O25 2.543103 1_555
Na11 O33 2.560396 1_555
Na12 O19 2.286039 1_656
Na12 O1 2.372066 1_555
Na12 O4 2.461691 1_655
Na12 O3 2.602650 1_555
Na12 O6 2.625248 1_556
Na12 O31 2.636924 1_656
Na13 O33 2.395265 1_555
Na13 O2 2.406993 1_555
Na13 O42 2.514933 1_455
Na13 O25 2.523168 1_555
Na13 O46 2.543485 1_555
Na13 O34 2.673160 1_555
Na14 O18 2.341906 1_555
Na14 O4 2.364812 1_555
Na14 O34 2.418875 1_555
Na14 O1 2.739277 1_455
Na14 O6 2.772680 1_556
Na14 O1 2.959252 1_555
Na15 O30 2.343634 1_565
Na15 O10 2.347408 1_555
Na15 O26 2.426214 1_555
Na15 O9 2.676207 1_555
Na15 O32 2.769301 1_556
Na16 O41 2.368691 1_555
Na16 O22 2.394244 1_555
Na16 O25 2.436696 1_555
Na16 O2 2.512902 1_655
Na16 O42 2.609612 1_555
Na16 O20 2.919226 1_655
Na17 O35 2.366653 1_555
Na17 O24 2.379948 1_555
Na17 O28 2.510049 1_555
Na17 O38 2.596068 1_555
Na17 O11 2.654470 1_455
Na17 O12 2.873264 1_455
Nd0 O34 2.393347 1_555
Nd0 O28 2.394511 1_555
Nd0 O39 2.407448 1_555
Nd0 O41 2.426463 1_555
Nd0 O2 2.459944 1_555
Nd0 O27 2.461471 1_555
Nd0 O23 2.822399 1_555
Nd0 O25 3.058456 1_555
Nd1 O24 2.342796 1_555
Nd1 O14 2.379743 1_555
Nd1 O12 2.416999 1_555
Nd1 O38 2.445739 1_555
Nd1 O11 2.466039 1_555
Nd1 O5 2.466223 1_555
Nd1 O7 2.824484 1_555
Nd1 O40 3.002495 1_555
Nd2 O10 2.348124 1_554
Nd2 O3 2.407011 1_454
Nd2 O13 2.426615 1_455
Nd2 O9 2.433806 1_454
Nd2 O19 2.452267 1_555
Nd2 O32 2.519857 1_555
Nd2 O7 2.838298 1_555
Nd2 O40 2.839369 1_555
Nd3 O20 2.343051 1_655
Nd3 O22 2.383113 1_555
Nd3 O29 2.412649 1_555
Nd3 O43 2.455689 1_555
Nd3 O17 2.459251 1_555
Nd3 O36 2.465080 1_555
Nd3 O47 2.837831 1_555
Nd3 O44 2.949940 1_655
Nd4 O46 2.387266 1_565
Nd4 O26 2.388657 1_555
Nd4 O8 2.408260 1_455
Nd4 O37 2.424070 1_455
Nd4 O45 2.452723 1_555
Nd4 O33 2.479343 1_565
Nd4 O42 2.821960 1_465
Nd4 O0 3.057234 1_455
Nd5 O18 2.346746 1_554
Nd5 O16 2.403463 1_654
Nd5 O31 2.424963 1_655
Nd5 O1 2.436182 1_554
Nd5 O21 2.446437 1_655
Nd5 O6 2.511159 1_555
Nd5 O44 2.869552 1_655
Nd5 O47 2.872084 1_555
O0 V1 1.726741 1_555
O1 V8 1.748592 1_555
O2 V9 1.754148 1_555
O3 V5 1.758260 1_555
O4 V5 1.720575 1_555
O5 V11 1.742117 1_555
O6 V7 1.748062 1_555
O7 V11 1.724762 1_555
O8 V1 1.738045 1_555
O9 V1 1.745711 1_555
O10 V5 1.752229 1_555
O11 V2 1.743792 1_555
O12 V4 1.743020 1_655
O13 V11 1.736959 1_555
O14 V6 1.757244 1_655
O15 V6 1.719099 1_555
O16 V0 1.759840 1_555
O17 V7 1.743212 1_555
O18 V0 1.750260 1_555
O19 V4 1.745418 1_555
O20 V9 1.748387 1_555
O21 V10 1.743858 1_555
O22 V9 1.758151 1_555
O23 V2 1.730563 1_555
O24 V6 1.747848 1_555
O25 V8 1.724422 1_555
O26 V1 1.767098 1_555
O27 V5 1.753110 1_555
O28 V2 1.767007 1_455
O29 V10 1.743909 1_555
O30 V0 1.720813 1_555
O31 V7 1.739102 1_555
O32 V11 1.747471 1_555
O33 V0 1.752614 1_555
O34 V8 1.767158 1_455
O35 V9 1.718364 1_555
O36 V3 1.743990 1_555
O37 V3 1.731991 1_565
O38 V4 1.738213 1_555
O39 V8 1.737756 1_555
O40 V4 1.716662 1_555
O41 V2 1.731240 1_555
O42 V3 1.728665 1_555
O43 V10 1.740554 1_655
O44 V10 1.716787 1_555
O45 V6 1.753142 1_555
O46 V3 1.766739 1_555
O47 V7 1.720626 1_555
