# generated using pymatgen
data_Li5Cu(HO2)2
_symmetry_space_group_name_H-M   'P 1'
_cell_length_a   5.50873100
_cell_length_b   7.47306700
_cell_length_c   10.79269300
_cell_angle_alpha   90.00000000
_cell_angle_beta   90.00000000
_cell_angle_gamma   90.00000000
_symmetry_Int_Tables_number   1
_chemical_formula_structural   Li5Cu(HO2)2
_chemical_formula_sum   'Li20 Cu4 H8 O16'
_cell_volume   444.30404304
_cell_formula_units_Z   4
loop_
 _symmetry_equiv_pos_site_id
 _symmetry_equiv_pos_as_xyz
  1  'x, y, z'
loop_
 _atom_site_type_symbol
 _atom_site_label
 _atom_site_symmetry_multiplicity
 _atom_site_fract_x
 _atom_site_fract_y
 _atom_site_fract_z
 _atom_site_occupancy
  Li  Li0  1  0.04749000  0.75000000  0.04697100  1
  Li  Li1  1  0.06586900  0.25000000  0.21748600  1
  Li  Li2  1  0.05282100  0.25000000  0.72612200  1
  Li  Li3  1  0.27838000  0.50602300  0.34555600  1
  Li  Li4  1  0.27838000  0.99397700  0.34555600  1
  Li  Li5  1  0.22162000  0.00602300  0.84555600  1
  Li  Li6  1  0.22162000  0.49397700  0.84555600  1
  Li  Li7  1  0.44717900  0.75000000  0.22612200  1
  Li  Li8  1  0.43413100  0.75000000  0.71748600  1
  Li  Li9  1  0.45251000  0.25000000  0.54697100  1
  Li  Li10  1  0.54749000  0.75000000  0.45302900  1
  Li  Li11  1  0.56586900  0.25000000  0.28251400  1
  Li  Li12  1  0.55282100  0.25000000  0.77387800  1
  Li  Li13  1  0.77838000  0.50602300  0.15444400  1
  Li  Li14  1  0.77838000  0.99397700  0.15444400  1
  Li  Li15  1  0.72162000  0.00602300  0.65444400  1
  Li  Li16  1  0.72162000  0.49397700  0.65444400  1
  Li  Li17  1  0.94717900  0.75000000  0.27387800  1
  Li  Li18  1  0.93413100  0.75000000  0.78251400  1
  Li  Li19  1  0.95251000  0.25000000  0.95302900  1
  Cu  Cu0  1  0.99705200  0.75000000  0.52383400  1
  Cu  Cu1  1  0.50294800  0.25000000  0.02383400  1
  Cu  Cu2  1  0.49705200  0.75000000  0.97616600  1
  Cu  Cu3  1  0.00294800  0.25000000  0.47616600  1
  H  H0  1  0.24815200  0.48784900  0.10981000  1
  H  H1  1  0.24815200  0.01215100  0.10981000  1
  H  H2  1  0.25184800  0.98784900  0.60981000  1
  H  H3  1  0.25184800  0.51215100  0.60981000  1
  H  H4  1  0.74815200  0.48784900  0.39019000  1
  H  H5  1  0.74815200  0.01215100  0.39019000  1
  H  H6  1  0.75184800  0.98784900  0.89019000  1
  H  H7  1  0.75184800  0.51215100  0.89019000  1
  O  O0  1  0.14548700  0.54315300  0.17375800  1
  O  O1  1  0.14548700  0.95684700  0.17375800  1
  O  O2  1  0.21678600  0.75000000  0.40108200  1
  O  O3  1  0.26346000  0.25000000  0.37237300  1
  O  O4  1  0.23654000  0.75000000  0.87237300  1
  O  O5  1  0.28321400  0.25000000  0.90108200  1
  O  O6  1  0.35451300  0.04315300  0.67375800  1
  O  O7  1  0.35451300  0.45684700  0.67375800  1
  O  O8  1  0.64548700  0.95684700  0.32624200  1
  O  O9  1  0.64548700  0.54315300  0.32624200  1
  O  O10  1  0.71678600  0.75000000  0.09891800  1
  O  O11  1  0.76346000  0.25000000  0.12762700  1
  O  O12  1  0.73654000  0.75000000  0.62762700  1
  O  O13  1  0.78321400  0.25000000  0.59891800  1
  O  O14  1  0.85451300  0.04315300  0.82624200  1
  O  O15  1  0.85451300  0.45684700  0.82624200  1
loop_
_geom_bond_atom_site_label_1
_geom_bond_atom_site_label_2
_geom_bond_distance
_geom_bond_site_symmetry_2
Li0 O10 1.906078 1_455
Li0 O1 2.133849 1_555
Li0 O0 2.133849 1_555
Li0 O4 2.153013 1_554
Li1 O11 1.927626 1_455
Li1 O3 1.994790 1_555
Li2 O13 2.022518 1_455
Li2 O14 2.179553 1_455
Li2 O15 2.179553 1_455
Li2 O5 2.275179 1_555
Li2 O6 2.338991 1_555
Li2 O7 2.338991 1_555
Li3 O3 1.936789 1_555
Li3 O2 1.948980 1_555
Li3 O0 2.012670 1_555
Li3 O9 2.051857 1_555
Li4 O3 1.936789 1_565
Li4 O2 1.948980 1_555
Li4 O1 2.012670 1_555
Li4 O8 2.051857 1_555
Li5 O4 1.936789 1_545
Li5 O5 1.948980 1_555
Li5 O6 2.012670 1_555
Li5 O14 2.051857 1_455
Li6 O4 1.936789 1_555
Li6 O5 1.948980 1_555
Li6 O7 2.012670 1_555
Li6 O15 2.051857 1_455
Li7 O10 2.022518 1_555
Li7 O9 2.179553 1_555
Li7 O8 2.179553 1_555
Li7 O2 2.275179 1_555
Li7 O0 2.338991 1_555
Li7 O1 2.338991 1_555
Li8 O12 1.927626 1_555
Li8 O4 1.994790 1_555
Li9 O13 1.906078 1_555
Li9 O6 2.133849 1_555
Li9 O7 2.133849 1_555
Li9 O3 2.153013 1_555
Li10 O2 1.906078 1_555
Li10 O9 2.133849 1_555
Li10 O8 2.133849 1_555
Li10 O12 2.153013 1_555
Li11 O3 1.927626 1_555
Li11 O11 1.994790 1_555
Li12 O5 2.022518 1_555
Li12 O6 2.179553 1_555
Li12 O7 2.179553 1_555
Li12 O13 2.275179 1_555
Li12 O14 2.338991 1_555
Li12 O15 2.338991 1_555
Li13 O11 1.936789 1_555
Li13 O10 1.948980 1_555
Li13 O9 2.012670 1_555
Li13 O0 2.051857 1_655
Li14 O11 1.936789 1_565
Li14 O10 1.948980 1_555
Li14 O8 2.012670 1_555
Li14 O1 2.051857 1_655
Li15 O12 1.936789 1_545
Li15 O13 1.948980 1_555
Li15 O14 2.012670 1_555
Li15 O6 2.051857 1_555
Li16 O12 1.936789 1_555
Li16 O13 1.948980 1_555
Li16 O15 2.012670 1_555
Li16 O7 2.051857 1_555
Li17 O2 2.022518 1_655
Li17 O0 2.179553 1_655
Li17 O1 2.179553 1_655
Li17 O10 2.275179 1_555
Li17 O8 2.338991 1_555
Li17 O9 2.338991 1_555
Li18 O4 1.927626 1_655
Li18 O12 1.994790 1_555
Li19 O5 1.906078 1_655
Li19 O15 2.133849 1_555
Li19 O14 2.133849 1_555
Li19 O11 2.153013 1_556
Cu0 O2 1.794537 1_655
Cu0 O12 1.820535 1_555
Cu1 O5 1.794537 1_554
Cu1 O11 1.820535 1_555
Cu2 O10 1.794537 1_556
Cu2 O4 1.820535 1_555
Cu3 O13 1.794537 1_455
Cu3 O3 1.820535 1_555
H0 O0 0.983360 1_555
H1 O1 0.983360 1_545
H2 O6 0.983360 1_565
H3 O7 0.983360 1_555
H4 O9 0.983360 1_555
H5 O8 0.983360 1_545
H6 O14 0.983360 1_565
H7 O15 0.983360 1_555
