# generated using pymatgen
data_Cr4OF11
_symmetry_space_group_name_H-M   'P 1'
_cell_length_a   5.08142600
_cell_length_b   5.32884704
_cell_length_c   16.89008948
_cell_angle_alpha   88.25446590
_cell_angle_beta   98.33780384
_cell_angle_gamma   118.23902621
_symmetry_Int_Tables_number   1
_chemical_formula_structural   Cr4OF11
_chemical_formula_sum   'Cr8 O2 F22'
_cell_volume   398.27807195
_cell_formula_units_Z   2
loop_
 _symmetry_equiv_pos_site_id
 _symmetry_equiv_pos_as_xyz
  1  'x, y, z'
loop_
 _atom_site_type_symbol
 _atom_site_label
 _atom_site_symmetry_multiplicity
 _atom_site_fract_x
 _atom_site_fract_y
 _atom_site_fract_z
 _atom_site_occupancy
  Cr  Cr0  1  0.74060500  0.35808400  0.12897800  1
  Cr  Cr1  1  0.75230500  0.87141900  0.62452900  1
  Cr  Cr2  1  0.50064000  0.24832700  0.74983900  1
  Cr  Cr3  1  0.50399100  0.77195500  0.24735300  1
  Cr  Cr4  1  0.24508000  0.14233100  0.37720400  1
  Cr  Cr5  1  0.24974100  0.62299400  0.87523400  1
  Cr  Cr6  1  0.00788500  0.49154900  0.49561200  1
  Cr  Cr7  1  0.99893400  0.99494800  0.00089500  1
  O  O0  1  0.50239300  0.06388000  0.18760500  1
  O  O1  1  0.06204700  0.34232500  0.40667500  1
  F  F0  1  0.43577700  0.21491700  0.03363700  1
  F  F1  1  0.00184900  0.18801200  0.56248400  1
  F  F2  1  0.98632400  0.67972500  0.06416500  1
  F  F3  1  0.06477700  0.03088500  0.71756700  1
  F  F4  1  0.06712500  0.53365300  0.21744700  1
  F  F5  1  0.43713200  0.40528600  0.84338800  1
  F  F6  1  0.43151600  0.91525000  0.34187000  1
  F  F7  1  0.43658400  0.71804100  0.53151500  1
  F  F8  1  0.93901200  0.15709200  0.09420200  1
  F  F9  1  0.50275400  0.56220200  0.68765200  1
  F  F10  1  0.48913500  0.44392100  0.31166900  1
  F  F11  1  0.06384700  0.84250500  0.90688400  1
  F  F12  1  0.56531900  0.09134500  0.65656300  1
  F  F13  1  0.56670300  0.59397400  0.15827600  1
  F  F14  1  0.56823500  0.28321200  0.46790300  1
  F  F15  1  0.93578400  0.46750200  0.78218800  1
  F  F16  1  0.93451000  0.65364900  0.58926400  1
  F  F17  1  0.93572300  0.96811200  0.28327200  1
  F  F18  1  0.00358800  0.31055000  0.93823200  1
  F  F19  1  0.00900900  0.81450100  0.43751300  1
  F  F20  1  0.49789800  0.93561800  0.81238100  1
  F  F21  1  0.56377700  0.78223500  0.96800200  1
loop_
_geom_bond_atom_site_label_1
_geom_bond_atom_site_label_2
_geom_bond_distance
_geom_bond_site_symmetry_2
Cr0 O0 1.833265 1_555
Cr0 F8 1.934043 1_555
Cr0 F4 1.938605 1_655
Cr0 F0 1.951312 1_555
Cr0 F13 1.954919 1_555
Cr0 F2 1.987972 1_555
Cr1 F9 1.941035 1_555
Cr1 F16 1.943565 1_555
Cr1 F3 1.947691 1_665
Cr1 F1 1.950799 1_665
Cr1 F12 1.952044 1_565
Cr1 F7 1.953550 1_555
Cr2 F20 1.941114 1_545
Cr2 F9 1.944260 1_555
Cr2 F12 1.944337 1_555
Cr2 F5 1.945277 1_555
Cr2 F15 1.948458 1_555
Cr2 F3 1.950622 1_555
Cr3 O0 1.830943 1_565
Cr3 F17 1.938069 1_555
Cr3 F13 1.943356 1_555
Cr3 F6 1.943730 1_555
Cr3 F4 1.960088 1_555
Cr3 F10 2.006149 1_555
Cr4 O1 1.831165 1_555
Cr4 F10 1.936419 1_555
Cr4 F14 1.944416 1_555
Cr4 F19 1.947133 1_545
Cr4 F17 1.958431 1_445
Cr4 F6 2.002683 1_545
Cr5 F5 1.942644 1_555
Cr5 F18 1.943233 1_555
Cr5 F11 1.943320 1_555
Cr5 F20 1.945499 1_555
Cr5 F21 1.948335 1_555
Cr5 F15 1.950072 1_455
Cr6 O1 1.834207 1_555
Cr6 F7 1.934768 1_555
Cr6 F1 1.935140 1_555
Cr6 F19 1.952979 1_555
Cr6 F14 1.955484 1_455
Cr6 F16 1.986529 1_455
Cr7 F11 1.942687 1_654
Cr7 F2 1.943291 1_555
Cr7 F21 1.947620 1_554
Cr7 F8 1.947827 1_565
Cr7 F18 1.952012 1_664
Cr7 F0 1.956652 1_665
