# generated using pymatgen
data_Li4Fe3O8
_symmetry_space_group_name_H-M   'P 1'
_cell_length_a   5.81718690
_cell_length_b   5.81718690
_cell_length_c   5.81718699
_cell_angle_alpha   57.15010523
_cell_angle_beta   57.15010523
_cell_angle_gamma   57.15010723
_symmetry_Int_Tables_number   1
_chemical_formula_structural   Li4Fe3O8
_chemical_formula_sum   'Li4 Fe3 O8'
_cell_volume   130.05517963
_cell_formula_units_Z   1
loop_
 _symmetry_equiv_pos_site_id
 _symmetry_equiv_pos_as_xyz
  1  'x, y, z'
loop_
 _atom_site_type_symbol
 _atom_site_label
 _atom_site_symmetry_multiplicity
 _atom_site_fract_x
 _atom_site_fract_y
 _atom_site_fract_z
 _atom_site_occupancy
  Li  Li0  1  0.99909900  0.99909900  0.99909900  1
  Li  Li1  1  0.49913200  0.00196200  0.00196200  1
  Li  Li2  1  0.00196200  0.49913200  0.00196200  1
  Li  Li3  1  0.00196200  0.00196200  0.49913200  1
  Fe  Fe0  1  0.98789400  0.50706000  0.50706000  1
  Fe  Fe1  1  0.50706000  0.98789400  0.50706000  1
  Fe  Fe2  1  0.50706000  0.50706000  0.98789400  1
  O  O0  1  0.74721200  0.74721200  0.74721200  1
  O  O1  1  0.72242400  0.24236000  0.24236000  1
  O  O2  1  0.24236000  0.72242400  0.24236000  1
  O  O3  1  0.26223100  0.26223100  0.26223100  1
  O  O4  1  0.24236000  0.24236000  0.72242400  1
  O  O5  1  0.27224400  0.75297700  0.75297700  1
  O  O6  1  0.75297700  0.27224400  0.75297700  1
  O  O7  1  0.75297700  0.75297700  0.27224400  1
loop_
_geom_bond_atom_site_label_1
_geom_bond_atom_site_label_2
_geom_bond_distance
_geom_bond_site_symmetry_2
Li0 O4 1.956042 1_665
Li0 O1 1.956043 1_566
Li0 O2 1.956043 1_656
Li0 O7 1.977942 1_556
Li0 O5 1.977942 1_655
Li0 O6 1.977942 1_565
Li1 O0 2.053554 1_544
Li1 O3 2.107947 1_555
Li1 O6 2.116208 1_554
Li1 O7 2.116209 1_545
Li1 O2 2.175529 1_545
Li1 O4 2.175529 1_554
Li2 O0 2.053554 1_454
Li2 O3 2.107947 1_555
Li2 O5 2.116208 1_554
Li2 O7 2.116209 1_455
Li2 O1 2.175529 1_455
Li2 O4 2.175529 1_554
Li3 O0 2.053554 1_445
Li3 O3 2.107947 1_555
Li3 O5 2.116209 1_545
Li3 O6 2.116209 1_455
Li3 O1 2.175529 1_455
Li3 O2 2.175529 1_545
Fe0 O6 1.887889 1_555
Fe0 O7 1.887889 1_555
Fe0 O2 1.891571 1_655
Fe0 O4 1.891571 1_655
Fe0 O0 1.933104 1_555
Fe0 O3 1.967886 1_655
Fe1 O5 1.887889 1_555
Fe1 O7 1.887889 1_555
Fe1 O1 1.891571 1_565
Fe1 O4 1.891571 1_565
Fe1 O0 1.933104 1_555
Fe1 O3 1.967886 1_565
Fe2 O6 1.887889 1_555
Fe2 O5 1.887889 1_555
Fe2 O1 1.891571 1_556
Fe2 O2 1.891571 1_556
Fe2 O0 1.933104 1_555
Fe2 O3 1.967886 1_556
