# generated using pymatgen
data_Ba4Sn3O10
_symmetry_space_group_name_H-M   'P 1'
_cell_length_a   7.44603207
_cell_length_b   7.44603207
_cell_length_c   14.08963300
_cell_angle_alpha   90.00000000
_cell_angle_beta   90.00000000
_cell_angle_gamma   132.03687482
_symmetry_Int_Tables_number   1
_chemical_formula_structural   Ba4Sn3O10
_chemical_formula_sum   'Ba8 Sn6 O20'
_cell_volume   580.19116685
_cell_formula_units_Z   2
loop_
 _symmetry_equiv_pos_site_id
 _symmetry_equiv_pos_as_xyz
  1  'x, y, z'
loop_
 _atom_site_type_symbol
 _atom_site_label
 _atom_site_symmetry_multiplicity
 _atom_site_fract_x
 _atom_site_fract_y
 _atom_site_fract_z
 _atom_site_occupancy
  Ba  Ba0  1  0.73709000  0.26291000  0.39117200  1
  Ba  Ba1  1  0.53161100  0.46838900  0.14332200  1
  Ba  Ba2  1  0.96838900  0.03161100  0.64332200  1
  Ba  Ba3  1  0.76291000  0.23709000  0.89117200  1
  Ba  Ba4  1  0.46838900  0.53161100  0.85667800  1
  Ba  Ba5  1  0.23709000  0.76291000  0.10882800  1
  Ba  Ba6  1  0.03161100  0.96838900  0.35667800  1
  Ba  Ba7  1  0.26291000  0.73709000  0.60882800  1
  Sn  Sn0  1  0.00000000  0.00000000  0.00000000  1
  Sn  Sn1  1  0.86460000  0.13540000  0.15458200  1
  Sn  Sn2  1  0.63540000  0.36460000  0.65458200  1
  Sn  Sn3  1  0.50000000  0.50000000  0.50000000  1
  Sn  Sn4  1  0.13540000  0.86460000  0.84541800  1
  Sn  Sn5  1  0.36460000  0.63540000  0.34541800  1
  O  O0  1  0.33928600  0.11788300  0.96202800  1
  O  O1  1  0.36581300  0.13418700  0.75000000  1
  O  O2  1  0.38211700  0.16071400  0.53797200  1
  O  O3  1  0.71820800  0.28179200  0.15590200  1
  O  O4  1  0.78179200  0.21820800  0.65590200  1
  O  O5  1  0.96806100  0.03193900  0.85439100  1
  O  O6  1  0.53193900  0.46806100  0.35439100  1
  O  O7  1  0.11788300  0.33928600  0.03797200  1
  O  O8  1  0.83928600  0.61788300  0.53797200  1
  O  O9  1  0.13418700  0.36581300  0.25000000  1
  O  O10  1  0.86581300  0.63418700  0.75000000  1
  O  O11  1  0.16071400  0.38211700  0.46202800  1
  O  O12  1  0.88211700  0.66071400  0.96202800  1
  O  O13  1  0.21820800  0.78179200  0.34409800  1
  O  O14  1  0.28179200  0.71820800  0.84409800  1
  O  O15  1  0.03193900  0.96806100  0.14560900  1
  O  O16  1  0.46806100  0.53193900  0.64560900  1
  O  O17  1  0.61788300  0.83928600  0.46202800  1
  O  O18  1  0.63418700  0.86581300  0.25000000  1
  O  O19  1  0.66071400  0.88211700  0.03797200  1
loop_
_geom_bond_atom_site_label_1
_geom_bond_atom_site_label_2
_geom_bond_distance
_geom_bond_site_symmetry_2
Ba0 O11 2.825717 1_655
Ba0 O17 2.825717 1_545
Ba0 O6 2.839090 1_555
Ba0 O8 3.024858 1_555
Ba0 O2 3.024858 1_555
Ba0 O13 3.108846 1_655
Ba0 O13 3.108846 1_545
Ba0 O9 3.201880 1_655
Ba0 O18 3.201880 1_545
Ba0 O3 3.324809 1_555
Ba1 O3 2.545116 1_555
Ba1 O18 2.927912 1_555
Ba1 O9 2.927912 1_555
Ba1 O19 2.941374 1_555
Ba1 O7 2.941374 1_555
Ba1 O6 2.973888 1_555
Ba1 O15 3.026560 1_655
Ba1 O15 3.026560 1_545
Ba1 O12 3.222068 1_554
Ba1 O0 3.222068 1_554
Ba2 O4 2.545116 1_555
Ba2 O10 2.927912 1_545
Ba2 O1 2.927912 1_655
Ba2 O8 2.941374 1_545
Ba2 O2 2.941374 1_655
Ba2 O5 2.973888 1_555
Ba2 O16 3.026560 1_655
Ba2 O16 3.026560 1_545
Ba2 O17 3.222068 1_545
Ba2 O11 3.222068 1_655
Ba3 O0 2.825717 1_555
Ba3 O12 2.825717 1_555
Ba3 O5 2.839090 1_555
Ba3 O7 3.024858 1_656
Ba3 O19 3.024858 1_546
Ba3 O14 3.108846 1_655
Ba3 O14 3.108846 1_545
Ba3 O1 3.201880 1_555
Ba3 O10 3.201880 1_555
Ba3 O4 3.324809 1_555
Ba4 O14 2.545116 1_555
Ba4 O10 2.927912 1_555
Ba4 O1 2.927912 1_555
Ba4 O12 2.941374 1_555
Ba4 O0 2.941374 1_555
Ba4 O16 2.973888 1_555
Ba4 O5 3.026560 1_565
Ba4 O5 3.026560 1_455
Ba4 O19 3.222068 1_556
Ba4 O7 3.222068 1_556
Ba5 O7 2.825717 1_555
Ba5 O19 2.825717 1_555
Ba5 O15 2.839090 1_555
Ba5 O0 3.024858 1_564
Ba5 O12 3.024858 1_454
Ba5 O3 3.108846 1_565
Ba5 O3 3.108846 1_455
Ba5 O9 3.201880 1_555
Ba5 O18 3.201880 1_555
Ba5 O13 3.324809 1_555
Ba6 O13 2.545116 1_555
Ba6 O18 2.927912 1_455
Ba6 O9 2.927912 1_565
Ba6 O17 2.941374 1_455
Ba6 O11 2.941374 1_565
Ba6 O15 2.973888 1_555
Ba6 O6 3.026560 1_565
Ba6 O6 3.026560 1_455
Ba6 O8 3.222068 1_455
Ba6 O2 3.222068 1_565
Ba7 O8 2.825717 1_455
Ba7 O2 2.825717 1_565
Ba7 O16 2.839090 1_555
Ba7 O17 3.024858 1_555
Ba7 O11 3.024858 1_555
Ba7 O4 3.108846 1_565
Ba7 O4 3.108846 1_455
Ba7 O1 3.201880 1_565
Ba7 O10 3.201880 1_455
Ba7 O14 3.324809 1_555
O0 Sn0 2.114079 1_556
O0 Sn4 2.174080 1_545
O1 Sn4 2.041618 1_545
O1 Sn2 2.041618 1_555
O2 Sn3 2.114079 1_555
O2 Sn2 2.174080 1_555
O3 Sn1 1.991973 1_555
O4 Sn2 1.991973 1_555
O5 Sn0 2.097100 1_656
O5 Sn4 2.280410 1_645
O6 Sn3 2.097100 1_555
O6 Sn5 2.280410 1_555
O7 Sn0 2.114079 1_555
O7 Sn1 2.174080 1_455
O8 Sn3 2.114079 1_555
O8 Sn2 2.174080 1_555
O9 Sn1 2.041618 1_455
O9 Sn5 2.041618 1_555
O10 Sn2 2.041618 1_555
O10 Sn4 2.041618 1_655
O11 Sn3 2.114079 1_555
O11 Sn5 2.174080 1_555
O12 Sn0 2.114079 1_666
O12 Sn4 2.174080 1_655
O13 Sn5 1.991973 1_555
O14 Sn4 1.991973 1_555
O15 Sn0 2.097100 1_565
O15 Sn1 2.280410 1_465
O16 Sn3 2.097100 1_555
O16 Sn2 2.280410 1_555
O17 Sn3 2.114079 1_555
O17 Sn5 2.174080 1_555
O18 Sn5 2.041618 1_555
O18 Sn1 2.041618 1_565
O19 Sn0 2.114079 1_665
O19 Sn1 2.174080 1_565
