# generated using pymatgen
data_KLiNiO2
_symmetry_space_group_name_H-M   'P 1'
_cell_length_a   5.81329211
_cell_length_b   7.57495462
_cell_length_c   6.63140338
_cell_angle_alpha   77.35019679
_cell_angle_beta   106.57706641
_cell_angle_gamma   81.94612800
_symmetry_Int_Tables_number   1
_chemical_formula_structural   KLiNiO2
_chemical_formula_sum   'K4 Li4 Ni4 O8'
_cell_volume   266.60138247
_cell_formula_units_Z   4
loop_
 _symmetry_equiv_pos_site_id
 _symmetry_equiv_pos_as_xyz
  1  'x, y, z'
loop_
 _atom_site_type_symbol
 _atom_site_label
 _atom_site_symmetry_multiplicity
 _atom_site_fract_x
 _atom_site_fract_y
 _atom_site_fract_z
 _atom_site_occupancy
  K  K0  1  0.69610700  0.62609700  0.76754100  1
  K  K1  1  0.69606100  0.62611300  0.26758200  1
  K  K2  1  0.30389300  0.37390300  0.23245900  1
  K  K3  1  0.30393900  0.37388700  0.73241800  1
  Li  Li0  1  0.36826700  0.94854400  0.85485800  1
  Li  Li1  1  0.36836900  0.94855600  0.35504500  1
  Li  Li2  1  0.63173300  0.05145600  0.14514100  1
  Li  Li3  1  0.63163100  0.05144300  0.64495600  1
  Ni  Ni0  1  0.92205900  0.18397100  0.93454000  1
  Ni  Ni1  1  0.07794200  0.81603000  0.06545900  1
  Ni  Ni2  1  0.92209500  0.18428700  0.43448000  1
  Ni  Ni3  1  0.07790400  0.81571200  0.56552000  1
  O  O0  1  0.26858600  0.08209800  0.04657300  1
  O  O1  1  0.26836900  0.08195800  0.54654800  1
  O  O2  1  0.73141400  0.91790100  0.95342700  1
  O  O3  1  0.73163100  0.91804300  0.45345100  1
  O  O4  1  0.22383300  0.70076900  0.88083100  1
  O  O5  1  0.22359400  0.70062900  0.38068500  1
  O  O6  1  0.77616700  0.29923100  0.11916900  1
  O  O7  1  0.77640600  0.29937200  0.61931500  1
loop_
_geom_bond_atom_site_label_1
_geom_bond_atom_site_label_2
_geom_bond_distance
_geom_bond_site_symmetry_2
K0 O2 2.761097 1_555
K0 O3 2.761802 1_555
K0 O7 2.883216 1_555
K0 O6 2.883323 1_556
K0 O4 3.057752 1_555
K0 O5 3.058654 1_555
K0 O4 3.106950 1_655
K1 O2 2.760888 1_554
K1 O3 2.761988 1_555
K1 O7 2.882785 1_555
K1 O6 2.884856 1_555
K1 O4 3.057111 1_554
K1 O5 3.058004 1_555
K1 O5 3.105451 1_655
K2 O0 2.761104 1_555
K2 O1 2.761793 1_555
K2 O5 2.883223 1_555
K2 O4 2.883323 1_554
K2 O6 3.057752 1_555
K2 O7 3.058655 1_555
K2 O6 3.106950 1_455
K3 O0 2.760893 1_556
K3 O1 2.761985 1_555
K3 O5 2.882790 1_555
K3 O4 2.884856 1_555
K3 O6 3.057111 1_556
K3 O7 3.058003 1_555
K3 O7 3.105448 1_455
Li0 O1 1.947242 1_565
Li0 O0 1.948073 1_566
Li0 O2 1.986617 1_555
Li0 O4 2.154035 1_555
Li1 O1 1.946925 1_565
Li1 O0 1.948446 1_565
Li1 O3 1.987356 1_555
Li1 O5 2.156141 1_555
Li2 O3 1.947240 1_545
Li2 O2 1.948072 1_544
Li2 O0 1.986617 1_555
Li2 O6 2.154035 1_555
Li3 O3 1.946927 1_545
Li3 O2 1.948440 1_545
Li3 O1 1.987354 1_555
Li3 O7 2.156155 1_555
Ni0 O0 1.914375 1_656
Ni0 O7 1.957829 1_555
Ni0 O6 1.958016 1_556
Ni0 O2 2.429118 1_545
Ni1 O2 1.914378 1_454
Ni1 O5 1.957834 1_555
Ni1 O4 1.958011 1_554
Ni1 O0 2.429102 1_565
Ni2 O1 1.913667 1_655
Ni2 O7 1.957833 1_555
Ni2 O6 1.957894 1_555
Ni2 O3 2.429664 1_545
Ni3 O3 1.913664 1_455
Ni3 O5 1.957828 1_555
Ni3 O4 1.957893 1_555
Ni3 O1 2.429681 1_565
