# generated using pymatgen
data_Li6V3P8O29
_symmetry_space_group_name_H-M   'P 1'
_cell_length_a   9.80824900
_cell_length_b   9.82727457
_cell_length_c   14.01527697
_cell_angle_alpha   89.83967569
_cell_angle_beta   90.66705722
_cell_angle_gamma   119.89267026
_symmetry_Int_Tables_number   1
_chemical_formula_structural   Li6V3P8O29
_chemical_formula_sum   'Li12 V6 P16 O58'
_cell_volume   1171.09879409
_cell_formula_units_Z   2
loop_
 _symmetry_equiv_pos_site_id
 _symmetry_equiv_pos_as_xyz
  1  'x, y, z'
loop_
 _atom_site_type_symbol
 _atom_site_label
 _atom_site_symmetry_multiplicity
 _atom_site_fract_x
 _atom_site_fract_y
 _atom_site_fract_z
 _atom_site_occupancy
  Li  Li0  1  0.67317300  0.90721000  0.55399100  1
  Li  Li1  1  0.24013200  0.33153600  0.55684200  1
  Li  Li2  1  0.34509700  0.66849600  0.89019400  1
  Li  Li3  1  0.08503000  0.31344600  0.06588500  1
  Li  Li4  1  0.22630600  0.90610300  0.06844200  1
  Li  Li5  1  0.90059400  0.23811000  0.43496600  1
  Li  Li6  1  0.09904700  0.76524100  0.55629500  1
  Li  Li7  1  0.77904300  0.08070400  0.94390200  1
  Li  Li8  1  0.90795500  0.68147800  0.94549500  1
  Li  Li9  1  0.76667200  0.66545000  0.43462700  1
  Li  Li10  1  0.31425200  0.22153500  0.94585000  1
  Li  Li11  1  0.05244200  0.01037900  0.48198000  1
  V  V0  1  0.99561400  0.43191200  0.24893500  1
  V  V1  1  0.00034300  0.56823200  0.74714600  1
  V  V2  1  0.56284500  0.00049300  0.74744700  1
  V  V3  1  0.43484900  0.00501200  0.25441900  1
  V  V4  1  0.56486100  0.56620100  0.24909000  1
  V  V5  1  0.43645300  0.43637800  0.75035500  1
  P  P0  1  0.68676600  0.77421300  0.84001200  1
  P  P1  1  0.69019900  0.91535500  0.34190000  1
  P  P2  1  0.22664700  0.31368900  0.34299800  1
  P  P3  1  0.32876700  0.66420800  0.13029300  1
  P  P4  1  0.33391300  0.66683300  0.62816200  1
  P  P5  1  0.09192400  0.32295800  0.84394900  1
  P  P6  1  0.91530900  0.22976600  0.65807600  1
  P  P7  1  0.23059600  0.90928200  0.84429200  1
  P  P8  1  0.76547700  0.08498800  0.15764000  1
  P  P9  1  0.08883500  0.77361900  0.34009000  1
  P  P10  1  0.90755200  0.68155000  0.15837500  1
  P  P11  1  0.66873500  0.33606500  0.37148000  1
  P  P12  1  0.66758200  0.33362900  0.87007300  1
  P  P13  1  0.76823600  0.68507500  0.65470500  1
  P  P14  1  0.30371300  0.08301300  0.65859500  1
  P  P15  1  0.31738800  0.23050800  0.16089300  1
  O  O0  1  0.76695900  0.76694400  0.56356100  1
  O  O1  1  0.66933800  0.74970700  0.34215100  1
  O  O2  1  0.75583100  0.00186200  0.06727000  1
  O  O3  1  0.66820000  0.92184900  0.84128500  1
  O  O4  1  0.51731100  0.62919300  0.82515000  1
  O  O5  1  0.47394900  0.66145300  0.17774000  1
  O  O6  1  0.38312500  0.46665500  0.33597000  1
  O  O7  1  0.23837500  0.24137500  0.07039900  1
  O  O8  1  0.25432300  0.33383400  0.84616700  1
  O  O9  1  0.48859600  0.81272000  0.67087900  1
  O  O10  1  0.53300700  0.91165600  0.33187300  1
  O  O11  1  0.32492000  0.51286400  0.67127600  1
  O  O12  1  0.33118500  0.65964500  0.02281700  1
  O  O13  1  0.33864100  0.66611900  0.52204000  1
  O  O14  1  0.18024700  0.51062500  0.16580300  1
  O  O15  1  0.37296900  0.88416800  0.82568600  1
  O  O16  1  0.32719400  0.81335300  0.16641800  1
  O  O17  1  0.08377300  0.34220000  0.33702500  1
  O  O18  1  0.00110200  0.21193700  0.75240800  1
  O  O19  1  0.00508700  0.23652100  0.56993000  1
  O  O20  1  0.99767700  0.24785500  0.93181900  1
  O  O21  1  0.11769600  0.48942400  0.82417900  1
  O  O22  1  0.18819200  0.67756000  0.66534400  1
  O  O23  1  0.91275200  0.25197800  0.15973200  1
  O  O24  1  0.08696700  0.61852500  0.33266700  1
  O  O25  1  0.25762300  0.91468200  0.33598500  1
  O  O26  1  0.79286100  0.99968700  0.24858300  1
  O  O27  1  0.78411400  0.00510800  0.43001600  1
  O  O28  1  0.19533500  0.98868700  0.57841300  1
  O  O29  1  0.74831400  0.08628300  0.65646100  1
  O  O30  1  0.91234200  0.38490300  0.67389800  1
  O  O31  1  0.07964500  0.74458900  0.84049100  1
  O  O32  1  0.81082600  0.32279800  0.33071300  1
  O  O33  1  0.90209600  0.52267700  0.17732700  1
  O  O34  1  0.00107900  0.75620500  0.06987800  1
  O  O35  1  0.00741900  0.78689000  0.42891600  1
  O  O36  1  0.99996900  0.79400600  0.24874800  1
  O  O37  1  0.91609800  0.66628600  0.65886200  1
  O  O38  1  0.66107700  0.18224700  0.82352500  1
  O  O39  1  0.61507900  0.09413400  0.17818100  1
  O  O40  1  0.81511900  0.48116300  0.83087300  1
  O  O41  1  0.66001400  0.32299200  0.97569100  1
  O  O42  1  0.67915200  0.34471900  0.47796900  1
  O  O43  1  0.67775600  0.49177400  0.33004300  1
  O  O44  1  0.45876300  0.07865900  0.66516000  1
  O  O45  1  0.51652900  0.19578900  0.32819800  1
  O  O46  1  0.74318400  0.65873600  0.15889100  1
  O  O47  1  0.78592300  0.79659600  0.74318000  1
  O  O48  1  0.77217000  0.75960100  0.92335400  1
  O  O49  1  0.61656300  0.52693800  0.66941000  1
  O  O50  1  0.51663900  0.33510300  0.82743300  1
  O  O51  1  0.47901100  0.37607100  0.17688100  1
  O  O52  1  0.33085700  0.08039200  0.16092400  1
  O  O53  1  0.24622100  0.99441900  0.93617200  1
  O  O54  1  0.21323200  0.00771400  0.75893000  1
  O  O55  1  0.33197000  0.25161100  0.65927200  1
  O  O56  1  0.20781100  0.22053200  0.43245300  1
  O  O57  1  0.20453800  0.20754700  0.25001100  1
loop_
_geom_bond_atom_site_label_1
_geom_bond_atom_site_label_2
_geom_bond_distance
_geom_bond_site_symmetry_2
Li0 O0 2.006041 1_555
Li0 O27 2.029749 1_565
Li0 O29 2.097454 1_565
Li0 O9 2.282193 1_555
Li1 O56 1.995701 1_555
Li1 O19 2.020778 1_555
Li1 O55 2.039118 1_555
Li1 O11 2.224199 1_555
Li2 O12 1.863947 1_556
Li2 O4 2.126369 1_555
Li2 O15 2.191295 1_555
Li2 O21 2.230775 1_555
Li3 O7 1.956304 1_555
Li3 O23 1.995001 1_455
Li3 O20 2.024578 1_454
Li3 O14 2.183803 1_555
Li4 O34 1.951333 1_555
Li4 O52 1.973834 1_565
Li4 O53 2.014557 1_554
Li4 O16 2.134459 1_555
Li5 O27 1.986116 1_555
Li5 O32 2.072779 1_555
Li5 O17 2.091957 1_655
Li5 O19 2.144595 1_655
Li6 O28 1.933844 1_555
Li6 O35 2.047233 1_555
Li6 O37 2.131881 1_455
Li6 O22 2.134314 1_555
Li7 O2 1.862139 1_556
Li7 O20 1.954813 1_555
Li7 O3 1.992968 1_545
Li7 O38 2.505368 1_555
Li8 O48 1.862161 1_555
Li8 O34 1.927183 1_656
Li8 O31 2.097092 1_655
Li8 O40 2.341366 1_555
Li9 O1 2.007471 1_555
Li9 O35 2.049734 1_655
Li9 O0 2.065773 1_555
Li9 O43 2.079108 1_555
Li10 O7 1.953393 1_556
Li10 O53 1.990048 1_545
Li10 O8 2.033250 1_555
Li10 O50 2.408024 1_555
Li11 O56 1.987181 1_555
Li11 O28 2.021994 1_545
Li11 O35 2.146289 1_545
O0 P13 1.511009 1_555
O1 P1 1.536171 1_555
O1 V4 2.035537 1_555
O2 P8 1.485402 1_555
O3 P0 1.549850 1_555
O3 V2 2.038009 1_565
O4 P0 1.571459 1_555
O4 V5 1.952477 1_555
O5 P3 1.577002 1_555
O5 V4 1.864746 1_555
O6 P2 1.525782 1_555
O6 V4 1.980601 1_555
O7 P15 1.509777 1_555
O8 P5 1.542314 1_555
O8 V5 2.064896 1_555
O9 P4 1.590987 1_555
O9 V2 1.934029 1_565
O10 P1 1.528814 1_555
O10 V3 1.948712 1_565
O11 P4 1.589168 1_555
O11 V5 1.943386 1_555
O12 P3 1.507913 1_555
O13 P4 1.488737 1_555
O14 P3 1.571273 1_555
O14 V0 1.970565 1_455
O15 P7 1.559259 1_555
O15 V2 1.973841 1_565
O16 P3 1.559390 1_555
O16 V3 2.045478 1_565
O17 P2 1.561338 1_555
O17 V0 1.943733 1_455
O18 P6 1.614454 1_455
O18 P5 1.625542 1_555
O19 P6 1.507513 1_455
O20 P5 1.502420 1_655
O21 P5 1.550412 1_555
O21 V1 1.986255 1_555
O22 P4 1.579022 1_555
O22 V1 1.983080 1_555
O23 P8 1.554668 1_555
O23 V0 1.976499 1_555
O24 P9 1.518949 1_555
O24 V0 1.973039 1_455
O25 P9 1.542728 1_555
O25 V3 1.902363 1_565
O26 P1 1.613711 1_555
O26 P8 1.615519 1_565
O27 P1 1.523614 1_545
O28 P14 1.499316 1_565
O29 P6 1.539094 1_555
O29 V2 2.040938 1_555
O30 P6 1.555831 1_555
O30 V1 1.866672 1_655
O31 P7 1.557098 1_555
O31 V1 1.991364 1_555
O32 P11 1.576649 1_555
O32 V0 1.962840 1_555
O33 P10 1.557488 1_555
O33 V0 1.852901 1_555
O34 P10 1.506221 1_455
O35 P9 1.527213 1_555
O36 P9 1.607910 1_655
O36 P10 1.621685 1_555
O37 P13 1.551016 1_555
O37 V1 1.976216 1_655
O38 P12 1.597716 1_555
O38 V2 1.878010 1_555
O39 P8 1.552156 1_555
O39 V3 1.878616 1_555
O40 P12 1.555882 1_555
O40 V1 1.975907 1_655
O41 P12 1.483773 1_555
O42 P11 1.494539 1_555
O43 P11 1.596204 1_555
O43 V4 1.954923 1_555
O44 P14 1.544220 1_555
O44 V2 1.926535 1_555
O45 P11 1.558620 1_555
O45 V3 1.928844 1_555
O46 P10 1.513068 1_555
O46 V4 1.985921 1_555
O47 P13 1.606826 1_555
O47 P0 1.628457 1_555
O48 P0 1.477444 1_555
O49 P13 1.540007 1_555
O49 V5 1.916700 1_555
O50 P12 1.596846 1_555
O50 V5 1.878960 1_555
O51 P15 1.530590 1_555
O51 V4 1.909688 1_555
O52 P15 1.545319 1_555
O52 V3 2.005674 1_555
O53 P7 1.501784 1_555
O54 P7 1.596560 1_545
O54 P14 1.637463 1_555
O55 P14 1.537661 1_555
O55 V5 2.025966 1_555
O56 P2 1.508136 1_555
O57 P2 1.615256 1_555
O57 P15 1.617949 1_555
