# generated using pymatgen
data_BaLaCl5
_symmetry_space_group_name_H-M   'P 1'
_cell_length_a   9.28484700
_cell_length_b   10.79013763
_cell_length_c   13.45005268
_cell_angle_alpha   78.29644391
_cell_angle_beta   76.87353772
_cell_angle_gamma   71.21904356
_symmetry_Int_Tables_number   1
_chemical_formula_structural   BaLaCl5
_chemical_formula_sum   'Ba6 La6 Cl30'
_cell_volume   1230.05141667
_cell_formula_units_Z   6
loop_
 _symmetry_equiv_pos_site_id
 _symmetry_equiv_pos_as_xyz
  1  'x, y, z'
loop_
 _atom_site_type_symbol
 _atom_site_label
 _atom_site_symmetry_multiplicity
 _atom_site_fract_x
 _atom_site_fract_y
 _atom_site_fract_z
 _atom_site_occupancy
  Ba  Ba0  1  0.22710800  0.19309200  0.55768200  1
  Ba  Ba1  1  0.27654500  0.49876000  0.23064900  1
  Ba  Ba2  1  0.74716000  0.15311300  0.06279300  1
  Ba  Ba3  1  0.25284000  0.84688700  0.93720700  1
  Ba  Ba4  1  0.72345500  0.50124000  0.76935100  1
  Ba  Ba5  1  0.77289200  0.80690800  0.44231800  1
  La  La0  1  0.21640600  0.34985800  0.92196200  1
  La  La1  1  0.25332300  0.66576300  0.57304100  1
  La  La2  1  0.28038700  0.97683500  0.25508000  1
  La  La3  1  0.71961300  0.02316500  0.74492000  1
  La  La4  1  0.74667700  0.33423700  0.42695900  1
  La  La5  1  0.78359400  0.65014200  0.07803800  1
  Cl  Cl0  1  0.01067400  0.10947600  0.39303900  1
  Cl  Cl1  1  0.01713700  0.39350900  0.11685600  1
  Cl  Cl2  1  0.34734500  0.11949700  0.05664500  1
  Cl  Cl3  1  0.34168800  0.19618800  0.29696000  1
  Cl  Cl4  1  0.97845600  0.28215100  0.87699100  1
  Cl  Cl5  1  0.99790000  0.56285100  0.60342200  1
  Cl  Cl6  1  0.03537700  0.00362100  0.15417500  1
  Cl  Cl7  1  0.14710100  0.75024300  0.36954700  1
  Cl  Cl8  1  0.36120900  0.09829500  0.78953100  1
  Cl  Cl9  1  0.38460400  0.42811600  0.45615700  1
  Cl  Cl10  1  0.40566500  0.75076800  0.13380000  1
  Cl  Cl11  1  0.33187400  0.43348800  0.71499100  1
  Cl  Cl12  1  0.66826800  0.47442800  0.01853900  1
  Cl  Cl13  1  0.68120000  0.24069800  0.27366000  1
  Cl  Cl14  1  0.61123800  0.10901600  0.54257900  1
  Cl  Cl15  1  0.38876200  0.89098400  0.45742100  1
  Cl  Cl16  1  0.31880000  0.75930200  0.72634000  1
  Cl  Cl17  1  0.33173200  0.52557200  0.98146100  1
  Cl  Cl18  1  0.66812600  0.56651200  0.28500900  1
  Cl  Cl19  1  0.59433500  0.24923200  0.86620000  1
  Cl  Cl20  1  0.61539600  0.57188400  0.54384300  1
  Cl  Cl21  1  0.63879100  0.90170500  0.21046900  1
  Cl  Cl22  1  0.85289900  0.24975700  0.63045300  1
  Cl  Cl23  1  0.96462300  0.99637900  0.84582500  1
  Cl  Cl24  1  0.00210000  0.43714900  0.39657800  1
  Cl  Cl25  1  0.02154400  0.71784900  0.12300900  1
  Cl  Cl26  1  0.65831200  0.80381200  0.70304000  1
  Cl  Cl27  1  0.65265500  0.88050300  0.94335500  1
  Cl  Cl28  1  0.98286300  0.60649100  0.88314400  1
  Cl  Cl29  1  0.98932600  0.89052400  0.60696100  1
loop_
_geom_bond_atom_site_label_1
_geom_bond_atom_site_label_2
_geom_bond_distance
_geom_bond_site_symmetry_2
Ba0 Cl9 3.241917 1_555
Ba0 Cl22 3.276291 1_455
Ba0 Cl14 3.353671 1_555
Ba0 Cl3 3.422121 1_555
Ba0 Cl8 3.459810 1_555
Ba0 Cl24 3.491899 1_555
Ba0 Cl15 3.522945 1_545
Ba0 Cl0 3.708826 1_555
Ba1 Cl3 3.100383 1_555
Ba1 Cl24 3.133967 1_555
Ba1 Cl25 3.139216 1_555
Ba1 Cl10 3.237422 1_555
Ba1 Cl17 3.240597 1_554
Ba1 Cl9 3.277059 1_555
Ba1 Cl7 3.351824 1_555
Ba1 Cl1 3.684324 1_555
Ba2 Cl6 3.030505 1_655
Ba2 Cl13 3.039386 1_555
Ba2 Cl19 3.118461 1_554
Ba2 Cl12 3.261399 1_555
Ba2 Cl4 3.297255 1_554
Ba2 Cl21 3.313660 1_545
Ba2 Cl23 3.546858 1_544
Ba3 Cl23 3.030505 1_455
Ba3 Cl16 3.039386 1_555
Ba3 Cl10 3.118461 1_556
Ba3 Cl17 3.261399 1_555
Ba3 Cl25 3.297255 1_556
Ba3 Cl8 3.313660 1_565
Ba3 Cl6 3.546858 1_566
Ba4 Cl26 3.100383 1_555
Ba4 Cl5 3.133967 1_555
Ba4 Cl4 3.139216 1_555
Ba4 Cl19 3.237422 1_555
Ba4 Cl12 3.240597 1_556
Ba4 Cl20 3.277059 1_555
Ba4 Cl22 3.351824 1_555
Ba4 Cl28 3.684324 1_555
Ba5 Cl20 3.241917 1_555
Ba5 Cl7 3.276291 1_655
Ba5 Cl15 3.353671 1_555
Ba5 Cl26 3.422121 1_555
Ba5 Cl21 3.459810 1_555
Ba5 Cl5 3.491899 1_555
Ba5 Cl14 3.522945 1_565
Ba5 Cl29 3.708826 1_555
Cl0 La4 2.865521 1_455
Cl0 La2 2.902020 1_545
Cl1 La0 2.872860 1_554
Cl1 La5 2.950233 1_455
Cl2 La2 2.841693 1_545
Cl2 La0 2.857562 1_554
Cl3 La2 2.792338 1_545
Cl4 La0 2.757946 1_655
Cl5 La1 2.845312 1_655
Cl6 La2 2.814313 1_545
Cl7 La1 2.988281 1_555
Cl7 La2 3.071711 1_555
Cl8 La3 3.105537 1_555
Cl8 La0 3.297297 1_555
Cl9 La1 3.047146 1_555
Cl9 La4 3.138627 1_555
Cl10 La2 2.981532 1_555
Cl10 La5 3.276634 1_555
Cl11 La0 2.821584 1_555
Cl11 La1 2.823601 1_555
Cl12 La5 2.773760 1_555
Cl13 La4 2.729166 1_555
Cl14 La3 2.982959 1_555
Cl14 La4 3.074373 1_555
Cl15 La2 2.982959 1_555
Cl15 La1 3.074373 1_555
Cl16 La1 2.729166 1_555
Cl17 La0 2.773760 1_555
Cl18 La5 2.821584 1_555
Cl18 La4 2.823601 1_555
Cl19 La3 2.981532 1_555
Cl19 La0 3.276634 1_555
Cl20 La4 3.047146 1_555
Cl20 La1 3.138627 1_555
Cl21 La2 3.105537 1_555
Cl21 La5 3.297297 1_555
Cl22 La4 2.988281 1_555
Cl22 La3 3.071711 1_555
Cl23 La3 2.814313 1_565
Cl24 La4 2.845312 1_455
Cl25 La5 2.757946 1_455
Cl26 La3 2.792338 1_565
Cl27 La3 2.841693 1_565
Cl27 La5 2.857562 1_556
Cl28 La5 2.872860 1_556
Cl28 La0 2.950233 1_655
Cl29 La1 2.865521 1_655
Cl29 La3 2.902020 1_565
