# generated using pymatgen
data_LiMn(SiO3)2
_symmetry_space_group_name_H-M   'P 1'
_cell_length_a   5.15479100
_cell_length_b   8.96627500
_cell_length_c   18.60781700
_cell_angle_alpha   90.00000000
_cell_angle_beta   90.00000000
_cell_angle_gamma   90.00000000
_symmetry_Int_Tables_number   1
_chemical_formula_structural   LiMn(SiO3)2
_chemical_formula_sum   'Li8 Mn8 Si16 O48'
_cell_volume   860.03978639
_cell_formula_units_Z   8
loop_
 _symmetry_equiv_pos_site_id
 _symmetry_equiv_pos_as_xyz
  1  'x, y, z'
loop_
 _atom_site_type_symbol
 _atom_site_label
 _atom_site_symmetry_multiplicity
 _atom_site_fract_x
 _atom_site_fract_y
 _atom_site_fract_z
 _atom_site_occupancy
  Li  Li0  1  0.63284100  0.66066500  0.12280000  1
  Li  Li1  1  0.13284100  0.83933500  0.12280000  1
  Li  Li2  1  0.13284100  0.33933500  0.37720000  1
  Li  Li3  1  0.63284100  0.16066500  0.37720000  1
  Li  Li4  1  0.36715900  0.83933500  0.62280000  1
  Li  Li5  1  0.86715900  0.66066500  0.62280000  1
  Li  Li6  1  0.36715900  0.33933500  0.87720000  1
  Li  Li7  1  0.86715900  0.16066500  0.87720000  1
  Mn  Mn0  1  0.63858400  0.00189600  0.12387700  1
  Mn  Mn1  1  0.13858400  0.49810400  0.12387700  1
  Mn  Mn2  1  0.13858400  0.99810400  0.37612300  1
  Mn  Mn3  1  0.63858400  0.50189600  0.37612300  1
  Mn  Mn4  1  0.36141600  0.49810400  0.62387700  1
  Mn  Mn5  1  0.86141600  0.00189600  0.62387700  1
  Mn  Mn6  1  0.36141600  0.99810400  0.87612300  1
  Mn  Mn7  1  0.86141600  0.50189600  0.87612300  1
  Si  Si0  1  0.71029900  0.33821000  0.02727800  1
  Si  Si1  1  0.21029900  0.16179000  0.02727800  1
  Si  Si2  1  0.43711300  0.34307700  0.22814300  1
  Si  Si3  1  0.93711300  0.15692300  0.22814300  1
  Si  Si4  1  0.43711300  0.84307700  0.27185700  1
  Si  Si5  1  0.93711300  0.65692300  0.27185700  1
  Si  Si6  1  0.71029900  0.83821000  0.47272200  1
  Si  Si7  1  0.21029900  0.66179000  0.47272200  1
  Si  Si8  1  0.78970100  0.33821000  0.52727800  1
  Si  Si9  1  0.28970100  0.16179000  0.52727800  1
  Si  Si10  1  0.06288700  0.34307700  0.72814300  1
  Si  Si11  1  0.56288700  0.15692300  0.72814300  1
  Si  Si12  1  0.06288700  0.84307700  0.77185700  1
  Si  Si13  1  0.56288700  0.65692300  0.77185700  1
  Si  Si14  1  0.78970100  0.83821000  0.97272200  1
  Si  Si15  1  0.28970100  0.66179000  0.97272200  1
  O  O0  1  0.90067300  0.19390900  0.05309700  1
  O  O1  1  0.40067300  0.30609100  0.05309700  1
  O  O2  1  0.79894300  0.84965100  0.05964800  1
  O  O3  1  0.29894300  0.65034900  0.05964800  1
  O  O4  1  0.82690700  0.48137200  0.06926600  1
  O  O5  1  0.32690700  0.01862800  0.06926600  1
  O  O6  1  0.45591300  0.85033400  0.18580700  1
  O  O7  1  0.95591300  0.64966600  0.18580700  1
  O  O8  1  0.93400500  0.99702500  0.18629800  1
  O  O9  1  0.43400500  0.50297500  0.18629800  1
  O  O10  1  0.15963100  0.27350300  0.19630300  1
  O  O11  1  0.65963100  0.22649700  0.19630300  1
  O  O12  1  0.15963100  0.77350300  0.30369700  1
  O  O13  1  0.65963100  0.72649700  0.30369700  1
  O  O14  1  0.93400500  0.49702500  0.31370200  1
  O  O15  1  0.43400500  0.00297500  0.31370200  1
  O  O16  1  0.45591300  0.35033400  0.31419300  1
  O  O17  1  0.95591300  0.14966600  0.31419300  1
  O  O18  1  0.82690700  0.98137200  0.43073400  1
  O  O19  1  0.32690700  0.51862800  0.43073400  1
  O  O20  1  0.79894300  0.34965100  0.44035200  1
  O  O21  1  0.29894300  0.15034900  0.44035200  1
  O  O22  1  0.40067300  0.80609100  0.44690300  1
  O  O23  1  0.90067300  0.69390900  0.44690300  1
  O  O24  1  0.09932700  0.30609100  0.55309700  1
  O  O25  1  0.59932700  0.19390900  0.55309700  1
  O  O26  1  0.70105700  0.84965100  0.55964800  1
  O  O27  1  0.20105700  0.65034900  0.55964800  1
  O  O28  1  0.67309300  0.48137200  0.56926600  1
  O  O29  1  0.17309300  0.01862800  0.56926600  1
  O  O30  1  0.04408700  0.85033400  0.68580700  1
  O  O31  1  0.54408700  0.64966600  0.68580700  1
  O  O32  1  0.56599500  0.99702500  0.68629800  1
  O  O33  1  0.06599500  0.50297500  0.68629800  1
  O  O34  1  0.34036900  0.27350300  0.69630300  1
  O  O35  1  0.84036900  0.22649700  0.69630300  1
  O  O36  1  0.34036900  0.77350300  0.80369700  1
  O  O37  1  0.84036900  0.72649700  0.80369700  1
  O  O38  1  0.56599500  0.49702500  0.81370200  1
  O  O39  1  0.06599500  0.00297500  0.81370200  1
  O  O40  1  0.04408700  0.35033400  0.81419300  1
  O  O41  1  0.54408700  0.14966600  0.81419300  1
  O  O42  1  0.67309300  0.98137200  0.93073400  1
  O  O43  1  0.17309300  0.51862800  0.93073400  1
  O  O44  1  0.70105700  0.34965100  0.94035200  1
  O  O45  1  0.20105700  0.15034900  0.94035200  1
  O  O46  1  0.09932700  0.80609100  0.94690300  1
  O  O47  1  0.59932700  0.69390900  0.94690300  1
loop_
_geom_bond_atom_site_label_1
_geom_bond_atom_site_label_2
_geom_bond_distance
_geom_bond_site_symmetry_2
Li0 O7 2.039057 1_555
Li0 O3 2.086122 1_555
Li0 O9 2.108486 1_555
Li0 O4 2.139487 1_555
Li0 O2 2.232791 1_555
Li0 O6 2.257984 1_555
Li1 O6 2.039057 1_555
Li1 O2 2.086122 1_455
Li1 O8 2.108486 1_455
Li1 O5 2.139487 1_565
Li1 O3 2.232791 1_555
Li1 O7 2.257984 1_455
Li2 O16 2.039057 1_555
Li2 O20 2.086122 1_455
Li2 O14 2.108486 1_455
Li2 O19 2.139487 1_555
Li2 O21 2.232791 1_555
Li2 O17 2.257984 1_455
Li3 O17 2.039057 1_555
Li3 O21 2.086122 1_555
Li3 O15 2.108486 1_555
Li3 O18 2.139487 1_545
Li3 O20 2.232791 1_555
Li3 O16 2.257984 1_555
Li4 O30 2.039057 1_555
Li4 O26 2.086122 1_555
Li4 O32 2.108486 1_555
Li4 O29 2.139487 1_565
Li4 O27 2.232791 1_555
Li4 O31 2.257984 1_555
Li5 O31 2.039057 1_555
Li5 O27 2.086122 1_655
Li5 O33 2.108486 1_655
Li5 O28 2.139487 1_555
Li5 O26 2.232791 1_555
Li5 O30 2.257984 1_655
Li6 O40 2.039057 1_555
Li6 O44 2.086122 1_555
Li6 O38 2.108486 1_555
Li6 O43 2.139487 1_555
Li6 O45 2.232791 1_555
Li6 O41 2.257984 1_555
Li7 O41 2.039057 1_555
Li7 O45 2.086122 1_655
Li7 O39 2.108486 1_655
Li7 O42 2.139487 1_545
Li7 O44 2.232791 1_555
Li7 O40 2.257984 1_655
Mn0 O5 1.906938 1_555
Mn0 O8 1.915739 1_545
Mn0 O2 1.993771 1_545
Mn0 O6 2.015289 1_545
Mn0 O11 2.425607 1_555
Mn0 O0 2.554200 1_555
Mn1 O4 1.906938 1_455
Mn1 O9 1.915739 1_555
Mn1 O3 1.993771 1_555
Mn1 O7 2.015289 1_455
Mn1 O10 2.425607 1_555
Mn1 O1 2.554200 1_555
Mn2 O18 1.906938 1_455
Mn2 O15 1.915739 1_565
Mn2 O21 1.993771 1_565
Mn2 O17 2.015289 1_465
Mn2 O12 2.425607 1_555
Mn2 O22 2.554200 1_555
Mn3 O19 1.906938 1_555
Mn3 O14 1.915739 1_555
Mn3 O20 1.993771 1_555
Mn3 O16 2.015289 1_555
Mn3 O13 2.425607 1_555
Mn3 O23 2.554200 1_555
Mn4 O28 1.906938 1_555
Mn4 O33 1.915739 1_555
Mn4 O27 1.993771 1_555
Mn4 O31 2.015289 1_555
Mn4 O34 2.425607 1_555
Mn4 O24 2.554200 1_555
Mn5 O29 1.906938 1_655
Mn5 O32 1.915739 1_545
Mn5 O26 1.993771 1_545
Mn5 O30 2.015289 1_645
Mn5 O35 2.425607 1_555
Mn5 O25 2.554200 1_555
Mn6 O42 1.906938 1_555
Mn6 O39 1.915739 1_565
Mn6 O45 1.993771 1_565
Mn6 O41 2.015289 1_565
Mn6 O36 2.425607 1_555
Mn6 O46 2.554200 1_555
Mn7 O43 1.906938 1_655
Mn7 O38 1.915739 1_555
Mn7 O44 1.993771 1_555
Mn7 O40 2.015289 1_655
Mn7 O37 2.425607 1_555
Mn7 O47 2.554200 1_555
O0 Si1 1.691495 1_655
O0 Si0 1.693479 1_555
O1 Si0 1.691495 1_555
O1 Si1 1.693479 1_555
O2 Si14 1.621453 1_554
O3 Si15 1.621453 1_554
O4 Si0 1.618472 1_555
O5 Si1 1.618472 1_555
O6 Si4 1.605452 1_555
O7 Si5 1.605452 1_555
O8 Si3 1.631566 1_565
O9 Si2 1.631566 1_555
O10 Si3 1.661126 1_455
O10 Si2 1.669164 1_555
O11 Si2 1.661126 1_555
O11 Si3 1.669164 1_555
O12 Si5 1.661126 1_455
O12 Si4 1.669164 1_555
O13 Si4 1.661126 1_555
O13 Si5 1.669164 1_555
O14 Si5 1.631566 1_555
O15 Si4 1.631566 1_545
O16 Si2 1.605452 1_555
O17 Si3 1.605452 1_555
O18 Si6 1.618472 1_555
O19 Si7 1.618472 1_555
O20 Si8 1.621453 1_555
O21 Si9 1.621453 1_555
O22 Si6 1.691495 1_555
O22 Si7 1.693479 1_555
O23 Si7 1.691495 1_655
O23 Si6 1.693479 1_555
O24 Si8 1.691495 1_455
O24 Si9 1.693479 1_555
O25 Si9 1.691495 1_555
O25 Si8 1.693479 1_555
O26 Si6 1.621453 1_555
O27 Si7 1.621453 1_555
O28 Si8 1.618472 1_555
O29 Si9 1.618472 1_555
O30 Si12 1.605452 1_555
O31 Si13 1.605452 1_555
O32 Si11 1.631566 1_565
O33 Si10 1.631566 1_555
O34 Si11 1.661126 1_555
O34 Si10 1.669164 1_555
O35 Si10 1.661126 1_655
O35 Si11 1.669164 1_555
O36 Si13 1.661126 1_555
O36 Si12 1.669164 1_555
O37 Si12 1.661126 1_655
O37 Si13 1.669164 1_555
O38 Si13 1.631566 1_555
O39 Si12 1.631566 1_545
O40 Si10 1.605452 1_555
O41 Si11 1.605452 1_555
O42 Si14 1.618472 1_555
O43 Si15 1.618472 1_555
O44 Si0 1.621453 1_556
O45 Si1 1.621453 1_556
O46 Si14 1.691495 1_455
O46 Si15 1.693479 1_555
O47 Si15 1.691495 1_555
O47 Si14 1.693479 1_555
