# generated using pymatgen
data_Fe10O11
_symmetry_space_group_name_H-M   'P 1'
_cell_length_a   6.81032000
_cell_length_b   6.89313111
_cell_length_c   10.75721559
_cell_angle_alpha   96.90542676
_cell_angle_beta   103.99551534
_cell_angle_gamma   108.13812805
_symmetry_Int_Tables_number   1
_chemical_formula_structural   Fe10O11
_chemical_formula_sum   'Fe20 O22'
_cell_volume   455.06354630
_cell_formula_units_Z   2
loop_
 _symmetry_equiv_pos_site_id
 _symmetry_equiv_pos_as_xyz
  1  'x, y, z'
loop_
 _atom_site_type_symbol
 _atom_site_label
 _atom_site_symmetry_multiplicity
 _atom_site_fract_x
 _atom_site_fract_y
 _atom_site_fract_z
 _atom_site_occupancy
  Fe  Fe0  1  0.50000000  0.00000000  0.50000000  1
  Fe  Fe1  1  0.66827200  0.91239900  0.27038700  1
  Fe  Fe2  1  0.50000000  0.00000000  0.00000000  1
  Fe  Fe3  1  0.13095600  0.17809300  0.95310300  1
  Fe  Fe4  1  0.33172800  0.08760100  0.72961300  1
  Fe  Fe5  1  0.94473100  0.25937800  0.68485900  1
  Fe  Fe6  1  0.14278600  0.18053900  0.45100300  1
  Fe  Fe7  1  0.76212500  0.36069200  0.40640800  1
  Fe  Fe8  1  0.96605600  0.27315900  0.18602800  1
  Fe  Fe9  1  0.58256300  0.44262800  0.13731200  1
  Fe  Fe10  1  0.77499600  0.34892300  0.90871900  1
  Fe  Fe11  1  0.41743700  0.55737200  0.86268800  1
  Fe  Fe12  1  0.59372400  0.47058100  0.64157300  1
  Fe  Fe13  1  0.23787500  0.63930800  0.59359200  1
  Fe  Fe14  1  0.40627600  0.52941900  0.35842700  1
  Fe  Fe15  1  0.05526900  0.74062200  0.31514100  1
  Fe  Fe16  1  0.22500400  0.65107700  0.09128100  1
  Fe  Fe17  1  0.86904400  0.82190700  0.04689700  1
  Fe  Fe18  1  0.03394400  0.72684100  0.81397200  1
  Fe  Fe19  1  0.85721400  0.81946100  0.54899700  1
  O  O0  1  0.07700100  0.44569300  0.37872800  1
  O  O1  1  0.90407400  0.53207200  0.12007300  1
  O  O2  1  0.09592600  0.46792800  0.87992700  1
  O  O3  1  0.74186000  0.62433200  0.85295200  1
  O  O4  1  0.92299900  0.55430700  0.62127200  1
  O  O5  1  0.53886600  0.71935300  0.56015400  1
  O  O6  1  0.73533100  0.65166800  0.33786400  1
  O  O7  1  0.37281400  0.80294600  0.30173400  1
  O  O8  1  0.55208600  0.73339900  0.07866300  1
  O  O9  1  0.17322800  0.89039900  0.00362500  1
  O  O10  1  0.34005900  0.82125200  0.79426200  1
  O  O11  1  0.02878800  0.00001600  0.75482400  1
  O  O12  1  0.18299600  0.91571900  0.53356700  1
  O  O13  1  0.81700400  0.08428100  0.46643300  1
  O  O14  1  0.97121200  0.99998400  0.24517600  1
  O  O15  1  0.65994100  0.17874800  0.20573800  1
  O  O16  1  0.82677200  0.10960100  0.99637500  1
  O  O17  1  0.44791400  0.26660100  0.92133700  1
  O  O18  1  0.62718600  0.19705400  0.69826600  1
  O  O19  1  0.26466900  0.34833200  0.66213600  1
  O  O20  1  0.46113400  0.28064700  0.43984600  1
  O  O21  1  0.25814000  0.37566800  0.14704800  1
loop_
_geom_bond_atom_site_label_1
_geom_bond_atom_site_label_2
_geom_bond_distance
_geom_bond_site_symmetry_2
Fe0 O20 2.183621 1_555
Fe0 O5 2.183621 1_545
Fe0 O13 2.185255 1_555
Fe0 O12 2.185255 1_545
Fe0 O7 2.195762 1_545
Fe0 O18 2.195762 1_555
Fe1 O7 2.043501 1_555
Fe1 O15 2.051944 1_565
Fe1 O14 2.056451 1_555
Fe1 O8 2.095940 1_555
Fe1 O13 2.120374 1_565
Fe1 O6 2.151735 1_555
Fe2 O16 2.127687 1_554
Fe2 O9 2.127687 1_545
Fe2 O8 2.203109 1_545
Fe2 O17 2.203109 1_554
Fe2 O15 2.223817 1_555
Fe2 O10 2.223817 1_544
Fe3 O16 2.154387 1_455
Fe3 O11 2.158960 1_555
Fe3 O21 2.160080 1_556
Fe3 O17 2.176105 1_555
Fe3 O9 2.202254 1_546
Fe3 O2 2.291751 1_555
Fe4 O18 2.043501 1_555
Fe4 O10 2.051944 1_545
Fe4 O11 2.056451 1_555
Fe4 O17 2.095940 1_555
Fe4 O12 2.120374 1_545
Fe4 O19 2.151735 1_555
Fe5 O18 2.114104 1_555
Fe5 O19 2.155242 1_655
Fe5 O2 2.199541 1_655
Fe5 O11 2.200640 1_655
Fe5 O4 2.257336 1_555
Fe5 O13 2.325958 1_555
Fe6 O20 2.098885 1_555
Fe6 O13 2.162956 1_455
Fe6 O12 2.186205 1_545
Fe6 O0 2.197473 1_555
Fe6 O14 2.235445 1_445
Fe6 O19 2.245848 1_555
Fe7 O20 2.082272 1_555
Fe7 O0 2.144516 1_655
Fe7 O15 2.189969 1_555
Fe7 O13 2.193035 1_555
Fe7 O6 2.262381 1_555
Fe7 O4 2.333840 1_555
Fe8 O16 2.044028 1_554
Fe8 O15 2.053505 1_555
Fe8 O21 2.057070 1_655
Fe8 O14 2.066479 1_545
Fe8 O0 2.091034 1_655
Fe8 O1 2.120253 1_555
Fe9 O1 2.142943 1_555
Fe9 O21 2.143403 1_555
Fe9 O15 2.204370 1_555
Fe9 O8 2.226696 1_555
Fe9 O6 2.246432 1_555
Fe9 O17 2.304285 1_554
Fe10 O16 2.076125 1_555
Fe10 O3 2.118950 1_555
Fe10 O17 2.163353 1_555
Fe10 O2 2.195012 1_655
Fe10 O18 2.214976 1_555
Fe10 O1 2.277686 1_556
Fe11 O2 2.142943 1_555
Fe11 O3 2.143403 1_555
Fe11 O10 2.204370 1_555
Fe11 O17 2.226696 1_555
Fe11 O19 2.246432 1_555
Fe11 O8 2.304285 1_556
Fe12 O5 2.109275 1_555
Fe12 O18 2.110831 1_555
Fe12 O4 2.206994 1_555
Fe12 O20 2.207135 1_555
Fe12 O19 2.211292 1_555
Fe12 O3 2.226350 1_555
Fe13 O5 2.082272 1_555
Fe13 O4 2.144516 1_455
Fe13 O10 2.189969 1_555
Fe13 O12 2.193035 1_555
Fe13 O19 2.262381 1_555
Fe13 O0 2.333840 1_555
Fe14 O20 2.109275 1_555
Fe14 O7 2.110831 1_555
Fe14 O0 2.206994 1_555
Fe14 O5 2.207135 1_555
Fe14 O6 2.211292 1_555
Fe14 O21 2.226350 1_555
Fe15 O7 2.114104 1_555
Fe15 O6 2.155242 1_455
Fe15 O1 2.199541 1_455
Fe15 O14 2.200640 1_455
Fe15 O0 2.257336 1_555
Fe15 O12 2.325958 1_555
Fe16 O9 2.076125 1_555
Fe16 O21 2.118950 1_555
Fe16 O8 2.163353 1_555
Fe16 O1 2.195012 1_455
Fe16 O7 2.214976 1_555
Fe16 O2 2.277686 1_554
Fe17 O9 2.154387 1_655
Fe17 O14 2.158960 1_555
Fe17 O3 2.160080 1_554
Fe17 O8 2.176105 1_555
Fe17 O16 2.202254 1_564
Fe17 O1 2.291751 1_555
Fe18 O9 2.044028 1_556
Fe18 O10 2.053505 1_555
Fe18 O3 2.057070 1_455
Fe18 O11 2.066479 1_565
Fe18 O4 2.091034 1_455
Fe18 O2 2.120253 1_555
Fe19 O5 2.098885 1_555
Fe19 O12 2.162956 1_655
Fe19 O13 2.186205 1_565
Fe19 O4 2.197473 1_555
Fe19 O11 2.235445 1_665
Fe19 O6 2.245848 1_555
