# generated using pymatgen
data_Cr3Fe(PO4)6
_symmetry_space_group_name_H-M   'P 1'
_cell_length_a   8.82019138
_cell_length_b   8.82019147
_cell_length_c   8.82019152
_cell_angle_alpha   58.38213339
_cell_angle_beta   58.38212752
_cell_angle_gamma   58.38213487
_symmetry_Int_Tables_number   1
_chemical_formula_structural   Cr3Fe(PO4)6
_chemical_formula_sum   'Cr3 Fe1 P6 O24'
_cell_volume   467.22897603
_cell_formula_units_Z   1
loop_
 _symmetry_equiv_pos_site_id
 _symmetry_equiv_pos_as_xyz
  1  'x, y, z'
loop_
 _atom_site_type_symbol
 _atom_site_label
 _atom_site_symmetry_multiplicity
 _atom_site_fract_x
 _atom_site_fract_y
 _atom_site_fract_z
 _atom_site_occupancy
  Cr  Cr0  1  0.14288800  0.14288800  0.14288800  1
  Cr  Cr1  1  0.35725800  0.35725800  0.35725800  1
  Cr  Cr2  1  0.64270700  0.64270700  0.64270700  1
  Fe  Fe0  1  0.85693800  0.85693800  0.85693800  1
  P  P0  1  0.03428000  0.75058400  0.46418200  1
  P  P1  1  0.46418200  0.03428000  0.75058400  1
  P  P2  1  0.75058400  0.46418200  0.03428000  1
  P  P3  1  0.25215200  0.53236600  0.96674300  1
  P  P4  1  0.53236600  0.96674300  0.25215200  1
  P  P5  1  0.96674300  0.25215200  0.53236600  1
  O  O0  1  0.13609100  0.28700200  0.50192700  1
  O  O1  1  0.28700200  0.50192700  0.13609100  1
  O  O2  1  0.06296300  0.92284400  0.28059000  1
  O  O3  1  0.50192700  0.13609100  0.28700200  1
  O  O4  1  0.21860700  0.57876000  0.42986600  1
  O  O5  1  0.01507700  0.77248100  0.63452800  1
  O  O6  1  0.28059000  0.06296300  0.92284400  1
  O  O7  1  0.42986600  0.21860700  0.57876000  1
  O  O8  1  0.57876000  0.42986600  0.21860700  1
  O  O9  1  0.22276200  0.36192700  0.99211300  1
  O  O10  1  0.08099500  0.71432300  0.94235900  1
  O  O11  1  0.36192700  0.99211300  0.22276200  1
  O  O12  1  0.63452800  0.01507700  0.77248100  1
  O  O13  1  0.92284400  0.28059000  0.06296300  1
  O  O14  1  0.77248100  0.63452800  0.01507700  1
  O  O15  1  0.42617200  0.55931400  0.78389500  1
  O  O16  1  0.55931400  0.78389500  0.42617200  1
  O  O17  1  0.71432300  0.94235900  0.08099500  1
  O  O18  1  0.99211300  0.22276200  0.36192700  1
  O  O19  1  0.78389500  0.42617200  0.55931400  1
  O  O20  1  0.49107500  0.86296400  0.72126700  1
  O  O21  1  0.94235900  0.08099500  0.71432300  1
  O  O22  1  0.72126700  0.49107500  0.86296400  1
  O  O23  1  0.86296400  0.72126700  0.49107500  1
loop_
_geom_bond_atom_site_label_1
_geom_bond_atom_site_label_2
_geom_bond_distance
_geom_bond_site_symmetry_2
Cr0 O18 1.936039 1_455
Cr0 O9 1.936039 1_554
Cr0 O11 1.936039 1_545
Cr0 O6 1.950428 1_554
Cr0 O2 1.950428 1_545
Cr0 O13 1.950428 1_455
Cr1 O0 1.909466 1_555
Cr1 O3 1.909466 1_555
Cr1 O1 1.909466 1_555
Cr1 O8 1.925662 1_555
Cr1 O4 1.925662 1_555
Cr1 O7 1.925662 1_555
Cr2 O15 1.938618 1_555
Cr2 O19 1.938618 1_555
Cr2 O16 1.938618 1_555
Cr2 O23 1.938674 1_555
Cr2 O20 1.938674 1_555
Cr2 O22 1.938674 1_555
Fe0 O5 1.980539 1_655
Fe0 O14 1.980539 1_556
Fe0 O12 1.980539 1_565
Fe0 O17 2.004103 1_556
Fe0 O21 2.004103 1_565
Fe0 O10 2.004103 1_655
O0 P5 1.540147 1_455
O1 P3 1.540147 1_554
O2 P0 1.545472 1_555
O3 P4 1.540147 1_545
O4 P0 1.553448 1_555
O5 P0 1.525314 1_555
O6 P1 1.545471 1_555
O7 P1 1.553448 1_555
O8 P2 1.553448 1_555
O9 P3 1.540215 1_555
O10 P3 1.529427 1_555
O11 P4 1.540215 1_555
O12 P1 1.525314 1_555
O13 P2 1.545472 1_555
O14 P2 1.525314 1_555
O15 P3 1.548705 1_555
O16 P4 1.548706 1_555
O17 P4 1.529427 1_555
O18 P5 1.540215 1_555
O19 P5 1.548705 1_555
O20 P1 1.541406 1_565
O21 P5 1.529427 1_555
O22 P2 1.541406 1_556
O23 P0 1.541406 1_655
