# generated using pymatgen
data_Li24Ti5Cr7O36
_symmetry_space_group_name_H-M   'P 1'
_cell_length_a   5.04865400
_cell_length_b   5.06000124
_cell_length_c   28.93585695
_cell_angle_alpha   89.69597343
_cell_angle_beta   89.72273793
_cell_angle_gamma   60.08247704
_symmetry_Int_Tables_number   1
_chemical_formula_structural   Li24Ti5Cr7O36
_chemical_formula_sum   'Li24 Ti5 Cr7 O36'
_cell_volume   640.68720020
_cell_formula_units_Z   1
loop_
 _symmetry_equiv_pos_site_id
 _symmetry_equiv_pos_as_xyz
  1  'x, y, z'
loop_
 _atom_site_type_symbol
 _atom_site_label
 _atom_site_symmetry_multiplicity
 _atom_site_fract_x
 _atom_site_fract_y
 _atom_site_fract_z
 _atom_site_occupancy
  Li  Li0  1  0.49169000  0.16959100  0.33326100  1
  Li  Li1  1  0.49863900  0.16844100  0.08341300  1
  Li  Li2  1  0.17885000  0.49113700  0.16654700  1
  Li  Li3  1  0.49675100  0.83632200  0.66668300  1
  Li  Li4  1  0.50188000  0.83432300  0.41662800  1
  Li  Li5  1  0.49244100  0.83545300  0.16676500  1
  Li  Li6  1  0.18333600  0.16205700  0.49992200  1
  Li  Li7  1  0.49671200  0.50018400  0.00015100  1
  Li  Li8  1  0.49853400  0.49800100  0.75000700  1
  Li  Li9  1  0.48920200  0.50376200  0.49992800  1
  Li  Li10  1  0.82418100  0.83488700  0.00029000  1
  Li  Li11  1  0.17542600  0.82089000  0.83315100  1
  Li  Li12  1  0.49985100  0.16683200  0.83334600  1
  Li  Li13  1  0.18074600  0.82580100  0.33311900  1
  Li  Li14  1  0.82516100  0.50617200  0.33342800  1
  Li  Li15  1  0.18180200  0.49753900  0.66675900  1
  Li  Li16  1  0.82068400  0.16710500  0.66667900  1
  Li  Li17  1  0.82468600  0.17720600  0.16672500  1
  Li  Li18  1  0.18028700  0.16336300  0.00018000  1
  Li  Li19  1  0.50084800  0.49993000  0.24995600  1
  Li  Li20  1  0.82450600  0.83487100  0.49993900  1
  Li  Li21  1  0.49667600  0.16891800  0.58329400  1
  Li  Li22  1  0.82489800  0.51203100  0.83357100  1
  Li  Li23  1  0.50169100  0.83542000  0.91675600  1
  Ti  Ti0  1  0.83140600  0.83545500  0.24994000  1
  Ti  Ti1  1  0.83852700  0.49641500  0.58346300  1
  Ti  Ti2  1  0.83298500  0.16401400  0.91639800  1
  Ti  Ti3  1  0.83219700  0.16403600  0.41642500  1
  Ti  Ti4  1  0.16688800  0.16956600  0.75019900  1
  Cr  Cr0  1  0.16345800  0.16708600  0.24991800  1
  Cr  Cr1  1  0.16208500  0.83617100  0.58315800  1
  Cr  Cr2  1  0.83037800  0.50539100  0.08346700  1
  Cr  Cr3  1  0.16717900  0.50211000  0.91716300  1
  Cr  Cr4  1  0.83279300  0.83118000  0.74971100  1
  Cr  Cr5  1  0.16327000  0.83335200  0.08326400  1
  Cr  Cr6  1  0.16645700  0.50225900  0.41677500  1
  O  O0  1  0.49976900  0.14445600  0.21114200  1
  O  O1  1  0.49375300  0.86038700  0.28815600  1
  O  O2  1  0.49572200  0.81095400  0.54535700  1
  O  O3  1  0.14584500  0.52483900  0.04573100  1
  O  O4  1  0.14593600  0.49565000  0.28706400  1
  O  O5  1  0.49521700  0.52662600  0.62137700  1
  O  O6  1  0.86004900  0.80266900  0.12080000  1
  O  O7  1  0.49225700  0.47899800  0.87867000  1
  O  O8  1  0.14614200  0.19354200  0.37943800  1
  O  O9  1  0.14284500  0.16944900  0.62150200  1
  O  O10  1  0.13804700  0.17011600  0.12055400  1
  O  O11  1  0.85982000  0.49542800  0.21233900  1
  O  O12  1  0.50428500  0.18582400  0.95597200  1
  O  O13  1  0.85999800  0.47759400  0.45408100  1
  O  O14  1  0.14047000  0.85536700  0.71270000  1
  O  O15  1  0.14615500  0.85991300  0.21229100  1
  O  O16  1  0.14856300  0.82282900  0.95430200  1
  O  O17  1  0.14782700  0.82315500  0.45394700  1
  O  O18  1  0.86302900  0.15784400  0.54559700  1
  O  O19  1  0.86535200  0.16380500  0.04607900  1
  O  O20  1  0.85427600  0.13995400  0.78728700  1
  O  O21  1  0.85720500  0.14282700  0.28769000  1
  O  O22  1  0.14419300  0.52013200  0.54524100  1
  O  O23  1  0.50638200  0.80070400  0.04536500  1
  O  O24  1  0.14753200  0.49605500  0.78794600  1
  O  O25  1  0.85288900  0.83709800  0.87890300  1
  O  O26  1  0.85393800  0.83672000  0.37845500  1
  O  O27  1  0.86234000  0.81278200  0.62080300  1
  O  O28  1  0.49276000  0.52996300  0.12164600  1
  O  O29  1  0.14583000  0.19342600  0.87948800  1
  O  O30  1  0.49241800  0.47917100  0.37837700  1
  O  O31  1  0.85271900  0.51065100  0.71241900  1
  O  O32  1  0.86094600  0.47716900  0.95422600  1
  O  O33  1  0.50347000  0.18566700  0.45548800  1
  O  O34  1  0.49691800  0.14716000  0.71105900  1
  O  O35  1  0.50800500  0.85380100  0.78812800  1
loop_
_geom_bond_atom_site_label_1
_geom_bond_atom_site_label_2
_geom_bond_distance
_geom_bond_site_symmetry_2
Li0 O1 2.038799 1_545
Li0 O30 2.045874 1_555
Li0 O8 2.147502 1_555
Li0 O4 2.163887 1_555
Li0 O26 2.195200 1_545
Li0 O21 2.211685 1_555
Li1 O3 2.099375 1_555
Li1 O10 2.105961 1_555
Li1 O19 2.129055 1_555
Li1 O28 2.130290 1_555
Li1 O6 2.134093 1_545
Li1 O23 2.150530 1_545
Li2 O11 2.072488 1_455
Li2 O6 2.072517 1_455
Li2 O28 2.127498 1_555
Li2 O0 2.128040 1_555
Li2 O10 2.193522 1_555
Li2 O15 2.231168 1_555
Li3 O34 2.036025 1_565
Li3 O5 2.051435 1_555
Li3 O9 2.176674 1_565
Li3 O31 2.177725 1_555
Li3 O14 2.196139 1_555
Li3 O27 2.223070 1_555
Li4 O26 2.093274 1_555
Li4 O8 2.104542 1_565
Li4 O13 2.108172 1_555
Li4 O17 2.108516 1_555
Li4 O33 2.112004 1_565
Li4 O30 2.136365 1_555
Li5 O28 2.028011 1_555
Li5 O0 2.043140 1_565
Li5 O15 2.137934 1_555
Li5 O10 2.198566 1_565
Li5 O6 2.216376 1_555
Li5 O11 2.226159 1_555
Li6 O13 2.090953 1_455
Li6 O18 2.091812 1_455
Li6 O33 2.109622 1_555
Li6 O2 2.138314 1_545
Li6 O22 2.169575 1_555
Li6 O17 2.252948 1_545
Li7 O23 2.030308 1_555
Li7 O12 2.031331 1_554
Li7 O3 2.156763 1_555
Li7 O16 2.156858 1_554
Li7 O32 2.219320 1_554
Li7 O19 2.228695 1_555
Li8 O24 2.084230 1_555
Li8 O20 2.103309 1_555
Li8 O14 2.107262 1_555
Li8 O34 2.111275 1_555
Li8 O31 2.116407 1_555
Li8 O35 2.137229 1_555
Li9 O33 2.038346 1_555
Li9 O2 2.053860 1_555
Li9 O17 2.138562 1_555
Li9 O22 2.143626 1_555
Li9 O13 2.238860 1_555
Li9 O18 2.253075 1_555
Li10 O3 2.069980 1_655
Li10 O16 2.082457 1_654
Li10 O12 2.131022 1_564
Li10 O23 2.135306 1_555
Li10 O32 2.185280 1_554
Li10 O19 2.222568 1_565
Li11 O25 2.063505 1_455
Li11 O20 2.093693 1_465
Li11 O7 2.126538 1_555
Li11 O24 2.165167 1_555
Li11 O35 2.190824 1_555
Li11 O29 2.262155 1_565
Li12 O7 2.043911 1_555
Li12 O35 2.044248 1_545
Li12 O24 2.169894 1_555
Li12 O25 2.175160 1_545
Li12 O20 2.175470 1_555
Li12 O29 2.175822 1_555
Li13 O26 2.082104 1_455
Li13 O21 2.086642 1_465
Li13 O1 2.115212 1_555
Li13 O30 2.123648 1_555
Li13 O4 2.217285 1_555
Li13 O8 2.233666 1_565
Li14 O4 2.078250 1_655
Li14 O8 2.083841 1_655
Li14 O1 2.175522 1_555
Li14 O30 2.176767 1_555
Li14 O26 2.187121 1_555
Li14 O21 2.210198 1_555
Li15 O27 2.084704 1_455
Li15 O31 2.092861 1_455
Li15 O5 2.111863 1_555
Li15 O34 2.121202 1_555
Li15 O14 2.176002 1_555
Li15 O9 2.204750 1_555
Li16 O14 2.079962 1_645
Li16 O9 2.086370 1_655
Li16 O34 2.115185 1_555
Li16 O27 2.160376 1_545
Li16 O5 2.177504 1_555
Li16 O31 2.259790 1_555
Li17 O10 2.052438 1_655
Li17 O15 2.085468 1_645
Li17 O0 2.149116 1_555
Li17 O11 2.162413 1_555
Li17 O28 2.169900 1_555
Li17 O6 2.253073 1_545
Li18 O19 2.065930 1_455
Li18 O32 2.081702 1_454
Li18 O12 2.118632 1_554
Li18 O23 2.183830 1_545
Li18 O3 2.195248 1_555
Li18 O16 2.249148 1_544
Li19 O4 2.093777 1_555
Li19 O11 2.099957 1_555
Li19 O21 2.109342 1_555
Li19 O15 2.111053 1_555
Li19 O1 2.122636 1_555
Li19 O0 2.127912 1_555
Li20 O22 2.072180 1_655
Li20 O17 2.079037 1_655
Li20 O33 2.135007 1_565
Li20 O2 2.162104 1_555
Li20 O13 2.182001 1_555
Li20 O18 2.190086 1_565
Li21 O22 2.093095 1_555
Li21 O9 2.095129 1_555
Li21 O18 2.119362 1_555
Li21 O5 2.120915 1_555
Li21 O27 2.124536 1_545
Li21 O2 2.125020 1_545
Li22 O24 2.061951 1_655
Li22 O29 2.093347 1_655
Li22 O35 2.125019 1_555
Li22 O25 2.168555 1_555
Li22 O7 2.192655 1_555
Li22 O20 2.259762 1_555
Li23 O25 2.083194 1_555
Li23 O29 2.103298 1_565
Li23 O16 2.111078 1_555
Li23 O32 2.114192 1_555
Li23 O12 2.115696 1_565
Li23 O7 2.139315 1_555
Cr0 O11 1.936257 1_455
Cr0 O15 1.939898 1_545
Cr0 O21 1.942114 1_455
Cr0 O4 1.948972 1_555
Cr0 O1 1.957435 1_545
Cr0 O0 1.985937 1_555
Cr1 O27 1.911019 1_455
Cr1 O18 1.912037 1_465
Cr1 O2 1.954280 1_555
Cr1 O5 1.968976 1_555
Cr1 O22 1.983154 1_555
Cr1 O9 1.984887 1_565
Cr2 O23 1.919865 1_555
Cr2 O6 1.922417 1_555
Cr2 O10 1.952104 1_655
Cr2 O3 1.969008 1_655
Cr2 O19 1.975501 1_555
Cr2 O28 1.978161 1_555
Cr3 O16 1.913817 1_555
Cr3 O32 1.932236 1_455
Cr3 O7 1.933929 1_555
Cr3 O29 1.956237 1_555
Cr3 O25 1.982613 1_455
Cr3 O12 2.000344 1_555
Cr4 O31 1.913055 1_555
Cr4 O35 1.932372 1_555
Cr4 O14 1.935706 1_655
Cr4 O20 1.955316 1_565
Cr4 O24 1.983378 1_655
Cr4 O34 1.994396 1_565
Cr5 O19 1.924518 1_465
Cr5 O6 1.940753 1_455
Cr5 O3 1.944250 1_555
Cr5 O28 1.951867 1_555
Cr5 O10 1.971277 1_565
Cr5 O23 1.982094 1_555
Cr6 O17 1.915071 1_555
Cr6 O30 1.936043 1_555
Cr6 O13 1.936420 1_455
Cr6 O8 1.948517 1_555
Cr6 O26 1.979019 1_455
Cr6 O33 1.999151 1_555
O0 Ti0 1.973979 1_545
O1 Ti0 1.978239 1_555
O2 Ti1 1.999100 1_555
O4 Ti0 1.976180 1_455
O5 Ti1 1.987508 1_555
O7 Ti2 1.988978 1_555
O8 Ti3 1.974307 1_455
O9 Ti1 1.941836 1_455
O11 Ti0 1.984128 1_555
O12 Ti2 1.969171 1_555
O13 Ti3 1.991538 1_555
O14 Ti4 1.988466 1_565
O15 Ti0 1.976161 1_455
O16 Ti2 1.993719 1_465
O17 Ti3 1.987049 1_465
O18 Ti1 1.989471 1_555
O20 Ti4 1.970503 1_655
O21 Ti0 1.962293 1_545
O22 Ti1 1.945736 1_455
O24 Ti4 1.946494 1_555
O25 Ti2 1.943130 1_565
O26 Ti3 1.949114 1_565
O27 Ti1 1.988985 1_555
O29 Ti2 1.968231 1_455
O30 Ti3 1.992124 1_555
O31 Ti4 1.988891 1_655
O32 Ti2 1.992968 1_555
O33 Ti3 1.961105 1_555
O34 Ti4 1.966325 1_555
O35 Ti4 1.994543 1_565
