# generated using pymatgen
data_Li5MnP3O11
_symmetry_space_group_name_H-M   'P 1'
_cell_length_a   5.37798500
_cell_length_b   8.57452485
_cell_length_c   9.63373654
_cell_angle_alpha   84.51305111
_cell_angle_beta   88.68880285
_cell_angle_gamma   84.34683503
_symmetry_Int_Tables_number   1
_chemical_formula_structural   Li5MnP3O11
_chemical_formula_sum   'Li10 Mn2 P6 O22'
_cell_volume   440.01999466
_cell_formula_units_Z   2
loop_
 _symmetry_equiv_pos_site_id
 _symmetry_equiv_pos_as_xyz
  1  'x, y, z'
loop_
 _atom_site_type_symbol
 _atom_site_label
 _atom_site_symmetry_multiplicity
 _atom_site_fract_x
 _atom_site_fract_y
 _atom_site_fract_z
 _atom_site_occupancy
  Li  Li0  1  0.77820900  0.66303300  0.66114700  1
  Li  Li1  1  0.71266800  0.37819000  0.16696000  1
  Li  Li2  1  0.68085300  0.61466100  0.32037300  1
  Li  Li3  1  0.82824400  0.37966400  0.84650400  1
  Li  Li4  1  0.48872200  0.99556200  0.15913300  1
  Li  Li5  1  0.51127800  0.00443800  0.84086700  1
  Li  Li6  1  0.17175600  0.62033600  0.15349600  1
  Li  Li7  1  0.31914700  0.38533900  0.67962700  1
  Li  Li8  1  0.28733200  0.62181000  0.83304000  1
  Li  Li9  1  0.22179100  0.33696700  0.33885300  1
  Mn  Mn0  1  0.00000000  0.00000000  0.00000000  1
  Mn  Mn1  1  0.50000000  0.00000000  0.50000000  1
  P  P0  1  0.96239900  0.04728400  0.68853100  1
  P  P1  1  0.77761800  0.70231100  0.98469700  1
  P  P2  1  0.73011100  0.32763600  0.52170400  1
  P  P3  1  0.26988900  0.67236400  0.47829600  1
  P  P4  1  0.22238200  0.29768900  0.01530300  1
  P  P5  1  0.03760100  0.95271600  0.31146900  1
  O  O0  1  0.04841600  0.74157000  0.94035400  1
  O  O1  1  0.94754900  0.18453900  0.55981000  1
  O  O2  1  0.87197000  0.13066600  0.81779400  1
  O  O3  1  0.79263300  0.60028400  0.12777200  1
  O  O4  1  0.81993100  0.39973600  0.38103500  1
  O  O5  1  0.76219100  0.01605200  0.30755900  1
  O  O6  1  0.77203100  0.93133700  0.66229900  1
  O  O7  1  0.71366300  0.43222700  0.64252600  1
  O  O8  1  0.65968000  0.61685200  0.87095500  1
  O  O9  1  0.63029500  0.86489100  0.00523000  1
  O  O10  1  0.52111100  0.74620800  0.48365600  1
  O  O11  1  0.47888900  0.25379200  0.51634400  1
  O  O12  1  0.36970500  0.13510900  0.99477000  1
  O  O13  1  0.34032000  0.38314800  0.12904500  1
  O  O14  1  0.28633700  0.56777300  0.35747400  1
  O  O15  1  0.22796900  0.06866300  0.33770100  1
  O  O16  1  0.23780900  0.98394800  0.69244100  1
  O  O17  1  0.18006900  0.60026400  0.61896500  1
  O  O18  1  0.20736700  0.39971600  0.87222800  1
  O  O19  1  0.12803000  0.86933400  0.18220600  1
  O  O20  1  0.05245100  0.81546100  0.44019000  1
  O  O21  1  0.95158400  0.25843000  0.05964600  1
loop_
_geom_bond_atom_site_label_1
_geom_bond_atom_site_label_2
_geom_bond_distance
_geom_bond_site_symmetry_2
Li0 O7 2.067707 1_555
Li0 O8 2.118073 1_555
Li0 O17 2.213155 1_655
Li0 O10 2.241626 1_555
Li0 O6 2.298630 1_555
Li1 O21 1.912205 1_555
Li1 O3 1.992598 1_555
Li1 O13 2.039336 1_555
Li1 O4 2.183680 1_555
Li2 O3 1.948701 1_555
Li2 O4 1.959504 1_555
Li2 O10 2.138056 1_555
Li2 O14 2.212888 1_555
Li3 O7 2.067773 1_555
Li3 O18 2.085306 1_655
Li3 O2 2.168232 1_555
Li3 O8 2.175349 1_555
Li3 O21 2.292412 1_556
Li4 O12 1.970238 1_564
Li4 O9 2.032567 1_555
Li4 O5 2.105626 1_565
Li4 O15 2.289408 1_565
Li4 O19 2.309022 1_555
Li5 O9 1.970238 1_546
Li5 O12 2.032567 1_555
Li5 O16 2.105626 1_545
Li5 O6 2.289408 1_545
Li5 O2 2.309022 1_555
Li6 O14 2.067773 1_555
Li6 O3 2.085306 1_455
Li6 O19 2.168232 1_555
Li6 O13 2.175349 1_555
Li6 O0 2.292412 1_554
Li7 O18 1.948701 1_555
Li7 O17 1.959504 1_555
Li7 O11 2.138056 1_555
Li7 O7 2.212888 1_555
Li8 O0 1.912205 1_555
Li8 O18 1.992598 1_555
Li8 O8 2.039336 1_555
Li8 O17 2.183680 1_555
Li9 O14 2.067707 1_555
Li9 O13 2.118073 1_555
Li9 O4 2.213155 1_455
Li9 O11 2.241626 1_555
Li9 O15 2.298630 1_555
Mn0 O2 2.082733 1_454
Mn0 O19 2.082733 1_545
Mn0 O21 2.330502 1_455
Mn0 O0 2.330502 1_544
Mn0 O12 2.394976 1_554
Mn0 O9 2.394976 1_445
Mn1 O6 2.165770 1_545
Mn1 O15 2.165770 1_555
Mn1 O10 2.188453 1_545
Mn1 O11 2.188453 1_555
Mn1 O5 2.305223 1_555
Mn1 O16 2.305223 1_545
O0 P1 1.567600 1_455
O1 P0 1.623619 1_555
O1 P2 1.630504 1_555
O2 P0 1.540281 1_555
O3 P1 1.559574 1_554
O4 P2 1.523376 1_555
O5 P5 1.526541 1_645
O6 P0 1.536507 1_565
O7 P2 1.531735 1_555
O8 P1 1.554627 1_555
O9 P1 1.561472 1_554
O10 P3 1.551434 1_555
O11 P2 1.551434 1_555
O12 P4 1.561472 1_556
O13 P4 1.554627 1_555
O14 P3 1.531735 1_555
O15 P5 1.536507 1_545
O16 P0 1.526541 1_465
O17 P3 1.523376 1_555
O18 P4 1.559574 1_556
O19 P5 1.540281 1_555
O20 P5 1.623619 1_555
O20 P3 1.630504 1_555
O21 P4 1.567600 1_655
