# generated using pymatgen
data_LiVCrO4
_symmetry_space_group_name_H-M   'P 1'
_cell_length_a   5.26708800
_cell_length_b   5.91647568
_cell_length_c   7.79079372
_cell_angle_alpha   98.84636407
_cell_angle_beta   108.76152918
_cell_angle_gamma   91.77774484
_symmetry_Int_Tables_number   1
_chemical_formula_structural   LiVCrO4
_chemical_formula_sum   'Li3 V3 Cr3 O12'
_cell_volume   226.30465649
_cell_formula_units_Z   3
loop_
 _symmetry_equiv_pos_site_id
 _symmetry_equiv_pos_as_xyz
  1  'x, y, z'
loop_
 _atom_site_type_symbol
 _atom_site_label
 _atom_site_symmetry_multiplicity
 _atom_site_fract_x
 _atom_site_fract_y
 _atom_site_fract_z
 _atom_site_occupancy
  Li  Li0  1  0.00077500  0.99704000  0.00166700  1
  Li  Li1  1  0.67055100  0.66286200  0.66757000  1
  Li  Li2  1  0.33089500  0.33995200  0.32916800  1
  V  V0  1  0.51733200  0.25793600  0.99106500  1
  V  V1  1  0.19168200  0.91957500  0.66125700  1
  V  V2  1  0.80866800  0.07655200  0.34025100  1
  Cr  Cr0  1  0.48524600  0.75286300  0.00591000  1
  Cr  Cr1  1  0.14874400  0.41676800  0.67199500  1
  Cr  Cr2  1  0.84615700  0.58150900  0.32757700  1
  O  O0  1  0.56121100  0.95896200  0.83821700  1
  O  O1  1  0.54266100  0.46721600  0.84289600  1
  O  O2  1  0.23061100  0.62750100  0.51264500  1
  O  O3  1  0.20178400  0.13376600  0.50766900  1
  O  O4  1  0.86432100  0.81422800  0.16912800  1
  O  O5  1  0.89340500  0.27845200  0.17925000  1
  O  O6  1  0.10041900  0.71915700  0.81633600  1
  O  O7  1  0.13628600  0.18424600  0.83405400  1
  O  O8  1  0.79254300  0.86728500  0.49228800  1
  O  O9  1  0.77168900  0.37300700  0.49142900  1
  O  O10  1  0.46424700  0.51885300  0.16216700  1
  O  O11  1  0.44077600  0.05227100  0.15746500  1
loop_
_geom_bond_atom_site_label_1
_geom_bond_atom_site_label_2
_geom_bond_distance
_geom_bond_site_symmetry_2
Li0 O4 2.092246 1_455
Li0 O7 2.106366 1_564
Li0 O5 2.204375 1_465
Li0 O6 2.207741 1_554
Li0 O11 2.229915 1_565
Li0 O0 2.239531 1_454
Li1 O1 2.165453 1_555
Li1 O6 2.174184 1_655
Li1 O8 2.182817 1_555
Li1 O9 2.216069 1_555
Li1 O2 2.227820 1_555
Li1 O0 2.237626 1_555
Li2 O10 2.066819 1_555
Li2 O11 2.209127 1_555
Li2 O5 2.211872 1_455
Li2 O3 2.227822 1_555
Li2 O2 2.238322 1_555
Li2 O9 2.243756 1_555
Cr0 O4 1.978668 1_555
Cr0 O10 2.001650 1_555
Cr0 O11 2.036498 1_565
Cr0 O0 2.037102 1_554
Cr0 O1 2.044300 1_554
Cr0 O6 2.070784 1_554
Cr1 O9 2.012226 1_455
Cr1 O2 2.017110 1_555
Cr1 O7 2.018139 1_555
Cr1 O3 2.029864 1_555
Cr1 O6 2.030698 1_555
Cr1 O1 2.056448 1_555
Cr2 O10 1.995939 1_555
Cr2 O4 2.004834 1_555
Cr2 O9 2.020285 1_555
Cr2 O8 2.044646 1_555
Cr2 O5 2.046375 1_555
Cr2 O2 2.054362 1_655
O0 V1 1.972361 1_555
O0 V0 2.038352 1_565
O1 V0 1.847134 1_555
O2 V1 1.981926 1_555
O3 V1 1.882476 1_545
O3 V2 2.046115 1_455
O4 V2 1.978715 1_565
O5 V2 1.996830 1_555
O5 V0 2.037176 1_554
O6 V1 1.968675 1_555
O7 V0 1.979117 1_555
O7 V1 1.995544 1_545
O8 V2 1.858072 1_565
O8 V1 2.074241 1_655
O9 V2 2.008712 1_555
O10 V0 1.967683 1_554
O11 V2 1.986982 1_555
O11 V0 2.028507 1_554
