# generated using pymatgen
data_Mg5Fe19O32
_symmetry_space_group_name_H-M   'P 1'
_cell_length_a   8.54368205
_cell_length_b   8.54368205
_cell_length_c   10.46046672
_cell_angle_alpha   65.79955094
_cell_angle_beta   65.79955094
_cell_angle_gamma   89.65731332
_symmetry_Int_Tables_number   1
_chemical_formula_structural   Mg5Fe19O32
_chemical_formula_sum   'Mg5 Fe19 O32'
_cell_volume   623.07752414
_cell_formula_units_Z   1
loop_
 _symmetry_equiv_pos_site_id
 _symmetry_equiv_pos_as_xyz
  1  'x, y, z'
loop_
 _atom_site_type_symbol
 _atom_site_label
 _atom_site_symmetry_multiplicity
 _atom_site_fract_x
 _atom_site_fract_y
 _atom_site_fract_z
 _atom_site_occupancy
  Mg  Mg0  1  0.25003100  0.25003100  0.50056400  1
  Mg  Mg1  1  0.50000000  0.50000000  0.50000000  1
  Mg  Mg2  1  0.74996900  0.74996900  0.49943600  1
  Mg  Mg3  1  0.00000000  0.50000000  0.00000000  1
  Mg  Mg4  1  0.50000000  0.00000000  0.00000000  1
  Fe  Fe0  1  0.37798500  0.12570300  0.74841800  1
  Fe  Fe1  1  0.12570300  0.37798500  0.74841800  1
  Fe  Fe2  1  0.87268000  0.62718500  0.74919200  1
  Fe  Fe3  1  0.62718500  0.87268100  0.74919200  1
  Fe  Fe4  1  0.31297600  0.81033700  0.62138600  1
  Fe  Fe5  1  0.81033700  0.31297600  0.62138600  1
  Fe  Fe6  1  0.00000000  0.00000000  0.50000000  1
  Fe  Fe7  1  0.18966300  0.68702400  0.37861400  1
  Fe  Fe8  1  0.68702400  0.18966300  0.37861400  1
  Fe  Fe9  1  0.62201500  0.87429700  0.25158200  1
  Fe  Fe10  1  0.12731900  0.37281500  0.25080800  1
  Fe  Fe11  1  0.87429700  0.62201500  0.25158200  1
  Fe  Fe12  1  0.37281500  0.12731900  0.25080800  1
  Fe  Fe13  1  0.05972000  0.05972000  0.12275900  1
  Fe  Fe14  1  0.56201300  0.56201300  0.12403500  1
  Fe  Fe15  1  0.25136200  0.74863800  0.00000000  1
  Fe  Fe16  1  0.74863800  0.25136200  0.00000000  1
  Fe  Fe17  1  0.94028000  0.94028000  0.87724100  1
  Fe  Fe18  1  0.43798700  0.43798700  0.87596500  1
  O  O0  1  0.87896500  0.87896500  0.74272800  1
  O  O1  1  0.36721100  0.36721100  0.74742200  1
  O  O2  1  0.62933300  0.62933300  0.74334000  1
  O  O3  1  0.13607800  0.13607800  0.74757700  1
  O  O4  1  0.99282000  0.75789900  0.50515100  1
  O  O5  1  0.75789900  0.99282000  0.50515100  1
  O  O6  1  0.24829400  0.48872600  0.51148400  1
  O  O7  1  0.48872600  0.24829400  0.51148400  1
  O  O8  1  0.00718000  0.24210100  0.49484900  1
  O  O9  1  0.51127400  0.75170600  0.48851600  1
  O  O10  1  0.75170600  0.51127400  0.48851600  1
  O  O11  1  0.24210100  0.00718000  0.49484900  1
  O  O12  1  0.37066700  0.37066700  0.25666000  1
  O  O13  1  0.86392200  0.86392200  0.25242300  1
  O  O14  1  0.12103500  0.12103500  0.25727200  1
  O  O15  1  0.63278900  0.63278900  0.25257800  1
  O  O16  1  0.12086700  0.63003500  0.24195100  1
  O  O17  1  0.87849900  0.38796300  0.24574700  1
  O  O18  1  0.63003500  0.12086700  0.24195100  1
  O  O19  1  0.38796300  0.87849900  0.24574700  1
  O  O20  1  0.00529600  0.74072000  0.00862400  1
  O  O21  1  0.50632900  0.24197300  0.00685100  1
  O  O22  1  0.74072000  0.00529600  0.00862400  1
  O  O23  1  0.24197300  0.50632900  0.00685100  1
  O  O24  1  0.75802700  0.49367100  0.99314900  1
  O  O25  1  0.49367100  0.75802700  0.99314900  1
  O  O26  1  0.99470400  0.25928000  0.99137600  1
  O  O27  1  0.25928000  0.99470400  0.99137600  1
  O  O28  1  0.61203700  0.12150100  0.75425300  1
  O  O29  1  0.12150100  0.61203700  0.75425300  1
  O  O30  1  0.87913300  0.36996500  0.75804900  1
  O  O31  1  0.36996500  0.87913300  0.75804900  1
loop_
_geom_bond_atom_site_label_1
_geom_bond_atom_site_label_2
_geom_bond_distance
_geom_bond_site_symmetry_2
Mg0 O12 2.082029 1_555
Mg0 O6 2.088393 1_555
Mg0 O7 2.088393 1_555
Mg0 O11 2.102339 1_555
Mg0 O8 2.102339 1_555
Mg0 O3 2.111529 1_555
Mg1 O7 2.104646 1_555
Mg1 O6 2.104646 1_555
Mg1 O10 2.104646 1_555
Mg1 O9 2.104646 1_555
Mg1 O1 2.115055 1_555
Mg1 O15 2.115055 1_555
Mg2 O2 2.082029 1_555
Mg2 O9 2.088393 1_555
Mg2 O10 2.088393 1_555
Mg2 O5 2.102339 1_555
Mg2 O4 2.102339 1_555
Mg2 O13 2.111529 1_555
Mg3 O26 2.096784 1_454
Mg3 O20 2.096784 1_555
Mg3 O23 2.099509 1_555
Mg3 O24 2.099509 1_454
Mg3 O17 2.099688 1_455
Mg3 O29 2.099688 1_554
Mg4 O27 2.096784 1_544
Mg4 O22 2.096784 1_555
Mg4 O25 2.099509 1_544
Mg4 O21 2.099509 1_555
Mg4 O19 2.099688 1_545
Mg4 O28 2.099688 1_554
Fe0 O7 2.023839 1_555
Fe0 O28 2.025115 1_555
Fe0 O1 2.060815 1_555
Fe0 O31 2.067545 1_545
Fe0 O3 2.071612 1_555
Fe0 O27 2.075704 1_545
Fe1 O6 2.023839 1_555
Fe1 O29 2.025115 1_555
Fe1 O1 2.060815 1_555
Fe1 O30 2.067545 1_455
Fe1 O3 2.071612 1_555
Fe1 O26 2.075704 1_455
Fe2 O4 2.084608 1_555
Fe2 O24 2.085736 1_555
Fe2 O2 2.104667 1_555
Fe2 O0 2.124609 1_555
Fe2 O29 2.149917 1_655
Fe2 O30 2.162616 1_555
Fe3 O5 2.084608 1_555
Fe3 O25 2.085736 1_555
Fe3 O2 2.104675 1_555
Fe3 O0 2.124609 1_555
Fe3 O28 2.149908 1_565
Fe3 O31 2.162615 1_555
Fe4 O9 1.919141 1_555
Fe4 O29 1.927889 1_555
Fe4 O11 1.940853 1_565
Fe4 O31 1.972094 1_555
Fe5 O10 1.919141 1_555
Fe5 O28 1.927889 1_555
Fe5 O8 1.940853 1_655
Fe5 O30 1.972094 1_555
Fe6 O5 2.047564 1_445
Fe6 O8 2.047564 1_555
Fe6 O4 2.047564 1_445
Fe6 O11 2.047564 1_555
Fe6 O14 2.071952 1_555
Fe6 O0 2.071952 1_445
Fe7 O6 1.919141 1_555
Fe7 O19 1.927889 1_555
Fe7 O4 1.940853 1_455
Fe7 O16 1.972094 1_555
Fe8 O7 1.919141 1_555
Fe8 O17 1.927889 1_555
Fe8 O5 1.940853 1_545
Fe8 O18 1.972094 1_555
Fe9 O9 2.023839 1_555
Fe9 O19 2.025115 1_555
Fe9 O15 2.060815 1_555
Fe9 O18 2.067545 1_565
Fe9 O13 2.071612 1_555
Fe9 O22 2.075704 1_565
Fe10 O8 2.084608 1_555
Fe10 O23 2.085736 1_555
Fe10 O12 2.104675 1_555
Fe10 O14 2.124609 1_555
Fe10 O17 2.149908 1_455
Fe10 O16 2.162615 1_555
Fe11 O10 2.023839 1_555
Fe11 O17 2.025115 1_555
Fe11 O15 2.060815 1_555
Fe11 O16 2.067545 1_655
Fe11 O13 2.071612 1_555
Fe11 O20 2.075704 1_655
Fe12 O11 2.084608 1_555
Fe12 O21 2.085736 1_555
Fe12 O12 2.104675 1_555
Fe12 O14 2.124609 1_555
Fe12 O19 2.149908 1_545
Fe12 O18 2.162615 1_555
Fe13 O14 1.934067 1_555
Fe13 O13 1.936356 1_445
Fe13 O26 1.948779 1_454
Fe13 O27 1.948779 1_544
Fe14 O12 1.892853 1_555
Fe14 O24 1.945225 1_554
Fe14 O25 1.945225 1_554
Fe14 O15 1.968981 1_555
Fe15 O25 2.042788 1_554
Fe15 O23 2.042788 1_555
Fe15 O16 2.067083 1_555
Fe15 O31 2.067083 1_554
Fe15 O20 2.067276 1_555
Fe15 O27 2.067276 1_554
Fe16 O21 2.042788 1_555
Fe16 O24 2.042788 1_554
Fe16 O18 2.067083 1_555
Fe16 O30 2.067083 1_554
Fe16 O22 2.067276 1_555
Fe16 O26 2.067276 1_554
Fe17 O0 1.934067 1_555
Fe17 O3 1.936356 1_665
Fe17 O22 1.948779 1_566
Fe17 O20 1.948779 1_656
Fe18 O2 1.892853 1_555
Fe18 O23 1.945225 1_556
Fe18 O21 1.945225 1_556
Fe18 O1 1.968981 1_555
