# generated using pymatgen
data_K2Zr2ZnH12(OF2)6
_symmetry_space_group_name_H-M   'P 1'
_cell_length_a   9.94888045
_cell_length_b   6.53513070
_cell_length_c   12.87207762
_cell_angle_alpha   65.57437596
_cell_angle_beta   90.00000000
_cell_angle_gamma   90.00000000
_symmetry_Int_Tables_number   1
_chemical_formula_structural   K2Zr2ZnH12(OF2)6
_chemical_formula_sum   'K4 Zr4 Zn2 H24 O12 F24'
_cell_volume   762.00272917
_cell_formula_units_Z   2
loop_
 _symmetry_equiv_pos_site_id
 _symmetry_equiv_pos_as_xyz
  1  'x, y, z'
loop_
 _atom_site_type_symbol
 _atom_site_label
 _atom_site_symmetry_multiplicity
 _atom_site_fract_x
 _atom_site_fract_y
 _atom_site_fract_z
 _atom_site_occupancy
  K  K0  1  0.28143598  0.60679919  0.91810464  1
  K  K1  1  0.78143598  0.39320081  0.58189536  1
  K  K2  1  0.71856402  0.39320081  0.08189536  1
  K  K3  1  0.21856402  0.60679919  0.41810464  1
  Zr  Zr0  1  0.01451677  0.81111613  0.64903624  1
  Zr  Zr1  1  0.51451677  0.18888387  0.85096376  1
  Zr  Zr2  1  0.98548323  0.18888387  0.35096376  1
  Zr  Zr3  1  0.48548323  0.81111613  0.14903624  1
  Zn  Zn0  1  0.50000000  0.00000000  0.50000000  1
  Zn  Zn1  1  0.00000000  0.00000000  -0.00000000  1
  H  H0  1  0.43493122  0.58111222  0.61438587  1
  H  H1  1  0.93493122  0.41888778  0.88561413  1
  H  H2  1  0.56506878  0.41888778  0.38561413  1
  H  H3  1  0.06506878  0.58111222  0.11438587  1
  H  H4  1  0.31458801  0.72923917  0.62247513  1
  H  H5  1  0.81458801  0.27076083  0.87752487  1
  H  H6  1  0.68541199  0.27076083  0.37752487  1
  H  H7  1  0.18541199  0.72923917  0.12247513  1
  H  H8  1  0.06580552  0.12595233  0.77905699  1
  H  H9  1  0.56580552  0.87404767  0.72094301  1
  H  H10  1  0.93419448  0.87404767  0.22094301  1
  H  H11  1  0.43419448  0.12595233  0.27905699  1
  H  H12  1  0.19035062  0.20131414  0.83261756  1
  H  H13  1  0.69035062  0.79868586  0.66738244  1
  H  H14  1  0.80964938  0.79868586  0.16738244  1
  H  H15  1  0.30964938  0.20131414  0.33261756  1
  H  H16  1  0.30481729  0.07678830  0.61307044  1
  H  H17  1  0.80481729  0.92321170  0.88692956  1
  H  H18  1  0.69518271  0.92321170  0.38692956  1
  H  H19  1  0.19518271  0.07678830  0.11307044  1
  H  H20  1  0.42544356  0.23704162  0.60914399  1
  H  H21  1  0.92544356  0.76295838  0.89085601  1
  H  H22  1  0.57455644  0.76295838  0.39085601  1
  H  H23  1  0.07455644  0.23704162  0.10914399  1
  O  O0  1  0.38013214  0.71348480  0.56934876  1
  O  O1  1  0.88013214  0.28651520  0.93065124  1
  O  O2  1  0.61986786  0.28651520  0.43065124  1
  O  O3  1  0.11986786  0.71348480  0.06934876  1
  O  O4  1  0.11368259  0.09822459  0.84986945  1
  O  O5  1  0.61368259  0.90177541  0.65013055  1
  O  O6  1  0.88631741  0.90177541  0.15013055  1
  O  O7  1  0.38631741  0.09822459  0.34986945  1
  O  O8  1  0.37076589  0.18275751  0.56233235  1
  O  O9  1  0.87076589  0.81724249  0.93766765  1
  O  O10  1  0.62923411  0.81724249  0.43766765  1
  O  O11  1  0.12923411  0.18275751  0.06233235  1
  F  F0  1  0.46548421  0.91873854  0.82049046  1
  F  F1  1  0.96548421  0.08126146  0.67950954  1
  F  F2  1  0.53451579  0.08126146  0.17950954  1
  F  F3  1  0.03451579  0.91873854  0.32049046  1
  F  F4  1  0.02733826  0.64111422  0.82632152  1
  F  F5  1  0.52733826  0.35888578  0.67367848  1
  F  F6  1  0.97266174  0.35888578  0.17367848  1
  F  F7  1  0.47266174  0.64111422  0.32632152  1
  F  F8  1  0.06720114  0.57014265  0.60113218  1
  F  F9  1  0.56720114  0.42985735  0.89886782  1
  F  F10  1  0.93279886  0.42985735  0.39886782  1
  F  F11  1  0.43279886  0.57014265  0.10113218  1
  F  F12  1  0.11623814  0.03780712  0.49534827  1
  F  F13  1  0.61623814  0.96219288  0.00465173  1
  F  F14  1  0.88376186  0.96219288  0.50465173  1
  F  F15  1  0.38376186  0.03780712  0.99534827  1
  F  F16  1  0.33405529  0.35052802  0.80259937  1
  F  F17  1  0.83405529  0.64947198  0.69740063  1
  F  F18  1  0.66594471  0.64947198  0.19740063  1
  F  F19  1  0.16594471  0.35052802  0.30259937  1
  F  F20  1  0.21324914  0.83738966  0.69126626  1
  F  F21  1  0.71324914  0.16261034  0.80873374  1
  F  F22  1  0.78675086  0.16261034  0.30873374  1
  F  F23  1  0.28675086  0.83738966  0.19126626  1
loop_
_geom_bond_atom_site_label_1
_geom_bond_atom_site_label_2
_geom_bond_distance
_geom_bond_site_symmetry_2
K0 O3 2.825346 1_556
K0 O11 3.027231 1_556
K1 O2 2.825346 1_555
K1 O10 3.027231 1_555
K2 O1 2.825346 1_554
K2 O9 3.027231 1_554
K3 O0 2.825346 1_555
K3 O8 3.027231 1_555
H0 O0 0.983313 1_555
H1 O1 0.983313 1_555
H2 O2 0.983313 1_555
H3 O3 0.983313 1_555
H4 O0 0.980661 1_555
H5 O1 0.980661 1_555
H6 O2 0.980661 1_555
H7 O3 0.980661 1_555
H8 O4 0.976708 1_555
H9 O5 0.976708 1_555
H10 O6 0.976708 1_555
H11 O7 0.976708 1_555
H12 O4 0.980442 1_555
H13 O5 0.980442 1_555
H14 O6 0.980442 1_555
H15 O7 0.980442 1_555
H16 O8 0.981104 1_555
H17 O9 0.981104 1_555
H18 O10 0.981104 1_555
H19 O11 0.981104 1_555
H20 O8 0.980629 1_555
H21 O9 0.980629 1_555
H22 O10 0.980629 1_555
H23 O11 0.980629 1_555
O0 Zn0 2.083901 1_565
O1 Zn1 2.083901 1_656
O2 Zn0 2.083901 1_555
O3 Zn1 2.083901 1_565
O4 Zn1 2.097584 1_556
O5 Zn0 2.097584 1_565
O6 Zn1 2.097584 1_665
O7 Zn0 2.097584 1_555
O8 Zn0 2.125053 1_555
O9 Zn1 2.125053 1_666
O10 Zn0 2.125053 1_565
O11 Zn1 2.125053 1_555
F0 Zr1 2.020224 1_565
F0 K0 2.639883 1_555
F1 Zr0 2.020224 1_645
F1 K1 2.639883 1_555
F2 Zr3 2.020224 1_545
F2 K2 2.639883 1_555
F3 Zr2 2.020224 1_465
F3 K3 2.639883 1_555
F4 H1 1.618684 1_455
F4 H21 1.702585 1_455
F4 Zr0 2.088412 1_555
F4 K0 2.760018 1_555
F5 H0 1.618684 1_555
F5 H20 1.702585 1_555
F5 Zr1 2.088412 1_555
F5 K1 2.760018 1_555
F6 H3 1.618684 1_655
F6 H23 1.702585 1_655
F6 Zr2 2.088412 1_555
F6 K2 2.760018 1_555
F7 H2 1.618684 1_555
F7 H22 1.702585 1_555
F7 Zr3 2.088412 1_555
F7 K3 2.760018 1_555
F8 Zr0 1.984444 1_555
F8 K3 2.721914 1_555
F8 K1 3.117391 1_455
F9 Zr1 1.984444 1_555
F9 K2 2.721914 1_556
F9 K0 3.117391 1_555
F10 Zr2 1.984444 1_555
F10 K1 2.721914 1_555
F10 K3 3.117391 1_655
F11 Zr3 1.984444 1_555
F11 K0 2.721914 1_554
F11 K2 3.117391 1_555
F12 Zr2 2.145604 1_455
F12 Zr0 2.169953 1_545
F13 Zr3 2.145604 1_555
F13 Zr1 2.169953 1_564
F14 Zr0 2.145604 1_655
F14 Zr2 2.169953 1_565
F15 Zr1 2.145604 1_555
F15 Zr3 2.169953 1_546
F16 H12 1.683038 1_555
F16 Zr1 2.045243 1_555
F16 K0 2.710860 1_555
F17 H13 1.683038 1_555
F17 Zr0 2.045243 1_655
F17 K1 2.710860 1_555
F18 H14 1.683038 1_555
F18 Zr3 2.045243 1_555
F18 K2 2.710860 1_555
F19 H15 1.683038 1_555
F19 Zr2 2.045243 1_455
F19 K3 2.710860 1_555
F20 Zr0 2.076376 1_555
F20 K0 2.760037 1_555
F21 Zr1 2.076376 1_555
F21 K1 2.760037 1_555
F22 Zr2 2.076376 1_555
F22 K2 2.760037 1_555
F23 Zr3 2.076376 1_555
F23 K3 2.760037 1_555
