# generated using pymatgen
data_Li9Cu3P8O29
_symmetry_space_group_name_H-M   'P 1'
_cell_length_a   9.80154255
_cell_length_b   9.80154255
_cell_length_c   13.77274000
_cell_angle_alpha   90.00000000
_cell_angle_beta   90.00000000
_cell_angle_gamma   120.00000369
_symmetry_Int_Tables_number   1
_chemical_formula_structural   Li9Cu3P8O29
_chemical_formula_sum   'Li18 Cu6 P16 O58'
_cell_volume   1145.88180495
_cell_formula_units_Z   2
loop_
 _symmetry_equiv_pos_site_id
 _symmetry_equiv_pos_as_xyz
  1  'x, y, z'
loop_
 _atom_site_type_symbol
 _atom_site_label
 _atom_site_symmetry_multiplicity
 _atom_site_fract_x
 _atom_site_fract_y
 _atom_site_fract_z
 _atom_site_occupancy
  Li  Li0  1  0.00000000  0.00000000  0.00000000  1
  Li  Li1  1  0.00000000  0.00000000  0.50000000  1
  Li  Li2  1  0.09768100  0.33292600  0.06445700  1
  Li  Li3  1  0.23524400  0.33292600  0.56445700  1
  Li  Li4  1  0.09768100  0.76475600  0.56445700  1
  Li  Li5  1  0.33333300  0.66666700  0.87876600  1
  Li  Li6  1  0.33333300  0.66666700  0.37876600  1
  Li  Li7  1  0.23524400  0.90231900  0.06445700  1
  Li  Li8  1  0.66707400  0.76475600  0.06445700  1
  Li  Li9  1  0.33292600  0.09768100  0.43554300  1
  Li  Li10  1  0.66707400  0.90231900  0.56445700  1
  Li  Li11  1  0.33292600  0.23524400  0.93554300  1
  Li  Li12  1  0.76475600  0.09768100  0.93554300  1
  Li  Li13  1  0.66666700  0.33333300  0.12123400  1
  Li  Li14  1  0.66666700  0.33333300  0.62123400  1
  Li  Li15  1  0.90231900  0.23524400  0.43554300  1
  Li  Li16  1  0.76475600  0.66707400  0.43554300  1
  Li  Li17  1  0.90231900  0.66707400  0.93554300  1
  Cu  Cu0  1  0.00000000  0.43456200  0.25000000  1
  Cu  Cu1  1  0.00000000  0.56543800  0.75000000  1
  Cu  Cu2  1  0.43456200  0.43456200  0.75000000  1
  Cu  Cu3  1  0.56543800  0.56543800  0.25000000  1
  Cu  Cu4  1  0.43456200  0.00000000  0.25000000  1
  Cu  Cu5  1  0.56543800  0.00000000  0.75000000  1
  P  P0  1  0.09071900  0.31885800  0.84335500  1
  P  P1  1  0.22813900  0.31885800  0.34335500  1
  P  P2  1  0.09071900  0.77186100  0.34335500  1
  P  P3  1  0.33333300  0.66666700  0.62452000  1
  P  P4  1  0.33333300  0.66666700  0.12452000  1
  P  P5  1  0.22813900  0.90928100  0.84335500  1
  P  P6  1  0.31885800  0.09071900  0.65664500  1
  P  P7  1  0.68114200  0.77186100  0.84335500  1
  P  P8  1  0.31885800  0.22813900  0.15664500  1
  P  P9  1  0.68114200  0.90928100  0.34335500  1
  P  P10  1  0.77186100  0.09071900  0.15664500  1
  P  P11  1  0.66666700  0.33333300  0.37548000  1
  P  P12  1  0.66666700  0.33333300  0.87548000  1
  P  P13  1  0.90928100  0.22813900  0.65664500  1
  P  P14  1  0.77186100  0.68114200  0.65664500  1
  P  P15  1  0.90928100  0.68114200  0.15664500  1
  O  O0  1  0.00000000  0.21395100  0.75000000  1
  O  O1  1  0.00103200  0.22778600  0.56721300  1
  O  O2  1  0.07766300  0.33064600  0.34470300  1
  O  O3  1  0.21395100  0.21395100  0.25000000  1
  O  O4  1  0.22675400  0.22778600  0.06721300  1
  O  O5  1  0.25298300  0.33064600  0.84470300  1
  O  O6  1  0.11123300  0.48421500  0.83318900  1
  O  O7  1  0.19012700  0.50946700  0.16009400  1
  O  O8  1  0.11123300  0.62701800  0.33318900  1
  O  O9  1  0.00103200  0.77324600  0.06721300  1
  O  O10  1  0.00000000  0.78604900  0.25000000  1
  O  O11  1  0.07766300  0.74701700  0.84470300  1
  O  O12  1  0.31934000  0.50946700  0.66009400  1
  O  O13  1  0.37298200  0.48421500  0.33318900  1
  O  O14  1  0.19012700  0.68066000  0.66009400  1
  O  O15  1  0.33333300  0.66666700  0.51396500  1
  O  O16  1  0.33333300  0.66666700  0.01396500  1
  O  O17  1  0.31934000  0.80987300  0.16009400  1
  O  O18  1  0.51578500  0.62701800  0.83318900  1
  O  O19  1  0.49053300  0.68066000  0.16009400  1
  O  O20  1  0.25298300  0.92233700  0.34470300  1
  O  O21  1  0.21395100  0.00000000  0.75000000  1
  O  O22  1  0.22675400  0.99896800  0.56721300  1
  O  O23  1  0.22778600  0.00103200  0.93278700  1
  O  O24  1  0.37298200  0.88876700  0.83318900  1
  O  O25  1  0.49053300  0.80987300  0.66009400  1
  O  O26  1  0.33064600  0.07766300  0.15529700  1
  O  O27  1  0.51578500  0.88876700  0.33318900  1
  O  O28  1  0.66935400  0.74701700  0.34470300  1
  O  O29  1  0.22778600  0.22675400  0.43278700  1
  O  O30  1  0.77221400  0.77324600  0.56721300  1
  O  O31  1  0.78604900  0.78604900  0.75000000  1
  O  O32  1  0.33064600  0.25298300  0.65529700  1
  O  O33  1  0.48421500  0.11123300  0.66681100  1
  O  O34  1  0.66935400  0.92233700  0.84470300  1
  O  O35  1  0.50946700  0.19012700  0.33990600  1
  O  O36  1  0.62701800  0.11123300  0.16681100  1
  O  O37  1  0.77221400  0.99896800  0.06721300  1
  O  O38  1  0.77324600  0.00103200  0.43278700  1
  O  O39  1  0.78604900  0.00000000  0.25000000  1
  O  O40  1  0.74701700  0.07766300  0.65529700  1
  O  O41  1  0.50946700  0.31934000  0.83990600  1
  O  O42  1  0.48421500  0.37298200  0.16681100  1
  O  O43  1  0.68066000  0.19012700  0.83990600  1
  O  O44  1  0.66666700  0.33333300  0.48603500  1
  O  O45  1  0.66666700  0.33333300  0.98603500  1
  O  O46  1  0.80987300  0.31934000  0.33990600  1
  O  O47  1  0.62701800  0.51578500  0.66681100  1
  O  O48  1  0.68066000  0.49053300  0.33990600  1
  O  O49  1  0.92233700  0.25298300  0.15529700  1
  O  O50  1  0.99896800  0.22675400  0.93278700  1
  O  O51  1  0.88876700  0.37298200  0.66681100  1
  O  O52  1  0.80987300  0.49053300  0.83990600  1
  O  O53  1  0.88876700  0.51578500  0.16681100  1
  O  O54  1  0.74701700  0.66935400  0.15529700  1
  O  O55  1  0.77324600  0.77221400  0.93278700  1
  O  O56  1  0.92233700  0.66935400  0.65529700  1
  O  O57  1  0.99896800  0.77221400  0.43278700  1
loop_
_geom_bond_atom_site_label_1
_geom_bond_atom_site_label_2
_geom_bond_distance
_geom_bond_site_symmetry_2
Li0 O4 2.412301 1_555
Li0 O55 2.412301 1_444
Li0 O37 2.412301 1_445
Li0 O23 2.412301 1_554
Li0 O50 2.412301 1_454
Li0 O9 2.412301 1_545
Li1 O29 2.412301 1_555
Li1 O30 2.412301 1_445
Li1 O1 2.412301 1_555
Li1 O57 2.412301 1_445
Li1 O22 2.412301 1_545
Li1 O38 2.412301 1_455
Li2 O49 1.945848 1_455
Li2 O4 1.991909 1_555
Li2 O7 1.995568 1_555
Li2 O50 2.073847 1_454
Li3 O32 1.945855 1_555
Li3 O1 1.991900 1_555
Li3 O12 1.995568 1_555
Li3 O29 2.073849 1_555
Li4 O56 1.945849 1_455
Li4 O22 1.991900 1_555
Li4 O14 1.995575 1_555
Li4 O57 2.073844 1_455
Li5 O16 1.862061 1_556
Li5 O24 2.106669 1_555
Li5 O6 2.106672 1_555
Li5 O18 2.106678 1_555
Li6 O15 1.862061 1_555
Li6 O8 2.106669 1_555
Li6 O27 2.106672 1_555
Li6 O13 2.106678 1_555
Li7 O26 1.945849 1_565
Li7 O9 1.991900 1_555
Li7 O17 1.995575 1_555
Li7 O23 2.073844 1_564
Li8 O54 1.945855 1_555
Li8 O37 1.991900 1_555
Li8 O19 1.995568 1_555
Li8 O55 2.073849 1_554
Li9 O20 1.945848 1_545
Li9 O29 1.991909 1_555
Li9 O35 1.995568 1_555
Li9 O22 2.073847 1_545
Li10 O40 1.945848 1_565
Li10 O30 1.991909 1_555
Li10 O25 1.995568 1_555
Li10 O38 2.073847 1_565
Li11 O5 1.945855 1_555
Li11 O23 1.991900 1_555
Li11 O41 1.995568 1_555
Li11 O4 2.073849 1_556
Li12 O34 1.945849 1_545
Li12 O50 1.991900 1_555
Li12 O43 1.995575 1_555
Li12 O37 2.073844 1_546
Li13 O45 1.862061 1_554
Li13 O36 2.106669 1_555
Li13 O53 2.106672 1_555
Li13 O42 2.106678 1_555
Li14 O44 1.862061 1_555
Li14 O51 2.106669 1_555
Li14 O33 2.106672 1_555
Li14 O47 2.106678 1_555
Li15 O2 1.945849 1_655
Li15 O38 1.991900 1_555
Li15 O46 1.995575 1_555
Li15 O1 2.073844 1_655
Li16 O28 1.945855 1_555
Li16 O57 1.991900 1_555
Li16 O48 1.995568 1_555
Li16 O30 2.073849 1_555
Li17 O11 1.945848 1_655
Li17 O55 1.991909 1_555
Li17 O52 1.995568 1_555
Li17 O9 2.073847 1_656
Cu0 O8 2.000783 1_555
Cu0 O53 2.000783 1_455
Cu0 O49 2.023227 1_455
Cu0 O2 2.023227 1_555
Cu0 O46 2.043743 1_455
Cu0 O7 2.043743 1_555
Cu1 O51 2.000783 1_455
Cu1 O6 2.000783 1_555
Cu1 O11 2.023227 1_555
Cu1 O56 2.023227 1_455
Cu1 O14 2.043743 1_555
Cu1 O52 2.043743 1_455
Cu2 O18 2.000783 1_555
Cu2 O47 2.000783 1_555
Cu2 O32 2.023227 1_555
Cu2 O5 2.023227 1_555
Cu2 O41 2.043744 1_555
Cu2 O12 2.043744 1_555
Cu3 O13 2.000783 1_555
Cu3 O42 2.000783 1_555
Cu3 O28 2.023227 1_555
Cu3 O54 2.023227 1_555
Cu3 O48 2.043744 1_555
Cu3 O19 2.043744 1_555
Cu4 O36 2.000783 1_555
Cu4 O27 2.000783 1_545
Cu4 O20 2.023227 1_545
Cu4 O26 2.023227 1_555
Cu4 O17 2.043743 1_545
Cu4 O35 2.043743 1_555
Cu5 O24 2.000783 1_545
Cu5 O33 2.000783 1_555
Cu5 O40 2.023227 1_555
Cu5 O34 2.023227 1_545
Cu5 O43 2.043743 1_555
Cu5 O25 2.043743 1_545
O0 P0 1.608356 1_555
O0 P13 1.608356 1_455
O1 P13 1.526109 1_455
O2 P1 1.536042 1_555
O3 P1 1.608356 1_555
O3 P8 1.608356 1_555
O4 P8 1.526109 1_555
O5 P0 1.536042 1_555
O6 P0 1.536552 1_555
O7 P4 1.556148 1_555
O8 P2 1.536552 1_555
O9 P15 1.526109 1_455
O10 P15 1.608356 1_455
O10 P2 1.608356 1_555
O11 P5 1.536042 1_555
O12 P3 1.556152 1_555
O13 P1 1.536552 1_555
O14 P3 1.556143 1_555
O15 P3 1.522645 1_555
O16 P4 1.522645 1_555
O17 P4 1.556143 1_555
O18 P7 1.536552 1_555
O19 P4 1.556152 1_555
O20 P2 1.536042 1_555
O21 P6 1.608356 1_555
O21 P5 1.608356 1_545
O22 P6 1.526109 1_565
O23 P5 1.526109 1_545
O24 P5 1.536552 1_555
O25 P3 1.556148 1_555
O26 P8 1.536042 1_555
O27 P9 1.536552 1_555
O28 P9 1.536042 1_555
O29 P1 1.526109 1_555
O30 P14 1.526109 1_555
O31 P7 1.608356 1_555
O31 P14 1.608356 1_555
O32 P6 1.536042 1_555
O33 P6 1.536552 1_555
O34 P7 1.536042 1_555
O35 P11 1.556148 1_555
O36 P10 1.536552 1_555
O37 P10 1.526109 1_565
O38 P9 1.526109 1_545
O39 P9 1.608356 1_545
O39 P10 1.608356 1_555
O40 P13 1.536042 1_555
O41 P12 1.556152 1_555
O42 P8 1.536552 1_555
O43 P12 1.556143 1_555
O44 P11 1.522645 1_555
O45 P12 1.522645 1_555
O46 P11 1.556143 1_555
O47 P14 1.536552 1_555
O48 P11 1.556152 1_555
O49 P10 1.536042 1_555
O50 P0 1.526109 1_655
O51 P13 1.536552 1_555
O52 P12 1.556148 1_555
O53 P15 1.536552 1_555
O54 P15 1.536042 1_555
O55 P7 1.526109 1_555
O56 P14 1.536042 1_555
O57 P2 1.526109 1_655
