# generated using pymatgen
data_ZnCoO3
_symmetry_space_group_name_H-M   'P 1'
_cell_length_a   5.39080167
_cell_length_b   5.39080167
_cell_length_c   5.39080109
_cell_angle_alpha   54.53040113
_cell_angle_beta   54.53040113
_cell_angle_gamma   54.53040507
_symmetry_Int_Tables_number   1
_chemical_formula_structural   ZnCoO3
_chemical_formula_sum   'Zn2 Co2 O6'
_cell_volume   96.65191093
_cell_formula_units_Z   2
loop_
 _symmetry_equiv_pos_site_id
 _symmetry_equiv_pos_as_xyz
  1  'x, y, z'
loop_
 _atom_site_type_symbol
 _atom_site_label
 _atom_site_symmetry_multiplicity
 _atom_site_fract_x
 _atom_site_fract_y
 _atom_site_fract_z
 _atom_site_occupancy
  Zn  Zn0  1  0.36627700  0.36627700  0.36627700  1
  Zn  Zn1  1  0.63372300  0.63372300  0.63372300  1
  Co  Co0  1  0.16080100  0.16080100  0.16080100  1
  Co  Co1  1  0.83919900  0.83919900  0.83919900  1
  O  O0  1  0.43815700  0.78797500  0.04386300  1
  O  O1  1  0.78797500  0.04386300  0.43815700  1
  O  O2  1  0.04386300  0.43815700  0.78797500  1
  O  O3  1  0.95613700  0.56184300  0.21202500  1
  O  O4  1  0.21202500  0.95613700  0.56184300  1
  O  O5  1  0.56184300  0.21202500  0.95613700  1
loop_
_geom_bond_atom_site_label_1
_geom_bond_atom_site_label_2
_geom_bond_distance
_geom_bond_site_symmetry_2
Co0 O4 1.881105 1_545
Co0 O5 1.881105 1_554
Co0 O3 1.881106 1_455
Co0 O2 1.887165 1_554
Co0 O1 1.887166 1_455
Co0 O0 1.887166 1_545
Co1 O1 1.881105 1_565
Co1 O0 1.881105 1_556
Co1 O2 1.881106 1_655
Co1 O3 1.887165 1_556
Co1 O4 1.887166 1_655
Co1 O5 1.887166 1_565
O0 Zn0 1.998528 1_555
O0 Zn1 2.258870 1_554
O1 Zn0 1.998528 1_555
O1 Zn1 2.258870 1_545
O2 Zn0 1.998528 1_555
O2 Zn1 2.258870 1_455
O3 Zn1 1.998528 1_555
O3 Zn0 2.258870 1_655
O4 Zn1 1.998528 1_555
O4 Zn0 2.258870 1_565
O5 Zn1 1.998528 1_555
O5 Zn0 2.258870 1_556
