# generated using pymatgen
data_CaZn2H12(BrO)6
_symmetry_space_group_name_H-M   'P 1'
_cell_length_a   8.64975485
_cell_length_b   8.64975485
_cell_length_c   14.11669209
_cell_angle_alpha   73.63237689
_cell_angle_beta   73.63237689
_cell_angle_gamma   79.01083970
_symmetry_Int_Tables_number   1
_chemical_formula_structural   CaZn2H12(BrO)6
_chemical_formula_sum   'Ca2 Zn4 H24 Br12 O12'
_cell_volume   965.19260469
_cell_formula_units_Z   2
loop_
 _symmetry_equiv_pos_site_id
 _symmetry_equiv_pos_as_xyz
  1  'x, y, z'
loop_
 _atom_site_type_symbol
 _atom_site_label
 _atom_site_symmetry_multiplicity
 _atom_site_fract_x
 _atom_site_fract_y
 _atom_site_fract_z
 _atom_site_occupancy
  Ca  Ca0  1  0.42929200  0.42929200  0.72316100  1
  Ca  Ca1  1  0.57070800  0.57070800  0.27683900  1
  Zn  Zn0  1  0.04220000  0.04220000  0.68714400  1
  Zn  Zn1  1  0.95780000  0.95780000  0.31285600  1
  Zn  Zn2  1  0.77752700  0.77752700  0.83955500  1
  Zn  Zn3  1  0.22247300  0.22247300  0.16044500  1
  H  H0  1  0.12554900  0.26872900  0.84788700  1
  H  H1  1  0.26872900  0.12554900  0.84788700  1
  H  H2  1  0.87445100  0.73127100  0.15211300  1
  H  H3  1  0.73127100  0.87445100  0.15211300  1
  H  H4  1  0.35543600  0.67876300  0.84927400  1
  H  H5  1  0.67876300  0.35543600  0.84927400  1
  H  H6  1  0.64456400  0.32123700  0.15072600  1
  H  H7  1  0.32123700  0.64456400  0.15072600  1
  H  H8  1  0.22766400  0.55837500  0.90397700  1
  H  H9  1  0.55837500  0.22766400  0.90397700  1
  H  H10  1  0.77233600  0.44162500  0.09602300  1
  H  H11  1  0.44162500  0.77233600  0.09602300  1
  H  H12  1  0.59157500  0.73401100  0.60101000  1
  H  H13  1  0.73401100  0.59157500  0.60101000  1
  H  H14  1  0.40842500  0.26598900  0.39899000  1
  H  H15  1  0.26598900  0.40842500  0.39899000  1
  H  H16  1  0.20450200  0.67387300  0.61358800  1
  H  H17  1  0.67387300  0.20450200  0.61358800  1
  H  H18  1  0.79549800  0.32612700  0.38641200  1
  H  H19  1  0.32612700  0.79549800  0.38641200  1
  H  H20  1  0.14608500  0.50801100  0.62074700  1
  H  H21  1  0.50801100  0.14608500  0.62074700  1
  H  H22  1  0.85391500  0.49198900  0.37925300  1
  H  H23  1  0.49198900  0.85391500  0.37925300  1
  Br  Br0  1  0.94649100  0.94649100  0.87575900  1
  Br  Br1  1  0.05350900  0.05350900  0.12424100  1
  Br  Br2  1  0.87096600  0.87096600  0.64973600  1
  Br  Br3  1  0.12903400  0.12903400  0.35026400  1
  Br  Br4  1  0.95965300  0.32182200  0.61870200  1
  Br  Br5  1  0.32182200  0.95965300  0.61870200  1
  Br  Br6  1  0.04034700  0.67817800  0.38129800  1
  Br  Br7  1  0.67817800  0.04034700  0.38129800  1
  Br  Br8  1  0.49251800  0.85657100  0.89797400  1
  Br  Br9  1  0.85657100  0.49251800  0.89797400  1
  Br  Br10  1  0.50748200  0.14342900  0.10202600  1
  Br  Br11  1  0.14342900  0.50748200  0.10202600  1
  O  O0  1  0.24293700  0.24293700  0.82523600  1
  O  O1  1  0.75706300  0.75706300  0.17476400  1
  O  O2  1  0.30424200  0.59458600  0.83871400  1
  O  O3  1  0.59458600  0.30424200  0.83871400  1
  O  O4  1  0.69575800  0.40541400  0.16128600  1
  O  O5  1  0.40541400  0.69575800  0.16128600  1
  O  O6  1  0.61604000  0.61604000  0.61969900  1
  O  O7  1  0.38396000  0.38396000  0.38030100  1
  O  O8  1  0.23772000  0.55722700  0.62373000  1
  O  O9  1  0.55722700  0.23772000  0.62373000  1
  O  O10  1  0.76228000  0.44277300  0.37627000  1
  O  O11  1  0.44277300  0.76228000  0.37627000  1
loop_
_geom_bond_atom_site_label_1
_geom_bond_atom_site_label_2
_geom_bond_distance
_geom_bond_site_symmetry_2
Ca0 O3 2.367593 1_555
Ca0 O2 2.367593 1_555
Ca0 O0 2.376006 1_555
Ca0 O8 2.382635 1_555
Ca0 O9 2.382635 1_555
Ca0 O6 2.384778 1_555
Ca1 O5 2.367593 1_555
Ca1 O4 2.367593 1_555
Ca1 O1 2.376006 1_555
Ca1 O11 2.382635 1_555
Ca1 O10 2.382635 1_555
Ca1 O7 2.384778 1_555
H0 O0 0.976660 1_555
H1 O0 0.976660 1_555
H2 O1 0.976660 1_555
H3 O1 0.976660 1_555
H4 O2 0.984760 1_555
H5 O3 0.984760 1_555
H6 O4 0.984760 1_555
H7 O5 0.984760 1_555
H8 O2 0.978860 1_555
H9 O3 0.978860 1_555
H10 O4 0.978860 1_555
H11 O5 0.978860 1_555
H12 O6 0.976245 1_555
H13 O6 0.976245 1_555
H14 O7 0.976245 1_555
H15 O7 0.976245 1_555
H16 O8 0.975859 1_555
H17 O9 0.975859 1_555
H18 O10 0.975859 1_555
H19 O11 0.975859 1_555
H20 O8 0.984278 1_555
H21 O9 0.984278 1_555
H22 O10 0.984278 1_555
H23 O11 0.984278 1_555
Br0 Zn2 2.487858 1_555
Br0 Zn0 2.497375 1_665
Br1 Zn3 2.487858 1_555
Br1 Zn1 2.497375 1_445
Br2 Zn2 2.508910 1_555
Br2 Zn0 2.526731 1_665
Br3 Zn3 2.508910 1_555
Br3 Zn1 2.526731 1_445
Br4 Zn0 2.388848 1_655
Br5 Zn0 2.388848 1_565
Br6 Zn1 2.388848 1_455
Br7 Zn1 2.388848 1_545
Br8 Zn2 2.398836 1_555
Br9 Zn2 2.398836 1_555
Br10 Zn3 2.398836 1_555
Br11 Zn3 2.398836 1_555
