# generated using pymatgen
data_Li2Cr(PO3)4
_symmetry_space_group_name_H-M   'P 1'
_cell_length_a   8.14405011
_cell_length_b   8.14405011
_cell_length_c   8.21540696
_cell_angle_alpha   83.26034372
_cell_angle_beta   83.26034372
_cell_angle_gamma   103.35648761
_symmetry_Int_Tables_number   1
_chemical_formula_structural   Li2Cr(PO3)4
_chemical_formula_sum   'Li4 Cr2 P8 O24'
_cell_volume   520.57112415
_cell_formula_units_Z   2
loop_
 _symmetry_equiv_pos_site_id
 _symmetry_equiv_pos_as_xyz
  1  'x, y, z'
loop_
 _atom_site_type_symbol
 _atom_site_label
 _atom_site_symmetry_multiplicity
 _atom_site_fract_x
 _atom_site_fract_y
 _atom_site_fract_z
 _atom_site_occupancy
  Li  Li0  1  0.44723000  0.81823100  0.93260600  1
  Li  Li1  1  0.81823100  0.44723000  0.43260600  1
  Li  Li2  1  0.17635700  0.54793400  0.56903800  1
  Li  Li3  1  0.54793400  0.17635700  0.06903800  1
  Cr  Cr0  1  0.81874200  0.10820100  0.74228600  1
  Cr  Cr1  1  0.10820100  0.81874200  0.24228600  1
  P  P0  1  0.92632600  0.75782700  0.68805900  1
  P  P1  1  0.75782700  0.92632600  0.18805900  1
  P  P2  1  0.82122500  0.44791400  0.92709400  1
  P  P3  1  0.44791400  0.82122500  0.42709400  1
  P  P4  1  0.49218100  0.14480000  0.57588500  1
  P  P5  1  0.14480000  0.49218100  0.07588500  1
  P  P6  1  0.17553600  0.02168100  0.81727200  1
  P  P7  1  0.02168100  0.17553600  0.31727200  1
  O  O0  1  0.83281400  0.89030500  0.64377400  1
  O  O1  1  0.97015500  0.64848400  0.56053500  1
  O  O2  1  0.89030500  0.83281400  0.14377400  1
  O  O3  1  0.64848400  0.97015500  0.06053500  1
  O  O4  1  0.81381800  0.63851300  0.85313900  1
  O  O5  1  0.63851300  0.81381800  0.35313900  1
  O  O6  1  0.27657300  0.98393100  0.95341100  1
  O  O7  1  0.78102100  0.33700000  0.79543800  1
  O  O8  1  0.98393100  0.27657300  0.45341100  1
  O  O9  1  0.39398900  0.70926700  0.59090900  1
  O  O10  1  0.33700000  0.78102100  0.29543800  1
  O  O11  1  0.70926700  0.39398900  0.09090900  1
  O  O12  1  0.10250900  0.84088700  0.75314800  1
  O  O13  1  0.32160400  0.57439500  0.99304900  1
  O  O14  1  0.84088700  0.10250900  0.25314800  1
  O  O15  1  0.57439500  0.32160400  0.49304900  1
  O  O16  1  0.56793700  0.05565100  0.70954900  1
  O  O17  1  0.02366400  0.46864400  0.93215500  1
  O  O18  1  0.05565100  0.56793700  0.20954900  1
  O  O19  1  0.46864400  0.02366400  0.43215500  1
  O  O20  1  0.29797400  0.13526100  0.65372500  1
  O  O21  1  0.13526100  0.29797400  0.15372500  1
  O  O22  1  0.03731000  0.11277500  0.84831000  1
  O  O23  1  0.11277500  0.03731000  0.34831000  1
loop_
_geom_bond_atom_site_label_1
_geom_bond_atom_site_label_2
_geom_bond_distance
_geom_bond_site_symmetry_2
Li0 O13 1.986806 1_555
Li0 O6 2.155655 1_555
Li0 O3 2.257083 1_556
Li0 O16 2.435246 1_565
Li1 O15 1.986806 1_555
Li1 O8 2.155655 1_555
Li1 O1 2.257083 1_555
Li1 O18 2.435246 1_655
Li2 O9 1.988536 1_555
Li2 O1 2.035934 1_455
Li3 O11 1.988536 1_555
Li3 O3 2.035934 1_545
Cr0 O16 2.044421 1_555
Cr0 O7 2.044771 1_555
Cr0 O0 2.055836 1_545
Cr0 O22 2.066273 1_655
Cr1 O18 2.044421 1_555
Cr1 O10 2.044771 1_555
Cr1 O2 2.055836 1_455
Cr1 O23 2.066273 1_565
O0 P0 1.492954 1_555
O1 P0 1.515270 1_555
O2 P1 1.492954 1_555
O3 P1 1.515270 1_555
O4 P0 1.615764 1_555
O4 P2 1.616403 1_555
O5 P1 1.615764 1_555
O5 P3 1.616403 1_555
O6 P6 1.508206 1_565
O7 P2 1.506257 1_555
O8 P7 1.508206 1_655
O9 P3 1.491200 1_555
O10 P3 1.506257 1_555
O11 P2 1.491200 1_554
O12 P0 1.618286 1_455
O12 P6 1.627943 1_565
O13 P5 1.484037 1_556
O14 P1 1.618286 1_545
O14 P7 1.627943 1_655
O15 P4 1.484037 1_555
O16 P4 1.514080 1_555
O17 P2 1.624036 1_455
O17 P5 1.625875 1_556
O18 P5 1.514080 1_555
O19 P3 1.624036 1_545
O19 P4 1.625875 1_555
O20 P4 1.615769 1_555
O20 P6 1.619527 1_555
O21 P5 1.615769 1_555
O21 P7 1.619527 1_555
O22 P6 1.498506 1_555
O23 P7 1.498506 1_555
