# generated using pymatgen
data_BiOF
_symmetry_space_group_name_H-M   'P 1'
_cell_length_a   5.67747100
_cell_length_b   11.62875000
_cell_length_c   11.80126800
_cell_angle_alpha   90.00000000
_cell_angle_beta   90.00000000
_cell_angle_gamma   90.00000000
_symmetry_Int_Tables_number   1
_chemical_formula_structural   BiOF
_chemical_formula_sum   'Bi16 O16 F16'
_cell_volume   779.14202827
_cell_formula_units_Z   16
loop_
 _symmetry_equiv_pos_site_id
 _symmetry_equiv_pos_as_xyz
  1  'x, y, z'
loop_
 _atom_site_type_symbol
 _atom_site_label
 _atom_site_symmetry_multiplicity
 _atom_site_fract_x
 _atom_site_fract_y
 _atom_site_fract_z
 _atom_site_occupancy
  Bi  Bi0  1  0.72991300  0.86154600  0.96888100  1
  Bi  Bi1  1  0.77008700  0.86154600  0.46888100  1
  Bi  Bi2  1  0.25451300  0.88379800  0.75197400  1
  Bi  Bi3  1  0.24548700  0.88379800  0.25197400  1
  Bi  Bi4  1  0.74548700  0.61620200  0.25197400  1
  Bi  Bi5  1  0.75451300  0.61620200  0.75197400  1
  Bi  Bi6  1  0.27008700  0.63845400  0.46888100  1
  Bi  Bi7  1  0.22991300  0.63845400  0.96888100  1
  Bi  Bi8  1  0.72991300  0.36154600  0.53111900  1
  Bi  Bi9  1  0.77008700  0.36154600  0.03111900  1
  Bi  Bi10  1  0.24548700  0.38379800  0.24802600  1
  Bi  Bi11  1  0.25451300  0.38379800  0.74802600  1
  Bi  Bi12  1  0.75451300  0.11620200  0.74802600  1
  Bi  Bi13  1  0.74548700  0.11620200  0.24802600  1
  Bi  Bi14  1  0.27008700  0.13845400  0.03111900  1
  Bi  Bi15  1  0.22991300  0.13845400  0.53111900  1
  O  O0  1  0.45906100  0.02116200  0.15215100  1
  O  O1  1  0.04093900  0.02116200  0.65215100  1
  O  O2  1  0.49369000  0.76619900  0.36865100  1
  O  O3  1  0.00631000  0.76619900  0.86865100  1
  O  O4  1  0.50631000  0.73380100  0.86865100  1
  O  O5  1  0.99369000  0.73380100  0.36865100  1
  O  O6  1  0.95906100  0.47883800  0.15215100  1
  O  O7  1  0.54093900  0.47883800  0.65215100  1
  O  O8  1  0.45906100  0.52116200  0.34784900  1
  O  O9  1  0.04093900  0.52116200  0.84784900  1
  O  O10  1  0.00631000  0.26619900  0.63134900  1
  O  O11  1  0.49369000  0.26619900  0.13134900  1
  O  O12  1  0.50631000  0.23380100  0.63134900  1
  O  O13  1  0.99369000  0.23380100  0.13134900  1
  O  O14  1  0.95906100  0.97883800  0.34784900  1
  O  O15  1  0.54093900  0.97883800  0.84784900  1
  F  F0  1  0.96526400  0.00401000  0.11694200  1
  F  F1  1  0.53473600  0.00401000  0.61694200  1
  F  F2  1  0.97968900  0.74358800  0.11054300  1
  F  F3  1  0.52031100  0.74358800  0.61054300  1
  F  F4  1  0.47968900  0.75641200  0.11054300  1
  F  F5  1  0.02031100  0.75641200  0.61054300  1
  F  F6  1  0.03473600  0.49599000  0.61694200  1
  F  F7  1  0.46526400  0.49599000  0.11694200  1
  F  F8  1  0.96526400  0.50401000  0.38305800  1
  F  F9  1  0.53473600  0.50401000  0.88305800  1
  F  F10  1  0.97968900  0.24358800  0.38945700  1
  F  F11  1  0.52031100  0.24358800  0.88945700  1
  F  F12  1  0.02031100  0.25641200  0.88945700  1
  F  F13  1  0.47968900  0.25641200  0.38945700  1
  F  F14  1  0.03473600  0.99599000  0.88305800  1
  F  F15  1  0.46526400  0.99599000  0.38305800  1
loop_
_geom_bond_atom_site_label_1
_geom_bond_atom_site_label_2
_geom_bond_distance
_geom_bond_site_symmetry_2
Bi0 O15 2.247580 1_555
Bi0 O3 2.256319 1_655
Bi0 O4 2.284184 1_555
Bi0 F4 2.511533 1_556
Bi0 F14 2.542662 1_655
Bi0 F2 2.586011 1_556
Bi0 F0 2.753742 1_566
Bi1 O14 2.247580 1_555
Bi1 O2 2.256319 1_555
Bi1 O5 2.284184 1_555
Bi1 F5 2.511533 1_655
Bi1 F15 2.542662 1_555
Bi1 F3 2.586011 1_555
Bi1 F1 2.753742 1_565
Bi2 O15 2.268497 1_555
Bi2 O1 2.325870 1_565
Bi2 F14 2.377424 1_555
Bi2 O3 2.398299 1_555
Bi2 F5 2.597726 1_555
Bi2 O4 2.642372 1_555
Bi2 F1 2.650417 1_565
Bi2 F3 2.778752 1_555
Bi3 O14 2.268497 1_455
Bi3 O0 2.325870 1_565
Bi3 F15 2.377424 1_555
Bi3 O2 2.398299 1_555
Bi3 F4 2.597726 1_555
Bi3 O5 2.642372 1_455
Bi3 F0 2.650417 1_465
Bi3 F2 2.778752 1_455
Bi4 O8 2.268497 1_555
Bi4 O6 2.325870 1_555
Bi4 F8 2.377424 1_555
Bi4 O5 2.398299 1_555
Bi4 F2 2.597726 1_555
Bi4 O2 2.642372 1_555
Bi4 F7 2.650417 1_555
Bi4 F4 2.778752 1_555
Bi5 O9 2.268497 1_655
Bi5 O7 2.325870 1_555
Bi5 F9 2.377424 1_555
Bi5 O4 2.398299 1_555
Bi5 F3 2.597726 1_555
Bi5 O3 2.642372 1_655
Bi5 F6 2.650417 1_655
Bi5 F5 2.778752 1_655
Bi6 O8 2.247580 1_555
Bi6 O5 2.256319 1_455
Bi6 O2 2.284184 1_555
Bi6 F3 2.511533 1_555
Bi6 F8 2.542662 1_455
Bi6 F5 2.586011 1_555
Bi6 F6 2.753742 1_555
Bi7 O9 2.247580 1_555
Bi7 O4 2.256319 1_555
Bi7 O3 2.284184 1_555
Bi7 F2 2.511533 1_456
Bi7 F9 2.542662 1_555
Bi7 F4 2.586011 1_556
Bi7 F7 2.753742 1_556
Bi8 O7 2.247580 1_555
Bi8 O10 2.256319 1_655
Bi8 O12 2.284184 1_555
Bi8 F13 2.511533 1_555
Bi8 F6 2.542662 1_655
Bi8 F10 2.586011 1_555
Bi8 F8 2.753742 1_555
Bi9 O6 2.247580 1_555
Bi9 O11 2.256319 1_555
Bi9 O13 2.284184 1_555
Bi9 F12 2.511533 1_654
Bi9 F7 2.542662 1_555
Bi9 F11 2.586011 1_554
Bi9 F9 2.753742 1_554
Bi10 O6 2.268497 1_455
Bi10 O8 2.325870 1_555
Bi10 F7 2.377424 1_555
Bi10 O11 2.398299 1_555
Bi10 F13 2.597726 1_555
Bi10 O13 2.642372 1_455
Bi10 F8 2.650417 1_455
Bi10 F10 2.778752 1_455
Bi11 O7 2.268497 1_555
Bi11 O9 2.325870 1_555
Bi11 F6 2.377424 1_555
Bi11 O10 2.398299 1_555
Bi11 F12 2.597726 1_555
Bi11 O12 2.642372 1_555
Bi11 F9 2.650417 1_555
Bi11 F11 2.778752 1_555
Bi12 O1 2.268497 1_655
Bi12 O15 2.325870 1_545
Bi12 F1 2.377424 1_555
Bi12 O12 2.398299 1_555
Bi12 F11 2.597726 1_555
Bi12 O10 2.642372 1_655
Bi12 F14 2.650417 1_645
Bi12 F12 2.778752 1_655
Bi13 O0 2.268497 1_555
Bi13 O14 2.325870 1_545
Bi13 F0 2.377424 1_555
Bi13 O13 2.398299 1_555
Bi13 F10 2.597726 1_555
Bi13 O11 2.642372 1_555
Bi13 F15 2.650417 1_545
Bi13 F13 2.778752 1_555
Bi14 O0 2.247580 1_555
Bi14 O13 2.256319 1_455
Bi14 O11 2.284184 1_555
Bi14 F11 2.511533 1_554
Bi14 F0 2.542662 1_455
Bi14 F12 2.586011 1_554
Bi14 F14 2.753742 1_544
Bi15 O1 2.247580 1_555
Bi15 O12 2.256319 1_555
Bi15 O10 2.284184 1_555
Bi15 F10 2.511533 1_455
Bi15 F1 2.542662 1_555
Bi15 F13 2.586011 1_555
Bi15 F15 2.753742 1_545
