# generated using pymatgen
data_Li2Fe5O5F7
_symmetry_space_group_name_H-M   'P 1'
_cell_length_a   5.91006100
_cell_length_b   5.98719227
_cell_length_c   6.17644189
_cell_angle_alpha   99.48937672
_cell_angle_beta   99.90307836
_cell_angle_gamma   99.47425219
_symmetry_Int_Tables_number   1
_chemical_formula_structural   Li2Fe5O5F7
_chemical_formula_sum   'Li2 Fe5 O5 F7'
_cell_volume   208.11930736
_cell_formula_units_Z   1
loop_
 _symmetry_equiv_pos_site_id
 _symmetry_equiv_pos_as_xyz
  1  'x, y, z'
loop_
 _atom_site_type_symbol
 _atom_site_label
 _atom_site_symmetry_multiplicity
 _atom_site_fract_x
 _atom_site_fract_y
 _atom_site_fract_z
 _atom_site_occupancy
  Li  Li0  1  0.86468300  0.67760700  0.40616100  1
  Li  Li1  1  0.31403100  0.60041600  0.11715100  1
  Fe  Fe0  1  0.64642500  0.38376800  0.83564900  1
  Fe  Fe1  1  0.13898500  0.33997600  0.58698200  1
  Fe  Fe2  1  0.62460300  0.15510200  0.34672000  1
  Fe  Fe3  1  0.98460500  0.00486500  0.01542600  1
  Fe  Fe4  1  0.41080400  0.86433100  0.68096500  1
  O  O0  1  0.67781800  0.06529300  0.89381900  1
  O  O1  1  0.39698000  0.16577800  0.57044700  1
  O  O2  1  0.94232700  0.11456200  0.31444100  1
  O  O3  1  0.40799600  0.58174000  0.79403600  1
  O  O4  1  0.82314400  0.40489400  0.59945700  1
  F  F0  1  0.12408200  0.29816600  0.93870400  1
  F  F1  1  0.18065500  0.59460700  0.39769400  1
  F  F2  1  0.57973400  0.40901400  0.18069300  1
  F  F3  1  0.07520600  0.87904500  0.71642400  1
  F  F4  1  0.60822200  0.83187600  0.44198000  1
  F  F5  1  0.87937700  0.67360000  0.03280600  1
  F  F6  1  0.32032200  0.95535900  0.13044700  1
loop_
_geom_bond_atom_site_label_1
_geom_bond_atom_site_label_2
_geom_bond_distance
_geom_bond_site_symmetry_2
Li0 O4 2.182480 1_555
Li1 O3 2.152162 1_554
Fe0 O4 1.943299 1_555
Fe0 O3 1.995587 1_555
Fe0 O0 2.029460 1_555
Fe0 O1 2.095447 1_555
Fe1 O4 1.979847 1_455
Fe1 O1 1.991249 1_555
Fe1 O2 2.016789 1_455
Fe1 O3 2.047205 1_555
Fe2 O2 1.971683 1_555
Fe2 O4 2.018108 1_555
Fe2 O1 2.088514 1_555
Fe3 O2 1.928066 1_555
Fe3 O0 1.954384 1_554
Fe4 O3 1.932608 1_555
Fe4 O0 1.950926 1_565
Fe4 O1 2.040978 1_565
F0 Fe3 1.979888 1_456
F0 Li1 1.999439 1_556
F0 Fe1 2.242223 1_555
F1 Li0 2.016789 1_455
F1 Li1 2.026244 1_555
F1 Fe1 2.077213 1_555
F1 Fe4 2.246286 1_555
F2 Fe2 1.996535 1_555
F2 Li1 2.112319 1_555
F2 Fe0 2.218625 1_554
F2 Li0 2.219187 1_555
F3 Fe4 2.046996 1_555
F3 Fe3 2.068563 1_466
F3 Li0 2.144460 1_455
F4 Li0 1.925679 1_555
F4 Fe4 2.037232 1_555
F4 Fe2 2.105697 1_565
F4 Li1 2.461470 1_555
F5 Fe3 2.004758 1_565
F5 Fe0 2.080772 1_554
F5 Li0 2.318858 1_555
F6 Fe3 2.075437 1_465
F6 Fe2 2.094631 1_565
F6 Li1 2.107041 1_555
