# generated using pymatgen
data_TbFeGe2O7
_symmetry_space_group_name_H-M   'P 1'
_cell_length_a   6.94245878
_cell_length_b   6.94245878
_cell_length_c   6.77961024
_cell_angle_alpha   68.83396074
_cell_angle_beta   68.83396074
_cell_angle_gamma   76.95172670
_symmetry_Int_Tables_number   1
_chemical_formula_structural   TbFeGe2O7
_chemical_formula_sum   'Tb2 Fe2 Ge4 O14'
_cell_volume   282.44593929
_cell_formula_units_Z   2
loop_
 _symmetry_equiv_pos_site_id
 _symmetry_equiv_pos_as_xyz
  1  'x, y, z'
loop_
 _atom_site_type_symbol
 _atom_site_label
 _atom_site_symmetry_multiplicity
 _atom_site_fract_x
 _atom_site_fract_y
 _atom_site_fract_z
 _atom_site_occupancy
  Tb  Tb0  1  0.21095500  0.78904500  0.00000000  1
  Tb  Tb1  1  0.78904500  0.21095500  0.00000000  1
  Fe  Fe0  1  0.30309400  0.69690600  0.50000000  1
  Fe  Fe1  1  0.69690600  0.30309400  0.50000000  1
  Ge  Ge0  1  0.22085400  0.22085400  0.47972200  1
  Ge  Ge1  1  0.77914600  0.77914600  0.52027800  1
  Ge  Ge2  1  0.69834600  0.69834600  0.07742100  1
  Ge  Ge3  1  0.30165400  0.30165400  0.92257900  1
  O  O0  1  0.43321600  0.79084800  0.17243300  1
  O  O1  1  0.20915200  0.56678400  0.82756700  1
  O  O2  1  0.56678400  0.20915200  0.82756700  1
  O  O3  1  0.79084800  0.43321600  0.17243300  1
  O  O4  1  0.36773600  0.36773600  0.53411900  1
  O  O5  1  0.63226400  0.63226400  0.46588100  1
  O  O6  1  0.31786300  0.31786300  0.18125100  1
  O  O7  1  0.68213700  0.68213700  0.81874900  1
  O  O8  1  0.13056900  0.13056900  0.96591200  1
  O  O9  1  0.86943100  0.86943100  0.03408800  1
  O  O10  1  0.27618100  0.94792400  0.59456400  1
  O  O11  1  0.05207600  0.72381900  0.40543600  1
  O  O12  1  0.72381900  0.05207600  0.40543600  1
  O  O13  1  0.94792400  0.27618100  0.59456400  1
loop_
_geom_bond_atom_site_label_1
_geom_bond_atom_site_label_2
_geom_bond_distance
_geom_bond_site_symmetry_2
Fe0 O1 1.986109 1_555
Fe0 O0 1.986109 1_555
Fe0 O11 2.013989 1_555
Fe0 O10 2.013989 1_555
Fe0 O4 2.169658 1_555
Fe0 O5 2.169658 1_555
Fe1 O2 1.986109 1_555
Fe1 O3 1.986109 1_555
Fe1 O12 2.013989 1_555
Fe1 O13 2.013989 1_555
Fe1 O4 2.169658 1_555
Fe1 O5 2.169658 1_555
Ge0 O10 1.779323 1_545
Ge0 O13 1.779323 1_455
Ge0 O4 1.796760 1_555
Ge0 O6 1.799530 1_555
Ge1 O11 1.779323 1_655
Ge1 O12 1.779323 1_565
Ge1 O5 1.796760 1_555
Ge1 O7 1.799530 1_555
Ge2 O9 1.743806 1_555
Ge2 O0 1.767515 1_555
Ge2 O3 1.767515 1_555
Ge2 O7 1.841606 1_554
Ge2 O5 2.388900 1_555
Ge3 O8 1.743806 1_555
Ge3 O1 1.767515 1_555
Ge3 O2 1.767515 1_555
Ge3 O6 1.841606 1_556
Ge3 O4 2.388900 1_555
O0 Tb0 2.251595 1_555
O1 Tb0 2.251595 1_556
O2 Tb1 2.251595 1_556
O3 Tb1 2.251595 1_555
O8 Tb1 2.255333 1_456
O8 Tb0 2.255333 1_546
O9 Tb0 2.255333 1_655
O9 Tb1 2.255333 1_565
O10 Tb0 2.472709 1_556
O11 Tb0 2.472709 1_555
O12 Tb1 2.472709 1_555
O13 Tb1 2.472709 1_556
