# generated using pymatgen
data_LiFe4(PO4)3
_symmetry_space_group_name_H-M   'P 1'
_cell_length_a   10.50994537
_cell_length_b   10.50994537
_cell_length_c   10.50994537
_cell_angle_alpha   142.05756575
_cell_angle_beta   142.05756575
_cell_angle_gamma   54.74209632
_symmetry_Int_Tables_number   1
_chemical_formula_structural   LiFe4(PO4)3
_chemical_formula_sum   'Li2 Fe8 P6 O24'
_cell_volume   435.82615594
_cell_formula_units_Z   2
loop_
 _symmetry_equiv_pos_site_id
 _symmetry_equiv_pos_as_xyz
  1  'x, y, z'
loop_
 _atom_site_type_symbol
 _atom_site_label
 _atom_site_symmetry_multiplicity
 _atom_site_fract_x
 _atom_site_fract_y
 _atom_site_fract_z
 _atom_site_occupancy
  Li  Li0  1  0.25000000  0.75000000  0.50000000  1
  Li  Li1  1  0.50000000  0.50000000  0.00000000  1
  Fe  Fe0  1  0.37500000  0.36493900  0.48993900  1
  Fe  Fe1  1  0.77504800  0.77504800  0.00000000  1
  Fe  Fe2  1  0.63506100  0.12500000  0.01006100  1
  Fe  Fe3  1  0.87500000  0.88506100  0.51006100  1
  Fe  Fe4  1  0.22495200  0.22495200  0.00000000  1
  Fe  Fe5  1  0.52504800  0.02504800  0.50000000  1
  Fe  Fe6  1  0.97495200  0.47495200  0.50000000  1
  Fe  Fe7  1  0.11493900  0.62500000  0.98993900  1
  P  P0  1  0.00000000  0.00000000  0.00000000  1
  P  P1  1  0.87500000  0.47914900  0.10414900  1
  P  P2  1  0.37500000  0.77085100  0.89585100  1
  P  P3  1  0.22914900  0.12500000  0.60414900  1
  P  P4  1  0.75000000  0.25000000  0.50000000  1
  P  P5  1  0.52085100  0.62500000  0.39585100  1
  O  O0  1  0.23163500  0.09551900  0.24133100  1
  O  O1  1  0.66919300  0.34020300  0.80158000  1
  O  O2  1  0.08080700  0.38238700  0.17101000  1
  O  O3  1  0.61761300  0.78862300  0.69842000  1
  O  O4  1  0.27521100  0.56166800  0.71763300  1
  O  O5  1  0.47478900  0.69242200  0.78645700  1
  O  O6  1  0.90596500  0.68833200  0.21354300  1
  O  O7  1  0.84403500  0.55757800  0.28236700  1
  O  O8  1  0.09020300  0.91919300  0.30158000  1
  O  O9  1  0.90448100  0.14581300  0.13611600  1
  O  O10  1  0.43833200  0.15596500  0.71354300  1
  O  O11  1  0.21137700  0.90979700  0.82899000  1
  O  O12  1  0.53862300  0.86761300  0.19842000  1
  O  O13  1  0.30757800  0.09403500  0.78236700  1
  O  O14  1  0.74030400  0.10418700  0.25866900  1
  O  O15  1  0.89581300  0.15448100  0.63611600  1
  O  O16  1  0.85418700  0.99030400  0.75866900  1
  O  O17  1  0.13238700  0.33080700  0.67101000  1
  O  O18  1  0.65979700  0.46137700  0.32899000  1
  O  O19  1  0.51836500  0.25969600  0.36388400  1
  O  O20  1  0.84551900  0.48163500  0.74133100  1
  O  O21  1  0.31166800  0.52521100  0.21763300  1
  O  O22  1  0.44242200  0.72478900  0.28645700  1
  O  O23  1  0.00969600  0.76836500  0.86388400  1
loop_
_geom_bond_atom_site_label_1
_geom_bond_atom_site_label_2
_geom_bond_distance
_geom_bond_site_symmetry_2
Li0 O5 2.239666 1_555
Li0 O6 2.239666 1_455
Li0 O21 2.239666 1_555
Li0 O13 2.239666 1_565
Li1 O4 2.239666 1_554
Li1 O7 2.239666 1_555
Li1 O22 2.239666 1_555
Li1 O10 2.239666 1_554
Fe0 O0 2.040105 1_555
Fe0 O19 2.040105 1_555
Fe0 O5 2.180039 1_555
Fe0 O4 2.180039 1_555
Fe0 O2 2.190296 1_555
Fe0 O1 2.190296 1_555
Fe1 O6 2.160691 1_555
Fe1 O5 2.160691 1_554
Fe1 O14 2.182862 1_565
Fe1 O20 2.182867 1_554
Fe1 O3 2.230074 1_554
Fe1 O8 2.230074 1_655
Fe2 O9 2.040109 1_555
Fe2 O14 2.040114 1_555
Fe2 O10 2.180039 1_554
Fe2 O13 2.180039 1_554
Fe2 O18 2.190296 1_555
Fe2 O3 2.190296 1_544
Fe3 O15 2.040109 1_565
Fe3 O16 2.040114 1_555
Fe3 O6 2.180039 1_555
Fe3 O7 2.180039 1_555
Fe3 O11 2.190296 1_655
Fe3 O12 2.190296 1_555
Fe4 O21 2.160691 1_555
Fe4 O13 2.160691 1_554
Fe4 O15 2.182863 1_454
Fe4 O19 2.182867 1_555
Fe4 O2 2.230074 1_555
Fe4 O11 2.230074 1_544
Fe5 O10 2.160691 1_555
Fe5 O22 2.160691 1_545
Fe5 O16 2.182862 1_545
Fe5 O0 2.182867 1_555
Fe5 O12 2.230074 1_545
Fe5 O1 2.230074 1_555
Fe6 O4 2.160691 1_655
Fe6 O7 2.160691 1_555
Fe6 O9 2.182863 1_555
Fe6 O23 2.182867 1_655
Fe6 O17 2.230074 1_655
Fe6 O18 2.230074 1_555
Fe7 O23 2.040105 1_555
Fe7 O20 2.040105 1_455
Fe7 O22 2.180039 1_556
Fe7 O21 2.180039 1_556
Fe7 O17 2.190296 1_555
Fe7 O8 2.190296 1_556
O0 P0 1.560127 1_555
O1 P1 1.548171 1_556
O2 P1 1.548171 1_455
O3 P5 1.548171 1_555
O4 P2 1.584385 1_555
O5 P2 1.584385 1_555
O6 P1 1.584385 1_555
O7 P1 1.584385 1_555
O8 P3 1.548171 1_565
O9 P0 1.560126 1_655
O10 P3 1.584385 1_555
O11 P2 1.548171 1_555
O12 P2 1.548171 1_554
O13 P3 1.584385 1_555
O14 P4 1.560124 1_555
O15 P4 1.560126 1_555
O16 P0 1.560124 1_666
O17 P3 1.548171 1_555
O18 P5 1.548171 1_555
O19 P4 1.560127 1_555
O20 P4 1.560127 1_555
O21 P5 1.584385 1_555
O22 P5 1.584385 1_555
O23 P0 1.560127 1_566
