# generated using pymatgen
data_UGeAu
_symmetry_space_group_name_H-M   'P 1'
_cell_length_a   4.45076563
_cell_length_b   4.45076563
_cell_length_c   15.15786100
_cell_angle_alpha   90.00000000
_cell_angle_beta   90.00000000
_cell_angle_gamma   119.99999456
_symmetry_Int_Tables_number   1
_chemical_formula_structural   UGeAu
_chemical_formula_sum   'U4 Ge4 Au4'
_cell_volume   260.03872491
_cell_formula_units_Z   4
loop_
 _symmetry_equiv_pos_site_id
 _symmetry_equiv_pos_as_xyz
  1  'x, y, z'
loop_
 _atom_site_type_symbol
 _atom_site_label
 _atom_site_symmetry_multiplicity
 _atom_site_fract_x
 _atom_site_fract_y
 _atom_site_fract_z
 _atom_site_occupancy
  U  U0  1  0.00000000  0.00000000  0.75000000  1
  U  U1  1  0.00000000  0.00000000  0.25000000  1
  U  U2  1  0.00000000  0.00000000  0.50000000  1
  U  U3  1  0.00000000  0.00000000  0.00000000  1
  Ge  Ge0  1  0.33333300  0.66666700  0.88940300  1
  Ge  Ge1  1  0.66666700  0.33333300  0.38940300  1
  Ge  Ge2  1  0.66666700  0.33333300  0.11059700  1
  Ge  Ge3  1  0.33333300  0.66666700  0.61059700  1
  Au  Au0  1  0.33333300  0.66666700  0.14305600  1
  Au  Au1  1  0.66666700  0.33333300  0.64305600  1
  Au  Au2  1  0.66666700  0.33333300  0.85694400  1
  Au  Au3  1  0.33333300  0.66666700  0.35694400  1
loop_
_geom_bond_atom_site_label_1
_geom_bond_atom_site_label_2
_geom_bond_distance
_geom_bond_site_symmetry_2
Ge0 U3 3.068135 1_566
Ge0 U3 3.068139 1_666
Ge0 U3 3.068139 1_556
Ge0 U0 3.326872 1_565
Ge0 U0 3.326875 1_665
Ge0 U0 3.326875 1_555
Ge1 U2 3.068135 1_655
Ge1 U2 3.068139 1_665
Ge1 U2 3.068139 1_555
Ge1 U1 3.326872 1_655
Ge1 U1 3.326875 1_665
Ge1 U1 3.326875 1_555
Ge2 U3 3.068135 1_655
Ge2 U3 3.068139 1_665
Ge2 U3 3.068139 1_555
Ge2 U1 3.326872 1_655
Ge2 U1 3.326875 1_665
Ge2 U1 3.326875 1_555
Ge3 U2 3.068135 1_565
Ge3 U2 3.068139 1_555
Ge3 U2 3.068139 1_665
Ge3 U0 3.326872 1_565
Ge3 U0 3.326875 1_555
Ge3 U0 3.326875 1_665
Au0 Ge2 2.616327 1_455
Au0 Ge2 2.616327 1_565
Au0 Ge2 2.616334 1_555
Au0 U1 3.038235 1_565
Au0 U1 3.038238 1_555
Au0 U1 3.038238 1_665
Au0 U3 3.362313 1_565
Au0 U3 3.362316 1_555
Au0 U3 3.362316 1_665
Au1 Ge3 2.616327 1_545
Au1 Ge3 2.616327 1_655
Au1 Ge3 2.616334 1_555
Au1 U0 3.038235 1_655
Au1 U0 3.038238 1_555
Au1 U0 3.038238 1_665
Au1 U2 3.362313 1_655
Au1 U2 3.362316 1_555
Au1 U2 3.362316 1_665
Au2 Ge0 2.616327 1_545
Au2 Ge0 2.616327 1_655
Au2 Ge0 2.616334 1_555
Au2 U0 3.038235 1_655
Au2 U0 3.038238 1_555
Au2 U0 3.038238 1_665
Au2 U3 3.362313 1_656
Au2 U3 3.362316 1_666
Au2 U3 3.362316 1_556
Au3 Ge1 2.616327 1_455
Au3 Ge1 2.616327 1_565
Au3 Ge1 2.616334 1_555
Au3 U1 3.038235 1_565
Au3 U1 3.038238 1_665
Au3 U1 3.038238 1_555
Au3 U2 3.362313 1_565
Au3 U2 3.362316 1_665
Au3 U2 3.362316 1_555
