# generated using pymatgen
data_Li2Ti2CoO6
_symmetry_space_group_name_H-M   'P 1'
_cell_length_a   5.20123990
_cell_length_b   11.61166415
_cell_length_c   8.91644486
_cell_angle_alpha   67.67095828
_cell_angle_beta   88.97443180
_cell_angle_gamma   102.53927122
_symmetry_Int_Tables_number   1
_chemical_formula_structural   Li2Ti2CoO6
_chemical_formula_sum   'Li8 Ti8 Co4 O24'
_cell_volume   483.23436533
_cell_formula_units_Z   4
loop_
 _symmetry_equiv_pos_site_id
 _symmetry_equiv_pos_as_xyz
  1  'x, y, z'
loop_
 _atom_site_type_symbol
 _atom_site_label
 _atom_site_symmetry_multiplicity
 _atom_site_fract_x
 _atom_site_fract_y
 _atom_site_fract_z
 _atom_site_occupancy
  Li  Li0  1  0.95898700  0.75000100  0.54100800  1
  Li  Li1  1  0.45899400  0.75000600  0.04101300  1
  Li  Li2  1  0.79101700  0.24999800  0.70898600  1
  Li  Li3  1  0.29100600  0.24999800  0.20898200  1
  Li  Li4  1  0.20898300  0.75000200  0.29101300  1
  Li  Li5  1  0.70899500  0.75000200  0.79101800  1
  Li  Li6  1  0.04101300  0.24999800  0.45899200  1
  Li  Li7  1  0.54100600  0.24999400  0.95898700  1
  Ti  Ti0  1  0.49189900  0.00000300  0.83065300  1
  Ti  Ti1  1  0.99189300  0.99999600  0.33065100  1
  Ti  Ti2  1  0.99190400  0.50000100  0.33064100  1
  Ti  Ti3  1  0.49190900  0.50000300  0.83063400  1
  Ti  Ti4  1  0.00809600  0.49999900  0.66935900  1
  Ti  Ti5  1  0.50809100  0.49999700  0.16936500  1
  Ti  Ti6  1  0.00810700  0.00000400  0.66935000  1
  Ti  Ti7  1  0.50809800  0.99999500  0.16934800  1
  Co  Co0  1  0.50000000  0.00000000  0.50000000  1
  Co  Co1  1  0.99999900  0.50000000  0.00000000  1
  Co  Co2  1  0.00000000  0.00000000  0.00000000  1
  Co  Co3  1  0.50000000  0.50000100  0.50000000  1
  O  O0  1  0.37569200  0.59703000  0.62430600  1
  O  O1  1  0.87568500  0.59703500  0.12431000  1
  O  O2  1  0.22131700  0.09702700  0.77866900  1
  O  O3  1  0.72133000  0.09702800  0.27866200  1
  O  O4  1  0.77868400  0.90297300  0.22133100  1
  O  O5  1  0.27867100  0.90297200  0.72133900  1
  O  O6  1  0.62430800  0.40297100  0.37569300  1
  O  O7  1  0.12431700  0.40296500  0.87568900  1
  O  O8  1  0.31349700  0.89240300  0.05580600  1
  O  O9  1  0.81347600  0.89241700  0.55579900  1
  O  O10  1  0.63286100  0.39241600  0.73641600  1
  O  O11  1  0.13288000  0.39240800  0.23643500  1
  O  O12  1  0.92107600  0.60759700  0.44821200  1
  O  O13  1  0.42104400  0.60758400  0.94822400  1
  O  O14  1  0.74044100  0.10758200  0.62884700  1
  O  O15  1  0.24042600  0.10757700  0.12883400  1
  O  O16  1  0.68650400  0.10759600  0.94419400  1
  O  O17  1  0.18652300  0.10758300  0.44420000  1
  O  O18  1  0.25955900  0.89241800  0.37115300  1
  O  O19  1  0.75957500  0.89242400  0.87116500  1
  O  O20  1  0.07892000  0.39240200  0.55178900  1
  O  O21  1  0.57895800  0.39241700  0.05177600  1
  O  O22  1  0.36713900  0.60758400  0.26358400  1
  O  O23  1  0.86712100  0.60759200  0.76356600  1
loop_
_geom_bond_atom_site_label_1
_geom_bond_atom_site_label_2
_geom_bond_distance
_geom_bond_site_symmetry_2
Li0 O23 2.007542 1_555
Li0 O9 2.007605 1_555
Li0 O12 2.088437 1_555
Li0 O18 2.088560 1_655
Li1 O8 2.007366 1_555
Li1 O22 2.007677 1_555
Li1 O19 2.088565 1_554
Li1 O13 2.088572 1_554
Li2 O20 2.007432 1_655
Li2 O14 2.007531 1_555
Li2 O16 2.088504 1_555
Li2 O10 2.088558 1_555
Li3 O15 2.007639 1_555
Li3 O21 2.007672 1_555
Li3 O11 2.088469 1_555
Li3 O17 2.088609 1_555
Li4 O12 2.007455 1_455
Li4 O18 2.007537 1_555
Li4 O8 2.088494 1_555
Li4 O22 2.088554 1_555
Li5 O19 2.007643 1_555
Li5 O13 2.007665 1_555
Li5 O23 2.088465 1_555
Li5 O9 2.088615 1_555
Li6 O11 2.007541 1_555
Li6 O17 2.007594 1_555
Li6 O20 2.088445 1_555
Li6 O14 2.088556 1_455
Li7 O16 2.007379 1_555
Li7 O10 2.007677 1_555
Li7 O15 2.088554 1_556
Li7 O21 2.088582 1_556
Co0 O3 2.038491 1_555
Co0 O5 2.038495 1_545
Co0 O9 2.215329 1_545
Co0 O17 2.215334 1_555
Co0 O18 2.215389 1_545
Co0 O14 2.215389 1_555
Co1 O1 2.038583 1_555
Co1 O7 2.038598 1_654
Co1 O21 2.215218 1_555
Co1 O13 2.215240 1_654
Co1 O23 2.215532 1_554
Co1 O11 2.215546 1_655
Co2 O4 2.038412 1_445
Co2 O2 2.038414 1_554
Co2 O19 2.215228 1_444
Co2 O15 2.215231 1_555
Co2 O16 2.215517 1_454
Co2 O8 2.215529 1_545
Co3 O0 2.038485 1_555
Co3 O6 2.038501 1_555
Co3 O22 2.215345 1_555
Co3 O10 2.215351 1_555
Co3 O12 2.215414 1_555
Co3 O20 2.215441 1_555
O0 Ti4 1.944116 1_555
O0 Ti3 1.944180 1_555
O1 Ti5 1.944130 1_555
O1 Ti2 1.944228 1_555
O2 Ti6 1.944157 1_555
O2 Ti0 1.944169 1_555
O3 Ti1 1.944146 1_545
O3 Ti7 1.944251 1_545
O4 Ti1 1.944161 1_555
O4 Ti7 1.944172 1_555
O5 Ti6 1.944151 1_565
O5 Ti0 1.944227 1_565
O6 Ti2 1.944113 1_555
O6 Ti5 1.944177 1_555
O7 Ti3 1.944121 1_555
O7 Ti4 1.944226 1_555
O8 Ti0 1.994082 1_564
O8 Ti7 2.014668 1_555
O9 Ti1 1.994037 1_555
O9 Ti6 2.014746 1_665
O10 Ti3 1.994237 1_555
O10 Ti4 2.014732 1_655
O11 Ti2 1.994289 1_455
O11 Ti5 2.014655 1_555
O12 Ti2 1.994199 1_555
O12 Ti4 2.014828 1_655
O13 Ti3 1.994237 1_555
O13 Ti5 2.014803 1_556
O14 Ti0 1.994235 1_555
O14 Ti6 2.014790 1_655
O15 Ti1 1.994279 1_445
O15 Ti7 2.014844 1_545
O16 Ti7 1.994097 1_546
O16 Ti0 2.014677 1_555
O17 Ti6 1.994049 1_555
O17 Ti1 2.014731 1_445
O18 Ti7 1.994218 1_555
O18 Ti1 2.014790 1_455
O19 Ti6 1.994263 1_665
O19 Ti0 2.014838 1_565
O20 Ti4 1.994196 1_555
O20 Ti2 2.014830 1_455
O21 Ti5 1.994223 1_555
O21 Ti3 2.014810 1_554
O22 Ti5 1.994243 1_555
O22 Ti2 2.014732 1_455
O23 Ti4 1.994292 1_655
O23 Ti3 2.014658 1_555
