# generated using pymatgen
data_Fe2CuAs2(HO5)2
_symmetry_space_group_name_H-M   'P 1'
_cell_length_a   7.85708600
_cell_length_b   13.64525000
_cell_length_c   14.51344300
_cell_angle_alpha   90.00000000
_cell_angle_beta   90.00000000
_cell_angle_gamma   90.00000000
_symmetry_Int_Tables_number   1
_chemical_formula_structural   Fe2CuAs2(HO5)2
_chemical_formula_sum   'Fe16 Cu8 As16 H16 O80'
_cell_volume   1556.01383936
_cell_formula_units_Z   8
loop_
 _symmetry_equiv_pos_site_id
 _symmetry_equiv_pos_as_xyz
  1  'x, y, z'
loop_
 _atom_site_type_symbol
 _atom_site_label
 _atom_site_symmetry_multiplicity
 _atom_site_fract_x
 _atom_site_fract_y
 _atom_site_fract_z
 _atom_site_occupancy
  Fe  Fe0  1  0.04207600  0.50525500  0.23827600  1
  Fe  Fe1  1  0.04207600  0.99474500  0.73827600  1
  Fe  Fe2  1  0.21774500  0.25672900  0.49577500  1
  Fe  Fe3  1  0.21774500  0.24327100  0.99577500  1
  Fe  Fe4  1  0.28225500  0.75672900  0.49577500  1
  Fe  Fe5  1  0.28225500  0.74327100  0.99577500  1
  Fe  Fe6  1  0.45792400  0.00525500  0.23827600  1
  Fe  Fe7  1  0.45792400  0.49474500  0.73827600  1
  Fe  Fe8  1  0.54207600  0.50525500  0.26172400  1
  Fe  Fe9  1  0.54207600  0.99474500  0.76172400  1
  Fe  Fe10  1  0.71774500  0.25672900  0.00422500  1
  Fe  Fe11  1  0.71774500  0.24327100  0.50422500  1
  Fe  Fe12  1  0.78225500  0.75672900  0.00422500  1
  Fe  Fe13  1  0.78225500  0.74327100  0.50422500  1
  Fe  Fe14  1  0.95792400  0.00525500  0.26172400  1
  Fe  Fe15  1  0.95792400  0.49474500  0.76172400  1
  Cu  Cu0  1  0.13887400  0.87787300  0.13170100  1
  Cu  Cu1  1  0.13887400  0.62212700  0.63170100  1
  Cu  Cu2  1  0.36112600  0.12212700  0.63170100  1
  Cu  Cu3  1  0.36112600  0.37787300  0.13170100  1
  Cu  Cu4  1  0.63887400  0.87787300  0.36829900  1
  Cu  Cu5  1  0.63887400  0.62212700  0.86829900  1
  Cu  Cu6  1  0.86112600  0.37787300  0.36829900  1
  Cu  Cu7  1  0.86112600  0.12212700  0.86829900  1
  As  As0  1  0.01854000  0.74723000  0.30524600  1
  As  As1  1  0.01854000  0.75277000  0.80524600  1
  As  As2  1  0.23736700  0.00898200  0.44163600  1
  As  As3  1  0.23736700  0.49101800  0.94163600  1
  As  As4  1  0.26263300  0.50898200  0.44163600  1
  As  As5  1  0.26263300  0.99101800  0.94163600  1
  As  As6  1  0.48146000  0.24723000  0.30524600  1
  As  As7  1  0.48146000  0.25277000  0.80524600  1
  As  As8  1  0.51854000  0.75277000  0.69475400  1
  As  As9  1  0.51854000  0.74723000  0.19475400  1
  As  As10  1  0.73736700  0.00898200  0.05836400  1
  As  As11  1  0.73736700  0.49101800  0.55836400  1
  As  As12  1  0.76263300  0.50898200  0.05836400  1
  As  As13  1  0.76263300  0.99101800  0.55836400  1
  As  As14  1  0.98146000  0.24723000  0.19475400  1
  As  As15  1  0.98146000  0.25277000  0.69475400  1
  H  H0  1  0.02206100  0.71248600  0.11075100  1
  H  H1  1  0.02206100  0.78751400  0.61075100  1
  H  H2  1  0.23017400  0.06408800  0.08822100  1
  H  H3  1  0.23017400  0.43591200  0.58822100  1
  H  H4  1  0.26982600  0.56408800  0.08822100  1
  H  H5  1  0.26982600  0.93591200  0.58822100  1
  H  H6  1  0.47793900  0.21248600  0.11075100  1
  H  H7  1  0.47793900  0.28751400  0.61075100  1
  H  H8  1  0.52206100  0.71248600  0.38924900  1
  H  H9  1  0.52206100  0.78751400  0.88924900  1
  H  H10  1  0.73017400  0.06408800  0.41177900  1
  H  H11  1  0.73017400  0.43591200  0.91177900  1
  H  H12  1  0.76982600  0.56408800  0.41177900  1
  H  H13  1  0.76982600  0.93591200  0.91177900  1
  H  H14  1  0.97793900  0.21248600  0.38924900  1
  H  H15  1  0.97793900  0.28751400  0.88924900  1
  O  O0  1  0.99944200  0.85347500  0.23998600  1
  O  O1  1  0.99944200  0.64652500  0.73998600  1
  O  O2  1  0.02510700  0.65293600  0.22738800  1
  O  O3  1  0.02510700  0.84706400  0.72738800  1
  O  O4  1  0.02663200  0.75834100  0.05729200  1
  O  O5  1  0.02663200  0.74165900  0.55729200  1
  O  O6  1  0.04848800  0.50650900  0.88931000  1
  O  O7  1  0.04848800  0.99349100  0.38931000  1
  O  O8  1  0.08404800  0.50749200  0.37631700  1
  O  O9  1  0.08404800  0.99250800  0.87631700  1
  O  O10  1  0.16092700  0.24295000  0.12791200  1
  O  O11  1  0.16092700  0.25705000  0.62791200  1
  O  O12  1  0.19820700  0.75427700  0.37190100  1
  O  O13  1  0.19820700  0.74572300  0.87190100  1
  O  O14  1  0.22421300  0.99426700  0.19329500  1
  O  O15  1  0.22421300  0.50573300  0.69329500  1
  O  O16  1  0.23551900  0.09024700  0.02159300  1
  O  O17  1  0.23551900  0.40975300  0.52159300  1
  O  O18  1  0.23461700  0.39102500  0.01444300  1
  O  O19  1  0.23461700  0.10897500  0.51444300  1
  O  O20  1  0.26538300  0.89102500  0.01444300  1
  O  O21  1  0.26538300  0.60897500  0.51444300  1
  O  O22  1  0.26448100  0.59024700  0.02159300  1
  O  O23  1  0.26448100  0.90975300  0.52159300  1
  O  O24  1  0.27578700  0.49426700  0.19329500  1
  O  O25  1  0.27578700  0.00573300  0.69329500  1
  O  O26  1  0.30179300  0.25427700  0.37190100  1
  O  O27  1  0.30179300  0.24572300  0.87190100  1
  O  O28  1  0.33907300  0.74295000  0.12791200  1
  O  O29  1  0.33907300  0.75705000  0.62791200  1
  O  O30  1  0.41595200  0.00749200  0.37631700  1
  O  O31  1  0.41595200  0.49250800  0.87631700  1
  O  O32  1  0.45151200  0.00650900  0.88931000  1
  O  O33  1  0.45151200  0.49349100  0.38931000  1
  O  O34  1  0.47336800  0.25834100  0.05729200  1
  O  O35  1  0.47336800  0.24165900  0.55729200  1
  O  O36  1  0.47489300  0.15293600  0.22738800  1
  O  O37  1  0.47489300  0.34706400  0.72738800  1
  O  O38  1  0.50055800  0.14652500  0.73998600  1
  O  O39  1  0.50055800  0.35347500  0.23998600  1
  O  O40  1  0.49944200  0.64652500  0.76001400  1
  O  O41  1  0.49944200  0.85347500  0.26001400  1
  O  O42  1  0.52510700  0.65293600  0.27261200  1
  O  O43  1  0.52510700  0.84706400  0.77261200  1
  O  O44  1  0.52663200  0.75834100  0.44270800  1
  O  O45  1  0.52663200  0.74165900  0.94270800  1
  O  O46  1  0.54848800  0.50650900  0.61069000  1
  O  O47  1  0.54848800  0.99349100  0.11069000  1
  O  O48  1  0.58404800  0.50749200  0.12368300  1
  O  O49  1  0.58404800  0.99250800  0.62368300  1
  O  O50  1  0.66092700  0.24295000  0.37208800  1
  O  O51  1  0.66092700  0.25705000  0.87208800  1
  O  O52  1  0.69820600  0.75427700  0.12809900  1
  O  O53  1  0.69820600  0.74572300  0.62809900  1
  O  O54  1  0.72421300  0.99426700  0.30670500  1
  O  O55  1  0.72421300  0.50573300  0.80670500  1
  O  O56  1  0.73551900  0.09024700  0.47840700  1
  O  O57  1  0.73551900  0.40975300  0.97840700  1
  O  O58  1  0.73461700  0.39102500  0.48555700  1
  O  O59  1  0.73461700  0.10897500  0.98555700  1
  O  O60  1  0.76538300  0.89102500  0.48555700  1
  O  O61  1  0.76538300  0.60897500  0.98555700  1
  O  O62  1  0.76448100  0.59024700  0.47840700  1
  O  O63  1  0.76448100  0.90975300  0.97840700  1
  O  O64  1  0.77578700  0.49426700  0.30670500  1
  O  O65  1  0.77578700  0.00573300  0.80670500  1
  O  O66  1  0.80179400  0.25427700  0.12809900  1
  O  O67  1  0.80179400  0.24572300  0.62809900  1
  O  O68  1  0.83907300  0.74295000  0.37208800  1
  O  O69  1  0.83907300  0.75705000  0.87208800  1
  O  O70  1  0.91595200  0.00749200  0.12368300  1
  O  O71  1  0.91595200  0.49250800  0.62368300  1
  O  O72  1  0.95151200  0.49349100  0.11069000  1
  O  O73  1  0.95151200  0.00650900  0.61069000  1
  O  O74  1  0.97336800  0.25834100  0.44270800  1
  O  O75  1  0.97336800  0.24165900  0.94270800  1
  O  O76  1  0.97489300  0.15293600  0.27261200  1
  O  O77  1  0.97489300  0.34706400  0.77261200  1
  O  O78  1  0.00055800  0.35347500  0.26001400  1
  O  O79  1  0.00055800  0.14652500  0.76001400  1
loop_
_geom_bond_atom_site_label_1
_geom_bond_atom_site_label_2
_geom_bond_distance
_geom_bond_site_symmetry_2
Fe0 O24 1.954640 1_555
Fe0 O72 1.990210 1_455
Fe0 O2 2.025723 1_555
Fe0 O8 2.030640 1_555
Fe0 O78 2.120213 1_555
Fe0 O64 2.320849 1_455
Fe1 O25 1.954640 1_565
Fe1 O73 1.990210 1_465
Fe1 O3 2.025723 1_555
Fe1 O9 2.030640 1_555
Fe1 O79 2.120213 1_565
Fe1 O65 2.320849 1_465
Fe2 O26 1.915577 1_555
Fe2 O11 1.969042 1_555
Fe2 O19 2.038578 1_555
Fe2 O74 2.068917 1_455
Fe2 O17 2.125997 1_555
Fe2 O35 2.207555 1_555
Fe3 O27 1.915577 1_555
Fe3 O10 1.969042 1_556
Fe3 O18 2.038578 1_556
Fe3 O75 2.068917 1_455
Fe3 O16 2.125997 1_556
Fe3 O34 2.207555 1_556
Fe4 O12 1.915577 1_555
Fe4 O29 1.969042 1_555
Fe4 O21 2.038578 1_555
Fe4 O44 2.068917 1_555
Fe4 O23 2.125997 1_555
Fe4 O5 2.207555 1_555
Fe5 O13 1.915577 1_555
Fe5 O28 1.969042 1_556
Fe5 O20 2.038578 1_556
Fe5 O45 2.068917 1_555
Fe5 O22 2.125997 1_556
Fe5 O4 2.207555 1_556
Fe6 O14 1.954640 1_545
Fe6 O47 1.990210 1_545
Fe6 O36 2.025723 1_555
Fe6 O30 2.030640 1_555
Fe6 O41 2.120213 1_545
Fe6 O54 2.320849 1_545
Fe7 O15 1.954640 1_555
Fe7 O46 1.990210 1_555
Fe7 O37 2.025723 1_555
Fe7 O31 2.030640 1_555
Fe7 O40 2.120213 1_555
Fe7 O55 2.320849 1_555
Fe8 O64 1.954640 1_555
Fe8 O33 1.990210 1_555
Fe8 O42 2.025723 1_555
Fe8 O48 2.030640 1_555
Fe8 O39 2.120213 1_555
Fe8 O24 2.320849 1_555
Fe9 O65 1.954640 1_565
Fe9 O32 1.990210 1_565
Fe9 O43 2.025723 1_555
Fe9 O49 2.030640 1_555
Fe9 O38 2.120213 1_565
Fe9 O25 2.320849 1_565
Fe10 O66 1.915579 1_555
Fe10 O51 1.969042 1_554
Fe10 O59 2.038578 1_554
Fe10 O34 2.068917 1_555
Fe10 O57 2.125997 1_554
Fe10 O75 2.207555 1_554
Fe11 O67 1.915579 1_555
Fe11 O50 1.969042 1_555
Fe11 O58 2.038578 1_555
Fe11 O35 2.068917 1_555
Fe11 O56 2.125997 1_555
Fe11 O74 2.207555 1_555
Fe12 O52 1.915579 1_555
Fe12 O69 1.969042 1_554
Fe12 O61 2.038578 1_554
Fe12 O4 2.068917 1_655
Fe12 O63 2.125997 1_554
Fe12 O45 2.207555 1_554
Fe13 O53 1.915579 1_555
Fe13 O68 1.969042 1_555
Fe13 O60 2.038578 1_555
Fe13 O5 2.068917 1_655
Fe13 O62 2.125997 1_555
Fe13 O44 2.207555 1_555
Fe14 O54 1.954640 1_545
Fe14 O7 1.990210 1_645
Fe14 O76 2.025723 1_555
Fe14 O70 2.030640 1_555
Fe14 O0 2.120213 1_545
Fe14 O14 2.320849 1_645
Fe15 O55 1.954640 1_555
Fe15 O6 1.990210 1_655
Fe15 O77 2.025723 1_555
Fe15 O71 2.030640 1_555
Fe15 O1 2.120213 1_555
Fe15 O15 2.320849 1_655
Cu0 O14 1.941953 1_555
Cu0 O0 1.944456 1_455
Cu0 O20 1.978992 1_555
Cu0 O4 2.145762 1_555
Cu0 O28 2.422145 1_555
Cu0 O70 2.491906 1_465
Cu1 O15 1.941953 1_555
Cu1 O1 1.944456 1_455
Cu1 O21 1.978992 1_555
Cu1 O5 2.145762 1_555
Cu1 O29 2.422145 1_555
Cu1 O71 2.491906 1_455
Cu2 O25 1.941953 1_555
Cu2 O38 1.944456 1_555
Cu2 O19 1.978992 1_555
Cu2 O35 2.145762 1_555
Cu2 O11 2.422145 1_555
Cu2 O49 2.491906 1_545
Cu3 O24 1.941953 1_555
Cu3 O39 1.944456 1_555
Cu3 O18 1.978992 1_555
Cu3 O34 2.145762 1_555
Cu3 O10 2.422145 1_555
Cu3 O48 2.491906 1_555
Cu4 O54 1.941953 1_555
Cu4 O41 1.944456 1_555
Cu4 O60 1.978992 1_555
Cu4 O44 2.145762 1_555
Cu4 O68 2.422145 1_555
Cu4 O30 2.491906 1_565
Cu5 O55 1.941953 1_555
Cu5 O40 1.944456 1_555
Cu5 O61 1.978992 1_555
Cu5 O45 2.145762 1_555
Cu5 O69 2.422145 1_555
Cu5 O31 2.491906 1_555
Cu6 O64 1.941953 1_555
Cu6 O78 1.944456 1_655
Cu6 O58 1.978992 1_555
Cu6 O74 2.145762 1_555
Cu6 O50 2.422145 1_555
Cu6 O8 2.491906 1_655
Cu7 O65 1.941953 1_555
Cu7 O79 1.944456 1_655
Cu7 O59 1.978992 1_555
Cu7 O75 2.145762 1_555
Cu7 O51 2.422145 1_555
Cu7 O9 2.491906 1_645
As0 O68 1.712561 1_455
As0 O2 1.713196 1_555
As0 O12 1.714024 1_555
As0 O0 1.738203 1_455
As1 O69 1.712561 1_455
As1 O3 1.713196 1_555
As1 O13 1.714024 1_555
As1 O1 1.738203 1_455
As2 O7 1.680412 1_545
As2 O30 1.693510 1_555
As2 O19 1.725893 1_555
As2 O23 1.795929 1_545
As3 O6 1.680412 1_555
As3 O31 1.693510 1_555
As3 O18 1.725893 1_556
As3 O22 1.795929 1_556
As4 O33 1.680412 1_555
As4 O8 1.693510 1_555
As4 O21 1.725893 1_555
As4 O17 1.795929 1_555
As5 O32 1.680412 1_565
As5 O9 1.693510 1_555
As5 O20 1.725893 1_556
As5 O16 1.795929 1_566
As6 O50 1.712561 1_555
As6 O36 1.713196 1_555
As6 O26 1.714024 1_555
As6 O39 1.738203 1_555
As7 O51 1.712561 1_555
As7 O37 1.713196 1_555
As7 O27 1.714024 1_555
As7 O38 1.738203 1_555
As8 O29 1.712561 1_555
As8 O43 1.713196 1_555
As8 O53 1.714017 1_555
As8 O40 1.738203 1_555
As9 O28 1.712561 1_555
As9 O42 1.713196 1_555
As9 O52 1.714017 1_555
As9 O41 1.738203 1_555
As10 O47 1.680412 1_545
As10 O70 1.693510 1_555
As10 O59 1.725893 1_554
As10 O63 1.795929 1_544
As11 O46 1.680412 1_555
As11 O71 1.693510 1_555
As11 O58 1.725893 1_555
As11 O62 1.795929 1_555
As12 O72 1.680412 1_555
As12 O48 1.693510 1_555
As12 O61 1.725893 1_554
As12 O57 1.795929 1_554
As13 O73 1.680412 1_565
As13 O49 1.693510 1_555
As13 O60 1.725893 1_555
As13 O56 1.795929 1_565
As14 O10 1.712561 1_655
As14 O76 1.713196 1_555
As14 O66 1.714017 1_555
As14 O78 1.738203 1_655
As15 O11 1.712561 1_655
As15 O77 1.713196 1_555
As15 O67 1.714017 1_555
As15 O79 1.738203 1_655
H0 O4 0.997384 1_555
H1 O5 0.997384 1_555
H2 O16 1.031633 1_555
H3 O17 1.031633 1_555
H4 O22 1.031633 1_555
H5 O23 1.031633 1_555
H6 O34 0.997384 1_555
H7 O35 0.997384 1_555
H8 O44 0.997384 1_555
H9 O45 0.997384 1_555
H10 O56 1.031633 1_555
H11 O57 1.031633 1_555
H12 O62 1.031633 1_555
H13 O63 1.031633 1_555
H14 O74 0.997384 1_555
H15 O75 0.997384 1_555
