# generated using pymatgen
data_Na5Ni2P2(CO7)2
_symmetry_space_group_name_H-M   'P 1'
_cell_length_a   8.43855900
_cell_length_b   8.44879718
_cell_length_c   10.11685439
_cell_angle_alpha   107.56286117
_cell_angle_beta   107.47965206
_cell_angle_gamma   103.89344008
_symmetry_Int_Tables_number   1
_chemical_formula_structural   Na5Ni2P2(CO7)2
_chemical_formula_sum   'Na10 Ni4 P4 C4 O28'
_cell_volume   610.98777182
_cell_formula_units_Z   2
loop_
 _symmetry_equiv_pos_site_id
 _symmetry_equiv_pos_as_xyz
  1  'x, y, z'
loop_
 _atom_site_type_symbol
 _atom_site_label
 _atom_site_symmetry_multiplicity
 _atom_site_fract_x
 _atom_site_fract_y
 _atom_site_fract_z
 _atom_site_occupancy
  Na  Na0  1  0.77629800  0.26313700  0.27104300  1
  Na  Na1  1  0.01098200  0.01819200  0.26288600  1
  Na  Na2  1  0.22370200  0.73686300  0.72895700  1
  Na  Na3  1  0.98901800  0.98180800  0.73711400  1
  Na  Na4  1  0.44202200  0.19387400  0.91637400  1
  Na  Na5  1  0.55797800  0.80612600  0.08362600  1
  Na  Na6  1  0.49901400  0.51339000  0.26918500  1
  Na  Na7  1  0.25358100  0.74618500  0.25963000  1
  Na  Na8  1  0.50098600  0.48661000  0.73081500  1
  Na  Na9  1  0.74641900  0.25381500  0.74037000  1
  Ni  Ni0  1  0.93586900  0.68697600  0.34600400  1
  Ni  Ni1  1  0.06413100  0.31302400  0.65399600  1
  Ni  Ni2  1  0.43912200  0.18768200  0.34641200  1
  Ni  Ni3  1  0.56087800  0.81231800  0.65358800  1
  P  P0  1  0.80583100  0.55548900  0.58139800  1
  P  P1  1  0.30606900  0.05642500  0.58089600  1
  P  P2  1  0.19416900  0.44451100  0.41860200  1
  P  P3  1  0.69393100  0.94357500  0.41910400  1
  C  C0  1  0.76183700  0.51197000  0.06426400  1
  C  C1  1  0.23816300  0.48803000  0.93573600  1
  C  C2  1  0.26482500  0.01426900  0.06442800  1
  C  C3  1  0.73517500  0.98573100  0.93557200  1
  O  O0  1  0.81635500  0.06912400  0.07830300  1
  O  O1  1  0.77139600  0.83544000  0.31854500  1
  O  O2  1  0.15964700  0.91112200  0.43034400  1
  O  O3  1  0.06485700  0.31293200  0.45501400  1
  O  O4  1  0.93514300  0.68706800  0.54498600  1
  O  O5  1  0.84035300  0.08887800  0.56965600  1
  O  O6  1  0.91360700  0.47469100  0.67631600  1
  O  O7  1  0.22860400  0.16456000  0.68145500  1
  O  O8  1  0.41171200  0.97794700  0.68147800  1
  O  O9  1  0.78342100  0.03433000  0.83931000  1
  O  O10  1  0.28983800  0.53910100  0.84064100  1
  O  O11  1  0.09729300  0.34552100  0.87538900  1
  O  O12  1  0.59086600  0.84362700  0.87602100  1
  O  O13  1  0.18364500  0.93087600  0.92169700  1
  O  O14  1  0.32705500  0.57418200  0.07830400  1
  O  O15  1  0.90270700  0.65447900  0.12461100  1
  O  O16  1  0.40913400  0.15637300  0.12397900  1
  O  O17  1  0.21657900  0.96567000  0.16069000  1
  O  O18  1  0.71016200  0.46089900  0.15935900  1
  O  O19  1  0.08639300  0.52530900  0.32368400  1
  O  O20  1  0.27629300  0.33902200  0.32367900  1
  O  O21  1  0.58828800  0.02205300  0.31852200  1
  O  O22  1  0.66065200  0.40924000  0.42887100  1
  O  O23  1  0.56214500  0.81394500  0.45340800  1
  O  O24  1  0.43785500  0.18605500  0.54659200  1
  O  O25  1  0.33934800  0.59076000  0.57112900  1
  O  O26  1  0.72370700  0.66097800  0.67632100  1
  O  O27  1  0.67294500  0.42581800  0.92169600  1
loop_
_geom_bond_atom_site_label_1
_geom_bond_atom_site_label_2
_geom_bond_distance
_geom_bond_site_symmetry_2
Na0 O0 2.310074 1_555
Na0 O22 2.313155 1_555
Na0 O18 2.363939 1_555
Na0 O3 2.425556 1_655
Na0 O21 2.528440 1_555
Na0 O19 2.775751 1_655
Na0 O16 2.775899 1_555
Na1 O0 2.313365 1_455
Na1 O17 2.333731 1_545
Na1 O2 2.335681 1_545
Na1 O3 2.488013 1_555
Na1 O1 2.549139 1_445
Na1 O15 2.743028 1_445
Na1 O20 2.826747 1_555
Na2 O13 2.310074 1_555
Na2 O25 2.313155 1_555
Na2 O10 2.363939 1_555
Na2 O4 2.425556 1_455
Na2 O8 2.528440 1_555
Na2 O6 2.775751 1_455
Na2 O12 2.775899 1_555
Na3 O13 2.313365 1_655
Na3 O9 2.333731 1_565
Na3 O5 2.335681 1_565
Na3 O4 2.488013 1_555
Na3 O7 2.549139 1_665
Na3 O11 2.743028 1_665
Na3 O26 2.826747 1_555
Na4 O16 2.301793 1_556
Na4 O27 2.383237 1_555
Na4 O7 2.410904 1_555
Na4 O8 2.415632 1_545
Na4 O18 2.666953 1_556
Na4 O13 2.740482 1_545
Na5 O12 2.301793 1_554
Na5 O14 2.383237 1_555
Na5 O1 2.410904 1_555
Na5 O21 2.415632 1_565
Na5 O10 2.666953 1_554
Na5 O0 2.740482 1_565
Na6 O22 2.314139 1_555
Na6 O14 2.317712 1_555
Na6 O20 2.406140 1_555
Na6 O18 2.424326 1_555
Na6 O23 2.470480 1_555
Na6 O16 2.718372 1_555
Na6 O1 2.902249 1_555
Na7 O14 2.317019 1_555
Na7 O2 2.335264 1_555
Na7 O17 2.397639 1_555
Na7 O19 2.430538 1_555
Na7 O23 2.547793 1_555
Na7 O15 2.657608 1_455
Na8 O25 2.314139 1_555
Na8 O27 2.317712 1_555
Na8 O26 2.406140 1_555
Na8 O10 2.424326 1_555
Na8 O24 2.470480 1_555
Na8 O12 2.718372 1_555
Na8 O7 2.902249 1_555
Na9 O27 2.317019 1_555
Na9 O5 2.335264 1_555
Na9 O9 2.397639 1_555
Na9 O6 2.430538 1_555
Na9 O24 2.547793 1_555
Na9 O11 2.657608 1_655
Ni0 O4 2.014687 1_555
Ni0 O2 2.054219 1_655
Ni0 O19 2.085528 1_655
Ni0 O15 2.094240 1_555
Ni0 O1 2.095609 1_555
Ni0 O18 2.181124 1_555
Ni1 O3 2.014687 1_555
Ni1 O5 2.054219 1_455
Ni1 O6 2.085528 1_455
Ni1 O11 2.094240 1_555
Ni1 O7 2.095609 1_555
Ni1 O10 2.181124 1_555
Ni2 O24 2.032595 1_555
Ni2 O22 2.033424 1_555
Ni2 O20 2.099326 1_555
Ni2 O21 2.107904 1_555
Ni2 O16 2.112931 1_555
Ni2 O17 2.153393 1_545
Ni3 O23 2.032595 1_555
Ni3 O25 2.033424 1_555
Ni3 O26 2.099326 1_555
Ni3 O8 2.107904 1_555
Ni3 O12 2.112931 1_555
Ni3 O9 2.153393 1_565
C0 O27 1.275573 1_554
C0 O15 1.291730 1_555
C0 O18 1.309230 1_555
C1 O14 1.275573 1_556
C1 O11 1.291730 1_555
C1 O10 1.309230 1_555
C2 O13 1.269163 1_544
C2 O17 1.296918 1_545
C2 O16 1.306894 1_555
C3 O0 1.269163 1_566
C3 O9 1.296918 1_565
C3 O12 1.306894 1_555
O1 P3 1.556394 1_555
O2 P1 1.538247 1_565
O3 P2 1.571094 1_555
O4 P0 1.571094 1_555
O5 P3 1.538247 1_545
O6 P0 1.544147 1_555
O7 P1 1.556394 1_555
O8 P1 1.554318 1_565
O19 P2 1.544147 1_555
O20 P2 1.541652 1_555
O21 P3 1.554318 1_545
O22 P0 1.547732 1_555
O23 P3 1.559808 1_555
O24 P1 1.559808 1_555
O25 P2 1.547732 1_555
O26 P0 1.541652 1_555
