# generated using pymatgen
data_LuSiRu
_symmetry_space_group_name_H-M   'P 1'
_cell_length_a   4.23815707
_cell_length_b   6.83838415
_cell_length_c   7.03464997
_cell_angle_alpha   89.99775878
_cell_angle_beta   89.99996415
_cell_angle_gamma   89.99996752
_symmetry_Int_Tables_number   1
_chemical_formula_structural   LuSiRu
_chemical_formula_sum   'Lu4 Si4 Ru4'
_cell_volume   203.87925334
_cell_formula_units_Z   4
loop_
 _symmetry_equiv_pos_site_id
 _symmetry_equiv_pos_as_xyz
  1  'x, y, z'
loop_
 _atom_site_type_symbol
 _atom_site_label
 _atom_site_symmetry_multiplicity
 _atom_site_fract_x
 _atom_site_fract_y
 _atom_site_fract_z
 _atom_site_occupancy
  Lu  Lu0  1  0.74999893  0.01034691  0.81129680  1
  Lu  Lu1  1  0.24999991  0.48966970  0.31132400  1
  Lu  Lu2  1  0.75000014  0.51034807  0.68868160  1
  Lu  Lu3  1  0.25000103  0.98966472  0.18869725  1
  Si  Si0  1  0.74999858  0.19922930  0.39280834  1
  Si  Si1  1  0.25000014  0.30078011  0.89280033  1
  Si  Si2  1  0.75000045  0.69922741  0.10720974  1
  Si  Si3  1  0.25000009  0.80077589  0.60718126  1
  Ru  Ru0  1  0.24998939  0.15508787  0.56431424  1
  Ru  Ru1  1  0.75000619  0.34475444  0.06444146  1
  Ru  Ru2  1  0.25000284  0.65522878  0.93567656  1
  Ru  Ru3  1  0.75000232  0.84488578  0.43556842  1
loop_
_geom_bond_atom_site_label_1
_geom_bond_atom_site_label_2
_geom_bond_distance
_geom_bond_site_symmetry_2
Lu0 Ru3 2.875164 1_545
Lu0 Ru1 2.898447 1_556
Lu0 Ru0 2.913514 1_655
Lu0 Ru0 2.913573 1_555
Lu0 Si3 2.933641 1_545
Lu0 Si3 2.933646 1_645
Lu0 Si1 2.960380 1_555
Lu0 Si1 2.960390 1_655
Lu0 Si2 2.976472 1_546
Lu1 Ru2 2.874823 1_554
Lu1 Ru0 2.898611 1_555
Lu1 Ru1 2.913557 1_455
Lu1 Ru1 2.913593 1_555
Lu1 Si2 2.933538 1_455
Lu1 Si2 2.933541 1_555
Lu1 Si0 2.960357 1_555
Lu1 Si0 2.960367 1_455
Lu1 Si3 2.976249 1_555
Lu2 Ru1 2.875643 1_556
Lu2 Ru3 2.898904 1_555
Lu2 Ru2 2.913957 1_555
Lu2 Ru2 2.913976 1_655
Lu2 Si1 2.933589 1_555
Lu2 Si1 2.933589 1_655
Lu2 Si3 2.960326 1_555
Lu2 Si3 2.960326 1_655
Lu2 Si0 2.976389 1_555
Lu3 Ru0 2.874341 1_565
Lu3 Ru2 2.898065 1_554
Lu3 Ru3 2.913160 1_455
Lu3 Ru3 2.913169 1_555
Lu3 Si0 2.933600 1_565
Lu3 Si0 2.933613 1_465
Lu3 Si2 2.960379 1_555
Lu3 Si2 2.960385 1_455
Lu3 Si1 2.976373 1_564
Ru0 Si3 2.441603 1_545
Ru0 Si0 2.457035 1_455
Ru0 Si0 2.457102 1_555
Ru0 Si1 2.516450 1_555
Ru1 Si2 2.442633 1_555
Ru1 Si1 2.457384 1_654
Ru1 Si1 2.457430 1_554
Ru1 Si0 2.515156 1_555
Ru2 Si1 2.442562 1_555
Ru2 Si2 2.457047 1_556
Ru2 Si2 2.457063 1_456
Ru2 Si3 2.516045 1_555
Ru3 Si0 2.441724 1_565
Ru3 Si3 2.457404 1_655
Ru3 Si3 2.457419 1_555
Ru3 Si2 2.515535 1_555
