# generated using pymatgen
data_Li5Fe7O3F13
_symmetry_space_group_name_H-M   'P 1'
_cell_length_a   6.17082974
_cell_length_b   6.17082974
_cell_length_c   10.80383049
_cell_angle_alpha   73.65199840
_cell_angle_beta   73.65199840
_cell_angle_gamma   58.93222809
_symmetry_Int_Tables_number   1
_chemical_formula_structural   Li5Fe7O3F13
_chemical_formula_sum   'Li5 Fe7 O3 F13'
_cell_volume   333.46506380
_cell_formula_units_Z   1
loop_
 _symmetry_equiv_pos_site_id
 _symmetry_equiv_pos_as_xyz
  1  'x, y, z'
loop_
 _atom_site_type_symbol
 _atom_site_label
 _atom_site_symmetry_multiplicity
 _atom_site_fract_x
 _atom_site_fract_y
 _atom_site_fract_z
 _atom_site_occupancy
  Li  Li0  1  0.01045000  0.01045000  0.98809100  1
  Li  Li1  1  0.11728800  0.11728800  0.63148400  1
  Li  Li2  1  0.59876500  0.59876500  0.13299100  1
  Li  Li3  1  0.52553300  0.52553300  0.50761700  1
  Li  Li4  1  0.55706200  0.55706200  0.80855000  1
  Fe  Fe0  1  0.31784800  0.31784800  0.06357000  1
  Fe  Fe1  1  0.06088200  0.06088200  0.31307300  1
  Fe  Fe2  1  0.56299300  0.06356600  0.31309600  1
  Fe  Fe3  1  0.06356600  0.56299300  0.31309600  1
  Fe  Fe4  1  0.60966800  0.02617500  0.80719900  1
  Fe  Fe5  1  0.02617500  0.60966800  0.80719900  1
  Fe  Fe6  1  0.81510100  0.81510100  0.56062900  1
  O  O0  1  0.40372400  0.40372400  0.19982600  1
  O  O1  1  0.72436900  0.72436900  0.42582600  1
  O  O2  1  0.92725200  0.92725200  0.67689200  1
  F  F0  1  0.17741200  0.17741200  0.43349000  1
  F  F1  1  0.20235900  0.69525700  0.43178600  1
  F  F2  1  0.69525700  0.20235900  0.43178600  1
  F  F3  1  0.42285900  0.93691800  0.18761100  1
  F  F4  1  0.93691800  0.42285900  0.18761100  1
  F  F5  1  0.20923200  0.20923200  0.93236800  1
  F  F6  1  0.43145800  0.43145800  0.70604900  1
  F  F7  1  0.95063300  0.95063300  0.18536900  1
  F  F8  1  0.67645500  0.18715500  0.93153800  1
  F  F9  1  0.18715500  0.67645500  0.93153800  1
  F  F10  1  0.92252300  0.44570700  0.70115700  1
  F  F11  1  0.44570700  0.92252300  0.70115700  1
  F  F12  1  0.67135700  0.67135700  0.93940400  1
loop_
_geom_bond_atom_site_label_1
_geom_bond_atom_site_label_2
_geom_bond_distance
_geom_bond_site_symmetry_2
Li1 O2 1.939752 1_445
Li2 O0 1.983718 1_555
Li3 O1 2.030991 1_555
Fe0 O0 1.974036 1_555
Fe2 O1 1.988098 1_545
Fe2 O0 1.992822 1_555
Fe3 O1 1.988098 1_455
Fe3 O0 1.992822 1_555
Fe4 O2 1.972600 1_545
Fe5 O2 1.972600 1_455
Fe6 O1 1.997407 1_555
Fe6 O2 2.002176 1_555
F0 Li1 2.024736 1_555
F0 Fe1 2.076930 1_555
F0 Fe2 2.212170 1_555
F0 Fe3 2.212170 1_555
F1 Li3 2.006529 1_555
F1 Fe1 2.113286 1_565
F1 Fe3 2.229998 1_555
F1 Fe6 2.253476 1_455
F2 Li3 2.006529 1_555
F2 Fe1 2.113286 1_655
F2 Fe2 2.229998 1_555
F2 Fe6 2.253476 1_545
F3 Li2 1.968646 1_555
F3 Fe1 2.127817 1_565
F3 Fe0 2.210152 1_565
F3 Fe2 2.269462 1_565
F4 Li2 1.968646 1_555
F4 Fe1 2.127817 1_655
F4 Fe0 2.210152 1_655
F4 Fe3 2.269462 1_655
F5 Li0 2.023194 1_555
F5 Fe0 2.107382 1_556
F5 Fe5 2.304045 1_555
F5 Fe4 2.304045 1_555
F6 Li4 2.003561 1_555
F6 Li3 2.053441 1_555
F6 Fe5 2.226577 1_555
F6 Fe4 2.226577 1_555
F7 Li0 2.017436 1_664
F7 Fe1 2.088959 1_665
F7 Fe3 2.252659 1_655
F7 Fe2 2.252659 1_565
F8 Li0 1.955623 1_655
F8 Fe4 2.108704 1_555
F8 Fe0 2.147275 1_556
F8 Li4 2.150982 1_555
F9 Li0 1.955623 1_565
F9 Fe5 2.108704 1_555
F9 Fe0 2.147275 1_556
F9 Li4 2.150982 1_555
F10 Li1 1.988426 1_655
F10 Li4 2.068984 1_555
F10 Fe5 2.116203 1_655
F10 Fe6 2.235900 1_555
F11 Li1 1.988426 1_565
F11 Li4 2.068984 1_555
F11 Fe4 2.116203 1_565
F11 Fe6 2.235900 1_555
F12 Li2 1.981892 1_556
F12 Li4 2.151632 1_555
F12 Fe4 2.159709 1_565
F12 Fe5 2.159709 1_655
