# generated using pymatgen
data_Li3Co2(SiO4)2
_symmetry_space_group_name_H-M   'P 1'
_cell_length_a   5.32835413
_cell_length_b   5.32835413
_cell_length_c   6.30728397
_cell_angle_alpha   89.05926344
_cell_angle_beta   89.05926344
_cell_angle_gamma   90.42026256
_symmetry_Int_Tables_number   1
_chemical_formula_structural   Li3Co2(SiO4)2
_chemical_formula_sum   'Li3 Co2 Si2 O8'
_cell_volume   179.01890619
_cell_formula_units_Z   1
loop_
 _symmetry_equiv_pos_site_id
 _symmetry_equiv_pos_as_xyz
  1  'x, y, z'
loop_
 _atom_site_type_symbol
 _atom_site_label
 _atom_site_symmetry_multiplicity
 _atom_site_fract_x
 _atom_site_fract_y
 _atom_site_fract_z
 _atom_site_occupancy
  Li  Li0  1  0.81763000  0.82793500  0.26418100  1
  Li  Li1  1  0.30807300  0.69192700  0.00000000  1
  Li  Li2  1  0.17206500  0.18237000  0.73581900  1
  Co  Co0  1  0.33263800  0.66736200  0.50000000  1
  Co  Co1  1  0.67450800  0.32549200  0.00000000  1
  Si  Si0  1  0.82399400  0.82335600  0.75512800  1
  Si  Si1  1  0.17664400  0.17600600  0.24487200  1
  O  O0  1  0.21350200  0.86911000  0.25103900  1
  O  O1  1  0.13089000  0.78649800  0.74896100  1
  O  O2  1  0.69042900  0.73179300  0.54073600  1
  O  O3  1  0.69896800  0.68341900  0.97381400  1
  O  O4  1  0.26820700  0.30957100  0.45926400  1
  O  O5  1  0.31658100  0.30103200  0.02618600  1
  O  O6  1  0.86780500  0.20676200  0.21703700  1
  O  O7  1  0.79323800  0.13219500  0.78296300  1
loop_
_geom_bond_atom_site_label_1
_geom_bond_atom_site_label_2
_geom_bond_distance
_geom_bond_site_symmetry_2
Li0 O2 1.921241 1_555
Li0 O6 2.050390 1_565
Li0 O3 2.103339 1_554
Li0 O0 2.119250 1_655
Li1 O1 1.918900 1_554
Li1 O0 1.918900 1_555
Li1 O5 2.087543 1_555
Li1 O3 2.087543 1_554
Li2 O4 1.921241 1_555
Li2 O7 2.050390 1_455
Li2 O5 2.103339 1_556
Li2 O1 2.119250 1_545
Co0 O2 1.956466 1_555
Co0 O4 1.956466 1_555
Co0 O1 2.002902 1_555
Co0 O0 2.002902 1_555
Co1 O6 1.833679 1_555
Co1 O7 1.833679 1_554
Co1 O3 1.914898 1_554
Co1 O5 1.914898 1_555
O0 Si1 1.648333 1_565
O1 Si0 1.648333 1_455
O2 Si0 1.619017 1_555
O3 Si0 1.682572 1_555
O4 Si1 1.619017 1_555
O5 Si1 1.682572 1_555
O6 Si1 1.666790 1_655
O7 Si0 1.666790 1_545
