# generated using pymatgen
data_LiCuBO3
_symmetry_space_group_name_H-M   'P 1'
_cell_length_a   14.13012008
_cell_length_b   14.07991106
_cell_length_c   3.14218516
_cell_angle_alpha   88.59013231
_cell_angle_beta   91.07711513
_cell_angle_gamma   120.16954336
_symmetry_Int_Tables_number   1
_chemical_formula_structural   LiCuBO3
_chemical_formula_sum   'Li9 Cu9 B9 O27'
_cell_volume   540.28155730
_cell_formula_units_Z   9
loop_
 _symmetry_equiv_pos_site_id
 _symmetry_equiv_pos_as_xyz
  1  'x, y, z'
loop_
 _atom_site_type_symbol
 _atom_site_label
 _atom_site_symmetry_multiplicity
 _atom_site_fract_x
 _atom_site_fract_y
 _atom_site_fract_z
 _atom_site_occupancy
  Li  Li0  1  0.09782000  0.87603900  0.51588200  1
  Li  Li1  1  0.10859200  0.56117600  0.48428000  1
  Li  Li2  1  0.45268400  0.89167800  0.55619700  1
  Li  Li3  1  0.12332600  0.22056700  0.50638700  1
  Li  Li4  1  0.43790500  0.54778800  0.45227300  1
  Li  Li5  1  0.44778900  0.24976300  0.50198400  1
  Li  Li6  1  0.77865800  0.90358500  0.48784000  1
  Li  Li7  1  0.80121200  0.55176900  0.49026700  1
  Li  Li8  1  0.74915800  0.19771500  0.50298000  1
  Cu  Cu0  1  0.24468100  0.78858100  0.06385100  1
  Cu  Cu1  1  0.20646500  0.45279700  0.00933700  1
  Cu  Cu2  1  0.21486300  0.09775100  0.99603100  1
  Cu  Cu3  1  0.54651600  0.75544600  0.93979200  1
  Cu  Cu4  1  0.58002100  0.46692000  0.96852400  1
  Cu  Cu5  1  0.53253600  0.11398700  0.03980700  1
  Cu  Cu6  1  0.88149600  0.78378500  0.96756700  1
  Cu  Cu7  1  0.88325800  0.41893100  0.96809300  1
  Cu  Cu8  1  0.90049900  0.11821400  0.02774900  1
  B  B0  1  0.00661000  0.66559400  0.99690400  1
  B  B1  1  0.33314800  0.66712000  0.99832600  1
  B  B2  1  0.33328800  0.34167800  0.98968500  1
  B  B3  1  0.65784700  0.99261000  0.01389800  1
  B  B4  1  0.33041800  0.00738100  0.53201400  1
  B  B5  1  0.67721100  0.66923200  0.46334100  1
  B  B6  1  0.66637200  0.33313500  0.00104900  1
  B  B7  1  0.99993100  0.00011700  0.00812800  1
  B  B8  1  0.99079100  0.32205400  0.50874900  1
  O  O0  1  0.02800700  0.91893000  0.01424000  1
  O  O1  1  0.00984500  0.56886300  0.96121200  1
  O  O2  1  0.10005700  0.76472400  0.08756600  1
  O  O3  1  0.31755800  0.90395200  0.55316500  1
  O  O4  1  0.09416100  0.41229100  0.51089400  1
  O  O5  1  0.22083200  0.60015900  0.99851200  1
  O  O6  1  0.37730100  0.77806400  0.05681800  1
  O  O7  1  0.08163000  0.10932900  0.02950600  1
  O  O8  1  0.55796900  0.98747500  0.06162900  1
  O  O9  1  0.23431600  0.33460900  0.07825500  1
  O  O10  1  0.39999200  0.62371700  0.94007500  1
  O  O11  1  0.66541100  0.90168100  0.90314100  1
  O  O12  1  0.33755600  0.24609800  0.94247500  1
  O  O13  1  0.42976600  0.44239500  0.95269100  1
  O  O14  1  0.24030400  0.02252300  0.51861200  1
  O  O15  1  0.58750400  0.68306600  0.45253000  1
  O  O16  1  0.66393800  0.56384800  0.47014900  1
  O  O17  1  0.43550400  0.09997300  0.52307300  1
  O  O18  1  0.89131500  0.97233100  0.97893500  1
  O  O19  1  0.78299600  0.76005400  0.46890100  1
  O  O20  1  0.56156000  0.31778400  0.01325900  1
  O  O21  1  0.68192800  0.24413000  0.97889000  1
  O  O22  1  0.75605200  0.43854700  0.01038200  1
  O  O23  1  0.90664100  0.66109400  0.94473100  1
  O  O24  1  0.75317600  0.09247500  0.07216300  1
  O  O25  1  0.89937100  0.33506000  0.49643700  1
  O  O26  1  0.97668100  0.21632900  0.51664100  1
loop_
_geom_bond_atom_site_label_1
_geom_bond_atom_site_label_2
_geom_bond_distance
_geom_bond_site_symmetry_2
Li0 O14 2.033193 1_565
Li0 O0 2.077465 1_555
Li0 O2 2.103318 1_555
Li0 O0 2.119752 1_556
Li0 O2 2.365035 1_556
Li1 O4 2.001340 1_555
Li1 O5 2.078748 1_554
Li1 O1 2.107797 1_555
Li1 O5 2.121259 1_555
Li1 O1 2.171810 1_554
Li2 O3 2.001613 1_555
Li2 O6 2.096314 1_556
Li2 O8 2.101045 1_555
Li2 O6 2.122212 1_555
Li2 O8 2.134119 1_556
Li3 O26 2.043620 1_455
Li3 O7 2.049468 1_555
Li3 O9 2.071112 1_555
Li3 O7 2.117609 1_556
Li3 O9 2.402429 1_556
Li4 O15 2.012311 1_555
Li4 O13 2.099563 1_555
Li4 O10 2.113394 1_555
Li4 O10 2.116297 1_554
Li4 O13 2.148435 1_554
Li5 O17 2.026847 1_555
Li5 O20 2.081537 1_555
Li5 O12 2.083577 1_555
Li5 O20 2.124527 1_556
Li5 O12 2.310924 1_554
Li6 O19 2.054730 1_555
Li6 O18 2.069914 1_555
Li6 O11 2.073140 1_555
Li6 O18 2.121032 1_554
Li6 O11 2.405314 1_554
Li7 O16 2.030218 1_555
Li7 O22 2.069274 1_555
Li7 O23 2.085959 1_555
Li7 O22 2.123203 1_556
Li7 O23 2.277803 1_554
Li8 O25 2.029596 1_555
Li8 O24 2.053665 1_555
Li8 O21 2.071531 1_555
Li8 O21 2.133932 1_554
Li8 O24 2.312542 1_556
Cu0 O2 1.899747 1_555
Cu0 O6 1.953121 1_555
Cu0 O3 2.108348 1_555
Cu0 O3 2.127586 1_554
Cu1 O9 1.899529 1_555
Cu1 O5 1.980093 1_554
Cu1 O4 2.082609 1_554
Cu1 O4 2.113595 1_555
Cu2 O12 1.936656 1_555
Cu2 O7 1.974480 1_556
Cu2 O14 1.995680 1_555
Cu2 O14 2.054847 1_556
Cu3 O11 1.895747 1_555
Cu3 O10 1.966438 1_555
Cu3 O15 2.102747 1_555
Cu3 O15 2.108810 1_556
Cu4 O13 1.972142 1_555
Cu4 O20 1.983268 1_556
Cu4 O16 2.014684 1_555
Cu4 O16 2.040094 1_556
Cu5 O8 1.985770 1_545
Cu5 O21 1.990077 1_554
Cu5 O17 2.004062 1_555
Cu5 O17 2.053106 1_554
Cu6 O23 1.933791 1_555
Cu6 O0 1.992723 1_656
Cu6 O19 1.995073 1_555
Cu6 O19 2.029635 1_556
Cu7 O22 1.958183 1_556
Cu7 O1 1.964744 1_655
Cu7 O25 2.002952 1_555
Cu7 O25 2.088546 1_556
Cu8 O24 1.932463 1_555
Cu8 O26 1.993644 1_555
Cu8 O18 2.001550 1_544
Cu8 O26 2.026703 1_554
B0 O2 1.387723 1_556
B0 O23 1.388561 1_455
B0 O1 1.392802 1_555
B1 O10 1.375218 1_555
B1 O6 1.376001 1_556
B1 O5 1.379728 1_555
B2 O9 1.384372 1_556
B2 O12 1.388683 1_555
B2 O13 1.392001 1_555
B3 O8 1.387199 1_555
B3 O24 1.387344 1_565
B3 O11 1.390143 1_554
B4 O3 1.374000 1_545
B4 O14 1.392471 1_555
B4 O17 1.399746 1_555
B5 O15 1.375518 1_555
B5 O19 1.395968 1_555
B5 O16 1.398630 1_555
B6 O21 1.380351 1_554
B6 O22 1.385574 1_555
B6 O20 1.386200 1_555
B7 O18 1.381996 1_544
B7 O0 1.385240 1_645
B7 O7 1.385508 1_655
B8 O4 1.372044 1_655
B8 O25 1.392571 1_555
B8 O26 1.398696 1_555
