# generated using pymatgen
data_Li10Mn3V5O16
_symmetry_space_group_name_H-M   'P 1'
_cell_length_a   6.02095600
_cell_length_b   6.06984923
_cell_length_c   9.94531588
_cell_angle_alpha   89.28148007
_cell_angle_beta   89.59168562
_cell_angle_gamma   60.89449498
_symmetry_Int_Tables_number   1
_chemical_formula_structural   Li10Mn3V5O16
_chemical_formula_sum   'Li10 Mn3 V5 O16'
_cell_volume   317.54296453
_cell_formula_units_Z   1
loop_
 _symmetry_equiv_pos_site_id
 _symmetry_equiv_pos_as_xyz
  1  'x, y, z'
loop_
 _atom_site_type_symbol
 _atom_site_label
 _atom_site_symmetry_multiplicity
 _atom_site_fract_x
 _atom_site_fract_y
 _atom_site_fract_z
 _atom_site_occupancy
  Li  Li0  1  0.18562200  0.19045800  0.05294000  1
  Li  Li1  1  0.58759400  0.19401700  0.04603000  1
  Li  Li2  1  0.31883900  0.34669000  0.26425100  1
  Li  Li3  1  0.19413100  0.60184900  0.04423900  1
  Li  Li4  1  0.79807800  0.38849400  0.54977900  1
  Li  Li5  1  0.98225600  0.00675000  0.98080600  1
  Li  Li6  1  0.65979400  0.66251700  0.76480300  1
  Li  Li7  1  0.80149400  0.79895400  0.54778800  1
  Li  Li8  1  0.99157200  0.01512200  0.47889600  1
  Li  Li9  1  0.39056400  0.79282600  0.54882900  1
  Mn  Mn0  1  0.15421000  0.67218900  0.77931500  1
  Mn  Mn1  1  0.82331900  0.84131400  0.27817900  1
  Mn  Mn2  1  0.32995400  0.83813800  0.28123100  1
  V  V0  1  0.15865000  0.17087200  0.77978100  1
  V  V1  1  0.32742300  0.34286800  0.51979000  1
  V  V2  1  0.65330400  0.67133200  0.01988200  1
  V  V3  1  0.64946100  0.17223400  0.77869000  1
  V  V4  1  0.82218100  0.34923100  0.27827000  1
  O  O0  1  0.97765500  0.02547900  0.66771300  1
  O  O1  1  0.48636500  0.01972100  0.65557100  1
  O  O2  1  0.65382300  0.19372900  0.40552500  1
  O  O3  1  0.00045200  0.02127700  0.17276000  1
  O  O4  1  0.32781700  0.32184600  0.89639600  1
  O  O5  1  0.14658100  0.19752200  0.40401300  1
  O  O6  1  0.48816700  0.48546600  0.65129600  1
  O  O7  1  0.01579800  0.47903000  0.65176000  1
  O  O8  1  0.97347900  0.50374000  0.14965500  1
  O  O9  1  0.81516900  0.33404900  0.89710900  1
  O  O10  1  0.16532900  0.68910600  0.40591000  1
  O  O11  1  0.50983400  0.50059600  0.14778700  1
  O  O12  1  0.65206300  0.66422600  0.39573100  1
  O  O13  1  0.80609600  0.84695800  0.90861900  1
  O  O14  1  0.49208400  0.97738300  0.15403600  1
  O  O15  1  0.31254500  0.85485700  0.90577700  1
loop_
_geom_bond_atom_site_label_1
_geom_bond_atom_site_label_2
_geom_bond_distance
_geom_bond_site_symmetry_2
Li0 O14 1.939212 1_545
Li0 O8 1.959110 1_455
Li0 O4 2.099281 1_554
Li0 O3 2.186716 1_555
Li0 O15 2.328099 1_544
Li0 O9 2.502138 1_454
Li1 O11 1.974628 1_555
Li1 O14 1.976097 1_545
Li1 O4 2.021546 1_554
Li1 O13 2.320893 1_544
Li1 O9 2.421989 1_554
Li1 O3 2.518536 1_655
Li2 O11 2.129723 1_555
Li2 O8 2.147012 1_455
Li2 O5 2.165406 1_555
Li2 O14 2.255010 1_545
Li2 O2 2.256101 1_555
Li2 O10 2.311917 1_555
Li3 O11 1.981650 1_555
Li3 O8 1.988196 1_455
Li3 O4 2.100788 1_554
Li3 O15 2.400242 1_554
Li3 O13 2.470674 1_454
Li3 O3 2.578223 1_565
Li4 O6 1.940919 1_555
Li4 O7 1.944947 1_655
Li4 O12 2.108239 1_555
Li4 O0 2.243979 1_555
Li4 O2 2.295517 1_555
Li4 O5 2.341104 1_655
Li5 O15 1.890502 1_645
Li5 O13 1.900064 1_545
Li5 O9 1.917781 1_555
Li5 O3 1.918548 1_656
Li6 O6 2.150464 1_555
Li6 O9 2.172292 1_555
Li6 O1 2.173951 1_565
Li6 O7 2.184832 1_655
Li6 O13 2.256665 1_555
Li6 O15 2.307523 1_555
Li7 O7 2.009015 1_655
Li7 O1 2.019484 1_565
Li7 O12 2.128700 1_555
Li7 O10 2.406868 1_655
Li7 O0 2.432279 1_565
Li7 O2 2.528728 1_565
Li8 O0 1.879592 1_555
Li8 O10 1.883740 1_645
Li8 O5 1.904229 1_655
Li8 O2 1.923472 1_555
Li9 O6 1.938733 1_555
Li9 O1 2.043189 1_565
Li9 O12 2.051006 1_555
Li9 O10 2.266328 1_555
Li9 O0 2.481413 1_465
Li9 O5 2.587914 1_565
Mn0 O7 2.163640 1_555
Mn0 O0 2.167933 1_465
Mn0 O6 2.175157 1_555
Mn0 O4 2.182517 1_555
Mn0 O15 2.190980 1_555
Mn0 O13 2.237167 1_455
Mn1 O3 2.125691 1_665
Mn1 O14 2.142663 1_555
Mn1 O12 2.148243 1_555
Mn1 O10 2.205616 1_655
Mn1 O8 2.212855 1_555
Mn1 O2 2.268715 1_565
Mn2 O14 2.006421 1_555
Mn2 O10 2.040821 1_555
Mn2 O12 2.044996 1_555
Mn2 O3 2.047036 1_565
Mn2 O11 2.240759 1_555
Mn2 O5 2.274464 1_565
O0 V0 2.046027 1_655
O0 V3 2.048793 1_555
O1 V3 2.061680 1_555
O1 V0 2.119818 1_555
O1 V1 2.170841 1_555
O2 V1 2.058230 1_555
O2 V4 2.098263 1_555
O3 V4 2.042918 1_455
O4 V0 2.042990 1_555
O4 V3 2.056435 1_555
O5 V1 2.065811 1_555
O5 V4 2.117313 1_455
O6 V1 2.063439 1_555
O6 V3 2.079432 1_555
O7 V0 2.061622 1_555
O7 V1 2.099911 1_555
O8 V4 2.032235 1_555
O8 V2 2.124047 1_555
O9 V3 2.084768 1_555
O9 V0 2.149751 1_655
O9 V2 2.176387 1_556
O10 V1 2.147713 1_555
O11 V2 2.064099 1_555
O11 V4 2.094960 1_555
O12 V4 2.050173 1_555
O13 V2 2.029070 1_556
O13 V3 2.144590 1_565
O14 V2 2.112528 1_555
O15 V0 2.082137 1_565
O15 V2 2.125137 1_556
