# generated using pymatgen
data_TaNbO5
_symmetry_space_group_name_H-M   'P 1'
_cell_length_a   5.70446800
_cell_length_b   14.38985300
_cell_length_c   14.44523336
_cell_angle_alpha   59.81323241
_cell_angle_beta   90.00000000
_cell_angle_gamma   90.00000000
_symmetry_Int_Tables_number   1
_chemical_formula_structural   TaNbO5
_chemical_formula_sum   'Ta8 Nb8 O40'
_cell_volume   1024.95849560
_cell_formula_units_Z   8
loop_
 _symmetry_equiv_pos_site_id
 _symmetry_equiv_pos_as_xyz
  1  'x, y, z'
loop_
 _atom_site_type_symbol
 _atom_site_label
 _atom_site_symmetry_multiplicity
 _atom_site_fract_x
 _atom_site_fract_y
 _atom_site_fract_z
 _atom_site_occupancy
  Ta  Ta0  1  0.26632000  0.43827400  0.15426500  1
  Ta  Ta1  1  0.76075000  0.09344400  0.34559700  1
  Ta  Ta2  1  0.23368000  0.93827400  0.15426500  1
  Ta  Ta3  1  0.73925000  0.59344400  0.34559700  1
  Ta  Ta4  1  0.26075000  0.40655600  0.65440300  1
  Ta  Ta5  1  0.76632000  0.06172600  0.84573500  1
  Ta  Ta6  1  0.23925000  0.90655600  0.65440300  1
  Ta  Ta7  1  0.73368000  0.56172600  0.84573500  1
  Nb  Nb0  1  0.74198900  0.14662000  0.05699700  1
  Nb  Nb1  1  0.75801100  0.64662000  0.05699700  1
  Nb  Nb2  1  0.25289000  0.20342600  0.44287200  1
  Nb  Nb3  1  0.75289000  0.29657400  0.55712800  1
  Nb  Nb4  1  0.24711000  0.70342600  0.44287200  1
  Nb  Nb5  1  0.74711000  0.79657400  0.55712800  1
  Nb  Nb6  1  0.24198900  0.35338000  0.94300300  1
  Nb  Nb7  1  0.25801100  0.85338000  0.94300300  1
  O  O0  1  0.02849200  0.23409500  0.00750100  1
  O  O1  1  0.46474200  0.04146400  0.11270000  1
  O  O2  1  0.24333500  0.37046200  0.07315500  1
  O  O3  1  0.74898000  0.13873800  0.19870700  1
  O  O4  1  0.47150800  0.73409500  0.00750100  1
  O  O5  1  0.03525800  0.54146400  0.11270000  1
  O  O6  1  0.55267700  0.50659800  0.12860700  1
  O  O7  1  0.04696600  0.12875300  0.37979100  1
  O  O8  1  0.52929100  0.16277700  0.37701800  1
  O  O9  1  0.22808800  0.33738800  0.30096400  1
  O  O10  1  0.25666500  0.87046200  0.07315500  1
  O  O11  1  0.75102000  0.63873800  0.19870700  1
  O  O12  1  0.28328300  0.05546300  0.57243700  1
  O  O13  1  0.97580600  0.23753200  0.49905100  1
  O  O14  1  0.47580600  0.26246800  0.50094900  1
  O  O15  1  0.94732300  0.00659800  0.12860700  1
  O  O16  1  0.78328300  0.44453700  0.42756300  1
  O  O17  1  0.45303400  0.62875300  0.37979100  1
  O  O18  1  0.97070900  0.66277700  0.37701800  1
  O  O19  1  0.27191200  0.83738800  0.30096400  1
  O  O20  1  0.72808800  0.16261200  0.69903600  1
  O  O21  1  0.02929100  0.33722300  0.62298200  1
  O  O22  1  0.54696600  0.37124700  0.62020900  1
  O  O23  1  0.21671700  0.55546300  0.57243700  1
  O  O24  1  0.05267700  0.99340200  0.87139300  1
  O  O25  1  0.52419400  0.73753200  0.49905100  1
  O  O26  1  0.02419400  0.76246800  0.50094900  1
  O  O27  1  0.71671700  0.94453700  0.42756300  1
  O  O28  1  0.24898000  0.36126200  0.80129300  1
  O  O29  1  0.74333500  0.12953800  0.92684500  1
  O  O30  1  0.77191200  0.66261200  0.69903600  1
  O  O31  1  0.47070900  0.83722300  0.62298200  1
  O  O32  1  0.95303400  0.87124700  0.62020900  1
  O  O33  1  0.44732300  0.49340200  0.87139300  1
  O  O34  1  0.96474200  0.45853600  0.88730000  1
  O  O35  1  0.52849200  0.26590500  0.99249900  1
  O  O36  1  0.25102000  0.86126200  0.80129300  1
  O  O37  1  0.75666500  0.62953800  0.92684500  1
  O  O38  1  0.53525800  0.95853600  0.88730000  1
  O  O39  1  0.97150800  0.76590500  0.99249900  1
loop_
_geom_bond_atom_site_label_1
_geom_bond_atom_site_label_2
_geom_bond_distance
_geom_bond_site_symmetry_2
Nb0 O35 1.920777 1_554
Nb0 O0 1.965117 1_655
Nb0 O3 1.992816 1_555
Nb0 O29 2.014922 1_554
Nb0 O1 2.052807 1_555
Nb0 O15 2.099004 1_555
Nb1 O39 1.920777 1_554
Nb1 O4 1.965117 1_555
Nb1 O11 1.992816 1_555
Nb1 O37 2.014922 1_554
Nb1 O5 2.052807 1_655
Nb1 O6 2.099004 1_555
Nb2 O14 1.938927 1_555
Nb2 O13 1.948923 1_455
Nb2 O9 1.991037 1_555
Nb2 O12 2.014662 1_555
Nb2 O8 2.071882 1_555
Nb2 O7 2.085544 1_555
Nb3 O13 1.938927 1_555
Nb3 O14 1.948923 1_555
Nb3 O20 1.991037 1_555
Nb3 O16 2.014662 1_555
Nb3 O21 2.071882 1_655
Nb3 O22 2.085544 1_555
Nb4 O26 1.938927 1_555
Nb4 O25 1.948923 1_555
Nb4 O19 1.991037 1_555
Nb4 O23 2.014662 1_555
Nb4 O18 2.071882 1_455
Nb4 O17 2.085544 1_555
Nb5 O25 1.938927 1_555
Nb5 O26 1.948923 1_655
Nb5 O30 1.991037 1_555
Nb5 O27 2.014662 1_555
Nb5 O31 2.071882 1_555
Nb5 O32 2.085544 1_555
Nb6 O0 1.920777 1_556
Nb6 O35 1.965117 1_555
Nb6 O28 1.992816 1_555
Nb6 O2 2.014922 1_556
Nb6 O34 2.052807 1_455
Nb6 O33 2.099004 1_555
Nb7 O4 1.920777 1_556
Nb7 O39 1.965117 1_455
Nb7 O36 1.992816 1_555
Nb7 O10 2.014922 1_556
Nb7 O38 2.052807 1_555
Nb7 O24 2.099004 1_555
O1 Ta2 1.845580 1_545
O2 Ta0 1.868665 1_555
O3 Ta1 1.881710 1_555
O5 Ta0 1.845580 1_555
O6 Ta0 1.845512 1_555
O7 Ta1 1.849394 1_455
O8 Ta1 1.843940 1_555
O9 Ta0 1.884665 1_555
O10 Ta2 1.868665 1_555
O11 Ta3 1.881710 1_555
O12 Ta6 1.872166 1_545
O15 Ta2 1.845512 1_645
O16 Ta3 1.872166 1_555
O17 Ta3 1.849394 1_555
O18 Ta3 1.843940 1_555
O19 Ta2 1.884665 1_555
O20 Ta5 1.884665 1_555
O21 Ta4 1.843940 1_555
O22 Ta4 1.849394 1_555
O23 Ta4 1.872166 1_555
O24 Ta5 1.845512 1_465
O27 Ta1 1.872166 1_565
O28 Ta4 1.881710 1_555
O29 Ta5 1.868665 1_555
O30 Ta7 1.884665 1_555
O31 Ta6 1.843940 1_555
O32 Ta6 1.849394 1_655
O33 Ta7 1.845512 1_555
O34 Ta7 1.845580 1_555
O36 Ta6 1.881710 1_555
O37 Ta7 1.868665 1_555
O38 Ta5 1.845580 1_565
