# generated using pymatgen
data_Na5LiNi2P2(CO7)2
_symmetry_space_group_name_H-M   'P 1'
_cell_length_a   5.16975586
_cell_length_b   10.99168346
_cell_length_c   11.06045338
_cell_angle_alpha   106.18145520
_cell_angle_beta   88.88925627
_cell_angle_gamma   91.21199956
_symmetry_Int_Tables_number   1
_chemical_formula_structural   Na5LiNi2P2(CO7)2
_chemical_formula_sum   'Na10 Li2 Ni4 P4 C4 O28'
_cell_volume   603.40933024
_cell_formula_units_Z   2
loop_
 _symmetry_equiv_pos_site_id
 _symmetry_equiv_pos_as_xyz
  1  'x, y, z'
loop_
 _atom_site_type_symbol
 _atom_site_label
 _atom_site_symmetry_multiplicity
 _atom_site_fract_x
 _atom_site_fract_y
 _atom_site_fract_z
 _atom_site_occupancy
  Na  Na0  1  0.76838600  0.07885200  0.16100100  1
  Na  Na1  1  0.76831700  0.57882900  0.66098900  1
  Na  Na2  1  0.25540000  0.11152500  0.38017700  1
  Na  Na3  1  0.25539900  0.61154500  0.88016100  1
  Na  Na4  1  0.74730500  0.88914400  0.61997500  1
  Na  Na5  1  0.74736100  0.38910000  0.12001600  1
  Na  Na6  1  0.74657100  0.13083600  0.86340300  1
  Na  Na7  1  0.74649400  0.63087300  0.36344100  1
  Na  Na8  1  0.22463000  0.91825500  0.83565200  1
  Na  Na9  1  0.22462000  0.41828200  0.33567600  1
  Li  Li0  1  0.22984800  0.86418000  0.15220500  1
  Li  Li1  1  0.22990300  0.36412700  0.65221300  1
  Ni  Ni0  1  0.78536200  0.70504900  0.05102400  1
  Ni  Ni1  1  0.22036900  0.29933900  0.94882800  1
  Ni  Ni2  1  0.78524000  0.20527200  0.55102500  1
  Ni  Ni3  1  0.22041500  0.79909300  0.44888800  1
  P  P0  1  0.71790100  0.91669200  0.33040800  1
  P  P1  1  0.71797400  0.41669700  0.83031400  1
  P  P2  1  0.29346400  0.08808700  0.66704900  1
  P  P3  1  0.29341800  0.58806200  0.16709300  1
  C  C0  1  0.71090100  0.34438100  0.40863900  1
  C  C1  1  0.71106200  0.84428100  0.90863600  1
  C  C2  1  0.27876000  0.65020400  0.59145500  1
  C  C3  1  0.27893300  0.15025100  0.09142900  1
  O  O0  1  0.29669700  0.07093600  0.15781000  1
  O  O1  1  0.29665200  0.57098500  0.65791400  1
  O  O2  1  0.94074100  0.31177100  0.43333600  1
  O  O3  1  0.94098300  0.81174700  0.93332100  1
  O  O4  1  0.51285800  0.30390200  0.46205400  1
  O  O5  1  0.51297900  0.80378600  0.96201500  1
  O  O6  1  0.82465500  0.87622700  0.19247500  1
  O  O7  1  0.82483100  0.37626700  0.69251000  1
  O  O8  1  0.77499100  0.06152900  0.37937800  1
  O  O9  1  0.77513700  0.56151800  0.87935200  1
  O  O10  1  0.15988300  0.17059300  0.59442600  1
  O  O11  1  0.15987700  0.67057100  0.09442800  1
  O  O12  1  0.41734400  0.89246800  0.33201500  1
  O  O13  1  0.41742300  0.39258900  0.83198200  1
  O  O14  1  0.59286100  0.10337700  0.65422500  1
  O  O15  1  0.59279000  0.60324600  0.15414500  1
  O  O16  1  0.84884300  0.84194800  0.41103400  1
  O  O17  1  0.84881100  0.34197100  0.91102900  1
  O  O18  1  0.21749300  0.94504200  0.61720000  1
  O  O19  1  0.21740800  0.44498100  0.11715000  1
  O  O20  1  0.21353500  0.12683200  0.80933800  1
  O  O21  1  0.21352900  0.62676700  0.30925400  1
  O  O22  1  0.48373100  0.69798300  0.54991100  1
  O  O23  1  0.48393200  0.19801000  0.04993800  1
  O  O24  1  0.05421100  0.68618800  0.56300400  1
  O  O25  1  0.05442500  0.18615300  0.06299400  1
  O  O26  1  0.68273600  0.91480800  0.83406200  1
  O  O27  1  0.68261200  0.41485600  0.33400700  1
loop_
_geom_bond_atom_site_label_1
_geom_bond_atom_site_label_2
_geom_bond_distance
_geom_bond_site_symmetry_2
Na0 O25 2.308560 1_655
Na0 O6 2.372688 1_545
Na0 O0 2.438817 1_555
Na0 O8 2.476113 1_555
Na0 O23 2.536773 1_555
Na0 O0 2.733695 1_655
Na1 O24 2.308349 1_655
Na1 O7 2.372406 1_555
Na1 O1 2.438655 1_555
Na1 O9 2.475951 1_555
Na1 O22 2.537259 1_555
Na1 O1 2.733800 1_655
Na2 O10 2.321957 1_555
Na2 O0 2.380285 1_555
Na2 O4 2.433789 1_555
Na2 O12 2.476957 1_545
Na2 O8 2.531943 1_455
Na2 O2 2.688783 1_455
Na2 O8 2.752515 1_555
Na3 O11 2.322149 1_556
Na3 O1 2.379000 1_555
Na3 O5 2.432965 1_555
Na3 O13 2.476071 1_555
Na3 O9 2.531263 1_455
Na3 O3 2.687634 1_455
Na3 O9 2.753327 1_555
Na4 O16 2.276312 1_555
Na4 O26 2.323573 1_555
Na4 O22 2.425796 1_555
Na4 O14 2.428297 1_565
Na4 O18 2.496290 1_655
Na4 O24 2.686733 1_655
Na4 O18 2.822325 1_555
Na5 O17 2.276733 1_554
Na5 O27 2.322487 1_555
Na5 O23 2.424800 1_555
Na5 O15 2.427794 1_555
Na5 O19 2.495604 1_655
Na5 O25 2.687144 1_655
Na5 O19 2.823082 1_555
Na6 O17 2.284771 1_555
Na6 O26 2.322506 1_545
Na6 O23 2.393767 1_556
Na6 O14 2.397341 1_555
Na6 O20 2.474108 1_655
Na6 O25 2.668927 1_656
Na6 O20 2.827950 1_555
Na7 O16 2.284285 1_555
Na7 O27 2.322271 1_555
Na7 O22 2.393518 1_555
Na7 O15 2.398276 1_555
Na7 O21 2.474726 1_655
Na7 O24 2.668257 1_655
Na7 O21 2.827825 1_555
Na8 O3 2.293172 1_455
Na8 O26 2.369047 1_555
Na8 O20 2.392108 1_565
Na8 O18 2.515233 1_555
Na8 O5 2.626570 1_555
Na8 O26 2.801244 1_455
Na9 O2 2.293876 1_455
Na9 O27 2.368435 1_555
Na9 O21 2.391568 1_555
Na9 O19 2.515687 1_555
Na9 O4 2.625720 1_555
Na9 O27 2.801855 1_455
Li0 O11 2.070364 1_555
Li0 O6 2.132271 1_455
Li0 O12 2.169980 1_555
Li0 O0 2.275314 1_565
Li0 O5 2.480250 1_554
Li1 O10 2.069634 1_555
Li1 O7 2.131736 1_455
Li1 O13 2.169404 1_555
Li1 O1 2.276091 1_555
Li1 O4 2.479381 1_555
Ni0 O15 2.040671 1_555
Ni0 O11 2.071532 1_655
Ni0 O6 2.093942 1_555
Ni0 O9 2.104242 1_554
Ni0 O3 2.118480 1_554
Ni0 O5 2.200874 1_554
Ni1 O17 2.064581 1_455
Ni1 O20 2.084629 1_555
Ni1 O19 2.089919 1_556
Ni1 O13 2.098017 1_555
Ni1 O25 2.160254 1_556
Ni1 O23 2.272709 1_556
Ni2 O14 2.041522 1_555
Ni2 O10 2.072737 1_655
Ni2 O7 2.092889 1_555
Ni2 O8 2.105214 1_555
Ni2 O2 2.116574 1_555
Ni2 O4 2.199878 1_555
Ni3 O16 2.065566 1_455
Ni3 O21 2.084011 1_555
Ni3 O18 2.091593 1_555
Ni3 O12 2.098833 1_555
Ni3 O24 2.158094 1_555
Ni3 O22 2.269762 1_555
C0 O27 1.291787 1_555
C0 O4 1.303467 1_555
C0 O2 1.303889 1_555
C1 O26 1.291741 1_555
C1 O5 1.303493 1_555
C1 O3 1.303940 1_555
C2 O1 1.292235 1_555
C2 O22 1.304561 1_555
C2 O24 1.306149 1_555
C3 O0 1.292398 1_555
C3 O23 1.304307 1_555
C3 O25 1.305548 1_555
O6 P0 1.558658 1_555
O7 P1 1.557559 1_555
O8 P0 1.555849 1_545
O9 P1 1.555803 1_555
O10 P2 1.548722 1_555
O11 P3 1.548970 1_555
O12 P0 1.571493 1_555
O13 P1 1.571296 1_555
O14 P2 1.561361 1_555
O15 P3 1.561243 1_555
O16 P0 1.543930 1_555
O17 P1 1.544264 1_555
O18 P2 1.558681 1_565
O19 P3 1.559168 1_555
O20 P2 1.561272 1_555
O21 P3 1.559909 1_555
