# generated using pymatgen
data_Li3Cr3(PO4)4
_symmetry_space_group_name_H-M   'P 1'
_cell_length_a   11.30197500
_cell_length_b   6.22551300
_cell_length_c   8.47123379
_cell_angle_alpha   78.35414337
_cell_angle_beta   90.00000000
_cell_angle_gamma   90.00000000
_symmetry_Int_Tables_number   1
_chemical_formula_structural   Li3Cr3(PO4)4
_chemical_formula_sum   'Li6 Cr6 P8 O32'
_cell_volume   583.77092832
_cell_formula_units_Z   2
loop_
 _symmetry_equiv_pos_site_id
 _symmetry_equiv_pos_as_xyz
  1  'x, y, z'
loop_
 _atom_site_type_symbol
 _atom_site_label
 _atom_site_symmetry_multiplicity
 _atom_site_fract_x
 _atom_site_fract_y
 _atom_site_fract_z
 _atom_site_occupancy
  Li  Li0  1  0.61007500  0.64727600  0.07117400  1
  Li  Li1  1  0.89218400  0.14238300  0.06067600  1
  Li  Li2  1  0.30237000  0.60215400  0.34663000  1
  Li  Li3  1  0.80237000  0.39784600  0.65337000  1
  Li  Li4  1  0.11007500  0.35272400  0.92882600  1
  Li  Li5  1  0.39218400  0.85761700  0.93932400  1
  Cr  Cr0  1  0.91460700  0.57830600  0.28091500  1
  Cr  Cr1  1  0.59114300  0.09957900  0.27403800  1
  Cr  Cr2  1  0.18590100  0.12421300  0.33846900  1
  Cr  Cr3  1  0.68590100  0.87578700  0.66153100  1
  Cr  Cr4  1  0.41460700  0.42169400  0.71908500  1
  Cr  Cr5  1  0.09114300  0.90042100  0.72596200  1
  P  P0  1  0.37396700  0.36544900  0.08530000  1
  P  P1  1  0.13146700  0.86959500  0.09909000  1
  P  P2  1  0.58640700  0.57427000  0.40396200  1
  P  P3  1  0.90894400  0.04064000  0.39894600  1
  P  P4  1  0.08640700  0.42573000  0.59603800  1
  P  P5  1  0.40894400  0.95936000  0.60105400  1
  P  P6  1  0.87396700  0.63455100  0.91470000  1
  P  P7  1  0.63146700  0.13040500  0.90091000  1
  O  O0  1  0.43836500  0.57894700  0.08199300  1
  O  O1  1  0.81815800  0.65019900  0.07976000  1
  O  O2  1  0.06873500  0.08987700  0.09885800  1
  O  O3  1  0.68604300  0.14800900  0.06697900  1
  O  O4  1  0.05646100  0.65958800  0.15749300  1
  O  O5  1  0.26785400  0.35927700  0.20382200  1
  O  O6  1  0.44883500  0.15521200  0.15021600  1
  O  O7  1  0.63250700  0.39371300  0.31646000  1
  O  O8  1  0.91273800  0.26409000  0.28127400  1
  O  O9  1  0.23128200  0.87481200  0.22549700  1
  O  O10  1  0.87983500  0.87721400  0.29194200  1
  O  O11  1  0.58141500  0.78453400  0.26966300  1
  O  O12  1  0.17652300  0.38731400  0.46641600  1
  O  O13  1  0.46254500  0.51048000  0.48157100  1
  O  O14  1  0.30734500  0.95987100  0.48112800  1
  O  O15  1  0.96254500  0.48952000  0.51842900  1
  O  O16  1  0.03429600  0.99115700  0.48373000  1
  O  O17  1  0.67652300  0.61268600  0.53358400  1
  O  O18  1  0.53429600  0.00884300  0.51627000  1
  O  O19  1  0.80734500  0.04012900  0.51887200  1
  O  O20  1  0.41273800  0.73591000  0.71872600  1
  O  O21  1  0.13250700  0.60628700  0.68354000  1
  O  O22  1  0.76785400  0.64072300  0.79617800  1
  O  O23  1  0.08141500  0.21546600  0.73033700  1
  O  O24  1  0.37983500  0.12278600  0.70805800  1
  O  O25  1  0.55646100  0.34041200  0.84250700  1
  O  O26  1  0.73128200  0.12518800  0.77450300  1
  O  O27  1  0.94883500  0.84478800  0.84978400  1
  O  O28  1  0.31815800  0.34980100  0.92024000  1
  O  O29  1  0.93836500  0.42105300  0.91800700  1
  O  O30  1  0.18604300  0.85199100  0.93302100  1
  O  O31  1  0.56873500  0.91012300  0.90114200  1
loop_
_geom_bond_atom_site_label_1
_geom_bond_atom_site_label_2
_geom_bond_distance
_geom_bond_site_symmetry_2
Li0 O0 1.984888 1_555
Li0 O31 2.004767 1_554
Li0 O11 2.059715 1_555
Li0 O1 2.353057 1_555
Li0 O7 2.355729 1_555
Li1 O29 1.973916 1_554
Li1 O2 2.037229 1_655
Li1 O8 2.166074 1_555
Li1 O10 2.297189 1_545
Li1 O3 2.330837 1_555
Li2 O9 1.968898 1_555
Li2 O12 2.072106 1_555
Li2 O5 2.154167 1_555
Li2 O13 2.155507 1_555
Li3 O26 1.968898 1_555
Li3 O17 2.072106 1_555
Li3 O22 2.154167 1_555
Li3 O15 2.155507 1_555
Li4 O29 1.984888 1_455
Li4 O2 2.004767 1_556
Li4 O23 2.059715 1_555
Li4 O28 2.353057 1_555
Li4 O21 2.355729 1_555
Li5 O0 1.973916 1_556
Li5 O31 2.037229 1_555
Li5 O20 2.166074 1_555
Li5 O24 2.297189 1_565
Li5 O30 2.330837 1_555
Cr0 O10 1.922532 1_555
Cr0 O4 1.925086 1_655
Cr0 O8 1.955658 1_555
Cr0 O1 1.996089 1_555
Cr0 O15 2.048990 1_555
Cr1 O6 1.913206 1_555
Cr1 O11 1.972200 1_545
Cr1 O7 1.991588 1_555
Cr1 O3 2.025944 1_555
Cr1 O18 2.115330 1_555
Cr2 O5 1.904354 1_555
Cr2 O14 1.972806 1_545
Cr2 O9 2.046838 1_545
Cr2 O12 2.141398 1_555
Cr2 O16 2.173643 1_545
Cr2 O2 2.468700 1_555
Cr3 O22 1.904354 1_555
Cr3 O19 1.972806 1_565
Cr3 O26 2.046838 1_565
Cr3 O17 2.141398 1_555
Cr3 O18 2.173643 1_565
Cr3 O31 2.468700 1_555
Cr4 O24 1.922532 1_555
Cr4 O25 1.925086 1_555
Cr4 O20 1.955658 1_555
Cr4 O28 1.996089 1_555
Cr4 O13 2.048990 1_555
Cr5 O27 1.913206 1_455
Cr5 O23 1.972200 1_565
Cr5 O21 1.991588 1_555
Cr5 O30 2.025944 1_555
Cr5 O16 2.115330 1_555
O0 P0 1.510655 1_555
O1 P6 1.554821 1_554
O2 P1 1.543451 1_545
O3 P7 1.560074 1_554
O4 P1 1.552917 1_555
O5 P0 1.559571 1_555
O6 P0 1.562323 1_555
O7 P2 1.555896 1_555
O8 P3 1.539741 1_555
O9 P1 1.560251 1_555
O10 P3 1.528839 1_565
O11 P2 1.552335 1_555
O12 P4 1.551216 1_555
O13 P2 1.563398 1_555
O14 P5 1.532750 1_555
O15 P4 1.563398 1_655
O16 P3 1.590136 1_465
O17 P2 1.551216 1_555
O18 P5 1.590136 1_545
O19 P3 1.532750 1_555
O20 P5 1.539741 1_555
O21 P4 1.555896 1_555
O22 P6 1.559571 1_555
O23 P4 1.552335 1_555
O24 P5 1.528839 1_545
O25 P7 1.552917 1_555
O26 P7 1.560251 1_555
O27 P6 1.562323 1_555
O28 P0 1.554821 1_556
O29 P6 1.510655 1_555
O30 P1 1.560074 1_556
O31 P7 1.543451 1_565
