# generated using pymatgen
data_Li3V3P8O29
_symmetry_space_group_name_H-M   'P 1'
_cell_length_a   9.71801900
_cell_length_b   9.74342408
_cell_length_c   14.32598174
_cell_angle_alpha   90.64382099
_cell_angle_beta   90.11108427
_cell_angle_gamma   119.88240254
_symmetry_Int_Tables_number   1
_chemical_formula_structural   Li3V3P8O29
_chemical_formula_sum   'Li6 V6 P16 O58'
_cell_volume   1176.01797575
_cell_formula_units_Z   2
loop_
 _symmetry_equiv_pos_site_id
 _symmetry_equiv_pos_as_xyz
  1  'x, y, z'
loop_
 _atom_site_type_symbol
 _atom_site_label
 _atom_site_symmetry_multiplicity
 _atom_site_fract_x
 _atom_site_fract_y
 _atom_site_fract_z
 _atom_site_occupancy
  Li  Li0  1  0.67792200  0.77070100  0.04812500  1
  Li  Li1  1  0.09163200  0.32255900  0.05756200  1
  Li  Li2  1  0.76952400  0.67575200  0.44832800  1
  Li  Li3  1  0.23322600  0.33103600  0.56255900  1
  Li  Li4  1  0.03137800  0.97758000  0.99325200  1
  Li  Li5  1  0.99619700  0.00047000  0.51482800  1
  V  V0  1  0.56281300  0.56503000  0.24880000  1
  V  V1  1  0.43559400  0.43226600  0.75334700  1
  V  V2  1  0.00335800  0.56684200  0.75048200  1
  V  V3  1  0.99487900  0.43754800  0.24999000  1
  V  V4  1  0.43631400  0.99747700  0.25232700  1
  V  V5  1  0.56050100  0.00036900  0.74498400  1
  P  P0  1  0.22159500  0.91931600  0.83896700  1
  P  P1  1  0.08414900  0.78152200  0.33818700  1
  P  P2  1  0.69942000  0.91874700  0.34540200  1
  P  P3  1  0.33313100  0.66501800  0.13288200  1
  P  P4  1  0.33116000  0.66079900  0.63221200  1
  P  P5  1  0.68773700  0.78171500  0.83762000  1
  P  P6  1  0.77657300  0.68618000  0.66012900  1
  P  P7  1  0.08638100  0.31125900  0.84498100  1
  P  P8  1  0.91469100  0.69478400  0.15429400  1
  P  P9  1  0.22493000  0.31747200  0.34348400  1
  P  P10  1  0.30569500  0.21647800  0.16520100  1
  P  P11  1  0.66545800  0.33660900  0.36571800  1
  P  P12  1  0.67078900  0.33407200  0.86601500  1
  P  P13  1  0.29740800  0.08185900  0.65555500  1
  P  P14  1  0.91385600  0.21705300  0.66382600  1
  P  P15  1  0.77691100  0.08148900  0.16134800  1
  O  O0  1  0.19523100  0.00899300  0.57219700  1
  O  O1  1  0.25935600  0.91472500  0.33380300  1
  O  O2  1  0.98673100  0.78695800  0.06935800  1
  O  O3  1  0.08826300  0.74212800  0.82981600  1
  O  O4  1  0.38324200  0.92622600  0.82625300  1
  O  O5  1  0.33315900  0.81016900  0.18112600  1
  O  O6  1  0.54186200  0.92299800  0.33104100  1
  O  O7  1  0.78323600  0.99072300  0.07902500  1
  O  O8  1  0.65187100  0.91851900  0.82882000  1
  O  O9  1  0.18541000  0.66144200  0.67928100  1
  O  O10  1  0.08129100  0.61981000  0.32432900  1
  O  O11  1  0.47682200  0.81040800  0.67747300  1
  O  O12  1  0.34862000  0.66676200  0.02971600  1
  O  O13  1  0.32672900  0.65385400  0.52866500  1
  O  O14  1  0.48639400  0.66988500  0.17739500  1
  O  O15  1  0.08608300  0.46777000  0.83039700  1
  O  O16  1  0.18401600  0.51346000  0.16987300  1
  O  O17  1  0.65900800  0.74135100  0.33446600  1
  O  O18  1  0.79765400  0.79924700  0.74904400  1
  O  O19  1  0.78953700  0.76919700  0.57081800  1
  O  O20  1  0.77127100  0.79144400  0.92697700  1
  O  O21  1  0.53070000  0.62098100  0.82430400  1
  O  O22  1  0.33072600  0.51077900  0.67255100  1
  O  O23  1  0.73752200  0.65456600  0.16342600  1
  O  O24  1  0.38216700  0.47430400  0.32457400  1
  O  O25  1  0.08485200  0.34855100  0.32553200  1
  O  O26  1  0.00201800  0.80155800  0.24560700  1
  O  O27  1  0.99494200  0.78844200  0.42043100  1
  O  O28  1  0.00479200  0.19767600  0.58574800  1
  O  O29  1  0.91526000  0.65147300  0.66927800  1
  O  O30  1  0.61766200  0.53163200  0.67371600  1
  O  O31  1  0.25943700  0.34422700  0.82920800  1
  O  O32  1  0.66989700  0.48822800  0.32342500  1
  O  O33  1  0.46351300  0.37849200  0.17577000  1
  O  O34  1  0.20438900  0.20727700  0.08474000  1
  O  O35  1  0.21735700  0.24849700  0.43625400  1
  O  O36  1  0.21031100  0.19715300  0.26174800  1
  O  O37  1  0.34474700  0.26110700  0.66345000  1
  O  O38  1  0.81676400  0.47836700  0.82040700  1
  O  O39  1  0.91966100  0.53869300  0.16909600  1
  O  O40  1  0.52197900  0.33806700  0.82166200  1
  O  O41  1  0.66906700  0.33551400  0.96912600  1
  O  O42  1  0.67522100  0.34964600  0.46882700  1
  O  O43  1  0.51932000  0.18859100  0.32199300  1
  O  O44  1  0.92384300  0.37977100  0.67137100  1
  O  O45  1  0.81252300  0.33575600  0.31747400  1
  O  O46  1  0.34454800  0.08111000  0.16841500  1
  O  O47  1  0.19734700  0.00269000  0.74858100  1
  O  O48  1  0.20302600  0.99580100  0.92371600  1
  O  O49  1  0.45233700  0.07285900  0.66619000  1
  O  O50  1  0.66345800  0.18645700  0.81675800  1
  O  O51  1  0.61674000  0.07876500  0.17546300  1
  O  O52  1  0.91412500  0.25717600  0.16114900  1
  O  O53  1  0.02509700  0.23342500  0.93619800  1
  O  O54  1  0.98504600  0.19282200  0.76138800  1
  O  O55  1  0.73712200  0.08428300  0.66437800  1
  O  O56  1  0.79492100  0.98994700  0.43099700  1
  O  O57  1  0.80388000  0.00617200  0.25456100  1
loop_
_geom_bond_atom_site_label_1
_geom_bond_atom_site_label_2
_geom_bond_distance
_geom_bond_site_symmetry_2
Li0 O7 1.905212 1_555
Li0 O20 1.925429 1_554
Li0 O23 2.244030 1_555
Li0 O14 2.468051 1_555
Li1 O53 1.896685 1_554
Li1 O34 1.961786 1_555
Li1 O52 2.126002 1_455
Li1 O16 2.262227 1_555
Li2 O19 1.931942 1_555
Li2 O27 1.944387 1_555
Li2 O17 2.218875 1_555
Li2 O32 2.373748 1_555
Li3 O35 1.946088 1_555
Li3 O28 1.965989 1_555
Li3 O37 2.116531 1_555
Li3 O22 2.174062 1_555
Li4 O48 1.876617 1_555
Li4 O2 2.017660 1_456
Li4 O34 2.393643 1_566
Li4 O20 2.442135 1_455
Li5 O0 2.062960 1_655
Li5 O28 2.127703 1_655
Li5 O56 2.251013 1_545
Li5 O19 2.300423 1_545
Li5 O27 2.451295 1_545
Li5 O35 2.573226 1_655
O0 P13 1.479860 1_555
O1 P1 1.545229 1_555
O1 V4 1.901873 1_555
O2 P8 1.476017 1_555
O3 P0 1.562644 1_555
O3 V2 1.854173 1_555
O4 P0 1.549644 1_555
O4 V5 1.905629 1_565
O5 P3 1.566997 1_555
O5 V4 1.872772 1_555
O6 P2 1.565449 1_555
O6 V4 1.898925 1_555
O7 P15 1.485861 1_565
O8 P5 1.542936 1_555
O8 V5 1.894707 1_565
O9 P4 1.572697 1_555
O9 V2 1.850207 1_555
O10 P1 1.572302 1_555
O10 V3 1.860399 1_455
O11 P4 1.571050 1_555
O11 V5 1.865306 1_565
O12 P3 1.485319 1_555
O13 P4 1.483758 1_555
O14 P3 1.597658 1_555
O14 V0 1.848853 1_555
O15 P7 1.542952 1_555
O15 V2 1.919202 1_555
O16 P3 1.565134 1_555
O16 V3 1.978736 1_455
O17 P2 1.575940 1_555
O17 V0 1.918161 1_555
O18 P5 1.615144 1_555
O18 P6 1.618870 1_555
O19 P6 1.493158 1_555
O20 P5 1.491063 1_555
O21 P5 1.558415 1_555
O21 V1 1.878683 1_555
O22 P4 1.575888 1_555
O22 V1 1.937965 1_555
O23 P8 1.569961 1_555
O23 V0 1.922420 1_555
O24 P9 1.558063 1_555
O24 V0 1.877311 1_555
O25 P9 1.556299 1_555
O25 V3 1.860249 1_455
O26 P1 1.609720 1_555
O26 P8 1.612184 1_455
O27 P1 1.484831 1_655
O28 P14 1.494350 1_455
O29 P6 1.549986 1_555
O29 V2 1.867462 1_655
O30 P6 1.542997 1_555
O30 V1 1.922250 1_555
O31 P7 1.564408 1_555
O31 V1 1.847277 1_555
O32 P11 1.583685 1_555
O32 V0 1.890890 1_555
O33 P10 1.564705 1_555
O33 V0 1.880126 1_555
O34 P10 1.487036 1_555
O35 P9 1.481397 1_555
O36 P9 1.602556 1_555
O36 P10 1.626234 1_555
O37 P13 1.571437 1_555
O37 V1 1.923385 1_555
O38 P12 1.566151 1_555
O38 V2 1.871791 1_655
O39 P8 1.562280 1_555
O39 V3 1.894394 1_555
O40 P12 1.596762 1_555
O40 V1 1.813757 1_555
O41 P12 1.477282 1_555
O42 P11 1.479967 1_555
O43 P11 1.557105 1_555
O43 V4 1.890127 1_545
O44 P14 1.541907 1_555
O44 V2 1.936642 1_655
O45 P11 1.592432 1_555
O45 V3 1.826372 1_555
O46 P10 1.543319 1_555
O46 V4 1.909543 1_545
O47 P13 1.611628 1_555
O47 P0 1.614100 1_545
O48 P0 1.475300 1_555
O49 P13 1.558432 1_555
O49 V5 1.905530 1_555
O50 P12 1.564147 1_555
O50 V5 1.868757 1_555
O51 P15 1.557113 1_555
O51 V4 1.886132 1_545
O52 P15 1.560123 1_555
O52 V3 1.973802 1_555
O53 P7 1.487519 1_555
O54 P7 1.602369 1_655
O54 P14 1.629193 1_555
O55 P14 1.552333 1_555
O55 V5 1.891706 1_555
O56 P2 1.476877 1_555
O57 P15 1.613300 1_555
O57 P2 1.618058 1_545
