# generated using pymatgen
data_VCrO4
_symmetry_space_group_name_H-M   'P 1'
_cell_length_a   5.83189499
_cell_length_b   5.77918339
_cell_length_c   5.77916694
_cell_angle_alpha   115.44617931
_cell_angle_beta   59.69788154
_cell_angle_gamma   120.30175183
_symmetry_Int_Tables_number   1
_chemical_formula_structural   VCrO4
_chemical_formula_sum   'V2 Cr2 O8'
_cell_volume   141.13051791
_cell_formula_units_Z   2
loop_
 _symmetry_equiv_pos_site_id
 _symmetry_equiv_pos_as_xyz
  1  'x, y, z'
loop_
 _atom_site_type_symbol
 _atom_site_label
 _atom_site_symmetry_multiplicity
 _atom_site_fract_x
 _atom_site_fract_y
 _atom_site_fract_z
 _atom_site_occupancy
  V  V0  1  0.88586000  0.13591700  0.36419800  1
  V  V1  1  0.11411800  0.86416800  0.63594500  1
  Cr  Cr0  1  0.49978700  0.99982700  0.00019200  1
  Cr  Cr1  1  0.50021300  0.50016000  0.49977200  1
  O  O0  1  0.75655500  0.22576900  0.71265600  1
  O  O1  1  0.24349300  0.21274600  0.72580300  1
  O  O2  1  0.75693100  0.78762200  0.27379700  1
  O  O3  1  0.24312300  0.77379600  0.28755600  1
  O  O4  1  0.73062900  0.25224400  0.24775200  1
  O  O5  1  0.27384900  0.25227400  0.24776800  1
  O  O6  1  0.72615200  0.74775400  0.75228800  1
  O  O7  1  0.26929000  0.74772300  0.75227400  1
loop_
_geom_bond_atom_site_label_1
_geom_bond_atom_site_label_2
_geom_bond_distance
_geom_bond_site_symmetry_2
Cr0 O3 2.021751 1_555
Cr0 O0 2.022151 1_564
Cr0 O5 2.038497 1_565
Cr0 O4 2.038549 1_565
Cr0 O7 2.038595 1_554
Cr0 O6 2.038655 1_554
Cr1 O2 2.021962 1_555
Cr1 O1 2.021964 1_555
Cr1 O4 2.038231 1_555
Cr1 O5 2.038357 1_555
Cr1 O6 2.038810 1_555
Cr1 O7 2.038902 1_555
O0 V0 1.690497 1_555
O1 V1 1.691087 1_545
O2 V0 1.689790 1_565
O3 V1 1.690228 1_555
O4 V0 1.828136 1_555
O5 V0 1.828063 1_455
O6 V1 1.827964 1_655
O7 V1 1.827843 1_555
