# generated using pymatgen
data_Li4Mn3O8
_symmetry_space_group_name_H-M   'P 1'
_cell_length_a   6.07721717
_cell_length_b   6.07721717
_cell_length_c   6.07721757
_cell_angle_alpha   56.46020757
_cell_angle_beta   56.46020757
_cell_angle_gamma   56.46020210
_symmetry_Int_Tables_number   1
_chemical_formula_structural   Li4Mn3O8
_chemical_formula_sum   'Li4 Mn3 O8'
_cell_volume   145.72066510
_cell_formula_units_Z   1
loop_
 _symmetry_equiv_pos_site_id
 _symmetry_equiv_pos_as_xyz
  1  'x, y, z'
loop_
 _atom_site_type_symbol
 _atom_site_label
 _atom_site_symmetry_multiplicity
 _atom_site_fract_x
 _atom_site_fract_y
 _atom_site_fract_z
 _atom_site_occupancy
  Li  Li0  1  0.00000000  0.00000000  0.00000000  1
  Li  Li1  1  0.35796500  0.35796500  0.35796500  1
  Li  Li2  1  0.50000000  0.50000000  0.50000000  1
  Li  Li3  1  0.64203500  0.64203500  0.64203500  1
  Mn  Mn0  1  0.50000000  0.00000000  0.00000000  1
  Mn  Mn1  1  0.00000000  0.00000000  0.50000000  1
  Mn  Mn2  1  0.00000000  0.50000000  0.00000000  1
  O  O0  1  0.23297800  0.23297800  0.23297800  1
  O  O1  1  0.21922900  0.74411900  0.74411900  1
  O  O2  1  0.74411900  0.74411900  0.21922900  1
  O  O3  1  0.74411900  0.21922900  0.74411900  1
  O  O4  1  0.76702200  0.76702200  0.76702200  1
  O  O5  1  0.78077100  0.25588100  0.25588100  1
  O  O6  1  0.25588100  0.25588100  0.78077100  1
  O  O7  1  0.25588100  0.78077100  0.25588100  1
loop_
_geom_bond_atom_site_label_1
_geom_bond_atom_site_label_2
_geom_bond_distance
_geom_bond_site_symmetry_2
Li0 O5 2.169036 1_455
Li0 O7 2.169036 1_545
Li0 O1 2.169036 1_544
Li0 O3 2.169036 1_454
Li0 O6 2.169036 1_554
Li0 O2 2.169036 1_445
Li1 O0 1.908796 1_555
Li1 O7 2.067440 1_555
Li1 O5 2.067440 1_555
Li1 O6 2.067440 1_555
Li2 O3 2.037388 1_555
Li2 O1 2.037388 1_555
Li2 O7 2.037388 1_555
Li2 O5 2.037388 1_555
Li2 O2 2.037389 1_555
Li2 O6 2.037389 1_555
Li3 O4 1.908796 1_555
Li3 O3 2.067440 1_555
Li3 O1 2.067440 1_555
Li3 O2 2.067440 1_555
Mn0 O2 1.933805 1_545
Mn0 O6 1.933805 1_554
Mn0 O3 1.933805 1_554
Mn0 O7 1.933805 1_545
Mn0 O0 1.944229 1_555
Mn0 O4 1.944229 1_544
Mn1 O3 1.933805 1_455
Mn1 O1 1.933805 1_545
Mn1 O5 1.933805 1_455
Mn1 O7 1.933805 1_545
Mn1 O0 1.944229 1_555
Mn1 O4 1.944229 1_445
Mn2 O2 1.933805 1_455
Mn2 O6 1.933805 1_554
Mn2 O1 1.933805 1_554
Mn2 O5 1.933805 1_455
Mn2 O0 1.944229 1_555
Mn2 O4 1.944229 1_454
