# generated using pymatgen
data_BaSr7V8(Si2O7)8
_symmetry_space_group_name_H-M   'P 1'
_cell_length_a   14.24244900
_cell_length_b   7.93151700
_cell_length_c   10.77517759
_cell_angle_alpha   70.14002204
_cell_angle_beta   90.00000000
_cell_angle_gamma   90.00000000
_symmetry_Int_Tables_number   1
_chemical_formula_structural   BaSr7V8(Si2O7)8
_chemical_formula_sum   'Ba1 Sr7 V8 Si16 O56'
_cell_volume   1144.81686114
_cell_formula_units_Z   1
loop_
 _symmetry_equiv_pos_site_id
 _symmetry_equiv_pos_as_xyz
  1  'x, y, z'
loop_
 _atom_site_type_symbol
 _atom_site_label
 _atom_site_symmetry_multiplicity
 _atom_site_fract_x
 _atom_site_fract_y
 _atom_site_fract_z
 _atom_site_occupancy
  Ba  Ba0  1  0.00000000  0.59275500  0.35174000  1
  Sr  Sr0  1  0.25032400  0.41014500  0.14732200  1
  Sr  Sr1  1  0.74967600  0.41014500  0.14732200  1
  Sr  Sr2  1  0.50000000  0.58989700  0.35252500  1
  Sr  Sr3  1  0.25030000  0.40987100  0.64770300  1
  Sr  Sr4  1  0.74970000  0.40987100  0.64770300  1
  Sr  Sr5  1  0.50000000  0.58989000  0.85248500  1
  Sr  Sr6  1  0.00000000  0.58974500  0.85255700  1
  V  V0  1  0.50000000  0.21632000  0.19588400  1
  V  V1  1  0.00000000  0.21625000  0.19556600  1
  V  V2  1  0.25167300  0.78499600  0.30371700  1
  V  V3  1  0.74832700  0.78499600  0.30371700  1
  V  V4  1  0.50000000  0.21624300  0.69600200  1
  V  V5  1  0.00000000  0.21415700  0.69686700  1
  V  V6  1  0.25023000  0.78375700  0.80406500  1
  V  V7  1  0.74977000  0.78375700  0.80406500  1
  Si  Si0  1  0.38725000  0.78544000  0.05351400  1
  Si  Si1  1  0.61275000  0.78544000  0.05351400  1
  Si  Si2  1  0.88647200  0.78671600  0.05155600  1
  Si  Si3  1  0.11352800  0.78671600  0.05155600  1
  Si  Si4  1  0.13787600  0.21282800  0.44699600  1
  Si  Si5  1  0.36326300  0.21469700  0.44634800  1
  Si  Si6  1  0.63673700  0.21469700  0.44634800  1
  Si  Si7  1  0.86212400  0.21282800  0.44699600  1
  Si  Si8  1  0.11362700  0.78477200  0.55556000  1
  Si  Si9  1  0.38726100  0.78538200  0.55375400  1
  Si  Si10  1  0.61273900  0.78538200  0.55375400  1
  Si  Si11  1  0.88637300  0.78477200  0.55556000  1
  Si  Si12  1  0.13705900  0.21571500  0.94589900  1
  Si  Si13  1  0.36297000  0.21474500  0.94630800  1
  Si  Si14  1  0.63703000  0.21474500  0.94630800  1
  Si  Si15  1  0.86294100  0.21571500  0.94589900  1
  O  O0  1  0.40528300  0.30545700  0.04916000  1
  O  O1  1  0.59471700  0.30545700  0.04916000  1
  O  O2  1  0.09472300  0.30611900  0.04893600  1
  O  O3  1  0.90527700  0.30611900  0.04893600  1
  O  O4  1  0.50000000  0.99580700  0.25105300  1
  O  O5  1  0.00000000  0.99588800  0.25024800  1
  O  O6  1  0.00000000  0.72950800  0.06594400  1
  O  O7  1  0.50000000  0.72721900  0.06715000  1
  O  O8  1  0.40539900  0.30538100  0.29804300  1
  O  O9  1  0.90402800  0.30115600  0.29826100  1
  O  O10  1  0.09597200  0.30115600  0.29826100  1
  O  O11  1  0.59460100  0.30538100  0.29804300  1
  O  O12  1  0.84108800  0.69705000  0.19795500  1
  O  O13  1  0.15891200  0.69705000  0.19795500  1
  O  O14  1  0.34618900  0.69475000  0.20242100  1
  O  O15  1  0.65381100  0.69475000  0.20242100  1
  O  O16  1  0.25039400  0.27314800  0.43174900  1
  O  O17  1  0.25074100  0.00544200  0.24858600  1
  O  O18  1  0.74960600  0.27314800  0.43174900  1
  O  O19  1  0.74925900  0.00544200  0.24858600  1
  O  O20  1  0.15897900  0.69573900  0.45366000  1
  O  O21  1  0.34619700  0.69479700  0.45016800  1
  O  O22  1  0.65380300  0.69479700  0.45016800  1
  O  O23  1  0.84102100  0.69573900  0.45366000  1
  O  O24  1  0.09584700  0.30106100  0.55146100  1
  O  O25  1  0.59458300  0.30533300  0.54931300  1
  O  O26  1  0.40541700  0.30533300  0.54931300  1
  O  O27  1  0.90415300  0.30106100  0.55146100  1
  O  O28  1  0.00000000  0.72842900  0.56959800  1
  O  O29  1  0.50000000  0.72713600  0.56926000  1
  O  O30  1  0.50000000  0.99565900  0.75113900  1
  O  O31  1  0.37499300  0.99999800  0.50003000  1
  O  O32  1  0.00000000  0.99367200  0.75241500  1
  O  O33  1  0.62500700  0.99999800  0.50003000  1
  O  O34  1  0.87452100  0.99883300  0.50099700  1
  O  O35  1  0.12547900  0.99883300  0.50099700  1
  O  O36  1  0.40529800  0.30544600  0.79808700  1
  O  O37  1  0.09461300  0.30601600  0.79777400  1
  O  O38  1  0.59470200  0.30544600  0.79808700  1
  O  O39  1  0.90538700  0.30601600  0.79777400  1
  O  O40  1  0.15508600  0.69342700  0.70383700  1
  O  O41  1  0.34463500  0.69442300  0.70177400  1
  O  O42  1  0.65536500  0.69442300  0.70177400  1
  O  O43  1  0.84491400  0.69342700  0.70383700  1
  O  O44  1  0.25006100  0.27334700  0.93163700  1
  O  O45  1  0.25021000  0.00434500  0.74890100  1
  O  O46  1  0.74993900  0.27334700  0.93163700  1
  O  O47  1  0.74979000  0.00434500  0.74890100  1
  O  O48  1  0.15503700  0.69470700  0.94934400  1
  O  O49  1  0.34463700  0.69441600  0.95100800  1
  O  O50  1  0.65536300  0.69441600  0.95100800  1
  O  O51  1  0.84496300  0.69470700  0.94934400  1
  O  O52  1  0.37490000  0.00005600  0.99995300  1
  O  O53  1  0.62510000  0.00005600  0.99995300  1
  O  O54  1  0.87510800  0.00121900  0.99898400  1
  O  O55  1  0.12489200  0.00121900  0.99898400  1
loop_
_geom_bond_atom_site_label_1
_geom_bond_atom_site_label_2
_geom_bond_distance
_geom_bond_site_symmetry_2
Ba0 O23 2.758544 1_455
Ba0 O20 2.758544 1_555
Ba0 O13 2.760670 1_555
Ba0 O12 2.760670 1_455
Ba0 O28 2.895670 1_555
Ba0 O6 2.896607 1_555
Ba0 O9 2.907764 1_455
Ba0 O10 2.907764 1_555
Ba0 O27 2.909377 1_455
Ba0 O24 2.909377 1_555
Ba0 O5 3.007299 1_555
O0 Si13 1.628132 1_554
O0 V0 2.014867 1_555
O0 Sr0 2.697363 1_555
O0 Sr5 2.855163 1_554
O1 Si14 1.628132 1_554
O1 V0 2.014867 1_555
O1 Sr1 2.697363 1_555
O1 Sr5 2.855163 1_554
O2 Si12 1.628267 1_554
O2 V1 2.014750 1_555
O2 Sr0 2.703740 1_555
O2 Sr6 2.850251 1_554
O3 Si15 1.628267 1_554
O3 V1 2.014750 1_655
O3 Sr1 2.703740 1_555
O3 Sr6 2.850251 1_654
O4 V0 1.644982 1_565
O4 Sr2 3.028006 1_555
O5 V1 1.643862 1_565
O6 Si2 1.672287 1_455
O6 Si3 1.672287 1_555
O6 Sr6 2.871818 1_554
O7 Si0 1.663562 1_555
O7 Si1 1.663562 1_555
O7 Sr5 2.872012 1_554
O7 Sr2 2.892428 1_555
O8 Si5 1.627937 1_555
O8 V0 2.013549 1_555
O8 Sr0 2.699853 1_555
O8 Sr2 2.855264 1_555
O9 Si7 1.628682 1_555
O9 V1 2.013119 1_655
O9 Sr1 2.696279 1_555
O10 Si4 1.628682 1_555
O10 V1 2.013119 1_555
O10 Sr0 2.696279 1_555
O11 Si6 1.627937 1_555
O11 V0 2.013549 1_555
O11 Sr1 2.699853 1_555
O11 Sr2 2.855264 1_555
O12 Si2 1.627810 1_555
O12 V3 2.017622 1_555
O12 Sr1 2.830997 1_555
O13 Si3 1.627810 1_555
O13 V2 2.017622 1_555
O13 Sr0 2.830997 1_555
O14 Si0 1.627777 1_555
O14 V2 2.011618 1_555
O14 Sr2 2.681904 1_555
O14 Sr0 2.867557 1_555
O15 Si1 1.627777 1_555
O15 V3 2.011618 1_555
O15 Sr2 2.681904 1_555
O15 Sr1 2.867557 1_555
O16 Si4 1.664509 1_555
O16 Si5 1.665617 1_555
O16 Sr3 2.881863 1_555
O16 Sr0 2.882835 1_555
O17 V2 1.644536 1_545
O17 Sr0 3.019007 1_555
O18 Si7 1.664509 1_555
O18 Si6 1.665617 1_555
O18 Sr4 2.881863 1_555
O18 Sr1 2.882835 1_555
O19 V3 1.644536 1_545
O19 Sr1 3.019007 1_555
O20 Si8 1.627357 1_555
O20 V2 2.019233 1_555
O20 Sr3 2.825454 1_555
O21 Si9 1.627556 1_555
O21 V2 2.011803 1_555
O21 Sr2 2.681867 1_555
O21 Sr3 2.869624 1_555
O22 Si10 1.627556 1_555
O22 V3 2.011803 1_555
O22 Sr2 2.681867 1_555
O22 Sr4 2.869624 1_555
O23 Si11 1.627357 1_555
O23 V3 2.019233 1_555
O23 Sr4 2.825454 1_555
O24 Si4 1.627985 1_555
O24 V5 2.014849 1_555
O24 Sr3 2.695812 1_555
O25 Si6 1.627902 1_555
O25 V4 2.013308 1_555
O25 Sr4 2.699901 1_555
O25 Sr2 2.855398 1_555
O26 Si5 1.627902 1_555
O26 V4 2.013308 1_555
O26 Sr3 2.699901 1_555
O26 Sr2 2.855398 1_555
O27 Si7 1.627985 1_555
O27 V5 2.014849 1_655
O27 Sr4 2.695812 1_555
O28 Si8 1.672017 1_555
O28 Si11 1.672017 1_455
O28 Sr6 2.868318 1_555
O29 Si9 1.663461 1_555
O29 Si10 1.663461 1_555
O29 Sr5 2.870763 1_555
O29 Sr2 2.892396 1_555
O30 V4 1.645511 1_565
O30 Sr5 3.026954 1_555
O31 Si5 1.610300 1_565
O31 Si9 1.610498 1_555
O32 V5 1.644779 1_565
O32 Sr6 3.013227 1_555
O33 Si6 1.610300 1_565
O33 Si10 1.610498 1_555
O34 Si11 1.605787 1_555
O34 Si7 1.606102 1_565
O35 Si8 1.605787 1_555
O35 Si4 1.606102 1_565
O36 Si13 1.628210 1_555
O36 V4 2.014585 1_555
O36 Sr3 2.696875 1_555
O36 Sr5 2.855023 1_555
O37 Si12 1.627631 1_555
O37 V5 2.016702 1_555
O37 Sr3 2.702782 1_555
O37 Sr6 2.851517 1_555
O38 Si14 1.628210 1_555
O38 V4 2.014585 1_555
O38 Sr4 2.696875 1_555
O38 Sr5 2.855023 1_555
O39 Si15 1.627631 1_555
O39 V5 2.016702 1_655
O39 Sr4 2.702782 1_555
O39 Sr6 2.851517 1_655
O40 Si8 1.624734 1_555
O40 V6 2.010379 1_555
O40 Sr6 2.688431 1_555
O40 Sr3 2.861330 1_555
O41 Si9 1.628213 1_555
O41 V6 2.013794 1_555
O41 Sr5 2.702991 1_555
O41 Sr3 2.851626 1_555
O42 Si10 1.628213 1_555
O42 V7 2.013794 1_555
O42 Sr5 2.702991 1_555
O42 Sr4 2.851626 1_555
O43 Si11 1.624734 1_555
O43 V7 2.010379 1_555
O43 Sr6 2.688431 1_655
O43 Sr4 2.861330 1_555
O44 Si12 1.665859 1_555
O44 Si13 1.666462 1_555
O44 Sr3 2.877812 1_555
O44 Sr0 2.879542 1_556
O45 V6 1.645541 1_545
O45 Sr3 3.025142 1_555
O46 Si15 1.665859 1_555
O46 Si14 1.666462 1_555
O46 Sr4 2.877812 1_555
O46 Sr1 2.879542 1_556
O47 V7 1.645541 1_545
O47 Sr4 3.025142 1_555
O48 Si3 1.625159 1_556
O48 V6 2.009049 1_555
O48 Sr6 2.691904 1_555
O48 Sr0 2.866225 1_556
O49 Si0 1.628292 1_556
O49 V6 2.013624 1_555
O49 Sr5 2.703438 1_555
O49 Sr0 2.849914 1_556
O50 Si1 1.628292 1_556
O50 V7 2.013624 1_555
O50 Sr5 2.703438 1_555
O50 Sr1 2.849914 1_556
O51 Si2 1.625159 1_556
O51 V7 2.009049 1_555
O51 Sr6 2.691904 1_655
O51 Sr1 2.866225 1_556
O52 Si13 1.610524 1_555
O52 Si0 1.610625 1_546
O53 Si14 1.610524 1_555
O53 Si1 1.610625 1_546
O54 Si2 1.608354 1_546
O54 Si15 1.609463 1_555
O55 Si3 1.608354 1_546
O55 Si12 1.609463 1_555
