# generated using pymatgen
data_LiFeF4
_symmetry_space_group_name_H-M   'P 1'
_cell_length_a   8.61416500
_cell_length_b   8.67545500
_cell_length_c   8.81932000
_cell_angle_alpha   90.00000000
_cell_angle_beta   90.00000000
_cell_angle_gamma   90.00000000
_symmetry_Int_Tables_number   1
_chemical_formula_structural   LiFeF4
_chemical_formula_sum   'Li8 Fe8 F32'
_cell_volume   659.08366561
_cell_formula_units_Z   8
loop_
 _symmetry_equiv_pos_site_id
 _symmetry_equiv_pos_as_xyz
  1  'x, y, z'
loop_
 _atom_site_type_symbol
 _atom_site_label
 _atom_site_symmetry_multiplicity
 _atom_site_fract_x
 _atom_site_fract_y
 _atom_site_fract_z
 _atom_site_occupancy
  Li  Li0  1  0.28307500  0.19290300  0.96969000  1
  Li  Li1  1  0.28307500  0.19290300  0.53031000  1
  Li  Li2  1  0.21692500  0.69290300  0.03031000  1
  Li  Li3  1  0.21692500  0.69290300  0.46969000  1
  Li  Li4  1  0.78307500  0.30709700  0.96969000  1
  Li  Li5  1  0.78307500  0.30709700  0.53031000  1
  Li  Li6  1  0.71692500  0.80709700  0.46969000  1
  Li  Li7  1  0.71692500  0.80709700  0.03031000  1
  Fe  Fe0  1  0.93723100  0.61475600  0.75000000  1
  Fe  Fe1  1  0.11250700  0.99444400  0.75000000  1
  Fe  Fe2  1  0.38749300  0.49444400  0.25000000  1
  Fe  Fe3  1  0.56276900  0.11475600  0.25000000  1
  Fe  Fe4  1  0.43723100  0.88524400  0.75000000  1
  Fe  Fe5  1  0.61250700  0.50555600  0.75000000  1
  Fe  Fe6  1  0.88749300  0.00555600  0.25000000  1
  Fe  Fe7  1  0.06276900  0.38524400  0.25000000  1
  F  F0  1  0.92583900  0.86911600  0.09044300  1
  F  F1  1  0.92583900  0.86911600  0.40955700  1
  F  F2  1  0.07842200  0.59145100  0.90517200  1
  F  F3  1  0.07842200  0.59145100  0.59482800  1
  F  F4  1  0.05468900  0.15259000  0.25000000  1
  F  F5  1  0.16069100  0.60258000  0.25000000  1
  F  F6  1  0.24904700  0.86595600  0.60668800  1
  F  F7  1  0.24904700  0.86595600  0.89331200  1
  F  F8  1  0.25095300  0.36595600  0.10668800  1
  F  F9  1  0.25095300  0.36595600  0.39331200  1
  F  F10  1  0.33930900  0.10258000  0.75000000  1
  F  F11  1  0.44531100  0.65259000  0.75000000  1
  F  F12  1  0.42157800  0.09145100  0.09482800  1
  F  F13  1  0.42157800  0.09145100  0.40517200  1
  F  F14  1  0.57416100  0.36911600  0.90955700  1
  F  F15  1  0.57416100  0.36911600  0.59044300  1
  F  F16  1  0.42583900  0.63088400  0.09044300  1
  F  F17  1  0.42583900  0.63088400  0.40955700  1
  F  F18  1  0.57842200  0.90854900  0.59482800  1
  F  F19  1  0.57842200  0.90854900  0.90517200  1
  F  F20  1  0.55468900  0.34741000  0.25000000  1
  F  F21  1  0.66069100  0.89742000  0.25000000  1
  F  F22  1  0.74904700  0.63404400  0.60668800  1
  F  F23  1  0.74904700  0.63404400  0.89331200  1
  F  F24  1  0.75095300  0.13404400  0.10668800  1
  F  F25  1  0.75095300  0.13404400  0.39331200  1
  F  F26  1  0.83930900  0.39742000  0.75000000  1
  F  F27  1  0.94531100  0.84741000  0.75000000  1
  F  F28  1  0.92157800  0.40854900  0.09482800  1
  F  F29  1  0.92157800  0.40854900  0.40517200  1
  F  F30  1  0.07416100  0.13088400  0.59044300  1
  F  F31  1  0.07416100  0.13088400  0.90955700  1
loop_
_geom_bond_atom_site_label_1
_geom_bond_atom_site_label_2
_geom_bond_distance
_geom_bond_site_symmetry_2
F0 Fe6 1.868254 1_565
F0 Li7 1.951762 1_555
F1 Fe6 1.868254 1_565
F1 Li6 1.951762 1_555
F2 Fe0 1.841995 1_455
F2 Li2 1.848273 1_556
F3 Fe0 1.841995 1_455
F3 Li3 1.848273 1_555
F4 Fe6 1.923916 1_455
F4 Fe7 2.019579 1_555
F5 Fe7 2.065572 1_555
F5 Li3 2.145376 1_555
F5 Li2 2.145376 1_555
F5 Fe2 2.167272 1_555
F6 Li3 1.946876 1_555
F6 Fe1 2.055094 1_555
F6 Fe4 2.062347 1_555
F7 Li2 1.946876 1_556
F7 Fe1 2.055094 1_555
F7 Fe4 2.062347 1_555
F8 Li0 1.946876 1_554
F8 Fe2 2.055094 1_555
F8 Fe7 2.062347 1_555
F9 Li1 1.946876 1_555
F9 Fe2 2.055094 1_555
F9 Fe7 2.062347 1_555
F10 Fe4 2.065572 1_545
F10 Li1 2.145376 1_555
F10 Li0 2.145376 1_555
F10 Fe1 2.167272 1_545
F11 Fe5 1.923916 1_555
F11 Fe4 2.019579 1_555
F12 Fe3 1.841995 1_555
F12 Li0 1.848273 1_554
F13 Fe3 1.841995 1_555
F13 Li1 1.848273 1_555
F14 Fe5 1.868254 1_555
F14 Li4 1.951762 1_555
F15 Fe5 1.868254 1_555
F15 Li5 1.951762 1_555
F16 Fe2 1.868254 1_555
F16 Li2 1.951762 1_555
F17 Fe2 1.868254 1_555
F17 Li3 1.951762 1_555
F18 Fe4 1.841995 1_555
F18 Li6 1.848273 1_555
F19 Fe4 1.841995 1_555
F19 Li7 1.848273 1_556
F20 Fe2 1.923916 1_555
F20 Fe3 2.019579 1_555
F21 Fe3 2.065572 1_565
F21 Li7 2.145376 1_555
F21 Li6 2.145376 1_555
F21 Fe6 2.167272 1_565
F22 Li6 1.946876 1_555
F22 Fe5 2.055094 1_555
F22 Fe0 2.062347 1_555
F23 Li7 1.946876 1_556
F23 Fe5 2.055094 1_555
F23 Fe0 2.062347 1_555
F24 Li4 1.946876 1_554
F24 Fe6 2.055094 1_555
F24 Fe3 2.062347 1_555
F25 Li5 1.946876 1_555
F25 Fe6 2.055094 1_555
F25 Fe3 2.062347 1_555
F26 Fe0 2.065572 1_555
F26 Li4 2.145376 1_555
F26 Li5 2.145376 1_555
F26 Fe5 2.167272 1_555
F27 Fe1 1.923916 1_655
F27 Fe0 2.019579 1_555
F28 Fe7 1.841995 1_655
F28 Li4 1.848273 1_554
F29 Fe7 1.841995 1_655
F29 Li5 1.848273 1_555
F30 Fe1 1.868254 1_545
F30 Li1 1.951762 1_555
F31 Fe1 1.868254 1_545
F31 Li0 1.951762 1_555
