# generated using pymatgen
data_Ba3CuP2Br3O7
_symmetry_space_group_name_H-M   'P 1'
_cell_length_a   10.54512200
_cell_length_b   10.42469839
_cell_length_c   7.10247423
_cell_angle_alpha   90.56750834
_cell_angle_beta   90.37166621
_cell_angle_gamma   118.29839833
_symmetry_Int_Tables_number   1
_chemical_formula_structural   Ba3CuP2Br3O7
_chemical_formula_sum   'Ba6 Cu2 P4 Br6 O14'
_cell_volume   687.37410403
_cell_formula_units_Z   2
loop_
 _symmetry_equiv_pos_site_id
 _symmetry_equiv_pos_as_xyz
  1  'x, y, z'
loop_
 _atom_site_type_symbol
 _atom_site_label
 _atom_site_symmetry_multiplicity
 _atom_site_fract_x
 _atom_site_fract_y
 _atom_site_fract_z
 _atom_site_occupancy
  Ba  Ba0  1  0.39599800  0.24475700  0.06752900  1
  Ba  Ba1  1  0.93668100  0.24238900  0.32685600  1
  Ba  Ba2  1  0.35596000  0.74773700  0.39004800  1
  Ba  Ba3  1  0.66734700  0.26316000  0.60750100  1
  Ba  Ba4  1  0.01562300  0.74231400  0.62386200  1
  Ba  Ba5  1  0.63040100  0.76361400  0.98797400  1
  Cu  Cu0  1  0.99866300  0.74955900  0.99560000  1
  Cu  Cu1  1  0.00668700  0.25349800  0.00976800  1
  P  P0  1  0.68253100  0.97298100  0.35671900  1
  P  P1  1  0.66575800  0.52893200  0.32576700  1
  P  P2  1  0.30751400  0.08918800  0.62712600  1
  P  P3  1  0.31044900  0.40835300  0.63368100  1
  Br  Br0  1  0.98176700  0.74564100  0.21588700  1
  Br  Br1  1  0.23756800  0.75365800  0.02175800  1
  Br  Br2  1  0.20746700  0.25192700  0.24511100  1
  Br  Br3  1  0.78386300  0.74908700  0.76668000  1
  Br  Br4  1  0.76363600  0.26041500  0.97094900  1
  Br  Br5  1  0.03395700  0.25958200  0.80019800  1
  O  O0  1  0.66018800  0.03897800  0.20843100  1
  O  O1  1  0.72440200  0.75568800  0.37225500  1
  O  O2  1  0.81001700  0.44798100  0.45029000  1
  O  O3  1  0.82164200  0.05499800  0.48350600  1
  O  O4  1  0.54134200  0.50511800  0.36929700  1
  O  O5  1  0.54554400  0.00417400  0.37415300  1
  O  O6  1  0.43847900  0.47530200  0.61277700  1
  O  O7  1  0.43737100  0.02780300  0.60936000  1
  O  O8  1  0.15960200  0.47592900  0.52498300  1
  O  O9  1  0.15698400  0.02071300  0.51389900  1
  O  O10  1  0.30551900  0.99998600  0.76795700  1
  O  O11  1  0.31494800  0.49100500  0.78007100  1
  O  O12  1  0.44572800  0.02692400  0.89998200  1
  O  O13  1  0.45836300  0.47460900  0.91102700  1
loop_
_geom_bond_atom_site_label_1
_geom_bond_atom_site_label_2
_geom_bond_distance
_geom_bond_site_symmetry_2
Ba0 Br2 2.391740 1_555
Ba0 O13 2.444933 1_554
Ba0 O12 2.816287 1_554
Ba1 O3 2.083110 1_555
Ba1 Cu1 2.361368 1_655
Ba1 O8 2.810046 1_655
Ba1 Br2 2.873003 1_655
Ba1 O2 3.136600 1_555
Ba2 O5 2.469344 1_565
Ba2 O8 2.784153 1_555
Ba2 Br1 2.904928 1_555
Ba2 O7 3.033730 1_565
Ba3 O2 2.130373 1_555
Ba3 O7 2.502158 1_555
Ba3 Br4 2.773147 1_555
Ba4 Cu0 2.650216 1_455
Ba4 Br3 2.683485 1_455
Ba4 O9 2.685730 1_565
Ba4 Br0 2.919802 1_455
Ba4 O2 3.036145 1_455
Ba4 O10 3.118874 1_555
Ba5 Br3 2.317918 1_555
Ba5 O13 2.727474 1_555
Ba5 O1 2.913033 1_556
Ba5 O0 3.136927 1_566
Br0 Cu0 1.574584 1_554
Br1 Cu0 2.504961 1_454
Br2 Cu1 2.695272 1_555
Br3 Cu0 2.777716 1_555
Br4 Cu1 2.610871 1_656
Br5 Cu1 1.514060 1_556
O0 P0 1.342734 1_545
O1 P1 2.162217 1_555
O2 P1 2.241200 1_555
O3 P0 1.572350 1_545
O4 P1 1.255582 1_555
O5 P0 1.629317 1_545
O6 P3 1.201315 1_555
O7 P2 1.769754 1_555
O8 P3 2.163310 1_555
O9 P2 1.604282 1_555
O10 P2 1.365947 1_565
O10 O12 1.651457 1_565
O11 P3 1.329865 1_555
