# generated using pymatgen
data_Li3SbS4
_symmetry_space_group_name_H-M   'P 1'
_cell_length_a   7.39098774
_cell_length_b   7.39098774
_cell_length_c   6.91951708
_cell_angle_alpha   89.82808848
_cell_angle_beta   89.82808848
_cell_angle_gamma   65.59755166
_symmetry_Int_Tables_number   1
_chemical_formula_structural   Li3SbS4
_chemical_formula_sum   'Li6 Sb2 S8'
_cell_volume   344.22079887
_cell_formula_units_Z   2
loop_
 _symmetry_equiv_pos_site_id
 _symmetry_equiv_pos_as_xyz
  1  'x, y, z'
loop_
 _atom_site_type_symbol
 _atom_site_label
 _atom_site_symmetry_multiplicity
 _atom_site_fract_x
 _atom_site_fract_y
 _atom_site_fract_z
 _atom_site_occupancy
  Li  Li0  1  0.08941000  0.34061300  0.62788000  1
  Li  Li1  1  0.34061300  0.08941000  0.12788000  1
  Li  Li2  1  0.56948100  0.33576700  0.68239500  1
  Li  Li3  1  0.68438500  0.88327700  0.88778100  1
  Li  Li4  1  0.33576700  0.56948100  0.18239500  1
  Li  Li5  1  0.88327700  0.68438500  0.38778100  1
  Sb  Sb0  1  0.17374900  0.86351300  0.71216000  1
  Sb  Sb1  1  0.86351300  0.17374900  0.21216000  1
  S  S0  1  0.98589000  0.63704000  0.04932500  1
  S  S1  1  0.34569300  0.02992300  0.48335300  1
  S  S2  1  0.77644400  0.42500000  0.45709500  1
  S  S3  1  0.56059700  0.24011500  0.03240700  1
  S  S4  1  0.42500000  0.77644400  0.95709500  1
  S  S5  1  0.24011500  0.56059700  0.53240700  1
  S  S6  1  0.63704000  0.98589000  0.54932500  1
  S  S7  1  0.02992300  0.34569300  0.98335300  1
loop_
_geom_bond_atom_site_label_1
_geom_bond_atom_site_label_2
_geom_bond_distance
_geom_bond_site_symmetry_2
Li0 S5 2.409610 1_555
Li0 S2 2.440490 1_455
Li0 S7 2.495050 1_555
Li0 S1 2.503886 1_555
Li1 S3 2.409610 1_555
Li1 S4 2.440490 1_544
Li1 S1 2.495050 1_555
Li1 S7 2.503886 1_554
Li2 S2 2.453227 1_555
Li2 S3 2.529210 1_556
Li2 S5 2.535106 1_555
Li2 S6 2.594000 1_545
Li3 S4 2.402462 1_555
Li3 S6 2.440768 1_555
Li3 S0 2.485795 1_556
Li3 S3 2.609767 1_566
Li4 S4 2.453227 1_554
Li4 S5 2.529210 1_555
Li4 S3 2.535106 1_555
Li4 S0 2.594000 1_455
Li5 S2 2.402462 1_555
Li5 S0 2.440768 1_555
Li5 S6 2.485795 1_555
Li5 S5 2.609767 1_655
S0 S7 2.092159 1_654
S1 S6 2.092159 1_545
S1 Sb0 2.627195 1_545
S2 Sb1 2.399982 1_555
S3 Sb1 2.430171 1_555
S4 Sb0 2.399982 1_555
S5 Sb0 2.430171 1_555
S7 Sb1 2.627195 1_456
