# generated using pymatgen
data_Li3NiPCO7
_symmetry_space_group_name_H-M   'P 1'
_cell_length_a   6.39882900
_cell_length_b   8.35760113
_cell_length_c   9.93020423
_cell_angle_alpha   85.34026217
_cell_angle_beta   89.85884627
_cell_angle_gamma   89.64421631
_symmetry_Int_Tables_number   1
_chemical_formula_structural   Li3NiPCO7
_chemical_formula_sum   'Li12 Ni4 P4 C4 O28'
_cell_volume   529.28949040
_cell_formula_units_Z   4
loop_
 _symmetry_equiv_pos_site_id
 _symmetry_equiv_pos_as_xyz
  1  'x, y, z'
loop_
 _atom_site_type_symbol
 _atom_site_label
 _atom_site_symmetry_multiplicity
 _atom_site_fract_x
 _atom_site_fract_y
 _atom_site_fract_z
 _atom_site_occupancy
  Li  Li0  1  0.25158000  0.90164300  0.61316900  1
  Li  Li1  1  0.25593000  0.89986900  0.11957200  1
  Li  Li2  1  0.49806400  0.72496700  0.89122400  1
  Li  Li3  1  0.00994300  0.72504400  0.36583000  1
  Li  Li4  1  0.48860500  0.72492100  0.36433400  1
  Li  Li5  1  0.74467000  0.65705800  0.11815400  1
  Li  Li6  1  0.52214200  0.27786600  0.61946400  1
  Li  Li7  1  0.97803500  0.27831500  0.61948900  1
  Li  Li8  1  0.52755400  0.28087100  0.12721900  1
  Li  Li9  1  0.97302900  0.27991300  0.12732700  1
  Li  Li10  1  0.74961700  0.10473800  0.88861900  1
  Li  Li11  1  0.74884200  0.09117100  0.37689200  1
  Ni  Ni0  1  0.00205900  0.73088800  0.88481000  1
  Ni  Ni1  1  0.74913200  0.66571600  0.60004500  1
  Ni  Ni2  1  0.25045000  0.33247900  0.89756200  1
  Ni  Ni3  1  0.24914300  0.33375700  0.39557300  1
  P  P0  1  0.24559600  0.58767400  0.64037000  1
  P  P1  1  0.25226000  0.58509200  0.13585600  1
  P  P2  1  0.75355500  0.41522000  0.85601900  1
  P  P3  1  0.74934200  0.41236000  0.36059700  1
  C  C0  1  0.75562900  0.95881100  0.65091400  1
  C  C1  1  0.75461600  0.96070100  0.14514600  1
  C  C2  1  0.24473800  0.03887000  0.85279700  1
  C  C3  1  0.24986800  0.04022100  0.35168800  1
  O  O0  1  0.74799400  0.92275200  0.52737500  1
  O  O1  1  0.23266100  0.88919800  0.82148000  1
  O  O2  1  0.76007500  0.92642300  0.02010500  1
  O  O3  1  0.76321300  0.83777700  0.74501100  1
  O  O4  1  0.25042200  0.89206500  0.32190600  1
  O  O5  1  0.75343800  0.84979900  0.24357100  1
  O  O6  1  0.06066200  0.69357200  0.58504200  1
  O  O7  1  0.43643300  0.69179600  0.59454000  1
  O  O8  1  0.05982400  0.68786900  0.08368700  1
  O  O9  1  0.44031400  0.68938800  0.08819000  1
  O  O10  1  0.75679500  0.58214500  0.91209600  1
  O  O11  1  0.23140000  0.56689900  0.79992900  1
  O  O12  1  0.74766600  0.58189000  0.41339100  1
  O  O13  1  0.24501600  0.56241400  0.29360100  1
  O  O14  1  0.75245300  0.43649100  0.69835000  1
  O  O15  1  0.25011900  0.41901500  0.58866900  1
  O  O16  1  0.75020000  0.43153900  0.20519400  1
  O  O17  1  0.25173600  0.41601400  0.08323400  1
  O  O18  1  0.93895100  0.30648500  0.90727200  1
  O  O19  1  0.56302000  0.31550300  0.90940900  1
  O  O20  1  0.56146000  0.30839600  0.41545800  1
  O  O21  1  0.93748000  0.30782900  0.41602300  1
  O  O22  1  0.25457500  0.15240500  0.75677900  1
  O  O23  1  0.75198800  0.10411600  0.68471600  1
  O  O24  1  0.24944300  0.15670400  0.25650900  1
  O  O25  1  0.24960200  0.07415100  0.97633400  1
  O  O26  1  0.74870000  0.11119400  0.17365300  1
  O  O27  1  0.24996600  0.07800600  0.47580400  1
loop_
_geom_bond_atom_site_label_1
_geom_bond_atom_site_label_2
_geom_bond_distance
_geom_bond_site_symmetry_2
Li0 O27 1.925246 1_565
Li0 O1 2.066016 1_555
Li0 O7 2.129574 1_555
Li0 O6 2.168285 1_555
Li1 O25 1.951760 1_564
Li1 O4 2.005203 1_555
Li1 O9 2.155252 1_555
Li1 O8 2.230099 1_555
Li2 O9 1.988435 1_556
Li2 O10 2.036084 1_555
Li2 O1 2.251696 1_555
Li2 O3 2.379266 1_555
Li2 O11 2.389331 1_555
Li3 O12 2.097686 1_455
Li3 O4 2.105011 1_555
Li3 O13 2.179941 1_555
Li3 O6 2.196008 1_555
Li3 O5 2.244532 1_455
Li4 O12 2.073394 1_555
Li4 O4 2.081552 1_555
Li4 O13 2.225794 1_555
Li4 O5 2.282037 1_555
Li4 O7 2.304000 1_555
Li5 O9 1.984350 1_555
Li5 O16 2.008833 1_555
Li5 O8 2.058865 1_655
Li5 O5 2.115769 1_555
Li5 O10 2.188996 1_554
Li5 O2 2.381587 1_555
Li6 O20 2.036334 1_555
Li6 O15 2.105570 1_555
Li6 O23 2.125308 1_555
Li6 O14 2.177551 1_555
Li6 O22 2.380883 1_555
Li7 O21 2.032549 1_555
Li7 O15 2.114690 1_655
Li7 O23 2.121235 1_555
Li7 O14 2.140882 1_555
Li7 O22 2.419276 1_655
Li8 O26 2.024374 1_555
Li8 O16 2.097862 1_555
Li8 O17 2.116668 1_555
Li8 O19 2.170273 1_554
Li8 O24 2.384820 1_555
Li9 O26 2.043760 1_555
Li9 O16 2.090007 1_555
Li9 O17 2.146277 1_655
Li9 O18 2.189710 1_554
Li9 O24 2.368177 1_655
Li10 O2 1.900862 1_546
Li10 O23 2.025247 1_555
Li10 O18 2.102927 1_555
Li10 O19 2.145428 1_555
Li11 O0 1.967899 1_545
Li11 O26 2.011539 1_555
Li11 O20 2.227995 1_555
Li11 O21 2.242889 1_555
Li11 O5 2.501209 1_545
Ni0 O10 2.012270 1_455
Ni0 O8 2.013122 1_556
Ni0 O1 2.051314 1_555
Ni0 O3 2.202963 1_455
Ni0 O11 2.213390 1_555
Ni1 O7 2.011794 1_555
Ni1 O6 2.012166 1_655
Ni1 O12 2.034100 1_555
Ni1 O14 2.078296 1_555
Ni1 O3 2.118226 1_555
Ni1 O0 2.209874 1_555
Ni2 O19 2.007292 1_555
Ni2 O18 2.007606 1_455
Ni2 O17 2.023914 1_556
Ni2 O11 2.117130 1_555
Ni2 O22 2.135712 1_555
Ni2 O25 2.235827 1_555
Ni3 O21 2.015332 1_455
Ni3 O20 2.016843 1_555
Ni3 O13 2.088820 1_555
Ni3 O15 2.099194 1_555
Ni3 O24 2.104416 1_555
Ni3 O27 2.219623 1_555
C0 O23 1.286010 1_565
C0 O0 1.287911 1_555
C0 O3 1.320888 1_555
C1 O5 1.291235 1_555
C1 O2 1.297122 1_555
C1 O26 1.311768 1_565
C2 O25 1.285262 1_555
C2 O22 1.291087 1_555
C2 O1 1.316038 1_545
C3 O4 1.296196 1_545
C3 O27 1.296927 1_555
C3 O24 1.300589 1_555
O6 P0 1.548132 1_555
O7 P0 1.549730 1_555
O8 P1 1.562104 1_555
O9 P1 1.541110 1_555
O10 P2 1.543839 1_555
O11 P0 1.582302 1_555
O12 P3 1.550140 1_555
O13 P1 1.563112 1_555
O14 P2 1.561358 1_555
O15 P0 1.538944 1_555
O16 P3 1.538479 1_555
O17 P1 1.545937 1_555
O18 P2 1.551345 1_555
O19 P2 1.549105 1_555
O20 P3 1.558826 1_555
O21 P3 1.558051 1_555
