# generated using pymatgen
data_Li9Ti7Cr6O30
_symmetry_space_group_name_H-M   'P 1'
_cell_length_a   5.08683000
_cell_length_b   5.08683000
_cell_length_c   23.31239900
_cell_angle_alpha   90.00000000
_cell_angle_beta   90.00000000
_cell_angle_gamma   119.99999995
_symmetry_Int_Tables_number   1
_chemical_formula_structural   Li9Ti7Cr6O30
_chemical_formula_sum   'Li9 Ti7 Cr6 O30'
_cell_volume   522.41067965
_cell_formula_units_Z   1
loop_
 _symmetry_equiv_pos_site_id
 _symmetry_equiv_pos_as_xyz
  1  'x, y, z'
loop_
 _atom_site_type_symbol
 _atom_site_label
 _atom_site_symmetry_multiplicity
 _atom_site_fract_x
 _atom_site_fract_y
 _atom_site_fract_z
 _atom_site_occupancy
  Li  Li0  1  0.00000000  0.00000000  0.91331900  1
  Li  Li1  1  0.00000000  0.00000000  0.08291600  1
  Li  Li2  1  0.66666700  0.33333300  0.85820100  1
  Li  Li3  1  0.33333300  0.66666700  0.53464100  1
  Li  Li4  1  0.00000000  0.00000000  0.62625600  1
  Li  Li5  1  0.66666700  0.33333300  0.45689200  1
  Li  Li6  1  0.33333300  0.66666700  0.14324400  1
  Li  Li7  1  0.66666700  0.33333300  0.20846500  1
  Li  Li8  1  0.00000000  0.00000000  0.38157400  1
  Ti  Ti0  1  0.66666700  0.33333300  0.71188400  1
  Ti  Ti1  1  0.33333300  0.66666700  0.68962600  1
  Ti  Ti2  1  0.66666700  0.33333300  0.98196000  1
  Ti  Ti3  1  0.33333300  0.66666700  0.28764700  1
  Ti  Ti4  1  0.66666700  0.33333300  0.31675300  1
  Ti  Ti5  1  0.33333300  0.66666700  0.00525000  1
  Ti  Ti6  1  0.66666700  0.33333300  0.10722700  1
  Cr  Cr0  1  0.00000000  0.00000000  0.50239400  1
  Cr  Cr1  1  0.00000000  0.00000000  0.78978200  1
  Cr  Cr2  1  0.33333300  0.66666700  0.87689400  1
  Cr  Cr3  1  0.33333300  0.66666700  0.41378900  1
  Cr  Cr4  1  0.66666700  0.33333300  0.58871700  1
  Cr  Cr5  1  0.00000000  0.00000000  0.20305000  1
  O  O0  1  0.00118500  0.32998200  0.74432200  1
  O  O1  1  0.33180700  0.04650800  0.14898100  1
  O  O2  1  0.33370200  0.04542900  0.54922700  1
  O  O3  1  0.01365000  0.39046000  0.94295900  1
  O  O4  1  0.01637600  0.39091400  0.35233700  1
  O  O5  1  0.28939700  0.33331900  0.45361100  1
  O  O6  1  0.28994900  0.33381600  0.84623900  1
  O  O7  1  0.61887000  0.01404300  0.64956000  1
  O  O8  1  0.62711400  0.01370900  0.04362600  1
  O  O9  1  0.34087400  0.33338600  0.25457200  1
  O  O10  1  0.66661400  0.00748900  0.25457200  1
  O  O11  1  0.04386700  0.71005100  0.84623900  1
  O  O12  1  0.38659500  0.37288600  0.04362600  1
  O  O13  1  0.04392200  0.71060300  0.45361100  1
  O  O14  1  0.39517400  0.38113000  0.64956000  1
  O  O15  1  0.60908600  0.62546200  0.35233700  1
  O  O16  1  0.60954000  0.62319000  0.94295900  1
  O  O17  1  0.95457100  0.28827300  0.54922700  1
  O  O18  1  0.95349200  0.28529800  0.14898100  1
  O  O19  1  0.32879700  0.99881500  0.74432200  1
  O  O20  1  0.37681000  0.98635000  0.94295900  1
  O  O21  1  0.67001800  0.67120300  0.74432200  1
  O  O22  1  0.71172700  0.66629800  0.54922700  1
  O  O23  1  0.37453800  0.98362400  0.35233700  1
  O  O24  1  0.71470200  0.66819300  0.14898100  1
  O  O25  1  0.98595700  0.60482600  0.64956000  1
  O  O26  1  0.66618400  0.95613300  0.84623900  1
  O  O27  1  0.98629100  0.61340500  0.04362600  1
  O  O28  1  0.66668100  0.95607800  0.45361100  1
  O  O29  1  0.99251100  0.65912600  0.25457200  1
loop_
_geom_bond_atom_site_label_1
_geom_bond_atom_site_label_2
_geom_bond_distance
_geom_bond_site_symmetry_2
Li0 O20 2.071079 1_545
Li0 O3 2.071079 1_555
Li0 O16 2.071079 1_445
Li0 O11 2.236015 1_545
Li0 O26 2.236015 1_445
Li0 O6 2.236015 1_555
Li1 O8 2.138684 1_455
Li1 O27 2.138684 1_445
Li1 O12 2.138684 1_555
Li1 O18 2.208502 1_455
Li1 O24 2.208504 1_445
Li1 O1 2.208506 1_555
Li2 O26 1.937696 1_545
Li2 O11 1.937699 1_655
Li2 O6 1.937701 1_555
Li2 O3 2.567322 1_655
Li2 O20 2.567323 1_545
Li2 O16 2.567325 1_555
Li3 O2 1.955550 1_565
Li3 O17 1.955552 1_455
Li3 O22 1.955555 1_555
Li3 O13 2.472779 1_555
Li3 O28 2.472781 1_555
Li3 O5 2.472783 1_555
Li4 O7 2.048772 1_455
Li4 O14 2.048775 1_555
Li4 O25 2.048777 1_445
Li4 O17 2.401507 1_455
Li4 O2 2.401507 1_555
Li4 O22 2.401507 1_445
Li5 O28 1.920591 1_545
Li5 O13 1.920594 1_655
Li5 O5 1.920596 1_555
Li6 O1 1.940693 1_565
Li6 O18 1.940699 1_455
Li6 O24 1.940704 1_555
Li7 O10 1.975408 1_555
Li7 O29 1.975412 1_555
Li7 O9 1.975417 1_555
Li7 O18 2.113755 1_555
Li7 O24 2.113755 1_555
Li7 O1 2.113755 1_555
Li8 O23 2.063985 1_545
Li8 O4 2.063985 1_555
Li8 O15 2.063985 1_445
Li8 O13 2.316501 1_545
Li8 O28 2.316501 1_445
Li8 O5 2.316501 1_555
Cr0 O17 1.932509 1_455
Cr0 O2 1.932509 1_555
Cr0 O22 1.932509 1_445
Cr0 O13 1.959407 1_545
Cr0 O28 1.959407 1_445
Cr0 O5 1.959407 1_555
Cr1 O19 1.982581 1_545
Cr1 O0 1.982581 1_555
Cr1 O21 1.982581 1_445
Cr1 O11 2.070399 1_545
Cr1 O26 2.070399 1_445
Cr1 O6 2.070399 1_555
Cr2 O11 1.747146 1_555
Cr2 O26 1.747149 1_555
Cr2 O6 1.747151 1_555
Cr2 O20 2.169267 1_555
Cr2 O3 2.169268 1_555
Cr2 O16 2.169270 1_555
Cr3 O13 1.846112 1_555
Cr3 O28 1.846115 1_555
Cr3 O5 1.846117 1_555
Cr3 O23 2.087545 1_555
Cr3 O4 2.087547 1_555
Cr3 O15 2.087549 1_555
Cr4 O17 1.838629 1_555
Cr4 O2 1.838632 1_555
Cr4 O22 1.838633 1_555
Cr4 O14 2.077019 1_555
Cr4 O7 2.077019 1_555
Cr4 O25 2.077019 1_555
Cr5 O18 2.023431 1_455
Cr5 O24 2.023434 1_445
Cr5 O1 2.023435 1_555
Cr5 O29 2.093964 1_445
Cr5 O9 2.093966 1_555
Cr5 O10 2.093968 1_455
O0 Ti0 1.869950 1_455
O0 Ti1 2.126047 1_555
O1 Ti6 1.868813 1_555
O3 Ti2 1.874451 1_455
O3 Ti5 2.107714 1_556
O4 Ti4 1.848625 1_455
O4 Ti3 2.140054 1_555
O7 Ti1 1.880947 1_545
O7 Ti0 2.100748 1_555
O8 Ti5 1.874015 1_545
O8 Ti2 2.103203 1_554
O8 Ti6 2.134290 1_555
O9 Ti3 1.880219 1_555
O9 Ti4 2.201873 1_555
O10 Ti3 1.880219 1_545
O10 Ti4 2.201865 1_555
O12 Ti5 1.874018 1_555
O12 Ti2 2.103207 1_554
O12 Ti6 2.134294 1_555
O14 Ti1 1.880953 1_555
O14 Ti0 2.100748 1_555
O15 Ti4 1.848629 1_555
O15 Ti3 2.140056 1_555
O16 Ti2 1.874456 1_555
O16 Ti5 2.107716 1_556
O18 Ti6 1.868813 1_555
O19 Ti0 1.869952 1_565
O19 Ti1 2.126045 1_555
O20 Ti2 1.874453 1_565
O20 Ti5 2.107713 1_556
O21 Ti0 1.869954 1_555
O21 Ti1 2.126049 1_555
O23 Ti4 1.848627 1_565
O23 Ti3 2.140052 1_555
O24 Ti6 1.868813 1_555
O25 Ti1 1.880944 1_655
O25 Ti0 2.100748 1_555
O27 Ti5 1.874013 1_655
O27 Ti2 2.103204 1_554
O27 Ti6 2.134292 1_555
O29 Ti3 1.880219 1_655
O29 Ti4 2.201869 1_555
