# generated using pymatgen
data_Li3MnOF4
_symmetry_space_group_name_H-M   'P 1'
_cell_length_a   3.73877705
_cell_length_b   5.46102944
_cell_length_c   10.33381987
_cell_angle_alpha   91.46855356
_cell_angle_beta   89.99897503
_cell_angle_gamma   69.96897607
_symmetry_Int_Tables_number   1
_chemical_formula_structural   Li3MnOF4
_chemical_formula_sum   'Li6 Mn2 O2 F8'
_cell_volume   198.15425743
_cell_formula_units_Z   2
loop_
 _symmetry_equiv_pos_site_id
 _symmetry_equiv_pos_as_xyz
  1  'x, y, z'
loop_
 _atom_site_type_symbol
 _atom_site_label
 _atom_site_symmetry_multiplicity
 _atom_site_fract_x
 _atom_site_fract_y
 _atom_site_fract_z
 _atom_site_occupancy
  Li  Li0  1  0.16918700  0.66197100  0.36291700  1
  Li  Li1  1  0.66913100  0.66212600  0.86306900  1
  Li  Li2  1  0.64858000  0.70365000  0.16194900  1
  Li  Li3  1  0.14873800  0.70335200  0.66202500  1
  Li  Li4  1  0.86558700  0.26837300  0.31194200  1
  Li  Li5  1  0.36558300  0.26834400  0.81197000  1
  Mn  Mn0  1  0.48936400  0.02138800  0.51450200  1
  Mn  Mn1  1  0.98894800  0.02207800  0.01434500  1
  O  O0  1  0.02409000  0.95170700  0.49676600  1
  O  O1  1  0.52379100  0.95220500  0.99678200  1
  F  F0  1  0.09491700  0.81067000  0.17624300  1
  F  F1  1  0.59501600  0.81051400  0.67640900  1
  F  F2  1  0.82801400  0.34286100  0.13393700  1
  F  F3  1  0.32822400  0.34251800  0.63392900  1
  F  F4  1  0.67231500  0.65581700  0.35859200  1
  F  F5  1  0.17238200  0.65574800  0.85875000  1
  F  F6  1  0.37518700  0.24937600  0.36093700  1
  F  F7  1  0.87505100  0.24964900  0.86093900  1
loop_
_geom_bond_atom_site_label_1
_geom_bond_atom_site_label_2
_geom_bond_distance
_geom_bond_site_symmetry_2
Li0 O0 2.002690 1_555
Li1 O1 2.003022 1_555
Li2 O1 2.158296 1_554
Li3 O0 2.158435 1_555
Li4 O0 2.541040 1_645
Li5 O1 2.539161 1_545
Mn0 O0 1.910635 1_645
Mn0 O0 1.911639 1_545
Mn1 O1 1.910732 1_644
Mn1 O1 1.911582 1_544
F0 Li2 1.952394 1_455
F0 Li2 1.953244 1_555
F0 Mn1 2.018549 1_465
F0 Li0 2.093711 1_555
F1 Li3 1.952704 1_555
F1 Li3 1.953467 1_655
F1 Mn0 2.017094 1_565
F1 Li1 2.092955 1_555
F2 Li2 1.865773 1_555
F2 Li4 1.888935 1_555
F2 Mn1 2.031030 1_555
F3 Li3 1.866112 1_555
F3 Li5 1.888931 1_555
F3 Mn0 2.031445 1_555
F4 Li0 1.869986 1_655
F4 Li0 1.870351 1_555
F4 Li4 2.032647 1_555
F4 Li2 2.053476 1_555
F4 Mn0 2.439029 1_565
F5 Li1 1.869963 1_555
F5 Li1 1.870410 1_455
F5 Li5 2.032731 1_555
F5 Li3 2.054146 1_555
F5 Mn1 2.439877 1_466
F6 Li4 1.939531 1_555
F6 Li4 1.940237 1_455
F6 Mn0 1.996964 1_555
F6 Li0 2.116433 1_555
F7 Li5 1.939304 1_655
F7 Li5 1.940147 1_555
F7 Mn1 1.994332 1_556
F7 Li1 2.115801 1_555
