# generated using pymatgen
data_Li2FeCo3O8
_symmetry_space_group_name_H-M   'P 1'
_cell_length_a   5.73522366
_cell_length_b   5.73522366
_cell_length_c   5.73522444
_cell_angle_alpha   59.66878925
_cell_angle_beta   59.66878925
_cell_angle_gamma   59.66879164
_symmetry_Int_Tables_number   1
_chemical_formula_structural   Li2FeCo3O8
_chemical_formula_sum   'Li2 Fe1 Co3 O8'
_cell_volume   132.39018331
_cell_formula_units_Z   1
loop_
 _symmetry_equiv_pos_site_id
 _symmetry_equiv_pos_as_xyz
  1  'x, y, z'
loop_
 _atom_site_type_symbol
 _atom_site_label
 _atom_site_symmetry_multiplicity
 _atom_site_fract_x
 _atom_site_fract_y
 _atom_site_fract_z
 _atom_site_occupancy
  Li  Li0  1  0.12301500  0.12301500  0.12301500  1
  Li  Li1  1  0.49888300  0.49888300  0.49888300  1
  Fe  Fe0  1  0.88115400  0.88115400  0.88115400  1
  Co  Co0  1  0.01114900  0.49839500  0.49839500  1
  Co  Co1  1  0.49839500  0.01114900  0.49839500  1
  Co  Co2  1  0.49839500  0.49839500  0.01114900  1
  O  O0  1  0.26454900  0.26454900  0.26454900  1
  O  O1  1  0.24598800  0.24598800  0.71189100  1
  O  O2  1  0.24598800  0.71189100  0.24598800  1
  O  O3  1  0.71189100  0.24598800  0.24598800  1
  O  O4  1  0.28586100  0.74668300  0.74668300  1
  O  O5  1  0.74668300  0.28586100  0.74668300  1
  O  O6  1  0.74668300  0.74668300  0.28586100  1
  O  O7  1  0.74136700  0.74136700  0.74136700  1
loop_
_geom_bond_atom_site_label_1
_geom_bond_atom_site_label_2
_geom_bond_distance
_geom_bond_site_symmetry_2
Li0 O2 1.922936 1_545
Li0 O3 1.922936 1_455
Li0 O1 1.922936 1_554
Li0 O0 1.993285 1_555
Li1 O6 2.016139 1_555
Li1 O4 2.016139 1_555
Li1 O5 2.016139 1_555
Li1 O1 2.060415 1_555
Li1 O2 2.060416 1_555
Li1 O3 2.060416 1_555
Fe0 O5 1.887274 1_565
Fe0 O4 1.887274 1_655
Fe0 O6 1.887274 1_556
Fe0 O7 1.968681 1_555
Co0 O2 1.820728 1_555
Co0 O1 1.820728 1_555
Co0 O0 1.894467 1_555
Co0 O5 1.935691 1_455
Co0 O6 1.935692 1_455
Co0 O7 1.970692 1_455
Co1 O3 1.820728 1_555
Co1 O1 1.820728 1_555
Co1 O0 1.894467 1_555
Co1 O4 1.935691 1_545
Co1 O6 1.935692 1_545
Co1 O7 1.970692 1_545
Co2 O3 1.820728 1_555
Co2 O2 1.820728 1_555
Co2 O0 1.894467 1_555
Co2 O5 1.935692 1_554
Co2 O4 1.935692 1_554
Co2 O7 1.970692 1_554
