# generated using pymatgen
data_LiCuCO3
_symmetry_space_group_name_H-M   'P 1'
_cell_length_a   8.29697464
_cell_length_b   8.29697464
_cell_length_c   3.05428200
_cell_angle_alpha   90.00000000
_cell_angle_beta   90.00000000
_cell_angle_gamma   120.00000512
_symmetry_Int_Tables_number   1
_chemical_formula_structural   LiCuCO3
_chemical_formula_sum   'Li3 Cu3 C3 O9'
_cell_volume   182.08713704
_cell_formula_units_Z   3
loop_
 _symmetry_equiv_pos_site_id
 _symmetry_equiv_pos_as_xyz
  1  'x, y, z'
loop_
 _atom_site_type_symbol
 _atom_site_label
 _atom_site_symmetry_multiplicity
 _atom_site_fract_x
 _atom_site_fract_y
 _atom_site_fract_z
 _atom_site_occupancy
  Li  Li0  1  0.99451900  0.63199300  0.50000000  1
  Li  Li1  1  0.63747400  0.00548100  0.50000000  1
  Li  Li2  1  0.36800700  0.36252600  0.50000000  1
  Cu  Cu0  1  0.68739700  0.68832000  0.00000000  1
  Cu  Cu1  1  0.00092200  0.31260300  0.00000000  1
  Cu  Cu2  1  0.31168000  0.99907800  0.00000000  1
  C  C0  1  0.00000000  0.00000000  0.50000000  1
  C  C1  1  0.66666700  0.33333300  0.00000000  1
  C  C2  1  0.33333300  0.66666700  0.00000000  1
  O  O0  1  0.72216800  0.21170400  0.00000000  1
  O  O1  1  0.81840700  0.90937100  0.50000000  1
  O  O2  1  0.09096300  0.18159300  0.50000000  1
  O  O3  1  0.78829600  0.51046400  0.00000000  1
  O  O4  1  0.09062900  0.90903700  0.50000000  1
  O  O5  1  0.48953600  0.27783200  0.00000000  1
  O  O6  1  0.15428200  0.59655000  0.00000000  1
  O  O7  1  0.44226700  0.84571800  0.00000000  1
  O  O8  1  0.40345000  0.55773300  0.00000000  1
loop_
_geom_bond_atom_site_label_1
_geom_bond_atom_site_label_2
_geom_bond_distance
_geom_bond_site_symmetry_2
Li0 O4 2.021532 1_655
Li0 O3 2.133359 1_555
Li0 O3 2.133359 1_556
Li0 O6 2.136708 1_655
Li0 O6 2.136708 1_656
Li1 O1 2.021524 1_545
Li1 O0 2.133359 1_556
Li1 O0 2.133359 1_555
Li1 O7 2.136712 1_546
Li1 O7 2.136712 1_545
Li2 O2 2.021531 1_555
Li2 O5 2.133359 1_556
Li2 O5 2.133359 1_555
Li2 O8 2.136714 1_555
Li2 O8 2.136714 1_556
Cu0 O3 2.028247 1_555
Cu0 O8 2.042456 1_555
Cu0 O1 2.209946 1_555
Cu0 O1 2.209946 1_554
Cu1 O0 2.028239 1_455
Cu1 O6 2.042456 1_555
Cu1 O2 2.209946 1_554
Cu1 O2 2.209946 1_555
Cu2 O5 2.028241 1_565
Cu2 O7 2.042456 1_555
Cu2 O4 2.209946 1_554
Cu2 O4 2.209946 1_555
C0 O4 1.304810 1_545
C0 O2 1.304817 1_555
C0 O1 1.304817 1_445
C1 O0 1.301978 1_555
C1 O3 1.301984 1_555
C1 O5 1.301985 1_555
C2 O7 1.296590 1_555
C2 O6 1.296590 1_555
C2 O8 1.296590 1_555
