# generated using pymatgen
data_Ta2MnO6
_symmetry_space_group_name_H-M   'P 1'
_cell_length_a   5.81902300
_cell_length_b   7.14587100
_cell_length_c   10.85911687
_cell_angle_alpha   75.62342569
_cell_angle_beta   90.00000000
_cell_angle_gamma   90.00000000
_symmetry_Int_Tables_number   1
_chemical_formula_structural   Ta2MnO6
_chemical_formula_sum   'Ta8 Mn4 O24'
_cell_volume   437.40346516
_cell_formula_units_Z   4
loop_
 _symmetry_equiv_pos_site_id
 _symmetry_equiv_pos_as_xyz
  1  'x, y, z'
loop_
 _atom_site_type_symbol
 _atom_site_label
 _atom_site_symmetry_multiplicity
 _atom_site_fract_x
 _atom_site_fract_y
 _atom_site_fract_z
 _atom_site_occupancy
  Ta  Ta0  1  0.33700500  0.83624300  0.57798800  1
  Ta  Ta1  1  0.66299500  0.16375700  0.42201200  1
  Ta  Ta2  1  0.14919400  0.00000000  0.25000000  1
  Ta  Ta3  1  0.32033400  0.50000000  0.25000000  1
  Ta  Ta4  1  0.66299500  0.83624300  0.07798800  1
  Ta  Ta5  1  0.33700500  0.16375700  0.92201200  1
  Ta  Ta6  1  0.85080600  0.00000000  0.75000000  1
  Ta  Ta7  1  0.67966600  0.50000000  0.75000000  1
  Mn  Mn0  1  0.17681400  0.34455700  0.58190700  1
  Mn  Mn1  1  0.82318600  0.65544300  0.41809300  1
  Mn  Mn2  1  0.82318600  0.34455700  0.08190700  1
  Mn  Mn3  1  0.17681400  0.65544300  0.91809300  1
  O  O0  1  0.86673200  0.13834200  0.56565300  1
  O  O1  1  0.39419000  0.11937700  0.54848500  1
  O  O2  1  0.39764700  0.56157800  0.62154300  1
  O  O3  1  0.60581000  0.88062300  0.45151500  1
  O  O4  1  0.87895300  0.51214800  0.61436900  1
  O  O5  1  0.13326800  0.86165800  0.43434700  1
  O  O6  1  0.12104700  0.48785200  0.38563100  1
  O  O7  1  0.88586200  0.83464100  0.21468000  1
  O  O8  1  0.13326800  0.13834200  0.06565300  1
  O  O9  1  0.60235300  0.43842200  0.37845700  1
  O  O10  1  0.37054400  0.80098700  0.21864200  1
  O  O11  1  0.60581000  0.11937700  0.04848500  1
  O  O12  1  0.37054400  0.19901300  0.28135800  1
  O  O13  1  0.60235300  0.56157800  0.12154300  1
  O  O14  1  0.39419000  0.88062300  0.95151500  1
  O  O15  1  0.88586200  0.16535900  0.28532000  1
  O  O16  1  0.12104700  0.51214800  0.11436900  1
  O  O17  1  0.86673200  0.86165800  0.93434700  1
  O  O18  1  0.87895300  0.48785200  0.88563100  1
  O  O19  1  0.11413800  0.83464100  0.71468000  1
  O  O20  1  0.39764700  0.43842200  0.87845700  1
  O  O21  1  0.62945600  0.80098700  0.71864200  1
  O  O22  1  0.62945600  0.19901300  0.78135800  1
  O  O23  1  0.11413800  0.16535900  0.78532000  1
loop_
_geom_bond_atom_site_label_1
_geom_bond_atom_site_label_2
_geom_bond_distance
_geom_bond_site_symmetry_2
Mn0 O2 2.138462 1_555
Mn0 O1 2.147316 1_555
Mn0 O6 2.147749 1_555
Mn0 O4 2.184559 1_455
Mn0 O23 2.290703 1_555
Mn0 O0 2.363797 1_455
Mn1 O9 2.138462 1_555
Mn1 O3 2.147316 1_555
Mn1 O4 2.147749 1_555
Mn1 O6 2.184559 1_655
Mn1 O7 2.290703 1_555
Mn1 O5 2.363797 1_655
Mn2 O13 2.138462 1_555
Mn2 O11 2.147316 1_555
Mn2 O18 2.147749 1_554
Mn2 O16 2.184559 1_655
Mn2 O15 2.290703 1_555
Mn2 O8 2.363797 1_655
Mn3 O20 2.138462 1_555
Mn3 O14 2.147316 1_555
Mn3 O16 2.147749 1_556
Mn3 O18 2.184559 1_455
Mn3 O19 2.290703 1_555
Mn3 O17 2.363797 1_455
O0 Ta1 1.931543 1_555
O0 Ta6 2.002628 1_555
O1 Ta0 1.996241 1_545
O1 Ta1 2.053568 1_555
O2 Ta0 1.933781 1_555
O2 Ta7 2.127856 1_555
O3 Ta1 1.996241 1_565
O3 Ta0 2.053568 1_555
O4 Ta7 1.859592 1_555
O5 Ta0 1.931543 1_555
O5 Ta2 2.002628 1_565
O6 Ta3 1.859592 1_555
O7 Ta4 1.968976 1_555
O7 Ta2 2.028909 1_665
O8 Ta5 1.931543 1_554
O8 Ta2 2.002628 1_555
O9 Ta1 1.933781 1_555
O9 Ta3 2.127856 1_555
O10 Ta2 2.009455 1_565
O10 Ta3 2.112729 1_555
O10 Ta4 2.258610 1_555
O11 Ta4 1.996241 1_545
O11 Ta5 2.053568 1_554
O12 Ta2 2.009455 1_555
O12 Ta3 2.112729 1_555
O12 Ta1 2.258610 1_555
O13 Ta4 1.933781 1_555
O13 Ta3 2.127856 1_555
O14 Ta5 1.996241 1_565
O14 Ta4 2.053568 1_556
O15 Ta1 1.968976 1_555
O15 Ta2 2.028909 1_655
O16 Ta3 1.859592 1_555
O17 Ta4 1.931543 1_556
O17 Ta6 2.002628 1_565
O18 Ta7 1.859592 1_555
O19 Ta0 1.968976 1_555
O19 Ta6 2.028909 1_465
O20 Ta5 1.933781 1_555
O20 Ta7 2.127856 1_555
O21 Ta6 2.009455 1_565
O21 Ta7 2.112729 1_555
O21 Ta0 2.258610 1_555
O22 Ta6 2.009455 1_555
O22 Ta7 2.112729 1_555
O22 Ta5 2.258610 1_555
O23 Ta5 1.968976 1_555
O23 Ta6 2.028909 1_455
