# generated using pymatgen
data_Ti3Cr2Fe(PO4)6
_symmetry_space_group_name_H-M   'P 1'
_cell_length_a   8.65731398
_cell_length_b   8.65731398
_cell_length_c   8.65731376
_cell_angle_alpha   60.10858156
_cell_angle_beta   60.10858156
_cell_angle_gamma   60.10857729
_symmetry_Int_Tables_number   1
_chemical_formula_structural   Ti3Cr2Fe(PO4)6
_chemical_formula_sum   'Ti3 Cr2 Fe1 P6 O24'
_cell_volume   459.94043265
_cell_formula_units_Z   1
loop_
 _symmetry_equiv_pos_site_id
 _symmetry_equiv_pos_as_xyz
  1  'x, y, z'
loop_
 _atom_site_type_symbol
 _atom_site_label
 _atom_site_symmetry_multiplicity
 _atom_site_fract_x
 _atom_site_fract_y
 _atom_site_fract_z
 _atom_site_occupancy
  Ti  Ti0  1  0.85532100  0.85532100  0.85532100  1
  Ti  Ti1  1  0.64519500  0.64519500  0.64519500  1
  Ti  Ti2  1  0.35345600  0.35345600  0.35345600  1
  Cr  Cr0  1  0.00297300  0.00297300  0.00297300  1
  Cr  Cr1  1  0.50057800  0.50057800  0.50057800  1
  Fe  Fe0  1  0.14468100  0.14468100  0.14468100  1
  P  P0  1  0.04251300  0.74824200  0.45694000  1
  P  P1  1  0.74824200  0.45694000  0.04251300  1
  P  P2  1  0.45694000  0.04251300  0.74824200  1
  P  P3  1  0.54514900  0.95518200  0.24807300  1
  P  P4  1  0.24807300  0.54514900  0.95518200  1
  P  P5  1  0.95518200  0.24807300  0.54514900  1
  O  O0  1  0.50922700  0.88084900  0.68300300  1
  O  O1  1  0.88084900  0.68300300  0.50922700  1
  O  O2  1  0.74247100  0.94200300  0.08567800  1
  O  O3  1  0.68300300  0.50922700  0.88084900  1
  O  O4  1  0.39356100  0.98295100  0.19116900  1
  O  O5  1  0.56859900  0.76369700  0.41568300  1
  O  O6  1  0.08567800  0.74247100  0.94200300  1
  O  O7  1  0.41568300  0.56859900  0.76369700  1
  O  O8  1  0.99913000  0.80701800  0.62180700  1
  O  O9  1  0.76369700  0.41568300  0.56859900  1
  O  O10  1  0.05116800  0.90695300  0.26610700  1
  O  O11  1  0.80701800  0.62180700  0.99913000  1
  O  O12  1  0.19116900  0.39356100  0.98295100  1
  O  O13  1  0.94200300  0.08567800  0.74247100  1
  O  O14  1  0.23433300  0.58176300  0.44620600  1
  O  O15  1  0.98295100  0.19116900  0.39356100  1
  O  O16  1  0.58176300  0.44620600  0.23433300  1
  O  O17  1  0.90695300  0.26610700  0.05116800  1
  O  O18  1  0.44620600  0.23433300  0.58176300  1
  O  O19  1  0.62180700  0.99913000  0.80701800  1
  O  O20  1  0.30592000  0.50032000  0.12207700  1
  O  O21  1  0.26610700  0.05116800  0.90695300  1
  O  O22  1  0.12207700  0.30592000  0.50032000  1
  O  O23  1  0.50032000  0.12207700  0.30592000  1
loop_
_geom_bond_atom_site_label_1
_geom_bond_atom_site_label_2
_geom_bond_distance
_geom_bond_site_symmetry_2
Cr0 O10 2.183747 1_545
Cr0 O17 2.183747 1_455
Cr0 O21 2.183747 1_554
Cr0 O13 2.253387 1_454
Cr0 O6 2.253387 1_544
Cr0 O2 2.253387 1_445
Cr1 O16 2.272749 1_555
Cr1 O14 2.272749 1_555
Cr1 O18 2.272749 1_555
Cr1 O7 2.304938 1_555
Cr1 O9 2.304938 1_555
Cr1 O5 2.304938 1_555
Fe0 O4 2.015090 1_545
Fe0 O15 2.015090 1_455
Fe0 O12 2.015090 1_554
Fe0 O17 2.156906 1_455
Fe0 O21 2.156906 1_554
Fe0 O10 2.156906 1_545
O0 P2 1.544120 1_565
O0 Ti1 1.882243 1_555
O1 P0 1.544120 1_655
O1 Ti1 1.882243 1_555
O2 P3 1.574683 1_555
O2 Ti0 2.076946 1_554
O3 P1 1.544120 1_556
O3 Ti1 1.882243 1_555
O4 P3 1.494864 1_555
O5 P3 1.567000 1_555
O5 Ti1 2.010886 1_555
O6 P4 1.574683 1_555
O6 Ti0 2.076946 1_455
O7 P4 1.567000 1_555
O7 Ti1 2.010886 1_555
O8 P0 1.560858 1_655
O8 Ti0 1.904425 1_555
O9 P5 1.567000 1_555
O9 Ti1 2.010886 1_555
O10 P0 1.529588 1_555
O11 P1 1.560858 1_556
O11 Ti0 1.904425 1_555
O12 P4 1.494864 1_555
O13 P5 1.574683 1_555
O13 Ti0 2.076946 1_545
O14 P0 1.561323 1_555
O14 Ti2 2.083217 1_555
O15 P5 1.494864 1_555
O16 P1 1.561323 1_555
O16 Ti2 2.083217 1_555
O17 P1 1.529588 1_555
O18 P2 1.561323 1_555
O18 Ti2 2.083217 1_555
O19 P2 1.560858 1_565
O19 Ti0 1.904425 1_555
O20 P4 1.567683 1_554
O20 Ti2 1.886810 1_555
O21 P2 1.529588 1_555
O22 P5 1.567683 1_455
O22 Ti2 1.886810 1_555
O23 P3 1.567683 1_545
O23 Ti2 1.886810 1_555
