# generated using pymatgen
data_Li9Mn15O32
_symmetry_space_group_name_H-M   'P 1'
_cell_length_a   8.20266487
_cell_length_b   8.20266487
_cell_length_c   10.03062286
_cell_angle_alpha   66.00595624
_cell_angle_beta   66.00595624
_cell_angle_gamma   89.73550801
_symmetry_Int_Tables_number   1
_chemical_formula_structural   Li9Mn15O32
_chemical_formula_sum   'Li9 Mn15 O32'
_cell_volume   552.75321012
_cell_formula_units_Z   1
loop_
 _symmetry_equiv_pos_site_id
 _symmetry_equiv_pos_as_xyz
  1  'x, y, z'
loop_
 _atom_site_type_symbol
 _atom_site_label
 _atom_site_symmetry_multiplicity
 _atom_site_fract_x
 _atom_site_fract_y
 _atom_site_fract_z
 _atom_site_occupancy
  Li  Li0  1  0.50000000  0.50000000  0.00000000  1
  Li  Li1  1  0.18953400  0.68213900  0.87787400  1
  Li  Li2  1  0.68213900  0.18953400  0.87787400  1
  Li  Li3  1  0.56337800  0.56337800  0.62733200  1
  Li  Li4  1  0.06632500  0.06632500  0.62259300  1
  Li  Li5  1  0.93367500  0.93367500  0.37740700  1
  Li  Li6  1  0.43662200  0.43662200  0.37266800  1
  Li  Li7  1  0.81046600  0.31786100  0.12212600  1
  Li  Li8  1  0.31786100  0.81046600  0.12212600  1
  Mn  Mn0  1  0.24967900  0.24967900  0.00322400  1
  Mn  Mn1  1  0.75032100  0.75032100  0.99677600  1
  Mn  Mn2  1  0.00000000  0.00000000  0.00000000  1
  Mn  Mn3  1  0.37590900  0.12461300  0.75031700  1
  Mn  Mn4  1  0.12461300  0.37590900  0.75031700  1
  Mn  Mn5  1  0.62739700  0.87326700  0.74982200  1
  Mn  Mn6  1  0.87326700  0.62739700  0.74982200  1
  Mn  Mn7  1  0.00000000  0.50000000  0.50000000  1
  Mn  Mn8  1  0.25249200  0.74750800  0.50000000  1
  Mn  Mn9  1  0.74750800  0.25249200  0.50000000  1
  Mn  Mn10  1  0.50000000  0.00000000  0.50000000  1
  Mn  Mn11  1  0.87538700  0.62409100  0.24968300  1
  Mn  Mn12  1  0.37260300  0.12673300  0.25017800  1
  Mn  Mn13  1  0.12673300  0.37260300  0.25017800  1
  Mn  Mn14  1  0.62409100  0.87538700  0.24968300  1
  O  O0  1  0.01884400  0.24119800  0.98630700  1
  O  O1  1  0.24119800  0.01884400  0.98630700  1
  O  O2  1  0.76427400  0.53121100  0.97664000  1
  O  O3  1  0.53121100  0.76427400  0.97664000  1
  O  O4  1  0.35408200  0.35408200  0.76746700  1
  O  O5  1  0.64745100  0.64745100  0.74577800  1
  O  O6  1  0.13237100  0.13237100  0.76318400  1
  O  O7  1  0.86017900  0.86017900  0.75861900  1
  O  O8  1  0.61984700  0.12188900  0.73368000  1
  O  O9  1  0.39782200  0.89424200  0.73632200  1
  O  O10  1  0.12188900  0.61984700  0.73368000  1
  O  O11  1  0.89424200  0.39782200  0.73632200  1
  O  O12  1  0.01146700  0.72994700  0.50982700  1
  O  O13  1  0.50496400  0.22991000  0.51369400  1
  O  O14  1  0.22991000  0.50496400  0.51369400  1
  O  O15  1  0.72994700  0.01146700  0.50982700  1
  O  O16  1  0.77009000  0.49503600  0.48630600  1
  O  O17  1  0.98853300  0.27005300  0.49017300  1
  O  O18  1  0.27005300  0.98853300  0.49017300  1
  O  O19  1  0.49503600  0.77009000  0.48630600  1
  O  O20  1  0.60217800  0.10575800  0.26367800  1
  O  O21  1  0.10575800  0.60217800  0.26367800  1
  O  O22  1  0.87811100  0.38015300  0.26632000  1
  O  O23  1  0.38015300  0.87811100  0.26632000  1
  O  O24  1  0.86762900  0.86762900  0.23681600  1
  O  O25  1  0.13982100  0.13982100  0.24138100  1
  O  O26  1  0.35254900  0.35254900  0.25422200  1
  O  O27  1  0.64591800  0.64591800  0.23253300  1
  O  O28  1  0.23572600  0.46878900  0.02336000  1
  O  O29  1  0.46878900  0.23572600  0.02336000  1
  O  O30  1  0.75880200  0.98115600  0.01369300  1
  O  O31  1  0.98115600  0.75880200  0.01369300  1
loop_
_geom_bond_atom_site_label_1
_geom_bond_atom_site_label_2
_geom_bond_distance
_geom_bond_site_symmetry_2
Li0 O2 2.088739 1_554
Li0 O3 2.088739 1_554
Li0 O29 2.088739 1_555
Li0 O28 2.088739 1_555
Li0 O5 2.103592 1_554
Li0 O26 2.103592 1_555
Li1 O28 1.924151 1_556
Li1 O10 1.979206 1_555
Li1 O31 1.991480 1_456
Li1 O9 2.001865 1_555
Li2 O29 1.924151 1_556
Li2 O8 1.979206 1_555
Li2 O30 1.991480 1_546
Li2 O11 2.001865 1_555
Li3 O5 1.923486 1_555
Li3 O19 1.968697 1_555
Li3 O16 1.968697 1_555
Li3 O4 1.993122 1_555
Li4 O6 1.954760 1_555
Li4 O18 1.959158 1_545
Li4 O17 1.959158 1_455
Li4 O7 1.963132 1_445
Li5 O24 1.954760 1_555
Li5 O15 1.959158 1_565
Li5 O12 1.959158 1_655
Li5 O25 1.963132 1_665
Li6 O26 1.923486 1_555
Li6 O13 1.968697 1_555
Li6 O14 1.968697 1_555
Li6 O27 1.993122 1_555
Li7 O2 1.924151 1_554
Li7 O22 1.979206 1_555
Li7 O0 1.991480 1_654
Li7 O20 2.001865 1_555
Li8 O3 1.924151 1_554
Li8 O23 1.979206 1_555
Li8 O1 1.991480 1_564
Li8 O21 2.001865 1_555
Mn0 O29 1.886441 1_555
Mn0 O28 1.886441 1_555
Mn0 O4 1.942091 1_554
Mn0 O25 1.958766 1_555
Mn0 O1 1.972550 1_554
Mn0 O0 1.972550 1_554
Mn1 O3 1.886441 1_555
Mn1 O2 1.886441 1_555
Mn1 O27 1.942091 1_556
Mn1 O7 1.958766 1_555
Mn1 O30 1.972550 1_556
Mn1 O31 1.972550 1_556
Mn2 O1 1.929156 1_554
Mn2 O31 1.929156 1_445
Mn2 O30 1.929156 1_445
Mn2 O0 1.929156 1_554
Mn2 O24 1.953487 1_445
Mn2 O6 1.953487 1_554
Mn3 O8 1.939888 1_555
Mn3 O1 1.946369 1_555
Mn3 O13 1.948796 1_555
Mn3 O6 1.951198 1_555
Mn3 O9 1.953176 1_545
Mn3 O4 1.959520 1_555
Mn4 O10 1.939888 1_555
Mn4 O0 1.946369 1_555
Mn4 O14 1.948796 1_555
Mn4 O6 1.951198 1_555
Mn4 O11 1.953176 1_455
Mn4 O4 1.959520 1_555
Mn5 O3 1.868255 1_555
Mn5 O5 1.874183 1_555
Mn5 O9 1.944107 1_555
Mn5 O7 1.947479 1_555
Mn5 O8 1.981791 1_565
Mn5 O15 1.982491 1_565
Mn6 O2 1.868255 1_555
Mn6 O5 1.874183 1_555
Mn6 O11 1.944107 1_555
Mn6 O7 1.947479 1_555
Mn6 O10 1.981791 1_655
Mn6 O12 1.982491 1_655
Mn7 O17 1.933033 1_455
Mn7 O12 1.933033 1_555
Mn7 O21 1.947458 1_555
Mn7 O11 1.947458 1_455
Mn7 O16 1.947558 1_455
Mn7 O14 1.947558 1_555
Mn8 O10 1.926212 1_555
Mn8 O23 1.926212 1_555
Mn8 O12 1.942105 1_555
Mn8 O18 1.942105 1_555
Mn8 O14 1.942106 1_555
Mn8 O19 1.942106 1_555
Mn9 O8 1.926212 1_555
Mn9 O22 1.926212 1_555
Mn9 O15 1.942105 1_555
Mn9 O17 1.942105 1_555
Mn9 O13 1.942106 1_555
Mn9 O16 1.942106 1_555
Mn10 O18 1.933033 1_545
Mn10 O15 1.933033 1_555
Mn10 O20 1.947458 1_555
Mn10 O9 1.947458 1_545
Mn10 O19 1.947558 1_545
Mn10 O13 1.947558 1_555
Mn11 O22 1.939888 1_555
Mn11 O31 1.946369 1_555
Mn11 O16 1.948796 1_555
Mn11 O24 1.951198 1_555
Mn11 O21 1.953176 1_655
Mn11 O27 1.959520 1_555
Mn12 O29 1.868255 1_555
Mn12 O26 1.874183 1_555
Mn12 O20 1.944107 1_555
Mn12 O25 1.947479 1_555
Mn12 O23 1.981791 1_545
Mn12 O18 1.982491 1_545
Mn13 O28 1.868255 1_555
Mn13 O26 1.874183 1_555
Mn13 O21 1.944107 1_555
Mn13 O25 1.947479 1_555
Mn13 O22 1.981791 1_455
Mn13 O17 1.982491 1_455
Mn14 O23 1.939888 1_555
Mn14 O30 1.946369 1_555
Mn14 O19 1.948796 1_555
Mn14 O24 1.951198 1_555
Mn14 O20 1.953176 1_565
Mn14 O27 1.959520 1_555
