# generated using pymatgen
data_LiVSi3O8
_symmetry_space_group_name_H-M   'P 1'
_cell_length_a   7.19366955
_cell_length_b   12.79980716
_cell_length_c   8.09077627
_cell_angle_alpha   92.35286758
_cell_angle_beta   65.74508963
_cell_angle_gamma   98.99413641
_symmetry_Int_Tables_number   1
_chemical_formula_structural   LiVSi3O8
_chemical_formula_sum   'Li4 V4 Si12 O32'
_cell_volume   670.64398718
_cell_formula_units_Z   4
loop_
 _symmetry_equiv_pos_site_id
 _symmetry_equiv_pos_as_xyz
  1  'x, y, z'
loop_
 _atom_site_type_symbol
 _atom_site_label
 _atom_site_symmetry_multiplicity
 _atom_site_fract_x
 _atom_site_fract_y
 _atom_site_fract_z
 _atom_site_occupancy
  Li  Li0  1  0.18036600  0.46510100  0.21243400  1
  Li  Li1  1  0.18013600  0.96532700  0.71258600  1
  Li  Li2  1  0.81963700  0.53489800  0.78757000  1
  Li  Li3  1  0.81985800  0.03467300  0.28742000  1
  V  V0  1  0.80828500  0.34813200  0.50209300  1
  V  V1  1  0.19172000  0.65185200  0.49784000  1
  V  V2  1  0.80819700  0.84822700  0.00194700  1
  V  V3  1  0.19181100  0.15178300  0.99804900  1
  Si  Si0  1  0.71882300  0.39755100  0.17337300  1
  Si  Si1  1  0.71873300  0.89753900  0.67331300  1
  Si  Si2  1  0.28117600  0.60245700  0.82662300  1
  Si  Si3  1  0.28126600  0.10246000  0.32669700  1
  Si  Si4  1  0.61963900  0.61514900  0.17159300  1
  Si  Si5  1  0.61963300  0.11516100  0.67164500  1
  Si  Si6  1  0.38037400  0.38485700  0.82840200  1
  Si  Si7  1  0.38035800  0.88483500  0.32836400  1
  Si  Si8  1  0.73453100  0.17957500  0.00692900  1
  Si  Si9  1  0.73445100  0.67958700  0.50682300  1
  Si  Si10  1  0.26546500  0.82042300  0.99307700  1
  Si  Si11  1  0.26554100  0.32041300  0.49318400  1
  O  O0  1  0.88156000  0.41657400  0.26731800  1
  O  O1  1  0.88146700  0.91663900  0.76728800  1
  O  O2  1  0.11844600  0.58343200  0.73267600  1
  O  O3  1  0.11853600  0.08336800  0.23271800  1
  O  O4  1  0.72814400  0.65341500  0.31069000  1
  O  O5  1  0.72808000  0.15332600  0.81081300  1
  O  O6  1  0.27185700  0.34659700  0.68931200  1
  O  O7  1  0.27190700  0.84668000  0.18919300  1
  O  O8  1  0.49199700  0.36317300  0.33589500  1
  O  O9  1  0.49183300  0.86325800  0.83577200  1
  O  O10  1  0.50801100  0.63682800  0.66410400  1
  O  O11  1  0.50816100  0.13673700  0.16423800  1
  O  O12  1  0.36849100  0.58762200  0.28045200  1
  O  O13  1  0.36848100  0.08766000  0.78041000  1
  O  O14  1  0.63152700  0.41236800  0.71952300  1
  O  O15  1  0.63151600  0.91233500  0.21959900  1
  O  O16  1  0.90472800  0.12278600  0.03670400  1
  O  O17  1  0.90462900  0.62286000  0.53674900  1
  O  O18  1  0.09527200  0.87721300  0.96329700  1
  O  O19  1  0.09536400  0.37714100  0.46325400  1
  O  O20  1  0.70957900  0.50539700  0.07233500  1
  O  O21  1  0.70963900  0.00546400  0.57222700  1
  O  O22  1  0.29044300  0.49460500  0.92766000  1
  O  O23  1  0.29035400  0.99453700  0.42778200  1
  O  O24  1  0.77909400  0.30868900  0.01777700  1
  O  O25  1  0.77901300  0.80874600  0.51768400  1
  O  O26  1  0.22090000  0.69130900  0.98224000  1
  O  O27  1  0.22099600  0.19125200  0.48232000  1
  O  O28  1  0.69627500  0.70193900  0.00733900  1
  O  O29  1  0.69625400  0.20191500  0.50738800  1
  O  O30  1  0.30371900  0.29806400  0.99266400  1
  O  O31  1  0.30372900  0.79807200  0.49261200  1
loop_
_geom_bond_atom_site_label_1
_geom_bond_atom_site_label_2
_geom_bond_distance
_geom_bond_site_symmetry_2
Li0 O0 2.006085 1_455
Li0 O12 2.114505 1_555
Li0 O22 2.134768 1_554
Li0 O19 2.170830 1_555
Li1 O1 2.005783 1_455
Li1 O13 2.113214 1_565
Li1 O23 2.134282 1_555
Li1 O18 2.171283 1_555
Li2 O2 2.006102 1_655
Li2 O14 2.114625 1_555
Li2 O20 2.134707 1_556
Li2 O17 2.170863 1_555
Li3 O3 2.005857 1_655
Li3 O15 2.113228 1_545
Li3 O21 2.134302 1_555
Li3 O16 2.171302 1_555
O0 Si0 1.623038 1_555
O0 V0 1.955267 1_555
O1 Si1 1.623221 1_555
O1 V2 1.954278 1_556
O2 Si2 1.623006 1_555
O2 V1 1.955577 1_555
O3 Si3 1.623218 1_555
O3 V3 1.954359 1_554
O4 Si9 1.625787 1_555
O4 Si4 1.634812 1_555
O5 Si8 1.626223 1_556
O5 Si5 1.634761 1_555
O6 Si11 1.625798 1_555
O6 Si6 1.634809 1_555
O7 Si10 1.626214 1_554
O7 Si7 1.634778 1_555
O8 Si0 1.626457 1_555
O8 Si11 1.627268 1_555
O9 Si1 1.626402 1_555
O9 Si10 1.627125 1_555
O10 Si2 1.626474 1_555
O10 Si9 1.627169 1_555
O11 Si3 1.626372 1_555
O11 Si8 1.627155 1_555
O12 Si4 1.638000 1_555
O12 V1 1.938308 1_555
O13 Si5 1.637932 1_555
O13 V3 1.938645 1_555
O14 Si6 1.638033 1_555
O14 V0 1.938523 1_555
O15 Si7 1.637968 1_555
O15 V2 1.938645 1_555
O16 Si8 1.618758 1_555
O16 V3 1.933845 1_654
O17 Si9 1.618766 1_555
O17 V1 1.933347 1_655
O18 Si10 1.618759 1_555
O18 V2 1.933795 1_456
O19 Si11 1.618782 1_555
O19 V0 1.933421 1_455
O20 Si0 1.656573 1_555
O20 Si4 1.673820 1_555
O21 Si1 1.657251 1_545
O21 Si5 1.673725 1_555
O22 Si2 1.656696 1_555
O22 Si6 1.673755 1_555
O23 Si3 1.657209 1_565
O23 Si7 1.673776 1_555
O24 Si0 1.629322 1_555
O24 Si8 1.639277 1_555
O25 Si1 1.628871 1_555
O25 Si9 1.639848 1_555
O26 Si2 1.629342 1_555
O26 Si10 1.639270 1_555
O27 Si3 1.628826 1_555
O27 Si11 1.639868 1_555
O28 Si4 1.622313 1_555
O28 V2 1.913823 1_555
O29 Si5 1.622035 1_555
O29 V0 1.913282 1_555
O30 Si6 1.622370 1_555
O30 V3 1.913721 1_555
O31 Si7 1.622054 1_555
O31 V1 1.913336 1_555
