# generated using pymatgen
data_Li4Mn3(SnO5)2
_symmetry_space_group_name_H-M   'P 1'
_cell_length_a   6.64368700
_cell_length_b   8.25232135
_cell_length_c   8.35386339
_cell_angle_alpha   95.25345274
_cell_angle_beta   88.26785820
_cell_angle_gamma   113.28710718
_symmetry_Int_Tables_number   1
_chemical_formula_structural   Li4Mn3(SnO5)2
_chemical_formula_sum   'Li8 Mn6 Sn4 O20'
_cell_volume   418.92006031
_cell_formula_units_Z   2
loop_
 _symmetry_equiv_pos_site_id
 _symmetry_equiv_pos_as_xyz
  1  'x, y, z'
loop_
 _atom_site_type_symbol
 _atom_site_label
 _atom_site_symmetry_multiplicity
 _atom_site_fract_x
 _atom_site_fract_y
 _atom_site_fract_z
 _atom_site_occupancy
  Li  Li0  1  0.89842500  0.21842500  0.31007200  1
  Li  Li1  1  0.19187600  0.60360000  0.39612400  1
  Li  Li2  1  0.74337500  0.51986700  0.23917600  1
  Li  Li3  1  0.25662500  0.48013300  0.76082400  1
  Li  Li4  1  0.80812400  0.39640000  0.60387600  1
  Li  Li5  1  0.10157500  0.78157500  0.68992800  1
  Li  Li6  1  0.69295800  0.61251700  0.91178300  1
  Li  Li7  1  0.30704200  0.38748300  0.08821700  1
  Mn  Mn0  1  0.03390200  0.89744100  0.34091800  1
  Mn  Mn1  1  0.96609800  0.10255900  0.65908200  1
  Mn  Mn2  1  0.50000000  0.00000000  0.50000000  1
  Mn  Mn3  1  0.00000000  0.00000000  0.00000000  1
  Mn  Mn4  1  0.54191300  0.89580000  0.84442300  1
  Mn  Mn5  1  0.45808700  0.10420000  0.15557700  1
  Sn  Sn0  1  0.64622900  0.69537800  0.54094400  1
  Sn  Sn1  1  0.35377100  0.30462200  0.45905600  1
  Sn  Sn2  1  0.15844800  0.69389800  0.04689700  1
  Sn  Sn3  1  0.84155200  0.30610200  0.95310300  1
  O  O0  1  0.21939500  0.05805900  0.56503200  1
  O  O1  1  0.06733700  0.32428000  0.54040000  1
  O  O2  1  0.93266300  0.67572000  0.45960000  1
  O  O3  1  0.61280100  0.23210700  0.39328200  1
  O  O4  1  0.46306200  0.53357000  0.34397000  1
  O  O5  1  0.78060500  0.94194100  0.43496800  1
  O  O6  1  0.10261000  0.23791900  0.89063900  1
  O  O7  1  0.30672300  0.86670100  0.25998200  1
  O  O8  1  0.96447300  0.53904000  0.84044500  1
  O  O9  1  0.69327700  0.13329900  0.74001800  1
  O  O10  1  0.81362500  0.85588300  0.76023900  1
  O  O11  1  0.53693800  0.46643000  0.65603000  1
  O  O12  1  0.18637500  0.14411700  0.23976100  1
  O  O13  1  0.38719900  0.76789300  0.60671800  1
  O  O14  1  0.72388500  0.07085700  0.07473300  1
  O  O15  1  0.03552700  0.46096000  0.15955500  1
  O  O16  1  0.89739000  0.76208100  0.10936100  1
  O  O17  1  0.57385200  0.33283400  0.05944300  1
  O  O18  1  0.42614800  0.66716600  0.94055700  1
  O  O19  1  0.27611500  0.92914300  0.92526700  1
loop_
_geom_bond_atom_site_label_1
_geom_bond_atom_site_label_2
_geom_bond_distance
_geom_bond_site_symmetry_2
Li0 O3 2.042574 1_555
Li0 O1 2.184566 1_655
Li0 O12 2.274743 1_655
Li0 O14 2.296870 1_555
Li0 O15 2.316633 1_655
Li0 O5 2.425205 1_545
Li1 O2 2.073289 1_455
Li1 O4 2.121210 1_555
Li1 O13 2.219751 1_555
Li1 O15 2.258655 1_555
Li1 O7 2.383192 1_555
Li1 O1 2.528031 1_555
Li2 O17 2.051464 1_555
Li2 O4 2.072969 1_555
Li2 O16 2.220603 1_555
Li2 O2 2.248072 1_555
Li2 O15 2.248301 1_655
Li3 O18 2.051464 1_555
Li3 O11 2.072969 1_555
Li3 O6 2.220603 1_555
Li3 O1 2.248072 1_555
Li3 O8 2.248301 1_455
Li4 O1 2.073289 1_655
Li4 O11 2.121210 1_555
Li4 O3 2.219751 1_555
Li4 O8 2.258655 1_555
Li4 O9 2.383192 1_555
Li4 O2 2.528031 1_555
Li5 O13 2.042574 1_555
Li5 O2 2.184566 1_455
Li5 O10 2.274743 1_455
Li5 O19 2.296870 1_555
Li5 O8 2.316633 1_455
Li5 O0 2.425205 1_565
Li6 O18 1.997435 1_555
Li6 O16 2.128224 1_556
Li6 O8 2.170346 1_555
Li6 O10 2.325943 1_555
Li6 O11 2.401397 1_555
Li6 O17 2.548151 1_556
Li7 O17 1.997435 1_555
Li7 O6 2.128224 1_554
Li7 O15 2.170346 1_555
Li7 O12 2.325943 1_555
Li7 O4 2.401397 1_555
Li7 O18 2.548151 1_554
Mn0 O5 1.984921 1_455
Mn0 O7 2.016147 1_555
Mn0 O2 2.025351 1_455
Mn0 O12 2.125310 1_565
Mn0 O16 2.172911 1_455
Mn0 O0 2.274707 1_565
Mn1 O0 1.984921 1_655
Mn1 O9 2.016147 1_555
Mn1 O1 2.025351 1_655
Mn1 O10 2.125310 1_545
Mn1 O6 2.172911 1_655
Mn1 O5 2.274707 1_545
Mn2 O3 2.040242 1_555
Mn2 O13 2.040242 1_545
Mn2 O0 2.144173 1_555
Mn2 O5 2.144173 1_545
Mn2 O9 2.348220 1_555
Mn2 O7 2.348220 1_545
Mn3 O16 2.094464 1_445
Mn3 O6 2.094464 1_554
Mn3 O14 2.192901 1_455
Mn3 O19 2.192901 1_544
Mn3 O12 2.347062 1_555
Mn3 O10 2.347062 1_444
Mn4 O18 1.972084 1_555
Mn4 O19 1.981971 1_555
Mn4 O10 2.052491 1_555
Mn4 O9 2.077232 1_565
Mn4 O13 2.235085 1_555
Mn4 O14 2.345411 1_566
Mn5 O17 1.972084 1_555
Mn5 O14 1.981971 1_555
Mn5 O12 2.052491 1_555
Mn5 O7 2.077232 1_545
Mn5 O3 2.235085 1_555
Mn5 O19 2.345411 1_544
O0 Sn1 2.136978 1_555
O1 Sn1 2.062799 1_555
O2 Sn0 2.062799 1_555
O3 Sn1 2.078087 1_555
O4 Sn1 2.055948 1_555
O4 Sn0 2.098907 1_555
O5 Sn0 2.136978 1_555
O6 Sn3 2.064005 1_455
O7 Sn2 2.168662 1_555
O8 Sn3 2.071569 1_555
O8 Sn2 2.167253 1_656
O9 Sn3 2.168662 1_555
O10 Sn0 2.204862 1_555
O11 Sn0 2.055948 1_555
O11 Sn1 2.098907 1_555
O12 Sn1 2.204862 1_555
O13 Sn0 2.078087 1_555
O14 Sn3 2.127325 1_554
O15 Sn2 2.071569 1_555
O15 Sn3 2.167253 1_454
O16 Sn2 2.064005 1_655
O17 Sn3 2.044447 1_554
O18 Sn2 2.044447 1_556
O19 Sn2 2.127325 1_556
