# generated using pymatgen
data_KH(IO3)2
_symmetry_space_group_name_H-M   'P 1'
_cell_length_a   8.50848809
_cell_length_b   7.45983218
_cell_length_c   19.32187324
_cell_angle_alpha   90.00000000
_cell_angle_beta   90.00000000
_cell_angle_gamma   90.00000000
_symmetry_Int_Tables_number   1
_chemical_formula_structural   KH(IO3)2
_chemical_formula_sum   'K8 H8 I16 O48'
_cell_volume   1226.39587581
_cell_formula_units_Z   8
loop_
 _symmetry_equiv_pos_site_id
 _symmetry_equiv_pos_as_xyz
  1  'x, y, z'
loop_
 _atom_site_type_symbol
 _atom_site_label
 _atom_site_symmetry_multiplicity
 _atom_site_fract_x
 _atom_site_fract_y
 _atom_site_fract_z
 _atom_site_occupancy
  K  K0  1  0.51610818  0.52251908  0.35265335  1
  K  K1  1  0.48389182  0.47748092  0.85265335  1
  K  K2  1  0.98389182  0.52251908  0.85265335  1
  K  K3  1  0.01610818  0.47748092  0.35265335  1
  K  K4  1  0.53354689  0.99440194  0.15759604  1
  K  K5  1  0.46645311  0.00559806  0.65759604  1
  K  K6  1  0.96645311  0.99440194  0.65759604  1
  K  K7  1  0.03354689  0.00559806  0.15759604  1
  H  H0  1  0.50870991  0.75838832  0.00446755  1
  H  H1  1  0.49129009  0.24161168  0.50446755  1
  H  H2  1  0.99129009  0.75838832  0.50446755  1
  H  H3  1  0.00870991  0.24161168  0.00446755  1
  H  H4  1  0.25998104  0.72784423  0.26294847  1
  H  H5  1  0.74001896  0.27215577  0.76294847  1
  H  H6  1  0.24001896  0.72784423  0.76294847  1
  H  H7  1  0.75998104  0.27215577  0.26294847  1
  I  I0  1  0.82977405  0.81466945  0.00044102  1
  I  I1  1  0.17022495  0.18533055  0.50044102  1
  I  I2  1  0.67022595  0.81466945  0.50044102  1
  I  I3  1  0.32977505  0.18533055  0.00044102  1
  I  I4  1  0.72408748  0.31265461  0.00464564  1
  I  I5  1  0.27591252  0.68734539  0.50464564  1
  I  I6  1  0.77591252  0.31265461  0.50464564  1
  I  I7  1  0.22408748  0.68734539  0.00464564  1
  I  I8  1  0.81672076  0.94674243  0.33142992  1
  I  I9  1  0.18327924  0.05325757  0.83142992  1
  I  I10  1  0.68327924  0.94674243  0.83142992  1
  I  I11  1  0.31672076  0.05325757  0.33142992  1
  I  I12  1  0.75666726  0.54135650  0.18792509  1
  I  I13  1  0.24333274  0.45864350  0.68792509  1
  I  I14  1  0.74333274  0.54135650  0.68792509  1
  I  I15  1  0.25666726  0.45864350  0.18792509  1
  O  O0  1  0.65177974  0.72162883  0.96053631  1
  O  O1  1  0.34822026  0.27837117  0.46053631  1
  O  O2  1  0.84822026  0.72162883  0.46053631  1
  O  O3  1  0.15177974  0.27837117  0.96053631  1
  O  O4  1  0.94481864  0.60752988  0.98734787  1
  O  O5  1  0.05518136  0.39247012  0.48734787  1
  O  O6  1  0.55518136  0.60752988  0.48734787  1
  O  O7  1  0.44481864  0.39247012  0.98734787  1
  O  O8  1  0.78687311  0.78428765  0.09188201  1
  O  O9  1  0.21312689  0.21571235  0.59188201  1
  O  O10  1  0.71312689  0.78428765  0.59188201  1
  O  O11  1  0.28687311  0.21571235  0.09188201  1
  O  O12  1  0.62319280  0.10289381  0.02493417  1
  O  O13  1  0.37680720  0.89710619  0.52493417  1
  O  O14  1  0.87680720  0.10289381  0.52493417  1
  O  O15  1  0.12319280  0.89710619  0.02493417  1
  O  O16  1  0.91628813  0.20659213  0.03566281  1
  O  O17  1  0.08371187  0.79340787  0.53566281  1
  O  O18  1  0.58371187  0.20659213  0.53566281  1
  O  O19  1  0.41628813  0.79340787  0.03566281  1
  O  O20  1  0.75274338  0.27795009  0.91305489  1
  O  O21  1  0.24725662  0.72204991  0.41305489  1
  O  O22  1  0.74725662  0.27795009  0.41305489  1
  O  O23  1  0.25274338  0.72204991  0.91305489  1
  O  O24  1  0.76978459  0.07862479  0.25476834  1
  O  O25  1  0.23021541  0.92137521  0.75476834  1
  O  O26  1  0.73021541  0.07862479  0.75476834  1
  O  O27  1  0.26978459  0.92137521  0.25476834  1
  O  O28  1  0.62068433  0.87588227  0.35723691  1
  O  O29  1  0.37931567  0.12411773  0.85723691  1
  O  O30  1  0.87931567  0.87588227  0.85723691  1
  O  O31  1  0.12068433  0.12411773  0.35723691  1
  O  O32  1  0.88902002  0.75400648  0.28437029  1
  O  O33  1  0.11097998  0.24599352  0.78437029  1
  O  O34  1  0.61097998  0.75400648  0.78437029  1
  O  O35  1  0.38902002  0.24599352  0.28437029  1
  O  O36  1  0.68984445  0.35671922  0.13454726  1
  O  O37  1  0.31015555  0.64328078  0.63454726  1
  O  O38  1  0.81015555  0.35671922  0.63454726  1
  O  O39  1  0.18984445  0.64328078  0.13454726  1
  O  O40  1  0.75613151  0.40943737  0.27170626  1
  O  O41  1  0.24386849  0.59056263  0.77170626  1
  O  O42  1  0.74386849  0.40943737  0.77170626  1
  O  O43  1  0.25613151  0.59056263  0.27170626  1
  O  O44  1  0.57323430  0.65084080  0.20454481  1
  O  O45  1  0.42676570  0.34915920  0.70454481  1
  O  O46  1  0.92676570  0.65084080  0.70454481  1
  O  O47  1  0.07323430  0.34915920  0.20454481  1
loop_
_geom_bond_atom_site_label_1
_geom_bond_atom_site_label_2
_geom_bond_distance
_geom_bond_site_symmetry_2
K0 O35 2.676800 1_555
K0 O6 2.699252 1_555
K0 O40 2.707137 1_555
K0 O43 2.756244 1_555
K0 O28 2.783562 1_555
K0 O22 2.925517 1_555
K0 O21 2.968221 1_555
K0 O44 3.056488 1_555
K0 O1 3.114935 1_555
K1 O34 2.676800 1_555
K1 O7 2.699252 1_555
K1 O41 2.707137 1_555
K1 O42 2.756244 1_555
K1 O29 2.783562 1_555
K1 O23 2.925517 1_555
K1 O20 2.968221 1_555
K1 O45 3.056488 1_555
K1 O0 3.114935 1_555
K2 O33 2.676800 1_655
K2 O4 2.699252 1_555
K2 O42 2.707137 1_555
K2 O41 2.756244 1_655
K2 O30 2.783562 1_555
K2 O20 2.925517 1_555
K2 O23 2.968221 1_655
K2 O46 3.056488 1_555
K2 O3 3.114935 1_655
K3 O32 2.676800 1_455
K3 O5 2.699252 1_555
K3 O43 2.707137 1_555
K3 O40 2.756244 1_455
K3 O31 2.783562 1_555
K3 O21 2.925517 1_555
K3 O22 2.968221 1_455
K3 O47 3.056488 1_555
K3 O2 3.114935 1_455
K4 O44 2.739603 1_555
K4 O12 2.794135 1_565
K4 O24 2.821373 1_565
K4 O8 2.952089 1_555
K4 O11 2.956828 1_565
K4 O19 2.965498 1_555
K4 O27 2.976321 1_555
K4 O36 3.045015 1_565
K4 O35 3.321867 1_565
K5 O45 2.739603 1_555
K5 O13 2.794135 1_545
K5 O25 2.821373 1_545
K5 O9 2.952089 1_555
K5 O10 2.956828 1_545
K5 O18 2.965498 1_555
K5 O26 2.976321 1_555
K5 O37 3.045015 1_545
K5 O34 3.321867 1_545
K6 O46 2.739603 1_555
K6 O14 2.794135 1_565
K6 O26 2.821373 1_565
K6 O10 2.952089 1_555
K6 O9 2.956828 1_665
K6 O17 2.965498 1_655
K6 O25 2.976321 1_655
K6 O38 3.045015 1_565
K6 O33 3.321867 1_665
K7 O47 2.739603 1_555
K7 O15 2.794135 1_545
K7 O27 2.821373 1_545
K7 O11 2.952089 1_555
K7 O8 2.956828 1_445
K7 O16 2.965498 1_455
K7 O24 2.976321 1_455
K7 O39 3.045015 1_545
K7 O32 3.321867 1_445
H0 O19 1.024662 1_555
H0 O0 1.509157 1_554
H1 O18 1.024662 1_555
H1 O1 1.509157 1_555
H2 O17 1.024662 1_655
H2 O2 1.509157 1_555
H3 O16 1.024662 1_455
H3 O3 1.509157 1_554
H4 O43 1.038500 1_555
H4 O27 1.454728 1_555
H5 O42 1.038500 1_555
H5 O26 1.454728 1_555
H6 O41 1.038500 1_555
H6 O25 1.454728 1_555
H7 O40 1.038500 1_555
H7 O24 1.454728 1_555
I0 O8 1.818304 1_555
I0 O0 1.835707 1_554
I0 O4 1.846587 1_554
I1 O9 1.818306 1_555
I1 O1 1.835714 1_555
I1 O5 1.846583 1_555
I2 O10 1.818304 1_555
I2 O2 1.835707 1_555
I2 O6 1.846587 1_555
I3 O11 1.818306 1_555
I3 O3 1.835714 1_554
I3 O7 1.846583 1_554
I4 O20 1.805084 1_554
I4 O12 1.827339 1_555
I4 O16 1.912985 1_555
I4 O7 2.472314 1_554
I4 O36 2.548088 1_555
I5 O21 1.805084 1_555
I5 O13 1.827339 1_555
I5 O17 1.912985 1_555
I5 O6 2.472314 1_555
I5 O37 2.548088 1_555
I6 O22 1.805084 1_555
I6 O14 1.827339 1_555
I6 O18 1.912985 1_555
I6 O5 2.472314 1_655
I6 O38 2.548088 1_555
I7 O23 1.805084 1_554
I7 O15 1.827339 1_555
I7 O19 1.912985 1_555
I7 O4 2.472314 1_454
I7 O39 2.548088 1_555
I8 O32 1.808982 1_555
I8 O28 1.819396 1_555
I8 O24 1.822491 1_565
I9 O33 1.808982 1_555
I9 O29 1.819396 1_555
I9 O25 1.822491 1_545
I10 O34 1.808982 1_555
I10 O30 1.819396 1_555
I10 O26 1.822491 1_565
I11 O35 1.808982 1_555
I11 O31 1.819396 1_555
I11 O27 1.822491 1_545
I12 O44 1.790552 1_555
I12 O36 1.812207 1_555
I12 O40 1.894467 1_555
I12 O8 2.606522 1_555
I13 O45 1.790552 1_555
I13 O37 1.812207 1_555
I13 O41 1.894467 1_555
I13 O9 2.606522 1_555
I14 O46 1.790552 1_555
I14 O38 1.812207 1_555
I14 O42 1.894467 1_555
I14 O10 2.606522 1_555
I15 O47 1.790552 1_555
I15 O39 1.812207 1_555
I15 O43 1.894467 1_555
I15 O11 2.606522 1_555
