# generated using pymatgen
data_CoPO4
_symmetry_space_group_name_H-M   'P 1'
_cell_length_a   11.10025700
_cell_length_b   5.80682900
_cell_length_c   9.86962987
_cell_angle_alpha   85.59231676
_cell_angle_beta   90.00000000
_cell_angle_gamma   90.00000000
_symmetry_Int_Tables_number   1
_chemical_formula_structural   CoPO4
_chemical_formula_sum   'Co8 P8 O32'
_cell_volume   634.28813668
_cell_formula_units_Z   8
loop_
 _symmetry_equiv_pos_site_id
 _symmetry_equiv_pos_as_xyz
  1  'x, y, z'
loop_
 _atom_site_type_symbol
 _atom_site_label
 _atom_site_symmetry_multiplicity
 _atom_site_fract_x
 _atom_site_fract_y
 _atom_site_fract_z
 _atom_site_occupancy
  Co  Co0  1  0.09408500  0.86924000  0.75095700  1
  Co  Co1  1  0.40591500  0.86924000  0.25095700  1
  Co  Co2  1  0.62279100  0.65284800  0.00205300  1
  Co  Co3  1  0.87720900  0.65284800  0.50205300  1
  Co  Co4  1  0.12279100  0.34715200  0.49794700  1
  Co  Co5  1  0.37720900  0.34715200  0.99794700  1
  Co  Co6  1  0.59408500  0.13076000  0.74904300  1
  Co  Co7  1  0.90591500  0.13076000  0.24904300  1
  P  P0  1  0.35746000  0.88665700  0.92859500  1
  P  P1  1  0.14254000  0.88665700  0.42859500  1
  P  P2  1  0.62096700  0.62987400  0.68582200  1
  P  P3  1  0.87903300  0.62987400  0.18582200  1
  P  P4  1  0.12096700  0.37012600  0.81417800  1
  P  P5  1  0.37903300  0.37012600  0.31417800  1
  P  P6  1  0.85746000  0.11334300  0.57140500  1
  P  P7  1  0.64254000  0.11334300  0.07140500  1
  O  O0  1  0.17520100  0.94522200  0.57568800  1
  O  O1  1  0.93142000  0.89484500  0.62753000  1
  O  O2  1  0.32479900  0.94522200  0.07568800  1
  O  O3  1  0.56858000  0.89484500  0.12753000  1
  O  O4  1  0.25065600  0.84812400  0.83950800  1
  O  O5  1  0.54290100  0.85071400  0.67984700  1
  O  O6  1  0.24934400  0.84812400  0.33950800  1
  O  O7  1  0.95709900  0.85071400  0.17984700  1
  O  O8  1  0.43911300  0.66380100  0.93732700  1
  O  O9  1  0.67648600  0.58901000  0.83198900  1
  O  O10  1  0.06088700  0.66380100  0.43732700  1
  O  O11  1  0.03969100  0.58620900  0.83093800  1
  O  O12  1  0.71933700  0.64732400  0.57954900  1
  O  O13  1  0.82351400  0.58901000  0.33198900  1
  O  O14  1  0.46030900  0.58620900  0.33093800  1
  O  O15  1  0.78066300  0.64732400  0.07954900  1
  O  O16  1  0.21933700  0.35267600  0.92045100  1
  O  O17  1  0.53969100  0.41379100  0.66906200  1
  O  O18  1  0.17648600  0.41099000  0.66801100  1
  O  O19  1  0.28066300  0.35267600  0.42045100  1
  O  O20  1  0.96030900  0.41379100  0.16906200  1
  O  O21  1  0.93911300  0.33619900  0.56267300  1
  O  O22  1  0.32351400  0.41099000  0.16801100  1
  O  O23  1  0.56088700  0.33619900  0.06267300  1
  O  O24  1  0.04290100  0.14928600  0.82015300  1
  O  O25  1  0.75065600  0.15187600  0.66049200  1
  O  O26  1  0.45709900  0.14928600  0.32015300  1
  O  O27  1  0.74934400  0.15187600  0.16049200  1
  O  O28  1  0.43142000  0.10515500  0.87247000  1
  O  O29  1  0.67520100  0.05477800  0.92431200  1
  O  O30  1  0.06858000  0.10515500  0.37247000  1
  O  O31  1  0.82479900  0.05477800  0.42431200  1
loop_
_geom_bond_atom_site_label_1
_geom_bond_atom_site_label_2
_geom_bond_distance
_geom_bond_site_symmetry_2
Co0 O11 1.867995 1_555
Co0 O24 1.898517 1_565
Co0 O4 1.944980 1_555
Co0 O0 1.969883 1_555
Co0 O1 2.176810 1_455
Co1 O14 1.867995 1_555
Co1 O26 1.898517 1_565
Co1 O6 1.944980 1_555
Co1 O2 1.969883 1_555
Co1 O3 2.176810 1_555
Co2 O9 1.845416 1_554
Co2 O15 1.911345 1_555
Co2 O23 2.010462 1_555
Co2 O3 2.034194 1_555
Co2 O8 2.136094 1_554
Co2 O29 2.469652 1_564
Co3 O13 1.845416 1_555
Co3 O12 1.911345 1_555
Co3 O21 2.010462 1_555
Co3 O1 2.034194 1_555
Co3 O10 2.136094 1_655
Co3 O31 2.469652 1_565
Co4 O18 1.845416 1_555
Co4 O19 1.911345 1_555
Co4 O10 2.010462 1_555
Co4 O30 2.034194 1_555
Co4 O21 2.136094 1_455
Co4 O0 2.469652 1_545
Co5 O22 1.845416 1_556
Co5 O16 1.911345 1_555
Co5 O8 2.010462 1_555
Co5 O28 2.034194 1_555
Co5 O23 2.136094 1_556
Co5 O2 2.469652 1_546
Co6 O17 1.867995 1_555
Co6 O5 1.898517 1_545
Co6 O25 1.944980 1_555
Co6 O29 1.969883 1_555
Co6 O28 2.176810 1_555
Co7 O20 1.867995 1_555
Co7 O7 1.898517 1_545
Co7 O27 1.944980 1_555
Co7 O31 1.969883 1_555
Co7 O30 2.176810 1_655
O0 P1 1.559027 1_555
O1 P6 1.575633 1_565
O2 P0 1.559027 1_554
O3 P7 1.575633 1_565
O4 P0 1.502974 1_555
O5 P2 1.545078 1_555
O6 P1 1.502974 1_555
O7 P3 1.545078 1_555
O8 P0 1.576848 1_555
O9 P2 1.569911 1_555
O10 P1 1.576848 1_555
O11 P4 1.564486 1_555
O12 P2 1.512080 1_555
O13 P3 1.569911 1_555
O14 P5 1.564486 1_555
O15 P3 1.512080 1_555
O16 P4 1.512080 1_555
O17 P2 1.564486 1_555
O18 P4 1.569911 1_555
O19 P5 1.512080 1_555
O20 P3 1.564486 1_555
O21 P6 1.576848 1_555
O22 P5 1.569911 1_555
O23 P7 1.576848 1_555
O24 P4 1.545078 1_555
O25 P6 1.502974 1_555
O26 P5 1.545078 1_555
O27 P7 1.502974 1_555
O28 P0 1.575633 1_545
O29 P7 1.559027 1_556
O30 P1 1.575633 1_545
O31 P6 1.559027 1_555
