# generated using pymatgen
data_Li3V4FeO12
_symmetry_space_group_name_H-M   'P 1'
_cell_length_a   7.73590452
_cell_length_b   7.74184931
_cell_length_c   10.23644211
_cell_angle_alpha   69.32341356
_cell_angle_beta   101.08325757
_cell_angle_gamma   73.85234659
_symmetry_Int_Tables_number   1
_chemical_formula_structural   Li3V4FeO12
_chemical_formula_sum   'Li6 V8 Fe2 O24'
_cell_volume   521.38053687
_cell_formula_units_Z   2
loop_
 _symmetry_equiv_pos_site_id
 _symmetry_equiv_pos_as_xyz
  1  'x, y, z'
loop_
 _atom_site_type_symbol
 _atom_site_label
 _atom_site_symmetry_multiplicity
 _atom_site_fract_x
 _atom_site_fract_y
 _atom_site_fract_z
 _atom_site_occupancy
  Li  Li0  1  0.27249300  0.10254500  0.37471700  1
  Li  Li1  1  0.76947900  0.10553000  0.87534700  1
  Li  Li2  1  0.88294200  0.24575200  0.12423600  1
  Li  Li3  1  0.38054500  0.24092500  0.62595400  1
  Li  Li4  1  0.60557200  0.76935600  0.37451400  1
  Li  Li5  1  0.10526700  0.76928300  0.87496800  1
  V  V0  1  0.47771400  0.19879000  0.08932000  1
  V  V1  1  0.95799700  0.60410300  0.15973100  1
  V  V2  1  0.54309600  0.39098500  0.34116000  1
  V  V3  1  0.51438800  0.81421200  0.90463300  1
  V  V4  1  0.98563000  0.20147700  0.59047600  1
  V  V5  1  0.46236300  0.61202500  0.66028700  1
  V  V6  1  0.03098400  0.39017600  0.84567000  1
  V  V7  1  0.01820400  0.79800800  0.40854400  1
  Fe  Fe0  1  0.71273700  0.91384500  0.63044200  1
  Fe  Fe1  1  0.20565100  0.91734400  0.11958200  1
  O  O0  1  0.92509200  0.02101800  0.70421500  1
  O  O1  1  0.42132100  0.01376100  0.20542400  1
  O  O2  1  0.02437700  0.77812600  0.04569700  1
  O  O3  1  0.53165400  0.78476400  0.54442100  1
  O  O4  1  0.17656100  0.10303600  0.54612700  1
  O  O5  1  0.67495100  0.10045700  0.05237400  1
  O  O6  1  0.10051500  0.36899700  0.20387900  1
  O  O7  1  0.59764100  0.37794300  0.69752000  1
  O  O8  1  0.48627200  0.21617700  0.46365200  1
  O  O9  1  0.98666600  0.19750500  0.97387100  1
  O  O10  1  0.57915300  0.98712600  0.77686200  1
  O  O11  1  0.07082900  0.97679900  0.28569600  1
  O  O12  1  0.78040800  0.36347100  0.42331000  1
  O  O13  1  0.28961400  0.34704700  0.92426700  1
  O  O14  1  0.96390800  0.64254500  0.32684000  1
  O  O15  1  0.47822300  0.63534600  0.82516200  1
  O  O16  1  0.53368200  0.35210100  0.17875900  1
  O  O17  1  0.04947300  0.34313900  0.67740500  1
  O  O18  1  0.72904500  0.62729500  0.07301600  1
  O  O19  1  0.21952800  0.64546700  0.57102000  1
  O  O20  1  0.40319400  0.62893400  0.29770000  1
  O  O21  1  0.91450400  0.64051100  0.79524200  1
  O  O22  1  0.31490700  0.87947100  0.95616400  1
  O  O23  1  0.82342200  0.89461000  0.45179500  1
loop_
_geom_bond_atom_site_label_1
_geom_bond_atom_site_label_2
_geom_bond_distance
_geom_bond_site_symmetry_2
Li0 O6 2.028531 1_555
Li0 O4 2.033041 1_555
Li0 O8 2.265751 1_555
Li0 O11 2.266391 1_545
Li0 O1 2.443199 1_555
Li0 O3 2.447281 1_545
Li1 O5 2.072505 1_556
Li1 O7 2.080304 1_555
Li1 O10 2.203871 1_545
Li1 O9 2.206385 1_555
Li1 O0 2.475490 1_555
Li1 O2 2.475960 1_646
Li2 O9 1.966378 1_554
Li2 O11 2.035325 1_645
Li2 O6 2.307158 1_655
Li2 O5 2.351867 1_555
Li3 O10 1.967855 1_545
Li3 O8 2.031245 1_555
Li3 O4 2.314011 1_555
Li3 O7 2.355650 1_555
Li4 O1 1.961202 1_565
Li4 O3 1.963955 1_555
Li4 O20 2.308289 1_555
Li4 O23 2.311793 1_555
Li5 O2 1.982849 1_556
Li5 O0 1.985666 1_465
Li5 O21 2.183464 1_455
Li5 O22 2.191027 1_555
Fe0 O21 2.095127 1_555
Fe0 O10 2.122759 1_555
Fe0 O3 2.159212 1_555
Fe0 O0 2.163572 1_565
Fe0 O23 2.196114 1_555
Fe0 O8 2.282489 1_565
Fe1 O22 2.085848 1_554
Fe1 O9 2.121112 1_464
Fe1 O1 2.169134 1_565
Fe1 O2 2.169968 1_555
Fe1 O20 2.191141 1_555
Fe1 O11 2.271259 1_555
O0 V4 1.718023 1_555
O1 V0 1.731895 1_555
O2 V1 1.716415 1_455
O3 V5 1.733646 1_555
O4 V4 1.686570 1_455
O5 V0 1.682186 1_555
O6 V1 1.686439 1_455
O7 V5 1.681844 1_555
O8 V2 1.715066 1_555
O9 V6 1.771937 1_655
O10 V3 1.772646 1_555
O11 V7 1.715835 1_555
O12 V2 1.784720 1_555
O12 V4 1.831382 1_555
O13 V0 1.745195 1_556
O13 V6 1.892503 1_555
O14 V7 1.783673 1_655
O14 V1 1.831348 1_555
O15 V5 1.744703 1_555
O15 V3 1.892379 1_555
O16 V2 1.782857 1_555
O16 V0 1.826265 1_555
O17 V4 1.749298 1_455
O17 V6 1.904871 1_555
O18 V1 1.750216 1_555
O18 V3 1.903688 1_554
O19 V7 1.783370 1_555
O19 V5 1.825758 1_555
O20 V2 1.699993 1_555
O21 V6 1.725626 1_655
O22 V3 1.726953 1_555
O23 V7 1.699801 1_655
