# generated using pymatgen
data_Li2MnF4
_symmetry_space_group_name_H-M   'P 1'
_cell_length_a   6.12999200
_cell_length_b   6.12999200
_cell_length_c   8.62473400
_cell_angle_alpha   90.00000000
_cell_angle_beta   90.00000000
_cell_angle_gamma   90.00000000
_symmetry_Int_Tables_number   1
_chemical_formula_structural   Li2MnF4
_chemical_formula_sum   'Li8 Mn4 F16'
_cell_volume   324.08992113
_cell_formula_units_Z   4
loop_
 _symmetry_equiv_pos_site_id
 _symmetry_equiv_pos_as_xyz
  1  'x, y, z'
loop_
 _atom_site_type_symbol
 _atom_site_label
 _atom_site_symmetry_multiplicity
 _atom_site_fract_x
 _atom_site_fract_y
 _atom_site_fract_z
 _atom_site_occupancy
  Li  Li0  1  0.00000000  0.21637000  0.00000000  1
  Li  Li1  1  0.00000000  0.78363000  0.50000000  1
  Li  Li2  1  0.24750100  0.24750100  0.62500000  1
  Li  Li3  1  0.24750100  0.75249900  0.87500000  1
  Li  Li4  1  0.21637000  0.00000000  0.25000000  1
  Li  Li5  1  0.78363000  0.00000000  0.75000000  1
  Li  Li6  1  0.75249900  0.24750100  0.37500000  1
  Li  Li7  1  0.75249900  0.75249900  0.12500000  1
  Mn  Mn0  1  0.22768900  0.50000000  0.25000000  1
  Mn  Mn1  1  0.50000000  0.22768900  0.00000000  1
  Mn  Mn2  1  0.50000000  0.77231100  0.50000000  1
  Mn  Mn3  1  0.77231100  0.50000000  0.75000000  1
  F  F0  1  0.00304900  0.24291500  0.23779200  1
  F  F1  1  0.00304900  0.75708500  0.26220800  1
  F  F2  1  0.24291500  0.00304900  0.01220800  1
  F  F3  1  0.24291500  0.99695100  0.48779200  1
  F  F4  1  0.24857800  0.51972600  0.49834500  1
  F  F5  1  0.24857800  0.48027400  0.00165500  1
  F  F6  1  0.51972600  0.24857800  0.75165500  1
  F  F7  1  0.51972600  0.75142200  0.74834500  1
  F  F8  1  0.48027400  0.24857800  0.24834500  1
  F  F9  1  0.48027400  0.75142200  0.25165500  1
  F  F10  1  0.75142200  0.51972600  0.50165500  1
  F  F11  1  0.75142200  0.48027400  0.99834500  1
  F  F12  1  0.75708500  0.99695100  0.51220800  1
  F  F13  1  0.75708500  0.00304900  0.98779200  1
  F  F14  1  0.99695100  0.24291500  0.76220800  1
  F  F15  1  0.99695100  0.75708500  0.73779200  1
loop_
_geom_bond_atom_site_label_1
_geom_bond_atom_site_label_2
_geom_bond_distance
_geom_bond_site_symmetry_2
F0 Li6 1.939092 1_455
F0 Li4 1.984533 1_555
F0 Li0 2.057423 1_555
F0 Mn0 2.095443 1_555
F1 Li7 1.939092 1_455
F1 Li4 1.984533 1_565
F1 Li1 2.057423 1_555
F1 Mn0 2.095443 1_555
F2 Li3 1.939092 1_544
F2 Li0 1.984533 1_555
F2 Li4 2.057423 1_555
F2 Mn1 2.095443 1_555
F3 Li2 1.939092 1_565
F3 Li1 1.984533 1_555
F3 Li4 2.057423 1_565
F3 Mn2 2.095443 1_555
F4 Li2 1.994490 1_555
F4 Mn0 2.149138 1_555
F4 Mn2 2.184700 1_555
F4 Li1 2.222422 1_555
F5 Li3 1.994490 1_554
F5 Mn0 2.149138 1_555
F5 Mn1 2.184700 1_555
F5 Li0 2.222422 1_555
F6 Li2 1.994490 1_555
F6 Mn1 2.149138 1_556
F6 Mn3 2.184700 1_555
F6 Li5 2.222422 1_555
F7 Li3 1.994490 1_555
F7 Mn2 2.149138 1_555
F7 Mn3 2.184700 1_555
F7 Li5 2.222422 1_565
F8 Li6 1.994490 1_555
F8 Mn1 2.149138 1_555
F8 Mn0 2.184700 1_555
F8 Li4 2.222422 1_555
F9 Li7 1.994490 1_555
F9 Mn2 2.149138 1_555
F9 Mn0 2.184700 1_555
F9 Li4 2.222422 1_565
F10 Li6 1.994490 1_555
F10 Mn3 2.149138 1_555
F10 Mn2 2.184700 1_555
F10 Li1 2.222422 1_655
F11 Li7 1.994490 1_556
F11 Mn3 2.149138 1_555
F11 Mn1 2.184700 1_556
F11 Li0 2.222422 1_656
F12 Li6 1.939092 1_565
F12 Li1 1.984533 1_655
F12 Li5 2.057423 1_565
F12 Mn2 2.095443 1_555
F13 Li7 1.939092 1_546
F13 Li0 1.984533 1_656
F13 Li5 2.057423 1_555
F13 Mn1 2.095443 1_556
F14 Li2 1.939092 1_655
F14 Li5 1.984533 1_555
F14 Li0 2.057423 1_656
F14 Mn3 2.095443 1_555
F15 Li3 1.939092 1_655
F15 Li5 1.984533 1_565
F15 Li1 2.057423 1_655
F15 Mn3 2.095443 1_555
