# generated using pymatgen
data_Li4Cr3GaO8
_symmetry_space_group_name_H-M   'P 1'
_cell_length_a   5.90946984
_cell_length_b   8.90532260
_cell_length_c   6.65635843
_cell_angle_alpha   81.12183623
_cell_angle_beta   116.35627475
_cell_angle_gamma   109.38039096
_symmetry_Int_Tables_number   1
_chemical_formula_structural   Li4Cr3GaO8
_chemical_formula_sum   'Li8 Cr6 Ga2 O16'
_cell_volume   296.08684165
_cell_formula_units_Z   2
loop_
 _symmetry_equiv_pos_site_id
 _symmetry_equiv_pos_as_xyz
  1  'x, y, z'
loop_
 _atom_site_type_symbol
 _atom_site_label
 _atom_site_symmetry_multiplicity
 _atom_site_fract_x
 _atom_site_fract_y
 _atom_site_fract_z
 _atom_site_occupancy
  Li  Li0  1  0.00000100  0.49990000  0.50010200  1
  Li  Li1  1  0.00000100  0.99990100  0.00010300  1
  Li  Li2  1  0.49999700  0.50009900  0.49989900  1
  Li  Li3  1  0.49999500  0.00010000  0.99990000  1
  Li  Li4  1  0.24999600  0.25000000  0.74999700  1
  Li  Li5  1  0.25000000  0.75000000  0.25000000  1
  Li  Li6  1  0.74999500  0.25000000  0.74999600  1
  Li  Li7  1  0.74999600  0.75000000  0.25000000  1
  Cr  Cr0  1  0.25126200  0.99999800  0.50000600  1
  Cr  Cr1  1  0.00004300  0.25077300  0.24933700  1
  Cr  Cr2  1  0.99991300  0.74923100  0.75065700  1
  Cr  Cr3  1  0.24873500  0.50000500  0.99999900  1
  Cr  Cr4  1  0.50008000  0.75075900  0.74934600  1
  Cr  Cr5  1  0.49996400  0.24923700  0.25065200  1
  Ga  Ga0  1  0.74929100  0.49999300  0.99999000  1
  Ga  Ga1  1  0.75070700  0.00000700  0.50000600  1
  O  O0  1  0.63681900  0.25881200  0.01531000  1
  O  O1  1  0.63725700  0.75879900  0.51531900  1
  O  O2  1  0.86274800  0.74119000  0.98469500  1
  O  O3  1  0.86318600  0.24119900  0.48467800  1
  O  O4  1  0.13787800  0.25802600  0.01590500  1
  O  O5  1  0.13601200  0.75801300  0.51593100  1
  O  O6  1  0.36398900  0.74197700  0.98408300  1
  O  O7  1  0.36212100  0.24197800  0.48408700  1
  O  O8  1  0.38774600  0.50887800  0.76709700  1
  O  O9  1  0.38852600  0.00727200  0.26621900  1
  O  O10  1  0.11147800  0.49273900  0.23377500  1
  O  O11  1  0.11224900  0.99111100  0.73290800  1
  O  O12  1  0.61177200  0.49111600  0.23290700  1
  O  O13  1  0.61503500  0.99272100  0.73378400  1
  O  O14  1  0.88496300  0.50727000  0.76621700  1
  O  O15  1  0.88824200  0.00889900  0.26709500  1
loop_
_geom_bond_atom_site_label_1
_geom_bond_atom_site_label_2
_geom_bond_distance
_geom_bond_site_symmetry_2
Li0 O10 2.163437 1_555
Li0 O5 2.171178 1_555
Li0 O8 2.172961 1_555
Li0 O12 2.175700 1_455
Li0 O3 2.175982 1_455
Li0 O14 2.176893 1_455
Li1 O13 2.163254 1_454
Li1 O4 2.171269 1_565
Li1 O15 2.173074 1_465
Li1 O11 2.175844 1_554
Li1 O2 2.176061 1_454
Li1 O9 2.176765 1_565
Li2 O14 2.163267 1_555
Li2 O7 2.171239 1_555
Li2 O12 2.173103 1_555
Li2 O8 2.175849 1_555
Li2 O1 2.175973 1_555
Li2 O10 2.176778 1_555
Li3 O9 2.163380 1_556
Li3 O6 2.171258 1_545
Li3 O11 2.172939 1_545
Li3 O15 2.175748 1_556
Li3 O0 2.176070 1_556
Li3 O13 2.176928 1_545
Li4 O4 2.165329 1_556
Li4 O7 2.165361 1_555
Li4 O3 2.165548 1_455
Li4 O0 2.165568 1_556
Li4 O8 2.177996 1_555
Li4 O11 2.178085 1_545
Li5 O10 2.164169 1_555
Li5 O9 2.164259 1_565
Li5 O2 2.167281 1_454
Li5 O1 2.167353 1_555
Li5 O6 2.172911 1_554
Li5 O5 2.172973 1_555
Li6 O14 2.164244 1_555
Li6 O13 2.164317 1_545
Li6 O0 2.167638 1_556
Li6 O3 2.167698 1_555
Li6 O7 2.172536 1_555
Li6 O4 2.172565 1_656
Li7 O6 2.165038 1_554
Li7 O5 2.165125 1_655
Li7 O2 2.165867 1_554
Li7 O1 2.165878 1_555
Li7 O12 2.178044 1_555
Li7 O15 2.178171 1_565
Cr0 O15 2.033182 1_465
Cr0 O11 2.033284 1_555
Cr0 O13 2.034219 1_555
Cr0 O7 2.034275 1_565
Cr0 O5 2.034319 1_555
Cr0 O9 2.034367 1_565
Cr1 O7 2.032452 1_555
Cr1 O15 2.033796 1_455
Cr1 O10 2.034063 1_555
Cr1 O0 2.034146 1_455
Cr1 O4 2.034652 1_555
Cr1 O3 2.037948 1_455
Cr2 O5 2.032343 1_655
Cr2 O11 2.033844 1_655
Cr2 O14 2.034019 1_555
Cr2 O2 2.034026 1_555
Cr2 O6 2.034789 1_655
Cr2 O1 2.037945 1_555
Cr3 O12 2.033220 1_556
Cr3 O8 2.033302 1_555
Cr3 O14 2.034194 1_455
Cr3 O6 2.034208 1_555
Cr3 O4 2.034264 1_556
Cr3 O10 2.034284 1_556
Cr4 O6 2.032377 1_555
Cr4 O8 2.033853 1_555
Cr4 O1 2.034011 1_555
Cr4 O13 2.034028 1_555
Cr4 O5 2.034734 1_555
Cr4 O2 2.038020 1_555
Cr5 O4 2.032466 1_555
Cr5 O12 2.033834 1_555
Cr5 O9 2.034056 1_555
Cr5 O3 2.034134 1_555
Cr5 O7 2.034693 1_555
Cr5 O0 2.037943 1_555
Ga0 O8 2.026758 1_555
Ga0 O12 2.026964 1_556
Ga0 O10 2.027369 1_656
Ga0 O0 2.027396 1_556
Ga0 O14 2.027437 1_555
Ga0 O2 2.027525 1_555
Ga1 O11 2.026789 1_645
Ga1 O15 2.026967 1_555
Ga1 O9 2.027373 1_555
Ga1 O13 2.027451 1_545
Ga1 O3 2.027490 1_555
Ga1 O1 2.027622 1_545
