# generated using pymatgen
data_Li4Cr3Ni3(SnO8)2
_symmetry_space_group_name_H-M   'P 1'
_cell_length_a   5.90351392
_cell_length_b   5.90351392
_cell_length_c   9.64011851
_cell_angle_alpha   89.30504321
_cell_angle_beta   89.30504321
_cell_angle_gamma   60.10539514
_symmetry_Int_Tables_number   1
_chemical_formula_structural   Li4Cr3Ni3(SnO8)2
_chemical_formula_sum   'Li4 Cr3 Ni3 Sn2 O16'
_cell_volume   291.24052185
_cell_formula_units_Z   1
loop_
 _symmetry_equiv_pos_site_id
 _symmetry_equiv_pos_as_xyz
  1  'x, y, z'
loop_
 _atom_site_type_symbol
 _atom_site_label
 _atom_site_symmetry_multiplicity
 _atom_site_fract_x
 _atom_site_fract_y
 _atom_site_fract_z
 _atom_site_occupancy
  Li  Li0  1  0.33382200  0.33382200  0.89078300  1
  Li  Li1  1  0.00090100  0.00090100  0.99398500  1
  Li  Li2  1  0.00218000  0.00218000  0.49536700  1
  Li  Li3  1  0.66550200  0.66550200  0.39483300  1
  Cr  Cr0  1  0.16567300  0.65770200  0.21689000  1
  Cr  Cr1  1  0.65770200  0.16567300  0.21689000  1
  Cr  Cr2  1  0.82906500  0.82906500  0.71853400  1
  Ni  Ni0  1  0.16886500  0.16886500  0.21251800  1
  Ni  Ni1  1  0.33933400  0.83123200  0.71369900  1
  Ni  Ni2  1  0.83123200  0.33933400  0.71369900  1
  Sn  Sn0  1  0.33316100  0.33316100  0.49559800  1
  Sn  Sn1  1  0.66267800  0.66267800  0.99216600  1
  O  O0  1  0.15253100  0.68112300  0.59959800  1
  O  O1  1  0.48332100  0.48332100  0.33785200  1
  O  O2  1  0.34904600  0.34904600  0.10691300  1
  O  O3  1  0.98973800  0.98973800  0.30689700  1
  O  O4  1  0.99332700  0.99332700  0.80547100  1
  O  O5  1  0.68112300  0.15253100  0.59959800  1
  O  O6  1  0.03383800  0.49387900  0.33687200  1
  O  O7  1  0.49387900  0.03383800  0.33687200  1
  O  O8  1  0.83740700  0.83740700  0.10064700  1
  O  O9  1  0.15824800  0.15824800  0.60121000  1
  O  O10  1  0.52487600  0.96813900  0.83940400  1
  O  O11  1  0.96813900  0.52487600  0.83940400  1
  O  O12  1  0.67673600  0.67673600  0.60841500  1
  O  O13  1  0.31600600  0.83255500  0.10007500  1
  O  O14  1  0.51747500  0.51747500  0.83357400  1
  O  O15  1  0.83255500  0.31600600  0.10007500  1
loop_
_geom_bond_atom_site_label_1
_geom_bond_atom_site_label_2
_geom_bond_distance
_geom_bond_site_symmetry_2
Li0 O11 1.939892 1_455
Li0 O10 1.939892 1_545
Li0 O14 1.948808 1_555
Li0 O2 2.091493 1_556
Li1 O4 1.820028 1_445
Li1 O13 1.916439 1_546
Li1 O15 1.916439 1_456
Li1 O8 1.949594 1_446
Li2 O3 1.823094 1_445
Li2 O9 1.905427 1_555
Li2 O5 1.920504 1_455
Li2 O0 1.920504 1_545
Li3 O1 1.948554 1_555
Li3 O6 1.963474 1_655
Li3 O7 1.963474 1_565
Li3 O12 2.063760 1_555
Cr0 O6 1.892150 1_555
Cr0 O3 1.914133 1_455
Cr0 O2 1.915438 1_555
Cr0 O13 1.995508 1_555
Cr0 O1 2.008897 1_555
Cr0 O8 2.027619 1_455
Cr1 O7 1.892150 1_555
Cr1 O3 1.914133 1_545
Cr1 O2 1.915438 1_555
Cr1 O15 1.995508 1_555
Cr1 O1 2.008897 1_555
Cr1 O8 2.027619 1_545
Cr2 O4 1.886770 1_555
Cr2 O12 1.896508 1_555
Cr2 O10 1.938912 1_555
Cr2 O11 1.938912 1_555
Cr2 O5 2.008135 1_565
Cr2 O0 2.008135 1_655
Ni0 O3 2.032811 1_445
Ni0 O15 2.044902 1_455
Ni0 O13 2.044902 1_545
Ni0 O6 2.064468 1_555
Ni0 O7 2.064468 1_555
Ni0 O2 2.091566 1_555
Ni1 O4 1.974613 1_455
Ni1 O14 1.976899 1_555
Ni1 O9 1.991450 1_565
Ni1 O12 1.997995 1_555
Ni1 O0 2.058775 1_555
Ni1 O10 2.063965 1_555
Ni2 O4 1.974613 1_545
Ni2 O14 1.976899 1_555
Ni2 O9 1.991450 1_655
Ni2 O12 1.997995 1_555
Ni2 O5 2.058775 1_555
Ni2 O11 2.063965 1_555
O0 Sn0 2.050000 1_555
O1 Sn0 2.145248 1_555
O5 Sn0 2.050000 1_555
O6 Sn0 2.173285 1_555
O7 Sn0 2.173285 1_555
O8 Sn1 2.081982 1_554
O9 Sn0 2.044736 1_555
O10 Sn1 2.141183 1_555
O11 Sn1 2.141183 1_555
O13 Sn1 2.050398 1_554
O14 Sn1 2.145466 1_555
O15 Sn1 2.050398 1_554
