# generated using pymatgen
data_Ti4(Fe2O5)3
_symmetry_space_group_name_H-M   'P 1'
_cell_length_a   7.64729500
_cell_length_b   8.91544853
_cell_length_c   9.16157580
_cell_angle_alpha   80.67705073
_cell_angle_beta   71.48277811
_cell_angle_gamma   66.50588503
_symmetry_Int_Tables_number   1
_chemical_formula_structural   Ti4(Fe2O5)3
_chemical_formula_sum   'Ti8 Fe12 O30'
_cell_volume   542.73939718
_cell_formula_units_Z   2
loop_
 _symmetry_equiv_pos_site_id
 _symmetry_equiv_pos_as_xyz
  1  'x, y, z'
loop_
 _atom_site_type_symbol
 _atom_site_label
 _atom_site_symmetry_multiplicity
 _atom_site_fract_x
 _atom_site_fract_y
 _atom_site_fract_z
 _atom_site_occupancy
  Ti  Ti0  1  0.75962300  0.94351000  0.32580900  1
  Ti  Ti1  1  0.64309800  0.85540200  0.07498000  1
  Ti  Ti2  1  0.24037700  0.05649000  0.67419100  1
  Ti  Ti3  1  0.35690200  0.14459800  0.92502000  1
  Ti  Ti4  1  0.96309700  0.33920000  0.52189700  1
  Ti  Ti5  1  0.43178100  0.46070000  0.87276200  1
  Ti  Ti6  1  0.56821900  0.53930000  0.12723800  1
  Ti  Ti7  1  0.03690300  0.66080000  0.47810300  1
  Fe  Fe0  1  0.74293800  0.05504600  0.67729800  1
  Fe  Fe1  1  0.13903000  0.85714100  0.07422800  1
  Fe  Fe2  1  0.25706200  0.94495400  0.32270200  1
  Fe  Fe3  1  0.83385800  0.26097300  0.27638500  1
  Fe  Fe4  1  0.93825500  0.45925400  0.87281500  1
  Fe  Fe5  1  0.33739800  0.25593300  0.27603300  1
  Fe  Fe6  1  0.46327900  0.34012300  0.52320200  1
  Fe  Fe7  1  0.86097000  0.14285900  0.92577200  1
  Fe  Fe8  1  0.16614200  0.73902700  0.72361500  1
  Fe  Fe9  1  0.06174500  0.54074600  0.12718500  1
  Fe  Fe10  1  0.53672100  0.65987700  0.47679800  1
  Fe  Fe11  1  0.66260200  0.74406700  0.72396700  1
  O  O0  1  0.92361200  0.81499000  0.65544800  1
  O  O1  1  0.10664800  0.91897900  0.86151100  1
  O  O2  1  0.28983600  0.88788900  0.55208000  1
  O  O3  1  0.06363600  0.82677300  0.31798800  1
  O  O4  1  0.47140800  0.99015800  0.73851100  1
  O  O5  1  0.52859200  0.00984200  0.26148900  1
  O  O6  1  0.12222900  0.20948300  0.86762700  1
  O  O7  1  0.33037600  0.96752000  0.06622300  1
  O  O8  1  0.93636400  0.17322700  0.68201200  1
  O  O9  1  0.71016400  0.11211100  0.44792000  1
  O  O10  1  0.49049200  0.28182400  0.75316000  1
  O  O11  1  0.89335200  0.08102100  0.13848900  1
  O  O12  1  0.66962400  0.03248000  0.93377700  1
  O  O13  1  0.26596600  0.22616400  0.53000300  1
  O  O14  1  0.07638800  0.18501000  0.34455200  1
  O  O15  1  0.72491400  0.41400600  0.46732100  1
  O  O16  1  0.53075200  0.37515700  0.27036200  1
  O  O17  1  0.14305700  0.56145100  0.87844000  1
  O  O18  1  0.31263400  0.30821200  0.05161000  1
  O  O19  1  0.91642900  0.51034200  0.64875300  1
  O  O20  1  0.08357100  0.48965800  0.35124700  1
  O  O21  1  0.46924800  0.62484300  0.72963800  1
  O  O22  1  0.85694300  0.43854900  0.12156000  1
  O  O23  1  0.67274000  0.37752800  0.94087600  1
  O  O24  1  0.27508600  0.58599400  0.53267900  1
  O  O25  1  0.32726000  0.62247200  0.05912400  1
  O  O26  1  0.73403400  0.77383600  0.46999700  1
  O  O27  1  0.50950800  0.71817600  0.24684000  1
  O  O28  1  0.68736600  0.69178800  0.94839000  1
  O  O29  1  0.87777100  0.79051700  0.13237300  1
loop_
_geom_bond_atom_site_label_1
_geom_bond_atom_site_label_2
_geom_bond_distance
_geom_bond_site_symmetry_2
Fe0 O0 2.033471 1_545
Fe0 O8 2.144284 1_555
Fe0 O9 2.150415 1_555
Fe0 O10 2.188322 1_555
Fe0 O12 2.230723 1_555
Fe0 O4 2.252529 1_545
Fe1 O1 2.003186 1_554
Fe1 O25 2.008605 1_555
Fe1 O7 2.042435 1_555
Fe1 O3 2.122200 1_555
Fe1 O11 2.132747 1_465
Fe1 O29 2.189965 1_455
Fe2 O14 2.033471 1_565
Fe2 O3 2.144284 1_555
Fe2 O2 2.150415 1_555
Fe2 O27 2.188322 1_555
Fe2 O7 2.230723 1_555
Fe2 O5 2.252529 1_565
Fe3 O22 1.971236 1_555
Fe3 O14 1.971240 1_655
Fe3 O11 2.021537 1_555
Fe3 O9 2.122929 1_555
Fe3 O15 2.134671 1_555
Fe3 O16 2.143334 1_555
Fe4 O19 2.074422 1_555
Fe4 O6 2.105772 1_655
Fe4 O17 2.118957 1_655
Fe4 O22 2.160841 1_556
Fe4 O28 2.215481 1_555
Fe4 O23 2.295800 1_555
Fe5 O18 2.084940 1_555
Fe5 O5 2.093444 1_555
Fe5 O16 2.122576 1_555
Fe5 O14 2.204493 1_555
Fe5 O13 2.211530 1_555
Fe5 O20 2.230565 1_555
Fe6 O24 2.085863 1_555
Fe6 O13 2.110693 1_555
Fe6 O10 2.142295 1_555
Fe6 O9 2.177092 1_555
Fe6 O16 2.205552 1_555
Fe6 O15 2.233851 1_555
Fe7 O11 2.003186 1_556
Fe7 O23 2.008605 1_555
Fe7 O12 2.042435 1_555
Fe7 O8 2.122200 1_555
Fe7 O1 2.132747 1_645
Fe7 O6 2.189965 1_655
Fe8 O17 1.971236 1_555
Fe8 O0 1.971240 1_455
Fe8 O1 2.021537 1_555
Fe8 O2 2.122929 1_555
Fe8 O24 2.134671 1_555
Fe8 O21 2.143334 1_555
Fe9 O20 2.074422 1_555
Fe9 O29 2.105772 1_455
Fe9 O22 2.118957 1_455
Fe9 O17 2.160841 1_554
Fe9 O18 2.215481 1_555
Fe9 O25 2.295800 1_555
Fe10 O15 2.085863 1_555
Fe10 O26 2.110693 1_555
Fe10 O27 2.142295 1_555
Fe10 O2 2.177092 1_555
Fe10 O21 2.205552 1_555
Fe10 O24 2.233851 1_555
Fe11 O28 2.084940 1_555
Fe11 O4 2.093444 1_555
Fe11 O21 2.122576 1_555
Fe11 O0 2.204493 1_555
Fe11 O26 2.211530 1_555
Fe11 O19 2.230565 1_555
O0 Ti7 2.039642 1_655
O1 Ti2 2.167303 1_565
O2 Ti2 1.864634 1_565
O3 Ti7 1.931482 1_555
O3 Ti0 2.117196 1_455
O4 Ti2 1.879827 1_565
O4 Ti3 2.105452 1_565
O5 Ti0 1.879827 1_545
O5 Ti1 2.105452 1_545
O6 Ti3 1.872124 1_555
O6 Ti2 2.144994 1_555
O7 Ti3 1.906304 1_564
O7 Ti1 2.216912 1_555
O8 Ti4 1.931482 1_555
O8 Ti2 2.117196 1_655
O9 Ti0 1.864634 1_545
O10 Ti5 1.904807 1_555
O10 Ti3 2.090512 1_555
O11 Ti0 2.167303 1_545
O12 Ti1 1.906304 1_546
O12 Ti3 2.216912 1_555
O13 Ti2 1.869762 1_555
O13 Ti4 2.146987 1_455
O14 Ti4 2.039642 1_455
O15 Ti4 1.874667 1_555
O16 Ti6 1.848506 1_555
O17 Ti5 2.011347 1_555
O18 Ti3 1.868811 1_554
O18 Ti5 2.163522 1_554
O19 Ti4 1.919138 1_555
O19 Ti7 2.117404 1_655
O20 Ti7 1.919138 1_555
O20 Ti4 2.117404 1_455
O21 Ti5 1.848506 1_555
O22 Ti6 2.011347 1_555
O23 Ti5 1.955961 1_555
O23 Ti6 2.155458 1_556
O24 Ti7 1.874667 1_555
O25 Ti6 1.955961 1_555
O25 Ti5 2.155458 1_554
O26 Ti0 1.869762 1_555
O26 Ti7 2.146987 1_655
O27 Ti6 1.904807 1_555
O27 Ti1 2.090512 1_555
O28 Ti1 1.868811 1_556
O28 Ti6 2.163522 1_556
O29 Ti1 1.872124 1_555
O29 Ti0 2.144994 1_555
