# generated using pymatgen
data_V3O5F
_symmetry_space_group_name_H-M   'P 1'
_cell_length_a   4.65614800
_cell_length_b   5.55605516
_cell_length_c   7.50171953
_cell_angle_alpha   84.50991025
_cell_angle_beta   89.27507259
_cell_angle_gamma   88.85874336
_symmetry_Int_Tables_number   1
_chemical_formula_structural   V3O5F
_chemical_formula_sum   'V6 O10 F2'
_cell_volume   193.12827953
_cell_formula_units_Z   2
loop_
 _symmetry_equiv_pos_site_id
 _symmetry_equiv_pos_as_xyz
  1  'x, y, z'
loop_
 _atom_site_type_symbol
 _atom_site_label
 _atom_site_symmetry_multiplicity
 _atom_site_fract_x
 _atom_site_fract_y
 _atom_site_fract_z
 _atom_site_occupancy
  V  V0  1  0.51883400  0.67815800  0.34056600  1
  V  V1  1  0.48116600  0.32184200  0.65943400  1
  V  V2  1  0.50000000  0.00000000  0.00000000  1
  V  V3  1  0.98356600  0.14598000  0.33632800  1
  V  V4  1  0.00000000  0.50000000  0.00000000  1
  V  V5  1  0.01643400  0.85402000  0.66367200  1
  O  O0  1  0.79858900  0.19373800  0.10132300  1
  O  O1  1  0.79652400  0.86108200  0.43799300  1
  O  O2  1  0.69738600  0.04095100  0.76214700  1
  O  O3  1  0.69822800  0.36647900  0.43764800  1
  O  O4  1  0.69146600  0.69534200  0.10850800  1
  O  O5  1  0.30261400  0.95904900  0.23785300  1
  O  O6  1  0.30853400  0.30465800  0.89149200  1
  O  O7  1  0.30177200  0.63352100  0.56235200  1
  O  O8  1  0.20141100  0.80626200  0.89867700  1
  O  O9  1  0.20347600  0.13891800  0.56200700  1
  F  F0  1  0.79703500  0.53894800  0.76026600  1
  F  F1  1  0.20296500  0.46105200  0.23973400  1
loop_
_geom_bond_atom_site_label_1
_geom_bond_atom_site_label_2
_geom_bond_distance
_geom_bond_site_symmetry_2
O0 V3 1.964684 1_555
O0 V2 1.977928 1_555
O0 V4 2.037334 1_655
O1 V0 1.859372 1_555
O1 V3 1.911236 1_565
O1 V5 1.986383 1_655
O2 V1 1.941602 1_555
O2 V5 1.972006 1_645
O2 V2 1.992320 1_556
O3 V1 1.933804 1_555
O3 V3 1.982800 1_555
O3 V0 1.985788 1_555
O4 V0 1.903040 1_555
O4 V4 1.995406 1_655
O4 V2 2.004290 1_565
O5 V0 1.941602 1_555
O5 V3 1.972006 1_465
O5 V2 1.992320 1_565
O6 V1 1.903040 1_555
O6 V4 1.995406 1_556
O6 V2 2.004290 1_556
O7 V0 1.933804 1_555
O7 V5 1.982800 1_555
O7 V1 1.985788 1_555
O8 V5 1.964684 1_555
O8 V2 1.977928 1_566
O8 V4 2.037334 1_556
O9 V1 1.859372 1_555
O9 V5 1.911236 1_545
O9 V3 1.986383 1_455
F0 V4 2.033376 1_656
F0 V5 2.107815 1_655
F0 V1 2.112741 1_555
F1 V4 2.033376 1_555
F1 V3 2.107815 1_455
F1 V0 2.112741 1_555
