# generated using pymatgen
data_LiZnCr3(SO4)6
_symmetry_space_group_name_H-M   'P 1'
_cell_length_a   8.30795300
_cell_length_b   8.88456919
_cell_length_c   14.36136361
_cell_angle_alpha   105.44308743
_cell_angle_beta   90.06619908
_cell_angle_gamma   117.69944412
_symmetry_Int_Tables_number   1
_chemical_formula_structural   LiZnCr3(SO4)6
_chemical_formula_sum   'Li2 Zn2 Cr6 S12 O48'
_cell_volume   894.93337640
_cell_formula_units_Z   2
loop_
 _symmetry_equiv_pos_site_id
 _symmetry_equiv_pos_as_xyz
  1  'x, y, z'
loop_
 _atom_site_type_symbol
 _atom_site_label
 _atom_site_symmetry_multiplicity
 _atom_site_fract_x
 _atom_site_fract_y
 _atom_site_fract_z
 _atom_site_occupancy
  Li  Li0  1  0.36031200  0.18720800  0.58975700  1
  Li  Li1  1  0.80624400  0.60635100  0.38269600  1
  Zn  Zn0  1  0.28514000  0.71269300  0.42419600  1
  Zn  Zn1  1  0.74335300  0.29376900  0.58525300  1
  Cr  Cr0  1  0.77328200  0.69657800  0.92520400  1
  Cr  Cr1  1  0.46715200  0.28414500  0.82622900  1
  Cr  Cr2  1  0.96800500  0.29560400  0.31839600  1
  Cr  Cr3  1  0.02813800  0.69782500  0.68161000  1
  Cr  Cr4  1  0.53179400  0.71417100  0.17432700  1
  Cr  Cr5  1  0.23004800  0.30681000  0.07504600  1
  S  S0  1  0.02865900  0.20533200  0.77494900  1
  S  S1  1  0.58211100  0.49200900  0.63074900  1
  S  S2  1  0.51723600  0.79060000  0.97832200  1
  S  S3  1  0.98324900  0.20662400  0.51799400  1
  S  S4  1  0.91422300  0.50179700  0.87576700  1
  S  S5  1  0.52457300  0.22245300  0.26426800  1
  S  S6  1  0.47954400  0.78195600  0.73457000  1
  S  S7  1  0.08648500  0.50004900  0.12391900  1
  S  S8  1  0.01968200  0.79407400  0.47964800  1
  S  S9  1  0.48492200  0.21016700  0.02263500  1
  S  S10  1  0.40934900  0.50668800  0.37100400  1
  S  S11  1  0.97612400  0.79205200  0.22786700  1
  O  O0  1  0.43628100  0.58013100  0.74981800  1
  O  O1  1  0.43677600  0.18841100  0.94813600  1
  O  O2  1  0.88537200  0.02488100  0.83979600  1
  O  O3  1  0.74015800  0.37278200  0.85555600  1
  O  O4  1  0.97532200  0.25797400  0.67970600  1
  O  O5  1  0.20197400  0.13475900  0.82293800  1
  O  O6  1  0.45046400  0.38799900  0.69531900  1
  O  O7  1  0.51710900  0.66362200  0.52889300  1
  O  O8  1  0.50418500  0.00821800  0.87998300  1
  O  O9  1  0.84563200  0.29439000  0.50225800  1
  O  O10  1  0.17275200  0.35184300  0.51546800  1
  O  O11  1  0.88167000  0.67764700  0.85995500  1
  O  O12  1  0.59373200  0.31022700  0.64283200  1
  O  O13  1  0.33374300  0.63115900  0.98575400  1
  O  O14  1  0.94875100  0.60069500  0.23773400  1
  O  O15  1  0.66534500  0.72097400  0.99090000  1
  O  O16  1  0.98185500  0.98368300  0.61579000  1
  O  O17  1  0.93311700  0.19136100  0.44093000  1
  O  O18  1  0.99750000  0.34500800  0.97749600  1
  O  O19  1  0.04143700  0.61756800  0.80742700  1
  O  O20  1  0.38773600  0.04873700  0.33055800  1
  O  O21  1  0.24032000  0.38796800  0.34269000  1
  O  O22  1  0.30374800  0.85385900  0.68969900  1
  O  O23  1  0.54293200  0.73950400  0.82899400  1
  O  O24  1  0.45969800  0.27181400  0.16779100  1
  O  O25  1  0.69832500  0.15676400  0.30553200  1
  O  O26  1  0.76220800  0.59073400  0.66329300  1
  O  O27  1  0.61188700  0.96018000  0.66534300  1
  O  O28  1  0.95770300  0.38493400  0.19109200  1
  O  O29  1  0.00517000  0.65821800  0.02184200  1
  O  O30  1  0.05251000  0.80417400  0.55677300  1
  O  O31  1  0.01053600  0.01533900  0.38184600  1
  O  O32  1  0.33600000  0.27848300  0.01038700  1
  O  O33  1  0.06029400  0.40064300  0.76396200  1
  O  O34  1  0.66750400  0.37172500  0.01421000  1
  O  O35  1  0.38132900  0.68651700  0.35127300  1
  O  O36  1  0.11996400  0.32501700  0.13976900  1
  O  O37  1  0.83744800  0.63769500  0.48029600  1
  O  O38  1  0.16983100  0.72722500  0.49382300  1
  O  O39  1  0.49975700  0.99287000  0.12111900  1
  O  O40  1  0.48257300  0.34402100  0.47505300  1
  O  O41  1  0.55157200  0.60619800  0.31047000  1
  O  O42  1  0.79986800  0.85665900  0.18374500  1
  O  O43  1  0.02798400  0.73375600  0.32550300  1
  O  O44  1  0.26000400  0.62887200  0.14496600  1
  O  O45  1  0.11736500  0.97633400  0.16377800  1
  O  O46  1  0.56556200  0.81276200  0.05295100  1
  O  O47  1  0.56637000  0.42471500  0.25014200  1
loop_
_geom_bond_atom_site_label_1
_geom_bond_atom_site_label_2
_geom_bond_distance
_geom_bond_site_symmetry_2
Li0 O12 1.765981 1_555
Li0 O6 1.832110 1_555
Li0 O40 2.365778 1_555
Li1 O37 1.354105 1_555
Li1 O43 1.977295 1_655
Li1 O47 2.359024 1_555
Li1 O14 2.396590 1_555
Cr0 O11 1.332691 1_555
Cr0 O15 1.347226 1_555
Cr0 O29 2.570967 1_656
Cr0 O23 2.582635 1_555
Cr1 O5 1.966054 1_555
Cr1 O3 2.025476 1_555
Cr1 O1 2.108737 1_555
Cr1 O6 2.333953 1_555
Cr2 O25 1.970753 1_555
Cr2 O21 2.008291 1_655
Cr2 O17 2.158263 1_555
Cr2 O28 2.194378 1_555
Cr3 O26 1.940811 1_455
Cr3 O22 2.034917 1_555
Cr3 O19 2.131780 1_555
Cr3 O30 2.207518 1_555
Cr4 O42 1.966739 1_555
Cr4 O44 2.021762 1_555
Cr4 O46 2.114305 1_555
Cr4 O41 2.432020 1_555
Cr5 O32 1.335602 1_555
Cr5 O36 1.336423 1_555
Cr5 O24 2.505412 1_555
Cr5 O18 2.582045 1_454
O0 O23 1.434161 1_555
O0 S6 1.732795 1_555
O0 O6 1.736674 1_555
O0 S1 2.275639 1_555
O1 S9 1.076594 1_556
O1 O8 1.958292 1_555
O2 S0 1.969310 1_655
O3 S4 1.330494 1_555
O4 S0 1.678690 1_655
O4 S3 2.251679 1_555
O4 Zn1 2.539428 1_555
O5 S0 2.002145 1_555
O6 S1 1.558577 1_555
O7 S10 2.244599 1_555
O8 S6 2.413463 1_545
O9 Zn1 1.464319 1_555
O10 S3 1.510389 1_455
O11 S4 1.774055 1_555
O12 Zn1 1.535345 1_555
O12 S1 1.715230 1_555
O12 O6 1.718035 1_555
O13 S2 1.554122 1_555
O14 O43 1.378672 1_655
O14 S11 1.652621 1_555
O14 O28 1.891484 1_555
O14 S7 2.226630 1_655
O15 S2 1.641954 1_555
O16 O30 1.938584 1_655
O16 S8 2.344966 1_655
O16 S0 2.478441 1_665
O17 S3 1.132802 1_555
O17 O31 1.951692 1_655
O18 S7 2.091160 1_656
O19 S4 1.633286 1_455
O19 O33 1.941352 1_555
O20 S5 1.932516 1_555
O21 S10 1.281854 1_555
O22 S6 2.010196 1_555
O23 S6 1.647383 1_555
O23 S2 2.103199 1_555
O24 O47 1.432568 1_555
O24 S5 1.715858 1_555
O24 S9 2.046769 1_555
O25 S5 1.934162 1_555
O26 S1 1.336598 1_555
O27 S6 1.981661 1_555
O28 S7 1.622316 1_655
O29 S4 2.090613 1_454
O30 S8 1.110349 1_555
O31 S3 2.313492 1_455
O31 S11 2.458104 1_445
O32 S9 1.638470 1_555
O33 O4 1.385110 1_455
O33 S0 1.681370 1_555
O33 S4 2.260197 1_455
O34 S9 1.563530 1_555
O35 Zn0 1.354431 1_555
O35 S10 1.809383 1_555
O36 S7 1.771425 1_555
O37 S8 1.507966 1_655
O38 Zn0 1.408091 1_555
O39 O46 1.948879 1_555
O39 S5 2.409210 1_565
O40 S1 2.198073 1_555
O41 S10 1.540804 1_555
O41 O47 1.675154 1_555
O42 S11 1.961689 1_555
O43 S11 1.735755 1_455
O43 S8 2.143706 1_555
O44 S7 1.326782 1_555
O45 S11 1.980825 1_455
O46 S2 1.077863 1_554
O47 S5 1.733545 1_555
O47 S10 2.336719 1_555
