# generated using pymatgen
data_Li4Cr3O8
_symmetry_space_group_name_H-M   'P 1'
_cell_length_a   6.11497413
_cell_length_b   10.76254287
_cell_length_c   10.76502250
_cell_angle_alpha   31.28819051
_cell_angle_beta   28.33441382
_cell_angle_gamma   51.37734822
_symmetry_Int_Tables_number   1
_chemical_formula_structural   Li4Cr3O8
_chemical_formula_sum   'Li4 Cr3 O8'
_cell_volume   149.24184576
_cell_formula_units_Z   1
loop_
 _symmetry_equiv_pos_site_id
 _symmetry_equiv_pos_as_xyz
  1  'x, y, z'
loop_
 _atom_site_type_symbol
 _atom_site_label
 _atom_site_symmetry_multiplicity
 _atom_site_fract_x
 _atom_site_fract_y
 _atom_site_fract_z
 _atom_site_occupancy
  Li  Li0  1  0.00050700  0.00014900  0.99974600  1
  Li  Li1  1  0.35746400  0.35651300  0.00001800  1
  Li  Li2  1  0.50045800  0.49909500  0.00020500  1
  Li  Li3  1  0.64349000  0.64229100  0.99995100  1
  Cr  Cr0  1  0.50139900  0.99999700  0.99905400  1
  Cr  Cr1  1  0.49894900  0.49905400  0.50117600  1
  Cr  Cr2  1  0.50067900  0.99888100  0.50066200  1
  O  O0  1  0.23608000  0.23486300  0.99992600  1
  O  O1  1  0.21646100  0.74357300  0.99981900  1
  O  O2  1  0.21671300  0.21524100  0.52793100  1
  O  O3  1  0.27349600  0.74385200  0.47104600  1
  O  O4  1  0.76495600  0.76377100  0.00037300  1
  O  O5  1  0.78484600  0.25528500  0.00023800  1
  O  O6  1  0.78519700  0.78376000  0.47151500  1
  O  O7  1  0.72848600  0.25560500  0.52813100  1
loop_
_geom_bond_atom_site_label_1
_geom_bond_atom_site_label_2
_geom_bond_distance
_geom_bond_site_symmetry_2
Li0 O5 2.184291 1_456
Li0 O7 2.188070 1_555
Li0 O6 2.188959 1_446
Li0 O3 2.190257 1_446
Li0 O2 2.192753 1_555
Li0 O1 2.194322 1_545
Li1 O0 1.865964 1_554
Li1 O6 2.111720 1_554
Li1 O7 2.112506 1_455
Li1 O5 2.114002 1_555
Li2 O7 2.052131 1_455
Li2 O5 2.052445 1_555
Li2 O2 2.054164 1_555
Li2 O6 2.054899 1_554
Li2 O1 2.056402 1_554
Li2 O3 2.056561 1_654
Li3 O4 1.868021 1_556
Li3 O2 2.110469 1_556
Li3 O1 2.111263 1_555
Li3 O3 2.112056 1_655
Cr0 O7 1.933049 1_565
Cr0 O2 1.933426 1_665
Cr0 O6 1.935532 1_456
Cr0 O3 1.936320 1_556
Cr0 O0 1.978871 1_565
Cr0 O4 1.981112 1_556
Cr1 O5 1.930734 1_456
Cr1 O3 1.933771 1_555
Cr1 O7 1.935426 1_555
Cr1 O1 1.938553 1_654
Cr1 O0 1.978963 1_555
Cr1 O4 1.980853 1_555
Cr2 O1 1.931570 1_555
Cr2 O6 1.933339 1_555
Cr2 O2 1.935696 1_565
Cr2 O5 1.937703 1_565
Cr2 O0 1.978974 1_664
Cr2 O4 1.980922 1_456
