# generated using pymatgen
data_BaS2(NO3)2
_symmetry_space_group_name_H-M   'P 1'
_cell_length_a   4.93527000
_cell_length_b   10.96402000
_cell_length_c   13.71785000
_cell_angle_alpha   90.00000000
_cell_angle_beta   90.00000000
_cell_angle_gamma   90.00000000
_symmetry_Int_Tables_number   1
_chemical_formula_structural   BaS2(NO3)2
_chemical_formula_sum   'Ba4 S8 N8 O24'
_cell_volume   742.27833672
_cell_formula_units_Z   4
loop_
 _symmetry_equiv_pos_site_id
 _symmetry_equiv_pos_as_xyz
  1  'x, y, z'
loop_
 _atom_site_type_symbol
 _atom_site_label
 _atom_site_symmetry_multiplicity
 _atom_site_fract_x
 _atom_site_fract_y
 _atom_site_fract_z
 _atom_site_occupancy
  Ba  Ba0  1  0.01592500  0.67513300  0.31146300  1
  Ba  Ba1  1  0.51592500  0.32486700  0.68853700  1
  Ba  Ba2  1  0.51592500  0.82486700  0.81146300  1
  Ba  Ba3  1  0.01592500  0.17513300  0.18853700  1
  S  S0  1  0.45324000  0.44427100  0.18575700  1
  S  S1  1  0.95324000  0.55572900  0.81424300  1
  S  S2  1  0.95324000  0.05572900  0.68575700  1
  S  S3  1  0.45324000  0.94427100  0.31424300  1
  S  S4  1  0.56632000  0.66245600  0.55470800  1
  S  S5  1  0.06632000  0.33754400  0.44529200  1
  S  S6  1  0.06632000  0.83754400  0.05470800  1
  S  S7  1  0.56632000  0.16245600  0.94529200  1
  N  N0  1  0.59699400  0.46297900  0.07800900  1
  N  N1  1  0.09699400  0.53702100  0.92199100  1
  N  N2  1  0.09699400  0.03702100  0.57800900  1
  N  N3  1  0.59699400  0.96297900  0.42199100  1
  N  N4  1  0.89403200  0.66159800  0.53487300  1
  N  N5  1  0.39403200  0.33840200  0.46512700  1
  N  N6  1  0.39403200  0.83840200  0.03487300  1
  N  N7  1  0.89403200  0.16159800  0.96512700  1
  O  O0  1  0.57219500  0.33187200  0.22624400  1
  O  O1  1  0.07219500  0.66812800  0.77375600  1
  O  O2  1  0.07219500  0.16812800  0.72624400  1
  O  O3  1  0.57219500  0.83187200  0.27375600  1
  O  O4  1  0.15970200  0.43128600  0.16989900  1
  O  O5  1  0.65970200  0.56871400  0.83010100  1
  O  O6  1  0.65970200  0.06871400  0.66989900  1
  O  O7  1  0.15970200  0.93128600  0.33010100  1
  O  O8  1  0.51942100  0.55536200  0.24155400  1
  O  O9  1  0.01942100  0.44463800  0.75844600  1
  O  O10  1  0.01942100  0.94463800  0.74155400  1
  O  O11  1  0.51942100  0.05536200  0.25844600  1
  O  O12  1  0.51427700  0.76963600  0.61554600  1
  O  O13  1  0.01427700  0.23036400  0.38445400  1
  O  O14  1  0.01427700  0.73036400  0.11554600  1
  O  O15  1  0.51427700  0.26963600  0.88445400  1
  O  O16  1  0.49727800  0.54706200  0.60230600  1
  O  O17  1  0.99727800  0.45293800  0.39769400  1
  O  O18  1  0.99727800  0.95293800  0.10230600  1
  O  O19  1  0.49727800  0.04706200  0.89769400  1
  O  O20  1  0.46451500  0.17310400  0.04621400  1
  O  O21  1  0.96451500  0.82689600  0.95378600  1
  O  O22  1  0.96451500  0.32689600  0.54621400  1
  O  O23  1  0.46451500  0.67310400  0.45378600  1
loop_
_geom_bond_atom_site_label_1
_geom_bond_atom_site_label_2
_geom_bond_distance
_geom_bond_site_symmetry_2
Ba0 O17 2.709716 1_455
Ba0 O14 2.754948 1_555
Ba0 O3 2.831350 1_455
Ba0 O7 2.907981 1_555
Ba0 O8 2.940828 1_455
Ba0 O23 2.951887 1_555
Ba0 O8 2.969642 1_555
Ba0 N4 3.126712 1_455
Ba0 O3 3.279889 1_555
Ba0 O23 3.349330 1_455
Ba0 O4 3.379722 1_555
Ba1 O16 2.709716 1_555
Ba1 O15 2.754948 1_555
Ba1 O2 2.831350 1_555
Ba1 O6 2.907981 1_555
Ba1 O9 2.940828 1_555
Ba1 O22 2.951887 1_555
Ba1 O9 2.969642 1_655
Ba1 N5 3.126712 1_555
Ba1 O2 3.279889 1_655
Ba1 O22 3.349330 1_455
Ba1 O5 3.379722 1_555
Ba2 O19 2.709716 1_565
Ba2 O12 2.754948 1_555
Ba2 O1 2.831350 1_555
Ba2 O5 2.907981 1_555
Ba2 O10 2.940828 1_555
Ba2 O21 2.951887 1_555
Ba2 O10 2.969642 1_655
Ba2 N6 3.126712 1_556
Ba2 O1 3.279889 1_655
Ba2 O21 3.349330 1_455
Ba2 O6 3.379722 1_565
Ba3 O18 2.709716 1_445
Ba3 O13 2.754948 1_555
Ba3 O0 2.831350 1_455
Ba3 O4 2.907981 1_555
Ba3 O11 2.940828 1_455
Ba3 O20 2.951887 1_555
Ba3 O11 2.969642 1_555
Ba3 N7 3.126712 1_454
Ba3 O0 3.279889 1_555
Ba3 O20 3.349330 1_455
Ba3 O7 3.379722 1_545
N0 S0 1.652303 1_555
N1 S1 1.652303 1_455
N2 S2 1.652303 1_455
N3 S3 1.652303 1_555
N4 S4 1.640102 1_555
N5 S5 1.640102 1_555
N6 S6 1.640102 1_555
N7 S7 1.640102 1_555
O0 S0 1.473701 1_555
O1 S1 1.473701 1_455
O2 S2 1.473701 1_455
O3 S3 1.473701 1_555
O4 S0 1.471833 1_555
O5 S1 1.471833 1_555
O6 S2 1.471833 1_555
O7 S3 1.471833 1_555
O8 S0 1.475152 1_555
O9 S1 1.475152 1_455
O10 S2 1.475152 1_465
O11 S3 1.475152 1_545
O12 S4 1.464031 1_555
O13 S5 1.464031 1_555
O14 S6 1.464031 1_555
O15 S7 1.464031 1_555
O16 S4 1.463941 1_555
O17 S5 1.463941 1_655
O18 S6 1.463941 1_655
O19 S7 1.463941 1_555
O20 S7 1.477405 1_554
O21 S6 1.477405 1_656
O22 S5 1.477405 1_655
O23 S4 1.477405 1_555
