# generated using pymatgen
data_LiMnF3
_symmetry_space_group_name_H-M   'P 1'
_cell_length_a   7.73081900
_cell_length_b   8.57623787
_cell_length_c   8.64343814
_cell_angle_alpha   83.36270880
_cell_angle_beta   112.65779217
_cell_angle_gamma   112.97876487
_symmetry_Int_Tables_number   1
_chemical_formula_structural   LiMnF3
_chemical_formula_sum   'Li8 Mn8 F24'
_cell_volume   486.47047624
_cell_formula_units_Z   8
loop_
 _symmetry_equiv_pos_site_id
 _symmetry_equiv_pos_as_xyz
  1  'x, y, z'
loop_
 _atom_site_type_symbol
 _atom_site_label
 _atom_site_symmetry_multiplicity
 _atom_site_fract_x
 _atom_site_fract_y
 _atom_site_fract_z
 _atom_site_occupancy
  Li  Li0  1  0.86315200  0.39283300  0.87986400  1
  Li  Li1  1  0.68195500  0.95988700  0.05528600  1
  Li  Li2  1  0.71095300  0.49043900  0.50753100  1
  Li  Li3  1  0.47824500  0.56116300  0.14261700  1
  Li  Li4  1  0.52175500  0.43883700  0.85738300  1
  Li  Li5  1  0.28904700  0.50956100  0.49246900  1
  Li  Li6  1  0.31804500  0.04011300  0.94471400  1
  Li  Li7  1  0.13684800  0.60716700  0.12013600  1
  Mn  Mn0  1  0.99826800  0.19629700  0.64264300  1
  Mn  Mn1  1  0.73169100  0.30722900  0.22279600  1
  Mn  Mn2  1  0.88356900  0.76821900  0.81843800  1
  Mn  Mn3  1  0.43728500  0.13447900  0.56907200  1
  Mn  Mn4  1  0.56271500  0.86552100  0.43092800  1
  Mn  Mn5  1  0.11643100  0.23178100  0.18156200  1
  Mn  Mn6  1  0.26830900  0.69277100  0.77720400  1
  Mn  Mn7  1  0.00173200  0.80370300  0.35735700  1
  F  F0  1  0.80441700  0.20200800  0.02062200  1
  F  F1  1  0.81102200  0.31734800  0.48815000  1
  F  F2  1  0.95355700  0.96372000  0.15724500  1
  F  F3  1  0.74903000  0.56794700  0.28195100  1
  F  F4  1  0.94999600  0.59450600  0.71149400  1
  F  F5  1  0.68761700  0.04149000  0.63331400  1
  F  F6  1  0.85246500  0.84475000  0.49442400  1
  F  F7  1  0.46295200  0.27829800  0.02594500  1
  F  F8  1  0.60269700  0.35254100  0.71210200  1
  F  F9  1  0.83803100  0.56685600  0.98975300  1
  F  F10  1  0.41645100  0.32137900  0.35452900  1
  F  F11  1  0.62903400  0.03085700  0.23572100  1
  F  F12  1  0.37096600  0.96914300  0.76427900  1
  F  F13  1  0.58354900  0.67862100  0.64547100  1
  F  F14  1  0.16196900  0.43314400  0.01024700  1
  F  F15  1  0.39730300  0.64745900  0.28789800  1
  F  F16  1  0.53704800  0.72170200  0.97405500  1
  F  F17  1  0.14753500  0.15525000  0.50557600  1
  F  F18  1  0.31238300  0.95851000  0.36668600  1
  F  F19  1  0.05000400  0.40549400  0.28850600  1
  F  F20  1  0.25097000  0.43205300  0.71804900  1
  F  F21  1  0.04644300  0.03628000  0.84275500  1
  F  F22  1  0.18897800  0.68265200  0.51185000  1
  F  F23  1  0.19558300  0.79799200  0.97937800  1
loop_
_geom_bond_atom_site_label_1
_geom_bond_atom_site_label_2
_geom_bond_distance
_geom_bond_site_symmetry_2
F0 Li0 1.936453 1_554
F0 Li1 1.958999 1_545
F0 Mn5 2.198781 1_655
F0 Mn1 2.387832 1_555
F1 Li2 1.970832 1_555
F1 Mn0 2.078458 1_555
F1 Mn1 2.136549 1_555
F2 Li1 1.927080 1_555
F2 Mn7 2.089922 1_655
F2 Mn5 2.135997 1_665
F3 Li3 1.953141 1_555
F3 Li2 2.078460 1_555
F3 Mn7 2.137516 1_655
F3 Mn1 2.292699 1_555
F4 Li2 1.971169 1_555
F4 Mn6 2.122038 1_655
F4 Mn2 2.149210 1_555
F4 Li0 2.196449 1_555
F5 Mn4 2.107394 1_545
F5 Mn0 2.218748 1_555
F5 Mn3 2.228079 1_555
F6 Mn7 2.079907 1_655
F6 Mn4 2.166182 1_555
F7 Li4 1.944968 1_554
F7 Li6 1.964565 1_554
F7 Mn1 2.060215 1_555
F8 Li0 1.897213 1_555
F8 Li4 1.923012 1_555
F8 Mn3 2.027388 1_555
F8 Li2 2.260425 1_555
F9 Li0 1.965562 1_555
F9 Li7 2.046175 1_656
F9 Li4 2.128826 1_555
F9 Mn2 2.152832 1_555
F10 Mn5 2.099429 1_555
F10 Li2 2.140272 1_555
F10 Mn3 2.306149 1_555
F11 Li1 1.968650 1_545
F11 Mn4 2.160122 1_545
F11 Mn1 2.190596 1_555
F12 Li6 1.968650 1_565
F12 Mn3 2.160122 1_565
F12 Mn6 2.190596 1_555
F13 Mn2 2.099429 1_555
F13 Li5 2.140272 1_555
F13 Mn4 2.306149 1_555
F14 Li7 1.965562 1_555
F14 Li0 2.046175 1_454
F14 Li3 2.128826 1_555
F14 Mn5 2.152832 1_555
F15 Li7 1.897213 1_555
F15 Li3 1.923012 1_555
F15 Mn4 2.027388 1_555
F15 Li5 2.260425 1_555
F16 Li3 1.944968 1_556
F16 Li1 1.964565 1_556
F16 Mn6 2.060215 1_555
F17 Mn0 2.079907 1_455
F17 Mn3 2.166182 1_555
F18 Mn3 2.107394 1_565
F18 Mn7 2.218748 1_555
F18 Mn4 2.228079 1_555
F19 Li5 1.971169 1_555
F19 Mn1 2.122038 1_455
F19 Mn5 2.149210 1_555
F19 Li7 2.196449 1_555
F20 Li4 1.953141 1_555
F20 Li5 2.078460 1_555
F20 Mn0 2.137516 1_455
F20 Mn6 2.292699 1_555
F21 Li6 1.927080 1_555
F21 Mn0 2.089922 1_455
F21 Mn2 2.135997 1_445
F22 Li5 1.970832 1_555
F22 Mn7 2.078458 1_555
F22 Mn6 2.136549 1_555
F23 Li7 1.936453 1_556
F23 Li6 1.958999 1_565
F23 Mn2 2.198781 1_455
F23 Mn6 2.387832 1_555
