# generated using pymatgen
data_HfSiS
_symmetry_space_group_name_H-M   'P 1'
_cell_length_a   3.52589064
_cell_length_b   3.52589064
_cell_length_c   7.98395025
_cell_angle_alpha   90.00000000
_cell_angle_beta   90.00000000
_cell_angle_gamma   90.00000000
_symmetry_Int_Tables_number   1
_chemical_formula_structural   HfSiS
_chemical_formula_sum   'Hf2 Si2 S2'
_cell_volume   99.25570948
_cell_formula_units_Z   2
loop_
 _symmetry_equiv_pos_site_id
 _symmetry_equiv_pos_as_xyz
  1  'x, y, z'
loop_
 _atom_site_type_symbol
 _atom_site_label
 _atom_site_symmetry_multiplicity
 _atom_site_fract_x
 _atom_site_fract_y
 _atom_site_fract_z
 _atom_site_occupancy
  Hf  Hf0  1  0.75000000  0.75000000  0.73148929  1
  Hf  Hf1  1  0.25000000  0.25000000  0.26851071  1
  Si  Si0  1  0.75000000  0.25000000  -0.00000000  1
  Si  Si1  1  0.25000000  0.75000000  -0.00000000  1
  S  S0  1  0.25000000  0.25000000  0.62096423  1
  S  S1  1  0.75000000  0.75000000  0.37903577  1
loop_
_geom_bond_atom_site_label_1
_geom_bond_atom_site_label_2
_geom_bond_distance
_geom_bond_site_symmetry_2
Hf0 S0 2.644736 1_555
Hf0 S0 2.644736 1_655
Hf0 S0 2.644736 1_565
Hf0 S0 2.644736 1_665
Hf0 Si1 2.775563 1_656
Hf0 Si0 2.775563 1_566
Hf0 Si1 2.775563 1_556
Hf0 Si0 2.775563 1_556
Hf0 S1 2.813971 1_555
Hf1 S1 2.644736 1_555
Hf1 S1 2.644736 1_545
Hf1 S1 2.644736 1_445
Hf1 S1 2.644736 1_455
Hf1 Si1 2.775563 1_555
Hf1 Si1 2.775563 1_545
Hf1 Si0 2.775563 1_455
Hf1 Si0 2.775563 1_555
Hf1 S0 2.813971 1_555
Si0 Si1 2.493181 1_555
Si0 Si1 2.493181 1_545
Si0 Si1 2.493181 1_655
Si0 Si1 2.493181 1_645
