# generated using pymatgen
data_Li4Nb3Fe3(NiO8)2
_symmetry_space_group_name_H-M   'P 1'
_cell_length_a   6.10025887
_cell_length_b   6.10025887
_cell_length_c   9.81582900
_cell_angle_alpha   89.69296099
_cell_angle_beta   89.69296099
_cell_angle_gamma   60.04357195
_symmetry_Int_Tables_number   1
_chemical_formula_structural   Li4Nb3Fe3(NiO8)2
_chemical_formula_sum   'Li4 Nb3 Fe3 Ni2 O16'
_cell_volume   316.47276552
_cell_formula_units_Z   1
loop_
 _symmetry_equiv_pos_site_id
 _symmetry_equiv_pos_as_xyz
  1  'x, y, z'
loop_
 _atom_site_type_symbol
 _atom_site_label
 _atom_site_symmetry_multiplicity
 _atom_site_fract_x
 _atom_site_fract_y
 _atom_site_fract_z
 _atom_site_occupancy
  Li  Li0  1  0.33125800  0.33125800  0.09964400  1
  Li  Li1  1  0.99350000  0.99350000  0.99359000  1
  Li  Li2  1  0.98772300  0.98772300  0.50882100  1
  Li  Li3  1  0.66359500  0.66359500  0.62491900  1
  Nb  Nb0  1  0.17066100  0.17066100  0.78545500  1
  Nb  Nb1  1  0.83289600  0.33855500  0.28603200  1
  Nb  Nb2  1  0.33855500  0.83289600  0.28603200  1
  Fe  Fe0  1  0.66157400  0.17013500  0.78427600  1
  Fe  Fe1  1  0.17013500  0.66157400  0.78427600  1
  Fe  Fe2  1  0.83270800  0.83270800  0.28297000  1
  Ni  Ni0  1  0.34025000  0.34025000  0.52455300  1
  Ni  Ni1  1  0.67380600  0.67380600  0.98812100  1
  O  O0  1  0.68649600  0.16004300  0.39262700  1
  O  O1  1  0.48135500  0.48135500  0.66601400  1
  O  O2  1  0.32988100  0.32988100  0.89979100  1
  O  O3  1  0.00289500  0.00289500  0.68751500  1
  O  O4  1  0.00414300  0.00414300  0.17967100  1
  O  O5  1  0.16004300  0.68649600  0.39262700  1
  O  O6  1  0.47689900  0.03542700  0.66163900  1
  O  O7  1  0.03542700  0.47689900  0.66163900  1
  O  O8  1  0.84191900  0.84191900  0.89391300  1
  O  O9  1  0.15742400  0.15742400  0.39625000  1
  O  O10  1  0.96460500  0.51441200  0.17108800  1
  O  O11  1  0.51441200  0.96460500  0.17108800  1
  O  O12  1  0.66108900  0.66108900  0.40018600  1
  O  O13  1  0.84722500  0.32413700  0.89829300  1
  O  O14  1  0.51435000  0.51435000  0.17281100  1
  O  O15  1  0.32413700  0.84722500  0.89829300  1
loop_
_geom_bond_atom_site_label_1
_geom_bond_atom_site_label_2
_geom_bond_distance
_geom_bond_site_symmetry_2
Li0 O2 1.961867 1_554
Li0 O10 2.058816 1_455
Li0 O11 2.058816 1_545
Li0 O14 2.067319 1_555
Li1 O4 1.830691 1_666
Li1 O8 1.881668 1_555
Li1 O13 1.982607 1_565
Li1 O15 1.982607 1_655
Li2 O3 1.762324 1_665
Li2 O0 1.965452 1_565
Li2 O5 1.965452 1_655
Li2 O9 2.100020 1_665
Li3 O1 1.964480 1_555
Li3 O6 1.999124 1_565
Li3 O7 1.999124 1_655
Li3 O12 2.206263 1_555
Nb0 O3 2.021403 1_555
Nb0 O7 2.023579 1_555
Nb0 O6 2.023579 1_555
Nb0 O2 2.027772 1_555
Nb0 O15 2.034479 1_545
Nb0 O13 2.034479 1_455
Nb1 O10 1.976737 1_555
Nb1 O0 2.006801 1_555
Nb1 O14 2.022486 1_555
Nb1 O9 2.033755 1_655
Nb1 O12 2.043737 1_555
Nb1 O4 2.055659 1_655
Nb2 O11 1.976737 1_555
Nb2 O5 2.006801 1_555
Nb2 O14 2.022486 1_555
Nb2 O9 2.033755 1_565
Nb2 O12 2.043737 1_555
Nb2 O4 2.055659 1_565
Fe0 O1 2.016478 1_555
Fe0 O3 2.036179 1_655
Fe0 O8 2.041342 1_545
Fe0 O6 2.084035 1_555
Fe0 O2 2.085080 1_555
Fe0 O13 2.122525 1_555
Fe1 O1 2.016478 1_555
Fe1 O3 2.036179 1_565
Fe1 O8 2.041342 1_455
Fe1 O7 2.084035 1_555
Fe1 O2 2.085080 1_555
Fe1 O15 2.122525 1_555
Fe2 O10 2.019100 1_555
Fe2 O11 2.019100 1_555
Fe2 O5 2.043405 1_655
Fe2 O0 2.043405 1_565
Fe2 O4 2.070032 1_665
Fe2 O12 2.141186 1_555
Ni0 O1 2.043415 1_555
Ni0 O6 2.097730 1_555
Ni0 O7 2.097730 1_555
Ni0 O0 2.239154 1_555
Ni0 O5 2.239154 1_555
Ni0 O9 2.312173 1_555
Ni1 O8 1.997139 1_555
Ni1 O13 2.050161 1_555
Ni1 O15 2.050161 1_555
Ni1 O11 2.368687 1_556
Ni1 O10 2.368687 1_556
Ni1 O14 2.466998 1_556
