# generated using pymatgen
data_Dy2Ti2O7
_symmetry_space_group_name_H-M   'P 1'
_cell_length_a   5.30781145
_cell_length_b   7.47918895
_cell_length_c   13.06433114
_cell_angle_alpha   81.63601787
_cell_angle_beta   90.00001652
_cell_angle_gamma   89.99998683
_symmetry_Int_Tables_number   1
_chemical_formula_structural   Dy2Ti2O7
_chemical_formula_sum   'Dy8 Ti8 O28'
_cell_volume   513.11328866
_cell_formula_units_Z   4
loop_
 _symmetry_equiv_pos_site_id
 _symmetry_equiv_pos_as_xyz
  1  'x, y, z'
loop_
 _atom_site_type_symbol
 _atom_site_label
 _atom_site_symmetry_multiplicity
 _atom_site_fract_x
 _atom_site_fract_y
 _atom_site_fract_z
 _atom_site_occupancy
  Dy  Dy0  1  0.77109793  0.76617977  0.92329313  1
  Dy  Dy1  1  0.35777957  0.85825220  0.56349408  1
  Dy  Dy2  1  0.24717796  0.71495466  0.13218321  1
  Dy  Dy3  1  0.78054137  0.64552772  0.38619069  1
  Dy  Dy4  1  0.28054182  0.35447232  0.61380943  1
  Dy  Dy5  1  0.74717762  0.28504474  0.86781669  1
  Dy  Dy6  1  0.85777973  0.14174768  0.43650630  1
  Dy  Dy7  1  0.27109832  0.23382059  0.07670679  1
  Ti  Ti0  1  0.28331521  0.92874561  0.32044822  1
  Ti  Ti1  1  0.76734348  0.96997910  0.12149087  1
  Ti  Ti2  1  0.79399720  0.58952368  0.67278911  1
  Ti  Ti3  1  0.26708594  0.53056685  0.87446548  1
  Ti  Ti4  1  0.76708643  0.46943236  0.12553441  1
  Ti  Ti5  1  0.29399999  0.41047615  0.32721128  1
  Ti  Ti6  1  0.26734290  0.03002199  0.87850824  1
  Ti  Ti7  1  0.78331513  0.07125470  0.67955179  1
  O  O0  1  0.43454976  0.99053963  0.17901729  1
  O  O1  1  0.56281553  0.92616712  0.40758485  1
  O  O2  1  0.67318530  0.82760351  0.68568183  1
  O  O3  1  0.34878615  0.77853833  0.88435821  1
  O  O4  1  0.06659958  0.86032751  0.43135961  1
  O  O5  1  0.04147302  0.94156487  0.02412510  1
  O  O6  1  0.95539630  0.87186439  0.23240325  1
  O  O7  1  0.09705262  0.63387422  0.61714954  1
  O  O8  1  0.93228176  0.57738347  0.82236776  1
  O  O9  1  0.37861856  0.67356199  0.30457641  1
  O  O10  1  0.65437596  0.72749625  0.09063404  1
  O  O11  1  0.58961254  0.58717645  0.55290391  1
  O  O12  1  0.53875739  0.45476382  0.97398985  1
  O  O13  1  0.45649834  0.48656829  0.76446937  1
  O  O14  1  0.95649876  0.51343167  0.23553091  1
  O  O15  1  0.03875813  0.54523595  0.02601071  1
  O  O16  1  0.08961275  0.41282399  0.44709622  1
  O  O17  1  0.15437625  0.27250353  0.90936602  1
  O  O18  1  0.87861613  0.32643968  0.69542231  1
  O  O19  1  0.43228305  0.42261562  0.17763258  1
  O  O20  1  0.59705327  0.36612760  0.38285195  1
  O  O21  1  0.45539555  0.12813573  0.76759655  1
  O  O22  1  0.54147348  0.05843424  0.97587475  1
  O  O23  1  0.56659913  0.13967193  0.56864026  1
  O  O24  1  0.84878632  0.22146120  0.11564140  1
  O  O25  1  0.17318545  0.17239642  0.31431832  1
  O  O26  1  0.06281532  0.07383298  0.59241482  1
  O  O27  1  0.93454902  0.00946051  0.82098249  1
loop_
_geom_bond_atom_site_label_1
_geom_bond_atom_site_label_2
_geom_bond_distance
_geom_bond_site_symmetry_2
Dy0 O8 2.237397 1_555
Dy0 O10 2.250107 1_556
Dy0 O27 2.267693 1_565
Dy0 O3 2.297423 1_555
Dy0 O15 2.429962 1_656
Dy0 O5 2.453193 1_656
Dy0 O12 2.633553 1_555
Dy0 O22 2.678067 1_565
Dy1 O7 2.209192 1_555
Dy1 O1 2.300034 1_555
Dy1 O2 2.301505 1_555
Dy1 O4 2.315391 1_555
Dy1 O26 2.317514 1_565
Dy1 O23 2.388374 1_565
Dy1 O11 2.392780 1_555
Dy2 O10 2.227101 1_555
Dy2 O15 2.295923 1_555
Dy2 O5 2.315494 1_555
Dy2 O9 2.334982 1_555
Dy2 O19 2.391816 1_555
Dy2 O14 2.425513 1_455
Dy2 O6 2.436612 1_455
Dy2 O0 2.445139 1_555
Dy3 O20 2.311651 1_555
Dy3 O4 2.347407 1_655
Dy3 O9 2.380521 1_555
Dy3 O11 2.384243 1_555
Dy3 O16 2.439379 1_655
Dy3 O1 2.447432 1_555
Dy3 O14 2.507620 1_555
Dy3 O6 2.602718 1_555
Dy4 O7 2.311668 1_555
Dy4 O23 2.347408 1_555
Dy4 O18 2.380527 1_455
Dy4 O16 2.384243 1_555
Dy4 O11 2.439379 1_555
Dy4 O26 2.447436 1_555
Dy4 O13 2.507619 1_555
Dy4 O21 2.602712 1_555
Dy5 O17 2.227105 1_655
Dy5 O12 2.295932 1_555
Dy5 O22 2.315494 1_555
Dy5 O18 2.334994 1_555
Dy5 O8 2.391812 1_555
Dy5 O13 2.425512 1_555
Dy5 O21 2.436612 1_555
Dy5 O27 2.445134 1_555
Dy6 O20 2.209197 1_555
Dy6 O26 2.300025 1_655
Dy6 O25 2.301508 1_655
Dy6 O23 2.315389 1_555
Dy6 O1 2.317515 1_545
Dy6 O4 2.388378 1_645
Dy6 O16 2.392784 1_655
Dy7 O19 2.237396 1_555
Dy7 O17 2.250105 1_554
Dy7 O0 2.267693 1_545
Dy7 O24 2.297423 1_455
Dy7 O12 2.429953 1_554
Dy7 O22 2.453199 1_554
Dy7 O15 2.633546 1_555
Dy7 O5 2.678077 1_545
O0 Ti1 1.934497 1_555
O0 Ti0 2.005874 1_555
O1 Ti0 1.868361 1_555
O2 Ti7 1.904332 1_565
O2 Ti2 1.922892 1_555
O3 Ti6 1.920587 1_565
O3 Ti3 1.927206 1_555
O4 Ti0 1.862485 1_555
O5 Ti1 1.964420 1_455
O5 Ti6 2.264492 1_564
O6 Ti1 1.823470 1_555
O6 Ti0 2.162376 1_655
O7 Ti2 1.776437 1_455
O8 Ti3 1.916904 1_655
O8 Ti2 2.077028 1_555
O9 Ti5 1.997903 1_555
O9 Ti0 2.014110 1_555
O10 Ti1 2.005938 1_555
O10 Ti4 2.008752 1_555
O11 Ti2 1.907412 1_555
O12 Ti3 1.968972 1_555
O12 Ti4 2.337459 1_556
O13 Ti3 1.822544 1_555
O13 Ti2 2.228957 1_555
O14 Ti4 1.822549 1_555
O14 Ti5 2.228967 1_655
O15 Ti4 1.968969 1_455
O15 Ti3 2.337464 1_554
O16 Ti5 1.907418 1_555
O17 Ti6 2.005932 1_555
O17 Ti3 2.008748 1_555
O18 Ti2 1.997890 1_555
O18 Ti7 2.014113 1_555
O19 Ti4 1.916903 1_555
O19 Ti5 2.077027 1_555
O20 Ti5 1.776429 1_555
O21 Ti6 1.823461 1_555
O21 Ti7 2.162377 1_555
O22 Ti6 1.964427 1_555
O22 Ti1 2.264481 1_546
O23 Ti7 1.862486 1_555
O24 Ti1 1.920576 1_545
O24 Ti4 1.927204 1_555
O25 Ti0 1.904329 1_545
O25 Ti5 1.922897 1_555
O26 Ti7 1.868364 1_455
O27 Ti6 1.934495 1_655
O27 Ti7 2.005870 1_555
