# generated using pymatgen
data_Li6MnV3(PO4)6
_symmetry_space_group_name_H-M   'P 1'
_cell_length_a   9.03342472
_cell_length_b   9.03342472
_cell_length_c   9.03342453
_cell_angle_alpha   56.13875257
_cell_angle_beta   56.13875257
_cell_angle_gamma   56.13874316
_symmetry_Int_Tables_number   1
_chemical_formula_structural   Li6MnV3(PO4)6
_chemical_formula_sum   'Li6 Mn1 V3 P6 O24'
_cell_volume   474.64745033
_cell_formula_units_Z   1
loop_
 _symmetry_equiv_pos_site_id
 _symmetry_equiv_pos_as_xyz
  1  'x, y, z'
loop_
 _atom_site_type_symbol
 _atom_site_label
 _atom_site_symmetry_multiplicity
 _atom_site_fract_x
 _atom_site_fract_y
 _atom_site_fract_z
 _atom_site_occupancy
  Li  Li0  1  0.73162400  0.33836900  0.07959500  1
  Li  Li1  1  0.07959500  0.73162400  0.33836900  1
  Li  Li2  1  0.33836900  0.07959500  0.73162400  1
  Li  Li3  1  0.66940700  0.91772300  0.26635400  1
  Li  Li4  1  0.91772300  0.26635400  0.66940700  1
  Li  Li5  1  0.26635400  0.66940700  0.91772300  1
  Mn  Mn0  1  0.65080000  0.65080000  0.65080000  1
  V  V0  1  0.34964600  0.34964600  0.34964600  1
  V  V1  1  0.85333300  0.85333300  0.85333300  1
  V  V2  1  0.14742000  0.14742000  0.14742000  1
  P  P0  1  0.04228700  0.45465900  0.75411500  1
  P  P1  1  0.45465900  0.75411500  0.04228700  1
  P  P2  1  0.75411500  0.04228700  0.45465900  1
  P  P3  1  0.24737400  0.96442000  0.53714400  1
  P  P4  1  0.53714400  0.24737400  0.96442000  1
  P  P5  1  0.96442000  0.53714400  0.24737400  1
  O  O0  1  0.85455400  0.44332400  0.79824000  1
  O  O1  1  0.16823300  0.48961600  0.53899700  1
  O  O2  1  0.48961600  0.53899700  0.16823300  1
  O  O3  1  0.44332400  0.79824000  0.85455400  1
  O  O4  1  0.79824000  0.85455400  0.44332400  1
  O  O5  1  0.00111000  0.61267900  0.80423800  1
  O  O6  1  0.25388800  0.87824100  0.14698100  1
  O  O7  1  0.61267900  0.80423800  0.00111000  1
  O  O8  1  0.53899700  0.16823300  0.48961600  1
  O  O9  1  0.87824100  0.14698100  0.25388800  1
  O  O10  1  0.80423800  0.00111000  0.61267900  1
  O  O11  1  0.14698100  0.25388800  0.87824100  1
  O  O12  1  0.86936000  0.73995400  0.12006500  1
  O  O13  1  0.17974500  0.00920900  0.38825100  1
  O  O14  1  0.12006500  0.86936000  0.73995400  1
  O  O15  1  0.45837500  0.84099100  0.49540400  1
  O  O16  1  0.38825100  0.17974500  0.00920900  1
  O  O17  1  0.73995400  0.12006500  0.86936000  1
  O  O18  1  0.00920900  0.38825100  0.17974500  1
  O  O19  1  0.20787500  0.15834500  0.53805400  1
  O  O20  1  0.53805400  0.20787500  0.15834500  1
  O  O21  1  0.49540400  0.45837500  0.84099100  1
  O  O22  1  0.84099100  0.49540400  0.45837500  1
  O  O23  1  0.15834500  0.53805400  0.20787500  1
loop_
_geom_bond_atom_site_label_1
_geom_bond_atom_site_label_2
_geom_bond_distance
_geom_bond_site_symmetry_2
Li0 O0 1.983577 1_554
Li0 O2 1.989043 1_555
Li0 O9 1.990190 1_555
Li0 O20 2.220266 1_555
Li1 O4 1.983577 1_455
Li1 O1 1.989043 1_555
Li1 O6 1.990191 1_555
Li1 O23 2.220266 1_555
Li2 O3 1.983577 1_545
Li2 O8 1.989043 1_555
Li2 O11 1.990190 1_555
Li2 O19 2.220266 1_555
Li3 O15 1.968385 1_555
Li3 O12 2.015008 1_555
Li3 O20 2.050474 1_565
Li3 O4 2.133633 1_555
Li4 O22 1.968385 1_555
Li4 O17 2.015008 1_555
Li4 O19 2.050474 1_655
Li4 O0 2.133633 1_555
Li5 O21 1.968385 1_555
Li5 O14 2.015008 1_555
Li5 O23 2.050474 1_556
Li5 O3 2.133633 1_555
Mn0 O15 2.155787 1_555
Mn0 O22 2.155787 1_555
Mn0 O21 2.155787 1_555
Mn0 O0 2.186390 1_555
Mn0 O3 2.186390 1_555
Mn0 O4 2.186391 1_555
O0 P0 1.562078 1_655
O1 P0 1.556651 1_555
O1 V0 2.046323 1_555
O2 P1 1.556651 1_555
O2 V0 2.046323 1_555
O3 P1 1.562078 1_556
O4 P2 1.562078 1_565
O5 P0 1.523774 1_555
O5 V1 1.971142 1_455
O6 P1 1.563698 1_555
O6 V2 2.058669 1_565
O7 P1 1.523774 1_555
O7 V1 1.971143 1_554
O8 P2 1.556651 1_555
O8 V0 2.046323 1_555
O9 P2 1.563698 1_555
O9 V2 2.058669 1_655
O10 P2 1.523774 1_555
O10 V1 1.971142 1_545
O11 P0 1.563698 1_555
O11 V2 2.058669 1_556
O12 P5 1.554313 1_555
O12 V1 2.085450 1_554
O13 P3 1.542655 1_545
O13 V2 1.910971 1_555
O14 P3 1.554313 1_555
O14 V1 2.085450 1_455
O15 P3 1.522417 1_555
O16 P4 1.542655 1_554
O16 V2 1.910971 1_555
O17 P4 1.554313 1_555
O17 V1 2.085450 1_545
O18 P5 1.542655 1_455
O18 V2 1.910971 1_555
O19 P3 1.585067 1_545
O19 V0 2.069522 1_555
O20 P4 1.585067 1_554
O20 V0 2.069521 1_555
O21 P4 1.522417 1_555
O22 P5 1.522417 1_555
O23 P5 1.585067 1_455
O23 V0 2.069521 1_555
