# generated using pymatgen
data_Na2NiO2
_symmetry_space_group_name_H-M   'P 1'
_cell_length_a   6.02490632
_cell_length_b   6.18836803
_cell_length_c   10.62102944
_cell_angle_alpha   90.00000832
_cell_angle_beta   91.80115433
_cell_angle_gamma   90.00001467
_symmetry_Int_Tables_number   1
_chemical_formula_structural   Na2NiO2
_chemical_formula_sum   'Na8 Ni4 O8'
_cell_volume   395.80239600
_cell_formula_units_Z   4
loop_
 _symmetry_equiv_pos_site_id
 _symmetry_equiv_pos_as_xyz
  1  'x, y, z'
loop_
 _atom_site_type_symbol
 _atom_site_label
 _atom_site_symmetry_multiplicity
 _atom_site_fract_x
 _atom_site_fract_y
 _atom_site_fract_z
 _atom_site_occupancy
  Na  Na0  1  0.99997100  0.74998600  0.49999900  1
  Na  Na1  1  0.75002800  0.24998600  0.75000100  1
  Na  Na2  1  0.49998100  0.74998000  0.00001300  1
  Na  Na3  1  0.25001800  0.24998000  0.24998700  1
  Na  Na4  1  0.75002800  0.75001400  0.75000100  1
  Na  Na5  1  0.49998100  0.25002000  0.00001300  1
  Na  Na6  1  0.25001800  0.75002000  0.24998700  1
  Na  Na7  1  0.99997100  0.25001400  0.49999900  1
  Ni  Ni0  1  0.50003800  0.50000000  0.49993400  1
  Ni  Ni1  1  0.24996300  0.00000000  0.75006600  1
  Ni  Ni2  1  0.00015900  0.50000000  0.99998400  1
  Ni  Ni3  1  0.74984500  0.00000000  0.25001700  1
  O  O0  1  0.75065000  0.50000000  0.58357200  1
  O  O1  1  0.50069100  0.00000000  0.83357800  1
  O  O2  1  0.25079200  0.50000000  0.08361000  1
  O  O3  1  0.00058800  0.00000000  0.33355600  1
  O  O4  1  0.99935000  0.00000000  0.66642800  1
  O  O5  1  0.74941100  0.50000000  0.91644400  1
  O  O6  1  0.49920600  0.00000000  0.16638900  1
  O  O7  1  0.24930900  0.50000000  0.41642200  1
loop_
_geom_bond_atom_site_label_1
_geom_bond_atom_site_label_2
_geom_bond_distance
_geom_bond_site_symmetry_2
Na0 O4 2.349206 1_565
Na0 O3 2.349317 1_665
Na0 O0 2.349754 1_555
Na0 O7 2.349838 1_655
Na1 O0 2.349206 1_555
Na1 O5 2.349317 1_555
Na1 O4 2.349758 1_555
Na1 O1 2.349833 1_555
Na2 O6 2.348830 1_565
Na2 O1 2.349292 1_564
Na2 O2 2.349313 1_555
Na2 O5 2.350140 1_554
Na3 O2 2.348838 1_555
Na3 O7 2.349292 1_555
Na3 O6 2.349313 1_555
Na3 O3 2.350140 1_555
Na4 O0 2.349206 1_555
Na4 O5 2.349317 1_555
Na4 O4 2.349758 1_565
Na4 O1 2.349834 1_565
Na5 O6 2.348831 1_555
Na5 O1 2.349292 1_554
Na5 O2 2.349313 1_555
Na5 O5 2.350140 1_554
Na6 O2 2.348838 1_555
Na6 O7 2.349292 1_555
Na6 O6 2.349313 1_565
Na6 O3 2.350140 1_565
Na7 O4 2.349206 1_555
Na7 O3 2.349317 1_655
Na7 O0 2.349754 1_555
Na7 O7 2.349837 1_655
Ni0 O7 1.727565 1_555
Ni0 O0 1.727611 1_555
Ni1 O1 1.727560 1_555
Ni1 O4 1.727616 1_455
Ni2 O2 1.727657 1_556
Ni2 O5 1.727808 1_455
Ni3 O6 1.727699 1_555
Ni3 O3 1.727777 1_655
