# generated using pymatgen
data_Li2CrO2
_symmetry_space_group_name_H-M   'P 1'
_cell_length_a   5.51593788
_cell_length_b   6.32507048
_cell_length_c   5.86424375
_cell_angle_alpha   89.99973843
_cell_angle_beta   89.99960867
_cell_angle_gamma   78.28318474
_symmetry_Int_Tables_number   1
_chemical_formula_structural   Li2CrO2
_chemical_formula_sum   'Li8 Cr4 O8'
_cell_volume   200.33270558
_cell_formula_units_Z   4
loop_
 _symmetry_equiv_pos_site_id
 _symmetry_equiv_pos_as_xyz
  1  'x, y, z'
loop_
 _atom_site_type_symbol
 _atom_site_label
 _atom_site_symmetry_multiplicity
 _atom_site_fract_x
 _atom_site_fract_y
 _atom_site_fract_z
 _atom_site_occupancy
  Li  Li0  1  0.63144400  0.32755600  0.49990000  1
  Li  Li1  1  0.63143900  0.82755800  0.75000700  1
  Li  Li2  1  0.63144200  0.32756000  0.99990800  1
  Li  Li3  1  0.63144300  0.82755600  0.25001700  1
  Li  Li4  1  0.36856300  0.67244300  0.49990100  1
  Li  Li5  1  0.36856400  0.17244200  0.75001100  1
  Li  Li6  1  0.36856500  0.67244100  0.99991000  1
  Li  Li7  1  0.36856200  0.17244200  0.25001700  1
  Cr  Cr0  1  0.00000100  0.50000000  0.24770100  1
  Cr  Cr1  1  0.99999700  0.99999700  0.50237600  1
  Cr  Cr2  1  0.99999200  0.50000800  0.74773300  1
  Cr  Cr3  1  0.99999200  0.99999600  0.00234200  1
  O  O0  1  0.25978300  0.38771000  0.49891000  1
  O  O1  1  0.25979300  0.88771100  0.75113800  1
  O  O2  1  0.25979500  0.38771200  0.99890600  1
  O  O3  1  0.25978300  0.88771200  0.25113300  1
  O  O4  1  0.74021700  0.61228900  0.49891000  1
  O  O5  1  0.74020100  0.11229000  0.75113800  1
  O  O6  1  0.74020900  0.61228700  0.99890600  1
  O  O7  1  0.74021900  0.11228700  0.25113400  1
loop_
_geom_bond_atom_site_label_1
_geom_bond_atom_site_label_2
_geom_bond_distance
_geom_bond_site_symmetry_2
Li0 O7 2.002573 1_555
Li0 O0 2.007671 1_555
Li0 O4 2.010553 1_555
Li0 O5 2.013127 1_555
Li1 O6 2.003141 1_555
Li1 O1 2.007592 1_555
Li1 O5 2.010520 1_565
Li1 O4 2.012555 1_555
Li2 O5 2.002580 1_555
Li2 O2 2.007595 1_555
Li2 O6 2.010501 1_555
Li2 O7 2.013120 1_556
Li3 O4 2.003104 1_555
Li3 O3 2.007667 1_555
Li3 O7 2.010551 1_565
Li3 O6 2.012605 1_554
Li4 O3 2.002583 1_555
Li4 O4 2.007633 1_555
Li4 O0 2.010571 1_555
Li4 O1 2.013145 1_555
Li5 O2 2.003123 1_555
Li5 O5 2.007543 1_555
Li5 O1 2.010538 1_545
Li5 O0 2.012568 1_555
Li6 O1 2.002597 1_555
Li6 O6 2.007579 1_555
Li6 O2 2.010521 1_555
Li6 O3 2.013107 1_556
Li7 O0 2.003115 1_555
Li7 O7 2.007651 1_555
Li7 O3 2.010553 1_545
Li7 O2 2.012606 1_554
Cr0 O2 2.067176 1_554
Cr0 O6 2.067177 1_454
Cr0 O4 2.077159 1_455
Cr0 O0 2.077163 1_555
Cr1 O5 2.067053 1_565
Cr1 O1 2.067053 1_655
Cr1 O7 2.077286 1_565
Cr1 O3 2.077302 1_655
Cr2 O4 2.067227 1_555
Cr2 O0 2.067295 1_655
Cr2 O6 2.076993 1_555
Cr2 O2 2.077093 1_655
Cr3 O7 2.067096 1_565
Cr3 O3 2.067154 1_655
Cr3 O5 2.077178 1_564
Cr3 O1 2.077191 1_654
