# generated using pymatgen
data_Li4Mn3Cr3(CuO8)2
_symmetry_space_group_name_H-M   'P 1'
_cell_length_a   5.81537688
_cell_length_b   5.81396577
_cell_length_c   9.52680225
_cell_angle_alpha   89.93347881
_cell_angle_beta   90.12763295
_cell_angle_gamma   120.00611993
_symmetry_Int_Tables_number   1
_chemical_formula_structural   Li4Mn3Cr3(CuO8)2
_chemical_formula_sum   'Li4 Mn3 Cr3 Cu2 O16'
_cell_volume   278.93322897
_cell_formula_units_Z   1
loop_
 _symmetry_equiv_pos_site_id
 _symmetry_equiv_pos_as_xyz
  1  'x, y, z'
loop_
 _atom_site_type_symbol
 _atom_site_label
 _atom_site_symmetry_multiplicity
 _atom_site_fract_x
 _atom_site_fract_y
 _atom_site_fract_z
 _atom_site_occupancy
  Li  Li0  1  0.34133800  0.67060400  0.89728000  1
  Li  Li1  1  0.99320900  0.99691900  0.99722900  1
  Li  Li2  1  0.99735600  0.99866400  0.49585600  1
  Li  Li3  1  0.67186000  0.33612300  0.39737700  1
  Mn  Mn0  1  0.65911200  0.83008000  0.21481500  1
  Mn  Mn1  1  0.83296900  0.66302400  0.71400400  1
  Mn  Mn2  1  0.83304000  0.16996400  0.71397000  1
  Cr  Cr0  1  0.16629300  0.83082600  0.21091600  1
  Cr  Cr1  1  0.16680400  0.33752900  0.21230200  1
  Cr  Cr2  1  0.33920100  0.16954500  0.71370500  1
  Cu  Cu0  1  0.32835200  0.66399100  0.49056400  1
  Cu  Cu1  1  0.66443700  0.33163400  0.98799700  1
  O  O0  1  0.15373100  0.83550200  0.60257300  1
  O  O1  1  0.03855500  0.52059200  0.33263400  1
  O  O2  1  0.34062700  0.67092100  0.10444900  1
  O  O3  1  0.99001300  0.99464600  0.31199500  1
  O  O4  1  0.99319800  0.99648000  0.81224500  1
  O  O5  1  0.15367300  0.31822800  0.60254100  1
  O  O6  1  0.48284700  0.96337500  0.33316700  1
  O  O7  1  0.48443200  0.52034000  0.33350900  1
  O  O8  1  0.32037000  0.15810900  0.10650800  1
  O  O9  1  0.68015000  0.84018700  0.60478400  1
  O  O10  1  0.52572000  0.48820700  0.83422500  1
  O  O11  1  0.52565000  0.03742000  0.83413300  1
  O  O12  1  0.67683400  0.33845900  0.60747200  1
  O  O13  1  0.83759200  0.67734400  0.10474100  1
  O  O14  1  0.96684900  0.48337500  0.83318000  1
  O  O15  1  0.83578400  0.15821200  0.10367200  1
loop_
_geom_bond_atom_site_label_1
_geom_bond_atom_site_label_2
_geom_bond_distance
_geom_bond_site_symmetry_2
Li0 O11 1.942312 1_565
Li0 O10 1.943389 1_555
Li0 O2 1.973677 1_556
Li0 O14 1.981209 1_455
Li1 O4 1.762311 1_555
Li1 O15 1.900214 1_566
Li1 O13 1.907400 1_556
Li1 O8 1.947298 1_666
Li2 O3 1.751931 1_555
Li2 O0 1.901821 1_655
Li2 O5 1.903233 1_665
Li2 O9 1.906568 1_555
Li3 O1 1.948062 1_655
Li3 O7 1.966847 1_555
Li3 O6 1.973947 1_545
Li3 O12 2.001642 1_555
Mn0 O3 1.904778 1_555
Mn0 O2 1.916120 1_555
Mn0 O7 1.929827 1_555
Mn0 O6 1.929846 1_555
Mn0 O15 1.963661 1_565
Mn0 O13 1.973419 1_555
Mn1 O4 1.922571 1_555
Mn1 O12 1.924040 1_555
Mn1 O10 1.930641 1_555
Mn1 O0 1.935853 1_655
Mn1 O14 1.947508 1_555
Mn1 O9 1.960190 1_555
Mn2 O4 1.922205 1_545
Mn2 O12 1.922985 1_555
Mn2 O11 1.931085 1_555
Mn2 O5 1.935409 1_655
Mn2 O14 1.948915 1_555
Mn2 O9 1.960637 1_545
Cr0 O8 1.925416 1_565
Cr0 O13 1.939270 1_455
Cr0 O1 1.951569 1_555
Cr0 O3 1.966833 1_455
Cr0 O2 1.967332 1_555
Cr0 O6 1.978074 1_555
Cr1 O1 1.950330 1_555
Cr1 O8 1.959512 1_555
Cr1 O15 1.962119 1_455
Cr1 O2 1.968493 1_555
Cr1 O3 1.970572 1_445
Cr1 O7 1.976022 1_555
Cr2 O11 1.976735 1_555
Cr2 O10 1.979073 1_555
Cr2 O12 1.980365 1_555
Cr2 O4 1.980824 1_445
Cr2 O5 1.989594 1_555
Cr2 O0 1.990134 1_545
Cu0 O5 2.041679 1_555
Cu0 O0 2.045557 1_555
Cu0 O9 2.077366 1_555
Cu0 O1 2.094107 1_555
Cu0 O6 2.126312 1_555
Cu0 O7 2.127734 1_555
Cu1 O15 2.054592 1_556
Cu1 O13 2.065605 1_556
Cu1 O8 2.069895 1_556
Cu1 O11 2.084650 1_555
Cu1 O10 2.086055 1_555
Cu1 O14 2.122081 1_555
