# generated using pymatgen
data_NaFePO4
_symmetry_space_group_name_H-M   'P 1'
_cell_length_a   4.93757206
_cell_length_b   6.16440087
_cell_length_c   10.32143875
_cell_angle_alpha   90.00000000
_cell_angle_beta   90.00000000
_cell_angle_gamma   90.00000000
_symmetry_Int_Tables_number   1
_chemical_formula_structural   NaFePO4
_chemical_formula_sum   'Na4 Fe4 P4 O16'
_cell_volume   314.15542203
_cell_formula_units_Z   4
loop_
 _symmetry_equiv_pos_site_id
 _symmetry_equiv_pos_as_xyz
  1  'x, y, z'
loop_
 _atom_site_type_symbol
 _atom_site_label
 _atom_site_symmetry_multiplicity
 _atom_site_fract_x
 _atom_site_fract_y
 _atom_site_fract_z
 _atom_site_occupancy
  Na  Na0  1  0.00000000  -0.00000000  0.00000000  1
  Na  Na1  1  0.50000100  -0.00000000  0.50000000  1
  Na  Na2  1  0.00000000  0.49999900  0.00000000  1
  Na  Na3  1  0.50000100  0.49999900  0.50000000  1
  Fe  Fe0  1  0.02143576  0.75000000  0.71306639  1
  Fe  Fe1  1  0.47856324  0.75000000  0.21306539  1
  Fe  Fe2  1  0.97856324  0.25000000  0.28693361  1
  Fe  Fe3  1  0.52143676  0.25000000  0.78693361  1
  P  P0  1  0.55988846  0.75000000  0.89227283  1
  P  P1  1  0.94011154  0.75000000  0.39227183  1
  P  P2  1  0.44011254  0.25000000  0.10772717  1
  P  P3  1  0.05988746  0.25000000  0.60772717  1
  O  O0  1  0.74812927  0.25000000  0.11168623  1
  O  O1  1  0.18780679  0.44780807  0.67821668  1
  O  O2  1  0.68780679  0.55219193  0.82178332  1
  O  O3  1  0.81219321  0.94780707  0.32178332  1
  O  O4  1  0.31219421  0.05219293  0.17821768  1
  O  O5  1  0.81219321  0.55219193  0.32178332  1
  O  O6  1  0.31219421  0.44780807  0.17821768  1
  O  O7  1  0.18780679  0.05219293  0.67821668  1
  O  O8  1  0.25187073  0.75000000  0.88831577  1
  O  O9  1  0.75187073  0.25000000  0.61168423  1
  O  O10  1  0.68780679  0.94780707  0.82178332  1
  O  O11  1  0.24813027  0.75000000  0.38831477  1
  O  O12  1  0.66424999  0.75000000  0.03246298  1
  O  O13  1  0.33574901  0.25000000  0.96753602  1
  O  O14  1  0.16424999  0.25000000  0.46753702  1
  O  O15  1  0.83575001  0.75000000  0.53246398  1
loop_
_geom_bond_atom_site_label_1
_geom_bond_atom_site_label_2
_geom_bond_distance
_geom_bond_site_symmetry_2
Na0 O13 2.288125 1_554
Na0 O12 2.288127 1_445
Na0 O8 2.291379 1_544
Na0 O0 2.291390 1_455
Na0 O10 2.421415 1_444
Na0 O4 2.421426 1_555
Na1 O15 2.288125 1_545
Na1 O14 2.288131 1_555
Na1 O9 2.291377 1_555
Na1 O11 2.291385 1_545
Na1 O3 2.421412 1_545
Na1 O7 2.421418 1_555
Na2 O13 2.288121 1_554
Na2 O12 2.288131 1_455
Na2 O8 2.291383 1_554
Na2 O0 2.291386 1_455
Na2 O2 2.421415 1_454
Na2 O6 2.421424 1_555
Na3 O14 2.288126 1_555
Na3 O15 2.288129 1_555
Na3 O9 2.291372 1_555
Na3 O11 2.291389 1_555
Na3 O5 2.421412 1_555
Na3 O1 2.421417 1_555
Fe0 O1 2.067447 1_555
Fe0 O7 2.067453 1_565
Fe0 O15 2.077347 1_455
Fe0 O8 2.136917 1_555
Fe0 O10 2.336587 1_455
Fe0 O2 2.336590 1_455
Fe1 O6 2.067440 1_555
Fe1 O4 2.067445 1_565
Fe1 O12 2.077349 1_555
Fe1 O11 2.136912 1_555
Fe1 O3 2.336596 1_555
Fe1 O5 2.336599 1_555
Fe2 O5 2.067445 1_555
Fe2 O3 2.067451 1_545
Fe2 O14 2.077359 1_655
Fe2 O0 2.136897 1_555
Fe2 O4 2.336589 1_655
Fe2 O6 2.336592 1_655
Fe3 O2 2.067445 1_555
Fe3 O10 2.067451 1_545
Fe3 O13 2.077352 1_555
Fe3 O9 2.136915 1_555
Fe3 O7 2.336591 1_555
Fe3 O1 2.336594 1_555
O0 P2 1.521404 1_555
O1 P3 1.554067 1_555
O2 P0 1.554065 1_555
O3 P1 1.554056 1_555
O4 P2 1.554065 1_555
O5 P1 1.554060 1_555
O6 P2 1.554070 1_555
O7 P3 1.554062 1_555
O8 P0 1.521408 1_555
O9 P3 1.521403 1_655
O10 P0 1.554060 1_555
O11 P1 1.521413 1_455
O12 P0 1.535979 1_554
O13 P2 1.535992 1_556
O14 P3 1.535981 1_555
O15 P1 1.535998 1_555
