# generated using pymatgen
data_Ga3NO3
_symmetry_space_group_name_H-M   'P 1'
_cell_length_a   6.14117700
_cell_length_b   8.36532903
_cell_length_c   8.41894618
_cell_angle_alpha   60.49253098
_cell_angle_beta   89.46183435
_cell_angle_gamma   89.30409086
_symmetry_Int_Tables_number   1
_chemical_formula_structural   Ga3NO3
_chemical_formula_sum   'Ga12 N4 O12'
_cell_volume   376.37584655
_cell_formula_units_Z   4
loop_
 _symmetry_equiv_pos_site_id
 _symmetry_equiv_pos_as_xyz
  1  'x, y, z'
loop_
 _atom_site_type_symbol
 _atom_site_label
 _atom_site_symmetry_multiplicity
 _atom_site_fract_x
 _atom_site_fract_y
 _atom_site_fract_z
 _atom_site_occupancy
  Ga  Ga0  1  0.54416500  0.90690500  0.25790500  1
  Ga  Ga1  1  0.85154900  0.56669400  0.50446300  1
  Ga  Ga2  1  0.53411600  0.26077300  0.82840900  1
  Ga  Ga3  1  0.84888100  0.92086400  0.57232000  1
  Ga  Ga4  1  0.85061700  0.50251300  0.91986900  1
  Ga  Ga5  1  0.04385500  0.08966900  0.16697400  1
  Ga  Ga6  1  0.33579100  0.42492900  0.08372900  1
  Ga  Ga7  1  0.54052900  0.83828000  0.90509400  1
  Ga  Ga8  1  0.04009500  0.74317000  0.08874300  1
  Ga  Ga9  1  0.32963600  0.09122500  0.49208000  1
  Ga  Ga10  1  0.33193800  0.48813100  0.43509400  1
  Ga  Ga11  1  0.05311000  0.16980500  0.74428200  1
  N  N0  1  0.07189100  0.34219700  0.04916200  1
  N  N1  1  0.06941700  0.03543600  0.62034100  1
  N  N2  1  0.07464300  0.62196600  0.33778800  1
  N  N3  1  0.29863800  0.31828700  0.68145900  1
  O  O0  1  0.57392100  0.65253700  0.38556900  1
  O  O1  1  0.79673700  0.98791900  0.32171500  1
  O  O2  1  0.79863900  0.32112400  0.69439500  1
  O  O3  1  0.54838000  0.99838500  0.00301600  1
  O  O4  1  0.03543700  0.99861400  0.00171300  1
  O  O5  1  0.86670600  0.66429300  0.66562000  1
  O  O6  1  0.56624400  0.95559100  0.65073200  1
  O  O7  1  0.57554700  0.38494700  0.96367300  1
  O  O8  1  0.30325300  0.00355000  0.31664300  1
  O  O9  1  0.79587000  0.69278100  0.98330900  1
  O  O10  1  0.30254800  0.68410500  0.99711200  1
  O  O11  1  0.42119500  0.33530900  0.32879000  1
loop_
_geom_bond_atom_site_label_1
_geom_bond_atom_site_label_2
_geom_bond_distance
_geom_bond_site_symmetry_2
Ga0 O8 1.854201 1_565
Ga0 O0 1.859508 1_555
Ga0 O1 1.885098 1_555
Ga0 O3 1.890224 1_555
Ga1 N2 1.843921 1_655
Ga1 O5 1.900395 1_555
Ga1 O2 1.911322 1_555
Ga1 O0 1.928406 1_555
Ga2 N3 1.812087 1_555
Ga2 O2 1.895039 1_555
Ga2 O7 1.902024 1_555
Ga2 O3 1.950833 1_546
Ga3 N1 1.827518 1_665
Ga3 O5 1.889645 1_555
Ga3 O6 1.920433 1_555
Ga3 O1 1.926419 1_555
Ga4 N0 1.837244 1_656
Ga4 O5 1.889113 1_555
Ga4 O7 1.904779 1_555
Ga4 O9 1.937189 1_555
Ga5 N0 1.848680 1_555
Ga5 O4 1.888098 1_545
Ga5 O1 1.904385 1_445
Ga5 O8 1.939080 1_555
Ga6 N0 1.850595 1_555
Ga6 O11 1.892315 1_555
Ga6 O7 1.895911 1_554
Ga6 O10 1.925796 1_554
Ga7 O10 1.854660 1_555
Ga7 O6 1.871121 1_555
Ga7 O9 1.886132 1_555
Ga7 O3 1.888319 1_556
Ga8 N2 1.837978 1_555
Ga8 O4 1.886925 1_555
Ga8 O9 1.903685 1_454
Ga8 O10 1.941604 1_554
Ga9 N1 1.851179 1_555
Ga9 O11 1.903535 1_555
Ga9 O6 1.919977 1_545
Ga9 O8 1.954526 1_555
Ga10 N3 1.859750 1_555
Ga10 N2 1.870593 1_555
Ga10 O0 1.935674 1_555
Ga10 O11 1.958716 1_555
Ga11 N3 1.865335 1_555
Ga11 N1 1.874292 1_555
Ga11 O2 1.913502 1_455
Ga11 O4 1.923992 1_546
