# generated using pymatgen
data_LiFeSnO4
_symmetry_space_group_name_H-M   'P 1'
_cell_length_a   6.06921841
_cell_length_b   6.31630800
_cell_length_c   8.74738000
_cell_angle_alpha   90.00000655
_cell_angle_beta   90.00000292
_cell_angle_gamma   90.00000000
_symmetry_Int_Tables_number   1
_chemical_formula_structural   LiFeSnO4
_chemical_formula_sum   'Li4 Fe4 Sn4 O16'
_cell_volume   335.33127418
_cell_formula_units_Z   4
loop_
 _symmetry_equiv_pos_site_id
 _symmetry_equiv_pos_as_xyz
  1  'x, y, z'
loop_
 _atom_site_type_symbol
 _atom_site_label
 _atom_site_symmetry_multiplicity
 _atom_site_fract_x
 _atom_site_fract_y
 _atom_site_fract_z
 _atom_site_occupancy
  Li  Li0  1  0.00000000  0.25000000  0.12837200  1
  Li  Li1  1  0.50000000  0.75000000  0.62837200  1
  Li  Li2  1  0.00000000  0.75000000  0.87162800  1
  Li  Li3  1  0.50000000  0.25000000  0.37162800  1
  Fe  Fe0  1  0.75000000  0.25000000  0.75000000  1
  Fe  Fe1  1  0.25000000  0.25000000  0.75000000  1
  Fe  Fe2  1  0.25000000  0.75000000  0.25000000  1
  Fe  Fe3  1  0.75000000  0.75000000  0.25000000  1
  Sn  Sn0  1  0.00000000  0.50000000  0.50000000  1
  Sn  Sn1  1  0.50000000  0.00000000  0.00000000  1
  Sn  Sn2  1  0.00000000  0.00000000  0.50000000  1
  Sn  Sn3  1  0.50000000  0.50000000  0.00000000  1
  O  O0  1  0.00000000  0.52901900  0.26196100  1
  O  O1  1  0.50000000  0.02901900  0.76196100  1
  O  O2  1  0.00000000  0.97098200  0.26196100  1
  O  O3  1  0.50000000  0.47098200  0.76196100  1
  O  O4  1  0.00000000  0.02901800  0.73803900  1
  O  O5  1  0.50000000  0.52901800  0.23803900  1
  O  O6  1  0.00000000  0.47098100  0.73803900  1
  O  O7  1  0.50000000  0.97098100  0.23803900  1
  O  O8  1  0.23208200  0.75000000  0.48945300  1
  O  O9  1  0.73208200  0.25000000  0.98945300  1
  O  O10  1  0.76791800  0.75000000  0.48945300  1
  O  O11  1  0.26791800  0.25000000  0.98945300  1
  O  O12  1  0.76791800  0.25000000  0.51054700  1
  O  O13  1  0.26791800  0.75000000  0.01054700  1
  O  O14  1  0.23208200  0.25000000  0.51054700  1
  O  O15  1  0.73208200  0.75000000  0.01054700  1
loop_
_geom_bond_atom_site_label_1
_geom_bond_atom_site_label_2
_geom_bond_distance
_geom_bond_site_symmetry_2
Li0 O9 2.029952 1_454
Li0 O11 2.029952 1_554
Li0 O2 2.114579 1_545
Li0 O0 2.114584 1_555
Li1 O8 2.029952 1_555
Li1 O10 2.029952 1_555
Li1 O3 2.114579 1_555
Li1 O1 2.114584 1_565
Li2 O13 2.029952 1_556
Li2 O15 2.029952 1_456
Li2 O4 2.114579 1_565
Li2 O6 2.114584 1_555
Li3 O12 2.029952 1_555
Li3 O14 2.029952 1_555
Li3 O5 2.114579 1_555
Li3 O7 2.114584 1_545
Fe0 O6 2.064309 1_655
Fe0 O1 2.064309 1_555
Fe0 O4 2.064314 1_655
Fe0 O3 2.064314 1_555
Fe0 O12 2.097408 1_555
Fe0 O9 2.097408 1_555
Fe1 O6 2.064309 1_555
Fe1 O1 2.064309 1_555
Fe1 O4 2.064314 1_555
Fe1 O3 2.064314 1_555
Fe1 O14 2.097408 1_555
Fe1 O11 2.097408 1_555
Fe2 O0 2.064309 1_555
Fe2 O7 2.064309 1_555
Fe2 O5 2.064314 1_555
Fe2 O2 2.064314 1_555
Fe2 O13 2.097408 1_555
Fe2 O8 2.097408 1_555
Fe3 O0 2.064309 1_655
Fe3 O7 2.064309 1_555
Fe3 O2 2.064314 1_655
Fe3 O5 2.064314 1_555
Fe3 O15 2.097408 1_555
Fe3 O10 2.097408 1_555
O0 Sn0 2.090269 1_555
O1 Sn1 2.090269 1_556
O2 Sn2 2.090269 1_565
O3 Sn3 2.090269 1_556
O4 Sn2 2.090269 1_555
O5 Sn3 2.090269 1_555
O6 Sn0 2.090269 1_555
O7 Sn1 2.090269 1_565
O8 Sn2 2.118024 1_565
O8 Sn0 2.118024 1_555
O9 Sn3 2.118024 1_556
O9 Sn1 2.118024 1_556
O10 Sn2 2.118024 1_665
O10 Sn0 2.118024 1_655
O11 Sn3 2.118024 1_556
O11 Sn1 2.118024 1_556
O12 Sn2 2.118024 1_655
O12 Sn0 2.118024 1_655
O13 Sn3 2.118024 1_555
O13 Sn1 2.118024 1_565
O14 Sn2 2.118024 1_555
O14 Sn0 2.118024 1_555
O15 Sn3 2.118024 1_555
O15 Sn1 2.118024 1_565
