# generated using pymatgen
data_V2OF5
_symmetry_space_group_name_H-M   'P 1'
_cell_length_a   5.25263118
_cell_length_b   13.49807247
_cell_length_c   5.25263118
_cell_angle_alpha   89.99999636
_cell_angle_beta   120.00001492
_cell_angle_gamma   90.00000364
_symmetry_Int_Tables_number   1
_chemical_formula_structural   V2OF5
_chemical_formula_sum   'V6 O3 F15'
_cell_volume   322.51961857
_cell_formula_units_Z   3
loop_
 _symmetry_equiv_pos_site_id
 _symmetry_equiv_pos_as_xyz
  1  'x, y, z'
loop_
 _atom_site_type_symbol
 _atom_site_label
 _atom_site_symmetry_multiplicity
 _atom_site_fract_x
 _atom_site_fract_y
 _atom_site_fract_z
 _atom_site_occupancy
  V  V0  1  0.99016200  0.49575700  0.97641400  1
  V  V1  1  0.97641400  0.00424300  0.99016200  1
  V  V2  1  0.65291900  0.82909000  0.34317200  1
  V  V3  1  0.34317200  0.67091000  0.65291900  1
  V  V4  1  0.68041400  0.33757700  0.35691900  1
  V  V5  1  0.35691900  0.16242300  0.68041400  1
  O  O0  1  0.55707300  0.75000000  0.55707300  1
  O  O1  1  0.77626000  0.41666700  0.66666700  1
  O  O2  1  0.66666700  0.08333300  0.77626000  1
  F  F0  1  0.98095500  0.74703300  0.39020500  1
  F  F1  1  0.39020500  0.75296700  0.98095500  1
  F  F2  1  0.35237900  0.41963400  0.07591700  1
  F  F3  1  0.07591700  0.08036600  0.35237900  1
  F  F4  1  0.32565100  0.92219100  0.25372800  1
  F  F5  1  0.25372800  0.57780900  0.32565100  1
  F  F6  1  0.59474400  0.25552400  0.00768300  1
  F  F7  1  0.00768300  0.24447600  0.59474400  1
  F  F8  1  0.73858900  0.91114300  0.07960500  1
  F  F9  1  0.07960500  0.58885700  0.73858900  1
  F  F10  1  0.40751500  0.25000000  0.40751500  1
  F  F11  1  0.94312800  0.41370000  0.25741600  1
  F  F12  1  0.25741600  0.08630000  0.94312800  1
  F  F13  1  0.92581800  0.91666700  0.66666700  1
  F  F14  1  0.66666700  0.58333300  0.92581800  1
loop_
_geom_bond_atom_site_label_1
_geom_bond_atom_site_label_2
_geom_bond_distance
_geom_bond_site_symmetry_2
O0 V3 1.794752 1_555
O0 V2 1.794752 1_555
O1 V0 1.794753 1_555
O1 V4 1.794756 1_555
O2 V1 1.794753 1_555
O2 V5 1.794756 1_555
F0 V2 1.957312 1_555
F0 V3 1.988570 1_655
F1 V3 1.957312 1_555
F1 V2 1.988570 1_556
F2 V4 1.957307 1_555
F2 V0 1.988571 1_454
F3 V5 1.957307 1_555
F3 V1 1.988571 1_454
F4 V2 1.986802 1_555
F4 V1 1.992170 1_464
F5 V3 1.986802 1_555
F5 V0 1.992170 1_454
F6 V5 1.986806 1_554
F6 V4 1.992174 1_555
F7 V4 1.986806 1_455
F7 V5 1.992174 1_555
F8 V1 1.986795 1_564
F8 V2 1.992179 1_555
F9 V0 1.986795 1_455
F9 V3 1.992179 1_555
F10 V4 1.975787 1_555
F10 V5 1.975787 1_555
F11 V0 1.957310 1_554
F11 V4 1.988571 1_555
F12 V1 1.957310 1_455
F12 V5 1.988571 1_555
F13 V1 1.975779 1_565
F13 V2 1.975787 1_555
F14 V0 1.975779 1_555
F14 V3 1.975787 1_555
