# generated using pymatgen
data_MnF4
_symmetry_space_group_name_H-M   'P 1'
_cell_length_a   7.22572729
_cell_length_b   7.22572729
_cell_length_c   7.22572724
_cell_angle_alpha   86.95794888
_cell_angle_beta   86.95794888
_cell_angle_gamma   86.95795514
_symmetry_Int_Tables_number   1
_chemical_formula_structural   MnF4
_chemical_formula_sum   'Mn6 F24'
_cell_volume   375.72292864
_cell_formula_units_Z   6
loop_
 _symmetry_equiv_pos_site_id
 _symmetry_equiv_pos_as_xyz
  1  'x, y, z'
loop_
 _atom_site_type_symbol
 _atom_site_label
 _atom_site_symmetry_multiplicity
 _atom_site_fract_x
 _atom_site_fract_y
 _atom_site_fract_z
 _atom_site_occupancy
  Mn  Mn0  1  0.00000000  0.00000000  0.50000000  1
  Mn  Mn1  1  0.50000000  0.00000000  0.00000000  1
  Mn  Mn2  1  0.00000000  0.50000000  0.00000000  1
  Mn  Mn3  1  0.50000000  0.00000000  0.50000000  1
  Mn  Mn4  1  0.00000000  0.50000000  0.50000000  1
  Mn  Mn5  1  0.50000000  0.50000000  0.00000000  1
  F  F0  1  0.94264000  0.05703700  0.73035100  1
  F  F1  1  0.94296300  0.26964900  0.05736000  1
  F  F2  1  0.44296300  0.55736000  0.76964900  1
  F  F3  1  0.25000000  0.43667400  0.06332600  1
  F  F4  1  0.93755900  0.56244100  0.25000000  1
  F  F5  1  0.43755900  0.75000000  0.06244100  1
  F  F6  1  0.23035100  0.55703700  0.44264000  1
  F  F7  1  0.73035100  0.94264000  0.05703700  1
  F  F8  1  0.55736000  0.76964900  0.44296300  1
  F  F9  1  0.93667400  0.75000000  0.56332600  1
  F  F10  1  0.43667400  0.06332600  0.25000000  1
  F  F11  1  0.25000000  0.93755900  0.56244100  1
  F  F12  1  0.75000000  0.06244100  0.43755900  1
  F  F13  1  0.56332600  0.93667400  0.75000000  1
  F  F14  1  0.06332600  0.25000000  0.43667400  1
  F  F15  1  0.44264000  0.23035100  0.55703700  1
  F  F16  1  0.26964900  0.05736000  0.94296300  1
  F  F17  1  0.76964900  0.44296300  0.55736000  1
  F  F18  1  0.56244100  0.25000000  0.93755900  1
  F  F19  1  0.06244100  0.43755900  0.75000000  1
  F  F20  1  0.75000000  0.56332600  0.93667400  1
  F  F21  1  0.55703700  0.44264000  0.23035100  1
  F  F22  1  0.05703700  0.73035100  0.94264000  1
  F  F23  1  0.05736000  0.94296300  0.26964900  1
loop_
_geom_bond_atom_site_label_1
_geom_bond_atom_site_label_2
_geom_bond_distance
_geom_bond_site_symmetry_2
F0 Mn0 1.758835 1_655
F1 Mn2 1.758835 1_655
F2 Mn5 1.758835 1_556
F3 Mn5 1.913041 1_555
F3 Mn2 1.913041 1_555
F4 Mn2 1.910162 1_655
F4 Mn4 1.910162 1_655
F5 Mn1 1.910162 1_565
F5 Mn5 1.910162 1_555
F6 Mn4 1.758835 1_555
F7 Mn1 1.758835 1_565
F8 Mn3 1.758835 1_565
F9 Mn0 1.913041 1_665
F9 Mn4 1.913041 1_655
F10 Mn3 1.913041 1_555
F10 Mn1 1.913041 1_555
F11 Mn3 1.910162 1_565
F11 Mn0 1.910162 1_565
F12 Mn3 1.910162 1_555
F12 Mn0 1.910162 1_655
F13 Mn1 1.913041 1_566
F13 Mn3 1.913041 1_565
F14 Mn0 1.913041 1_555
F14 Mn4 1.913041 1_555
F15 Mn3 1.758835 1_555
F16 Mn1 1.758835 1_556
F17 Mn4 1.758835 1_655
F18 Mn1 1.910162 1_556
F18 Mn5 1.910162 1_556
F19 Mn4 1.910162 1_555
F19 Mn2 1.910162 1_556
F20 Mn5 1.913041 1_556
F20 Mn2 1.913041 1_656
F21 Mn5 1.758835 1_555
F22 Mn2 1.758835 1_556
F23 Mn0 1.758835 1_565
