# generated using pymatgen
data_Ce4YO9
_symmetry_space_group_name_H-M   'P 1'
_cell_length_a   10.33852095
_cell_length_b   10.33852095
_cell_length_c   10.33852095
_cell_angle_alpha   158.69885267
_cell_angle_beta   149.00484876
_cell_angle_gamma   37.91764808
_symmetry_Int_Tables_number   1
_chemical_formula_structural   Ce4YO9
_chemical_formula_sum   'Ce4 Y1 O9'
_cell_volume   206.43890931
_cell_formula_units_Z   1
loop_
 _symmetry_equiv_pos_site_id
 _symmetry_equiv_pos_as_xyz
  1  'x, y, z'
loop_
 _atom_site_type_symbol
 _atom_site_label
 _atom_site_symmetry_multiplicity
 _atom_site_fract_x
 _atom_site_fract_y
 _atom_site_fract_z
 _atom_site_occupancy
  Ce  Ce0  1  0.20230800  0.19861200  0.00369600  1
  Ce  Ce1  1  0.40535200  0.39425900  0.01109300  1
  Ce  Ce2  1  0.61683400  0.60574100  0.01109300  1
  Ce  Ce3  1  0.80508300  0.80138800  0.00369600  1
  Y  Y0  1  0.95120600  0.00000000  0.95120600  1
  O  O0  1  0.06057200  0.30348400  0.75708800  1
  O  O1  1  0.16952000  0.91725600  0.25226400  1
  O  O2  1  0.33500800  0.08274400  0.25226400  1
  O  O3  1  0.55361400  0.29771700  0.25589700  1
  O  O4  1  0.45360400  0.69651600  0.75708800  1
  O  O5  1  0.64300800  0.89542400  0.74758400  1
  O  O6  1  0.74355300  0.50000000  0.24355300  1
  O  O7  1  0.95818100  0.70228300  0.25589700  1
  O  O8  1  0.85216000  0.10457600  0.74758400  1
loop_
_geom_bond_atom_site_label_1
_geom_bond_atom_site_label_2
_geom_bond_distance
_geom_bond_site_symmetry_2
Ce0 O8 2.320292 1_454
Ce0 O7 2.351686 1_455
Ce0 O7 2.351690 1_444
Ce0 O4 2.369079 1_555
Ce0 O4 2.369079 1_544
Ce0 O3 2.386937 1_555
Ce0 O0 2.462144 1_554
Ce0 O2 2.649527 1_555
Ce1 O0 2.262848 1_554
Ce1 O5 2.314875 1_544
Ce1 O5 2.314875 1_555
Ce1 O3 2.322389 1_555
Ce1 O1 2.428601 1_544
Ce1 O1 2.428601 1_555
Ce1 O6 2.434185 1_555
Ce2 O4 2.262848 1_554
Ce2 O8 2.314875 1_565
Ce2 O8 2.314875 1_554
Ce2 O7 2.322399 1_555
Ce2 O2 2.428601 1_565
Ce2 O2 2.428601 1_554
Ce2 O6 2.434185 1_555
Ce3 O5 2.320298 1_554
Ce3 O3 2.351686 1_565
Ce3 O3 2.351689 1_554
Ce3 O0 2.369079 1_665
Ce3 O0 2.369082 1_654
Ce3 O7 2.386924 1_555
Ce3 O4 2.462135 1_554
Ce3 O1 2.649537 1_655
O1 Y0 2.320514 1_464
O2 Y0 2.320514 1_454
O5 Y0 2.334030 1_565
O6 Y0 2.228715 1_554
O6 Y0 2.228715 1_565
O8 Y0 2.334030 1_555
