# generated using pymatgen
data_KMnH4Cl3O2
_symmetry_space_group_name_H-M   'P 1'
_cell_length_a   7.60824846
_cell_length_b   11.28367160
_cell_length_c   9.40266592
_cell_angle_alpha   75.96529501
_cell_angle_beta   70.50925179
_cell_angle_gamma   83.95727329
_symmetry_Int_Tables_number   1
_chemical_formula_structural   KMnH4Cl3O2
_chemical_formula_sum   'K4 Mn4 H16 Cl12 O8'
_cell_volume   737.97541853
_cell_formula_units_Z   4
loop_
 _symmetry_equiv_pos_site_id
 _symmetry_equiv_pos_as_xyz
  1  'x, y, z'
loop_
 _atom_site_type_symbol
 _atom_site_label
 _atom_site_symmetry_multiplicity
 _atom_site_fract_x
 _atom_site_fract_y
 _atom_site_fract_z
 _atom_site_occupancy
  K  K0  1  0.71656700  0.63734600  0.80427900  1
  K  K1  1  0.21715000  0.13756300  0.80418800  1
  K  K2  1  0.28320800  0.36252000  0.19563100  1
  K  K3  1  0.78314600  0.86262200  0.19582700  1
  Mn  Mn0  1  0.20573000  0.82799200  0.67399400  1
  Mn  Mn1  1  0.29418700  0.67181100  0.32609400  1
  Mn  Mn2  1  0.70608400  0.32805400  0.67376400  1
  Mn  Mn3  1  0.79439300  0.17206800  0.32584000  1
  H  H0  1  0.83538700  0.93374900  0.49501100  1
  H  H1  1  0.33530100  0.43365200  0.49503200  1
  H  H2  1  0.16460000  0.06629300  0.50511400  1
  H  H3  1  0.66459400  0.56627300  0.50506400  1
  H  H4  1  0.62901100  0.96818700  0.58367300  1
  H  H5  1  0.12896100  0.46806900  0.58386800  1
  H  H6  1  0.37093400  0.03187300  0.41633200  1
  H  H7  1  0.87099500  0.53198100  0.41619800  1
  H  H8  1  0.60522300  0.14857500  0.94689000  1
  H  H9  1  0.10520000  0.64852100  0.94694900  1
  H  H10  1  0.39470100  0.85146500  0.05312700  1
  H  H11  1  0.89476200  0.35154700  0.05303500  1
  H  H12  1  0.71083600  0.07876300  0.81673300  1
  H  H13  1  0.21089900  0.57873800  0.81674100  1
  H  H14  1  0.28907500  0.92117000  0.18340200  1
  H  H15  1  0.78910200  0.42126100  0.18331100  1
  Cl  Cl0  1  0.02119500  0.77497600  0.50833900  1
  Cl  Cl1  1  0.52137800  0.27508900  0.50818200  1
  Cl  Cl2  1  0.97885000  0.22501900  0.49158100  1
  Cl  Cl3  1  0.47866600  0.72491700  0.49171300  1
  Cl  Cl4  1  0.42791200  0.87167300  0.80630900  1
  Cl  Cl5  1  0.92797300  0.37170200  0.80630500  1
  Cl  Cl6  1  0.57203200  0.12832000  0.19370600  1
  Cl  Cl7  1  0.07198300  0.62826400  0.19371900  1
  Cl  Cl8  1  0.92232100  0.92583300  0.83533500  1
  Cl  Cl9  1  0.42229400  0.42571400  0.83517700  1
  Cl  Cl10  1  0.07775100  0.07427900  0.16468300  1
  Cl  Cl11  1  0.57767700  0.57413100  0.16472300  1
  O  O0  1  0.72995000  0.99022600  0.48401600  1
  O  O1  1  0.22985000  0.49013600  0.48416400  1
  O  O2  1  0.27003000  0.00978800  0.51600400  1
  O  O3  1  0.77011600  0.50984600  0.51592700  1
  O  O4  1  0.62274400  0.14825700  0.83770000  1
  O  O5  1  0.12274600  0.64820200  0.83775500  1
  O  O6  1  0.37723400  0.85173200  0.16232000  1
  O  O7  1  0.87725000  0.35180200  0.16224400  1
loop_
_geom_bond_atom_site_label_1
_geom_bond_atom_site_label_2
_geom_bond_distance
_geom_bond_site_symmetry_2
K0 O5 3.226702 1_655
K0 O3 3.258548 1_555
K1 O4 3.222124 1_555
K1 O2 3.260104 1_555
K2 O7 3.224421 1_455
K2 O1 3.261190 1_555
K3 O6 3.224869 1_555
K3 O0 3.258448 1_555
Mn0 O2 2.214133 1_565
Mn0 O5 2.234057 1_555
Mn1 O1 2.213366 1_555
Mn1 O6 2.235313 1_555
Mn2 O3 2.213369 1_555
Mn2 O4 2.235137 1_555
Mn3 O0 2.215296 1_545
Mn3 O7 2.232846 1_555
H0 O0 0.987960 1_555
H1 O1 0.987825 1_555
H2 O2 0.987872 1_555
H3 O3 0.987891 1_555
H4 O0 0.988253 1_555
H5 O1 0.988378 1_555
H6 O2 0.988266 1_555
H7 O3 0.988569 1_555
H8 O4 0.991063 1_555
H9 O5 0.991063 1_555
H10 O6 0.991040 1_555
H11 O7 0.991084 1_555
H12 O4 0.989501 1_555
H13 O5 0.989559 1_555
H14 O6 0.989463 1_555
H15 O7 0.989578 1_555
Cl0 Mn1 2.586269 1_555
Cl0 Mn0 2.615956 1_555
Cl0 K0 3.143980 1_455
Cl1 Mn3 2.585968 1_555
Cl1 Mn2 2.616127 1_555
Cl1 K1 3.142382 1_555
Cl2 Mn2 2.584284 1_555
Cl2 Mn3 2.615861 1_555
Cl2 K2 3.142496 1_655
Cl3 Mn0 2.585678 1_555
Cl3 Mn1 2.615787 1_555
Cl3 K3 3.143463 1_555
Cl4 Mn0 2.554307 1_555
Cl4 K1 3.248449 1_565
Cl4 K0 3.254001 1_555
Cl5 Mn2 2.553888 1_555
Cl5 K0 3.248039 1_555
Cl5 K1 3.254742 1_655
Cl6 Mn3 2.554462 1_555
Cl6 K3 3.247633 1_545
Cl6 K2 3.253714 1_555
Cl7 Mn1 2.554299 1_555
Cl7 K2 3.248526 1_555
Cl7 K3 3.255058 1_455
Cl8 Mn0 2.509564 1_655
Cl8 K3 3.116180 1_556
Cl8 K1 3.343012 1_665
Cl9 Mn2 2.510612 1_555
Cl9 K2 3.115851 1_556
Cl9 K0 3.339860 1_555
Cl10 Mn3 2.508302 1_455
Cl10 K1 3.116209 1_554
Cl10 K3 3.341170 1_445
Cl11 Mn1 2.509160 1_555
Cl11 K0 3.115764 1_554
Cl11 K2 3.340719 1_555
