# generated using pymatgen
data_H4CSN2
_symmetry_space_group_name_H-M   'P 1'
_cell_length_a   5.49704300
_cell_length_b   7.51884600
_cell_length_c   8.57748400
_cell_angle_alpha   90.00000000
_cell_angle_beta   90.00000000
_cell_angle_gamma   90.00000000
_symmetry_Int_Tables_number   1
_chemical_formula_structural   H4CSN2
_chemical_formula_sum   'H16 C4 S4 N8'
_cell_volume   354.51959179
_cell_formula_units_Z   4
loop_
 _symmetry_equiv_pos_site_id
 _symmetry_equiv_pos_as_xyz
  1  'x, y, z'
loop_
 _atom_site_type_symbol
 _atom_site_label
 _atom_site_symmetry_multiplicity
 _atom_site_fract_x
 _atom_site_fract_y
 _atom_site_fract_z
 _atom_site_occupancy
  H  H0  1  0.25207300  0.63683300  0.13054800  1
  H  H1  1  0.25207300  0.63683300  0.86945200  1
  H  H2  1  0.74792700  0.13683300  0.86945200  1
  H  H3  1  0.74792700  0.13683300  0.13054800  1
  H  H4  1  0.99356300  0.57663400  0.23937500  1
  H  H5  1  0.99356300  0.57663400  0.76062500  1
  H  H6  1  0.00643700  0.07663400  0.76062500  1
  H  H7  1  0.00643700  0.07663400  0.23937500  1
  H  H8  1  0.34894700  0.28248900  0.36960300  1
  H  H9  1  0.34894700  0.28248900  0.63039700  1
  H  H10  1  0.65105300  0.78248900  0.63039700  1
  H  H11  1  0.65105300  0.78248900  0.36960300  1
  H  H12  1  0.57307900  0.39756700  0.26105200  1
  H  H13  1  0.57307900  0.39756700  0.73894800  1
  H  H14  1  0.42692100  0.89756700  0.73894800  1
  H  H15  1  0.42692100  0.89756700  0.26105200  1
  C  C0  1  0.95301100  0.57360000  0.00000000  1
  C  C1  1  0.04698900  0.07360000  0.00000000  1
  C  C2  1  0.61394700  0.40280200  0.50000000  1
  C  C3  1  0.38605300  0.90280200  0.50000000  1
  S  S0  1  0.65410000  0.50627100  0.00000000  1
  S  S1  1  0.34590000  0.00627100  0.00000000  1
  S  S2  1  0.87684100  0.52627300  0.50000000  1
  S  S3  1  0.12315900  0.02627300  0.50000000  1
  N  N0  1  0.07389300  0.60007600  0.13322900  1
  N  N1  1  0.07389300  0.60007600  0.86677100  1
  N  N2  1  0.92610700  0.10007600  0.86677100  1
  N  N3  1  0.92610700  0.10007600  0.13322900  1
  N  N4  1  0.50817600  0.35277900  0.36609200  1
  N  N5  1  0.50817600  0.35277900  0.63390800  1
  N  N6  1  0.49182400  0.85277900  0.63390800  1
  N  N7  1  0.49182400  0.85277900  0.36609200  1
loop_
_geom_bond_atom_site_label_1
_geom_bond_atom_site_label_2
_geom_bond_distance
_geom_bond_site_symmetry_2
H0 N0 1.017967 1_555
H1 N1 1.017967 1_555
H2 N2 1.017967 1_555
H3 N3 1.017967 1_555
H4 N0 1.027134 1_655
H5 N1 1.027134 1_655
H6 N2 1.027134 1_455
H7 N3 1.027134 1_455
H8 N4 1.022912 1_555
H9 N5 1.022912 1_555
H10 N6 1.022912 1_555
H11 N7 1.022912 1_555
H12 N4 1.025892 1_555
H13 N5 1.025892 1_555
H14 N6 1.025892 1_555
H15 N7 1.025892 1_555
C0 N0 1.336826 1_655
C0 N1 1.336826 1_654
C0 S0 1.719343 1_555
C1 N3 1.336826 1_455
C1 N2 1.336826 1_454
C1 S1 1.719343 1_555
C2 N5 1.341189 1_555
C2 N4 1.341189 1_555
C2 S2 1.717638 1_555
C3 N7 1.341189 1_555
C3 N6 1.341189 1_555
C3 S3 1.717638 1_565
