# generated using pymatgen
data_Na17(WO3)19
_symmetry_space_group_name_H-M   'P 1'
_cell_length_a   8.87565800
_cell_length_b   8.88861472
_cell_length_c   16.84747412
_cell_angle_alpha   83.99469195
_cell_angle_beta   77.90120452
_cell_angle_gamma   66.44319973
_symmetry_Int_Tables_number   1
_chemical_formula_structural   Na17(WO3)19
_chemical_formula_sum   'Na17 W19 O57'
_cell_volume   1190.98623288
_cell_formula_units_Z   1
loop_
 _symmetry_equiv_pos_site_id
 _symmetry_equiv_pos_as_xyz
  1  'x, y, z'
loop_
 _atom_site_type_symbol
 _atom_site_label
 _atom_site_symmetry_multiplicity
 _atom_site_fract_x
 _atom_site_fract_y
 _atom_site_fract_z
 _atom_site_occupancy
  Na  Na0  1  0.20915100  0.52756500  0.94675200  1
  Na  Na1  1  0.42200900  0.05204300  0.89332900  1
  Na  Na2  1  0.63267500  0.57978600  0.84076300  1
  Na  Na3  1  0.84307900  0.10452500  0.78867100  1
  Na  Na4  1  0.05305300  0.63090900  0.73648700  1
  Na  Na5  1  0.26369100  0.15725100  0.68377100  1
  Na  Na6  1  0.47264800  0.68544600  0.63229900  1
  Na  Na7  1  0.68252100  0.20891800  0.57907500  1
  Na  Na8  1  0.10740500  0.26224700  0.47496300  1
  Na  Na9  1  0.31446900  0.79051900  0.42264800  1
  Na  Na10  1  0.52568800  0.31337300  0.37015700  1
  Na  Na11  1  0.73757200  0.84417100  0.31631500  1
  Na  Na12  1  0.94846700  0.36854600  0.26304900  1
  Na  Na13  1  0.15589800  0.89442500  0.21043600  1
  Na  Na14  1  0.36718700  0.42095300  0.15835900  1
  Na  Na15  1  0.58130600  0.94690800  0.10494300  1
  Na  Na16  1  0.79067400  0.47400400  0.05204900  1
  W  W0  1  0.60723800  0.26260200  0.97399300  1
  W  W1  1  0.81613000  0.78857400  0.92215800  1
  W  W2  1  0.02894700  0.31314700  0.86879600  1
  W  W3  1  0.23370800  0.84437400  0.81640500  1
  W  W4  1  0.44694700  0.36859200  0.76263500  1
  W  W5  1  0.66214000  0.89177400  0.71051000  1
  W  W6  1  0.86579500  0.42303300  0.65743900  1
  W  W7  1  0.08066700  0.94646300  0.60462500  1
  W  W8  1  0.28662900  0.47437100  0.55256600  1
  W  W9  1  0.50074300  0.99960300  0.50100900  1
  W  W10  1  0.71014900  0.52769700  0.44777200  1
  W  W11  1  0.92005200  0.05188300  0.39564700  1
  W  W12  1  0.12963400  0.58000300  0.34253400  1
  W  W13  1  0.34256900  0.10366700  0.28912600  1
  W  W14  1  0.55356700  0.63007600  0.23704700  1
  W  W15  1  0.76570100  0.15825900  0.18333900  1
  W  W16  1  0.97398800  0.68573700  0.13019000  1
  W  W17  1  0.18431800  0.20939900  0.07905400  1
  W  W18  1  0.39328700  0.73890200  0.02529600  1
  O  O0  1  0.60472900  0.76545900  0.97654400  1
  O  O1  1  0.50153100  0.49445400  0.00149100  1
  O  O2  1  0.80771600  0.29226800  0.92120900  1
  O  O3  1  0.70838000  0.02706600  0.94725500  1
  O  O4  1  0.03441600  0.81133800  0.86646800  1
  O  O5  1  0.91727500  0.55923900  0.89269500  1
  O  O6  1  0.09928300  0.27087600  0.97126000  1
  O  O7  1  0.23398200  0.34508200  0.81481600  1
  O  O8  1  0.13436600  0.08077500  0.83873800  1
  O  O9  1  0.32239200  0.78645200  0.92336700  1
  O  O10  1  0.44751200  0.86736000  0.76469000  1
  O  O11  1  0.34901100  0.59958700  0.79147100  1
  O  O12  1  0.52816900  0.31352900  0.87233100  1
  O  O13  1  0.66085000  0.39125700  0.71245800  1
  O  O14  1  0.54759500  0.13512800  0.73971400  1
  O  O15  1  0.85929700  0.92681700  0.66105600  1
  O  O16  1  0.73351600  0.84427200  0.81721500  1
  O  O17  1  0.76004500  0.65538000  0.68805100  1
  O  O18  1  0.94791400  0.36691200  0.76274700  1
  O  O19  1  0.08481800  0.44600000  0.60510700  1
  O  O20  1  0.97534100  0.17838900  0.63156200  1
  O  O21  1  0.28877900  0.97229900  0.55081300  1
  O  O22  1  0.15954100  0.89472600  0.71034000  1
  O  O23  1  0.17939600  0.71869600  0.57848200  1
  O  O24  1  0.49154600  0.50397100  0.50031800  1
  O  O25  1  0.36869500  0.42387900  0.65747600  1
  O  O26  1  0.39432500  0.23816800  0.52423700  1
  O  O27  1  0.70710000  0.03286900  0.44597200  1
  O  O28  1  0.57114000  0.94526100  0.60491400  1
  O  O29  1  0.60646800  0.75423700  0.47209700  1
  O  O30  1  0.92689100  0.54936200  0.39067000  1
  O  O31  1  0.79342300  0.46489300  0.55468500  1
  O  O32  1  0.81096900  0.29794700  0.42164100  1
  O  O33  1  0.99968100  0.01125500  0.49586500  1
  O  O34  1  0.13715300  0.08284400  0.34018100  1
  O  O35  1  0.03029600  0.81264200  0.36509500  1
  O  O36  1  0.21170600  0.52754600  0.44282900  1
  O  O37  1  0.33654500  0.60554000  0.28878200  1
  O  O38  1  0.23666300  0.34740100  0.31563000  1
  O  O39  1  0.55380600  0.13320700  0.23779500  1
  O  O40  1  0.42726000  0.04730400  0.39559000  1
  O  O41  1  0.45123000  0.86840200  0.26125200  1
  O  O42  1  0.77099700  0.65190100  0.18283500  1
  O  O43  1  0.62831300  0.57850000  0.33978100  1
  O  O44  1  0.65480800  0.39533800  0.20953000  1
  O  O45  1  0.96829500  0.18630600  0.13545700  1
  O  O46  1  0.84545600  0.10661200  0.29225100  1
  O  O47  1  0.86580200  0.91851700  0.16425400  1
  O  O48  1  0.18469200  0.70228900  0.08228100  1
  O  O49  1  0.05462900  0.62912700  0.23892200  1
  O  O50  1  0.08153700  0.43957800  0.10253100  1
  O  O51  1  0.39992500  0.23639200  0.02445700  1
  O  O52  1  0.26646300  0.15850600  0.18328700  1
  O  O53  1  0.28940600  0.97969100  0.05323000  1
  O  O54  1  0.47175800  0.68544300  0.13159600  1
  O  O55  1  0.67760900  0.21263700  0.07788500  1
  O  O56  1  0.89512300  0.73245900  0.02626800  1
loop_
_geom_bond_atom_site_label_1
_geom_bond_atom_site_label_2
_geom_bond_distance
_geom_bond_site_symmetry_2
Na0 O4 2.763265 1_555
Na0 O11 2.778157 1_555
Na0 O6 2.782023 1_555
Na0 O56 2.787090 1_456
Na0 O50 2.795521 1_556
Na0 O7 2.807778 1_555
Na0 O12 2.813170 1_555
Na0 O48 2.817335 1_556
Na0 O9 2.820232 1_555
Na0 O5 2.823514 1_455
Na0 O51 2.827844 1_556
Na0 O1 2.829736 1_556
Na1 O14 2.744908 1_555
Na1 O16 2.761745 1_545
Na1 O10 2.772131 1_545
Na1 O3 2.794610 1_555
Na1 O9 2.800318 1_545
Na1 O8 2.800538 1_555
Na1 O12 2.802467 1_555
Na1 O51 2.814802 1_556
Na1 O53 2.823016 1_546
Na1 O0 2.826351 1_545
Na1 O7 2.837108 1_555
Na1 O6 2.866445 1_555
Na2 O17 2.715704 1_555
Na2 O11 2.747933 1_555
Na2 O5 2.775580 1_555
Na2 O10 2.777945 1_555
Na2 O13 2.782027 1_555
Na2 O2 2.786775 1_555
Na2 O9 2.789289 1_555
Na2 O16 2.796987 1_555
Na2 O18 2.807744 1_555
Na2 O12 2.833512 1_555
Na2 O1 2.866590 1_556
Na2 O0 2.871084 1_555
Na3 O15 2.745427 1_545
Na3 O13 2.766071 1_555
Na3 O20 2.786585 1_555
Na3 O18 2.801265 1_555
Na3 O8 2.807280 1_655
Na3 O22 2.807642 1_645
Na3 O16 2.810250 1_545
Na3 O14 2.814605 1_555
Na3 O2 2.817185 1_555
Na3 O3 2.824112 1_555
Na3 O12 2.827733 1_555
Na3 O4 2.841506 1_645
Na4 O7 2.775007 1_555
Na4 O5 2.778021 1_455
Na4 O4 2.786724 1_555
Na4 O19 2.794515 1_555
Na4 O25 2.799169 1_555
Na4 O17 2.806573 1_455
Na4 O18 2.816550 1_455
Na4 O23 2.822406 1_555
Na4 O22 2.822609 1_555
Na4 O15 2.844587 1_455
Na4 O16 2.848413 1_455
Na4 O11 2.866588 1_555
Na5 O8 2.755359 1_555
Na5 O28 2.766965 1_545
Na5 O19 2.788821 1_555
Na5 O22 2.798606 1_545
Na5 O14 2.799510 1_555
Na5 O18 2.807003 1_455
Na5 O20 2.807793 1_455
Na5 O7 2.811862 1_555
Na5 O10 2.827896 1_545
Na5 O21 2.835256 1_545
Na5 O26 2.835729 1_555
Na5 O25 2.838001 1_555
Na6 O28 2.744455 1_555
Na6 O22 2.785682 1_555
Na6 O25 2.789430 1_555
Na6 O17 2.804888 1_555
Na6 O10 2.810154 1_555
Na6 O21 2.815994 1_555
Na6 O24 2.819954 1_555
Na6 O29 2.821448 1_555
Na6 O11 2.825854 1_555
Na6 O23 2.828839 1_555
Na6 O13 2.857840 1_555
Na6 O31 2.858909 1_555
Na7 O15 2.774158 1_545
Na7 O31 2.782004 1_555
Na7 O27 2.789475 1_555
Na7 O26 2.805881 1_555
Na7 O33 2.807883 1_555
Na7 O25 2.808156 1_555
Na7 O20 2.821291 1_555
Na7 O32 2.824068 1_555
Na7 O13 2.836417 1_555
Na7 O14 2.843681 1_555
Na7 O28 2.849030 1_545
Na7 O24 2.858874 1_555
Na8 O33 2.723029 1_455
Na8 O26 2.762878 1_555
Na8 O21 2.779137 1_545
Na8 O31 2.781997 1_455
Na8 O19 2.796197 1_555
Na8 O20 2.807254 1_455
Na8 O34 2.817559 1_555
Na8 O36 2.824645 1_555
Na8 O30 2.832647 1_455
Na8 O38 2.841276 1_555
Na8 O32 2.845000 1_455
Na8 O40 2.847042 1_555
Na9 O21 2.748498 1_555
Na9 O24 2.763105 1_555
Na9 O23 2.771145 1_555
Na9 O29 2.774106 1_555
Na9 O36 2.796263 1_555
Na9 O40 2.799469 1_565
Na9 O33 2.803087 1_465
Na9 O35 2.815900 1_555
Na9 O43 2.825648 1_555
Na9 O34 2.837471 1_565
Na9 O37 2.856809 1_555
Na9 O41 2.870620 1_555
Na10 O27 2.725329 1_555
Na10 O26 2.745157 1_555
Na10 O36 2.775999 1_555
Na10 O39 2.791787 1_555
Na10 O32 2.792976 1_555
Na10 O40 2.796864 1_555
Na10 O38 2.797432 1_555
Na10 O24 2.803418 1_555
Na10 O43 2.813043 1_555
Na10 O46 2.815904 1_555
Na10 O44 2.849955 1_555
Na10 O37 2.859555 1_555
Na11 O47 2.705506 1_555
Na11 O40 2.759934 1_565
Na11 O35 2.787296 1_655
Na11 O27 2.795407 1_565
Na11 O39 2.802610 1_565
Na11 O41 2.806249 1_555
Na11 O29 2.811680 1_555
Na11 O30 2.816992 1_555
Na11 O46 2.819170 1_565
Na11 O49 2.820758 1_655
Na11 O43 2.854385 1_555
Na11 O42 2.860958 1_555
Na12 O30 2.747201 1_555
Na12 O45 2.760047 1_555
Na12 O42 2.767669 1_555
Na12 O34 2.786519 1_655
Na12 O46 2.787809 1_555
Na12 O49 2.793707 1_655
Na12 O38 2.809596 1_655
Na12 O32 2.813623 1_555
Na12 O43 2.820394 1_555
Na12 O52 2.824988 1_655
Na12 O50 2.829632 1_655
Na12 O44 2.847314 1_555
Na13 O35 2.755760 1_555
Na13 O47 2.764954 1_455
Na13 O37 2.791709 1_555
Na13 O48 2.799107 1_555
Na13 O45 2.800396 1_465
Na13 O46 2.801288 1_465
Na13 O54 2.804814 1_555
Na13 O49 2.806344 1_555
Na13 O53 2.824088 1_555
Na13 O34 2.828686 1_565
Na13 O41 2.841150 1_555
Na13 O52 2.847900 1_565
Na14 O48 2.735300 1_555
Na14 O52 2.778866 1_555
Na14 O44 2.780087 1_555
Na14 O55 2.781982 1_555
Na14 O37 2.782305 1_555
Na14 O38 2.783197 1_555
Na14 O1 2.788112 1_555
Na14 O49 2.793938 1_555
Na14 O39 2.811228 1_555
Na14 O54 2.817549 1_555
Na14 O50 2.823389 1_555
Na14 O51 2.825480 1_555
Na15 O0 2.756330 1_554
Na15 O41 2.782023 1_555
Na15 O55 2.782513 1_565
Na15 O3 2.797803 1_564
Na15 O53 2.801048 1_555
Na15 O52 2.803695 1_565
Na15 O56 2.808137 1_555
Na15 O51 2.815182 1_565
Na15 O47 2.816707 1_555
Na15 O54 2.820128 1_555
Na15 O39 2.834570 1_565
Na15 O42 2.847802 1_555
Na16 O6 2.759263 1_654
Na16 O56 2.765944 1_555
Na16 O50 2.777796 1_655
Na16 O42 2.780807 1_555
Na16 O0 2.797554 1_554
Na16 O1 2.802803 1_555
Na16 O2 2.810938 1_554
Na16 O44 2.815489 1_555
Na16 O45 2.820242 1_555
Na16 O54 2.832848 1_555
Na16 O5 2.834532 1_554
Na16 O55 2.839464 1_555
O0 W18 1.979814 1_556
O0 W1 1.987565 1_555
O1 W0 1.952952 1_554
O1 W18 2.038918 1_555
O2 W0 1.920723 1_555
O2 W2 2.049375 1_655
O3 W0 1.979260 1_555
O3 W1 1.996188 1_545
O4 W3 1.914257 1_555
O4 W1 2.046093 1_455
O5 W1 1.941610 1_555
O5 W2 2.052638 1_655
O6 W2 1.907726 1_555
O6 W17 2.050260 1_556
O7 W2 1.970914 1_555
O7 W4 1.992510 1_555
O8 W2 1.968132 1_555
O8 W3 1.969721 1_545
O9 W18 1.900535 1_556
O9 W3 2.051472 1_555
O10 W3 1.995372 1_555
O10 W5 2.017237 1_555
O11 W4 1.952548 1_555
O11 W3 2.046744 1_555
O12 W0 1.928378 1_555
O12 W4 2.064442 1_555
O13 W6 1.974055 1_555
O13 W4 1.989204 1_555
O14 W4 1.948019 1_555
O14 W5 2.051780 1_545
O15 W5 1.903562 1_555
O15 W7 2.061863 1_655
O16 W5 1.978926 1_555
O16 W1 1.994695 1_555
O17 W5 1.970392 1_555
O17 W6 1.970458 1_555
O18 W6 1.998510 1_555
O18 W2 2.005763 1_655
O19 W8 1.924903 1_555
O19 W6 2.039390 1_455
O20 W7 1.951193 1_645
O20 W6 2.048109 1_555
O21 W7 1.969786 1_555
O21 W9 1.990710 1_555
O22 W3 1.979145 1_555
O22 W7 1.991881 1_555
O23 W7 1.915032 1_555
O23 W8 2.045696 1_555
O24 W8 1.953179 1_555
O24 W10 2.039779 1_555
O25 W4 1.980782 1_555
O25 W8 1.992064 1_555
O26 W9 1.989874 1_545
O26 W8 1.990919 1_555
O27 W11 1.968104 1_555
O27 W9 1.991329 1_545
O28 W9 1.930916 1_555
O28 W5 2.040037 1_555
O29 W10 1.898134 1_555
O29 W9 2.066214 1_555
O30 W12 1.924514 1_655
O30 W10 2.035892 1_555
O31 W6 1.920481 1_555
O31 W10 2.029821 1_555
O32 W10 1.930613 1_555
O32 W11 2.059838 1_555
O33 W11 1.910320 1_555
O33 W7 2.050906 1_645
O34 W13 1.917604 1_555
O34 W11 2.068138 1_455
O35 W12 1.940225 1_555
O35 W11 2.024642 1_465
O36 W12 1.919065 1_555
O36 W8 2.040818 1_555
O37 W12 1.958895 1_555
O37 W14 2.027259 1_555
O38 W12 1.956568 1_555
O38 W13 2.043332 1_555
O39 W15 1.999263 1_555
O39 W13 1.999562 1_555
O40 W9 1.966330 1_545
O40 W13 2.027154 1_555
O41 W13 1.981731 1_565
O41 W14 1.991574 1_555
O42 W16 1.957191 1_555
O42 W14 2.029625 1_555
O43 W14 1.928265 1_555
O43 W10 2.039978 1_555
O44 W14 1.976100 1_555
O44 W15 1.989677 1_555
O45 W15 1.911657 1_555
O45 W17 2.032568 1_655
O46 W11 1.938596 1_555
O46 W15 2.046252 1_555
O47 W15 1.985971 1_565
O47 W16 1.990453 1_555
O48 W16 1.932060 1_455
O48 W18 2.031376 1_555
O49 W12 1.943262 1_555
O49 W16 2.046966 1_455
O50 W17 1.923758 1_555
O50 W16 2.067162 1_455
O51 W0 1.951477 1_554
O51 W17 2.036825 1_555
O52 W17 1.981623 1_555
O52 W13 1.983247 1_555
O53 W17 1.929165 1_565
O53 W18 2.025811 1_555
O54 W14 1.999466 1_555
O54 W18 1.999607 1_555
O55 W0 1.929991 1_554
O55 W15 2.025322 1_555
O56 W16 1.963941 1_555
O56 W1 1.967169 1_554
