# generated using pymatgen
data_BaMgGe
_symmetry_space_group_name_H-M   'P 1'
_cell_length_a   4.68256008
_cell_length_b   4.68043968
_cell_length_c   7.90789283
_cell_angle_alpha   90.00000000
_cell_angle_beta   90.00000000
_cell_angle_gamma   90.00000000
_symmetry_Int_Tables_number   1
_chemical_formula_structural   BaMgGe
_chemical_formula_sum   'Ba2 Mg2 Ge2'
_cell_volume   173.31285875
_cell_formula_units_Z   2
loop_
 _symmetry_equiv_pos_site_id
 _symmetry_equiv_pos_as_xyz
  1  'x, y, z'
loop_
 _atom_site_type_symbol
 _atom_site_label
 _atom_site_symmetry_multiplicity
 _atom_site_fract_x
 _atom_site_fract_y
 _atom_site_fract_z
 _atom_site_occupancy
  Ba  Ba0  1  0.00000000  0.50000000  0.33899640  1
  Ba  Ba1  1  0.50000000  -0.00000000  0.66100360  1
  Mg  Mg0  1  -0.00000000  0.00000000  0.00005063  1
  Mg  Mg1  1  0.50000000  0.50000000  -0.00005063  1
  Ge  Ge0  1  0.00000000  0.50000000  0.79528989  1
  Ge  Ge1  1  0.50000000  -0.00000000  0.20471011  1
loop_
_geom_bond_atom_site_label_1
_geom_bond_atom_site_label_2
_geom_bond_distance
_geom_bond_site_symmetry_2
Ba0 Ge1 3.476478 1_455
Ba0 Ge1 3.476478 1_555
Ba0 Ge1 3.476478 1_565
Ba0 Ge1 3.476478 1_465
Ba0 Mg0 3.558214 1_555
Ba0 Mg0 3.558214 1_565
Ba0 Mg1 3.559515 1_555
Ba0 Mg1 3.559515 1_455
Ba0 Ge0 3.608320 1_555
Ba1 Ge0 3.476478 1_645
Ba1 Ge0 3.476478 1_555
Ba1 Ge0 3.476478 1_655
Ba1 Ge0 3.476478 1_545
Ba1 Mg1 3.558214 1_546
Ba1 Mg1 3.558214 1_556
Ba1 Mg0 3.559515 1_656
Ba1 Mg0 3.559515 1_556
Ba1 Ge1 3.608320 1_555
Ge0 Mg0 2.845790 1_566
Ge0 Mg0 2.845790 1_556
Ge0 Mg1 2.846207 1_556
Ge0 Mg1 2.846207 1_456
Ge1 Mg1 2.845790 1_545
Ge1 Mg1 2.845790 1_555
Ge1 Mg0 2.846207 1_555
Ge1 Mg0 2.846207 1_655
