# generated using pymatgen
data_Na7Li3V10O30
_symmetry_space_group_name_H-M   'P 1'
_cell_length_a   7.07003700
_cell_length_b   12.21718999
_cell_length_c   16.63120589
_cell_angle_alpha   89.52389380
_cell_angle_beta   101.01394841
_cell_angle_gamma   99.82739141
_symmetry_Int_Tables_number   1
_chemical_formula_structural   Na7Li3V10O30
_chemical_formula_sum   'Na14 Li6 V20 O60'
_cell_volume   1388.94736898
_cell_formula_units_Z   2
loop_
 _symmetry_equiv_pos_site_id
 _symmetry_equiv_pos_as_xyz
  1  'x, y, z'
loop_
 _atom_site_type_symbol
 _atom_site_label
 _atom_site_symmetry_multiplicity
 _atom_site_fract_x
 _atom_site_fract_y
 _atom_site_fract_z
 _atom_site_occupancy
  Na  Na0  1  0.91646900  0.11671600  0.01653300  1
  Na  Na1  1  0.71138800  0.35827200  0.03559000  1
  Na  Na2  1  0.71232900  0.75671900  0.23409700  1
  Na  Na3  1  0.91637100  0.91676100  0.41659600  1
  Na  Na4  1  0.28909600  0.04213000  0.16575800  1
  Na  Na5  1  0.71072200  0.15806400  0.43416000  1
  Na  Na6  1  0.28608200  0.44264900  0.36458200  1
  Na  Na7  1  0.91637200  0.31695500  0.61589500  1
  Na  Na8  1  0.71080300  0.55785600  0.63441000  1
  Na  Na9  1  0.91645900  0.71646000  0.81726000  1
  Na  Na10  1  0.28876400  0.84222600  0.56544800  1
  Na  Na11  1  0.71084900  0.95781500  0.83431500  1
  Na  Na12  1  0.28890900  0.24234400  0.76549200  1
  Na  Na13  1  0.28932800  0.64221700  0.96554600  1
  Li  Li0  1  0.91200500  0.51763000  0.21483400  1
  Li  Li1  1  0.08935800  0.28361100  0.18635800  1
  Li  Li2  1  0.08908700  0.68092800  0.38492100  1
  Li  Li3  1  0.09007400  0.08199000  0.58598300  1
  Li  Li4  1  0.09011300  0.48199100  0.78609900  1
  Li  Li5  1  0.09012400  0.88197500  0.98621600  1
  V  V0  1  0.80231600  0.62298200  0.00459400  1
  V  V1  1  0.61611600  0.85810400  0.02852300  1
  V  V2  1  0.80203800  0.02476400  0.20162700  1
  V  V3  1  0.61848000  0.26044900  0.22843700  1
  V  V4  1  0.38094100  0.53946500  0.17099800  1
  V  V5  1  0.80182100  0.42533300  0.39943300  1
  V  V6  1  0.19772300  0.77607200  0.19762200  1
  V  V7  1  0.61643000  0.65822300  0.42841000  1
  V  V8  1  0.37831800  0.93902400  0.37049000  1
  V  V9  1  0.80178400  0.82441200  0.60173200  1
  V  V10  1  0.19893400  0.17883100  0.39741900  1
  V  V11  1  0.61619800  0.05820300  0.62846400  1
  V  V12  1  0.37886000  0.33936500  0.57048200  1
  V  V13  1  0.80173700  0.22457300  0.80163600  1
  V  V14  1  0.19859400  0.57878900  0.59734600  1
  V  V15  1  0.61680500  0.45835200  0.82927200  1
  V  V16  1  0.37869000  0.73936800  0.77048100  1
  V  V17  1  0.19882800  0.97885300  0.79756500  1
  V  V18  1  0.37899300  0.13949200  0.97065700  1
  V  V19  1  0.19852900  0.37882400  0.99765800  1
  O  O0  1  0.89801100  0.55380800  0.08505600  1
  O  O1  1  0.64647400  0.71279800  0.03629300  1
  O  O2  1  0.98090500  0.09966600  0.16002900  1
  O  O3  1  0.60534300  0.14540300  0.02379100  1
  O  O4  1  0.64494000  0.91773800  0.13142500  1
  O  O5  1  0.90180700  0.95330100  0.27922900  1
  O  O6  1  0.78424300  0.33494800  0.17939100  1
  O  O7  1  0.35811400  0.48588300  0.06652000  1
  O  O8  1  0.97456800  0.49910700  0.35348600  1
  O  O9  1  0.60990700  0.54148000  0.22157000  1
  O  O10  1  0.22066800  0.06008300  0.02036500  1
  O  O11  1  0.35065600  0.68501100  0.16502900  1
  O  O12  1  0.64888000  0.11464700  0.23573300  1
  O  O13  1  0.78051700  0.72824100  0.37678600  1
  O  O14  1  0.09891600  0.84438700  0.11717900  1
  O  O15  1  0.38928600  0.25816700  0.17791800  1
  O  O16  1  0.02538600  0.31055600  0.04561800  1
  O  O17  1  0.35684200  0.88407300  0.26651600  1
  O  O18  1  0.64243300  0.31638300  0.33193500  1
  O  O19  1  0.98055100  0.89963000  0.56014600  1
  O  O20  1  0.60491400  0.94496400  0.42336200  1
  O  O21  1  0.90563500  0.35610400  0.47759500  1
  O  O22  1  0.21567900  0.46461000  0.22021800  1
  O  O23  1  0.64789100  0.51313300  0.43562200  1
  O  O24  1  0.38719300  0.65646000  0.37813500  1
  O  O25  1  0.02404800  0.70347300  0.24364200  1
  O  O26  1  0.64505100  0.71738400  0.53153700  1
  O  O27  1  0.34512600  0.08418200  0.36449300  1
  O  O28  1  0.90208700  0.75335600  0.67941400  1
  O  O29  1  0.22022100  0.86002100  0.42042900  1
  O  O30  1  0.78039900  0.12821100  0.57685000  1
  O  O31  1  0.09981300  0.24613300  0.31646500  1
  O  O32  1  0.64702000  0.91291300  0.63642500  1
  O  O33  1  0.35994300  0.28572700  0.46632100  1
  O  O34  1  0.98055100  0.29973000  0.76001100  1
  O  O35  1  0.60522400  0.34507600  0.62350600  1
  O  O36  1  0.34556400  0.48447000  0.56465900  1
  O  O37  1  0.78039900  0.52805300  0.77728600  1
  O  O38  1  0.09921900  0.64566600  0.51621200  1
  O  O39  1  0.38712300  0.05654900  0.57804800  1
  O  O40  1  0.02581500  0.11077300  0.44552400  1
  O  O41  1  0.35962300  0.68573300  0.66621800  1
  O  O42  1  0.64480000  0.11756000  0.73147100  1
  O  O43  1  0.98129300  0.69729000  0.96241300  1
  O  O44  1  0.60512400  0.74513800  0.82340900  1
  O  O45  1  0.90209900  0.15338900  0.87926400  1
  O  O46  1  0.22047900  0.26016200  0.62029300  1
  O  O47  1  0.34538100  0.88445800  0.76462800  1
  O  O48  1  0.64711800  0.31302700  0.83642200  1
  O  O49  1  0.78061700  0.92793300  0.97700600  1
  O  O50  1  0.38778500  0.45684300  0.77874000  1
  O  O51  1  0.02584900  0.51068700  0.64558300  1
  O  O52  1  0.64744600  0.51677700  0.93300100  1
  O  O53  1  0.22050000  0.66017600  0.82039600  1
  O  O54  1  0.09959100  0.04619200  0.71670100  1
  O  O55  1  0.36000500  0.08578300  0.86642400  1
  O  O56  1  0.38708200  0.85643100  0.97809500  1
  O  O57  1  0.02591000  0.91053700  0.84566000  1
  O  O58  1  0.34541800  0.28450600  0.96476900  1
  O  O59  1  0.09967600  0.44629500  0.91680100  1
loop_
_geom_bond_atom_site_label_1
_geom_bond_atom_site_label_2
_geom_bond_distance
_geom_bond_site_symmetry_2
Na0 O45 2.309293 1_554
Na0 O3 2.311122 1_555
Na0 O2 2.356922 1_555
Na0 O10 2.358632 1_655
Na0 O16 2.385254 1_655
Na0 O49 2.387862 1_544
Na1 O16 2.365299 1_655
Na1 O6 2.373662 1_555
Na1 O3 2.578901 1_555
Na1 O0 2.581954 1_555
Na1 O52 2.610480 1_554
Na1 O58 2.636556 1_554
Na2 O13 2.364618 1_555
Na2 O25 2.378948 1_655
Na2 O5 2.583316 1_555
Na2 O11 2.599068 1_555
Na2 O9 2.604629 1_555
Na2 O4 2.639298 1_555
Na3 O20 2.309668 1_555
Na3 O5 2.310422 1_555
Na3 O29 2.356856 1_655
Na3 O19 2.357883 1_555
Na3 O13 2.385952 1_555
Na3 O40 2.387270 1_665
Na4 O2 2.386061 1_455
Na4 O10 2.389477 1_555
Na4 O17 2.592595 1_545
Na4 O12 2.593522 1_555
Na4 O14 2.608744 1_545
Na4 O15 2.612438 1_555
Na5 O30 2.368036 1_555
Na5 O40 2.368319 1_655
Na5 O20 2.581006 1_545
Na5 O21 2.604861 1_555
Na5 O18 2.610594 1_555
Na5 O27 2.629622 1_555
Na6 O22 2.379609 1_555
Na6 O8 2.391990 1_455
Na6 O31 2.586277 1_555
Na6 O24 2.587671 1_555
Na6 O33 2.600264 1_555
Na6 O23 2.605954 1_555
Na7 O35 2.310500 1_555
Na7 O21 2.335029 1_555
Na7 O46 2.357498 1_655
Na7 O34 2.367192 1_555
Na7 O30 2.385949 1_555
Na7 O51 2.385988 1_655
Na8 O51 2.367723 1_655
Na8 O37 2.370874 1_555
Na8 O28 2.575695 1_555
Na8 O35 2.577125 1_555
Na8 O26 2.625223 1_555
Na8 O36 2.626779 1_555
Na9 O44 2.308276 1_555
Na9 O28 2.319209 1_555
Na9 O53 2.357413 1_655
Na9 O37 2.385551 1_555
Na9 O57 2.386739 1_655
Na9 O43 2.386867 1_555
Na10 O29 2.383221 1_555
Na10 O19 2.386467 1_455
Na10 O41 2.582245 1_555
Na10 O32 2.585061 1_555
Na10 O39 2.591431 1_565
Na10 O38 2.597690 1_555
Na11 O57 2.368069 1_655
Na11 O49 2.368144 1_555
Na11 O44 2.576026 1_555
Na11 O45 2.576199 1_565
Na11 O42 2.627340 1_565
Na11 O47 2.627804 1_555
Na12 O46 2.386145 1_555
Na12 O34 2.386934 1_455
Na12 O48 2.584563 1_555
Na12 O55 2.584845 1_555
Na12 O54 2.591376 1_555
Na12 O50 2.594231 1_555
Na13 O43 2.377936 1_455
Na13 O53 2.385628 1_555
Na13 O1 2.577242 1_556
Na13 O7 2.579979 1_556
Na13 O59 2.589556 1_555
Na13 O56 2.589772 1_555
Li0 O0 2.186587 1_555
Li0 O9 2.227935 1_555
Li0 O8 2.280358 1_555
Li0 O25 2.295916 1_655
Li0 O6 2.296697 1_555
Li0 O22 2.331839 1_655
Li1 O31 2.198016 1_555
Li1 O15 2.225384 1_555
Li1 O2 2.264914 1_455
Li1 O22 2.271333 1_555
Li1 O16 2.329207 1_555
Li1 O6 2.329235 1_455
Li2 O24 2.202425 1_555
Li2 O38 2.212160 1_555
Li2 O8 2.259832 1_455
Li2 O29 2.261747 1_555
Li2 O25 2.329757 1_555
Li2 O13 2.329850 1_455
Li3 O39 2.203191 1_555
Li3 O54 2.204636 1_555
Li3 O19 2.246723 1_445
Li3 O46 2.246879 1_555
Li3 O40 2.328591 1_555
Li3 O30 2.330027 1_455
Li4 O59 2.204093 1_555
Li4 O50 2.204151 1_555
Li4 O34 2.246193 1_455
Li4 O53 2.246957 1_555
Li4 O51 2.329320 1_555
Li4 O37 2.330139 1_455
Li5 O56 2.203692 1_555
Li5 O14 2.213625 1_556
Li5 O10 2.245878 1_566
Li5 O43 2.268392 1_455
Li5 O49 2.327437 1_455
Li5 O57 2.329665 1_555
O0 V0 1.671267 1_555
O1 V1 1.824792 1_555
O1 V0 1.827635 1_555
O2 V2 1.686403 1_555
O3 V18 1.663834 1_554
O4 V1 1.827004 1_555
O4 V2 1.827735 1_565
O5 V2 1.664077 1_565
O6 V3 1.689982 1_555
O7 V19 1.822849 1_554
O7 V4 1.830164 1_555
O8 V5 1.690362 1_555
O9 V4 1.671833 1_555
O10 V18 1.687355 1_554
O11 V4 1.826603 1_555
O11 V6 1.828983 1_555
O12 V3 1.830587 1_555
O12 V2 1.830594 1_555
O13 V7 1.686517 1_555
O14 V6 1.672672 1_555
O15 V3 1.672480 1_555
O16 V19 1.686368 1_554
O17 V6 1.829018 1_555
O17 V8 1.829785 1_555
O18 V3 1.824056 1_555
O18 V5 1.825161 1_555
O19 V9 1.687365 1_555
O20 V8 1.663769 1_555
O21 V5 1.665218 1_555
O22 V4 1.691114 1_555
O23 V7 1.823954 1_555
O23 V5 1.832141 1_555
O24 V7 1.672390 1_555
O25 V6 1.690037 1_555
O26 V9 1.826752 1_555
O26 V7 1.828410 1_555
O27 V10 1.827584 1_555
O27 V8 1.827629 1_545
O28 V9 1.663447 1_555
O29 V8 1.686385 1_555
O30 V11 1.686927 1_555
O31 V10 1.672622 1_555
O32 V11 1.825617 1_565
O32 V9 1.831578 1_555
O33 V10 1.825781 1_555
O33 V12 1.829939 1_555
O34 V13 1.687658 1_555
O35 V12 1.663570 1_555
O36 V14 1.827025 1_555
O36 V12 1.827134 1_555
O37 V15 1.686434 1_555
O38 V14 1.672528 1_555
O39 V11 1.672331 1_555
O40 V10 1.686771 1_555
O41 V14 1.825939 1_555
O41 V16 1.831335 1_555
O42 V13 1.826898 1_555
O42 V11 1.827514 1_555
O43 V0 1.689357 1_556
O44 V16 1.663355 1_555
O45 V13 1.663900 1_555
O46 V12 1.687515 1_555
O47 V16 1.826989 1_555
O47 V17 1.827258 1_555
O48 V15 1.824550 1_555
O48 V13 1.831073 1_555
O49 V1 1.686544 1_556
O50 V15 1.672869 1_555
O51 V14 1.686372 1_555
O52 V0 1.828314 1_556
O52 V15 1.832324 1_555
O53 V16 1.687625 1_555
O54 V17 1.672082 1_545
O55 V17 1.826122 1_545
O55 V18 1.831281 1_555
O56 V1 1.672107 1_556
O57 V17 1.686785 1_555
O58 V18 1.826615 1_555
O58 V19 1.827981 1_555
O59 V19 1.671949 1_555
