# generated using pymatgen
data_V2P2O7
_symmetry_space_group_name_H-M   'P 1'
_cell_length_a   4.56783930
_cell_length_b   5.41355783
_cell_length_c   10.39596900
_cell_angle_alpha   90.00164972
_cell_angle_beta   89.99923944
_cell_angle_gamma   96.43394931
_symmetry_Int_Tables_number   1
_chemical_formula_structural   V2P2O7
_chemical_formula_sum   'V4 P4 O14'
_cell_volume   255.45511575
_cell_formula_units_Z   2
loop_
 _symmetry_equiv_pos_site_id
 _symmetry_equiv_pos_as_xyz
  1  'x, y, z'
loop_
 _atom_site_type_symbol
 _atom_site_label
 _atom_site_symmetry_multiplicity
 _atom_site_fract_x
 _atom_site_fract_y
 _atom_site_fract_z
 _atom_site_occupancy
  V  V0  1  0.40532400  0.58141200  0.34282000  1
  V  V1  1  0.59465500  0.91882600  0.84278300  1
  V  V2  1  0.40537700  0.08129100  0.15714900  1
  V  V3  1  0.59467200  0.41857400  0.65719500  1
  P  P0  1  0.85996800  0.15092100  0.38990000  1
  P  P1  1  0.14006700  0.34905500  0.88989900  1
  P  P2  1  0.85992400  0.65092900  0.11010600  1
  P  P3  1  0.14004200  0.84906900  0.61010700  1
  O  O0  1  0.00000600  0.99998500  0.49999700  1
  O  O1  1  0.99999100  0.50000600  0.99999700  1
  O  O2  1  0.37150800  0.03686300  0.67462800  1
  O  O3  1  0.62846600  0.46312900  0.17464900  1
  O  O4  1  0.37152900  0.53685300  0.82535800  1
  O  O5  1  0.62849000  0.96313300  0.32537900  1
  O  O6  1  0.28315500  0.13714300  0.95523000  1
  O  O7  1  0.71684900  0.36285400  0.45522800  1
  O  O8  1  0.28316100  0.63713500  0.54478300  1
  O  O9  1  0.71682800  0.86284500  0.04478100  1
  O  O10  1  0.88497100  0.25180300  0.80084800  1
  O  O11  1  0.11504400  0.24820500  0.30086000  1
  O  O12  1  0.88495600  0.75179200  0.69914600  1
  O  O13  1  0.11501900  0.74817700  0.19915600  1
loop_
_geom_bond_atom_site_label_1
_geom_bond_atom_site_label_2
_geom_bond_distance
_geom_bond_site_symmetry_2
O0 P0 1.582427 1_465
O0 P3 1.582460 1_555
O1 P2 1.582492 1_556
O1 P1 1.582514 1_655
O2 P3 1.536367 1_545
O2 V1 2.156235 1_545
O2 V3 2.206801 1_555
O3 P2 1.536477 1_555
O3 V0 2.156773 1_555
O3 V2 2.207337 1_555
O4 P1 1.536473 1_555
O4 V3 2.156700 1_555
O4 V1 2.207980 1_555
O5 P0 1.536382 1_565
O5 V2 2.157018 1_565
O5 V0 2.206859 1_555
O6 P1 1.540339 1_555
O6 V2 2.201684 1_556
O6 V1 2.272604 1_545
O7 P0 1.540451 1_555
O7 V3 2.201955 1_555
O7 V0 2.273298 1_555
O8 P3 1.540437 1_555
O8 V0 2.201901 1_555
O8 V3 2.273285 1_555
O9 P2 1.540348 1_555
O9 V1 2.202523 1_554
O9 V2 2.272440 1_565
O10 P1 1.534446 1_655
O10 V1 2.159229 1_545
O10 V3 2.252152 1_555
O11 P0 1.534355 1_455
O11 V0 2.160136 1_555
O11 V2 2.252954 1_555
O12 P3 1.534372 1_655
O12 V3 2.160172 1_555
O12 V1 2.252655 1_555
O13 P2 1.534430 1_455
O13 V2 2.160048 1_565
O13 V0 2.252230 1_555
