# generated using pymatgen
data_Mn6O5F7
_symmetry_space_group_name_H-M   'P 1'
_cell_length_a   4.72781200
_cell_length_b   5.72318105
_cell_length_c   7.92406492
_cell_angle_alpha   85.91259866
_cell_angle_beta   89.39205383
_cell_angle_gamma   88.10527967
_symmetry_Int_Tables_number   1
_chemical_formula_structural   Mn6O5F7
_chemical_formula_sum   'Mn6 O5 F7'
_cell_volume   213.74072152
_cell_formula_units_Z   1
loop_
 _symmetry_equiv_pos_site_id
 _symmetry_equiv_pos_as_xyz
  1  'x, y, z'
loop_
 _atom_site_type_symbol
 _atom_site_label
 _atom_site_symmetry_multiplicity
 _atom_site_fract_x
 _atom_site_fract_y
 _atom_site_fract_z
 _atom_site_occupancy
  Mn  Mn0  1  0.47225100  0.49145500  0.98527900  1
  Mn  Mn1  1  0.53964200  0.15936600  0.34719600  1
  Mn  Mn2  1  0.49984900  0.83324100  0.66867000  1
  Mn  Mn3  1  0.01196400  0.67188700  0.30845900  1
  Mn  Mn4  1  0.97323600  0.33928800  0.68130500  1
  Mn  Mn5  1  0.98742200  0.00460500  0.01235000  1
  O  O0  1  0.81378800  0.95783100  0.23359500  1
  O  O1  1  0.79747600  0.29382400  0.91229800  1
  O  O2  1  0.69130900  0.11992500  0.57549000  1
  O  O3  1  0.31442200  0.54566500  0.75910000  1
  O  O4  1  0.19539500  0.71101100  0.09168100  1
  F  F0  1  0.80650700  0.63436800  0.53438900  1
  F  F1  1  0.70987500  0.79848700  0.88222100  1
  F  F2  1  0.67939000  0.47147200  0.21788200  1
  F  F3  1  0.29918700  0.86477500  0.44800700  1
  F  F4  1  0.31251500  0.19373200  0.12519600  1
  F  F5  1  0.19517200  0.37179500  0.42497500  1
  F  F6  1  0.20060000  0.03727200  0.79190500  1
loop_
_geom_bond_atom_site_label_1
_geom_bond_atom_site_label_2
_geom_bond_distance
_geom_bond_site_symmetry_2
Mn0 O3 1.949112 1_555
Mn0 O1 1.984281 1_555
Mn0 O4 2.005480 1_556
Mn1 O2 1.948402 1_555
Mn1 O0 1.960870 1_545
Mn2 O3 1.976054 1_555
Mn2 O2 1.991962 1_565
Mn3 O4 1.918157 1_555
Mn3 O0 1.918317 1_455
Mn4 O1 2.005667 1_555
Mn4 O2 2.083333 1_555
Mn4 O3 2.151266 1_655
Mn5 O0 1.932928 1_545
Mn5 O1 1.976010 1_554
Mn5 O4 1.984598 1_645
F0 Mn3 2.029004 1_655
F0 Mn4 2.116568 1_555
F0 Mn2 2.135520 1_555
F1 Mn2 1.965621 1_555
F1 Mn5 2.116877 1_566
F1 Mn0 2.218845 1_555
F2 Mn0 2.090509 1_554
F2 Mn1 2.116582 1_555
F2 Mn3 2.136265 1_655
F3 Mn2 1.992210 1_555
F3 Mn3 2.142531 1_555
F3 Mn1 2.165310 1_565
F4 Mn1 2.064737 1_555
F4 Mn0 2.121541 1_554
F4 Mn5 2.147244 1_455
F5 Mn3 2.060337 1_555
F5 Mn1 2.113018 1_555
F5 Mn4 2.274878 1_455
F6 Mn5 2.007653 1_456
F6 Mn2 2.083930 1_545
F6 Mn4 2.142994 1_455
