# generated using pymatgen
data_MgTi23O40
_symmetry_space_group_name_H-M   'P 1'
_cell_length_a   11.37034832
_cell_length_b   11.37034832
_cell_length_c   7.62038554
_cell_angle_alpha   80.33674700
_cell_angle_beta   80.33674700
_cell_angle_gamma   124.38578725
_symmetry_Int_Tables_number   1
_chemical_formula_structural   MgTi23O40
_chemical_formula_sum   'Mg1 Ti23 O40'
_cell_volume   758.58236693
_cell_formula_units_Z   1
loop_
 _symmetry_equiv_pos_site_id
 _symmetry_equiv_pos_as_xyz
  1  'x, y, z'
loop_
 _atom_site_type_symbol
 _atom_site_label
 _atom_site_symmetry_multiplicity
 _atom_site_fract_x
 _atom_site_fract_y
 _atom_site_fract_z
 _atom_site_occupancy
  Mg  Mg0  1  0.57158500  0.57158500  0.40101400  1
  Ti  Ti0  1  0.83701300  0.64487400  0.06907200  1
  Ti  Ti1  1  0.83717900  0.64423200  0.56507100  1
  Ti  Ti2  1  0.57322500  0.57322500  0.90129500  1
  Ti  Ti3  1  0.35483900  0.66246400  0.93323800  1
  Ti  Ti4  1  0.35575400  0.66577600  0.43177500  1
  Ti  Ti5  1  0.14495700  0.33721000  0.06653800  1
  Ti  Ti6  1  0.14759500  0.33542200  0.56648000  1
  Ti  Ti7  1  0.33542200  0.14759500  0.56648000  1
  Ti  Ti8  1  0.33721000  0.14495700  0.06653800  1
  Ti  Ti9  1  0.92881100  0.43037100  0.59887400  1
  Ti  Ti10  1  0.92905300  0.43017800  0.09727600  1
  Ti  Ti11  1  0.07072700  0.07072700  0.90330700  1
  Ti  Ti12  1  0.07045800  0.07045800  0.40079700  1
  Ti  Ti13  1  0.66577600  0.35575400  0.43177500  1
  Ti  Ti14  1  0.66246400  0.35483900  0.93323800  1
  Ti  Ti15  1  0.85120200  0.16295700  0.43351000  1
  Ti  Ti16  1  0.85279800  0.16137900  0.93413400  1
  Ti  Ti17  1  0.64487400  0.83701300  0.06907200  1
  Ti  Ti18  1  0.64423200  0.83717900  0.56507100  1
  Ti  Ti19  1  0.43037100  0.92881100  0.59887400  1
  Ti  Ti20  1  0.43017800  0.92905300  0.09727600  1
  Ti  Ti21  1  0.16137900  0.85279800  0.93413400  1
  Ti  Ti22  1  0.16295700  0.85120200  0.43351000  1
  O  O0  1  0.78054200  0.59620100  0.84318100  1
  O  O1  1  0.77959800  0.59605400  0.34366800  1
  O  O2  1  0.64778300  0.64778300  0.62267800  1
  O  O3  1  0.64700900  0.64700900  0.10444300  1
  O  O4  1  0.39790700  0.71978600  0.15684000  1
  O  O5  1  0.40121600  0.72246200  0.65759600  1
  O  O6  1  0.35149500  0.48970100  0.47710900  1
  O  O7  1  0.36158300  0.49067100  0.97472800  1
  O  O8  1  0.49067100  0.36158300  0.97472800  1
  O  O9  1  0.48970100  0.35149500  0.47710900  1
  O  O10  1  0.01325100  0.63954500  0.52422900  1
  O  O11  1  0.01226000  0.63939300  0.02423100  1
  O  O12  1  0.13994600  0.51011300  0.02414800  1
  O  O13  1  0.14170000  0.50939200  0.52552200  1
  O  O14  1  0.28106800  0.09881400  0.34347400  1
  O  O15  1  0.28130300  0.09847600  0.84170500  1
  O  O16  1  0.09881400  0.28106800  0.34347400  1
  O  O17  1  0.09847600  0.28130300  0.84170500  1
  O  O18  1  0.14082900  0.14082900  0.11690400  1
  O  O19  1  0.14144300  0.14144300  0.61681100  1
  O  O20  1  0.86311300  0.36051800  0.38149200  1
  O  O21  1  0.85869400  0.35926600  0.88334700  1
  O  O22  1  0.90226300  0.22399600  0.65627300  1
  O  O23  1  0.89880400  0.21978800  0.15736300  1
  O  O24  1  0.71978600  0.39790700  0.15684000  1
  O  O25  1  0.72246200  0.40121600  0.65759600  1
  O  O26  1  0.85900100  0.99084800  0.47651100  1
  O  O27  1  0.86064000  0.98990500  0.97470600  1
  O  O28  1  0.99084800  0.85900100  0.47651100  1
  O  O29  1  0.98990500  0.86064000  0.97470600  1
  O  O30  1  0.51011300  0.13994600  0.02414800  1
  O  O31  1  0.50939200  0.14170000  0.52552200  1
  O  O32  1  0.63939300  0.01226000  0.02423100  1
  O  O33  1  0.63954500  0.01325100  0.52422900  1
  O  O34  1  0.59620100  0.78054200  0.84318100  1
  O  O35  1  0.59605400  0.77959800  0.34366800  1
  O  O36  1  0.36051800  0.86311300  0.38149200  1
  O  O37  1  0.35926600  0.85869400  0.88334700  1
  O  O38  1  0.22399600  0.90226300  0.65627300  1
  O  O39  1  0.21978800  0.89880400  0.15736300  1
loop_
_geom_bond_atom_site_label_1
_geom_bond_atom_site_label_2
_geom_bond_distance
_geom_bond_site_symmetry_2
Mg0 O9 2.040946 1_555
Mg0 O6 2.040946 1_555
Mg0 O3 2.108651 1_555
Mg0 O2 2.118803 1_555
Mg0 O1 2.175172 1_555
Mg0 O35 2.175172 1_555
O0 Ti1 1.990084 1_555
O0 Ti0 1.992789 1_556
O0 Ti14 2.168336 1_555
O0 Ti2 2.176278 1_555
O1 Ti1 1.962476 1_555
O1 Ti0 1.963443 1_555
O1 Ti13 2.165514 1_555
O2 Ti2 1.981142 1_555
O2 Ti1 2.149113 1_555
O2 Ti18 2.149113 1_555
O3 Ti2 1.970076 1_554
O3 Ti0 2.146290 1_555
O3 Ti17 2.146290 1_555
O4 Ti3 1.964802 1_554
O4 Ti4 1.973531 1_555
O4 Ti20 2.144229 1_555
O4 Ti17 2.225277 1_555
O5 Ti3 1.973907 1_555
O5 Ti4 1.984590 1_555
O5 Ti19 2.129382 1_555
O5 Ti18 2.190848 1_555
O6 Ti6 1.841523 1_555
O6 Ti4 1.944869 1_555
O7 Ti5 1.938597 1_556
O7 Ti2 1.950733 1_555
O7 Ti3 1.972663 1_555
O8 Ti8 1.938597 1_556
O8 Ti2 1.950733 1_555
O8 Ti14 1.972663 1_555
O9 Ti7 1.841523 1_555
O9 Ti13 1.944869 1_555
O10 Ti22 1.893796 1_555
O10 Ti9 1.919704 1_455
O10 Ti1 2.006143 1_455
O11 Ti21 1.907063 1_554
O11 Ti10 1.923642 1_455
O11 Ti0 2.002501 1_455
O12 Ti3 1.923257 1_554
O12 Ti10 1.950972 1_455
O12 Ti5 1.972847 1_555
O13 Ti4 1.922855 1_555
O13 Ti9 1.974761 1_455
O13 Ti6 1.991056 1_555
O14 Ti7 1.964527 1_555
O14 Ti8 1.983459 1_555
O14 Ti12 2.181476 1_555
O14 Ti22 2.229882 1_545
O15 Ti7 1.968409 1_555
O15 Ti8 1.977119 1_556
O15 Ti11 2.184570 1_555
O15 Ti21 2.207570 1_545
O16 Ti6 1.964527 1_555
O16 Ti5 1.983459 1_555
O16 Ti12 2.181476 1_555
O16 Ti15 2.229882 1_455
O17 Ti6 1.968409 1_555
O17 Ti5 1.977119 1_556
O17 Ti11 2.184570 1_555
O17 Ti16 2.207570 1_455
O18 Ti11 2.018303 1_554
O18 Ti12 2.018723 1_555
O18 Ti5 2.173317 1_555
O18 Ti8 2.173317 1_555
O19 Ti11 2.037285 1_555
O19 Ti12 2.041769 1_555
O19 Ti6 2.132941 1_555
O19 Ti7 2.132941 1_555
O20 Ti10 2.022006 1_555
O20 Ti9 2.029762 1_555
O20 Ti15 2.135630 1_555
O20 Ti13 2.179785 1_555
O21 Ti9 2.022856 1_555
O21 Ti10 2.024417 1_556
O21 Ti14 2.169628 1_555
O21 Ti16 2.178427 1_555
O22 Ti16 1.987069 1_555
O22 Ti15 1.992901 1_555
O22 Ti9 2.144711 1_555
O22 Ti6 2.220580 1_655
O23 Ti16 1.973327 1_554
O23 Ti15 1.976071 1_555
O23 Ti10 2.168102 1_555
O23 Ti5 2.216700 1_655
O24 Ti14 1.964802 1_554
O24 Ti13 1.973531 1_555
O24 Ti10 2.144229 1_555
O24 Ti0 2.225277 1_555
O25 Ti14 1.973907 1_555
O25 Ti13 1.984590 1_555
O25 Ti9 2.129382 1_555
O25 Ti1 2.190848 1_555
O26 Ti18 1.924353 1_555
O26 Ti12 1.958005 1_665
O26 Ti15 1.983769 1_565
O27 Ti17 1.931007 1_556
O27 Ti11 1.939846 1_665
O27 Ti16 1.976916 1_565
O28 Ti1 1.924353 1_555
O28 Ti12 1.958005 1_665
O28 Ti22 1.983769 1_655
O29 Ti0 1.931007 1_556
O29 Ti11 1.939846 1_665
O29 Ti21 1.976916 1_655
O30 Ti14 1.923257 1_554
O30 Ti20 1.950972 1_545
O30 Ti8 1.972847 1_555
O31 Ti13 1.922855 1_555
O31 Ti19 1.974761 1_545
O31 Ti7 1.991056 1_555
O32 Ti16 1.907063 1_554
O32 Ti20 1.923642 1_545
O32 Ti17 2.002501 1_545
O33 Ti15 1.893796 1_555
O33 Ti19 1.919704 1_545
O33 Ti18 2.006143 1_545
O34 Ti18 1.990084 1_555
O34 Ti17 1.992789 1_556
O34 Ti3 2.168336 1_555
O34 Ti2 2.176278 1_555
O35 Ti18 1.962476 1_555
O35 Ti17 1.963443 1_555
O35 Ti4 2.165514 1_555
O36 Ti20 2.022006 1_555
O36 Ti19 2.029762 1_555
O36 Ti22 2.135630 1_555
O36 Ti4 2.179785 1_555
O37 Ti19 2.022856 1_555
O37 Ti20 2.024417 1_556
O37 Ti3 2.169628 1_555
O37 Ti21 2.178427 1_555
O38 Ti21 1.987069 1_555
O38 Ti22 1.992901 1_555
O38 Ti19 2.144711 1_555
O38 Ti7 2.220580 1_565
O39 Ti21 1.973327 1_554
O39 Ti22 1.976071 1_555
O39 Ti20 2.168102 1_555
O39 Ti8 2.216700 1_565
