# generated using pymatgen
data_Li2FeP2O7
_symmetry_space_group_name_H-M   'P 1'
_cell_length_a   7.00839906
_cell_length_b   13.10565708
_cell_length_c   6.93338901
_cell_angle_alpha   89.99967460
_cell_angle_beta   89.99419506
_cell_angle_gamma   89.98696145
_symmetry_Int_Tables_number   1
_chemical_formula_structural   Li2FeP2O7
_chemical_formula_sum   'Li8 Fe4 P8 O28'
_cell_volume   636.82950543
_cell_formula_units_Z   4
loop_
 _symmetry_equiv_pos_site_id
 _symmetry_equiv_pos_as_xyz
  1  'x, y, z'
loop_
 _atom_site_type_symbol
 _atom_site_label
 _atom_site_symmetry_multiplicity
 _atom_site_fract_x
 _atom_site_fract_y
 _atom_site_fract_z
 _atom_site_occupancy
  Li  Li0  1  0.99994600  0.23176700  0.99986200  1
  Li  Li1  1  0.49993000  0.73191800  0.50016200  1
  Li  Li2  1  0.49992400  0.26818400  0.00001500  1
  Li  Li3  1  0.99984700  0.76814600  0.49984500  1
  Li  Li4  1  0.99991100  0.76807400  0.99982000  1
  Li  Li5  1  0.49987500  0.26815300  0.50019600  1
  Li  Li6  1  0.49998200  0.73191300  0.00004400  1
  Li  Li7  1  0.99988400  0.23193100  0.49985000  1
  Fe  Fe0  1  0.49991000  0.50000300  0.49964200  1
  Fe  Fe1  1  0.50031800  0.50018000  0.00037800  1
  Fe  Fe2  1  0.99996500  0.99984200  0.99992100  1
  Fe  Fe3  1  0.00014700  0.00006200  0.49997900  1
  P  P0  1  0.81164500  0.38948500  0.74997100  1
  P  P1  1  0.31189800  0.88963700  0.25006500  1
  P  P2  1  0.18835000  0.38958800  0.24981100  1
  P  P3  1  0.68825300  0.88953800  0.74999700  1
  P  P4  1  0.81162000  0.61027800  0.74994600  1
  P  P5  1  0.31166900  0.11051800  0.24989400  1
  P  P6  1  0.18830700  0.61039400  0.24994500  1
  P  P7  1  0.68824600  0.11044900  0.75011500  1
  O  O0  1  0.91866100  0.49993200  0.74988500  1
  O  O1  1  0.41874000  0.00006400  0.25003700  1
  O  O2  1  0.08129300  0.50002500  0.24982000  1
  O  O3  1  0.58131000  0.99998600  0.74998200  1
  O  O4  1  0.03573100  0.30820700  0.24992000  1
  O  O5  1  0.53579500  0.80804300  0.75013000  1
  O  O6  1  0.96421000  0.30806600  0.74986000  1
  O  O7  1  0.46458400  0.80824900  0.25035300  1
  O  O8  1  0.03587500  0.69191100  0.25012300  1
  O  O9  1  0.53562100  0.19186300  0.75036100  1
  O  O10  1  0.96403500  0.69175000  0.75011900  1
  O  O11  1  0.46426600  0.19190000  0.24998600  1
  O  O12  1  0.18496300  0.11273300  0.06648100  1
  O  O13  1  0.68496900  0.61272700  0.56650500  1
  O  O14  1  0.81505900  0.11265200  0.93350600  1
  O  O15  1  0.31503100  0.61268000  0.43342200  1
  O  O16  1  0.68507500  0.38724100  0.93350400  1
  O  O17  1  0.18498200  0.88732900  0.43343100  1
  O  O18  1  0.31517300  0.38731900  0.06649500  1
  O  O19  1  0.81504100  0.88718900  0.56658600  1
  O  O20  1  0.31502600  0.61282500  0.06651400  1
  O  O21  1  0.81495800  0.11276500  0.56663700  1
  O  O22  1  0.68502300  0.61278100  0.93347500  1
  O  O23  1  0.18499500  0.11283900  0.43342800  1
  O  O24  1  0.18517200  0.88724000  0.06656300  1
  O  O25  1  0.68487000  0.38717000  0.56657800  1
  O  O26  1  0.81495400  0.88721200  0.93350200  1
  O  O27  1  0.31496400  0.38724600  0.43334100  1
loop_
_geom_bond_atom_site_label_1
_geom_bond_atom_site_label_2
_geom_bond_distance
_geom_bond_site_symmetry_2
Li0 O6 2.016710 1_555
Li0 O4 2.018069 1_656
Li0 O12 2.080279 1_656
Li0 O14 2.080550 1_555
Li1 O7 2.015430 1_555
Li1 O5 2.015556 1_555
Li1 O13 2.081494 1_555
Li1 O15 2.082402 1_555
Li2 O9 2.014712 1_554
Li2 O11 2.016373 1_555
Li2 O18 2.079843 1_555
Li2 O16 2.081308 1_554
Li3 O8 2.014847 1_655
Li3 O10 2.019040 1_555
Li3 O19 2.079580 1_555
Li3 O17 2.082328 1_655
Li4 O10 2.015268 1_555
Li4 O8 2.017820 1_656
Li4 O26 2.080577 1_555
Li4 O24 2.083279 1_656
Li5 O11 2.017607 1_555
Li5 O9 2.017631 1_555
Li5 O25 2.080098 1_555
Li5 O27 2.080760 1_555
Li6 O5 2.015168 1_554
Li6 O7 2.018454 1_555
Li6 O20 2.080698 1_555
Li6 O22 2.081215 1_554
Li7 O6 2.015605 1_555
Li7 O4 2.016241 1_655
Li7 O23 2.080902 1_655
Li7 O21 2.081822 1_555
Fe0 O15 2.017314 1_555
Fe0 O27 2.018946 1_555
Fe0 O13 2.020030 1_555
Fe0 O25 2.020310 1_555
Fe1 O22 2.017257 1_554
Fe1 O20 2.018679 1_555
Fe1 O16 2.020260 1_554
Fe1 O18 2.020487 1_555
Fe2 O26 2.018208 1_555
Fe2 O24 2.018740 1_656
Fe2 O14 2.019020 1_565
Fe2 O12 2.020876 1_666
Fe3 O17 2.018116 1_545
Fe3 O23 2.019029 1_555
Fe3 O21 2.019596 1_455
Fe3 O19 2.021200 1_445
O0 P4 1.629004 1_555
O0 P0 1.630402 1_555
O1 P1 1.629608 1_545
O1 P5 1.630358 1_555
O2 P6 1.629488 1_555
O2 P2 1.630115 1_555
O3 P3 1.629875 1_555
O3 P7 1.630330 1_565
O4 P2 1.510671 1_555
O5 P3 1.510928 1_555
O6 P0 1.510411 1_555
O7 P1 1.510726 1_555
O8 P6 1.510660 1_555
O9 P7 1.510663 1_555
O10 P4 1.510502 1_555
O11 P5 1.510571 1_555
O12 P5 1.551376 1_555
O13 P4 1.551375 1_555
O14 P7 1.551686 1_555
O15 P6 1.551838 1_555
O16 P0 1.551381 1_555
O17 P1 1.551836 1_555
O18 P2 1.551161 1_555
O19 P3 1.551580 1_555
O20 P6 1.551447 1_555
O21 P7 1.551655 1_555
O22 P4 1.551526 1_555
O23 P5 1.551815 1_555
O24 P1 1.552017 1_555
O25 P0 1.551573 1_555
O26 P3 1.551907 1_555
O27 P2 1.551704 1_555
