# generated using pymatgen
data_Li3V3(BO5)2
_symmetry_space_group_name_H-M   'P 1'
_cell_length_a   3.03396300
_cell_length_b   9.26259169
_cell_length_c   12.26353828
_cell_angle_alpha   89.84739896
_cell_angle_beta   89.91617417
_cell_angle_gamma   89.58353669
_symmetry_Int_Tables_number   1
_chemical_formula_structural   Li3V3(BO5)2
_chemical_formula_sum   'Li6 V6 B4 O20'
_cell_volume   344.62368763
_cell_formula_units_Z   2
loop_
 _symmetry_equiv_pos_site_id
 _symmetry_equiv_pos_as_xyz
  1  'x, y, z'
loop_
 _atom_site_type_symbol
 _atom_site_label
 _atom_site_symmetry_multiplicity
 _atom_site_fract_x
 _atom_site_fract_y
 _atom_site_fract_z
 _atom_site_occupancy
  Li  Li0  1  0.00059900  0.02377700  0.99457700  1
  Li  Li1  1  0.49923300  0.98828500  0.50968800  1
  Li  Li2  1  0.49992100  0.23295000  0.09883300  1
  Li  Li3  1  0.00046500  0.49814500  0.50431500  1
  Li  Li4  1  0.49954900  0.49047700  0.00059600  1
  Li  Li5  1  0.00177100  0.99047800  0.71205500  1
  V  V0  1  0.00025800  0.00988300  0.28186800  1
  V  V1  1  0.51502900  0.24734000  0.61532900  1
  V  V2  1  0.99741400  0.49814100  0.78466400  1
  V  V3  1  0.99930600  0.49143400  0.21132700  1
  V  V4  1  0.49917300  0.73624100  0.39266000  1
  V  V5  1  0.47719100  0.76636000  0.88963400  1
  B  B0  1  0.49941600  0.22420900  0.85779600  1
  B  B1  1  0.49823200  0.28002300  0.36589800  1
  B  B2  1  0.50069100  0.73106000  0.63592600  1
  B  B3  1  0.50237900  0.77469700  0.13903100  1
  O  O0  1  0.99993100  0.09096700  0.15816600  1
  O  O1  1  0.99200100  0.13383300  0.57365100  1
  O  O2  1  0.49840600  0.12717900  0.35094400  1
  O  O3  1  0.49642700  0.15588200  0.75676900  1
  O  O4  1  0.50064800  0.15346300  0.95240100  1
  O  O5  1  0.49701900  0.34271200  0.46431800  1
  O  O6  1  0.50054500  0.36556800  0.27092200  1
  O  O7  1  0.49731700  0.38087000  0.85359200  1
  O  O8  1  0.00059600  0.39669800  0.08946300  1
  O  O9  1  0.00438600  0.38537700  0.65145200  1
  O  O10  1  0.99939400  0.60768700  0.34211600  1
  O  O11  1  0.98923500  0.62246500  0.92061100  1
  O  O12  1  0.49822100  0.62414200  0.15166600  1
  O  O13  1  0.49659100  0.64705400  0.73831700  1
  O  O14  1  0.49806400  0.64823600  0.54076500  1
  O  O15  1  0.51272500  0.84063800  0.04140800  1
  O  O16  1  0.50136900  0.85713100  0.23764900  1
  O  O17  1  0.50475300  0.87380700  0.64216400  1
  O  O18  1  0.00028800  0.88395700  0.41342100  1
  O  O19  1  0.02145700  0.87883300  0.85600900  1
loop_
_geom_bond_atom_site_label_1
_geom_bond_atom_site_label_2
_geom_bond_distance
_geom_bond_site_symmetry_2
Li0 O4 1.995934 1_455
Li0 O4 2.008244 1_555
Li0 O0 2.102072 1_456
Li0 O19 2.169056 1_545
Li0 O15 2.329636 1_446
Li0 O15 2.362355 1_546
Li1 O17 1.937705 1_555
Li1 O18 2.148955 1_655
Li1 O18 2.156777 1_555
Li1 O1 2.169407 1_565
Li1 O1 2.184729 1_465
Li1 O2 2.330590 1_565
Li2 O4 1.942650 1_554
Li2 O0 2.128256 1_555
Li2 O8 2.138897 1_555
Li2 O0 2.140288 1_455
Li2 O8 2.157123 1_655
Li2 O6 2.444722 1_555
Li3 O9 2.082534 1_555
Li3 O14 2.103915 1_455
Li3 O14 2.108919 1_555
Li3 O5 2.133789 1_555
Li3 O5 2.164336 1_455
Li3 O10 2.230557 1_455
Li4 O8 2.057604 1_655
Li4 O8 2.059878 1_555
Li4 O7 2.071401 1_554
Li4 O11 2.163289 1_554
Li4 O11 2.196471 1_454
Li4 O12 2.230990 1_555
Li5 O19 2.044321 1_555
Li5 O17 2.051438 1_555
Li5 O17 2.051529 1_455
Li5 O1 2.152326 1_465
Li5 O3 2.222733 1_565
Li5 O3 2.228561 1_465
B0 O4 1.330937 1_555
B0 O3 1.392807 1_555
B0 O7 1.451833 1_555
B1 O5 1.340771 1_555
B1 O6 1.407004 1_555
B1 O2 1.428040 1_555
B2 O17 1.324770 1_555
B2 O14 1.398358 1_555
B2 O13 1.475543 1_555
B3 O15 1.342986 1_555
B3 O12 1.402847 1_555
B3 O16 1.431977 1_555
O0 V0 1.690965 1_655
O1 V1 1.854547 1_555
O1 V1 1.978432 1_655
O2 V0 2.047780 1_655
O2 V0 2.052985 1_555
O3 V1 1.929272 1_555
O5 V1 2.050339 1_555
O6 V3 2.044241 1_455
O6 V3 2.049645 1_555
O7 V2 2.041981 1_455
O7 V2 2.052286 1_555
O8 V3 1.735057 1_455
O9 V2 1.941361 1_455
O9 V1 2.016893 1_455
O9 V1 2.050236 1_555
O10 V3 1.934250 1_555
O10 V4 2.019965 1_555
O10 V4 2.033276 1_655
O11 V2 2.028775 1_555
O11 V5 2.033919 1_655
O11 V5 2.074401 1_555
O12 V3 2.080584 1_555
O12 V3 2.087241 1_455
O13 V2 2.121857 1_555
O13 V2 2.131411 1_455
O13 V5 2.162842 1_555
O14 V4 1.988853 1_555
O15 V5 1.989434 1_554
O16 V0 2.139586 1_565
O16 V0 2.150486 1_665
O16 V4 2.203716 1_555
O18 V0 1.988271 1_565
O18 V4 2.049021 1_555
O18 V4 2.069208 1_455
O19 V5 1.773588 1_555
O19 V5 2.000708 1_455
