# generated using pymatgen
data_Li3Mn2Fe(BO3)4
_symmetry_space_group_name_H-M   'P 1'
_cell_length_a   9.18246500
_cell_length_b   5.22890300
_cell_length_c   9.69860248
_cell_angle_alpha   85.34907865
_cell_angle_beta   90.00000000
_cell_angle_gamma   90.00000000
_symmetry_Int_Tables_number   1
_chemical_formula_structural   Li3Mn2Fe(BO3)4
_chemical_formula_sum   'Li6 Mn4 Fe2 B8 O24'
_cell_volume   464.13746427
_cell_formula_units_Z   2
loop_
 _symmetry_equiv_pos_site_id
 _symmetry_equiv_pos_as_xyz
  1  'x, y, z'
loop_
 _atom_site_type_symbol
 _atom_site_label
 _atom_site_symmetry_multiplicity
 _atom_site_fract_x
 _atom_site_fract_y
 _atom_site_fract_z
 _atom_site_occupancy
  Li  Li0  1  0.22698100  0.83848300  0.65382400  1
  Li  Li1  1  0.23876200  0.80039800  0.11715900  1
  Li  Li2  1  0.73202400  0.66710700  0.83293200  1
  Li  Li3  1  0.76123800  0.30039800  0.61715900  1
  Li  Li4  1  0.77301900  0.33848300  0.15382400  1
  Li  Li5  1  0.26797600  0.16710700  0.33293200  1
  Mn  Mn0  1  0.55795000  0.85598300  0.11951400  1
  Mn  Mn1  1  0.07491200  0.64715800  0.37549900  1
  Mn  Mn2  1  0.44205000  0.35598300  0.61951400  1
  Mn  Mn3  1  0.92508800  0.14715800  0.87549900  1
  Fe  Fe0  1  0.73695700  0.68145200  0.38883500  1
  Fe  Fe1  1  0.26304300  0.18145200  0.88883500  1
  B  B0  1  0.55810800  0.82822400  0.60745000  1
  B  B1  1  0.90646200  0.84317100  0.13972000  1
  B  B2  1  0.06832000  0.67433000  0.88901100  1
  B  B3  1  0.40188500  0.65888900  0.36727100  1
  B  B4  1  0.09353800  0.34317100  0.63972000  1
  B  B5  1  0.44189200  0.32822400  0.10745000  1
  B  B6  1  0.59811500  0.15888900  0.86727100  1
  B  B7  1  0.93168000  0.17433000  0.38901100  1
  O  O0  1  0.60008200  0.90765500  0.92459200  1
  O  O1  1  0.90739700  0.90974600  0.40264700  1
  O  O2  1  0.18708200  0.83735200  0.89653900  1
  O  O3  1  0.27873000  0.80055500  0.34210500  1
  O  O4  1  0.93074900  0.76727600  0.86591400  1
  O  O5  1  0.53738300  0.77280800  0.32465200  1
  O  O6  1  0.42272500  0.72511900  0.63573100  1
  O  O7  1  0.03832000  0.73324800  0.18026100  1
  O  O8  1  0.77584700  0.71445800  0.17549100  1
  O  O9  1  0.67333700  0.66051100  0.58413000  1
  O  O10  1  0.10017400  0.58653300  0.57128300  1
  O  O11  1  0.41599500  0.58608900  0.10211800  1
  O  O12  1  0.09260300  0.40974600  0.90264700  1
  O  O13  1  0.39991800  0.40765500  0.42459200  1
  O  O14  1  0.72127000  0.30055500  0.84210500  1
  O  O15  1  0.46261700  0.27280800  0.82465200  1
  O  O16  1  0.81291800  0.33735200  0.39653900  1
  O  O17  1  0.06925100  0.26727600  0.36591400  1
  O  O18  1  0.96168000  0.23324800  0.68026100  1
  O  O19  1  0.22415300  0.21445800  0.67549100  1
  O  O20  1  0.57727500  0.22511900  0.13573100  1
  O  O21  1  0.32666300  0.16051100  0.08413000  1
  O  O22  1  0.58400500  0.08608900  0.60211800  1
  O  O23  1  0.89982600  0.08653300  0.07128300  1
loop_
_geom_bond_atom_site_label_1
_geom_bond_atom_site_label_2
_geom_bond_distance
_geom_bond_site_symmetry_2
Li0 O6 1.905184 1_555
Li0 O10 1.975680 1_555
Li0 O19 1.994176 1_565
Li0 O2 2.381870 1_555
Li1 O7 1.962298 1_555
Li1 O11 1.987985 1_555
Li1 O21 2.049868 1_565
Li1 O2 2.184909 1_554
Li1 O3 2.212382 1_555
Li2 O14 1.914058 1_555
Li2 O4 1.932272 1_555
Li2 O0 2.005376 1_555
Li2 O9 2.475442 1_555
Li3 O18 1.962298 1_555
Li3 O22 1.987985 1_555
Li3 O9 2.049868 1_555
Li3 O16 2.184909 1_555
Li3 O14 2.212382 1_555
Li4 O20 1.905184 1_555
Li4 O23 1.975680 1_555
Li4 O8 1.994176 1_555
Li4 O16 2.381870 1_555
Li5 O3 1.914058 1_545
Li5 O17 1.932272 1_555
Li5 O13 2.005376 1_555
Li5 O21 2.475442 1_555
Mn0 O0 1.927102 1_554
Mn0 O11 1.938507 1_555
Mn0 O20 1.957304 1_565
Mn0 O5 2.010674 1_555
Mn0 O8 2.186445 1_555
Mn1 O10 1.913699 1_555
Mn1 O7 1.939790 1_555
Mn1 O17 1.996732 1_555
Mn1 O3 2.051544 1_555
Mn1 O1 2.092671 1_455
Mn2 O13 1.927102 1_555
Mn2 O22 1.938507 1_555
Mn2 O6 1.957304 1_555
Mn2 O15 2.010674 1_555
Mn2 O19 2.186445 1_555
Mn3 O23 1.913699 1_556
Mn3 O18 1.939790 1_555
Mn3 O4 1.996732 1_545
Mn3 O14 2.051544 1_555
Mn3 O12 2.092671 1_655
Fe0 O16 1.925528 1_555
Fe0 O9 1.976665 1_555
Fe0 O1 1.979463 1_555
Fe0 O5 1.981366 1_555
Fe0 O8 2.093020 1_555
Fe1 O2 1.925528 1_545
Fe1 O21 1.976665 1_556
Fe1 O12 1.979463 1_555
Fe1 O15 1.981366 1_555
Fe1 O19 2.093020 1_555
B0 O22 1.366003 1_565
B0 O6 1.373801 1_555
B0 O9 1.404249 1_555
B1 O7 1.383586 1_655
B1 O23 1.388018 1_565
B1 O8 1.404971 1_555
B2 O4 1.365468 1_455
B2 O2 1.389714 1_555
B2 O12 1.396985 1_555
B3 O3 1.363024 1_555
B3 O13 1.384451 1_555
B3 O5 1.426113 1_555
B4 O18 1.383586 1_455
B4 O10 1.388018 1_555
B4 O19 1.404971 1_555
B5 O11 1.366003 1_555
B5 O20 1.373801 1_555
B5 O21 1.404249 1_555
B6 O14 1.363024 1_555
B6 O0 1.384451 1_545
B6 O15 1.426113 1_555
B7 O17 1.365468 1_655
B7 O16 1.389714 1_555
B7 O1 1.396985 1_545
