# generated using pymatgen
data_Co3Ni(PO4)4
_symmetry_space_group_name_H-M   'P 1'
_cell_length_a   5.83091500
_cell_length_b   4.78444200
_cell_length_c   9.90994847
_cell_angle_alpha   89.27357497
_cell_angle_beta   90.00000000
_cell_angle_gamma   90.00000000
_symmetry_Int_Tables_number   1
_chemical_formula_structural   Co3Ni(PO4)4
_chemical_formula_sum   'Co3 Ni1 P4 O16'
_cell_volume   276.44229830
_cell_formula_units_Z   1
loop_
 _symmetry_equiv_pos_site_id
 _symmetry_equiv_pos_as_xyz
  1  'x, y, z'
loop_
 _atom_site_type_symbol
 _atom_site_label
 _atom_site_symmetry_multiplicity
 _atom_site_fract_x
 _atom_site_fract_y
 _atom_site_fract_z
 _atom_site_occupancy
  Co  Co0  1  0.00000000  0.05538000  0.28111200  1
  Co  Co1  1  0.00000000  0.44615900  0.77776200  1
  Co  Co2  1  0.50000000  0.55386900  0.21983400  1
  Ni  Ni0  1  0.50000000  0.95488500  0.72425000  1
  P  P0  1  0.50000000  0.08602800  0.40497700  1
  P  P1  1  0.50000000  0.41814400  0.90414400  1
  P  P2  1  0.00000000  0.58815700  0.09523600  1
  P  P3  1  0.00000000  0.90440000  0.59745700  1
  O  O0  1  0.50000000  0.16378000  0.55255400  1
  O  O1  1  0.29500900  0.23354700  0.32676300  1
  O  O2  1  0.70499100  0.23354700  0.32676300  1
  O  O3  1  0.00000000  0.22284600  0.61329600  1
  O  O4  1  0.00000000  0.26954700  0.11544700  1
  O  O5  1  0.29198200  0.27634100  0.82958800  1
  O  O6  1  0.70801800  0.27634100  0.82958800  1
  O  O7  1  0.50000000  0.33608700  0.05511800  1
  O  O8  1  0.00000000  0.66626900  0.94556100  1
  O  O9  1  0.79409100  0.73202800  0.17135400  1
  O  O10  1  0.20590900  0.73202800  0.17135400  1
  O  O11  1  0.50000000  0.73527400  0.89170900  1
  O  O12  1  0.50000000  0.76917000  0.38401900  1
  O  O13  1  0.79487900  0.75377200  0.66891400  1
  O  O14  1  0.20512100  0.75377200  0.66891400  1
  O  O15  1  0.00000000  0.83863100  0.44428900  1
loop_
_geom_bond_atom_site_label_1
_geom_bond_atom_site_label_2
_geom_bond_distance
_geom_bond_site_symmetry_2
Co0 O15 1.909929 1_545
Co0 O4 1.924208 1_555
Co0 O1 1.974860 1_555
Co0 O2 1.974860 1_455
Co0 O10 2.249594 1_545
Co0 O9 2.249594 1_445
Co1 O5 1.952411 1_555
Co1 O6 1.952411 1_455
Co1 O3 1.960128 1_555
Co1 O8 1.979545 1_555
Co1 O14 2.172528 1_555
Co1 O13 2.172528 1_455
Co2 O12 1.936733 1_555
Co2 O7 1.947642 1_555
Co2 O9 1.971702 1_555
Co2 O10 1.971702 1_555
Co2 O2 2.204349 1_555
Co2 O1 2.204349 1_555
Ni0 O11 1.952886 1_555
Ni0 O0 1.962363 1_565
Ni0 O13 2.048496 1_555
Ni0 O14 2.048496 1_555
Ni0 O6 2.228686 1_565
Ni0 O5 2.228686 1_565
O0 P0 1.513614 1_555
O1 P0 1.585484 1_555
O2 P0 1.585484 1_555
O3 P3 1.533629 1_545
O4 P2 1.534953 1_555
O5 P1 1.578008 1_555
O6 P1 1.578008 1_555
O7 P1 1.541975 1_554
O8 P2 1.525027 1_556
O9 P2 1.580354 1_655
O10 P2 1.580354 1_555
O11 P1 1.520728 1_555
O12 P0 1.532756 1_565
O13 P3 1.561538 1_655
O14 P3 1.561538 1_555
O15 P3 1.554062 1_555
