# generated using pymatgen
data_Li5Mn3Cr2O10
_symmetry_space_group_name_H-M   'P 1'
_cell_length_a   5.20124500
_cell_length_b   5.21127801
_cell_length_c   7.78003593
_cell_angle_alpha   103.64218749
_cell_angle_beta   108.13580044
_cell_angle_gamma   99.65085892
_symmetry_Int_Tables_number   1
_chemical_formula_structural   Li5Mn3Cr2O10
_chemical_formula_sum   'Li5 Mn3 Cr2 O10'
_cell_volume   187.99735691
_cell_formula_units_Z   1
loop_
 _symmetry_equiv_pos_site_id
 _symmetry_equiv_pos_as_xyz
  1  'x, y, z'
loop_
 _atom_site_type_symbol
 _atom_site_label
 _atom_site_symmetry_multiplicity
 _atom_site_fract_x
 _atom_site_fract_y
 _atom_site_fract_z
 _atom_site_occupancy
  Li  Li0  1  0.07645800  0.80394300  0.58281600  1
  Li  Li1  1  0.72525200  0.61044500  0.22426900  1
  Li  Li2  1  0.50163900  0.49841900  0.50000800  1
  Li  Li3  1  0.93002900  0.21323900  0.42170500  1
  Li  Li4  1  0.28080100  0.39177100  0.77832400  1
  Mn  Mn0  1  0.50163900  0.99780600  0.00034300  1
  Mn  Mn1  1  0.10628000  0.30247800  0.10489700  1
  Mn  Mn2  1  0.89639200  0.69315900  0.89489500  1
  Cr  Cr0  1  0.30398900  0.89723300  0.30667000  1
  Cr  Cr1  1  0.69835100  0.09953300  0.69356600  1
  O  O0  1  0.91310300  0.92353300  0.14405200  1
  O  O1  1  0.68498900  0.86680500  0.44988000  1
  O  O2  1  0.28720900  0.67377700  0.04090900  1
  O  O3  1  0.53341300  0.76778800  0.76959000  1
  O  O4  1  0.11585400  0.54672000  0.33616200  1
  O  O5  1  0.88657600  0.44961800  0.66410000  1
  O  O6  1  0.46852000  0.22807600  0.23043000  1
  O  O7  1  0.71607400  0.32151600  0.95957200  1
  O  O8  1  0.31821200  0.13276100  0.55032600  1
  O  O9  1  0.08936800  0.07111300  0.85478500  1
loop_
_geom_bond_atom_site_label_1
_geom_bond_atom_site_label_2
_geom_bond_distance
_geom_bond_site_symmetry_2
Li0 O8 2.064232 1_565
Li0 O1 2.096491 1_455
Li0 O4 2.155175 1_555
Li0 O9 2.216006 1_565
Li0 O5 2.261201 1_455
Li0 O3 2.434163 1_555
Li1 O1 2.031276 1_555
Li1 O4 2.063283 1_655
Li1 O0 2.081262 1_555
Li1 O6 2.224575 1_555
Li1 O7 2.227631 1_554
Li1 O2 2.405361 1_555
Li2 O5 2.106120 1_555
Li2 O4 2.107827 1_555
Li2 O8 2.160883 1_555
Li2 O6 2.170981 1_555
Li2 O3 2.171260 1_555
Li2 O1 2.172073 1_555
Li3 O5 2.094700 1_555
Li3 O8 2.116092 1_655
Li3 O1 2.126238 1_545
Li3 O4 2.186346 1_655
Li3 O0 2.291718 1_545
Li3 O6 2.423888 1_555
Li4 O8 2.044445 1_555
Li4 O5 2.069840 1_455
Li4 O9 2.101765 1_555
Li4 O3 2.196781 1_555
Li4 O2 2.204394 1_556
Li4 O7 2.404581 1_555
Mn0 O6 1.980420 1_565
Mn0 O3 1.980696 1_554
Mn0 O7 2.008025 1_564
Mn0 O2 2.008474 1_555
Mn0 O0 2.229859 1_555
Mn0 O9 2.234613 1_564
Mn1 O4 1.924195 1_555
Mn1 O6 1.982935 1_555
Mn1 O9 1.999770 1_554
Mn1 O7 2.024640 1_454
Mn1 O0 2.193438 1_445
Mn1 O2 2.238960 1_555
Mn2 O5 1.919308 1_555
Mn2 O3 1.986254 1_555
Mn2 O0 1.992184 1_556
Mn2 O2 2.029312 1_656
Mn2 O9 2.192332 1_665
Mn2 O7 2.242373 1_555
Cr0 O8 1.972356 1_565
Cr0 O1 2.001934 1_555
Cr0 O4 2.021114 1_555
Cr0 O0 2.080104 1_455
Cr0 O2 2.087239 1_555
Cr0 O6 2.088167 1_565
Cr1 O1 1.968551 1_545
Cr1 O8 2.003824 1_555
Cr1 O5 2.019296 1_555
Cr1 O9 2.081340 1_655
Cr1 O7 2.084673 1_555
Cr1 O3 2.091785 1_545
