# generated using pymatgen
data_Li2MnF4
_symmetry_space_group_name_H-M   'P 1'
_cell_length_a   8.85788085
_cell_length_b   8.85788085
_cell_length_c   8.85788054
_cell_angle_alpha   21.75570812
_cell_angle_beta   21.75570812
_cell_angle_gamma   21.75571073
_symmetry_Int_Tables_number   1
_chemical_formula_structural   Li2MnF4
_chemical_formula_sum   'Li2 Mn1 F4'
_cell_volume   83.68217905
_cell_formula_units_Z   1
loop_
 _symmetry_equiv_pos_site_id
 _symmetry_equiv_pos_as_xyz
  1  'x, y, z'
loop_
 _atom_site_type_symbol
 _atom_site_label
 _atom_site_symmetry_multiplicity
 _atom_site_fract_x
 _atom_site_fract_y
 _atom_site_fract_z
 _atom_site_occupancy
  Li  Li0  1  0.20402800  0.20402800  0.20402800  1
  Li  Li1  1  0.79597200  0.79597200  0.79597200  1
  Mn  Mn0  1  0.00000000  0.00000000  0.00000000  1
  F  F0  1  0.12598100  0.12598100  0.12598100  1
  F  F1  1  0.62948100  0.62948100  0.62948100  1
  F  F2  1  0.37051900  0.37051900  0.37051900  1
  F  F3  1  0.87401900  0.87401900  0.87401900  1
loop_
_geom_bond_atom_site_label_1
_geom_bond_atom_site_label_2
_geom_bond_distance
_geom_bond_site_symmetry_2
F0 Li1 1.932148 1_445
F0 Li1 1.932148 1_544
F0 Li1 1.932148 1_454
F0 Li0 2.024152 1_555
F1 Mn0 2.157743 1_665
F1 Mn0 2.157743 1_566
F1 Mn0 2.157743 1_656
F2 Mn0 2.157743 1_556
F2 Mn0 2.157743 1_655
F2 Mn0 2.157743 1_565
F3 Li0 1.932148 1_665
F3 Li0 1.932148 1_656
F3 Li0 1.932148 1_566
F3 Li1 2.024152 1_555
