# generated using pymatgen
data_Li2V2F7
_symmetry_space_group_name_H-M   'P 1'
_cell_length_a   5.07378057
_cell_length_b   5.07378057
_cell_length_c   10.44717806
_cell_angle_alpha   82.09052700
_cell_angle_beta   82.09052700
_cell_angle_gamma   82.75101323
_symmetry_Int_Tables_number   1
_chemical_formula_structural   Li2V2F7
_chemical_formula_sum   'Li4 V4 F14'
_cell_volume   262.27033494
_cell_formula_units_Z   2
loop_
 _symmetry_equiv_pos_site_id
 _symmetry_equiv_pos_as_xyz
  1  'x, y, z'
loop_
 _atom_site_type_symbol
 _atom_site_label
 _atom_site_symmetry_multiplicity
 _atom_site_fract_x
 _atom_site_fract_y
 _atom_site_fract_z
 _atom_site_occupancy
  Li  Li0  1  0.25905400  0.65016000  0.48051400  1
  Li  Li1  1  0.34984000  0.74094600  0.01948600  1
  Li  Li2  1  0.65016000  0.25905400  0.98051400  1
  Li  Li3  1  0.74094600  0.34984000  0.51948600  1
  V  V0  1  0.73995400  0.73080300  0.25131300  1
  V  V1  1  0.26919700  0.26004600  0.24868700  1
  V  V2  1  0.73080300  0.73995400  0.75131300  1
  V  V3  1  0.26004600  0.26919700  0.74868700  1
  F  F0  1  0.51813400  0.43704500  0.36945600  1
  F  F1  1  0.50232700  0.99465200  0.12457400  1
  F  F2  1  0.56295500  0.48186600  0.13054400  1
  F  F3  1  0.42575800  0.93984200  0.37079600  1
  F  F4  1  0.04073700  0.95926300  0.75000000  1
  F  F5  1  0.93984200  0.42575800  0.87079600  1
  F  F6  1  0.00534800  0.49767300  0.37542600  1
  F  F7  1  0.99465200  0.50232700  0.62457400  1
  F  F8  1  0.06015800  0.57424200  0.12920400  1
  F  F9  1  0.95926300  0.04073700  0.25000000  1
  F  F10  1  0.57424200  0.06015800  0.62920400  1
  F  F11  1  0.43704500  0.51813400  0.86945600  1
  F  F12  1  0.49767300  0.00534800  0.87542600  1
  F  F13  1  0.48186600  0.56295500  0.63054400  1
loop_
_geom_bond_atom_site_label_1
_geom_bond_atom_site_label_2
_geom_bond_distance
_geom_bond_site_symmetry_2
F0 Li0 1.951959 1_555
F0 Li3 2.025112 1_555
F0 V0 2.132201 1_555
F0 V1 2.242844 1_555
F1 Li2 2.003734 1_564
F1 Li1 2.082060 1_555
F1 V0 2.131461 1_555
F1 V1 2.133084 1_565
F2 Li1 1.951959 1_555
F2 Li2 2.025112 1_554
F2 V1 2.132201 1_555
F2 V0 2.242844 1_555
F3 Li0 1.942366 1_555
F3 V1 2.068979 1_565
F3 V0 2.148122 1_555
F4 V2 2.035354 1_455
F4 V3 2.035354 1_565
F5 Li2 1.942366 1_555
F5 V3 2.068979 1_655
F5 V2 2.148122 1_555
F6 Li3 2.003734 1_455
F6 Li0 2.082060 1_555
F6 V1 2.131461 1_555
F6 V0 2.133084 1_455
F7 Li0 2.003734 1_655
F7 Li3 2.082060 1_555
F7 V2 2.131461 1_555
F7 V3 2.133084 1_655
F8 Li1 1.942366 1_555
F8 V0 2.068979 1_455
F8 V1 2.148122 1_555
F9 V0 2.035354 1_545
F9 V1 2.035354 1_655
F10 Li3 1.942366 1_555
F10 V2 2.068979 1_545
F10 V3 2.148122 1_555
F11 Li2 1.951959 1_555
F11 Li1 2.025112 1_556
F11 V2 2.132201 1_555
F11 V3 2.242844 1_555
F12 Li1 2.003734 1_546
F12 Li2 2.082060 1_555
F12 V3 2.131461 1_555
F12 V2 2.133084 1_545
F13 Li3 1.951959 1_555
F13 Li0 2.025112 1_555
F13 V3 2.132201 1_555
F13 V2 2.242844 1_555
