# generated using pymatgen
data_Li6Ni5(P2O7)4
_symmetry_space_group_name_H-M   'P 1'
_cell_length_a   9.03962500
_cell_length_b   10.51652555
_cell_length_c   12.69642934
_cell_angle_alpha   87.26219038
_cell_angle_beta   106.16127247
_cell_angle_gamma   114.74212430
_symmetry_Int_Tables_number   1
_chemical_formula_structural   Li6Ni5(P2O7)4
_chemical_formula_sum   'Li12 Ni10 P16 O56'
_cell_volume   1049.59832112
_cell_formula_units_Z   2
loop_
 _symmetry_equiv_pos_site_id
 _symmetry_equiv_pos_as_xyz
  1  'x, y, z'
loop_
 _atom_site_type_symbol
 _atom_site_label
 _atom_site_symmetry_multiplicity
 _atom_site_fract_x
 _atom_site_fract_y
 _atom_site_fract_z
 _atom_site_occupancy
  Li  Li0  1  0.86280100  0.40216200  0.16157400  1
  Li  Li1  1  0.18405400  0.99558800  0.27094500  1
  Li  Li2  1  0.10750400  0.14639500  0.04608000  1
  Li  Li3  1  0.50000000  0.50000000  0.00000000  1
  Li  Li4  1  0.13492600  0.59598000  0.33570700  1
  Li  Li5  1  0.12178000  0.15409800  0.54405400  1
  Li  Li6  1  0.87822000  0.84590200  0.45594600  1
  Li  Li7  1  0.81594600  0.00441200  0.72905500  1
  Li  Li8  1  0.50000000  0.50000000  0.50000000  1
  Li  Li9  1  0.86507400  0.40402000  0.66429300  1
  Li  Li10  1  0.89249600  0.85360500  0.95392000  1
  Li  Li11  1  0.13719900  0.59783800  0.83842600  1
  Ni  Ni0  1  0.89841700  0.28518700  0.88878200  1
  Ni  Ni1  1  0.10246800  0.71337300  0.61069100  1
  Ni  Ni2  1  0.50745200  0.24185200  0.93383700  1
  Ni  Ni3  1  0.49806200  0.75968700  0.56731000  1
  Ni  Ni4  1  0.50193800  0.24031300  0.43269000  1
  Ni  Ni5  1  0.18954000  0.99056600  0.76061400  1
  Ni  Ni6  1  0.89753200  0.28662700  0.38930900  1
  Ni  Ni7  1  0.81046000  0.00943400  0.23938600  1
  Ni  Ni8  1  0.49254800  0.75814800  0.06616300  1
  Ni  Ni9  1  0.10158300  0.71481300  0.11121800  1
  P  P0  1  0.54411700  0.18925700  0.68834600  1
  P  P1  1  0.81991500  0.70731600  0.70858100  1
  P  P2  1  0.45588300  0.81074300  0.31165400  1
  P  P3  1  0.80943800  0.70787500  0.20927800  1
  P  P4  1  0.71176700  0.04518200  0.46605200  1
  P  P5  1  0.19852000  0.45299800  0.60274400  1
  P  P6  1  0.19393700  0.45125400  0.10214500  1
  P  P7  1  0.80606300  0.54874600  0.89785500  1
  P  P8  1  0.19056200  0.29212500  0.79072200  1
  P  P9  1  0.28823300  0.95481800  0.53394800  1
  P  P10  1  0.45015000  0.81097400  0.81164600  1
  P  P11  1  0.54985000  0.18902600  0.18835400  1
  P  P12  1  0.18008500  0.29268400  0.29141900  1
  P  P13  1  0.71761300  0.04659300  0.97112200  1
  P  P14  1  0.28238700  0.95340700  0.02887800  1
  P  P15  1  0.80148000  0.54700200  0.39725600  1
  O  O0  1  0.91059600  0.48001500  0.86839400  1
  O  O1  1  0.45238300  0.03413300  0.12405100  1
  O  O2  1  0.92165400  0.68365900  0.46857400  1
  O  O3  1  0.44767700  0.70570700  0.89894900  1
  O  O4  1  0.47139000  0.71192800  0.40142100  1
  O  O5  1  0.89699900  0.85700300  0.26960400  1
  O  O6  1  0.06081700  0.34495100  0.79923100  1
  O  O7  1  0.33593900  0.55012900  0.05693500  1
  O  O8  1  0.27149300  0.78576700  0.25920700  1
  O  O9  1  0.28453200  0.39538500  0.21181300  1
  O  O10  1  0.70151800  0.96544400  0.07375000  1
  O  O11  1  0.32082500  0.30816500  0.90114900  1
  O  O12  1  0.72112500  0.19391500  0.47669000  1
  O  O13  1  0.72218600  0.19409500  0.97915500  1
  O  O14  1  0.52861000  0.28807200  0.59857900  1
  O  O15  1  0.71546800  0.60461500  0.78818700  1
  O  O16  1  0.43951200  0.17373100  0.76900100  1
  O  O17  1  0.86724700  0.05169600  0.93190000  1
  O  O18  1  0.14169600  0.94997600  0.58092100  1
  O  O19  1  0.06465300  0.35960900  0.30428900  1
  O  O20  1  0.27887500  0.80608500  0.52331000  1
  O  O21  1  0.27781400  0.80590500  0.02084500  1
  O  O22  1  0.33659400  0.55035400  0.55353100  1
  O  O23  1  0.26968100  0.80561700  0.76142400  1
  O  O24  1  0.29431200  0.03517400  0.43200200  1
  O  O25  1  0.93918300  0.65504900  0.20076900  1
  O  O26  1  0.93534700  0.64039100  0.69571100  1
  O  O27  1  0.54545400  0.81122800  0.73056200  1
  O  O28  1  0.45454600  0.18877200  0.26943800  1
  O  O29  1  0.92187200  0.68419400  0.97087000  1
  O  O30  1  0.09705200  0.52286200  0.63476200  1
  O  O31  1  0.29340000  0.40146100  0.71305500  1
  O  O32  1  0.66406100  0.44987100  0.94306500  1
  O  O33  1  0.31317800  0.30449500  0.39928800  1
  O  O34  1  0.54761700  0.96586700  0.87594900  1
  O  O35  1  0.53803500  0.96723300  0.37223500  1
  O  O36  1  0.67917500  0.69183500  0.09885100  1
  O  O37  1  0.07812800  0.31580600  0.02913000  1
  O  O38  1  0.08940400  0.51998500  0.13160600  1
  O  O39  1  0.68682200  0.69550500  0.60071200  1
  O  O40  1  0.70568800  0.96482600  0.56799800  1
  O  O41  1  0.72850700  0.21423300  0.74079300  1
  O  O42  1  0.56048800  0.82626900  0.23099900  1
  O  O43  1  0.29848200  0.03455600  0.92625000  1
  O  O44  1  0.13275300  0.94830400  0.06810000  1
  O  O45  1  0.66340600  0.44964600  0.44646900  1
  O  O46  1  0.07834600  0.31634100  0.53142600  1
  O  O47  1  0.70660000  0.59853900  0.28694500  1
  O  O48  1  0.92432900  0.85815600  0.76640800  1
  O  O49  1  0.55232300  0.29429300  0.10105100  1
  O  O50  1  0.10300100  0.14299700  0.73039600  1
  O  O51  1  0.85830400  0.05002400  0.41907900  1
  O  O52  1  0.07567100  0.14184400  0.23359200  1
  O  O53  1  0.73031900  0.19438300  0.23857600  1
  O  O54  1  0.46196500  0.03276700  0.62776500  1
  O  O55  1  0.90294800  0.47713800  0.36523800  1
loop_
_geom_bond_atom_site_label_1
_geom_bond_atom_site_label_2
_geom_bond_distance
_geom_bond_site_symmetry_2
Li0 O38 2.034773 1_655
Li0 O53 2.328505 1_555
Li0 O19 2.361870 1_655
Li0 O49 2.443766 1_555
Li0 O25 2.489044 1_555
Li0 O55 2.621574 1_555
Li1 O24 1.986842 1_565
Li1 O52 2.117463 1_565
Li1 O5 2.381145 1_455
Li1 O28 2.443500 1_565
Li1 O44 2.521805 1_555
Li1 O8 2.659500 1_555
Li2 O37 1.902252 1_555
Li2 O17 2.094027 1_454
Li2 O44 2.185623 1_545
Li2 O52 2.472234 1_555
Li3 O7 2.070641 1_555
Li3 O32 2.070641 1_554
Li3 O36 2.154908 1_555
Li3 O11 2.154908 1_554
Li3 O3 2.608308 1_554
Li3 O49 2.608308 1_555
Li4 O55 2.073422 1_455
Li4 O8 2.206991 1_555
Li4 O19 2.318129 1_555
Li4 O25 2.362802 1_455
Li5 O46 1.894909 1_555
Li5 O18 2.245047 1_545
Li5 O51 2.295279 1_455
Li5 O50 2.412556 1_555
Li6 O2 1.894909 1_555
Li6 O51 2.245047 1_565
Li6 O18 2.295279 1_655
Li6 O5 2.412556 1_555
Li7 O40 1.986842 1_545
Li7 O48 2.117463 1_545
Li7 O50 2.381145 1_655
Li7 O27 2.443500 1_545
Li7 O17 2.521805 1_555
Li7 O41 2.659500 1_555
Li8 O45 2.042617 1_555
Li8 O22 2.042617 1_555
Li8 O39 2.203833 1_555
Li8 O33 2.203833 1_555
Li8 O4 2.576143 1_555
Li8 O14 2.576143 1_555
Li9 O30 2.073422 1_655
Li9 O41 2.206991 1_555
Li9 O26 2.318129 1_555
Li9 O6 2.362802 1_655
Li10 O29 1.902252 1_555
Li10 O44 2.094027 1_656
Li10 O17 2.185623 1_565
Li10 O48 2.472234 1_555
Li11 O0 2.034773 1_455
Li11 O23 2.328505 1_555
Li11 O26 2.361870 1_455
Li11 O3 2.443766 1_555
Li11 O6 2.489044 1_555
Li11 O30 2.621574 1_555
Ni0 O37 1.980772 1_656
Ni0 O6 1.982785 1_655
Ni0 O41 2.003570 1_555
Ni0 O0 2.013343 1_555
Ni0 O13 2.099337 1_555
Ni0 O17 2.405605 1_555
Ni1 O26 1.973480 1_455
Ni1 O30 1.994390 1_555
Ni1 O2 2.002379 1_455
Ni1 O23 2.056196 1_555
Ni1 O20 2.074713 1_555
Ni1 O18 2.388752 1_555
Ni2 O11 2.017942 1_555
Ni2 O32 2.035532 1_555
Ni2 O16 2.080808 1_555
Ni2 O49 2.102645 1_556
Ni2 O13 2.125544 1_555
Ni2 O43 2.191303 1_555
Ni3 O39 2.020112 1_555
Ni3 O27 2.047468 1_555
Ni3 O22 2.052410 1_555
Ni3 O4 2.112691 1_555
Ni3 O20 2.154774 1_555
Ni3 O40 2.186363 1_555
Ni4 O33 2.020112 1_555
Ni4 O28 2.047468 1_555
Ni4 O45 2.052410 1_555
Ni4 O14 2.112691 1_555
Ni4 O12 2.154774 1_555
Ni4 O24 2.186363 1_555
Ni5 O50 2.037839 1_565
Ni5 O43 2.040851 1_565
Ni5 O18 2.227899 1_555
Ni5 O48 2.232925 1_455
Ni5 O16 2.251666 1_565
Ni5 O23 2.341251 1_555
Ni6 O19 1.973480 1_655
Ni6 O55 1.994390 1_555
Ni6 O46 2.002379 1_655
Ni6 O53 2.056196 1_555
Ni6 O12 2.074713 1_555
Ni6 O51 2.388752 1_555
Ni7 O5 2.037839 1_545
Ni7 O10 2.040851 1_545
Ni7 O51 2.227899 1_555
Ni7 O52 2.232925 1_655
Ni7 O42 2.251666 1_545
Ni7 O53 2.341251 1_555
Ni8 O36 2.017942 1_555
Ni8 O7 2.035532 1_555
Ni8 O42 2.080808 1_555
Ni8 O3 2.102645 1_554
Ni8 O21 2.125544 1_555
Ni8 O10 2.191303 1_555
Ni9 O29 1.980772 1_454
Ni9 O25 1.982785 1_455
Ni9 O8 2.003570 1_555
Ni9 O38 2.013343 1_555
Ni9 O21 2.099337 1_555
Ni9 O44 2.405605 1_555
O0 P7 1.532840 1_555
O1 P14 1.585740 1_545
O1 P11 1.619105 1_555
O2 P15 1.528172 1_555
O3 P10 1.526607 1_555
O4 P2 1.522624 1_555
O5 P3 1.552710 1_555
O6 P8 1.522350 1_555
O7 P6 1.514702 1_555
O8 P2 1.524152 1_555
O9 P6 1.626184 1_555
O9 P12 1.628757 1_555
O10 P13 1.530579 1_564
O11 P8 1.522495 1_555
O12 P4 1.541117 1_555
O13 P13 1.541898 1_555
O14 P0 1.522624 1_555
O15 P7 1.626184 1_555
O15 P1 1.628757 1_555
O16 P0 1.537293 1_555
O17 P13 1.546655 1_555
O18 P9 1.579038 1_555
O19 P12 1.526934 1_555
O20 P9 1.541117 1_555
O21 P14 1.541898 1_555
O22 P5 1.516528 1_555
O23 P10 1.555170 1_555
O24 P9 1.512855 1_545
O25 P3 1.522350 1_555
O26 P1 1.526934 1_555
O27 P10 1.514454 1_555
O28 P11 1.514454 1_555
O29 P7 1.523815 1_555
O30 P5 1.531865 1_555
O31 P5 1.624444 1_555
O31 P8 1.632767 1_555
O32 P7 1.514702 1_555
O33 P12 1.520682 1_555
O34 P13 1.585740 1_565
O34 P10 1.619105 1_555
O35 P4 1.591059 1_565
O35 P2 1.622174 1_555
O36 P3 1.522495 1_555
O37 P6 1.523815 1_555
O38 P6 1.532840 1_555
O39 P1 1.520682 1_555
O40 P4 1.512855 1_565
O41 P0 1.524152 1_555
O42 P2 1.537293 1_555
O43 P14 1.530579 1_546
O44 P14 1.546655 1_555
O45 P15 1.516528 1_555
O46 P5 1.528172 1_555
O47 P15 1.624444 1_555
O47 P3 1.632767 1_555
O48 P1 1.555149 1_555
O49 P11 1.526607 1_555
O50 P8 1.552710 1_555
O51 P4 1.579038 1_555
O52 P12 1.555149 1_555
O53 P11 1.555170 1_555
O54 P9 1.591059 1_545
O54 P0 1.622174 1_555
O55 P15 1.531865 1_555
