# generated using pymatgen
data_Li6Cr3Ni(PO4)6
_symmetry_space_group_name_H-M   'P 1'
_cell_length_a   8.47523900
_cell_length_b   8.49502258
_cell_length_c   8.50369897
_cell_angle_alpha   61.91223306
_cell_angle_beta   62.16295732
_cell_angle_gamma   61.96618955
_symmetry_Int_Tables_number   1
_chemical_formula_structural   Li6Cr3Ni(PO4)6
_chemical_formula_sum   'Li6 Cr3 Ni1 P6 O24'
_cell_volume   452.41561599
_cell_formula_units_Z   1
loop_
 _symmetry_equiv_pos_site_id
 _symmetry_equiv_pos_as_xyz
  1  'x, y, z'
loop_
 _atom_site_type_symbol
 _atom_site_label
 _atom_site_symmetry_multiplicity
 _atom_site_fract_x
 _atom_site_fract_y
 _atom_site_fract_z
 _atom_site_occupancy
  Li  Li0  1  0.01650900  0.00292300  0.98441700  1
  Li  Li1  1  0.75425300  0.14579500  0.35282900  1
  Li  Li2  1  0.48396300  0.51189500  0.49559200  1
  Li  Li3  1  0.21625000  0.85213700  0.66078800  1
  Li  Li4  1  0.66236000  0.21315800  0.84894300  1
  Li  Li5  1  0.84831100  0.66365800  0.21329900  1
  Cr  Cr0  1  0.13808200  0.14377000  0.13859900  1
  Cr  Cr1  1  0.36038200  0.36323800  0.35548300  1
  Cr  Cr2  1  0.64181400  0.64474400  0.64508400  1
  Ni  Ni0  1  0.85618500  0.85354600  0.85264200  1
  P  P0  1  0.04980600  0.75008500  0.45204200  1
  P  P1  1  0.44850400  0.05206000  0.75189000  1
  P  P2  1  0.75042200  0.45594300  0.04786900  1
  P  P3  1  0.25230400  0.53877400  0.95983800  1
  P  P4  1  0.54202800  0.96510800  0.25180400  1
  P  P5  1  0.95815400  0.25151600  0.53630900  1
  O  O0  1  0.12482700  0.31275100  0.47927600  1
  O  O1  1  0.33148400  0.48825400  0.11420700  1
  O  O2  1  0.05083200  0.91762500  0.26515400  1
  O  O3  1  0.52219300  0.11854600  0.31741200  1
  O  O4  1  0.24479900  0.59059000  0.41957200  1
  O  O5  1  0.03565900  0.80113500  0.60923300  1
  O  O6  1  0.25713500  0.06801600  0.90945300  1
  O  O7  1  0.43626600  0.24306800  0.58309400  1
  O  O8  1  0.59484700  0.42672500  0.24660300  1
  O  O9  1  0.19568700  0.37939300  0.99021400  1
  O  O10  1  0.08930800  0.72838900  0.95869600  1
  O  O11  1  0.36772500  0.00834000  0.21059900  1
  O  O12  1  0.60897200  0.02832300  0.80612200  1
  O  O13  1  0.90368500  0.25682300  0.06828900  1
  O  O14  1  0.81046100  0.60900300  0.02823600  1
  O  O15  1  0.40257400  0.57375500  0.75950500  1
  O  O16  1  0.57222000  0.76458400  0.40362500  1
  O  O17  1  0.72726500  0.95597800  0.08383800  1
  O  O18  1  0.96707600  0.20123400  0.37955300  1
  O  O19  1  0.76083400  0.40571000  0.57516600  1
  O  O20  1  0.48512900  0.89066600  0.69051600  1
  O  O21  1  0.95716700  0.08584900  0.72487900  1
  O  O22  1  0.68877400  0.49489700  0.88727500  1
  O  O23  1  0.88575800  0.69099000  0.49305600  1
loop_
_geom_bond_atom_site_label_1
_geom_bond_atom_site_label_2
_geom_bond_distance
_geom_bond_site_symmetry_2
Li0 O6 2.094065 1_555
Li0 O21 2.204490 1_455
Li0 O10 2.206644 1_545
Li0 O13 2.224449 1_456
Li0 O2 2.265040 1_546
Li0 O17 2.355658 1_446
Li1 O8 2.101353 1_555
Li1 O13 2.111906 1_555
Li1 O18 2.192934 1_555
Li1 O3 2.249276 1_555
Li1 O2 2.379475 1_645
Li1 O7 2.506396 1_555
Li2 O4 2.125204 1_555
Li2 O8 2.198823 1_555
Li2 O7 2.217896 1_555
Li2 O15 2.261108 1_555
Li2 O16 2.271820 1_555
Li2 O19 2.386702 1_555
Li3 O5 2.037491 1_555
Li3 O15 2.156219 1_555
Li3 O10 2.165708 1_555
Li3 O21 2.205382 1_465
Li3 O20 2.584774 1_555
Li4 O12 2.040316 1_555
Li4 O21 2.144309 1_555
Li4 O19 2.162163 1_555
Li4 O17 2.202908 1_546
Li5 O14 2.023506 1_555
Li5 O17 2.125286 1_555
Li5 O16 2.171141 1_555
Li5 O10 2.228558 1_654
Cr0 O9 1.949866 1_554
Cr0 O11 1.957371 1_555
Cr0 O6 1.990845 1_554
Cr0 O13 2.000369 1_455
Cr0 O18 2.010136 1_455
Cr0 O2 2.010207 1_545
Cr1 O1 1.889568 1_555
Cr1 O0 1.922149 1_555
Cr1 O4 1.923782 1_555
Cr1 O3 1.961080 1_555
Cr1 O7 1.971515 1_555
Cr1 O8 1.978834 1_555
Cr2 O22 1.959855 1_555
Cr2 O23 1.972101 1_555
Cr2 O20 1.987519 1_555
Cr2 O19 2.036106 1_555
Cr2 O15 2.043521 1_555
Cr2 O16 2.049044 1_555
Ni0 O14 1.997687 1_556
Ni0 O12 2.011873 1_565
Ni0 O5 2.021665 1_655
Ni0 O21 2.123090 1_565
Ni0 O17 2.127747 1_556
Ni0 O10 2.152681 1_655
O0 P5 1.521371 1_455
O1 P3 1.542469 1_554
O2 P0 1.555711 1_555
O3 P4 1.558765 1_545
O4 P0 1.569878 1_555
O5 P0 1.528573 1_555
O6 P1 1.542407 1_555
O7 P1 1.578497 1_555
O8 P2 1.577263 1_555
O9 P3 1.515172 1_555
O10 P3 1.552168 1_555
O11 P4 1.514008 1_545
O12 P1 1.530802 1_555
O13 P2 1.564417 1_555
O14 P2 1.521712 1_555
O15 P3 1.570112 1_555
O16 P4 1.569052 1_555
O17 P4 1.551286 1_555
O18 P5 1.541669 1_555
O19 P5 1.566549 1_555
O20 P1 1.539795 1_565
O21 P5 1.557410 1_555
O22 P2 1.525051 1_556
O23 P0 1.531361 1_655
