# generated using pymatgen
data_Ca2Al2FeSi4BO16
_symmetry_space_group_name_H-M   'P 1'
_cell_length_a   7.26528600
_cell_length_b   9.01882458
_cell_length_c   9.19262106
_cell_angle_alpha   88.26797795
_cell_angle_beta   102.43039454
_cell_angle_gamma   98.45434376
_symmetry_Int_Tables_number   1
_chemical_formula_structural   Ca2Al2FeSi4BO16
_chemical_formula_sum   'Ca4 Al4 Fe2 Si8 B2 O32'
_cell_volume   581.82787227
_cell_formula_units_Z   2
loop_
 _symmetry_equiv_pos_site_id
 _symmetry_equiv_pos_as_xyz
  1  'x, y, z'
loop_
 _atom_site_type_symbol
 _atom_site_label
 _atom_site_symmetry_multiplicity
 _atom_site_fract_x
 _atom_site_fract_y
 _atom_site_fract_z
 _atom_site_occupancy
  Ca  Ca0  1  0.24556400  0.60437900  0.33340400  1
  Ca  Ca1  1  0.75443600  0.39562100  0.66659600  1
  Ca  Ca2  1  0.82169500  0.90314000  0.09325500  1
  Ca  Ca3  1  0.17830500  0.09686000  0.90674500  1
  Al  Al0  1  0.94945600  0.74102700  0.81862300  1
  Al  Al1  1  0.05054400  0.25897300  0.18137700  1
  Al  Al2  1  0.65907300  0.58549100  0.94240000  1
  Al  Al3  1  0.34092700  0.41450900  0.05760000  1
  Fe  Fe0  1  0.23256700  0.87832900  0.60117400  1
  Fe  Fe1  1  0.76743300  0.12167100  0.39882600  1
  Si  Si0  1  0.78984600  0.76840100  0.45129900  1
  Si  Si1  1  0.21015400  0.23159900  0.54870100  1
  Si  Si2  1  0.78221300  0.47737000  0.27159700  1
  Si  Si3  1  0.21778700  0.52263000  0.72840300  1
  Si  Si4  1  0.30011900  0.98828900  0.26112900  1
  Si  Si5  1  0.69988100  0.01171100  0.73887100  1
  Si  Si6  1  0.35382600  0.76552500  0.01868000  1
  Si  Si7  1  0.64617400  0.23447500  0.98132000  1
  B  B0  1  0.53626200  0.71202800  0.63364800  1
  B  B1  1  0.46373800  0.28797200  0.36635200  1
  O  O0  1  0.95806000  0.81111100  0.60083400  1
  O  O1  1  0.04194000  0.18888900  0.39916600  1
  O  O2  1  0.76768100  0.91677400  0.34671800  1
  O  O3  1  0.23231900  0.08322600  0.65328200  1
  O  O4  1  0.57968500  0.69585400  0.48494300  1
  O  O5  1  0.42031500  0.30414600  0.51505700  1
  O  O6  1  0.85827500  0.63640300  0.36564300  1
  O  O7  1  0.14172500  0.36359700  0.63435700  1
  O  O8  1  0.98081500  0.43232600  0.25083000  1
  O  O9  1  0.01918500  0.56767400  0.74917000  1
  O  O10  1  0.67861800  0.35071100  0.38217200  1
  O  O11  1  0.32138200  0.64928900  0.61782800  1
  O  O12  1  0.61838100  0.50148600  0.12780700  1
  O  O13  1  0.38161900  0.49851400  0.87219300  1
  O  O14  1  0.47344700  0.12255700  0.34085800  1
  O  O15  1  0.52655300  0.87744300  0.65914200  1
  O  O16  1  0.12040600  0.06058400  0.16496800  1
  O  O17  1  0.87959400  0.93941600  0.83503200  1
  O  O18  1  0.23617000  0.87029800  0.38805300  1
  O  O19  1  0.76383000  0.12970200  0.61194700  1
  O  O20  1  0.38695400  0.90311600  0.14317100  1
  O  O21  1  0.61304600  0.09688400  0.85682900  1
  O  O22  1  0.55791700  0.76152200  0.97853900  1
  O  O23  1  0.44208300  0.23847800  0.02146100  1
  O  O24  1  0.28826000  0.61116900  0.10186700  1
  O  O25  1  0.71174000  0.38883100  0.89813300  1
  O  O26  1  0.20817800  0.82500800  0.86961800  1
  O  O27  1  0.79182200  0.17499200  0.13038200  1
  O  O28  1  0.66920600  0.64449600  0.74083800  1
  O  O29  1  0.33079400  0.35550400  0.25916200  1
  O  O30  1  0.89608800  0.69062200  0.99725800  1
  O  O31  1  0.10391200  0.30937800  0.00274200  1
loop_
_geom_bond_atom_site_label_1
_geom_bond_atom_site_label_2
_geom_bond_distance
_geom_bond_site_symmetry_2
Ca0 O24 2.213813 1_555
Ca0 O8 2.291023 1_455
Ca0 O18 2.478807 1_555
Ca0 O4 2.557083 1_555
Ca0 O29 2.563294 1_555
Ca0 O11 2.584958 1_555
Ca0 O6 2.948160 1_455
Ca1 O25 2.213813 1_555
Ca1 O9 2.291023 1_655
Ca1 O19 2.478807 1_555
Ca1 O5 2.557083 1_555
Ca1 O28 2.563294 1_555
Ca1 O10 2.584958 1_555
Ca1 O7 2.948160 1_655
Ca2 O22 2.215333 1_554
Ca2 O30 2.314444 1_554
Ca2 O16 2.386477 1_665
Ca2 O2 2.454203 1_555
Ca2 O17 2.502222 1_554
Ca2 O27 2.532544 1_565
Ca3 O23 2.215333 1_556
Ca3 O31 2.314444 1_556
Ca3 O17 2.386477 1_445
Ca3 O3 2.454203 1_555
Ca3 O16 2.502222 1_556
Ca3 O26 2.532544 1_545
Al0 O30 1.797419 1_555
Al0 O9 1.881779 1_655
Al0 O26 1.884183 1_655
Al0 O17 1.948860 1_555
Al0 O28 2.074741 1_555
Al0 O0 2.092224 1_555
Al1 O31 1.797419 1_555
Al1 O8 1.881779 1_455
Al1 O27 1.884183 1_455
Al1 O16 1.948860 1_555
Al1 O29 2.074741 1_555
Al1 O1 2.092224 1_555
Al2 O30 1.814802 1_555
Al2 O12 1.907696 1_556
Al2 O22 1.910760 1_555
Al2 O28 1.925976 1_555
Al2 O25 1.941142 1_555
Al2 O13 2.025047 1_555
Al3 O31 1.814802 1_555
Al3 O13 1.907696 1_554
Al3 O23 1.910760 1_555
Al3 O29 1.925976 1_555
Al3 O24 1.941142 1_555
Al3 O12 2.025047 1_555
Fe0 O3 1.923319 1_565
Fe0 O18 1.968598 1_555
Fe0 O0 1.996738 1_455
Fe0 O15 2.088260 1_555
Fe0 O11 2.244347 1_555
Fe0 O26 2.538439 1_555
Fe1 O2 1.923319 1_545
Fe1 O19 1.968598 1_555
Fe1 O1 1.996738 1_655
Fe1 O14 2.088260 1_555
Fe1 O10 2.244347 1_555
Fe1 O27 2.538439 1_555
B0 O28 1.414839 1_555
B0 O4 1.483479 1_555
B0 O15 1.531243 1_555
B0 O11 1.557575 1_555
B1 O29 1.414839 1_555
B1 O5 1.483479 1_555
B1 O14 1.531243 1_555
B1 O10 1.557575 1_555
O0 Si0 1.643743 1_555
O1 Si1 1.643743 1_555
O2 Si0 1.630878 1_555
O3 Si1 1.630878 1_555
O4 Si0 1.659041 1_555
O5 Si1 1.659041 1_555
O6 Si0 1.638169 1_555
O6 Si2 1.657167 1_555
O7 Si1 1.638169 1_555
O7 Si3 1.657167 1_555
O8 Si2 1.605949 1_555
O9 Si3 1.605949 1_555
O10 Si2 1.706149 1_555
O11 Si3 1.706149 1_555
O12 Si2 1.610179 1_555
O13 Si3 1.610179 1_555
O14 Si4 1.672498 1_545
O15 Si5 1.672498 1_565
O16 Si4 1.621696 1_545
O17 Si5 1.621696 1_565
O18 Si4 1.650010 1_555
O19 Si5 1.650010 1_555
O20 Si4 1.628262 1_555
O20 Si6 1.669394 1_555
O21 Si5 1.628262 1_555
O21 Si7 1.669394 1_555
O22 Si6 1.608787 1_556
O23 Si7 1.608787 1_554
O24 Si6 1.627003 1_555
O25 Si7 1.627003 1_555
O26 Si6 1.668360 1_556
O27 Si7 1.668360 1_554
