# generated using pymatgen
data_Li3MnFeCo(PO4)3
_symmetry_space_group_name_H-M   'P 1'
_cell_length_a   10.47267200
_cell_length_b   6.08500400
_cell_length_c   14.29319900
_cell_angle_alpha   90.00000000
_cell_angle_beta   90.00000000
_cell_angle_gamma   90.00000000
_symmetry_Int_Tables_number   1
_chemical_formula_structural   Li3MnFeCo(PO4)3
_chemical_formula_sum   'Li12 Mn4 Fe4 Co4 P12 O48'
_cell_volume   910.85198722
_cell_formula_units_Z   4
loop_
 _symmetry_equiv_pos_site_id
 _symmetry_equiv_pos_as_xyz
  1  'x, y, z'
loop_
 _atom_site_type_symbol
 _atom_site_label
 _atom_site_symmetry_multiplicity
 _atom_site_fract_x
 _atom_site_fract_y
 _atom_site_fract_z
 _atom_site_occupancy
  Li  Li0  1  0.99897000  0.99878500  0.00068500  1
  Li  Li1  1  0.00115600  0.00101300  0.33305000  1
  Li  Li2  1  0.99951600  0.99940400  0.66648800  1
  Li  Li3  1  0.99897000  0.50121500  0.00068500  1
  Li  Li4  1  0.00115600  0.49898700  0.33305000  1
  Li  Li5  1  0.99951600  0.50059600  0.66648800  1
  Li  Li6  1  0.50048400  0.00059600  0.16648800  1
  Li  Li7  1  0.50103000  0.00121500  0.50068500  1
  Li  Li8  1  0.49884400  0.99898700  0.83305000  1
  Li  Li9  1  0.50048400  0.49940400  0.16648800  1
  Li  Li10  1  0.50103000  0.49878500  0.50068500  1
  Li  Li11  1  0.49884400  0.50101300  0.83305000  1
  Mn  Mn0  1  0.21836800  0.75000000  0.49384000  1
  Mn  Mn1  1  0.28163200  0.25000000  0.99384000  1
  Mn  Mn2  1  0.71931600  0.75000000  0.34029100  1
  Mn  Mn3  1  0.78068400  0.25000000  0.84029100  1
  Fe  Fe0  1  0.21990600  0.75000000  0.82518000  1
  Fe  Fe1  1  0.28009400  0.25000000  0.32518000  1
  Fe  Fe2  1  0.71807900  0.75000000  0.67418200  1
  Fe  Fe3  1  0.78192100  0.25000000  0.17418200  1
  Co  Co0  1  0.22056600  0.75000000  0.15888800  1
  Co  Co1  1  0.27943400  0.25000000  0.65888800  1
  Co  Co2  1  0.72156000  0.75000000  0.00698400  1
  Co  Co3  1  0.77844000  0.25000000  0.50698400  1
  P  P0  1  0.09349000  0.25000000  0.14081400  1
  P  P1  1  0.09378200  0.25000000  0.47190300  1
  P  P2  1  0.09560700  0.25000000  0.80521700  1
  P  P3  1  0.40439300  0.75000000  0.30521700  1
  P  P4  1  0.40651000  0.75000000  0.64081400  1
  P  P5  1  0.40621800  0.75000000  0.97190400  1
  P  P6  1  0.59610900  0.25000000  0.02816900  1
  P  P7  1  0.59429700  0.25000000  0.36168000  1
  P  P8  1  0.59280300  0.25000000  0.69252800  1
  P  P9  1  0.90719700  0.75000000  0.19252800  1
  P  P10  1  0.90389100  0.75000000  0.52816900  1
  P  P11  1  0.90570300  0.75000000  0.86168000  1
  O  O0  1  0.04463300  0.75000000  0.23355300  1
  O  O1  1  0.04116100  0.75000000  0.57058900  1
  O  O2  1  0.04452200  0.75000000  0.90104600  1
  O  O3  1  0.09643100  0.25000000  0.24794600  1
  O  O4  1  0.10099000  0.25000000  0.57960200  1
  O  O5  1  0.09643000  0.25000000  0.91253700  1
  O  O6  1  0.16382600  0.04539800  0.09682700  1
  O  O7  1  0.16362500  0.04799900  0.42624600  1
  O  O8  1  0.16768700  0.04777900  0.76122200  1
  O  O9  1  0.16382600  0.45460200  0.09682700  1
  O  O10  1  0.16362500  0.45200100  0.42624600  1
  O  O11  1  0.16768700  0.45222100  0.76122200  1
  O  O12  1  0.33231300  0.54777900  0.26122200  1
  O  O13  1  0.33617400  0.54539800  0.59682700  1
  O  O14  1  0.33637500  0.54799900  0.92624600  1
  O  O15  1  0.33231300  0.95222100  0.26122200  1
  O  O16  1  0.33617400  0.95460200  0.59682700  1
  O  O17  1  0.33637500  0.95200100  0.92624600  1
  O  O18  1  0.39901000  0.75000000  0.07960200  1
  O  O19  1  0.40357000  0.75000000  0.41253700  1
  O  O20  1  0.40356900  0.75000000  0.74794600  1
  O  O21  1  0.45883900  0.25000000  0.07058900  1
  O  O22  1  0.45547800  0.25000000  0.40104600  1
  O  O23  1  0.45536700  0.25000000  0.73355300  1
  O  O24  1  0.54098100  0.75000000  0.26285200  1
  O  O25  1  0.54341200  0.75000000  0.59860200  1
  O  O26  1  0.54479400  0.75000000  0.93321800  1
  O  O27  1  0.59880100  0.25000000  0.25413000  1
  O  O28  1  0.59761500  0.25000000  0.58497000  1
  O  O29  1  0.59637000  0.25000000  0.92072000  1
  O  O30  1  0.66657100  0.04589800  0.07171400  1
  O  O31  1  0.66439300  0.04849600  0.40720200  1
  O  O32  1  0.66360500  0.04704500  0.73684700  1
  O  O33  1  0.66657100  0.45410200  0.07171400  1
  O  O34  1  0.66439300  0.45150400  0.40720200  1
  O  O35  1  0.66360500  0.45295500  0.73684700  1
  O  O36  1  0.83639500  0.54704500  0.23684700  1
  O  O37  1  0.83342900  0.54589800  0.57171400  1
  O  O38  1  0.83560700  0.54849600  0.90720200  1
  O  O39  1  0.83639500  0.95295500  0.23684700  1
  O  O40  1  0.83342900  0.95410200  0.57171400  1
  O  O41  1  0.83560700  0.95150400  0.90720200  1
  O  O42  1  0.90238500  0.75000000  0.08497000  1
  O  O43  1  0.90363000  0.75000000  0.42072000  1
  O  O44  1  0.90119900  0.75000000  0.75413000  1
  O  O45  1  0.95658800  0.25000000  0.09860200  1
  O  O46  1  0.95520600  0.25000000  0.43321800  1
  O  O47  1  0.95901900  0.25000000  0.76285200  1
loop_
_geom_bond_atom_site_label_1
_geom_bond_atom_site_label_2
_geom_bond_distance
_geom_bond_site_symmetry_2
Li0 O45 2.119550 1_565
Li0 O2 2.132504 1_654
Li0 O42 2.183165 1_555
Li0 O41 2.189777 1_554
Li0 O6 2.224760 1_665
Li0 O5 2.228431 1_664
Li1 O0 2.136064 1_545
Li1 O46 2.139366 1_455
Li1 O7 2.179725 1_555
Li1 O3 2.184196 1_555
Li1 O43 2.224048 1_445
Li1 O39 2.225665 1_445
Li2 O1 2.090987 1_655
Li2 O47 2.098146 1_565
Li2 O44 2.220938 1_555
Li2 O40 2.221805 1_555
Li2 O4 2.235365 1_665
Li2 O8 2.240966 1_665
Li3 O45 2.119550 1_555
Li3 O2 2.132504 1_654
Li3 O42 2.183165 1_555
Li3 O38 2.189777 1_554
Li3 O9 2.224760 1_655
Li3 O5 2.228431 1_654
Li4 O0 2.136064 1_555
Li4 O46 2.139366 1_455
Li4 O10 2.179725 1_555
Li4 O3 2.184196 1_555
Li4 O43 2.224048 1_455
Li4 O36 2.225665 1_455
Li5 O1 2.090987 1_655
Li5 O47 2.098146 1_555
Li5 O44 2.220938 1_555
Li5 O37 2.221805 1_555
Li5 O4 2.235365 1_655
Li5 O11 2.240966 1_655
Li6 O21 2.090987 1_555
Li6 O24 2.098146 1_545
Li6 O27 2.220938 1_555
Li6 O30 2.221805 1_555
Li6 O18 2.235365 1_545
Li6 O15 2.240966 1_545
Li7 O25 2.119550 1_545
Li7 O22 2.132504 1_555
Li7 O28 2.183165 1_555
Li7 O31 2.189777 1_555
Li7 O16 2.224760 1_545
Li7 O19 2.228431 1_545
Li8 O23 2.136064 1_565
Li8 O26 2.139366 1_555
Li8 O17 2.179725 1_555
Li8 O20 2.184196 1_555
Li8 O29 2.224048 1_565
Li8 O32 2.225665 1_565
Li9 O21 2.090987 1_555
Li9 O24 2.098146 1_555
Li9 O27 2.220938 1_555
Li9 O33 2.221805 1_555
Li9 O18 2.235365 1_555
Li9 O12 2.240966 1_555
Li10 O25 2.119550 1_555
Li10 O22 2.132504 1_555
Li10 O28 2.183165 1_555
Li10 O34 2.189777 1_555
Li10 O13 2.224760 1_555
Li10 O19 2.228431 1_555
Li11 O23 2.136064 1_555
Li11 O26 2.139366 1_555
Li11 O14 2.179725 1_555
Li11 O20 2.184196 1_555
Li11 O29 2.224048 1_555
Li11 O35 2.225665 1_555
Mn0 O7 2.133130 1_565
Mn0 O10 2.133130 1_555
Mn0 O1 2.155804 1_555
Mn0 O19 2.261044 1_555
Mn0 O13 2.288882 1_555
Mn0 O16 2.288882 1_555
Mn1 O17 2.133130 1_545
Mn1 O14 2.133130 1_555
Mn1 O21 2.155804 1_556
Mn1 O5 2.261044 1_555
Mn1 O9 2.288882 1_556
Mn1 O6 2.288882 1_556
Mn2 O34 2.131811 1_555
Mn2 O31 2.131811 1_565
Mn2 O24 2.170994 1_555
Mn2 O43 2.246654 1_555
Mn2 O39 2.283566 1_555
Mn2 O36 2.283566 1_555
Mn3 O41 2.131811 1_545
Mn3 O38 2.131811 1_555
Mn3 O47 2.170994 1_555
Mn3 O29 2.246654 1_555
Mn3 O35 2.283566 1_555
Mn3 O32 2.283566 1_555
Fe0 O11 2.101918 1_555
Fe0 O8 2.101918 1_565
Fe0 O2 2.132947 1_555
Fe0 O20 2.217718 1_555
Fe0 O14 2.255081 1_555
Fe0 O17 2.255081 1_555
Fe1 O12 2.101918 1_555
Fe1 O15 2.101918 1_545
Fe1 O22 2.132947 1_555
Fe1 O3 2.217718 1_555
Fe1 O10 2.255081 1_555
Fe1 O7 2.255081 1_555
Fe2 O35 2.096386 1_555
Fe2 O32 2.096386 1_565
Fe2 O25 2.124403 1_555
Fe2 O44 2.232393 1_555
Fe2 O40 2.268662 1_555
Fe2 O37 2.268662 1_555
Fe3 O36 2.096386 1_555
Fe3 O39 2.096386 1_545
Fe3 O45 2.124403 1_555
Fe3 O27 2.232393 1_555
Fe3 O30 2.268662 1_555
Fe3 O33 2.268662 1_555
Co0 O9 2.090683 1_555
Co0 O6 2.090683 1_565
Co0 O0 2.129245 1_555
Co0 O18 2.185547 1_555
Co0 O12 2.241245 1_555
Co0 O15 2.241245 1_555
Co1 O16 2.090683 1_545
Co1 O13 2.090683 1_555
Co1 O23 2.129245 1_555
Co1 O4 2.185547 1_555
Co1 O8 2.241245 1_555
Co1 O11 2.241245 1_555
Co2 O33 2.104656 1_555
Co2 O30 2.104656 1_565
Co2 O26 2.130410 1_554
Co2 O42 2.197423 1_555
Co2 O38 2.228013 1_554
Co2 O41 2.228013 1_554
Co3 O37 2.104656 1_555
Co3 O40 2.104656 1_545
Co3 O46 2.130410 1_555
Co3 O28 2.197423 1_555
Co3 O34 2.228013 1_555
Co3 O31 2.228013 1_555
O0 P9 1.554184 1_455
O1 P10 1.560214 1_455
O2 P11 1.558892 1_455
O3 P0 1.531569 1_555
O4 P1 1.541213 1_555
O5 P2 1.533970 1_555
O6 P0 1.577310 1_555
O7 P1 1.572180 1_555
O8 P2 1.574619 1_555
O9 P0 1.577310 1_555
O10 P1 1.572180 1_555
O11 P2 1.574619 1_555
O12 P3 1.574619 1_555
O13 P4 1.577310 1_555
O14 P5 1.572186 1_555
O15 P3 1.574619 1_555
O16 P4 1.577310 1_555
O17 P5 1.572186 1_555
O18 P5 1.541199 1_554
O19 P3 1.533970 1_555
O20 P4 1.531569 1_555
O21 P6 1.560214 1_555
O22 P7 1.558892 1_555
O23 P8 1.554184 1_555
O24 P3 1.553329 1_555
O25 P4 1.555508 1_555
O26 P5 1.553032 1_555
O27 P7 1.537957 1_555
O28 P8 1.538174 1_555
O29 P6 1.535792 1_556
O30 P6 1.573016 1_555
O31 P7 1.570253 1_555
O32 P8 1.573612 1_555
O33 P6 1.573016 1_555
O34 P7 1.570253 1_555
O35 P8 1.573612 1_555
O36 P9 1.573612 1_555
O37 P10 1.573016 1_555
O38 P11 1.570253 1_555
O39 P9 1.573612 1_555
O40 P10 1.573016 1_555
O41 P11 1.570253 1_555
O42 P9 1.538174 1_555
O43 P10 1.535792 1_555
O44 P11 1.537957 1_555
O45 P0 1.555508 1_655
O46 P1 1.553027 1_655
O47 P2 1.553329 1_655
