# generated using pymatgen
data_Ca9La5Cl33
_symmetry_space_group_name_H-M   'P 1'
_cell_length_a   11.10640100
_cell_length_b   11.18086410
_cell_length_c   21.12025657
_cell_angle_alpha   99.29898061
_cell_angle_beta   100.50629603
_cell_angle_gamma   109.56803763
_symmetry_Int_Tables_number   1
_chemical_formula_structural   Ca9La5Cl33
_chemical_formula_sum   'Ca18 La10 Cl66'
_cell_volume   2358.57295237
_cell_formula_units_Z   2
loop_
 _symmetry_equiv_pos_site_id
 _symmetry_equiv_pos_as_xyz
  1  'x, y, z'
loop_
 _atom_site_type_symbol
 _atom_site_label
 _atom_site_symmetry_multiplicity
 _atom_site_fract_x
 _atom_site_fract_y
 _atom_site_fract_z
 _atom_site_occupancy
  Ca  Ca0  1  0.91776200  0.23855300  0.93008800  1
  Ca  Ca1  1  0.31972100  0.08373900  0.97283400  1
  Ca  Ca2  1  0.47526300  0.02107700  0.19319800  1
  Ca  Ca3  1  0.86988900  0.26778800  0.33657300  1
  Ca  Ca4  1  0.23721300  0.14160000  0.38104900  1
  Ca  Ca5  1  0.68648800  0.40504400  0.53950600  1
  Ca  Ca6  1  0.06611300  0.25225100  0.55987200  1
  Ca  Ca7  1  0.76346700  0.34811900  0.11930900  1
  Ca  Ca8  1  0.13001900  0.20575700  0.15425400  1
  Ca  Ca9  1  0.86998100  0.79424300  0.84574600  1
  Ca  Ca10  1  0.23653300  0.65188100  0.88069100  1
  Ca  Ca11  1  0.93388700  0.74774900  0.44012800  1
  Ca  Ca12  1  0.31351200  0.59495600  0.46049400  1
  Ca  Ca13  1  0.76278700  0.85840000  0.61895100  1
  Ca  Ca14  1  0.13011100  0.73221200  0.66342700  1
  Ca  Ca15  1  0.52473700  0.97892300  0.80680200  1
  Ca  Ca16  1  0.68027900  0.91626100  0.02716600  1
  Ca  Ca17  1  0.08223800  0.76144700  0.06991200  1
  La  La0  1  0.37960100  0.04402100  0.58488700  1
  La  La1  1  0.17386700  0.13888700  0.76502800  1
  La  La2  1  0.85953500  0.35451500  0.73443600  1
  La  La3  1  0.63047000  0.45673000  0.92888800  1
  La  La4  1  0.46433000  0.54511500  0.68526900  1
  La  La5  1  0.53567000  0.45488500  0.31473100  1
  La  La6  1  0.36953000  0.54327000  0.07111200  1
  La  La7  1  0.14046500  0.64548500  0.26556400  1
  La  La8  1  0.82613300  0.86111300  0.23497200  1
  La  La9  1  0.62039900  0.95597900  0.41511300  1
  Cl  Cl0  1  0.77014800  0.13861400  0.79193300  1
  Cl  Cl1  1  0.93541500  0.13995500  0.66929300  1
  Cl  Cl2  1  0.62846800  0.19899400  0.91601900  1
  Cl  Cl3  1  0.73219800  0.04660500  0.19305600  1
  Cl  Cl4  1  0.15108000  0.99644600  0.63514600  1
  Cl  Cl5  1  0.05060000  0.06483900  0.87704500  1
  Cl  Cl6  1  0.65746000  0.19284800  0.62001100  1
  Cl  Cl7  1  0.44934600  0.18848000  0.73912700  1
  Cl  Cl8  1  0.81719500  0.22944000  0.47959400  1
  Cl  Cl9  1  0.59733000  0.12449600  0.33080000  1
  Cl  Cl10  1  0.47363600  0.12264700  0.46646700  1
  Cl  Cl11  1  0.15007500  0.04691500  0.48516900  1
  Cl  Cl12  1  0.35479400  0.28297000  0.89006000  1
  Cl  Cl13  1  0.88445700  0.17955100  0.05886800  1
  Cl  Cl14  1  0.82932100  0.46065400  0.85969100  1
  Cl  Cl15  1  0.55793300  0.10630800  0.07078200  1
  Cl  Cl16  1  0.95452100  0.44050100  0.62427500  1
  Cl  Cl17  1  0.24918900  0.04314400  0.09304600  1
  Cl  Cl18  1  0.39275600  0.30608100  0.58599400  1
  Cl  Cl19  1  0.97230100  0.36663400  0.22086000  1
  Cl  Cl20  1  0.33835100  0.19261800  0.26333100  1
  Cl  Cl21  1  0.66185400  0.31778700  0.23335900  1
  Cl  Cl22  1  0.03917400  0.13169300  0.27651100  1
  Cl  Cl23  1  0.23399800  0.35209800  0.70062400  1
  Cl  Cl24  1  0.70909300  0.50408700  0.68544800  1
  Cl  Cl25  1  0.08841400  0.36064800  0.82719900  1
  Cl  Cl26  1  0.75960000  0.46440900  0.41381600  1
  Cl  Cl27  1  0.58649200  0.57388800  0.82126000  1
  Cl  Cl28  1  0.44222700  0.38736700  0.42927700  1
  Cl  Cl29  1  0.81280000  0.72686700  0.97299100  1
  Cl  Cl30  1  0.46232500  0.61384400  0.95627200  1
  Cl  Cl31  1  0.11959900  0.32025700  0.43644400  1
  Cl  Cl32  1  0.14016700  0.53527600  0.97778300  1
  Cl  Cl33  1  0.85983300  0.46472400  0.02221700  1
  Cl  Cl34  1  0.88040100  0.67974300  0.56355600  1
  Cl  Cl35  1  0.53767500  0.38615600  0.04372800  1
  Cl  Cl36  1  0.18720000  0.27313300  0.02700900  1
  Cl  Cl37  1  0.55777300  0.61263300  0.57072300  1
  Cl  Cl38  1  0.41350800  0.42611200  0.17874000  1
  Cl  Cl39  1  0.24040000  0.53559100  0.58618400  1
  Cl  Cl40  1  0.91158600  0.63935200  0.17280100  1
  Cl  Cl41  1  0.29090700  0.49591300  0.31455200  1
  Cl  Cl42  1  0.76600200  0.64790200  0.29937600  1
  Cl  Cl43  1  0.96082600  0.86830700  0.72348900  1
  Cl  Cl44  1  0.33814600  0.68221300  0.76664100  1
  Cl  Cl45  1  0.66164900  0.80738200  0.73666900  1
  Cl  Cl46  1  0.02769900  0.63336600  0.77914000  1
  Cl  Cl47  1  0.60724400  0.69391900  0.41400600  1
  Cl  Cl48  1  0.75081100  0.95685600  0.90695400  1
  Cl  Cl49  1  0.04547900  0.55949900  0.37572500  1
  Cl  Cl50  1  0.44206700  0.89369200  0.92921800  1
  Cl  Cl51  1  0.17067900  0.53934600  0.14030900  1
  Cl  Cl52  1  0.11554300  0.82044900  0.94113200  1
  Cl  Cl53  1  0.64520600  0.71703000  0.10994000  1
  Cl  Cl54  1  0.84992500  0.95308500  0.51483100  1
  Cl  Cl55  1  0.52636400  0.87735300  0.53353300  1
  Cl  Cl56  1  0.40267000  0.87550400  0.66920000  1
  Cl  Cl57  1  0.18280500  0.77056000  0.52040600  1
  Cl  Cl58  1  0.55065400  0.81152000  0.26087300  1
  Cl  Cl59  1  0.34254000  0.80715200  0.37998900  1
  Cl  Cl60  1  0.94940000  0.93516100  0.12295500  1
  Cl  Cl61  1  0.84892000  0.00355400  0.36485400  1
  Cl  Cl62  1  0.26780200  0.95339500  0.80694400  1
  Cl  Cl63  1  0.37153200  0.80100600  0.08398100  1
  Cl  Cl64  1  0.06458500  0.86004500  0.33070700  1
  Cl  Cl65  1  0.22985200  0.86138600  0.20806700  1
loop_
_geom_bond_atom_site_label_1
_geom_bond_atom_site_label_2
_geom_bond_distance
_geom_bond_site_symmetry_2
Ca0 Cl0 2.902586 1_555
Ca0 Cl13 2.958547 1_556
Ca0 Cl48 2.976111 1_545
Ca0 Cl5 3.003860 1_655
Ca0 Cl2 3.043813 1_555
Ca0 Cl36 3.167007 1_656
Ca0 Cl33 3.248232 1_556
Ca0 Cl32 3.262817 1_655
Ca0 Cl25 3.302348 1_655
Ca0 Cl14 3.411250 1_555
Ca1 Cl17 2.850488 1_556
Ca1 Cl52 2.931607 1_545
Ca1 Cl15 2.954808 1_556
Ca1 Cl50 2.994685 1_545
Ca1 Cl12 3.015905 1_555
Ca1 Cl36 3.143011 1_556
Ca1 Cl5 3.210134 1_555
Ca1 Cl35 3.330763 1_556
Ca1 Cl62 3.432499 1_545
Ca2 Cl3 2.771723 1_555
Ca2 Cl65 2.819419 1_545
Ca2 Cl63 2.828476 1_545
Ca2 Cl9 2.836904 1_555
Ca2 Cl17 3.079985 1_555
Ca2 Cl15 3.084089 1_555
Ca2 Cl21 3.140717 1_555
Ca2 Cl20 3.168877 1_555
Ca2 Cl58 3.192775 1_545
Ca3 Cl9 2.880778 1_555
Ca3 Cl31 2.976880 1_655
Ca3 Cl61 3.049493 1_555
Ca3 Cl49 3.066670 1_655
Ca3 Cl19 3.087446 1_555
Ca3 Cl22 3.101925 1_655
Ca3 Cl21 3.134523 1_555
Ca3 Cl26 3.219986 1_555
Ca3 Cl8 3.247426 1_555
Ca3 Cl3 3.315999 1_555
Ca4 Cl22 2.776963 1_555
Ca4 Cl11 2.781249 1_555
Ca4 Cl28 2.798475 1_555
Ca4 Cl31 2.935172 1_555
Ca4 Cl20 2.969192 1_555
Ca4 Cl64 2.974627 1_545
Ca4 Cl10 2.993843 1_555
Ca5 Cl34 2.999272 1_555
Ca5 Cl26 3.023469 1_555
Ca5 Cl24 3.036209 1_555
Ca5 Cl16 3.043150 1_555
Ca5 Cl8 3.056095 1_555
Ca5 Cl6 3.100814 1_555
Ca5 Cl37 3.152344 1_555
Ca5 Cl28 3.163454 1_555
Ca5 Cl10 3.167604 1_555
Ca5 Cl18 3.454302 1_555
Ca6 Cl8 2.874229 1_455
Ca6 Cl31 2.937576 1_555
Ca6 Cl39 3.003821 1_555
Ca6 Cl23 3.011940 1_555
Ca6 Cl16 3.041939 1_455
Ca6 Cl11 3.070791 1_555
Ca6 Cl1 3.156663 1_455
Ca6 Cl54 3.258449 1_445
Ca6 Cl18 3.395281 1_555
Ca7 Cl15 2.772763 1_555
Ca7 Cl19 2.782670 1_555
Ca7 Cl33 2.789252 1_555
Ca7 Cl21 2.861782 1_555
Ca7 Cl35 2.914049 1_555
Ca7 Cl13 2.920957 1_555
Ca7 Cl40 3.021723 1_555
Ca8 Cl17 2.864430 1_555
Ca8 Cl60 2.901608 1_445
Ca8 Cl13 2.975367 1_455
Ca8 Cl20 3.012583 1_555
Ca8 Cl36 3.024799 1_555
Ca8 Cl22 3.074480 1_555
Ca8 Cl38 3.170030 1_555
Ca8 Cl19 3.236395 1_455
Ca9 Cl48 2.864430 1_555
Ca9 Cl5 2.901608 1_665
Ca9 Cl52 2.975367 1_655
Ca9 Cl45 3.012583 1_555
Ca9 Cl29 3.024799 1_555
Ca9 Cl43 3.074480 1_555
Ca9 Cl27 3.170030 1_555
Ca9 Cl46 3.236395 1_655
Ca10 Cl50 2.772763 1_555
Ca10 Cl46 2.782670 1_555
Ca10 Cl32 2.789252 1_555
Ca10 Cl44 2.861782 1_555
Ca10 Cl30 2.914049 1_555
Ca10 Cl52 2.920957 1_555
Ca10 Cl25 3.021723 1_555
Ca11 Cl57 2.874229 1_655
Ca11 Cl34 2.937576 1_555
Ca11 Cl26 3.003821 1_555
Ca11 Cl42 3.011940 1_555
Ca11 Cl49 3.041939 1_655
Ca11 Cl54 3.070791 1_555
Ca11 Cl64 3.156663 1_655
Ca11 Cl11 3.258449 1_665
Ca11 Cl47 3.395281 1_555
Ca12 Cl31 2.999272 1_555
Ca12 Cl39 3.023469 1_555
Ca12 Cl41 3.036209 1_555
Ca12 Cl49 3.043150 1_555
Ca12 Cl57 3.056095 1_555
Ca12 Cl59 3.100814 1_555
Ca12 Cl28 3.152344 1_555
Ca12 Cl37 3.163454 1_555
Ca12 Cl55 3.167604 1_555
Ca12 Cl47 3.454302 1_555
Ca13 Cl43 2.776963 1_555
Ca13 Cl54 2.781249 1_555
Ca13 Cl37 2.798475 1_555
Ca13 Cl34 2.935172 1_555
Ca13 Cl45 2.969192 1_555
Ca13 Cl1 2.974627 1_565
Ca13 Cl55 2.993843 1_555
Ca14 Cl56 2.880778 1_555
Ca14 Cl34 2.976880 1_455
Ca14 Cl4 3.049493 1_555
Ca14 Cl16 3.066670 1_455
Ca14 Cl46 3.087446 1_555
Ca14 Cl43 3.101925 1_455
Ca14 Cl44 3.134523 1_555
Ca14 Cl39 3.219986 1_555
Ca14 Cl57 3.247426 1_555
Ca14 Cl62 3.315999 1_555
Ca15 Cl62 2.771723 1_555
Ca15 Cl0 2.819419 1_565
Ca15 Cl2 2.828476 1_565
Ca15 Cl56 2.836904 1_555
Ca15 Cl48 3.079985 1_555
Ca15 Cl50 3.084089 1_555
Ca15 Cl44 3.140717 1_555
Ca15 Cl45 3.168877 1_555
Ca15 Cl7 3.192775 1_565
Ca16 Cl48 2.850488 1_554
Ca16 Cl13 2.931607 1_565
Ca16 Cl50 2.954808 1_554
Ca16 Cl15 2.994685 1_565
Ca16 Cl53 3.015905 1_555
Ca16 Cl29 3.143011 1_554
Ca16 Cl60 3.210134 1_555
Ca16 Cl30 3.330763 1_554
Ca16 Cl3 3.432499 1_565
Ca17 Cl65 2.902586 1_555
Ca17 Cl52 2.958547 1_554
Ca17 Cl17 2.976111 1_565
Ca17 Cl60 3.003860 1_455
Ca17 Cl63 3.043813 1_555
Ca17 Cl29 3.167007 1_454
Ca17 Cl32 3.248232 1_554
Ca17 Cl33 3.262817 1_455
Ca17 Cl40 3.302348 1_455
Ca17 Cl51 3.411250 1_555
Cl0 La2 2.840623 1_555
Cl1 La2 3.011421 1_555
Cl1 La1 3.029570 1_655
Cl2 La3 2.842601 1_555
Cl3 La8 2.807021 1_545
Cl4 La0 2.848158 1_565
Cl4 La1 2.861862 1_565
Cl5 La1 3.035103 1_555
Cl6 La2 2.835052 1_555
Cl6 La0 2.858168 1_555
Cl7 La1 3.088646 1_555
Cl7 La0 3.219004 1_555
Cl8 La9 3.012094 1_545
Cl9 La9 2.833362 1_545
Cl10 La0 3.027710 1_555
Cl10 La9 3.054856 1_545
Cl11 La0 3.009049 1_555
Cl12 La1 2.850975 1_555
Cl12 La3 2.899357 1_555
Cl14 La2 2.845187 1_555
Cl14 La3 2.854513 1_555
Cl16 La2 2.896381 1_555
Cl18 La0 2.880449 1_555
Cl18 La4 2.886005 1_555
Cl19 La7 2.933488 1_655
Cl20 La5 2.894639 1_555
Cl21 La5 2.955223 1_555
Cl22 La8 3.018442 1_445
Cl23 La4 2.852608 1_555
Cl23 La1 2.879567 1_555
Cl24 La4 2.903872 1_555
Cl24 La2 2.908520 1_555
Cl25 La2 2.885920 1_455
Cl25 La1 3.122711 1_555
Cl26 La5 2.903221 1_555
Cl27 La3 2.847380 1_555
Cl27 La4 2.860339 1_555
Cl28 La5 2.912167 1_555
Cl29 La3 2.897732 1_555
Cl30 La6 2.924552 1_556
Cl30 La3 3.028354 1_555
Cl32 La6 2.888243 1_556
Cl33 La3 2.888243 1_554
Cl35 La3 2.924552 1_554
Cl35 La6 3.028354 1_555
Cl36 La6 2.897732 1_555
Cl37 La4 2.912167 1_555
Cl38 La6 2.847380 1_555
Cl38 La5 2.860339 1_555
Cl39 La4 2.903221 1_555
Cl40 La7 2.885920 1_655
Cl40 La8 3.122711 1_555
Cl41 La5 2.903872 1_555
Cl41 La7 2.908520 1_555
Cl42 La5 2.852608 1_555
Cl42 La8 2.879567 1_555
Cl43 La1 3.018442 1_665
Cl44 La4 2.955223 1_555
Cl45 La4 2.894639 1_555
Cl46 La2 2.933488 1_455
Cl47 La9 2.880449 1_555
Cl47 La5 2.886005 1_555
Cl49 La7 2.896381 1_555
Cl51 La7 2.845187 1_555
Cl51 La6 2.854513 1_555
Cl53 La8 2.850975 1_555
Cl53 La6 2.899357 1_555
Cl54 La9 3.009049 1_555
Cl55 La9 3.027710 1_555
Cl55 La0 3.054856 1_565
Cl56 La0 2.833362 1_565
Cl57 La0 3.012094 1_565
Cl58 La8 3.088646 1_555
Cl58 La9 3.219004 1_555
Cl59 La7 2.835052 1_555
Cl59 La9 2.858168 1_555
Cl60 La8 3.035103 1_555
Cl61 La9 2.848158 1_545
Cl61 La8 2.861862 1_545
Cl62 La1 2.807021 1_565
Cl63 La6 2.842601 1_555
Cl64 La7 3.011421 1_555
Cl64 La8 3.029570 1_455
Cl65 La7 2.840623 1_555
