# generated using pymatgen
data_Li2VCrP2(HO5)2
_symmetry_space_group_name_H-M   'P 1'
_cell_length_a   5.16801600
_cell_length_b   7.38183919
_cell_length_c   10.65397045
_cell_angle_alpha   104.48853916
_cell_angle_beta   97.04327022
_cell_angle_gamma   108.95245425
_symmetry_Int_Tables_number   1
_chemical_formula_structural   Li2VCrP2(HO5)2
_chemical_formula_sum   'Li4 V2 Cr2 P4 H4 O20'
_cell_volume   362.84252420
_cell_formula_units_Z   2
loop_
 _symmetry_equiv_pos_site_id
 _symmetry_equiv_pos_as_xyz
  1  'x, y, z'
loop_
 _atom_site_type_symbol
 _atom_site_label
 _atom_site_symmetry_multiplicity
 _atom_site_fract_x
 _atom_site_fract_y
 _atom_site_fract_z
 _atom_site_occupancy
  Li  Li0  1  0.54821000  0.62331600  0.80094400  1
  Li  Li1  1  0.95134100  0.87451900  0.69798600  1
  Li  Li2  1  0.04865900  0.12548100  0.30201400  1
  Li  Li3  1  0.45179000  0.37668400  0.19905600  1
  V  V0  1  0.00000000  0.00000000  0.00000000  1
  V  V1  1  0.50000000  0.00000000  0.50000000  1
  Cr  Cr0  1  0.00000000  0.50000000  0.00000000  1
  Cr  Cr1  1  0.50000000  0.50000000  0.50000000  1
  P  P0  1  0.49782200  0.05288600  0.81970400  1
  P  P1  1  0.00444200  0.44899200  0.68027000  1
  P  P2  1  0.99555800  0.55100800  0.31973000  1
  P  P3  1  0.50217800  0.94711400  0.18029600  1
  H  H0  1  0.33093400  0.31229000  0.97070800  1
  H  H1  1  0.17036900  0.19267400  0.52976100  1
  H  H2  1  0.82963100  0.80732600  0.47023900  1
  H  H3  1  0.66906600  0.68771000  0.02929200  1
  O  O0  1  0.81540700  0.69875200  0.97653700  1
  O  O1  1  0.62550000  0.27954000  0.89820500  1
  O  O2  1  0.13415400  0.48857700  0.82826200  1
  O  O3  1  0.24460900  0.94631800  0.87316200  1
  O  O4  1  0.71738700  0.95012100  0.82998100  1
  O  O5  1  0.78349300  0.55010200  0.66953300  1
  O  O6  1  0.25725500  0.55466300  0.62583600  1
  O  O7  1  0.36859700  0.01567000  0.67207300  1
  O  O8  1  0.87638000  0.22154900  0.60229500  1
  O  O9  1  0.31178700  0.20249900  0.47447500  1
  O  O10  1  0.68821300  0.79750100  0.52552500  1
  O  O11  1  0.12362000  0.77845100  0.39770500  1
  O  O12  1  0.63140300  0.98433000  0.32792700  1
  O  O13  1  0.74274500  0.44533700  0.37416400  1
  O  O14  1  0.21650700  0.44989800  0.33046700  1
  O  O15  1  0.28261300  0.04987900  0.17001900  1
  O  O16  1  0.75539100  0.05368200  0.12683800  1
  O  O17  1  0.86584600  0.51142300  0.17173800  1
  O  O18  1  0.37450000  0.72046000  0.10179500  1
  O  O19  1  0.18459300  0.30124800  0.02346300  1
loop_
_geom_bond_atom_site_label_1
_geom_bond_atom_site_label_2
_geom_bond_distance
_geom_bond_site_symmetry_2
Li0 O0 2.015539 1_555
Li0 O5 2.048536 1_555
Li0 O6 2.083807 1_555
Li0 O2 2.137290 1_555
Li0 O4 2.206823 1_555
Li1 O10 1.977574 1_555
Li1 O4 2.052682 1_555
Li1 O3 2.085838 1_655
Li1 O7 2.154608 1_665
Li1 O5 2.191410 1_555
Li2 O9 1.977574 1_555
Li2 O15 2.052682 1_555
Li2 O16 2.085838 1_455
Li2 O12 2.154608 1_445
Li2 O14 2.191410 1_555
Li3 O19 2.015539 1_555
Li3 O14 2.048536 1_555
Li3 O13 2.083807 1_555
Li3 O17 2.137290 1_555
Li3 O15 2.206823 1_555
Cr0 O2 2.026680 1_554
Cr0 O17 2.026680 1_455
Cr0 O1 2.031414 1_454
Cr0 O18 2.031414 1_555
Cr0 O19 2.039435 1_555
Cr0 O0 2.039435 1_454
Cr1 O6 2.001139 1_555
Cr1 O13 2.001139 1_555
Cr1 O10 2.022794 1_555
Cr1 O9 2.022794 1_555
Cr1 O14 2.051940 1_555
Cr1 O5 2.051940 1_555
H0 O19 0.990781 1_556
H1 O9 0.989372 1_555
H2 O10 0.989372 1_555
H3 O0 0.990781 1_554
O0 V0 2.050135 1_666
O1 P0 1.543236 1_555
O2 P1 1.550410 1_555
O3 P0 1.547240 1_565
O3 V0 2.014339 1_566
O4 P0 1.563734 1_565
O4 V0 2.053781 1_666
O5 P1 1.561512 1_655
O6 P1 1.549844 1_555
O7 P0 1.549958 1_555
O7 V1 2.021291 1_555
O8 P1 1.546768 1_655
O8 V1 2.041539 1_555
O9 V1 2.082677 1_555
O10 V1 2.082677 1_565
O11 P2 1.546768 1_455
O11 V1 2.041539 1_565
O12 P3 1.549958 1_555
O12 V1 2.021291 1_565
O13 P2 1.549844 1_555
O14 P2 1.561512 1_455
O15 P3 1.563734 1_545
O15 V0 2.053781 1_555
O16 P3 1.547240 1_545
O16 V0 2.014339 1_655
O17 P2 1.550410 1_555
O18 P3 1.543236 1_555
O19 V0 2.050135 1_555
