# generated using pymatgen
data_Li2TiFe2O5
_symmetry_space_group_name_H-M   'P 1'
_cell_length_a   4.17299881
_cell_length_b   4.96732198
_cell_length_c   9.36061807
_cell_angle_alpha   91.19170975
_cell_angle_beta   90.74867845
_cell_angle_gamma   114.61676415
_symmetry_Int_Tables_number   1
_chemical_formula_structural   Li2TiFe2O5
_chemical_formula_sum   'Li4 Ti2 Fe4 O10'
_cell_volume   176.30940465
_cell_formula_units_Z   2
loop_
 _symmetry_equiv_pos_site_id
 _symmetry_equiv_pos_as_xyz
  1  'x, y, z'
loop_
 _atom_site_type_symbol
 _atom_site_label
 _atom_site_symmetry_multiplicity
 _atom_site_fract_x
 _atom_site_fract_y
 _atom_site_fract_z
 _atom_site_occupancy
  Li  Li0  1  0.30173625  0.09964357  0.89805724  1
  Li  Li1  1  0.69826375  0.90035643  0.10194276  1
  Li  Li2  1  0.09436216  0.69045673  0.29522183  1
  Li  Li3  1  0.90563784  0.30954327  0.70477817  1
  Ti  Ti0  1  0.38549654  0.28945694  0.19146924  1
  Ti  Ti1  1  0.61450346  0.71054306  0.80853076  1
  Fe  Fe0  1  0.00000000  0.50000000  -0.00000000  1
  Fe  Fe1  1  0.50000000  0.50000000  0.50000000  1
  Fe  Fe2  1  0.19594529  0.92617404  0.59074075  1
  Fe  Fe3  1  0.80405471  0.07382596  0.40925925  1
  O  O0  1  0.50000000  0.50000000  -0.00000000  1
  O  O1  1  0.79275830  0.08719446  0.90019184  1
  O  O2  1  0.20724170  0.91280554  0.09980816  1
  O  O3  1  0.59228089  0.67723541  0.29531763  1
  O  O4  1  0.90170582  0.29189188  0.20058948  1
  O  O5  1  0.30916783  0.09320272  0.38216334  1
  O  O6  1  0.00000000  0.50000000  0.50000000  1
  O  O7  1  0.40771911  0.32276459  0.70468237  1
  O  O8  1  0.69083217  0.90679728  0.61783666  1
  O  O9  1  0.09829418  0.70810812  0.79941052  1
loop_
_geom_bond_atom_site_label_1
_geom_bond_atom_site_label_2
_geom_bond_distance
_geom_bond_site_symmetry_2
Li0 O9 1.971098 1_545
Li0 O0 2.019832 1_556
Li0 O1 2.075405 1_555
Li0 O2 2.090645 1_546
Li0 O7 2.096774 1_555
Li0 O1 2.099330 1_455
Li1 O4 1.971098 1_565
Li1 O0 2.019832 1_555
Li1 O2 2.075405 1_555
Li1 O1 2.090645 1_564
Li1 O3 2.096774 1_555
Li1 O2 2.099330 1_655
Li2 O5 1.971634 1_565
Li2 O4 1.983193 1_455
Li2 O3 2.068702 1_455
Li2 O3 2.106007 1_555
Li2 O2 2.112068 1_555
Li2 O6 2.123489 1_555
Li3 O8 1.971634 1_545
Li3 O9 1.983193 1_655
Li3 O7 2.068702 1_655
Li3 O7 2.106007 1_555
Li3 O1 2.112068 1_555
Li3 O6 2.123489 1_655
Fe0 O2 2.060900 1_555
Fe0 O1 2.060900 1_454
Fe0 O0 2.086499 1_555
Fe0 O0 2.086499 1_455
Fe0 O4 2.123681 1_455
Fe0 O9 2.123681 1_554
Fe1 O6 2.086499 1_655
Fe1 O6 2.086499 1_555
Fe1 O3 2.097916 1_555
Fe1 O7 2.097916 1_555
Fe1 O5 2.116075 1_555
Fe1 O8 2.116075 1_555
Fe2 O7 2.058401 1_565
Fe2 O6 2.082426 1_555
Fe2 O8 2.088669 1_455
Fe2 O5 2.118594 1_565
Fe2 O8 2.119296 1_555
Fe2 O9 2.212636 1_555
Fe3 O3 2.058401 1_545
Fe3 O6 2.082426 1_655
Fe3 O5 2.088669 1_655
Fe3 O8 2.118594 1_545
Fe3 O5 2.119296 1_555
Fe3 O4 2.212636 1_555
O0 Ti0 2.053862 1_555
O0 Ti1 2.053862 1_554
O1 Ti1 1.883364 1_545
O2 Ti0 1.883364 1_565
O3 Ti0 1.978725 1_555
O4 Ti0 2.026827 1_655
O4 Ti0 2.149698 1_555
O5 Ti0 2.016590 1_555
O7 Ti1 1.978725 1_555
O8 Ti1 2.016590 1_555
O9 Ti1 2.026827 1_455
O9 Ti1 2.149698 1_555
