# generated using pymatgen
data_LiMnF3
_symmetry_space_group_name_H-M   'P 1'
_cell_length_a   6.57832800
_cell_length_b   6.76339167
_cell_length_c   8.92642599
_cell_angle_alpha   90.56612663
_cell_angle_beta   107.65830156
_cell_angle_gamma   98.91742473
_symmetry_Int_Tables_number   1
_chemical_formula_structural   LiMnF3
_chemical_formula_sum   'Li6 Mn6 F18'
_cell_volume   373.18207642
_cell_formula_units_Z   6
loop_
 _symmetry_equiv_pos_site_id
 _symmetry_equiv_pos_as_xyz
  1  'x, y, z'
loop_
 _atom_site_type_symbol
 _atom_site_label
 _atom_site_symmetry_multiplicity
 _atom_site_fract_x
 _atom_site_fract_y
 _atom_site_fract_z
 _atom_site_occupancy
  Li  Li0  1  0.65221400  0.56097600  0.26236100  1
  Li  Li1  1  0.77825000  0.69622000  0.98213800  1
  Li  Li2  1  0.97679500  0.10239800  0.69993500  1
  Li  Li3  1  0.02320500  0.89760200  0.30006500  1
  Li  Li4  1  0.22175000  0.30378000  0.01786200  1
  Li  Li5  1  0.34778600  0.43902400  0.73763900  1
  Mn  Mn0  1  0.78821800  0.63811600  0.59350400  1
  Mn  Mn1  1  0.57943500  0.07275000  0.33520000  1
  Mn  Mn2  1  0.27261700  0.79956400  0.99829600  1
  Mn  Mn3  1  0.72738300  0.20043600  0.00170400  1
  Mn  Mn4  1  0.42056500  0.92725000  0.66480000  1
  Mn  Mn5  1  0.21178200  0.36188400  0.40649600  1
  F  F0  1  0.16885400  0.41495900  0.18622900  1
  F  F1  1  0.50428100  0.77888000  0.23393500  1
  F  F2  1  0.70433000  0.95225600  0.57057500  1
  F  F3  1  0.58565500  0.38126900  0.41623700  1
  F  F4  1  0.42016800  0.11911900  0.08745200  1
  F  F5  1  0.70881400  0.47462700  0.09044600  1
  F  F6  1  0.95627900  0.16441000  0.89441000  1
  F  F7  1  0.13934700  0.88025600  0.73824000  1
  F  F8  1  0.92152900  0.69035300  0.41460900  1
  F  F9  1  0.07847100  0.30964700  0.58539100  1
  F  F10  1  0.86065300  0.11974400  0.26176000  1
  F  F11  1  0.04372100  0.83559000  0.10559000  1
  F  F12  1  0.29118600  0.52537300  0.90955400  1
  F  F13  1  0.57983200  0.88088100  0.91254800  1
  F  F14  1  0.41434500  0.61873100  0.58376300  1
  F  F15  1  0.29567000  0.04774400  0.42942500  1
  F  F16  1  0.49571900  0.22112000  0.76606500  1
  F  F17  1  0.83114600  0.58504100  0.81377100  1
loop_
_geom_bond_atom_site_label_1
_geom_bond_atom_site_label_2
_geom_bond_distance
_geom_bond_site_symmetry_2
F0 Li4 1.822449 1_555
F0 Mn5 1.945008 1_555
F1 Li0 1.866983 1_555
F1 Mn1 2.097771 1_565
F1 Mn2 2.212141 1_554
F2 Li2 1.932371 1_565
F2 Mn1 2.224355 1_565
F2 Mn4 2.253457 1_555
F2 Mn0 2.272472 1_555
F3 Li0 1.946412 1_555
F3 Mn1 2.191970 1_555
F3 Mn0 2.290423 1_555
F3 Mn5 2.417386 1_555
F4 Li4 1.917872 1_555
F4 Mn1 2.190134 1_555
F4 Mn2 2.256904 1_544
F4 Mn3 2.361109 1_555
F5 Li0 1.797499 1_555
F5 Li1 1.863821 1_554
F5 Mn3 2.044835 1_555
F6 Li2 1.831120 1_555
F6 Li4 1.858563 1_656
F6 Mn3 2.056209 1_556
F7 Li2 1.950403 1_465
F7 Mn4 2.123828 1_555
F7 Mn2 2.322476 1_555
F7 Mn0 2.580996 1_455
F8 Li3 1.900041 1_655
F8 Li0 1.945902 1_555
F8 Mn0 2.051500 1_555
F9 Li2 1.900041 1_455
F9 Li5 1.945902 1_555
F9 Mn5 2.051500 1_555
F10 Li3 1.950403 1_645
F10 Mn1 2.123828 1_555
F10 Mn3 2.322476 1_555
F10 Mn5 2.580996 1_655
F11 Li3 1.831120 1_555
F11 Li1 1.858563 1_454
F11 Mn2 2.056209 1_554
F12 Li5 1.797499 1_555
F12 Li4 1.863821 1_556
F12 Mn2 2.044835 1_555
F13 Li1 1.917872 1_555
F13 Mn4 2.190134 1_555
F13 Mn3 2.256904 1_566
F13 Mn2 2.361109 1_555
F14 Li5 1.946412 1_555
F14 Mn4 2.191970 1_555
F14 Mn5 2.290423 1_555
F14 Mn0 2.417386 1_555
F15 Li3 1.932371 1_545
F15 Mn4 2.224355 1_545
F15 Mn1 2.253457 1_555
F15 Mn5 2.272472 1_555
F16 Li5 1.866983 1_555
F16 Mn4 2.097771 1_545
F16 Mn3 2.212141 1_556
F17 Li1 1.822449 1_555
F17 Mn0 1.945008 1_555
