# generated using pymatgen
data_Li2VP2O7
_symmetry_space_group_name_H-M   'P 1'
_cell_length_a   5.36646666
_cell_length_b   12.28847592
_cell_length_c   8.88602200
_cell_angle_alpha   73.51668030
_cell_angle_beta   97.75549495
_cell_angle_gamma   88.82146412
_symmetry_Int_Tables_number   1
_chemical_formula_structural   Li2VP2O7
_chemical_formula_sum   'Li8 V4 P8 O28'
_cell_volume   555.70279757
_cell_formula_units_Z   4
loop_
 _symmetry_equiv_pos_site_id
 _symmetry_equiv_pos_as_xyz
  1  'x, y, z'
loop_
 _atom_site_type_symbol
 _atom_site_label
 _atom_site_symmetry_multiplicity
 _atom_site_fract_x
 _atom_site_fract_y
 _atom_site_fract_z
 _atom_site_occupancy
  Li  Li0  1  0.81127000  0.40126400  0.58443500  1
  Li  Li1  1  0.31118400  0.90125400  0.08436000  1
  Li  Li2  1  0.68881600  0.09874100  0.91565400  1
  Li  Li3  1  0.18871500  0.59872600  0.41558900  1
  Li  Li4  1  0.21535800  0.11111700  0.63610500  1
  Li  Li5  1  0.71534100  0.61118900  0.13604300  1
  Li  Li6  1  0.28464700  0.38881800  0.86395900  1
  Li  Li7  1  0.78465700  0.88888200  0.36389600  1
  V  V0  1  0.29323600  0.79777300  0.56831800  1
  V  V1  1  0.70678100  0.20219600  0.43166200  1
  V  V2  1  0.79325400  0.29802600  0.06837600  1
  V  V3  1  0.20681100  0.70197700  0.93161300  1
  P  P0  1  0.15715800  0.07027100  0.31473100  1
  P  P1  1  0.65713200  0.57026100  0.81468000  1
  P  P2  1  0.34287300  0.42973800  0.18532000  1
  P  P3  1  0.84285800  0.92972800  0.68527500  1
  P  P4  1  0.26061400  0.35161200  0.52885700  1
  P  P5  1  0.76054200  0.85161800  0.02882000  1
  P  P6  1  0.23945200  0.14838700  0.97117900  1
  P  P7  1  0.73939200  0.64839100  0.47114100  1
  O  O0  1  0.61476800  0.44596100  0.89231800  1
  O  O1  1  0.11481200  0.94596900  0.39232500  1
  O  O2  1  0.88519900  0.05402900  0.60768200  1
  O  O3  1  0.38522200  0.55403800  0.10768700  1
  O  O4  1  0.90809200  0.14508800  0.26435900  1
  O  O5  1  0.40807100  0.64507700  0.76433000  1
  O  O6  1  0.59192500  0.35492200  0.23567200  1
  O  O7  1  0.09190500  0.85491000  0.73563700  1
  O  O8  1  0.04724100  0.27118600  0.52769200  1
  O  O9  1  0.54708700  0.77121600  0.02768500  1
  O  O10  1  0.45289800  0.22879000  0.97231800  1
  O  O11  1  0.95275500  0.72881700  0.47231500  1
  O  O12  1  0.97499500  0.20860500  0.92364800  1
  O  O13  1  0.47488800  0.70855000  0.42360500  1
  O  O14  1  0.52510500  0.29144800  0.57639600  1
  O  O15  1  0.02499600  0.79139600  0.07634900  1
  O  O16  1  0.29441600  0.06688400  0.87617000  1
  O  O17  1  0.79447400  0.56690800  0.37610100  1
  O  O18  1  0.20551300  0.43309500  0.62389100  1
  O  O19  1  0.70558000  0.93312300  0.12382700  1
  O  O20  1  0.14005100  0.38193900  0.08982600  1
  O  O21  1  0.64004900  0.88192900  0.58976700  1
  O  O22  1  0.35995900  0.11808000  0.41022600  1
  O  O23  1  0.85994200  0.61806800  0.91016800  1
  O  O24  1  0.24701900  0.43814200  0.34968500  1
  O  O25  1  0.74695300  0.93813400  0.84962100  1
  O  O26  1  0.25303300  0.06186600  0.15037500  1
  O  O27  1  0.75296100  0.56185900  0.65031100  1
loop_
_geom_bond_atom_site_label_1
_geom_bond_atom_site_label_2
_geom_bond_distance
_geom_bond_site_symmetry_2
Li0 O14 2.072409 1_555
Li0 O18 2.159571 1_655
Li0 O8 2.226957 1_655
Li0 O27 2.239362 1_555
Li0 O17 2.321127 1_555
Li1 O15 2.072821 1_555
Li1 O19 2.160484 1_555
Li1 O9 2.226059 1_555
Li1 O26 2.240084 1_565
Li1 O16 2.320333 1_564
Li2 O12 2.072817 1_555
Li2 O16 2.160480 1_555
Li2 O10 2.226160 1_555
Li2 O25 2.240098 1_545
Li2 O19 2.320157 1_546
Li3 O13 2.072483 1_555
Li3 O17 2.159544 1_455
Li3 O11 2.226969 1_455
Li3 O24 2.239361 1_555
Li3 O18 2.320868 1_555
Li4 O2 1.930300 1_455
Li4 O16 2.028384 1_555
Li4 O8 2.056265 1_555
Li4 O22 2.227970 1_555
Li5 O3 1.930364 1_555
Li5 O17 2.028329 1_555
Li5 O9 2.056039 1_555
Li5 O23 2.228154 1_554
Li6 O0 1.930336 1_555
Li6 O18 2.028416 1_555
Li6 O10 2.056045 1_555
Li6 O20 2.228074 1_556
Li7 O1 1.930281 1_655
Li7 O19 2.028420 1_555
Li7 O11 2.056196 1_555
Li7 O21 2.227947 1_555
O0 P1 1.522954 1_555
O0 V2 2.140037 1_556
O1 P0 1.522879 1_565
O1 V0 2.141711 1_555
O2 P3 1.522861 1_545
O2 V1 2.141577 1_555
O3 P2 1.522927 1_555
O3 V3 2.139996 1_554
O4 P0 1.544859 1_655
O4 V2 2.179469 1_555
O4 V1 2.205463 1_555
O5 P1 1.544830 1_555
O5 V0 2.177728 1_555
O5 V3 2.203882 1_555
O6 P2 1.544791 1_555
O6 V1 2.177877 1_555
O6 V2 2.204167 1_555
O7 P3 1.544781 1_455
O7 V3 2.179456 1_555
O7 V0 2.205820 1_555
O8 P4 1.528787 1_555
O8 V1 2.199667 1_455
O9 P5 1.528902 1_555
O9 V3 2.200605 1_554
O10 P6 1.528877 1_555
O10 V2 2.200875 1_556
O11 P7 1.528753 1_555
O11 V0 2.199449 1_655
O12 P6 1.535500 1_655
O12 V2 2.215629 1_556
O13 P7 1.535443 1_555
O13 V0 2.213697 1_555
O14 P4 1.535406 1_555
O14 V1 2.214140 1_555
O15 P5 1.535505 1_455
O15 V3 2.215870 1_554
O16 P6 1.528970 1_555
O17 P7 1.529143 1_555
O18 P4 1.529128 1_555
O19 P5 1.528974 1_555
O20 P2 1.519748 1_555
O20 V2 2.158231 1_455
O21 P3 1.519773 1_555
O21 V0 2.159860 1_555
O22 P0 1.519748 1_555
O22 V1 2.159633 1_555
O23 P1 1.519730 1_555
O23 V3 2.158533 1_655
O24 P4 1.635727 1_555
O24 P2 1.641542 1_555
O25 P5 1.635854 1_556
O25 P3 1.641507 1_555
O26 P6 1.635860 1_554
O26 P0 1.641518 1_555
O27 P7 1.635736 1_555
O27 P1 1.641510 1_555
