# generated using pymatgen
data_Li4VP2(O4F)2
_symmetry_space_group_name_H-M   'P 1'
_cell_length_a   10.94536900
_cell_length_b   6.46183800
_cell_length_c   10.58411781
_cell_angle_alpha   89.81560936
_cell_angle_beta   90.00000000
_cell_angle_gamma   90.00000000
_symmetry_Int_Tables_number   1
_chemical_formula_structural   Li4VP2(O4F)2
_chemical_formula_sum   'Li16 V4 P8 O32 F8'
_cell_volume   748.58115467
_cell_formula_units_Z   4
loop_
 _symmetry_equiv_pos_site_id
 _symmetry_equiv_pos_as_xyz
  1  'x, y, z'
loop_
 _atom_site_type_symbol
 _atom_site_label
 _atom_site_symmetry_multiplicity
 _atom_site_fract_x
 _atom_site_fract_y
 _atom_site_fract_z
 _atom_site_occupancy
  Li  Li0  1  0.97592600  0.25119200  0.03930700  1
  Li  Li1  1  0.02407400  0.25119200  0.53930700  1
  Li  Li2  1  0.65379300  0.27117500  0.27292400  1
  Li  Li3  1  0.34620700  0.27117500  0.77292400  1
  Li  Li4  1  0.74533000  0.50038800  0.50483700  1
  Li  Li5  1  0.25529000  0.49872300  0.48981800  1
  Li  Li6  1  0.74471000  0.49872300  0.98981800  1
  Li  Li7  1  0.25467000  0.50038800  0.00483700  1
  Li  Li8  1  0.91882900  0.50565700  0.23286900  1
  Li  Li9  1  0.08117100  0.50565700  0.73286900  1
  Li  Li10  1  0.16169400  0.73456200  0.22554000  1
  Li  Li11  1  0.83830600  0.73456200  0.72554000  1
  Li  Li12  1  0.47831400  0.73032000  0.46162700  1
  Li  Li13  1  0.52168600  0.73032000  0.96162700  1
  Li  Li14  1  0.41735300  0.96898200  0.24521000  1
  Li  Li15  1  0.58264700  0.96898200  0.74521000  1
  V  V0  1  0.75329500  0.00743600  0.49733800  1
  V  V1  1  0.24865700  0.00725000  0.49752100  1
  V  V2  1  0.75134300  0.00725000  0.99752100  1
  V  V3  1  0.24670500  0.00743600  0.99733800  1
  P  P0  1  0.50719800  0.24536900  0.03301800  1
  P  P1  1  0.49280200  0.24536900  0.53301800  1
  P  P2  1  0.16731600  0.26556900  0.23950300  1
  P  P3  1  0.83268400  0.26556900  0.73950300  1
  P  P4  1  0.67138200  0.74620600  0.25754900  1
  P  P5  1  0.32861800  0.74620600  0.75754900  1
  P  P6  1  0.00847600  0.73574800  0.47050900  1
  P  P7  1  0.99152400  0.73574800  0.97050900  1
  O  O0  1  0.41744700  0.06330500  0.46343500  1
  O  O1  1  0.58255300  0.06330500  0.96343500  1
  O  O2  1  0.23042000  0.06685100  0.17354100  1
  O  O3  1  0.76958000  0.06685100  0.67354100  1
  O  O4  1  0.19977500  0.23796100  0.38399500  1
  O  O5  1  0.80022500  0.23796100  0.88399500  1
  O  O6  1  0.62628800  0.23008500  0.47535100  1
  O  O7  1  0.37371200  0.23008500  0.97535100  1
  O  O8  1  0.50671400  0.19862800  0.17384800  1
  O  O9  1  0.49328600  0.19862800  0.67384800  1
  O  O10  1  0.03017600  0.25623800  0.21919500  1
  O  O11  1  0.96982400  0.25623800  0.71919500  1
  O  O12  1  0.43605200  0.44968200  0.49544200  1
  O  O13  1  0.56394800  0.44968200  0.99544200  1
  O  O14  1  0.22823400  0.45985800  0.18882700  1
  O  O15  1  0.77176600  0.45985800  0.68882700  1
  O  O16  1  0.73469100  0.54797900  0.30323800  1
  O  O17  1  0.26530900  0.54797900  0.80323800  1
  O  O18  1  0.93280700  0.55374600  0.04121500  1
  O  O19  1  0.06719300  0.55374600  0.54121500  1
  O  O20  1  0.53545500  0.75406000  0.28422700  1
  O  O21  1  0.46454500  0.75406000  0.78422700  1
  O  O22  1  0.01051100  0.71395500  0.32803400  1
  O  O23  1  0.98948900  0.71395500  0.82803400  1
  O  O24  1  0.12459200  0.77480800  0.02231100  1
  O  O25  1  0.87540800  0.77480800  0.52231100  1
  O  O26  1  0.70140800  0.78346400  0.11470400  1
  O  O27  1  0.29859200  0.78346400  0.61470400  1
  O  O28  1  0.73255100  0.93784500  0.33008600  1
  O  O29  1  0.26744900  0.93784500  0.83008600  1
  O  O30  1  0.91716400  0.93886800  0.00971800  1
  O  O31  1  0.08283600  0.93886800  0.50971800  1
  F  F0  1  0.86572700  0.22551900  0.46133800  1
  F  F1  1  0.13427300  0.22551900  0.96133800  1
  F  F2  1  0.76460400  0.21951900  0.12158400  1
  F  F3  1  0.23539600  0.21951900  0.62158400  1
  F  F4  1  0.27171400  0.79116700  0.37185400  1
  F  F5  1  0.72828600  0.79116700  0.87185400  1
  F  F6  1  0.36673500  0.80302300  0.04883200  1
  F  F7  1  0.63326500  0.80302300  0.54883200  1
loop_
_geom_bond_atom_site_label_1
_geom_bond_atom_site_label_2
_geom_bond_distance
_geom_bond_site_symmetry_2
Li0 O10 1.994766 1_655
Li0 O18 2.011378 1_555
Li0 O30 2.142171 1_545
Li0 O5 2.531558 1_554
Li1 O11 1.994766 1_455
Li1 O19 2.011378 1_555
Li1 O31 2.142171 1_545
Li1 O4 2.531558 1_555
Li2 O8 1.978413 1_555
Li2 O16 2.022372 1_555
Li2 O6 2.178950 1_555
Li2 O28 2.395860 1_545
Li3 O9 1.978413 1_555
Li3 O17 2.022372 1_555
Li3 O7 2.178950 1_555
Li3 O29 2.395860 1_545
Li4 O15 1.985268 1_555
Li4 O16 2.157959 1_555
Li4 O6 2.202137 1_555
Li4 O25 2.282067 1_555
Li5 O12 2.004578 1_555
Li5 O4 2.115441 1_555
Li5 O19 2.159215 1_555
Li5 O27 2.317948 1_555
Li6 O13 2.004578 1_555
Li6 O5 2.115441 1_555
Li6 O18 2.159215 1_556
Li6 O26 2.317948 1_556
Li7 O14 1.985268 1_555
Li7 O17 2.157959 1_554
Li7 O7 2.202137 1_554
Li7 O24 2.282067 1_555
Li8 O22 1.960086 1_655
Li8 O10 2.026167 1_655
Li8 O18 2.056861 1_555
Li8 O16 2.166308 1_555
Li9 O23 1.960086 1_455
Li9 O11 2.026167 1_455
Li9 O19 2.056861 1_555
Li9 O17 2.166308 1_555
Li10 O14 1.958778 1_555
Li10 O22 1.982882 1_555
Li10 O24 2.203576 1_555
Li10 O2 2.339146 1_565
Li11 O15 1.958778 1_555
Li11 O23 1.982882 1_555
Li11 O25 2.203576 1_555
Li11 O3 2.339146 1_565
Li12 O12 1.904323 1_555
Li12 O20 1.984517 1_555
Li12 O0 2.252612 1_565
Li12 O27 2.572175 1_555
Li13 O13 1.904323 1_555
Li13 O21 1.984517 1_555
Li13 O1 2.252612 1_565
Li13 O26 2.572175 1_556
Li14 O8 1.929246 1_565
Li14 O20 1.940768 1_555
Li14 O2 2.271252 1_565
Li14 O0 2.390681 1_565
Li15 O9 1.929246 1_565
Li15 O21 1.940768 1_555
Li15 O3 2.271252 1_565
Li15 O1 2.390681 1_565
O0 P1 1.616269 1_555
O0 V1 1.916679 1_555
O1 P0 1.616269 1_556
O1 V2 1.916679 1_555
O2 P2 1.618368 1_555
O2 V3 1.913592 1_554
O3 P3 1.618368 1_555
O3 V0 1.913592 1_555
O4 P2 1.579592 1_555
O4 V1 1.985206 1_555
O5 P3 1.579592 1_555
O5 V2 1.985206 1_555
O6 P1 1.586616 1_555
O6 V0 2.013555 1_555
O7 P0 1.586616 1_556
O7 V3 2.013555 1_555
O8 P0 1.519910 1_555
O9 P1 1.519910 1_555
O10 P2 1.517585 1_555
O11 P3 1.517585 1_555
O12 P1 1.511174 1_555
O13 P0 1.511174 1_556
O14 P2 1.517933 1_555
O15 P3 1.517933 1_555
O16 P4 1.533219 1_555
O17 P5 1.533219 1_555
O18 P7 1.533150 1_554
O19 P6 1.533150 1_555
O20 P4 1.515210 1_555
O21 P5 1.515210 1_555
O22 P6 1.515148 1_555
O23 P7 1.515148 1_555
O24 P7 1.576875 1_454
O24 V3 2.028141 1_564
O25 P6 1.576875 1_655
O25 V0 2.028141 1_565
O26 P4 1.565067 1_555
O26 V2 1.979037 1_564
O27 P5 1.565067 1_555
O27 V1 1.979037 1_565
O28 P4 1.605392 1_555
O28 V0 1.841889 1_565
O29 P5 1.605392 1_555
O29 V3 1.841889 1_565
O30 P7 1.600277 1_554
O30 V2 1.872344 1_564
O31 P6 1.600277 1_555
O31 V1 1.872344 1_565
F0 V0 1.908408 1_555
F0 Li1 1.926987 1_655
F0 Li4 2.260208 1_555
F1 V3 1.908408 1_555
F1 Li0 1.926987 1_456
F1 Li7 2.260208 1_556
F2 V2 1.907434 1_554
F2 Li2 2.037565 1_555
F2 Li6 2.287190 1_554
F2 Li0 2.479726 1_555
F3 V1 1.907434 1_555
F3 Li3 2.037565 1_555
F3 Li5 2.287190 1_555
F3 Li1 2.479726 1_555
F4 V1 1.947916 1_565
F4 Li10 1.996430 1_555
F4 Li5 2.268713 1_555
F4 Li14 2.376572 1_555
F4 Li12 2.483656 1_555
F5 V2 1.947916 1_565
F5 Li11 1.996430 1_555
F5 Li6 2.268713 1_555
F5 Li15 2.376572 1_555
F5 Li13 2.483656 1_555
F6 V3 1.939882 1_564
F6 Li13 1.987915 1_554
F6 Li7 2.356163 1_555
F6 Li14 2.406544 1_555
F7 V0 1.939882 1_565
F7 Li12 1.987915 1_555
F7 Li4 2.356163 1_555
F7 Li15 2.406544 1_555
