# generated using pymatgen
data_La9ErO15
_symmetry_space_group_name_H-M   'P 1'
_cell_length_a   9.97186319
_cell_length_b   6.79007254
_cell_length_c   7.30229187
_cell_angle_alpha   62.29580633
_cell_angle_beta   108.05814627
_cell_angle_gamma   90.00109407
_symmetry_Int_Tables_number   1
_chemical_formula_structural   La9ErO15
_chemical_formula_sum   'La9 Er1 O15'
_cell_volume   410.04747406
_cell_formula_units_Z   1
loop_
 _symmetry_equiv_pos_site_id
 _symmetry_equiv_pos_as_xyz
  1  'x, y, z'
loop_
 _atom_site_type_symbol
 _atom_site_label
 _atom_site_symmetry_multiplicity
 _atom_site_fract_x
 _atom_site_fract_y
 _atom_site_fract_z
 _atom_site_occupancy
  La  La0  1  0.45127000  0.23065100  0.20486000  1
  La  La1  1  0.84722000  0.03319400  0.59936100  1
  La  La2  1  0.25238500  0.83079100  0.00512100  1
  La  La3  1  0.04698300  0.43312800  0.80037600  1
  La  La4  1  0.35346400  0.37035700  0.59534400  1
  La  La5  1  0.94938500  0.56958200  0.19695100  1
  La  La6  1  0.74934300  0.17005900  0.99228800  1
  La  La7  1  0.15087000  0.96855900  0.39720800  1
  La  La8  1  0.55241800  0.76598600  0.79586000  1
  Er  Er0  1  0.65304500  0.64029400  0.38646100  1
  O  O0  1  0.99884200  0.99996400  0.99904800  1
  O  O1  1  0.66964400  0.99146300  0.32125800  1
  O  O2  1  0.20025300  0.39996700  0.19984900  1
  O  O3  1  0.12827900  0.59108900  0.48281800  1
  O  O4  1  0.47913200  0.60817600  0.13050900  1
  O  O5  1  0.27050600  0.20829000  0.91780200  1
  O  O6  1  0.92817800  0.19240700  0.28371300  1
  O  O7  1  0.60099600  0.20600400  0.60021600  1
  O  O8  1  0.72747100  0.78862300  0.08966200  1
  O  O9  1  0.52881500  0.39003500  0.88872900  1
  O  O10  1  0.07053000  0.80880700  0.71686800  1
  O  O11  1  0.86053900  0.41772000  0.51147700  1
  O  O12  1  0.40425700  0.79437800  0.40397900  1
  O  O13  1  0.33003300  0.98994500  0.68407500  1
  O  O14  1  0.79593900  0.60013100  0.79596600  1
loop_
_geom_bond_atom_site_label_1
_geom_bond_atom_site_label_2
_geom_bond_distance
_geom_bond_site_symmetry_2
La0 O5 2.370576 1_554
La0 O1 2.381424 1_545
La0 O4 2.396354 1_555
La0 O9 2.425271 1_554
La0 O7 2.733212 1_555
La0 O2 2.737304 1_555
La0 O12 2.743521 1_545
La1 O10 2.369871 1_645
La1 O1 2.376049 1_545
La1 O11 2.396129 1_555
La1 O6 2.443344 1_555
La1 O7 2.724311 1_555
La1 O14 2.738452 1_545
La1 O0 2.739930 1_545
La2 O5 2.358215 1_564
La2 O4 2.380225 1_555
La2 O10 2.380574 1_554
La2 O13 2.456244 1_554
La2 O12 2.726462 1_555
La2 O2 2.727679 1_555
La2 O0 2.756263 1_454
La3 O10 2.361443 1_555
La3 O5 2.373218 1_555
La3 O11 2.385719 1_455
La3 O3 2.457173 1_555
La3 O0 2.729489 1_445
La3 O14 2.733126 1_455
La3 O2 2.742479 1_556
La4 O9 2.368306 1_555
La4 O3 2.382222 1_555
La4 O13 2.384134 1_545
La4 O5 2.497620 1_555
La4 O12 2.682630 1_555
La4 O7 2.692244 1_555
La4 O2 2.727617 1_555
La5 O3 2.352872 1_655
La5 O8 2.358945 1_555
La5 O6 2.362080 1_555
La5 O11 2.486506 1_555
La5 O0 2.717845 1_554
La5 O2 2.744011 1_655
La5 O14 2.759665 1_554
La6 O9 2.357474 1_555
La6 O8 2.375904 1_546
La6 O6 2.383150 1_556
La6 O1 2.519494 1_546
La6 O7 2.677567 1_555
La6 O14 2.705386 1_555
La6 O0 2.719801 1_545
La7 O13 2.358753 1_555
La7 O3 2.368172 1_555
La7 O6 2.369865 1_465
La7 O10 2.464185 1_555
La7 O2 2.723020 1_565
La7 O0 2.736433 1_454
La7 O12 2.766574 1_555
La8 O9 2.349687 1_555
La8 O13 2.370704 1_555
La8 O8 2.378745 1_556
La8 O4 2.515223 1_556
La8 O14 2.676435 1_555
La8 O12 2.697191 1_555
La8 O7 2.768122 1_565
Er0 O4 2.217633 1_555
Er0 O1 2.221030 1_555
Er0 O11 2.223697 1_555
Er0 O8 2.286917 1_555
Er0 O12 2.754459 1_555
Er0 O7 2.761152 1_555
Er0 O14 2.765307 1_555
