# generated using pymatgen
data_Li4Cu3WO8
_symmetry_space_group_name_H-M   'P 1'
_cell_length_a   5.70911682
_cell_length_b   5.84923578
_cell_length_c   5.90195677
_cell_angle_alpha   117.33117461
_cell_angle_beta   114.74362099
_cell_angle_gamma   93.41475218
_symmetry_Int_Tables_number   1
_chemical_formula_structural   Li4Cu3WO8
_chemical_formula_sum   'Li4 Cu3 W1 O8'
_cell_volume   151.07476630
_cell_formula_units_Z   1
loop_
 _symmetry_equiv_pos_site_id
 _symmetry_equiv_pos_as_xyz
  1  'x, y, z'
loop_
 _atom_site_type_symbol
 _atom_site_label
 _atom_site_symmetry_multiplicity
 _atom_site_fract_x
 _atom_site_fract_y
 _atom_site_fract_z
 _atom_site_occupancy
  Li  Li0  1  0.50000000  0.50000000  0.00000000  1
  Li  Li1  1  0.00000000  0.50000000  0.50000000  1
  Li  Li2  1  0.50000000  -0.00000000  0.00000000  1
  Li  Li3  1  0.00000000  -0.00000000  0.50000000  1
  Cu  Cu0  1  0.50000000  -0.00000000  0.50000000  1
  Cu  Cu1  1  0.00000000  0.50000000  0.00000000  1
  Cu  Cu2  1  0.50000000  0.50000000  0.50000000  1
  W  W0  1  0.00000000  -0.00000000  0.00000000  1
  O  O0  1  0.25243179  0.71280239  0.44066744  1
  O  O1  1  0.76069203  0.80132013  0.04083392  1
  O  O2  1  0.23252223  0.21058943  0.43601780  1
  O  O3  1  0.74756821  0.28719761  0.55933256  1
  O  O4  1  0.79407749  0.25417747  0.04165669  1
  O  O5  1  0.23930797  0.19867987  0.95916608  1
  O  O6  1  0.76747777  0.78941057  0.56398220  1
  O  O7  1  0.20592251  0.74582253  0.95834331  1
loop_
_geom_bond_atom_site_label_1
_geom_bond_atom_site_label_2
_geom_bond_distance
_geom_bond_site_symmetry_2
Li0 O1 2.092073 1_555
Li0 O5 2.092073 1_554
Li0 O7 2.283280 1_554
Li0 O4 2.283280 1_555
Li0 O6 2.557335 1_555
Li0 O2 2.557335 1_554
Li1 O7 2.081339 1_555
Li1 O4 2.081339 1_455
Li1 O3 2.087570 1_455
Li1 O0 2.087570 1_555
Li1 O2 2.207003 1_555
Li1 O6 2.207003 1_455
Li2 O5 1.945939 1_554
Li2 O1 1.945939 1_545
Li2 O7 2.027582 1_544
Li2 O4 2.027582 1_555
Li2 O3 2.536992 1_555
Li2 O0 2.536992 1_544
Li3 O2 2.018444 1_555
Li3 O6 2.018444 1_445
Li3 O5 2.093000 1_555
Li3 O1 2.093000 1_445
Li3 O0 2.278658 1_545
Li3 O3 2.278658 1_455
Cu0 O3 1.924833 1_555
Cu0 O0 1.924833 1_545
Cu0 O6 2.039681 1_545
Cu0 O2 2.039681 1_555
Cu0 O4 2.468638 1_556
Cu0 O7 2.468638 1_544
Cu1 O4 1.968564 1_455
Cu1 O7 1.968564 1_554
Cu1 O3 2.016534 1_454
Cu1 O0 2.016534 1_555
Cu1 O5 2.281120 1_554
Cu1 O1 2.281120 1_455
Cu2 O3 1.966005 1_555
Cu2 O0 1.966005 1_555
Cu2 O2 1.990608 1_555
Cu2 O6 1.990608 1_555
Cu2 O5 2.460654 1_554
Cu2 O1 2.460654 1_556
O1 W0 1.902338 1_665
O2 W0 1.984057 1_555
O4 W0 1.941005 1_655
O5 W0 1.902338 1_556
O6 W0 1.984057 1_666
O7 W0 1.941005 1_566
