# generated using pymatgen
data_KHgF3
_symmetry_space_group_name_H-M   'P 1'
_cell_length_a   6.40393385
_cell_length_b   6.41619267
_cell_length_c   9.04877947
_cell_angle_alpha   90.00000000
_cell_angle_beta   90.00000000
_cell_angle_gamma   90.00000000
_symmetry_Int_Tables_number   1
_chemical_formula_structural   KHgF3
_chemical_formula_sum   'K4 Hg4 F12'
_cell_volume   371.80415432
_cell_formula_units_Z   4
loop_
 _symmetry_equiv_pos_site_id
 _symmetry_equiv_pos_as_xyz
  1  'x, y, z'
loop_
 _atom_site_type_symbol
 _atom_site_label
 _atom_site_symmetry_multiplicity
 _atom_site_fract_x
 _atom_site_fract_y
 _atom_site_fract_z
 _atom_site_occupancy
  K  K0  1  0.00000000  -0.00000000  0.75000000  1
  K  K1  1  0.50000000  0.50000000  0.75000000  1
  K  K2  1  0.50000000  0.50000000  0.25000000  1
  K  K3  1  -0.00000000  0.00000000  0.25000000  1
  Hg  Hg0  1  -0.00000000  0.50000000  0.00000000  1
  Hg  Hg1  1  0.50000000  -0.00000000  0.50000000  1
  Hg  Hg2  1  0.50000000  0.00000000  -0.00000000  1
  Hg  Hg3  1  -0.00000000  0.50000000  0.50000000  1
  F  F0  1  0.75000000  0.75000000  0.50000000  1
  F  F1  1  0.25000000  0.75000000  -0.00000000  1
  F  F2  1  0.75000000  0.25000000  0.50000000  1
  F  F3  1  0.25000000  0.25000000  0.00000000  1
  F  F4  1  0.25000000  0.25000000  0.50000000  1
  F  F5  1  0.75000000  0.25000000  -0.00000000  1
  F  F6  1  0.25000000  0.75000000  0.50000000  1
  F  F7  1  0.75000000  0.75000000  -0.00000000  1
  F  F8  1  0.00000000  0.50000000  0.75000000  1
  F  F9  1  0.50000000  0.00000000  0.75000000  1
  F  F10  1  0.50000000  0.00000000  0.25000000  1
  F  F11  1  -0.00000000  0.50000000  0.25000000  1
loop_
_geom_bond_atom_site_label_1
_geom_bond_atom_site_label_2
_geom_bond_distance
_geom_bond_site_symmetry_2
F0 Hg1 2.266301 1_565
F0 Hg3 2.266301 1_655
F0 K1 3.202131 1_555
F0 K3 3.202131 1_665
F0 K0 3.202131 1_665
F0 K2 3.202131 1_555
F1 Hg2 2.266301 1_565
F1 Hg0 2.266301 1_555
F1 K1 3.202131 1_554
F1 K0 3.202131 1_564
F1 K3 3.202131 1_565
F1 K2 3.202131 1_555
F2 Hg1 2.266301 1_555
F2 Hg3 2.266301 1_655
F2 K1 3.202131 1_555
F2 K3 3.202131 1_655
F2 K0 3.202131 1_655
F2 K2 3.202131 1_555
F3 Hg2 2.266301 1_555
F3 Hg0 2.266301 1_555
F3 K1 3.202131 1_554
F3 K3 3.202131 1_555
F3 K2 3.202131 1_555
F3 K0 3.202131 1_554
F4 Hg3 2.266301 1_555
F4 Hg1 2.266301 1_555
F4 K1 3.202131 1_555
F4 K3 3.202131 1_555
F4 K2 3.202131 1_555
F4 K0 3.202131 1_555
F5 Hg2 2.266301 1_555
F5 Hg0 2.266301 1_655
F5 K1 3.202131 1_554
F5 K3 3.202131 1_655
F5 K2 3.202131 1_555
F5 K0 3.202131 1_654
F6 Hg1 2.266301 1_565
F6 Hg3 2.266301 1_555
F6 K1 3.202131 1_555
F6 K0 3.202131 1_565
F6 K3 3.202131 1_565
F6 K2 3.202131 1_555
F7 Hg0 2.266301 1_655
F7 Hg2 2.266301 1_565
F7 K1 3.202131 1_554
F7 K3 3.202131 1_665
F7 K0 3.202131 1_664
F7 K2 3.202131 1_555
F8 Hg3 2.262195 1_555
F8 Hg0 2.262195 1_556
F8 K1 3.201967 1_555
F8 K1 3.201967 1_455
F8 K0 3.208096 1_555
F8 K0 3.208096 1_565
F9 Hg1 2.262195 1_555
F9 Hg2 2.262195 1_556
F9 K0 3.201967 1_555
F9 K0 3.201967 1_655
F9 K1 3.208096 1_555
F9 K1 3.208096 1_545
F10 Hg1 2.262195 1_555
F10 Hg2 2.262195 1_555
F10 K3 3.201967 1_655
F10 K3 3.201967 1_555
F10 K2 3.208096 1_555
F10 K2 3.208096 1_545
F11 Hg3 2.262195 1_555
F11 Hg0 2.262195 1_555
F11 K2 3.201967 1_555
F11 K2 3.201967 1_455
F11 K3 3.208096 1_555
F11 K3 3.208096 1_565
