# generated using pymatgen
data_V2Cu3H6O11
_symmetry_space_group_name_H-M   'P 1'
_cell_length_a   6.22151949
_cell_length_b   6.22151949
_cell_length_c   7.19674848
_cell_angle_alpha   83.98015160
_cell_angle_beta   96.01984840
_cell_angle_gamma   123.29743166
_symmetry_Int_Tables_number   1
_chemical_formula_structural   V2Cu3H6O11
_chemical_formula_sum   'V2 Cu3 H6 O11'
_cell_volume   231.17586261
_cell_formula_units_Z   1
loop_
 _symmetry_equiv_pos_site_id
 _symmetry_equiv_pos_as_xyz
  1  'x, y, z'
loop_
 _atom_site_type_symbol
 _atom_site_label
 _atom_site_symmetry_multiplicity
 _atom_site_fract_x
 _atom_site_fract_y
 _atom_site_fract_z
 _atom_site_occupancy
  V  V0  1  0.50539800  0.49460200  0.74959700  1
  V  V1  1  0.49460200  0.50539800  0.25040300  1
  Cu  Cu0  1  0.00000000  0.00000000  0.00000000  1
  Cu  Cu1  1  0.00000000  0.50000000  0.00000000  1
  Cu  Cu2  1  0.50000000  0.00000000  0.00000000  1
  H  H0  1  0.15043000  0.84957000  0.73948700  1
  H  H1  1  0.84957000  0.15043000  0.26051300  1
  H  H2  1  0.01697300  0.72429700  0.43928500  1
  H  H3  1  0.27570300  0.98302700  0.43928500  1
  H  H4  1  0.98302700  0.27570300  0.56071500  1
  H  H5  1  0.72429700  0.01697300  0.56071500  1
  O  O0  1  0.50000000  0.50000000  0.50000000  1
  O  O1  1  0.15324700  0.84675300  0.88246100  1
  O  O2  1  0.84675300  0.15324700  0.11753900  1
  O  O3  1  0.19354400  0.33449900  0.81060700  1
  O  O4  1  0.66550100  0.80645600  0.81060700  1
  O  O5  1  0.80645600  0.66550100  0.18939300  1
  O  O6  1  0.33449900  0.19354400  0.18939300  1
  O  O7  1  0.33752400  0.66247600  0.14580100  1
  O  O8  1  0.66247600  0.33752400  0.85419900  1
  O  O9  1  0.16995500  0.83004500  0.52141500  1
  O  O10  1  0.83004500  0.16995500  0.47858500  1
loop_
_geom_bond_atom_site_label_1
_geom_bond_atom_site_label_2
_geom_bond_distance
_geom_bond_site_symmetry_2
Cu0 O2 1.967233 1_455
Cu0 O1 1.967233 1_544
Cu0 O6 2.153267 1_555
Cu0 O5 2.153267 1_445
Cu0 O3 2.153267 1_554
Cu0 O4 2.153267 1_444
Cu1 O1 1.951069 1_554
Cu1 O2 1.951069 1_455
Cu1 O7 1.990508 1_555
Cu1 O8 1.990508 1_454
Cu1 O3 2.523473 1_554
Cu1 O5 2.523473 1_455
Cu2 O1 1.951069 1_544
Cu2 O2 1.951069 1_555
Cu2 O8 1.990508 1_554
Cu2 O7 1.990508 1_545
Cu2 O6 2.523473 1_555
Cu2 O4 2.523473 1_544
H0 O1 1.025729 1_555
H0 O9 1.608954 1_555
H1 O2 1.025729 1_555
H1 O10 1.608954 1_555
H2 O9 0.981901 1_555
H3 O9 0.981901 1_555
H4 O10 0.981901 1_555
H5 O10 0.981901 1_555
O0 V0 1.790205 1_555
O0 V1 1.790205 1_555
O3 V0 1.707152 1_555
O4 V0 1.707152 1_555
O5 V1 1.707152 1_555
O6 V1 1.707152 1_555
O7 V1 1.793541 1_555
O8 V0 1.793541 1_555
