# generated using pymatgen
data_Yb(Bi3O5)4
_symmetry_space_group_name_H-M   'P 1'
_cell_length_a   8.90630398
_cell_length_b   8.90630398
_cell_length_c   8.90630398
_cell_angle_alpha   109.47122063
_cell_angle_beta   109.47122063
_cell_angle_gamma   109.47122063
_symmetry_Int_Tables_number   1
_chemical_formula_structural   Yb(Bi3O5)4
_chemical_formula_sum   'Yb1 Bi12 O20'
_cell_volume   543.83937842
_cell_formula_units_Z   1
loop_
 _symmetry_equiv_pos_site_id
 _symmetry_equiv_pos_as_xyz
  1  'x, y, z'
loop_
 _atom_site_type_symbol
 _atom_site_label
 _atom_site_symmetry_multiplicity
 _atom_site_fract_x
 _atom_site_fract_y
 _atom_site_fract_z
 _atom_site_occupancy
  Yb  Yb0  1  0.00000000  0.00000000  0.00000000  1
  Bi  Bi0  1  0.85534300  0.17354700  0.68514700  1
  Bi  Bi1  1  0.31820400  0.14465700  0.82980400  1
  Bi  Bi2  1  0.68179600  0.51159900  0.82645300  1
  Bi  Bi3  1  0.82645300  0.68179600  0.51159900  1
  Bi  Bi4  1  0.82980400  0.31820400  0.14465700  1
  Bi  Bi5  1  0.48840100  0.17019600  0.31485300  1
  Bi  Bi6  1  0.51159900  0.82645300  0.68179600  1
  Bi  Bi7  1  0.17019600  0.31485300  0.48840100  1
  Bi  Bi8  1  0.17354700  0.68514700  0.85534300  1
  Bi  Bi9  1  0.68514700  0.85534300  0.17354700  1
  Bi  Bi10  1  0.31485300  0.48840100  0.17019600  1
  Bi  Bi11  1  0.14465700  0.82980400  0.31820400  1
  O  O0  1  0.00000000  0.32690400  0.00000000  1
  O  O1  1  0.62363700  0.24850100  0.88915900  1
  O  O2  1  0.00000000  0.74019500  0.00000000  1
  O  O3  1  0.75149900  0.37513700  0.64065900  1
  O  O4  1  0.73447800  0.11084100  0.35934100  1
  O  O5  1  0.74019500  0.00000000  0.00000000  1
  O  O6  1  0.00000000  0.00000000  0.74019500  1
  O  O7  1  0.37636300  0.26552200  0.62486300  1
  O  O8  1  0.67309600  0.67309600  0.67309600  1
  O  O9  1  0.37513700  0.64065900  0.75149900  1
  O  O10  1  0.11084100  0.35934100  0.73447800  1
  O  O11  1  0.88915900  0.62363700  0.24850100  1
  O  O12  1  0.62486300  0.37636300  0.26552200  1
  O  O13  1  0.32690400  0.00000000  0.00000000  1
  O  O14  1  0.00000000  0.00000000  0.32690400  1
  O  O15  1  0.64065900  0.75149900  0.37513700  1
  O  O16  1  0.25980500  0.25980500  0.25980500  1
  O  O17  1  0.26552200  0.62486300  0.37636300  1
  O  O18  1  0.24850100  0.88915900  0.62363700  1
  O  O19  1  0.35934100  0.73447800  0.11084100  1
loop_
_geom_bond_atom_site_label_1
_geom_bond_atom_site_label_2
_geom_bond_distance
_geom_bond_site_symmetry_2
Bi0 O10 2.108982 1_655
Bi0 O0 2.292111 1_656
Bi0 O3 2.360696 1_555
Bi0 O6 2.387674 1_655
Bi0 O4 2.515380 1_555
Bi1 O18 2.108985 1_545
Bi1 O13 2.292111 1_556
Bi1 O1 2.360690 1_555
Bi1 O6 2.387674 1_555
Bi1 O7 2.515380 1_555
Bi2 O3 2.108972 1_555
Bi2 O8 2.292118 1_555
Bi2 O7 2.360688 1_555
Bi2 O2 2.387676 1_656
Bi2 O1 2.515363 1_555
Bi3 O15 2.108972 1_555
Bi3 O8 2.292118 1_555
Bi3 O12 2.360688 1_555
Bi3 O6 2.387676 1_665
Bi3 O11 2.515363 1_555
Bi4 O1 2.108985 1_554
Bi4 O0 2.292111 1_655
Bi4 O11 2.360690 1_555
Bi4 O5 2.387674 1_555
Bi4 O12 2.515380 1_555
Bi5 O12 2.108979 1_555
Bi5 O13 2.292111 1_555
Bi5 O4 2.360682 1_555
Bi5 O16 2.387682 1_555
Bi5 O3 2.515374 1_555
Bi6 O9 2.108972 1_555
Bi6 O8 2.292118 1_555
Bi6 O17 2.360688 1_555
Bi6 O5 2.387676 1_566
Bi6 O18 2.515363 1_555
Bi7 O7 2.108979 1_555
Bi7 O14 2.292111 1_555
Bi7 O10 2.360682 1_555
Bi7 O16 2.387682 1_555
Bi7 O9 2.515374 1_555
Bi8 O19 2.108982 1_556
Bi8 O13 2.292111 1_566
Bi8 O9 2.360696 1_555
Bi8 O2 2.387674 1_556
Bi8 O10 2.515380 1_555
Bi9 O4 2.108982 1_565
Bi9 O14 2.292111 1_665
Bi9 O15 2.360696 1_555
Bi9 O5 2.387674 1_565
Bi9 O19 2.515380 1_555
Bi10 O17 2.108979 1_555
Bi10 O0 2.292111 1_555
Bi10 O19 2.360682 1_555
Bi10 O16 2.387682 1_555
Bi10 O15 2.515374 1_555
Bi11 O11 2.108985 1_455
Bi11 O14 2.292111 1_565
Bi11 O18 2.360690 1_555
Bi11 O2 2.387674 1_555
Bi11 O17 2.515380 1_555
O0 Yb0 2.911506 1_555
O2 Yb0 2.313902 1_565
O5 Yb0 2.313902 1_655
O6 Yb0 2.313902 1_556
O8 Yb0 2.911506 1_666
O13 Yb0 2.911506 1_555
O14 Yb0 2.911506 1_555
O16 Yb0 2.313902 1_555
