# generated using pymatgen
data_Li4Ti3VO8
_symmetry_space_group_name_H-M   'P 1'
_cell_length_a   5.91293383
_cell_length_b   8.45118469
_cell_length_c   10.24153130
_cell_angle_alpha   113.80406746
_cell_angle_beta   150.00218898
_cell_angle_gamma   45.60877876
_symmetry_Int_Tables_number   1
_chemical_formula_structural   Li4Ti3VO8
_chemical_formula_sum   'Li4 Ti3 V1 O8'
_cell_volume   150.72879132
_cell_formula_units_Z   1
loop_
 _symmetry_equiv_pos_site_id
 _symmetry_equiv_pos_as_xyz
  1  'x, y, z'
loop_
 _atom_site_type_symbol
 _atom_site_label
 _atom_site_symmetry_multiplicity
 _atom_site_fract_x
 _atom_site_fract_y
 _atom_site_fract_z
 _atom_site_occupancy
  Li  Li0  1  0.00393800  0.49677900  0.50079700  1
  Li  Li1  1  0.49793500  0.49643000  0.99672700  1
  Li  Li2  1  0.49226500  0.49846800  0.49638700  1
  Li  Li3  1  0.00603300  0.49619200  0.00120300  1
  Ti  Ti0  1  0.50311300  0.99651100  0.99922300  1
  Ti  Ti1  1  0.00268200  0.99671800  0.49905500  1
  Ti  Ti2  1  0.50303400  0.99639100  0.49890800  1
  V  V0  1  0.00270700  0.99668900  0.99916800  1
  O  O0  1  0.95389500  0.76246500  0.98294300  1
  O  O1  1  0.53367800  0.23105000  0.01513700  1
  O  O2  1  0.53369800  0.23118300  0.50937400  1
  O  O3  1  0.99013900  0.76154700  0.50065600  1
  O  O4  1  0.01772600  0.23052900  0.49816000  1
  O  O5  1  0.47125800  0.76234900  0.98289600  1
  O  O6  1  0.05136900  0.23098800  0.01525400  1
  O  O7  1  0.47216500  0.76177500  0.48893700  1
loop_
_geom_bond_atom_site_label_1
_geom_bond_atom_site_label_2
_geom_bond_distance
_geom_bond_site_symmetry_2
Li0 O7 2.150087 1_455
Li0 O2 2.168742 1_555
Li0 O6 2.175359 1_656
Li0 O3 2.181856 1_455
Li0 O4 2.183701 1_555
Li0 O0 2.188819 1_354
Li1 O7 2.147417 1_455
Li1 O2 2.167054 1_656
Li1 O1 2.172419 1_556
Li1 O0 2.184865 1_455
Li1 O6 2.185028 1_656
Li1 O5 2.194934 1_555
Li2 O2 2.142905 1_555
Li2 O3 2.161237 1_455
Li2 O5 2.171427 1_454
Li2 O7 2.173254 1_555
Li2 O1 2.192656 1_656
Li2 O4 2.207577 1_655
Li3 O4 2.104100 1_655
Li3 O5 2.110856 1_454
Li3 O0 2.112624 1_454
Li3 O6 2.113969 1_555
Li3 O1 2.116860 1_555
Li3 O3 2.118292 1_354
O0 Ti0 2.042542 1_555
O0 Ti1 2.043243 1_555
O0 V0 2.116593 1_655
O1 Ti2 2.042799 1_645
O1 Ti0 2.043888 1_544
O1 V0 2.116590 1_644
O2 Ti0 2.067699 1_645
O2 Ti1 2.068366 1_645
O2 Ti2 2.068746 1_545
O3 Ti2 2.043666 1_555
O3 Ti1 2.047063 1_655
O3 V0 2.117092 1_554
O4 Ti1 2.043147 1_545
O4 Ti2 2.044459 1_545
O4 V0 2.115180 1_645
O5 Ti2 2.043563 1_455
O5 Ti0 2.044386 1_555
O5 V0 2.117139 1_555
O6 Ti1 2.042846 1_645
O6 Ti0 2.044503 1_544
O6 V0 2.117179 1_544
O7 Ti0 2.067129 1_454
O7 Ti1 2.068775 1_555
O7 Ti2 2.070216 1_555
