# generated using pymatgen
data_Li2Cr3FeO8
_symmetry_space_group_name_H-M   'P 1'
_cell_length_a   5.89004469
_cell_length_b   5.89004469
_cell_length_c   5.89004414
_cell_angle_alpha   60.21856933
_cell_angle_beta   60.21856933
_cell_angle_gamma   60.21856091
_symmetry_Int_Tables_number   1
_chemical_formula_structural   Li2Cr3FeO8
_chemical_formula_sum   'Li2 Cr3 Fe1 O8'
_cell_volume   145.20600278
_cell_formula_units_Z   1
loop_
 _symmetry_equiv_pos_site_id
 _symmetry_equiv_pos_as_xyz
  1  'x, y, z'
loop_
 _atom_site_type_symbol
 _atom_site_label
 _atom_site_symmetry_multiplicity
 _atom_site_fract_x
 _atom_site_fract_y
 _atom_site_fract_z
 _atom_site_occupancy
  Li  Li0  1  0.87555800  0.87555800  0.87555800  1
  Li  Li1  1  0.49976300  0.49976300  0.49976300  1
  Cr  Cr0  1  0.98878300  0.50245200  0.50245200  1
  Cr  Cr1  1  0.50245200  0.98878300  0.50245200  1
  Cr  Cr2  1  0.50245200  0.50245200  0.98878300  1
  Fe  Fe0  1  0.11940700  0.11940700  0.11940700  1
  O  O0  1  0.73933500  0.73933500  0.73933500  1
  O  O1  1  0.75143300  0.75143300  0.28623300  1
  O  O2  1  0.75143300  0.28623300  0.75143300  1
  O  O3  1  0.28623300  0.75143300  0.75143300  1
  O  O4  1  0.72387900  0.25169800  0.25169800  1
  O  O5  1  0.25169800  0.72387900  0.25169800  1
  O  O6  1  0.25169800  0.25169800  0.72387900  1
  O  O7  1  0.25587400  0.25587400  0.25587400  1
loop_
_geom_bond_atom_site_label_1
_geom_bond_atom_site_label_2
_geom_bond_distance
_geom_bond_site_symmetry_2
Li0 O0 1.962119 1_555
Li0 O1 1.984319 1_556
Li0 O3 1.984319 1_655
Li0 O2 1.984319 1_565
Li1 O4 2.073885 1_555
Li1 O5 2.073885 1_555
Li1 O6 2.073886 1_555
Li1 O2 2.110759 1_555
Li1 O3 2.110759 1_555
Li1 O1 2.110759 1_555
Cr0 O1 1.898334 1_555
Cr0 O2 1.898334 1_555
Cr0 O0 1.978174 1_555
Cr0 O6 2.025146 1_655
Cr0 O5 2.025147 1_655
Cr0 O7 2.061442 1_655
Cr1 O1 1.898334 1_555
Cr1 O3 1.898334 1_555
Cr1 O0 1.978174 1_555
Cr1 O6 2.025146 1_565
Cr1 O4 2.025147 1_565
Cr1 O7 2.061442 1_565
Cr2 O2 1.898334 1_555
Cr2 O3 1.898334 1_555
Cr2 O0 1.978174 1_555
Cr2 O4 2.025146 1_556
Cr2 O5 2.025146 1_556
Cr2 O7 2.061442 1_556
Fe0 O6 1.907429 1_554
Fe0 O5 1.907429 1_545
Fe0 O4 1.907429 1_455
Fe0 O7 1.965633 1_555
