# generated using pymatgen
data_Li2MnFe(BO3)2
_symmetry_space_group_name_H-M   'P 1'
_cell_length_a   5.23562600
_cell_length_b   5.23824851
_cell_length_c   20.84927896
_cell_angle_alpha   92.06594364
_cell_angle_beta   89.12476946
_cell_angle_gamma   119.92453552
_symmetry_Int_Tables_number   1
_chemical_formula_structural   Li2MnFe(BO3)2
_chemical_formula_sum   'Li8 Mn4 Fe4 B8 O24'
_cell_volume   495.24674091
_cell_formula_units_Z   4
loop_
 _symmetry_equiv_pos_site_id
 _symmetry_equiv_pos_as_xyz
  1  'x, y, z'
loop_
 _atom_site_type_symbol
 _atom_site_label
 _atom_site_symmetry_multiplicity
 _atom_site_fract_x
 _atom_site_fract_y
 _atom_site_fract_z
 _atom_site_occupancy
  Li  Li0  1  0.01382200  0.67400400  0.33413300  1
  Li  Li1  1  0.97661700  0.65244700  0.08443500  1
  Li  Li2  1  0.02512400  0.68058200  0.83216400  1
  Li  Li3  1  0.97808500  0.64816700  0.58447300  1
  Li  Li4  1  0.02046400  0.34786100  0.20770100  1
  Li  Li5  1  0.98853700  0.33498800  0.45811900  1
  Li  Li6  1  0.01450200  0.36287700  0.70801900  1
  Li  Li7  1  0.98872700  0.33603600  0.95886000  1
  Mn  Mn0  1  0.66095400  0.66906700  0.44172700  1
  Mn  Mn1  1  0.66456400  0.66808100  0.94152400  1
  Mn  Mn2  1  0.32335300  0.32143000  0.06865900  1
  Mn  Mn3  1  0.67599000  0.00475900  0.81573400  1
  Fe  Fe0  1  0.31651100  0.31380400  0.56550800  1
  Fe  Fe1  1  0.67904100  0.00658700  0.31640600  1
  Fe  Fe2  1  0.33428200  0.99595700  0.19293300  1
  Fe  Fe3  1  0.34371000  0.01638000  0.68990800  1
  B  B0  1  0.65758900  0.99539700  0.06467800  1
  B  B1  1  0.65999900  0.99135400  0.56394300  1
  B  B2  1  0.67188400  0.67068700  0.18991500  1
  B  B3  1  0.66308500  0.67464500  0.68611300  1
  B  B4  1  0.33246800  0.33471200  0.31223700  1
  B  B5  1  0.34107500  0.34155600  0.81122900  1
  B  B6  1  0.33523300  0.00238000  0.43770100  1
  B  B7  1  0.33695900  0.00307200  0.93801400  1
  O  O0  1  0.68777800  0.93666600  0.20860400  1
  O  O1  1  0.67759000  0.93947400  0.70658700  1
  O  O2  1  0.67859600  0.74428100  0.04879400  1
  O  O3  1  0.38977800  0.96479600  0.08559200  1
  O  O4  1  0.67436400  0.73647800  0.54887500  1
  O  O5  1  0.39488200  0.97320700  0.58247300  1
  O  O6  1  0.40024200  0.41986600  0.17588900  1
  O  O7  1  0.08512100  0.72757500  0.43050300  1
  O  O8  1  0.38809800  0.42465000  0.67204100  1
  O  O9  1  0.08795200  0.72829300  0.93026900  1
  O  O10  1  0.92598100  0.65185000  0.18251700  1
  O  O11  1  0.91857600  0.66136400  0.67938500  1
  O  O12  1  0.08103300  0.35898900  0.30592300  1
  O  O13  1  0.09510800  0.37214900  0.80462500  1
  O  O14  1  0.90315800  0.27146800  0.05746200  1
  O  O15  1  0.59692100  0.58103000  0.33162600  1
  O  O16  1  0.91220200  0.26565800  0.55765000  1
  O  O17  1  0.60985300  0.57927100  0.83235100  1
  O  O18  1  0.61200100  0.03648900  0.42211700  1
  O  O19  1  0.61381400  0.03734000  0.92218900  1
  O  O20  1  0.31407700  0.24569500  0.45942300  1
  O  O21  1  0.31498600  0.24572200  0.96015900  1
  O  O22  1  0.31669800  0.06329900  0.29873400  1
  O  O23  1  0.31862000  0.06876000  0.79587800  1
loop_
_geom_bond_atom_site_label_1
_geom_bond_atom_site_label_2
_geom_bond_distance
_geom_bond_site_symmetry_2
Li0 O12 1.922425 1_555
Li0 O15 1.986279 1_455
Li0 O22 2.015981 1_565
Li0 O7 2.032956 1_555
Li1 O14 1.899144 1_555
Li1 O3 1.955609 1_655
Li1 O2 2.007059 1_555
Li1 O10 2.057946 1_555
Li2 O13 1.895145 1_555
Li2 O17 1.964052 1_455
Li2 O23 2.006533 1_565
Li2 O9 2.063026 1_555
Li3 O16 1.918851 1_555
Li3 O5 1.989477 1_655
Li3 O11 2.002618 1_555
Li3 O4 2.021934 1_555
Li4 O6 1.940437 1_555
Li4 O10 1.977416 1_455
Li4 O0 1.983043 1_445
Li4 O12 2.071346 1_555
Li5 O18 1.944182 1_555
Li5 O7 1.963473 1_655
Li5 O20 1.980467 1_655
Li5 O16 2.117086 1_555
Li6 O8 1.958198 1_555
Li6 O11 1.978197 1_455
Li6 O1 2.030999 1_445
Li6 O13 2.058103 1_555
Li7 O19 1.944485 1_555
Li7 O9 1.964947 1_655
Li7 O21 1.987711 1_655
Li7 O14 2.100513 1_556
Mn0 O20 2.091120 1_555
Mn0 O7 2.095418 1_655
Mn0 O18 2.118777 1_565
Mn0 O4 2.245745 1_555
Mn0 O15 2.321086 1_555
Mn1 O9 2.088107 1_655
Mn1 O21 2.096616 1_555
Mn1 O19 2.132318 1_565
Mn1 O2 2.253456 1_556
Mn1 O17 2.300017 1_555
Mn2 O14 2.097559 1_455
Mn2 O3 2.105953 1_545
Mn2 O2 2.114084 1_555
Mn2 O6 2.272317 1_555
Mn2 O21 2.279806 1_554
Mn3 O13 2.091816 1_655
Mn3 O23 2.108113 1_555
Mn3 O17 2.118853 1_545
Mn3 O19 2.251082 1_555
Mn3 O1 2.289477 1_545
Fe0 O16 2.011544 1_455
Fe0 O5 2.063233 1_545
Fe0 O4 2.104618 1_555
Fe0 O20 2.226863 1_555
Fe0 O8 2.264152 1_555
Fe1 O12 2.005936 1_655
Fe1 O15 2.084551 1_545
Fe1 O22 2.101070 1_555
Fe1 O18 2.238676 1_555
Fe1 O0 2.267629 1_545
Fe2 O10 2.001882 1_455
Fe2 O0 2.056177 1_555
Fe2 O6 2.112910 1_565
Fe2 O22 2.229100 1_565
Fe2 O3 2.262907 1_555
Fe3 O1 2.017486 1_545
Fe3 O11 2.077616 1_445
Fe3 O8 2.079756 1_555
Fe3 O23 2.226514 1_555
Fe3 O5 2.268449 1_545
B0 O14 1.386250 1_565
B0 O3 1.394270 1_555
B0 O2 1.401389 1_555
B1 O5 1.392697 1_555
B1 O16 1.393092 1_565
B1 O4 1.398597 1_555
B2 O10 1.388157 1_555
B2 O0 1.395031 1_555
B2 O6 1.398257 1_555
B3 O11 1.378495 1_555
B3 O1 1.402000 1_555
B3 O8 1.406382 1_555
B4 O12 1.392835 1_555
B4 O15 1.393687 1_555
B4 O22 1.400757 1_555
B5 O13 1.384181 1_555
B5 O17 1.398521 1_555
B5 O23 1.399565 1_555
B6 O7 1.385339 1_545
B6 O20 1.392675 1_555
B6 O18 1.403117 1_555
B7 O9 1.383813 1_545
B7 O21 1.394260 1_555
B7 O19 1.404357 1_555
