# generated using pymatgen
data_Na2LiMnPCO7
_symmetry_space_group_name_H-M   'P 1'
_cell_length_a   5.29361136
_cell_length_b   6.88263100
_cell_length_c   8.85071421
_cell_angle_alpha   90.00083041
_cell_angle_beta   94.28593553
_cell_angle_gamma   89.99995782
_symmetry_Int_Tables_number   1
_chemical_formula_structural   Na2LiMnPCO7
_chemical_formula_sum   'Na4 Li2 Mn2 P2 C2 O14'
_cell_volume   321.56491337
_cell_formula_units_Z   2
loop_
 _symmetry_equiv_pos_site_id
 _symmetry_equiv_pos_as_xyz
  1  'x, y, z'
loop_
 _atom_site_type_symbol
 _atom_site_label
 _atom_site_symmetry_multiplicity
 _atom_site_fract_x
 _atom_site_fract_y
 _atom_site_fract_z
 _atom_site_occupancy
  Na  Na0  1  0.28567200  0.99642400  0.74710300  1
  Na  Na1  1  0.28568000  0.50358200  0.74710100  1
  Na  Na2  1  0.71432700  0.49638500  0.25284600  1
  Na  Na3  1  0.71433700  0.00360800  0.25285000  1
  Li  Li0  1  0.87832300  0.25000600  0.87649300  1
  Li  Li1  1  0.12166200  0.74999600  0.12348500  1
  Mn  Mn0  1  0.20330300  0.24999600  0.35816700  1
  Mn  Mn1  1  0.79688400  0.75000000  0.64193600  1
  P  P0  1  0.71738300  0.24999800  0.59097500  1
  P  P1  1  0.28267500  0.74999700  0.40903900  1
  C  C0  1  0.76190200  0.75000400  0.94316800  1
  C  C1  1  0.23799600  0.24999800  0.05682200  1
  O  O0  1  0.26778700  0.25001100  0.91308400  1
  O  O1  1  0.73216800  0.74999400  0.08690800  1
  O  O2  1  0.99272500  0.75000100  0.89855900  1
  O  O3  1  0.00713100  0.24999800  0.10140200  1
  O  O4  1  0.57034600  0.75001100  0.84285800  1
  O  O5  1  0.42952100  0.24999500  0.15715400  1
  O  O6  1  0.17239400  0.74999800  0.56669300  1
  O  O7  1  0.82758400  0.25000100  0.43330700  1
  O  O8  1  0.42190900  0.24999500  0.56801600  1
  O  O9  1  0.57813400  0.74999700  0.43205600  1
  O  O10  1  0.80713700  0.07028200  0.68847400  1
  O  O11  1  0.80712500  0.42972500  0.68847300  1
  O  O12  1  0.19294300  0.57025800  0.31152200  1
  O  O13  1  0.19294600  0.92973200  0.31152400  1
loop_
_geom_bond_atom_site_label_1
_geom_bond_atom_site_label_2
_geom_bond_distance
_geom_bond_site_symmetry_2
Na0 O0 2.287798 1_565
Na0 O6 2.375424 1_555
Na0 O4 2.382147 1_555
Na0 O8 2.499855 1_565
Na0 O10 2.597729 1_465
Na0 O2 2.718284 1_455
Na0 O10 2.891673 1_565
Na1 O0 2.287762 1_555
Na1 O6 2.375404 1_555
Na1 O4 2.382189 1_555
Na1 O8 2.499873 1_555
Na1 O11 2.597826 1_455
Na1 O2 2.718276 1_455
Na1 O11 2.891564 1_555
Na2 O1 2.287680 1_555
Na2 O7 2.375522 1_555
Na2 O5 2.382270 1_555
Na2 O9 2.500655 1_555
Na2 O12 2.598212 1_655
Na2 O3 2.717587 1_655
Na2 O12 2.891377 1_555
Na3 O1 2.287691 1_545
Na3 O7 2.375500 1_555
Na3 O5 2.382314 1_555
Na3 O9 2.500677 1_545
Na3 O13 2.598180 1_645
Na3 O3 2.717612 1_655
Na3 O13 2.891416 1_545
Li0 O3 2.055375 1_656
Li0 O0 2.062904 1_655
Li0 O10 2.085079 1_555
Li0 O11 2.085102 1_555
Li1 O2 2.055694 1_454
Li1 O1 2.063051 1_455
Li1 O13 2.085330 1_555
Li1 O12 2.085351 1_555
Mn0 O8 2.113648 1_555
Mn0 O7 2.143770 1_455
Mn0 O5 2.217589 1_555
Mn0 O13 2.242494 1_545
Mn0 O12 2.242495 1_555
Mn0 O3 2.426965 1_555
Mn1 O9 2.114245 1_555
Mn1 O6 2.143064 1_655
Mn1 O4 2.217927 1_555
Mn1 O11 2.242402 1_555
Mn1 O10 2.242440 1_565
Mn1 O2 2.425201 1_555
C0 O1 1.293523 1_556
C0 O4 1.296880 1_555
C0 O2 1.311869 1_555
C1 O0 1.293564 1_554
C1 O5 1.296882 1_555
C1 O3 1.311986 1_555
O6 P1 1.552276 1_555
O7 P0 1.552204 1_555
O8 P0 1.562137 1_555
O9 P1 1.562086 1_555
O10 P0 1.561767 1_555
O11 P0 1.561786 1_555
O12 P1 1.561927 1_555
O13 P1 1.561911 1_555
