# generated using pymatgen
data_Ba3(BrO)2
_symmetry_space_group_name_H-M   'P 1'
_cell_length_a   6.47916700
_cell_length_b   11.05707300
_cell_length_c   13.79738200
_cell_angle_alpha   90.00000000
_cell_angle_beta   90.00000000
_cell_angle_gamma   90.00000000
_symmetry_Int_Tables_number   1
_chemical_formula_structural   Ba3(BrO)2
_chemical_formula_sum   'Ba12 Br8 O8'
_cell_volume   988.45303533
_cell_formula_units_Z   4
loop_
 _symmetry_equiv_pos_site_id
 _symmetry_equiv_pos_as_xyz
  1  'x, y, z'
loop_
 _atom_site_type_symbol
 _atom_site_label
 _atom_site_symmetry_multiplicity
 _atom_site_fract_x
 _atom_site_fract_y
 _atom_site_fract_z
 _atom_site_occupancy
  Ba  Ba0  1  0.75000000  0.07130900  0.06430400  1
  Ba  Ba1  1  0.75000000  0.12238400  0.79163400  1
  Ba  Ba2  1  0.25000000  0.21978700  0.45373700  1
  Ba  Ba3  1  0.25000000  0.28021300  0.95373700  1
  Ba  Ba4  1  0.75000000  0.37761600  0.29163400  1
  Ba  Ba5  1  0.75000000  0.42869100  0.56430400  1
  Ba  Ba6  1  0.25000000  0.57130900  0.43569600  1
  Ba  Ba7  1  0.25000000  0.62238400  0.70836600  1
  Ba  Ba8  1  0.75000000  0.71978700  0.04626300  1
  Ba  Ba9  1  0.75000000  0.78021300  0.54626300  1
  Ba  Ba10  1  0.25000000  0.87761600  0.20836600  1
  Ba  Ba11  1  0.25000000  0.92869100  0.93569600  1
  Br  Br0  1  0.75000000  0.10660500  0.54305600  1
  Br  Br1  1  0.25000000  0.18194300  0.20467600  1
  Br  Br2  1  0.25000000  0.31805700  0.70467600  1
  Br  Br3  1  0.75000000  0.39339500  0.04305600  1
  Br  Br4  1  0.25000000  0.60660500  0.95694400  1
  Br  Br5  1  0.75000000  0.68194300  0.29532400  1
  Br  Br6  1  0.75000000  0.81805700  0.79532400  1
  Br  Br7  1  0.25000000  0.89339500  0.45694400  1
  O  O0  1  0.00213700  0.11452200  0.92119700  1
  O  O1  1  0.49786300  0.11452200  0.92119700  1
  O  O2  1  0.00213700  0.38547800  0.42119700  1
  O  O3  1  0.49786300  0.38547800  0.42119700  1
  O  O4  1  0.99786300  0.61452200  0.57880300  1
  O  O5  1  0.50213700  0.61452200  0.57880300  1
  O  O6  1  0.99786300  0.88547800  0.07880300  1
  O  O7  1  0.50213700  0.88547800  0.07880300  1
loop_
_geom_bond_atom_site_label_1
_geom_bond_atom_site_label_2
_geom_bond_distance
_geom_bond_site_symmetry_2
Ba0 O1 2.606862 1_554
Ba0 O0 2.606862 1_654
Ba0 O6 2.615543 1_545
Ba0 O7 2.615543 1_545
Ba0 Br3 3.573375 1_555
Ba0 Br1 3.967669 1_555
Ba0 Br1 3.967669 1_655
Ba1 O1 2.423211 1_555
Ba1 O0 2.423211 1_655
Ba1 Br6 3.365351 1_545
Ba1 Br0 3.434160 1_555
Ba1 Br2 4.076204 1_555
Ba1 Br2 4.076204 1_655
Ba2 O2 2.477311 1_555
Ba2 O3 2.477311 1_555
Ba2 Br1 3.461773 1_555
Ba2 Br7 3.609211 1_545
Ba2 Br2 3.628799 1_555
Ba2 Br0 3.685077 1_455
Ba2 Br0 3.685077 1_555
Ba3 O0 2.477311 1_555
Ba3 O1 2.477311 1_555
Ba3 Br2 3.461773 1_555
Ba3 Br4 3.609211 1_555
Ba3 Br1 3.628799 1_556
Ba3 Br3 3.685077 1_456
Ba3 Br3 3.685077 1_556
Ba4 O3 2.423211 1_555
Ba4 O2 2.423211 1_655
Ba4 Br5 3.365351 1_555
Ba4 Br3 3.434160 1_555
Ba4 Br1 4.076204 1_655
Ba4 Br1 4.076204 1_555
Ba5 O2 2.606862 1_655
Ba5 O3 2.606862 1_555
Ba5 O4 2.615543 1_555
Ba5 O5 2.615543 1_555
Ba5 Br0 3.573375 1_555
Ba5 Br2 3.967669 1_655
Ba5 Br2 3.967669 1_555
Ba6 O5 2.606862 1_555
Ba6 O4 2.606862 1_455
Ba6 O2 2.615543 1_555
Ba6 O3 2.615543 1_555
Ba6 Br7 3.573375 1_555
Ba6 Br5 3.967669 1_455
Ba6 Br5 3.967669 1_555
Ba7 O5 2.423211 1_555
Ba7 O4 2.423211 1_455
Ba7 Br2 3.365351 1_555
Ba7 Br4 3.434160 1_555
Ba7 Br6 4.076204 1_455
Ba7 Br6 4.076204 1_555
Ba8 O7 2.477311 1_555
Ba8 O6 2.477311 1_555
Ba8 Br5 3.461773 1_555
Ba8 Br3 3.609211 1_555
Ba8 Br6 3.628799 1_554
Ba8 Br4 3.685077 1_554
Ba8 Br4 3.685077 1_654
Ba9 O4 2.477311 1_555
Ba9 O5 2.477311 1_555
Ba9 Br6 3.461773 1_555
Ba9 Br0 3.609211 1_565
Ba9 Br5 3.628799 1_555
Ba9 Br7 3.685077 1_655
Ba9 Br7 3.685077 1_555
Ba10 O6 2.423211 1_455
Ba10 O7 2.423211 1_555
Ba10 Br1 3.365351 1_565
Ba10 Br7 3.434160 1_555
Ba10 Br5 4.076204 1_455
Ba10 Br5 4.076204 1_555
Ba11 O6 2.606862 1_456
Ba11 O7 2.606862 1_556
Ba11 O0 2.615543 1_565
Ba11 O1 2.615543 1_565
Ba11 Br4 3.573375 1_555
Ba11 Br6 3.967669 1_555
Ba11 Br6 3.967669 1_455
