# generated using pymatgen
data_NaRuO2
_symmetry_space_group_name_H-M   'P 1'
_cell_length_a   3.11705979
_cell_length_b   3.11705979
_cell_length_c   5.62753327
_cell_angle_alpha   73.92190922
_cell_angle_beta   73.92190922
_cell_angle_gamma   60.00000452
_symmetry_Int_Tables_number   1
_chemical_formula_structural   NaRuO2
_chemical_formula_sum   'Na1 Ru1 O2'
_cell_volume   44.86552294
_cell_formula_units_Z   1
loop_
 _symmetry_equiv_pos_site_id
 _symmetry_equiv_pos_as_xyz
  1  'x, y, z'
loop_
 _atom_site_type_symbol
 _atom_site_label
 _atom_site_symmetry_multiplicity
 _atom_site_fract_x
 _atom_site_fract_y
 _atom_site_fract_z
 _atom_site_occupancy
  Na  Na0  1  0.00000000  0.00000000  0.00000000  1
  Ru  Ru0  1  0.50000000  0.50000000  0.50000000  1
  O  O0  1  0.76458400  0.76458400  0.70624800  1
  O  O1  1  0.23541600  0.23541600  0.29375200  1
loop_
_geom_bond_atom_site_label_1
_geom_bond_atom_site_label_2
_geom_bond_distance
_geom_bond_site_symmetry_2
Na0 O1 2.385782 1_555
Na0 O0 2.385782 1_444
Na0 O0 2.385782 1_454
Na0 O0 2.385782 1_544
Na0 O1 2.385782 1_455
Na0 O1 2.385782 1_545
O0 Ru0 2.109044 1_555
O0 Ru0 2.109044 1_565
O0 Ru0 2.109044 1_655
O1 Ru0 2.109044 1_555
O1 Ru0 2.109044 1_545
O1 Ru0 2.109044 1_455
