# generated using pymatgen
data_Li4Nb2Co3Ni3O16
_symmetry_space_group_name_H-M   'P 1'
_cell_length_a   5.86583974
_cell_length_b   5.78983387
_cell_length_c   9.51853660
_cell_angle_alpha   90.28880365
_cell_angle_beta   91.62602625
_cell_angle_gamma   119.42680166
_symmetry_Int_Tables_number   1
_chemical_formula_structural   Li4Nb2Co3Ni3O16
_chemical_formula_sum   'Li4 Nb2 Co3 Ni3 O16'
_cell_volume   281.38344433
_cell_formula_units_Z   1
loop_
 _symmetry_equiv_pos_site_id
 _symmetry_equiv_pos_as_xyz
  1  'x, y, z'
loop_
 _atom_site_type_symbol
 _atom_site_label
 _atom_site_symmetry_multiplicity
 _atom_site_fract_x
 _atom_site_fract_y
 _atom_site_fract_z
 _atom_site_occupancy
  Li  Li0  1  0.32126500  0.66105500  0.89939100  1
  Li  Li1  1  0.00375500  0.00225900  0.99337000  1
  Li  Li2  1  0.00826800  0.00276700  0.49345100  1
  Li  Li3  1  0.66414000  0.33470800  0.39602800  1
  Nb  Nb0  1  0.33765100  0.66339400  0.49699800  1
  Nb  Nb1  1  0.65379000  0.32528900  0.99508600  1
  Co  Co0  1  0.17426800  0.83300400  0.21657600  1
  Co  Co1  1  0.17021100  0.33970100  0.21478200  1
  Co  Co2  1  0.34232800  0.17082400  0.71664100  1
  Ni  Ni0  1  0.66239300  0.83003500  0.21352400  1
  Ni  Ni1  1  0.83346400  0.66288200  0.71558100  1
  Ni  Ni2  1  0.83284100  0.16997500  0.71554400  1
  O  O0  1  0.18127100  0.84473100  0.59363800  1
  O  O1  1  0.03781000  0.52107200  0.33123100  1
  O  O2  1  0.30721900  0.65793800  0.11303200  1
  O  O3  1  0.02206500  0.00659200  0.30460200  1
  O  O4  1  0.02035300  0.01126900  0.80423400  1
  O  O5  1  0.17884200  0.33382300  0.59482700  1
  O  O6  1  0.46587000  0.96484500  0.33637500  1
  O  O7  1  0.47060100  0.50962200  0.33838000  1
  O  O8  1  0.32778200  0.16325300  0.10549500  1
  O  O9  1  0.68210700  0.84301000  0.58868800  1
  O  O10  1  0.50095500  0.47066500  0.84346400  1
  O  O11  1  0.50049000  0.03009300  0.84265300  1
  O  O12  1  0.64962400  0.32345100  0.61603500  1
  O  O13  1  0.84782100  0.67290600  0.09295000  1
  O  O14  1  0.95828300  0.47794400  0.84208600  1
  O  O15  1  0.84453100  0.17319100  0.09317900  1
loop_
_geom_bond_atom_site_label_1
_geom_bond_atom_site_label_2
_geom_bond_distance
_geom_bond_site_symmetry_2
Li0 O14 1.914454 1_455
Li0 O10 1.943482 1_555
Li0 O11 1.949067 1_565
Li0 O2 2.037365 1_556
Li1 O4 1.805319 1_555
Li1 O15 1.924443 1_456
Li1 O13 1.929991 1_446
Li1 O8 1.937651 1_556
Li2 O3 1.801438 1_555
Li2 O0 1.908605 1_545
Li2 O5 1.910045 1_555
Li2 O9 1.925014 1_445
Li3 O7 1.927569 1_555
Li3 O6 1.940055 1_545
Li3 O1 2.026945 1_655
Li3 O12 2.098328 1_555
Nb0 O5 1.922618 1_555
Nb0 O9 1.936945 1_555
Nb0 O0 1.942785 1_555
Nb0 O7 2.101406 1_555
Nb0 O1 2.160411 1_555
Nb0 O6 2.179843 1_555
Nb1 O15 1.953536 1_556
Nb1 O13 1.970762 1_556
Nb1 O8 2.000663 1_556
Nb1 O11 2.055661 1_555
Nb1 O10 2.067696 1_555
Nb1 O14 2.168332 1_555
Co0 O6 1.845620 1_555
Co0 O2 1.848583 1_555
Co0 O3 1.850654 1_565
Co0 O1 1.934541 1_555
Co0 O8 1.991839 1_565
Co0 O13 2.006914 1_455
Co1 O2 1.893661 1_555
Co1 O3 1.902026 1_555
Co1 O7 1.903694 1_555
Co1 O1 1.942424 1_555
Co1 O8 1.987915 1_555
Co1 O15 1.993061 1_455
Co2 O12 1.867729 1_555
Co2 O4 1.870369 1_555
Co2 O11 1.911236 1_555
Co2 O10 1.914342 1_555
Co2 O0 1.997551 1_545
Co2 O5 1.997983 1_555
Ni0 O3 2.003934 1_665
Ni0 O2 2.021331 1_555
Ni0 O7 2.041303 1_555
Ni0 O6 2.063238 1_555
Ni0 O13 2.088195 1_555
Ni0 O15 2.099447 1_565
Ni1 O4 1.933925 1_665
Ni1 O12 1.940027 1_555
Ni1 O14 1.966183 1_555
Ni1 O9 2.048528 1_555
Ni1 O10 2.130720 1_555
Ni1 O0 2.157344 1_655
Ni2 O4 1.927454 1_655
Ni2 O12 1.931555 1_555
Ni2 O14 1.952041 1_555
Ni2 O9 2.023648 1_545
Ni2 O11 2.124302 1_555
Ni2 O5 2.142639 1_655
