# generated using pymatgen
data_Ti3Mn2Sb(PO4)6
_symmetry_space_group_name_H-M   'P 1'
_cell_length_a   8.76778680
_cell_length_b   8.76778680
_cell_length_c   8.76778687
_cell_angle_alpha   60.14399788
_cell_angle_beta   60.14399788
_cell_angle_gamma   60.14400391
_symmetry_Int_Tables_number   1
_chemical_formula_structural   Ti3Mn2Sb(PO4)6
_chemical_formula_sum   'Ti3 Mn2 Sb1 P6 O24'
_cell_volume   478.15560545
_cell_formula_units_Z   1
loop_
 _symmetry_equiv_pos_site_id
 _symmetry_equiv_pos_as_xyz
  1  'x, y, z'
loop_
 _atom_site_type_symbol
 _atom_site_label
 _atom_site_symmetry_multiplicity
 _atom_site_fract_x
 _atom_site_fract_y
 _atom_site_fract_z
 _atom_site_occupancy
  Ti  Ti0  1  0.14585800  0.14585800  0.14585800  1
  Ti  Ti1  1  0.35283100  0.35283100  0.35283100  1
  Ti  Ti2  1  0.64624300  0.64624300  0.64624300  1
  Mn  Mn0  1  0.00047900  0.00047900  0.00047900  1
  Mn  Mn1  1  0.49905700  0.49905700  0.49905700  1
  Sb  Sb0  1  0.85217700  0.85217700  0.85217700  1
  P  P0  1  0.74808800  0.05164900  0.44310600  1
  P  P1  1  0.05164900  0.44310600  0.74808800  1
  P  P2  1  0.53649600  0.26087400  0.95706200  1
  P  P3  1  0.95706200  0.53649600  0.26087400  1
  P  P4  1  0.26087400  0.95706200  0.53649600  1
  P  P5  1  0.44310600  0.74808800  0.05164900  1
  O  O0  1  0.33487200  0.11158800  0.47837800  1
  O  O1  1  0.47837800  0.33487200  0.11158800  1
  O  O2  1  0.91024400  0.06474700  0.25352200  1
  O  O3  1  0.11158800  0.47837800  0.33487200  1
  O  O4  1  0.80602400  0.03282200  0.59112600  1
  O  O5  1  0.58473400  0.24141100  0.42176400  1
  O  O6  1  0.06474700  0.25352200  0.91024400  1
  O  O7  1  0.24141100  0.42176400  0.58473400  1
  O  O8  1  0.38456200  0.18974000  0.99951000  1
  O  O9  1  0.42176400  0.58473400  0.24141100  1
  O  O10  1  0.72977100  0.10832500  0.95226200  1
  O  O11  1  0.99951000  0.38456200  0.18974000  1
  O  O12  1  0.03282200  0.59112600  0.80602400  1
  O  O13  1  0.25352200  0.91024400  0.06474700  1
  O  O14  1  0.55071200  0.42082300  0.76419700  1
  O  O15  1  0.59112600  0.80602400  0.03282200  1
  O  O16  1  0.76419700  0.55071200  0.42082300  1
  O  O17  1  0.95226200  0.72977100  0.10832500  1
  O  O18  1  0.42082300  0.76419700  0.55071200  1
  O  O19  1  0.18974000  0.99951000  0.38456200  1
  O  O20  1  0.88300800  0.49936200  0.69257800  1
  O  O21  1  0.10832500  0.95226200  0.72977100  1
  O  O22  1  0.49936200  0.69257800  0.88300800  1
  O  O23  1  0.69257800  0.88300800  0.49936200  1
loop_
_geom_bond_atom_site_label_1
_geom_bond_atom_site_label_2
_geom_bond_distance
_geom_bond_site_symmetry_2
Mn0 O6 2.217875 1_554
Mn0 O2 2.217876 1_455
Mn0 O13 2.217876 1_545
Mn0 O17 2.252304 1_445
Mn0 O21 2.252304 1_544
Mn0 O10 2.252304 1_454
Mn1 O16 2.287166 1_555
Mn1 O14 2.287166 1_555
Mn1 O18 2.287166 1_555
Mn1 O7 2.335462 1_555
Mn1 O9 2.335462 1_555
Mn1 O5 2.335462 1_555
O0 P4 1.541061 1_545
O0 Ti1 1.884485 1_555
O1 P2 1.541062 1_554
O1 Ti1 1.884485 1_555
O2 P0 1.554701 1_555
O2 Ti0 2.125366 1_655
O3 P3 1.541062 1_455
O3 Ti1 1.884485 1_555
O4 P0 1.526165 1_555
O4 Sb0 2.141442 1_545
O5 P0 1.561679 1_555
O5 Ti1 2.027771 1_555
O6 P1 1.554701 1_555
O6 Ti0 2.125366 1_556
O7 P1 1.561679 1_555
O7 Ti1 2.027771 1_555
O8 P2 1.550656 1_555
O8 Ti0 1.952214 1_556
O9 P5 1.561679 1_555
O9 Ti1 2.027771 1_555
O10 P2 1.546200 1_555
O10 Sb0 2.364408 1_545
O11 P3 1.550656 1_555
O11 Ti0 1.952214 1_655
O12 P1 1.526165 1_555
O12 Sb0 2.141442 1_455
O13 P5 1.554701 1_555
O13 Ti0 2.125366 1_565
O14 P2 1.563584 1_555
O14 Ti2 2.104301 1_555
O15 P5 1.526165 1_555
O15 Sb0 2.141441 1_554
O16 P3 1.563585 1_555
O16 Ti2 2.104301 1_555
O17 P3 1.546200 1_555
O17 Sb0 2.364408 1_554
O18 P4 1.563585 1_555
O18 Ti2 2.104301 1_555
O19 P4 1.550656 1_555
O19 Ti0 1.952214 1_565
O20 P1 1.554928 1_655
O20 Ti2 1.946774 1_555
O21 P4 1.546200 1_555
O21 Sb0 2.364408 1_455
O22 P5 1.554928 1_556
O22 Ti2 1.946774 1_555
O23 P0 1.554928 1_565
O23 Ti2 1.946774 1_555
