# generated using pymatgen
data_Mn3(SeO3)4
_symmetry_space_group_name_H-M   'P 1'
_cell_length_a   7.66699800
_cell_length_b   8.49961360
_cell_length_c   10.47724070
_cell_angle_alpha   106.47172723
_cell_angle_beta   88.23129052
_cell_angle_gamma   113.94131914
_symmetry_Int_Tables_number   1
_chemical_formula_structural   Mn3(SeO3)4
_chemical_formula_sum   'Mn6 Se8 O24'
_cell_volume   595.64363383
_cell_formula_units_Z   2
loop_
 _symmetry_equiv_pos_site_id
 _symmetry_equiv_pos_as_xyz
  1  'x, y, z'
loop_
 _atom_site_type_symbol
 _atom_site_label
 _atom_site_symmetry_multiplicity
 _atom_site_fract_x
 _atom_site_fract_y
 _atom_site_fract_z
 _atom_site_occupancy
  Mn  Mn0  1  0.00000000  0.00000000  0.00000000  1
  Mn  Mn1  1  0.00000000  0.00000000  0.50000000  1
  Mn  Mn2  1  0.94742900  0.27484000  0.78031000  1
  Mn  Mn3  1  0.94398200  0.62507900  0.68021300  1
  Mn  Mn4  1  0.05601800  0.37492100  0.31978700  1
  Mn  Mn5  1  0.05257100  0.72516000  0.21969000  1
  Se  Se0  1  0.71917100  0.20556400  0.48486500  1
  Se  Se1  1  0.72979100  0.24180100  0.05780900  1
  Se  Se2  1  0.68572200  0.73022700  0.20533500  1
  Se  Se3  1  0.68064300  0.80917700  0.72174600  1
  Se  Se4  1  0.31935700  0.19082300  0.27825400  1
  Se  Se5  1  0.31427800  0.26977300  0.79466500  1
  Se  Se6  1  0.27020900  0.75819900  0.94219100  1
  Se  Se7  1  0.28082900  0.79443600  0.51513500  1
  O  O0  1  0.89376700  0.12556100  0.42113900  1
  O  O1  1  0.93559200  0.41099400  0.15005500  1
  O  O2  1  0.76796400  0.04634900  0.03760000  1
  O  O3  1  0.81163600  0.33566100  0.64995400  1
  O  O4  1  0.74554900  0.26476300  0.89852000  1
  O  O5  1  0.79070400  0.36641500  0.40679700  1
  O  O6  1  0.88120200  0.83675500  0.82271600  1
  O  O7  1  0.88535500  0.76158800  0.10269600  1
  O  O8  1  0.85290200  0.75219000  0.34047200  1
  O  O9  1  0.68568600  0.62831300  0.60701500  1
  O  O10  1  0.78393100  0.98163700  0.64424300  1
  O  O11  1  0.45156800  0.48595100  0.84473000  1
  O  O12  1  0.54843200  0.51404900  0.15527000  1
  O  O13  1  0.21606900  0.01836300  0.35575700  1
  O  O14  1  0.31431400  0.37168700  0.39298500  1
  O  O15  1  0.14709800  0.24781000  0.65952800  1
  O  O16  1  0.11464500  0.23841200  0.89730400  1
  O  O17  1  0.11879800  0.16324500  0.17728400  1
  O  O18  1  0.20929600  0.63358500  0.59320300  1
  O  O19  1  0.25445100  0.73523700  0.10148000  1
  O  O20  1  0.18836400  0.66433900  0.35004600  1
  O  O21  1  0.23203600  0.95365100  0.96240000  1
  O  O22  1  0.06440800  0.58900600  0.84994500  1
  O  O23  1  0.10623300  0.87443900  0.57886100  1
loop_
_geom_bond_atom_site_label_1
_geom_bond_atom_site_label_2
_geom_bond_distance
_geom_bond_site_symmetry_2
Mn0 O17 1.955032 1_555
Mn0 O6 1.955032 1_444
Mn0 O2 1.978088 1_455
Mn0 O21 1.978088 1_544
Mn0 O16 2.401899 1_554
Mn0 O7 2.401899 1_445
Mn1 O23 1.931863 1_545
Mn1 O0 1.931863 1_455
Mn1 O15 2.166570 1_555
Mn1 O8 2.166570 1_445
Mn1 O13 2.195903 1_555
Mn1 O10 2.195903 1_445
Mn2 O4 1.941960 1_555
Mn2 O16 1.968865 1_655
Mn2 O15 1.999676 1_655
Mn2 O3 2.035065 1_555
Mn2 O10 2.318301 1_545
Mn2 O22 2.336451 1_655
Mn3 O9 2.158843 1_555
Mn3 O3 2.175591 1_555
Mn3 O22 2.179277 1_655
Mn3 O18 2.185783 1_655
Mn3 O6 2.198410 1_555
Mn3 O23 2.494420 1_655
Mn4 O14 2.158843 1_555
Mn4 O20 2.175591 1_555
Mn4 O1 2.179277 1_455
Mn4 O5 2.185783 1_455
Mn4 O17 2.198410 1_555
Mn4 O0 2.494420 1_455
Mn5 O19 1.941960 1_555
Mn5 O7 1.968865 1_455
Mn5 O8 1.999676 1_455
Mn5 O20 2.035065 1_555
Mn5 O13 2.318301 1_565
Mn5 O1 2.336451 1_455
O0 Se0 1.768116 1_555
O1 Se1 1.719359 1_555
O2 Se1 1.755450 1_555
O3 Se0 1.752696 1_555
O4 Se1 1.729471 1_556
O5 Se0 1.684302 1_555
O6 Se3 1.790478 1_555
O7 Se2 1.816590 1_555
O8 Se2 1.857523 1_555
O9 Se3 1.675446 1_555
O10 Se3 1.768720 1_555
O11 Se5 1.636179 1_555
O12 Se2 1.636179 1_555
O13 Se4 1.768720 1_555
O14 Se4 1.675446 1_555
O15 Se5 1.857523 1_555
O16 Se5 1.816590 1_555
O17 Se4 1.790478 1_555
O18 Se7 1.684302 1_555
O19 Se6 1.729471 1_554
O20 Se7 1.752696 1_555
O21 Se6 1.755450 1_555
O22 Se6 1.719359 1_555
O23 Se7 1.768116 1_555
