# generated using pymatgen
data_Li8Mn5Fe3(BO3)8
_symmetry_space_group_name_H-M   'P 1'
_cell_length_a   5.23663000
_cell_length_b   5.24900590
_cell_length_c   20.89175224
_cell_angle_alpha   91.56699003
_cell_angle_beta   89.53754246
_cell_angle_gamma   119.92169644
_symmetry_Int_Tables_number   1
_chemical_formula_structural   Li8Mn5Fe3(BO3)8
_chemical_formula_sum   'Li8 Mn5 Fe3 B8 O24'
_cell_volume   497.51384378
_cell_formula_units_Z   1
loop_
 _symmetry_equiv_pos_site_id
 _symmetry_equiv_pos_as_xyz
  1  'x, y, z'
loop_
 _atom_site_type_symbol
 _atom_site_label
 _atom_site_symmetry_multiplicity
 _atom_site_fract_x
 _atom_site_fract_y
 _atom_site_fract_z
 _atom_site_occupancy
  Li  Li0  1  0.02226200  0.67597400  0.33387900  1
  Li  Li1  1  0.97534500  0.65324700  0.08422700  1
  Li  Li2  1  0.02556200  0.67742200  0.83399400  1
  Li  Li3  1  0.97270200  0.65148800  0.58397000  1
  Li  Li4  1  0.01570800  0.34851700  0.20821500  1
  Li  Li5  1  0.98794200  0.33712400  0.45812500  1
  Li  Li6  1  0.00930400  0.34555800  0.70818300  1
  Li  Li7  1  0.98873700  0.33757500  0.95868700  1
  Mn  Mn0  1  0.66709200  0.67401400  0.44035100  1
  Mn  Mn1  1  0.66701900  0.67321600  0.94124200  1
  Mn  Mn2  1  0.32155200  0.32144000  0.06748300  1
  Mn  Mn3  1  0.32080100  0.32361300  0.56631900  1
  Mn  Mn4  1  0.33463900  0.00274500  0.69280500  1
  Fe  Fe0  1  0.68300200  0.00743300  0.31504400  1
  Fe  Fe1  1  0.68680100  0.00526000  0.81636100  1
  Fe  Fe2  1  0.33229100  0.99588000  0.19310900  1
  B  B0  1  0.65576500  0.99665200  0.06375400  1
  B  B1  1  0.65546900  0.99763600  0.56282000  1
  B  B2  1  0.66621100  0.66862600  0.18911700  1
  B  B3  1  0.66239200  0.66527100  0.68865500  1
  B  B4  1  0.33808000  0.33710100  0.31213800  1
  B  B5  1  0.34202400  0.33905300  0.81325300  1
  B  B6  1  0.33906100  0.00625500  0.43662600  1
  B  B7  1  0.33923600  0.00644000  0.93710500  1
  O  O0  1  0.68194100  0.93366900  0.20806000  1
  O  O1  1  0.68461900  0.92942100  0.71005000  1
  O  O2  1  0.67596700  0.74574000  0.04829000  1
  O  O3  1  0.38863400  0.96599600  0.08467900  1
  O  O4  1  0.67600900  0.74697600  0.54741100  1
  O  O5  1  0.38827400  0.96680000  0.58404900  1
  O  O6  1  0.39479900  0.41867600  0.17519800  1
  O  O7  1  0.08923700  0.73171700  0.42981600  1
  O  O8  1  0.38515900  0.42220000  0.67338800  1
  O  O9  1  0.08959800  0.73206500  0.93015800  1
  O  O10  1  0.92218100  0.65377800  0.18201600  1
  O  O11  1  0.91171200  0.64114700  0.68074400  1
  O  O12  1  0.08523300  0.35903400  0.30583100  1
  O  O13  1  0.08921600  0.36069000  0.80630500  1
  O  O14  1  0.90149900  0.27226600  0.05641500  1
  O  O15  1  0.60303900  0.58319200  0.33071700  1
  O  O16  1  0.90059600  0.27291400  0.55526000  1
  O  O17  1  0.60717900  0.58448200  0.83231600  1
  O  O18  1  0.61455700  0.03913900  0.42078500  1
  O  O19  1  0.61510200  0.03927600  0.92161300  1
  O  O20  1  0.31853900  0.24899000  0.45835600  1
  O  O21  1  0.31801500  0.24884600  0.95883100  1
  O  O22  1  0.32217900  0.06648500  0.29866400  1
  O  O23  1  0.32771700  0.07016200  0.79938400  1
loop_
_geom_bond_atom_site_label_1
_geom_bond_atom_site_label_2
_geom_bond_distance
_geom_bond_site_symmetry_2
Li0 O12 1.926289 1_555
Li0 O15 1.998730 1_455
Li0 O22 2.015364 1_565
Li0 O7 2.025513 1_555
Li1 O14 1.911760 1_555
Li1 O3 1.958056 1_655
Li1 O2 2.013810 1_555
Li1 O10 2.059752 1_555
Li2 O13 1.925329 1_555
Li2 O17 1.993326 1_455
Li2 O23 2.021163 1_565
Li2 O9 2.028384 1_555
Li3 O16 1.908133 1_555
Li3 O5 1.970223 1_655
Li3 O4 2.016296 1_555
Li3 O11 2.042259 1_555
Li4 O6 1.953134 1_555
Li4 O10 1.985465 1_455
Li4 O0 1.999832 1_445
Li4 O12 2.068914 1_555
Li5 O18 1.945504 1_555
Li5 O7 1.971542 1_655
Li5 O20 2.002595 1_655
Li5 O16 2.075952 1_555
Li6 O8 1.940902 1_555
Li6 O11 1.959977 1_455
Li6 O1 1.990499 1_445
Li6 O13 2.086975 1_555
Li7 O19 1.944637 1_555
Li7 O9 1.973133 1_655
Li7 O21 1.997872 1_655
Li7 O14 2.088487 1_556
Mn0 O7 2.086822 1_655
Mn0 O20 2.102994 1_555
Mn0 O18 2.118155 1_565
Mn0 O4 2.255781 1_555
Mn0 O15 2.319284 1_555
Mn1 O9 2.087971 1_655
Mn1 O21 2.099894 1_555
Mn1 O19 2.121344 1_565
Mn1 O2 2.255221 1_556
Mn1 O17 2.302536 1_555
Mn2 O14 2.096933 1_455
Mn2 O3 2.103793 1_545
Mn2 O2 2.116284 1_555
Mn2 O6 2.286380 1_555
Mn2 O21 2.290078 1_554
Mn3 O16 2.094484 1_455
Mn3 O4 2.113454 1_555
Mn3 O5 2.114261 1_545
Mn3 O8 2.271515 1_555
Mn3 O20 2.277827 1_555
Mn4 O1 2.087755 1_545
Mn4 O11 2.088103 1_445
Mn4 O8 2.132637 1_555
Mn4 O23 2.247840 1_555
Mn4 O5 2.301317 1_545
Fe0 O12 2.003622 1_655
Fe0 O15 2.085377 1_545
Fe0 O22 2.093779 1_555
Fe0 O18 2.250105 1_555
Fe0 O0 2.257491 1_545
Fe1 O13 2.014353 1_655
Fe1 O17 2.069410 1_545
Fe1 O23 2.105748 1_555
Fe1 O1 2.244785 1_545
Fe1 O19 2.245014 1_555
Fe2 O10 2.007081 1_455
Fe2 O0 2.041570 1_555
Fe2 O6 2.119199 1_565
Fe2 O22 2.230736 1_565
Fe2 O3 2.293285 1_555
B0 O14 1.387106 1_565
B0 O3 1.394002 1_555
B0 O2 1.401904 1_555
B1 O16 1.385402 1_565
B1 O5 1.395936 1_555
B1 O4 1.401346 1_555
B2 O10 1.387511 1_555
B2 O6 1.396938 1_555
B2 O0 1.398201 1_555
B3 O11 1.381390 1_555
B3 O1 1.393461 1_555
B3 O8 1.405188 1_555
B4 O15 1.391982 1_555
B4 O12 1.392655 1_555
B4 O22 1.401572 1_555
B5 O13 1.393048 1_555
B5 O17 1.393749 1_555
B5 O23 1.397905 1_555
B6 O7 1.385414 1_545
B6 O20 1.394704 1_555
B6 O18 1.402714 1_555
B7 O9 1.384752 1_545
B7 O21 1.394994 1_555
B7 O19 1.403017 1_555
