# generated using pymatgen
data_TiNi(PO4)2
_symmetry_space_group_name_H-M   'P 1'
_cell_length_a   8.46549189
_cell_length_b   8.46549189
_cell_length_c   8.46549147
_cell_angle_alpha   61.13116633
_cell_angle_beta   61.13116633
_cell_angle_gamma   61.13116273
_symmetry_Int_Tables_number   1
_chemical_formula_structural   TiNi(PO4)2
_chemical_formula_sum   'Ti3 Ni3 P6 O24'
_cell_volume   439.90497663
_cell_formula_units_Z   3
loop_
 _symmetry_equiv_pos_site_id
 _symmetry_equiv_pos_as_xyz
  1  'x, y, z'
loop_
 _atom_site_type_symbol
 _atom_site_label
 _atom_site_symmetry_multiplicity
 _atom_site_fract_x
 _atom_site_fract_y
 _atom_site_fract_z
 _atom_site_occupancy
  Ti  Ti0  1  0.35520100  0.35520100  0.35520100  1
  Ti  Ti1  1  0.14233800  0.14233800  0.14233800  1
  Ti  Ti2  1  0.64518200  0.64518200  0.64518200  1
  Ni  Ni0  1  0.99717900  0.99717900  0.99717900  1
  Ni  Ni1  1  0.85819400  0.85819400  0.85819400  1
  Ni  Ni2  1  0.49875800  0.49875800  0.49875800  1
  P  P0  1  0.45627500  0.75239000  0.04702300  1
  P  P1  1  0.75239000  0.04702300  0.45627500  1
  P  P2  1  0.04702300  0.45627500  0.75239000  1
  P  P3  1  0.95279100  0.54621000  0.25000600  1
  P  P4  1  0.25000600  0.95279100  0.54621000  1
  P  P5  1  0.54621000  0.25000600  0.95279100  1
  O  O0  1  0.68373500  0.88269900  0.50327100  1
  O  O1  1  0.88269900  0.50327100  0.68373500  1
  O  O2  1  0.50327100  0.68373500  0.88269900  1
  O  O3  1  0.25445300  0.90919600  0.05842600  1
  O  O4  1  0.60835600  0.81737800  0.01382600  1
  O  O5  1  0.43232000  0.58936400  0.24490200  1
  O  O6  1  0.90919600  0.05842600  0.25445300  1
  O  O7  1  0.58936400  0.24490200  0.43232000  1
  O  O8  1  0.00215500  0.38224100  0.18197300  1
  O  O9  1  0.24490200  0.43232000  0.58936400  1
  O  O10  1  0.94570300  0.74097600  0.09601100  1
  O  O11  1  0.18197300  0.00215500  0.38224100  1
  O  O12  1  0.81737800  0.01382600  0.60835600  1
  O  O13  1  0.05842600  0.25445300  0.90919600  1
  O  O14  1  0.75669600  0.55347200  0.41265000  1
  O  O15  1  0.01382600  0.60835600  0.81737800  1
  O  O16  1  0.41265000  0.75669600  0.55347200  1
  O  O17  1  0.09601100  0.94570300  0.74097600  1
  O  O18  1  0.55347200  0.41265000  0.75669600  1
  O  O19  1  0.38224100  0.18197300  0.00215500  1
  O  O20  1  0.74097600  0.09601100  0.94570300  1
  O  O21  1  0.48887300  0.32802300  0.11180300  1
  O  O22  1  0.11180300  0.48887300  0.32802300  1
  O  O23  1  0.32802300  0.11180300  0.48887300  1
loop_
_geom_bond_atom_site_label_1
_geom_bond_atom_site_label_2
_geom_bond_distance
_geom_bond_site_symmetry_2
Ni0 O17 2.098169 1_655
Ni0 O20 2.098169 1_565
Ni0 O10 2.098169 1_556
Ni0 O6 2.172133 1_566
Ni0 O3 2.172133 1_656
Ni0 O13 2.172133 1_665
Ni1 O12 1.975808 1_565
Ni1 O15 1.975808 1_655
Ni1 O4 1.975808 1_556
Ni1 O10 2.094719 1_556
Ni1 O20 2.094719 1_565
Ni1 O17 2.094719 1_655
Ni2 O18 2.151162 1_555
Ni2 O16 2.151163 1_555
Ni2 O14 2.151163 1_555
Ni2 O5 2.163748 1_555
Ni2 O7 2.163748 1_555
Ni2 O9 2.163748 1_555
O0 P1 1.566589 1_565
O0 Ti2 1.874898 1_555
O1 P2 1.566589 1_655
O1 Ti2 1.874898 1_555
O2 P0 1.566588 1_556
O2 Ti2 1.874898 1_555
O3 P0 1.570023 1_555
O3 Ti1 2.048102 1_565
O4 P0 1.491452 1_555
O5 P0 1.568999 1_555
O5 Ti0 2.025174 1_555
O6 P1 1.570023 1_555
O6 Ti1 2.048102 1_655
O7 P1 1.568999 1_555
O7 Ti0 2.025174 1_555
O8 P3 1.553230 1_455
O8 Ti1 1.895179 1_555
O9 P2 1.568999 1_555
O9 Ti0 2.025174 1_555
O10 P3 1.525148 1_555
O11 P4 1.553230 1_545
O11 Ti1 1.895179 1_555
O12 P1 1.491451 1_555
O13 P2 1.570023 1_555
O13 Ti1 2.048102 1_556
O14 P3 1.559296 1_555
O14 Ti2 2.083874 1_555
O15 P2 1.491452 1_555
O16 P4 1.559296 1_555
O16 Ti2 2.083874 1_555
O17 P4 1.525148 1_555
O18 P5 1.559296 1_555
O18 Ti2 2.083874 1_555
O19 P5 1.553230 1_554
O19 Ti1 1.895179 1_555
O20 P5 1.525148 1_555
O21 P5 1.549783 1_554
O21 Ti0 1.879879 1_555
O22 P3 1.549783 1_455
O22 Ti0 1.879879 1_555
O23 P4 1.549783 1_545
O23 Ti0 1.879880 1_555
