# generated using pymatgen
data_CaMgB6(HO)22
_symmetry_space_group_name_H-M   'P 1'
_cell_length_a   7.11087881
_cell_length_b   7.11087881
_cell_length_c   19.46448758
_cell_angle_alpha   89.68199105
_cell_angle_beta   89.68199105
_cell_angle_gamma   63.26713626
_symmetry_Int_Tables_number   1
_chemical_formula_structural   CaMgB6(HO)22
_chemical_formula_sum   'Ca2 Mg2 B12 H44 O44'
_cell_volume   878.99613476
_cell_formula_units_Z   2
loop_
 _symmetry_equiv_pos_site_id
 _symmetry_equiv_pos_as_xyz
  1  'x, y, z'
loop_
 _atom_site_type_symbol
 _atom_site_label
 _atom_site_symmetry_multiplicity
 _atom_site_fract_x
 _atom_site_fract_y
 _atom_site_fract_z
 _atom_site_occupancy
  Ca  Ca0  1  0.21407400  0.78592600  0.75000000  1
  Ca  Ca1  1  0.78592600  0.21407400  0.25000000  1
  Mg  Mg0  1  0.00000000  0.00000000  0.50000000  1
  Mg  Mg1  1  0.00000000  0.00000000  0.00000000  1
  B  B0  1  0.85962300  0.94297500  0.65007300  1
  B  B1  1  0.05702500  0.14037700  0.84992700  1
  B  B2  1  0.14037700  0.05702500  0.34992700  1
  B  B3  1  0.94297500  0.85962300  0.15007300  1
  B  B4  1  0.94690000  0.24630400  0.64216300  1
  B  B5  1  0.75369600  0.05310000  0.85783700  1
  B  B6  1  0.05310000  0.75369600  0.35783700  1
  B  B7  1  0.24630400  0.94690000  0.14216300  1
  B  B8  1  0.57928100  0.30959300  0.66538900  1
  B  B9  1  0.69040700  0.42071900  0.83461100  1
  B  B10  1  0.42071900  0.69040700  0.33461100  1
  B  B11  1  0.30959300  0.57928100  0.16538900  1
  H  H0  1  0.78384100  0.82401800  0.56321800  1
  H  H1  1  0.17598200  0.21615900  0.93678200  1
  H  H2  1  0.21615900  0.17598200  0.43678200  1
  H  H3  1  0.82401800  0.78384100  0.06321800  1
  H  H4  1  0.94486000  0.62852500  0.68379200  1
  H  H5  1  0.37147500  0.05514000  0.81620800  1
  H  H6  1  0.05514000  0.37147500  0.31620800  1
  H  H7  1  0.62852500  0.94486000  0.18379200  1
  H  H8  1  0.27090900  0.38983400  0.67496000  1
  H  H9  1  0.61016600  0.72909100  0.82504000  1
  H  H10  1  0.72909100  0.61016600  0.32504000  1
  H  H11  1  0.38983400  0.27090900  0.17496000  1
  H  H12  1  0.11584500  0.26078900  0.72293300  1
  H  H13  1  0.73921100  0.88415500  0.77706700  1
  H  H14  1  0.88415500  0.73921100  0.27706700  1
  H  H15  1  0.26078900  0.11584500  0.22293300  1
  H  H16  1  0.88597700  0.38425500  0.54426300  1
  H  H17  1  0.61574500  0.11402300  0.95573700  1
  H  H18  1  0.11402300  0.61574500  0.45573700  1
  H  H19  1  0.38425500  0.88597700  0.04426300  1
  H  H20  1  0.34429300  0.82685100  0.58735000  1
  H  H21  1  0.17314900  0.65570700  0.91265000  1
  H  H22  1  0.65570700  0.17314900  0.41265000  1
  H  H23  1  0.82685100  0.34429300  0.08735000  1
  H  H24  1  0.44072100  0.74907300  0.51308000  1
  H  H25  1  0.25092700  0.55927900  0.98692000  1
  H  H26  1  0.55927900  0.25092700  0.48692000  1
  H  H27  1  0.74907300  0.44072100  0.01308000  1
  H  H28  1  0.52014000  0.91951400  0.67148300  1
  H  H29  1  0.08048600  0.47986000  0.82851700  1
  H  H30  1  0.47986000  0.08048600  0.32851700  1
  H  H31  1  0.91951400  0.52014000  0.17148300  1
  H  H32  1  0.58801600  0.66847000  0.66582000  1
  H  H33  1  0.33153000  0.41198400  0.83418000  1
  H  H34  1  0.41198400  0.33153000  0.33418000  1
  H  H35  1  0.66847000  0.58801600  0.16582000  1
  H  H36  1  0.28301100  0.48887400  0.55408500  1
  H  H37  1  0.51112600  0.71698900  0.94591500  1
  H  H38  1  0.71698900  0.51112600  0.44591500  1
  H  H39  1  0.48887400  0.28301100  0.05408500  1
  H  H40  1  0.22836500  0.30100500  0.54455700  1
  H  H41  1  0.69899500  0.77163500  0.95544300  1
  H  H42  1  0.77163500  0.69899500  0.45544300  1
  H  H43  1  0.30100500  0.22836500  0.04455700  1
  O  O0  1  0.00282500  0.03230500  0.66332900  1
  O  O1  1  0.96769500  0.99717500  0.83667100  1
  O  O2  1  0.99717500  0.96769500  0.33667100  1
  O  O3  1  0.03230500  0.00282500  0.16332900  1
  O  O4  1  0.89134900  0.86442600  0.57750600  1
  O  O5  1  0.13557400  0.10865100  0.92249400  1
  O  O6  1  0.10865100  0.13557400  0.42249400  1
  O  O7  1  0.86442600  0.89134900  0.07750600  1
  O  O8  1  0.90745600  0.77112600  0.70093600  1
  O  O9  1  0.22887400  0.09254400  0.79906400  1
  O  O10  1  0.09254400  0.22887400  0.29906400  1
  O  O11  1  0.77112600  0.90745600  0.20093600  1
  O  O12  1  0.63504200  0.09852800  0.66082600  1
  O  O13  1  0.90147200  0.36495800  0.83917400  1
  O  O14  1  0.36495800  0.90147200  0.33917400  1
  O  O15  1  0.09852800  0.63504200  0.16082600  1
  O  O16  1  0.72065200  0.39083000  0.65780300  1
  O  O17  1  0.60917000  0.27934800  0.84219700  1
  O  O18  1  0.27934800  0.60917000  0.34219700  1
  O  O19  1  0.39083000  0.72065200  0.15780300  1
  O  O20  1  0.37054600  0.45436000  0.67699800  1
  O  O21  1  0.54564000  0.62945400  0.82300200  1
  O  O22  1  0.62945400  0.54564000  0.32300200  1
  O  O23  1  0.45436000  0.37054600  0.17699800  1
  O  O24  1  0.07805500  0.32807200  0.67723500  1
  O  O25  1  0.67192800  0.92194500  0.82276500  1
  O  O26  1  0.92194500  0.67192800  0.32276500  1
  O  O27  1  0.32807200  0.07805500  0.17723500  1
  O  O28  1  0.98034200  0.24847000  0.56503000  1
  O  O29  1  0.75153000  0.01965800  0.93497000  1
  O  O30  1  0.01965800  0.75153000  0.43497000  1
  O  O31  1  0.24847000  0.98034200  0.06503000  1
  O  O32  1  0.30629300  0.81263500  0.53896700  1
  O  O33  1  0.18736500  0.69370700  0.96103300  1
  O  O34  1  0.69370700  0.18736500  0.46103300  1
  O  O35  1  0.81263500  0.30629300  0.03896700  1
  O  O36  1  0.46713600  0.81231000  0.66761700  1
  O  O37  1  0.18769000  0.53286400  0.83238300  1
  O  O38  1  0.53286400  0.18769000  0.33238300  1
  O  O39  1  0.81231000  0.46713600  0.16761700  1
  O  O40  1  0.30135900  0.37493100  0.52230500  1
  O  O41  1  0.62506900  0.69864200  0.97769500  1
  O  O42  1  0.69864100  0.62506900  0.47769500  1
  O  O43  1  0.37493100  0.30135900  0.02230500  1
loop_
_geom_bond_atom_site_label_1
_geom_bond_atom_site_label_2
_geom_bond_distance
_geom_bond_site_symmetry_2
Ca0 O0 2.408221 1_565
Ca0 O1 2.408221 1_455
Ca0 O8 2.430553 1_455
Ca0 O9 2.430553 1_565
Ca0 O37 2.472466 1_555
Ca0 O36 2.472466 1_555
Ca0 O20 2.544697 1_555
Ca0 O21 2.544697 1_555
Ca1 O2 2.408221 1_545
Ca1 O3 2.408221 1_655
Ca1 O11 2.430553 1_545
Ca1 O10 2.430553 1_655
Ca1 O38 2.472466 1_555
Ca1 O39 2.472466 1_555
Ca1 O23 2.544697 1_555
Ca1 O22 2.544697 1_555
Mg0 O4 2.107899 1_445
Mg0 O6 2.107899 1_555
Mg0 O34 2.119097 1_455
Mg0 O32 2.119097 1_545
Mg0 O30 2.131693 1_545
Mg0 O28 2.131693 1_455
Mg1 O5 2.107899 1_554
Mg1 O7 2.107899 1_445
Mg1 O35 2.119097 1_455
Mg1 O33 2.119097 1_544
Mg1 O31 2.131693 1_545
Mg1 O29 2.131693 1_454
B0 O0 1.446949 1_665
B0 O8 1.485087 1_555
B0 O12 1.492406 1_565
B0 O4 1.499943 1_555
B1 O1 1.446949 1_445
B1 O9 1.485087 1_555
B1 O13 1.492406 1_455
B1 O5 1.499943 1_555
B2 O2 1.446949 1_445
B2 O10 1.485087 1_555
B2 O14 1.492406 1_545
B2 O6 1.499943 1_555
B3 O3 1.446949 1_665
B3 O11 1.485087 1_555
B3 O15 1.492406 1_655
B3 O7 1.499943 1_555
B4 O0 1.447045 1_655
B4 O24 1.474186 1_655
B4 O16 1.499233 1_555
B4 O28 1.519844 1_555
B5 O1 1.447045 1_545
B5 O25 1.474186 1_545
B5 O17 1.499233 1_555
B5 O29 1.519844 1_555
B6 O2 1.447045 1_455
B6 O26 1.474186 1_455
B6 O18 1.499233 1_555
B6 O30 1.519844 1_555
B7 O3 1.447045 1_565
B7 O27 1.474186 1_565
B7 O19 1.499233 1_555
B7 O31 1.519844 1_555
B8 O12 1.372362 1_555
B8 O16 1.373289 1_555
B8 O20 1.392154 1_555
B9 O13 1.372362 1_555
B9 O17 1.373289 1_555
B9 O21 1.392154 1_555
B10 O14 1.372362 1_555
B10 O18 1.373289 1_555
B10 O22 1.392154 1_555
B11 O15 1.372362 1_555
B11 O19 1.373289 1_555
B11 O23 1.392154 1_555
H0 O4 0.972214 1_555
H1 O5 0.972214 1_555
H2 O6 0.972214 1_555
H3 O7 0.972214 1_555
H4 O8 0.985119 1_555
H5 O9 0.985119 1_555
H6 O10 0.985119 1_555
H7 O11 0.985119 1_555
H8 O20 1.003529 1_555
H8 O24 1.617538 1_555
H9 O21 1.003529 1_555
H9 O25 1.617538 1_555
H10 O22 1.003529 1_555
H10 O26 1.617538 1_555
H11 O23 1.003529 1_555
H11 O27 1.617538 1_555
H12 O24 0.987202 1_555
H13 O25 0.987202 1_555
H14 O26 0.987202 1_555
H15 O27 0.987202 1_555
H16 O28 0.980679 1_555
H17 O29 0.980679 1_555
H18 O30 0.980679 1_555
H19 O31 0.980679 1_555
H20 O32 0.999292 1_555
H21 O33 0.999292 1_555
H22 O34 0.999292 1_555
H23 O35 0.999292 1_555
H24 O32 0.990156 1_555
H25 O33 0.990156 1_555
H26 O34 0.990156 1_555
H27 O35 0.990156 1_555
H28 O36 0.994126 1_555
H29 O37 0.994126 1_555
H30 O38 0.994126 1_555
H31 O39 0.994126 1_555
H32 O36 0.997669 1_555
H33 O37 0.997669 1_555
H34 O38 0.997669 1_555
H35 O39 0.997669 1_555
H36 O40 0.982705 1_555
H37 O41 0.982707 1_555
H38 O42 0.982705 1_555
H39 O43 0.982705 1_555
H40 O40 0.986814 1_555
H41 O41 0.986809 1_555
H42 O42 0.986814 1_555
H43 O43 0.986814 1_555
