# generated using pymatgen
data_Li2MnSO4F3
_symmetry_space_group_name_H-M   'P 1'
_cell_length_a   7.29394300
_cell_length_b   7.48034200
_cell_length_c   9.54927900
_cell_angle_alpha   90.00000000
_cell_angle_beta   90.00000000
_cell_angle_gamma   90.00000000
_symmetry_Int_Tables_number   1
_chemical_formula_structural   Li2MnSO4F3
_chemical_formula_sum   'Li8 Mn4 S4 O16 F12'
_cell_volume   521.02000839
_cell_formula_units_Z   4
loop_
 _symmetry_equiv_pos_site_id
 _symmetry_equiv_pos_as_xyz
  1  'x, y, z'
loop_
 _atom_site_type_symbol
 _atom_site_label
 _atom_site_symmetry_multiplicity
 _atom_site_fract_x
 _atom_site_fract_y
 _atom_site_fract_z
 _atom_site_occupancy
  Li  Li0  1  0.77403900  0.15805400  0.30143700  1
  Li  Li1  1  0.77403900  0.65805400  0.19856300  1
  Li  Li2  1  0.72596100  0.15805400  0.69856300  1
  Li  Li3  1  0.72596100  0.65805400  0.80143700  1
  Li  Li4  1  0.27403900  0.34194600  0.19856300  1
  Li  Li5  1  0.27403900  0.84194600  0.30143700  1
  Li  Li6  1  0.22596100  0.34194600  0.80143700  1
  Li  Li7  1  0.22596100  0.84194600  0.69856300  1
  Mn  Mn0  1  0.00000000  0.50000000  0.50000000  1
  Mn  Mn1  1  0.00000000  0.00000000  0.00000000  1
  Mn  Mn2  1  0.50000000  0.50000000  0.50000000  1
  Mn  Mn3  1  0.50000000  0.00000000  0.00000000  1
  S  S0  1  0.75000000  0.33333800  0.00000000  1
  S  S1  1  0.75000000  0.83333800  0.50000000  1
  S  S2  1  0.25000000  0.16666200  0.50000000  1
  S  S3  1  0.25000000  0.66666200  0.00000000  1
  O  O0  1  0.87585500  0.21079600  0.08358700  1
  O  O1  1  0.87585500  0.71079600  0.41641300  1
  O  O2  1  0.84564600  0.44160900  0.89754300  1
  O  O3  1  0.84564600  0.94160900  0.60245700  1
  O  O4  1  0.65435400  0.44160900  0.10245700  1
  O  O5  1  0.65435400  0.94160900  0.39754300  1
  O  O6  1  0.62414500  0.21079600  0.91641300  1
  O  O7  1  0.62414500  0.71079600  0.58358700  1
  O  O8  1  0.37585500  0.28920400  0.41641300  1
  O  O9  1  0.37585500  0.78920400  0.08358700  1
  O  O10  1  0.34564600  0.05839100  0.60245700  1
  O  O11  1  0.34564600  0.55839100  0.89754300  1
  O  O12  1  0.15435400  0.05839100  0.39754300  1
  O  O13  1  0.15435400  0.55839100  0.10245700  1
  O  O14  1  0.12414500  0.28920400  0.58358700  1
  O  O15  1  0.12414500  0.78920400  0.91641300  1
  F  F0  1  0.97545300  0.09200600  0.82082200  1
  F  F1  1  0.97545300  0.59200600  0.67917800  1
  F  F2  1  0.75000000  0.33602000  0.50000000  1
  F  F3  1  0.75000000  0.83602000  0.00000000  1
  F  F4  1  0.52454700  0.09200600  0.17917800  1
  F  F5  1  0.52454700  0.59200600  0.32082200  1
  F  F6  1  0.47545300  0.40799400  0.67917800  1
  F  F7  1  0.47545300  0.90799400  0.82082200  1
  F  F8  1  0.25000000  0.16398000  0.00000000  1
  F  F9  1  0.25000000  0.66398000  0.50000000  1
  F  F10  1  0.02454700  0.40799400  0.32082200  1
  F  F11  1  0.02454700  0.90799400  0.17917800  1
loop_
_geom_bond_atom_site_label_1
_geom_bond_atom_site_label_2
_geom_bond_distance
_geom_bond_site_symmetry_2
Li0 O5 2.055667 1_545
Li0 O0 2.243849 1_555
Li1 O4 2.055667 1_555
Li1 O1 2.243849 1_555
Li2 O3 2.055667 1_545
Li2 O6 2.243849 1_555
Li3 O2 2.055667 1_555
Li3 O7 2.243849 1_555
Li4 O13 2.055667 1_555
Li4 O8 2.243849 1_555
Li5 O12 2.055667 1_565
Li5 O9 2.243849 1_555
Li6 O11 2.055667 1_555
Li6 O14 2.243849 1_555
Li7 O10 2.055667 1_565
Li7 O15 2.243849 1_555
Mn0 O14 1.985809 1_555
Mn0 O1 1.985809 1_455
Mn1 O0 1.985809 1_455
Mn1 O15 1.985809 1_544
Mn2 O7 1.985809 1_555
Mn2 O8 1.985809 1_555
Mn3 O6 1.985809 1_554
Mn3 O9 1.985809 1_545
O0 S0 1.523174 1_555
O1 S1 1.523174 1_555
O2 S0 1.449099 1_556
O3 S1 1.449099 1_555
O4 S0 1.449099 1_555
O5 S1 1.449099 1_555
O6 S0 1.523174 1_556
O7 S1 1.523174 1_555
O8 S2 1.523174 1_555
O9 S3 1.523174 1_555
O10 S2 1.449099 1_555
O11 S3 1.449099 1_556
O12 S2 1.449099 1_555
O13 S3 1.449099 1_555
O14 S2 1.523174 1_555
O15 S3 1.523174 1_556
F0 Mn1 1.852921 1_656
F0 Li2 2.217819 1_555
F1 Mn0 1.852921 1_655
F1 Li3 2.217819 1_555
F2 Mn2 2.197661 1_555
F2 Mn0 2.197661 1_655
F2 Li2 2.323421 1_555
F2 Li0 2.323421 1_555
F3 Mn3 2.197661 1_565
F3 Mn1 2.197661 1_665
F3 Li1 2.323421 1_555
F3 Li3 2.323421 1_554
F4 Mn3 1.852921 1_555
F4 Li0 2.217819 1_555
F5 Mn2 1.852921 1_555
F5 Li1 2.217819 1_555
F6 Mn2 1.852921 1_555
F6 Li6 2.217819 1_555
F7 Mn3 1.852921 1_566
F7 Li7 2.217819 1_555
F8 Mn1 2.197661 1_555
F8 Mn3 2.197661 1_555
F8 Li4 2.323421 1_555
F8 Li6 2.323421 1_554
F9 Mn0 2.197661 1_555
F9 Mn2 2.197661 1_555
F9 Li7 2.323421 1_555
F9 Li5 2.323421 1_555
F10 Mn0 1.852921 1_555
F10 Li4 2.217819 1_555
F11 Mn1 1.852921 1_565
F11 Li5 2.217819 1_555
