# generated using pymatgen
data_Li2VO2F
_symmetry_space_group_name_H-M   'P 1'
_cell_length_a   2.94535077
_cell_length_b   8.94282796
_cell_length_c   8.96953478
_cell_angle_alpha   70.53476437
_cell_angle_beta   89.99966239
_cell_angle_gamma   89.99980016
_symmetry_Int_Tables_number   1
_chemical_formula_structural   Li2VO2F
_chemical_formula_sum   'Li8 V4 O8 F4'
_cell_volume   222.75198990
_cell_formula_units_Z   4
loop_
 _symmetry_equiv_pos_site_id
 _symmetry_equiv_pos_as_xyz
  1  'x, y, z'
loop_
 _atom_site_type_symbol
 _atom_site_label
 _atom_site_symmetry_multiplicity
 _atom_site_fract_x
 _atom_site_fract_y
 _atom_site_fract_z
 _atom_site_occupancy
  Li  Li0  1  0.00000100  0.50133400  0.17106300  1
  Li  Li1  1  0.00000000  0.00132900  0.67103900  1
  Li  Li2  1  0.50000000  0.74865200  0.24562700  1
  Li  Li3  1  0.50000100  0.24866300  0.74565100  1
  Li  Li4  1  0.00000000  0.50208900  0.81987500  1
  Li  Li5  1  0.00000100  0.00208700  0.31987100  1
  Li  Li6  1  0.50000000  0.24791000  0.09679100  1
  Li  Li7  1  0.50000000  0.74791100  0.59679000  1
  V  V0  1  0.49999700  0.25408600  0.41054900  1
  V  V1  1  0.00000500  0.99590700  0.00612300  1
  V  V2  1  0.49999900  0.75408700  0.91052400  1
  V  V3  1  0.00000400  0.49591800  0.50614200  1
  O  O0  1  0.00000100  0.75024300  0.07162300  1
  O  O1  1  0.00000100  0.25025700  0.57164900  1
  O  O2  1  0.50000200  0.49976300  0.34504300  1
  O  O3  1  0.50000000  0.99976200  0.84501000  1
  O  O4  1  0.50000100  0.49903300  0.65557300  1
  O  O5  1  0.50000500  0.99903300  0.15553500  1
  O  O6  1  0.99999800  0.75096100  0.76108300  1
  O  O7  1  0.99999700  0.25094600  0.26112200  1
  F  F0  1  0.49999500  0.50132800  0.99743100  1
  F  F1  1  0.49999600  0.00131700  0.49743900  1
  F  F2  1  0.99999800  0.24869400  0.91922300  1
  F  F3  1  0.00000000  0.74869200  0.41922200  1
loop_
_geom_bond_atom_site_label_1
_geom_bond_atom_site_label_2
_geom_bond_distance
_geom_bond_site_symmetry_2
Li0 O0 2.104089 1_555
Li0 O7 2.112093 1_455
Li0 O2 2.142322 1_455
Li0 O2 2.142339 1_555
Li1 O1 2.104213 1_555
Li1 O6 2.111922 1_445
Li1 O3 2.142274 1_445
Li1 O3 2.142287 1_545
Li2 O2 2.103910 1_555
Li2 O5 2.112043 1_555
Li2 O0 2.142440 1_655
Li2 O0 2.142449 1_555
Li3 O3 2.103972 1_545
Li3 O4 2.111948 1_555
Li3 O1 2.142419 1_655
Li3 O1 2.142432 1_555
Li4 O4 2.090018 1_555
Li4 O4 2.090026 1_455
Li4 O6 2.109328 1_455
Li5 O5 2.090232 1_445
Li5 O5 2.090236 1_545
Li5 O7 2.109254 1_455
Li6 O7 2.090162 1_555
Li6 O7 2.090162 1_455
Li6 O5 2.109415 1_545
Li7 O6 2.089949 1_455
Li7 O6 2.089953 1_555
Li7 O4 2.109388 1_555
O0 V2 2.055428 1_554
O0 V2 2.055448 1_454
O0 V1 2.076403 1_555
O1 V0 2.055459 1_555
O1 V0 2.055488 1_455
O1 V3 2.076373 1_555
O2 V3 2.055426 1_555
O2 V3 2.055446 1_655
O2 V0 2.076511 1_555
O3 V1 2.055488 1_556
O3 V1 2.055521 1_656
O3 V2 2.076489 1_555
O4 V3 1.997725 1_555
O4 V3 1.997726 1_655
O5 V1 1.997628 1_655
O5 V1 1.997640 1_555
O6 V2 1.997802 1_555
O6 V2 1.997818 1_655
O7 V0 1.997749 1_555
O7 V0 1.997761 1_655
F0 V2 2.131348 1_555
F0 Li6 2.141067 1_556
F0 Li0 2.143418 1_556
F0 Li0 2.143454 1_656
F0 Li4 2.167473 1_555
F0 Li4 2.167480 1_655
F1 V0 2.131430 1_555
F1 Li7 2.140963 1_545
F1 Li1 2.143226 1_555
F1 Li1 2.143255 1_655
F1 Li5 2.167532 1_555
F1 Li5 2.167539 1_655
F2 V1 2.131582 1_646
F2 Li4 2.140871 1_655
F2 Li3 2.143099 1_655
F2 Li3 2.143099 1_555
F2 Li6 2.167495 1_556
F2 Li6 2.167516 1_656
F3 V3 2.131475 1_555
F3 Li5 2.140872 1_565
F3 Li2 2.143262 1_555
F3 Li2 2.143275 1_455
F3 Li7 2.167506 1_455
F3 Li7 2.167518 1_555
