# generated using pymatgen
data_ZnP2(HO3)2
_symmetry_space_group_name_H-M   'P 1'
_cell_length_a   12.56936435
_cell_length_b   12.56936435
_cell_length_c   12.56936406
_cell_angle_alpha   115.62495935
_cell_angle_beta   115.62495935
_cell_angle_gamma   115.62496197
_symmetry_Int_Tables_number   1
_chemical_formula_structural   ZnP2(HO3)2
_chemical_formula_sum   'Zn6 P12 H12 O36'
_cell_volume   1045.35512583
_cell_formula_units_Z   6
loop_
 _symmetry_equiv_pos_site_id
 _symmetry_equiv_pos_as_xyz
  1  'x, y, z'
loop_
 _atom_site_type_symbol
 _atom_site_label
 _atom_site_symmetry_multiplicity
 _atom_site_fract_x
 _atom_site_fract_y
 _atom_site_fract_z
 _atom_site_occupancy
  Zn  Zn0  1  0.33652700  0.56906100  0.91609300  1
  Zn  Zn1  1  0.91609300  0.33652700  0.56906100  1
  Zn  Zn2  1  0.56906100  0.91609300  0.33652700  1
  Zn  Zn3  1  0.66347300  0.43093900  0.08390700  1
  Zn  Zn4  1  0.08390700  0.66347300  0.43093900  1
  Zn  Zn5  1  0.43093900  0.08390700  0.66347300  1
  P  P0  1  0.99057300  0.19824900  0.73535800  1
  P  P1  1  0.73535800  0.99057300  0.19824900  1
  P  P2  1  0.19824900  0.73535800  0.99057300  1
  P  P3  1  0.00942700  0.80175100  0.26464200  1
  P  P4  1  0.26464200  0.00942700  0.80175100  1
  P  P5  1  0.80175100  0.26464200  0.00942700  1
  P  P6  1  0.55638400  0.60573400  0.22937900  1
  P  P7  1  0.22937900  0.55638400  0.60573400  1
  P  P8  1  0.60573400  0.22937900  0.55638400  1
  P  P9  1  0.44361600  0.39426600  0.77062100  1
  P  P10  1  0.77062100  0.44361600  0.39426600  1
  P  P11  1  0.39426600  0.77062100  0.44361600  1
  H  H0  1  0.05428900  0.26580300  0.89596500  1
  H  H1  1  0.89596500  0.05428900  0.26580300  1
  H  H2  1  0.26580300  0.89596500  0.05428900  1
  H  H3  1  0.94571100  0.73419700  0.10403500  1
  H  H4  1  0.10403500  0.94571100  0.73419700  1
  H  H5  1  0.73419700  0.10403500  0.94571100  1
  H  H6  1  0.66481800  0.72465300  0.41430300  1
  H  H7  1  0.41430300  0.66481800  0.72465300  1
  H  H8  1  0.72465300  0.41430300  0.66481800  1
  H  H9  1  0.33518200  0.27534700  0.58569700  1
  H  H10  1  0.58569700  0.33518200  0.27534700  1
  H  H11  1  0.27534700  0.58569700  0.33518200  1
  O  O0  1  0.06818900  0.35651800  0.76671000  1
  O  O1  1  0.76671000  0.06818900  0.35651800  1
  O  O2  1  0.35651800  0.76671000  0.06818900  1
  O  O3  1  0.93181100  0.64348200  0.23329000  1
  O  O4  1  0.23329000  0.93181100  0.64348200  1
  O  O5  1  0.64348200  0.23329000  0.93181100  1
  O  O6  1  0.49405300  0.67205200  0.17376100  1
  O  O7  1  0.17376100  0.49405300  0.67205200  1
  O  O8  1  0.67205200  0.17376100  0.49405300  1
  O  O9  1  0.50594700  0.32794800  0.82623900  1
  O  O10  1  0.82623900  0.50594700  0.32794800  1
  O  O11  1  0.32794800  0.82623900  0.50594700  1
  O  O12  1  0.57727700  0.78053000  0.03326000  1
  O  O13  1  0.03326000  0.57727700  0.78053000  1
  O  O14  1  0.78053000  0.03326000  0.57727700  1
  O  O15  1  0.42272300  0.21947000  0.96674000  1
  O  O16  1  0.96674000  0.42272300  0.21947000  1
  O  O17  1  0.21947000  0.96674000  0.42272300  1
  O  O18  1  0.33342200  0.39512200  0.79206500  1
  O  O19  1  0.79206500  0.33342200  0.39512200  1
  O  O20  1  0.39512200  0.79206500  0.33342200  1
  O  O21  1  0.66657800  0.60487800  0.20793500  1
  O  O22  1  0.20793500  0.66657800  0.60487800  1
  O  O23  1  0.60487800  0.20793500  0.66657800  1
  O  O24  1  0.03248300  0.10371400  0.67340900  1
  O  O25  1  0.67340900  0.03248300  0.10371400  1
  O  O26  1  0.10371400  0.67340900  0.03248300  1
  O  O27  1  0.96751700  0.89628600  0.32659100  1
  O  O28  1  0.32659100  0.96751700  0.89628600  1
  O  O29  1  0.89628600  0.32659100  0.96751700  1
  O  O30  1  0.38481000  0.41017400  0.11202100  1
  O  O31  1  0.11202100  0.38481000  0.41017400  1
  O  O32  1  0.41017400  0.11202100  0.38481000  1
  O  O33  1  0.61519000  0.58982600  0.88797900  1
  O  O34  1  0.88797900  0.61519000  0.58982600  1
  O  O35  1  0.58982600  0.88797900  0.61519000  1
loop_
_geom_bond_atom_site_label_1
_geom_bond_atom_site_label_2
_geom_bond_distance
_geom_bond_site_symmetry_2
H0 P0 1.402996 1_455
H1 P1 1.402996 1_545
H2 P2 1.402996 1_554
H3 P3 1.402996 1_655
H4 P4 1.402996 1_565
H5 P5 1.402996 1_556
H6 P6 1.409654 1_555
H7 P7 1.409654 1_555
H8 P8 1.409654 1_555
H9 P9 1.409654 1_555
H10 P10 1.409654 1_555
H11 P11 1.409654 1_555
O0 P0 1.541180 1_455
O0 Zn0 2.104349 1_555
O0 Zn1 2.196885 1_455
O1 P1 1.541180 1_545
O1 Zn1 2.104349 1_555
O1 Zn2 2.196885 1_545
O2 P2 1.541180 1_554
O2 Zn2 2.104349 1_555
O2 Zn0 2.196885 1_554
O3 P3 1.541180 1_655
O3 Zn3 2.104349 1_555
O3 Zn4 2.196885 1_655
O4 P4 1.541180 1_565
O4 Zn4 2.104349 1_555
O4 Zn5 2.196885 1_565
O5 P5 1.541180 1_556
O5 Zn5 2.104349 1_555
O5 Zn3 2.196885 1_556
O6 P6 1.546790 1_555
O6 Zn0 2.166881 1_554
O6 Zn2 2.210365 1_555
O7 P7 1.546790 1_555
O7 Zn1 2.166881 1_455
O7 Zn0 2.210365 1_555
O8 P8 1.546790 1_555
O8 Zn2 2.166881 1_545
O8 Zn1 2.210365 1_555
O9 P9 1.546790 1_555
O9 Zn3 2.166881 1_556
O9 Zn5 2.210365 1_555
O10 P10 1.546790 1_555
O10 Zn4 2.166881 1_655
O10 Zn3 2.210365 1_555
O11 P11 1.546790 1_555
O11 Zn5 2.166881 1_565
O11 Zn4 2.210365 1_555
O12 P1 1.543258 1_555
O12 Zn0 2.047763 1_554
O13 P2 1.543258 1_555
O13 Zn1 2.047763 1_455
O14 P0 1.543258 1_555
O14 Zn2 2.047763 1_545
O15 P4 1.543258 1_555
O15 Zn3 2.047763 1_556
O16 P5 1.543258 1_555
O16 Zn4 2.047763 1_655
O17 P3 1.543258 1_555
O17 Zn5 2.047763 1_565
O18 P9 1.524623 1_555
O18 Zn0 2.034030 1_555
O19 P10 1.524623 1_555
O19 Zn1 2.034030 1_555
O20 P11 1.524623 1_555
O20 Zn2 2.034029 1_555
O21 P6 1.524623 1_555
O21 Zn3 2.034030 1_555
O22 P7 1.524623 1_555
O22 Zn4 2.034030 1_555
O23 P8 1.524623 1_555
O23 Zn5 2.034029 1_555
O24 P0 1.546497 1_455
O25 P1 1.546497 1_545
O26 P2 1.546497 1_554
O27 P3 1.546497 1_655
O28 P4 1.546497 1_565
O29 P5 1.546497 1_556
O30 P6 1.547854 1_555
O31 P7 1.547854 1_555
O32 P8 1.547854 1_555
O33 P9 1.547854 1_555
O34 P10 1.547854 1_555
O35 P11 1.547854 1_555
