# generated using pymatgen
data_KB5(H2O3)4
_symmetry_space_group_name_H-M   'P 1'
_cell_length_a   7.21114654
_cell_length_b   7.21114654
_cell_length_c   11.17699400
_cell_angle_alpha   90.00000000
_cell_angle_beta   90.00000000
_cell_angle_gamma   101.88431165
_symmetry_Int_Tables_number   1
_chemical_formula_structural   KB5(H2O3)4
_chemical_formula_sum   'K2 B10 H16 O24'
_cell_volume   568.75276439
_cell_formula_units_Z   2
loop_
 _symmetry_equiv_pos_site_id
 _symmetry_equiv_pos_as_xyz
  1  'x, y, z'
loop_
 _atom_site_type_symbol
 _atom_site_label
 _atom_site_symmetry_multiplicity
 _atom_site_fract_x
 _atom_site_fract_y
 _atom_site_fract_z
 _atom_site_occupancy
  K  K0  1  0.49277100  0.49277100  0.50000000  1
  K  K1  1  0.99277100  0.99277100  0.00000000  1
  B  B0  1  0.89481400  0.89481400  0.50000000  1
  B  B1  1  0.39481400  0.39481400  0.00000000  1
  B  B2  1  0.89567100  0.70462600  0.68825100  1
  B  B3  1  0.70462600  0.89567100  0.31174900  1
  B  B4  1  0.39567100  0.20462600  0.81174900  1
  B  B5  1  0.20462600  0.39567100  0.18825100  1
  B  B6  1  0.93031800  0.04112900  0.70471400  1
  B  B7  1  0.04112900  0.93031800  0.29528600  1
  B  B8  1  0.43031800  0.54112900  0.79528600  1
  B  B9  1  0.54112900  0.43031800  0.20471400  1
  H  H0  1  0.52743800  0.00878500  0.48900700  1
  H  H1  1  0.00878500  0.52743800  0.51099300  1
  H  H2  1  0.02743800  0.50878500  0.01099300  1
  H  H3  1  0.50878500  0.02743800  0.98900700  1
  H  H4  1  0.30809300  0.01337500  0.48002100  1
  H  H5  1  0.01337500  0.30809300  0.51997900  1
  H  H6  1  0.80809300  0.51337500  0.01997900  1
  H  H7  1  0.51337500  0.80809300  0.98002100  1
  H  H8  1  0.39801000  0.04958800  0.66609300  1
  H  H9  1  0.04958800  0.39801000  0.33390700  1
  H  H10  1  0.89801000  0.54958800  0.83390700  1
  H  H11  1  0.54958800  0.89801000  0.16609300  1
  H  H12  1  0.93918800  0.31417200  0.74626800  1
  H  H13  1  0.31417200  0.93918800  0.25373200  1
  H  H14  1  0.43918800  0.81417200  0.75373200  1
  H  H15  1  0.81417200  0.43918800  0.24626800  1
  O  O0  1  0.88461000  0.71268100  0.56600700  1
  O  O1  1  0.71268100  0.88461000  0.43399300  1
  O  O2  1  0.38461000  0.21268100  0.93399300  1
  O  O3  1  0.21268100  0.38461000  0.06600700  1
  O  O4  1  0.92242600  0.05815800  0.58284400  1
  O  O5  1  0.05815800  0.92242600  0.41715600  1
  O  O6  1  0.42242600  0.55815800  0.91715600  1
  O  O7  1  0.55815800  0.42242600  0.08284400  1
  O  O8  1  0.91810900  0.86595700  0.75944000  1
  O  O9  1  0.86595700  0.91810900  0.24056000  1
  O  O10  1  0.41810900  0.36595700  0.74056000  1
  O  O11  1  0.36595700  0.41810900  0.25944000  1
  O  O12  1  0.88633400  0.53367600  0.74409100  1
  O  O13  1  0.53367600  0.88633400  0.25590900  1
  O  O14  1  0.38633400  0.03367600  0.75590900  1
  O  O15  1  0.03367600  0.38633400  0.24409100  1
  O  O16  1  0.95367600  0.19169300  0.78138900  1
  O  O17  1  0.19169300  0.95367600  0.21861100  1
  O  O18  1  0.45367600  0.69169300  0.71861100  1
  O  O19  1  0.69169300  0.45367600  0.28138900  1
  O  O20  1  0.42791300  0.07179000  0.52024000  1
  O  O21  1  0.07179000  0.42791300  0.47976000  1
  O  O22  1  0.92791300  0.57179000  0.97976000  1
  O  O23  1  0.57179000  0.92791300  0.02024000  1
loop_
_geom_bond_atom_site_label_1
_geom_bond_atom_site_label_2
_geom_bond_distance
_geom_bond_site_symmetry_2
K0 O11 2.855286 1_555
K0 O10 2.855286 1_555
K0 O19 2.876452 1_555
K0 O18 2.876452 1_555
K0 O21 2.983445 1_555
K0 O20 2.983445 1_555
K0 O0 3.032752 1_555
K0 O1 3.032752 1_555
K1 O8 2.855286 1_554
K1 O9 2.855286 1_555
K1 O17 2.876452 1_655
K1 O16 2.876452 1_564
K1 O23 2.983445 1_555
K1 O22 2.983445 1_554
K1 O3 3.032752 1_665
K1 O2 3.032752 1_664
B0 O4 1.479144 1_565
B0 O5 1.479144 1_655
B0 O0 1.494954 1_555
B0 O1 1.494954 1_555
B1 O7 1.479144 1_555
B1 O6 1.479144 1_554
B1 O3 1.494954 1_555
B1 O2 1.494954 1_554
B2 O0 1.370575 1_555
B2 O12 1.370963 1_555
B2 O8 1.391119 1_555
B3 O1 1.370575 1_555
B3 O13 1.370963 1_555
B3 O9 1.391119 1_555
B4 O2 1.370575 1_555
B4 O14 1.370963 1_555
B4 O10 1.391119 1_555
B5 O3 1.370575 1_555
B5 O15 1.370963 1_555
B5 O11 1.391119 1_555
B6 O16 1.366133 1_555
B6 O4 1.369899 1_555
B6 O8 1.389871 1_545
B7 O17 1.366133 1_555
B7 O5 1.369899 1_555
B7 O9 1.389871 1_455
B8 O18 1.366133 1_555
B8 O6 1.369899 1_555
B8 O10 1.389871 1_555
B9 O19 1.366133 1_555
B9 O7 1.369899 1_555
B9 O11 1.389871 1_555
H0 O20 0.988770 1_555
H1 O21 0.988770 1_555
H2 O22 0.988770 1_454
H3 O23 0.988770 1_546
H4 O20 0.988015 1_555
H5 O21 0.988015 1_555
H6 O22 0.988015 1_554
H7 O23 0.988015 1_556
H8 O14 1.011947 1_555
H9 O15 1.011947 1_555
H10 O12 1.011947 1_555
H11 O13 1.011947 1_555
H12 O16 0.991504 1_555
H13 O17 0.991504 1_555
H14 O18 0.991504 1_555
H15 O19 0.991504 1_555
