# generated using pymatgen
data_BaLa2O4
_symmetry_space_group_name_H-M   'P 1'
_cell_length_a   6.41292253
_cell_length_b   6.41292253
_cell_length_c   23.54910870
_cell_angle_alpha   89.36634212
_cell_angle_beta   89.36634212
_cell_angle_gamma   61.14279097
_symmetry_Int_Tables_number   1
_chemical_formula_structural   BaLa2O4
_chemical_formula_sum   'Ba6 La12 O24'
_cell_volume   848.14104099
_cell_formula_units_Z   6
loop_
 _symmetry_equiv_pos_site_id
 _symmetry_equiv_pos_as_xyz
  1  'x, y, z'
loop_
 _atom_site_type_symbol
 _atom_site_label
 _atom_site_symmetry_multiplicity
 _atom_site_fract_x
 _atom_site_fract_y
 _atom_site_fract_z
 _atom_site_occupancy
  Ba  Ba0  1  0.44795400  0.22735300  0.65065100  1
  Ba  Ba1  1  0.22735300  0.44795400  0.15065100  1
  Ba  Ba2  1  0.11016500  0.88983500  0.75000000  1
  Ba  Ba3  1  0.88983500  0.11016500  0.25000000  1
  Ba  Ba4  1  0.55204600  0.77264700  0.34934900  1
  Ba  Ba5  1  0.77264700  0.55204600  0.84934900  1
  La  La0  1  0.44287100  0.21809900  0.80590100  1
  La  La1  1  0.21809900  0.44287100  0.30590100  1
  La  La2  1  0.44583600  0.22747300  0.94958000  1
  La  La3  1  0.22747300  0.44583600  0.44958000  1
  La  La4  1  0.10870900  0.88343600  0.92645100  1
  La  La5  1  0.88343600  0.10870900  0.42645100  1
  La  La6  1  0.89129100  0.11656400  0.07354900  1
  La  La7  1  0.11656400  0.89129100  0.57354900  1
  La  La8  1  0.77252700  0.55416400  0.55042000  1
  La  La9  1  0.55416400  0.77252700  0.05042000  1
  La  La10  1  0.78190100  0.55712900  0.69409900  1
  La  La11  1  0.55712900  0.78190100  0.19409900  1
  O  O0  1  0.21068900  0.07890300  0.00318800  1
  O  O1  1  0.07890300  0.21068900  0.50318800  1
  O  O2  1  0.38008000  0.96298300  0.87550800  1
  O  O3  1  0.96298300  0.38008000  0.37550800  1
  O  O4  1  0.30302300  0.10137400  0.25285800  1
  O  O5  1  0.10137400  0.30302300  0.75285800  1
  O  O6  1  0.19703100  0.52890800  0.87892100  1
  O  O7  1  0.52890800  0.19703100  0.37892100  1
  O  O8  1  0.14906000  0.76761400  0.37584600  1
  O  O9  1  0.76761400  0.14906000  0.87584600  1
  O  O10  1  0.51082700  0.48917300  0.75000000  1
  O  O11  1  0.50000000  0.50000000  0.50000000  1
  O  O12  1  0.50000000  0.50000000  0.00000000  1
  O  O13  1  0.48917300  0.51082700  0.25000000  1
  O  O14  1  0.23238600  0.85094000  0.12415400  1
  O  O15  1  0.85094000  0.23238600  0.62415400  1
  O  O16  1  0.47109200  0.80296900  0.62107900  1
  O  O17  1  0.80296900  0.47109200  0.12107900  1
  O  O18  1  0.69697700  0.89862600  0.74714200  1
  O  O19  1  0.89862600  0.69697700  0.24714200  1
  O  O20  1  0.03701700  0.61992000  0.62449200  1
  O  O21  1  0.61992000  0.03701700  0.12449200  1
  O  O22  1  0.78931100  0.92109700  0.99681200  1
  O  O23  1  0.92109700  0.78931100  0.49681200  1
loop_
_geom_bond_atom_site_label_1
_geom_bond_atom_site_label_2
_geom_bond_distance
_geom_bond_site_symmetry_2
Ba0 O15 2.667114 1_555
Ba0 O20 2.694412 1_555
Ba0 O16 2.750201 1_545
Ba0 O18 2.980326 1_545
Ba0 O10 3.035880 1_555
Ba0 O5 3.136067 1_555
Ba1 O14 2.667114 1_555
Ba1 O21 2.694412 1_555
Ba1 O17 2.750201 1_455
Ba1 O19 2.980326 1_455
Ba1 O13 3.035880 1_555
Ba1 O4 3.136067 1_555
Ba2 O10 2.613668 1_555
Ba2 O5 2.624598 1_565
Ba2 O18 2.624598 1_455
Ba3 O13 2.613668 1_555
Ba3 O4 2.624598 1_655
Ba3 O19 2.624598 1_545
Ba4 O8 2.667114 1_555
Ba4 O3 2.694412 1_555
Ba4 O7 2.750201 1_565
Ba4 O4 2.980326 1_565
Ba4 O13 3.035880 1_555
Ba4 O19 3.136067 1_555
Ba5 O9 2.667114 1_555
Ba5 O2 2.694412 1_555
Ba5 O6 2.750201 1_655
Ba5 O5 2.980326 1_655
Ba5 O10 3.035880 1_555
Ba5 O18 3.136067 1_555
La0 O5 2.355242 1_555
La0 O18 2.357500 1_545
La0 O10 2.369131 1_555
La0 O2 2.467322 1_545
La0 O6 2.529399 1_555
La0 O9 2.532955 1_555
La1 O4 2.355242 1_555
La1 O19 2.357500 1_455
La1 O13 2.369131 1_555
La1 O3 2.467322 1_455
La1 O7 2.529399 1_555
La1 O8 2.532955 1_555
La2 O12 2.286016 1_556
La2 O22 2.403687 1_545
La2 O6 2.462065 1_555
La2 O0 2.468522 1_556
La2 O9 2.542534 1_555
La2 O2 2.620983 1_545
La3 O11 2.286016 1_555
La3 O23 2.403687 1_455
La3 O7 2.462065 1_555
La3 O1 2.468522 1_555
La3 O8 2.542534 1_555
La3 O3 2.620983 1_455
La4 O9 2.350046 1_465
La4 O2 2.350576 1_555
La4 O6 2.354135 1_555
La4 O0 2.476311 1_566
La4 O22 2.540764 1_455
La4 O12 3.064146 1_556
La5 O8 2.350046 1_645
La5 O3 2.350576 1_555
La5 O7 2.354135 1_555
La5 O1 2.476311 1_655
La5 O23 2.540764 1_545
La5 O11 3.064146 1_555
La6 O14 2.350046 1_645
La6 O21 2.350576 1_555
La6 O17 2.354135 1_555
La6 O22 2.476311 1_544
La6 O0 2.540764 1_655
La6 O12 3.064146 1_555
La7 O15 2.350046 1_465
La7 O20 2.350576 1_555
La7 O16 2.354135 1_555
La7 O23 2.476311 1_455
La7 O1 2.540764 1_565
La7 O11 3.064146 1_555
La8 O11 2.286016 1_555
La8 O1 2.403687 1_655
La8 O16 2.462065 1_555
La8 O23 2.468522 1_555
La8 O15 2.542534 1_555
La8 O20 2.620983 1_655
La9 O12 2.286016 1_555
La9 O0 2.403687 1_565
La9 O17 2.462065 1_555
La9 O22 2.468522 1_554
La9 O14 2.542534 1_555
La9 O21 2.620983 1_565
La10 O18 2.355242 1_555
La10 O5 2.357500 1_655
La10 O10 2.369131 1_555
La10 O20 2.467322 1_655
La10 O16 2.529399 1_555
La10 O15 2.532955 1_555
La11 O19 2.355242 1_555
La11 O4 2.357500 1_565
La11 O13 2.369131 1_555
La11 O21 2.467322 1_565
La11 O17 2.529399 1_555
La11 O14 2.532955 1_555
