# generated using pymatgen
data_LiZr2(PO4)3
_symmetry_space_group_name_H-M   'P 1'
_cell_length_a   8.83654700
_cell_length_b   8.89000736
_cell_length_c   9.16071179
_cell_angle_alpha   91.16854314
_cell_angle_beta   118.78987571
_cell_angle_gamma   118.84546404
_symmetry_Int_Tables_number   1
_chemical_formula_structural   LiZr2(PO4)3
_chemical_formula_sum   'Li2 Zr4 P6 O24'
_cell_volume   521.63215324
_cell_formula_units_Z   2
loop_
 _symmetry_equiv_pos_site_id
 _symmetry_equiv_pos_as_xyz
  1  'x, y, z'
loop_
 _atom_site_type_symbol
 _atom_site_label
 _atom_site_symmetry_multiplicity
 _atom_site_fract_x
 _atom_site_fract_y
 _atom_site_fract_z
 _atom_site_occupancy
  Li  Li0  1  0.34824200  0.31749100  0.57312700  1
  Li  Li1  1  0.65175800  0.68250900  0.42687300  1
  Zr  Zr0  1  0.79626100  0.64306700  0.93146000  1
  Zr  Zr1  1  0.21398600  0.85774500  0.57662700  1
  Zr  Zr2  1  0.78601400  0.14225500  0.42337300  1
  Zr  Zr3  1  0.20373900  0.35693300  0.06854000  1
  P  P0  1  0.71216200  0.24719400  0.75386400  1
  P  P1  1  0.01508700  0.04599200  0.25891300  1
  P  P2  1  0.27886600  0.52082200  0.74314100  1
  P  P3  1  0.72113400  0.47917800  0.25685900  1
  P  P4  1  0.98491300  0.95400800  0.74108700  1
  P  P5  1  0.28783800  0.75280600  0.24613600  1
  O  O0  1  0.90931700  0.30980100  0.93700800  1
  O  O1  1  0.52880700  0.06217100  0.72343100  1
  O  O2  1  0.65051200  0.38645400  0.74369500  1
  O  O3  1  0.16528300  0.04274500  0.43931800  1
  O  O4  1  0.15469400  0.23206200  0.24949400  1
  O  O5  1  0.49057400  0.58126600  0.77262800  1
  O  O6  1  0.24441900  0.76541200  0.38799700  1
  O  O7  1  0.83689900  0.03836300  0.25777600  1
  O  O8  1  0.12115700  0.33392200  0.59228800  1
  O  O9  1  0.28201800  0.49824900  0.91028300  1
  O  O10  1  0.07950600  0.11331500  0.89697600  1
  O  O11  1  0.22827000  0.66178400  0.68920100  1
  O  O12  1  0.77173000  0.33821600  0.31079900  1
  O  O13  1  0.92049400  0.88668500  0.10302400  1
  O  O14  1  0.71798200  0.50175100  0.08971700  1
  O  O15  1  0.87884300  0.66607800  0.40771200  1
  O  O16  1  0.16310100  0.96163700  0.74222400  1
  O  O17  1  0.75558100  0.23458800  0.61200300  1
  O  O18  1  0.50942600  0.41873400  0.22737200  1
  O  O19  1  0.84530600  0.76793800  0.75050600  1
  O  O20  1  0.83471700  0.95725500  0.56068200  1
  O  O21  1  0.34948800  0.61354600  0.25630500  1
  O  O22  1  0.47119300  0.93782900  0.27656900  1
  O  O23  1  0.09068300  0.69019900  0.06299200  1
loop_
_geom_bond_atom_site_label_1
_geom_bond_atom_site_label_2
_geom_bond_distance
_geom_bond_site_symmetry_2
Li0 O3 2.059359 1_555
Li0 O2 2.076687 1_555
Li0 O8 2.167907 1_555
Li0 O5 2.277315 1_555
Li0 O4 2.462179 1_555
Li1 O20 2.059359 1_555
Li1 O21 2.076687 1_555
Li1 O15 2.167907 1_555
Li1 O18 2.277315 1_555
Li1 O19 2.462179 1_555
O0 P0 1.539704 1_555
O0 Zr3 2.074662 1_656
O1 P0 1.543741 1_555
O1 Zr1 2.066148 1_545
O2 P0 1.563568 1_555
O2 Zr0 2.166295 1_555
O3 P1 1.555562 1_555
O3 Zr1 2.172141 1_545
O4 P1 1.550778 1_555
O4 Zr3 2.114434 1_555
O5 P2 1.548824 1_555
O5 Zr0 2.113111 1_555
O6 P5 1.537657 1_555
O6 Zr1 2.082010 1_555
O7 P1 1.537889 1_655
O7 Zr2 2.087354 1_555
O8 P2 1.558744 1_555
O8 Zr2 2.162810 1_455
O9 P2 1.536972 1_555
O9 Zr3 2.088114 1_556
O10 P4 1.539247 1_445
O10 Zr3 2.066637 1_556
O11 P2 1.538676 1_555
O11 Zr1 2.067460 1_555
O12 P3 1.538676 1_555
O12 Zr2 2.067460 1_555
O13 P1 1.539247 1_665
O13 Zr0 2.066637 1_554
O14 P3 1.536972 1_555
O14 Zr0 2.088114 1_554
O15 P3 1.558744 1_555
O15 Zr1 2.162810 1_655
O16 P4 1.537889 1_455
O16 Zr1 2.087354 1_555
O17 P0 1.537657 1_555
O17 Zr2 2.082010 1_555
O18 P3 1.548824 1_555
O18 Zr3 2.113111 1_555
O19 P4 1.550778 1_555
O19 Zr0 2.114434 1_555
O20 P4 1.555562 1_555
O20 Zr2 2.172141 1_565
O21 P5 1.563568 1_555
O21 Zr3 2.166295 1_555
O22 P5 1.543741 1_555
O22 Zr2 2.066148 1_565
O23 P5 1.539704 1_555
O23 Zr0 2.074662 1_454
