# generated using pymatgen
data_ZrU4O10
_symmetry_space_group_name_H-M   'P 1'
_cell_length_a   3.80448600
_cell_length_b   6.56737548
_cell_length_c   15.62197218
_cell_angle_alpha   93.89377380
_cell_angle_beta   96.97409566
_cell_angle_gamma   89.97811945
_symmetry_Int_Tables_number   1
_chemical_formula_structural   ZrU4O10
_chemical_formula_sum   'Zr2 U8 O20'
_cell_volume   386.52814565
_cell_formula_units_Z   2
loop_
 _symmetry_equiv_pos_site_id
 _symmetry_equiv_pos_as_xyz
  1  'x, y, z'
loop_
 _atom_site_type_symbol
 _atom_site_label
 _atom_site_symmetry_multiplicity
 _atom_site_fract_x
 _atom_site_fract_y
 _atom_site_fract_z
 _atom_site_occupancy
  Zr  Zr0  1  0.79278300  0.60258900  0.60137600  1
  Zr  Zr1  1  0.99864400  0.99640500  0.99962400  1
  U  U0  1  0.39618300  0.80109000  0.80000600  1
  U  U1  1  0.89838500  0.30048300  0.79981300  1
  U  U2  1  0.70250700  0.89979900  0.40161600  1
  U  U3  1  0.10137000  0.69969100  0.19878100  1
  U  U4  1  0.30104800  0.10171500  0.60056800  1
  U  U5  1  0.20244500  0.40210400  0.40270200  1
  U  U6  1  0.60157600  0.19822400  0.19820700  1
  U  U7  1  0.49910500  0.49744800  0.99908200  1
  O  O0  1  0.92479600  0.97261100  0.85318600  1
  O  O1  1  0.47496100  0.83113500  0.95164800  1
  O  O2  1  0.32141100  0.76942300  0.64888300  1
  O  O3  1  0.97363900  0.31572300  0.95139900  1
  O  O4  1  0.77607900  0.91941700  0.55370700  1
  O  O5  1  0.86743000  0.62697900  0.74600000  1
  O  O6  1  0.42028500  0.47698600  0.84982100  1
  O  O7  1  0.73090100  0.57686200  0.45566900  1
  O  O8  1  0.37419300  0.12535500  0.74997300  1
  O  O9  1  0.17832200  0.72523800  0.35087800  1
  O  O10  1  0.62922200  0.87452800  0.24981600  1
  O  O11  1  0.27988400  0.43514400  0.55359900  1
  O  O12  1  0.82654900  0.28322700  0.64786600  1
  O  O13  1  0.12596100  0.37351500  0.24923700  1
  O  O14  1  0.02238300  0.68103700  0.04605200  1
  O  O15  1  0.22617800  0.07604200  0.45255200  1
  O  O16  1  0.57567400  0.52341700  0.14779300  1
  O  O17  1  0.67673400  0.22679700  0.35176900  1
  O  O18  1  0.07484700  0.02307300  0.14494600  1
  O  O19  1  0.52526700  0.16491400  0.04721300  1
loop_
_geom_bond_atom_site_label_1
_geom_bond_atom_site_label_2
_geom_bond_distance
_geom_bond_site_symmetry_2
O0 Zr1 2.265414 1_555
O0 U0 2.325610 1_655
O0 U0 2.339335 1_555
O0 U1 2.359057 1_565
O1 Zr1 2.288620 1_555
O1 Zr1 2.289428 1_455
O1 U0 2.346234 1_555
O1 U7 2.358780 1_555
O2 Zr0 2.275644 1_555
O2 Zr0 2.307554 1_455
O2 U0 2.338378 1_555
O2 U4 2.355300 1_565
O3 Zr1 2.274066 1_545
O3 U7 2.332965 1_555
O3 U7 2.344181 1_655
O3 U1 2.345835 1_555
O4 Zr0 2.255409 1_555
O4 U4 2.331522 1_565
O4 U4 2.342208 1_665
O4 U2 2.353103 1_555
O5 Zr0 2.237380 1_555
O5 U0 2.338447 1_555
O5 U0 2.350434 1_655
O5 U1 2.353477 1_555
O6 U7 2.309268 1_555
O6 U0 2.313454 1_555
O6 U1 2.323468 1_455
O6 U1 2.341565 1_555
O7 Zr0 2.254520 1_555
O7 U2 2.333153 1_555
O7 U5 2.334565 1_655
O7 U5 2.347938 1_555
O8 U4 2.311319 1_555
O8 U0 2.315823 1_545
O8 U1 2.325777 1_555
O8 U1 2.329145 1_455
O9 U5 2.320021 1_555
O9 U2 2.326808 1_555
O9 U2 2.333000 1_455
O9 U3 2.352970 1_555
O10 U6 2.322123 1_565
O10 U3 2.324337 1_655
O10 U3 2.339991 1_555
O10 U2 2.348385 1_555
O11 Zr0 2.260638 1_555
O11 Zr0 2.328829 1_455
O11 U5 2.335104 1_555
O11 U4 2.354490 1_555
O12 Zr0 2.264275 1_555
O12 U4 2.329902 1_655
O12 U4 2.342534 1_555
O12 U1 2.351168 1_555
O13 U3 2.330232 1_555
O13 U6 2.330614 1_455
O13 U6 2.336456 1_555
O13 U5 2.374252 1_555
O14 Zr1 2.238705 1_454
O14 U7 2.341444 1_454
O14 U7 2.341562 1_554
O14 U3 2.363087 1_555
O15 U4 2.289857 1_555
O15 U5 2.325800 1_555
O15 U2 2.331056 1_445
O15 U2 2.341021 1_545
O16 U7 2.300630 1_554
O16 U6 2.323889 1_555
O16 U3 2.335167 1_555
O16 U3 2.337588 1_655
O17 U2 2.331578 1_545
O17 U5 2.331783 1_555
O17 U5 2.334466 1_655
O17 U6 2.375756 1_555
O18 Zr1 2.248291 1_444
O18 U3 2.334457 1_545
O18 U6 2.343006 1_455
O18 U6 2.344795 1_555
O19 Zr1 2.287513 1_544
O19 Zr1 2.306463 1_444
O19 U6 2.336634 1_555
O19 U7 2.355684 1_554
