# generated using pymatgen
data_CoMo8H36C8(NO16)2
_symmetry_space_group_name_H-M   'P 1'
_cell_length_a   10.69482108
_cell_length_b   10.69482108
_cell_length_c   17.02304128
_cell_angle_alpha   84.83958466
_cell_angle_beta   84.83958466
_cell_angle_gamma   80.82636398
_symmetry_Int_Tables_number   1
_chemical_formula_structural   CoMo8H36C8(NO16)2
_chemical_formula_sum   'Co2 Mo16 H72 C16 N4 O64'
_cell_volume   1908.71879209
_cell_formula_units_Z   2
loop_
 _symmetry_equiv_pos_site_id
 _symmetry_equiv_pos_as_xyz
  1  'x, y, z'
loop_
 _atom_site_type_symbol
 _atom_site_label
 _atom_site_symmetry_multiplicity
 _atom_site_fract_x
 _atom_site_fract_y
 _atom_site_fract_z
 _atom_site_occupancy
  Co  Co0  1  0.00000000  0.50000000  0.00000000  1
  Co  Co1  1  0.50000000  0.00000000  0.50000000  1
  Mo  Mo0  1  0.58820500  0.91053100  0.92220700  1
  Mo  Mo1  1  0.08946900  0.41179500  0.57779300  1
  Mo  Mo2  1  0.41179500  0.08946900  0.07779300  1
  Mo  Mo3  1  0.91053100  0.58820500  0.42220700  1
  Mo  Mo4  1  0.46000500  0.74655800  0.06986400  1
  Mo  Mo5  1  0.25344200  0.53999500  0.43013600  1
  Mo  Mo6  1  0.53999500  0.25344200  0.93013600  1
  Mo  Mo7  1  0.74655800  0.46000500  0.56986400  1
  Mo  Mo8  1  0.75395500  0.03488900  0.03680500  1
  Mo  Mo9  1  0.96511100  0.24604500  0.46319500  1
  Mo  Mo10  1  0.24604500  0.96511100  0.96319500  1
  Mo  Mo11  1  0.03488900  0.75395500  0.53680500  1
  Mo  Mo12  1  0.62347400  0.87459300  0.18971300  1
  Mo  Mo13  1  0.12540700  0.37652600  0.31028700  1
  Mo  Mo14  1  0.37652600  0.12540700  0.81028700  1
  Mo  Mo15  1  0.87459300  0.62347400  0.68971300  1
  H  H0  1  0.88492600  0.64212900  0.12766100  1
  H  H1  1  0.35787100  0.11507400  0.37233900  1
  H  H2  1  0.11507400  0.35787100  0.87233900  1
  H  H3  1  0.64212900  0.88492600  0.62766100  1
  H  H4  1  0.00317500  0.54035200  0.15209100  1
  H  H5  1  0.45964800  0.99682500  0.34790900  1
  H  H6  1  0.99682500  0.45964800  0.84790900  1
  H  H7  1  0.54035200  0.00317500  0.65209100  1
  H  H8  1  0.10870100  0.29839200  0.08307800  1
  H  H9  1  0.70160800  0.89129900  0.41692200  1
  H  H10  1  0.89129900  0.70160800  0.91692200  1
  H  H11  1  0.29839200  0.10870100  0.58307800  1
  H  H12  1  0.01308400  0.24877800  0.03305600  1
  H  H13  1  0.75122200  0.98691600  0.46694400  1
  H  H14  1  0.98691600  0.75122200  0.96694400  1
  H  H15  1  0.24877800  0.01308400  0.53305600  1
  H  H16  1  0.26538000  0.44791900  0.98962000  1
  H  H17  1  0.55208100  0.73462000  0.51038000  1
  H  H18  1  0.73462000  0.55208100  0.01038000  1
  H  H19  1  0.44791900  0.26538000  0.48962000  1
  H  H20  1  0.22594600  0.56811100  0.03918200  1
  H  H21  1  0.43188900  0.77405400  0.46081800  1
  H  H22  1  0.77405400  0.43188900  0.96081800  1
  H  H23  1  0.56811100  0.22594600  0.53918200  1
  H  H24  1  0.82832300  0.35466700  0.22484500  1
  H  H25  1  0.64533300  0.17167700  0.27515500  1
  H  H26  1  0.17167700  0.64533300  0.77515500  1
  H  H27  1  0.35466700  0.82832300  0.72484500  1
  H  H28  1  0.73618100  0.44564000  0.15022500  1
  H  H29  1  0.55436000  0.26381900  0.34977500  1
  H  H30  1  0.26381900  0.55436000  0.84977500  1
  H  H31  1  0.44564000  0.73618100  0.65022500  1
  H  H32  1  0.74749100  0.27677800  0.15940300  1
  H  H33  1  0.72322200  0.25250900  0.34059700  1
  H  H34  1  0.25250900  0.72322200  0.84059700  1
  H  H35  1  0.27677800  0.74749100  0.65940300  1
  H  H36  1  0.42830700  0.38687000  0.24896200  1
  H  H37  1  0.61313000  0.57169300  0.25103800  1
  H  H38  1  0.57169300  0.61313000  0.75103800  1
  H  H39  1  0.38687000  0.42830700  0.74896200  1
  H  H40  1  0.51850900  0.29188200  0.17552200  1
  H  H41  1  0.70811800  0.48149100  0.32447800  1
  H  H42  1  0.48149100  0.70811800  0.82447800  1
  H  H43  1  0.29188200  0.51850900  0.67552200  1
  H  H44  1  0.50613200  0.46134600  0.16303400  1
  H  H45  1  0.53865400  0.49386800  0.33696600  1
  H  H46  1  0.49386800  0.53865400  0.83696600  1
  H  H47  1  0.46134600  0.50613200  0.66303400  1
  H  H48  1  0.81420600  0.14841800  0.66435600  1
  H  H49  1  0.85158200  0.18579400  0.83564400  1
  H  H50  1  0.18579400  0.85158200  0.33564400  1
  H  H51  1  0.14841800  0.81420600  0.16435600  1
  H  H52  1  0.73964400  0.07461400  0.75144100  1
  H  H53  1  0.92538600  0.26035600  0.74855900  1
  H  H54  1  0.26035600  0.92538600  0.24855900  1
  H  H55  1  0.07461400  0.73964400  0.25144100  1
  H  H56  1  0.82765400  0.97860900  0.67751600  1
  H  H57  1  0.02139100  0.17234600  0.82248400  1
  H  H58  1  0.17234600  0.02139100  0.32248400  1
  H  H59  1  0.97860900  0.82765400  0.17751600  1
  H  H60  1  0.03846900  0.94364000  0.83927700  1
  H  H61  1  0.05636000  0.96153100  0.66072300  1
  H  H62  1  0.96153100  0.05636000  0.16072300  1
  H  H63  1  0.94364000  0.03846900  0.33927700  1
  H  H64  1  0.95645400  0.86102900  0.77744400  1
  H  H65  1  0.13897100  0.04354600  0.72255600  1
  H  H66  1  0.04354600  0.13897100  0.22255600  1
  H  H67  1  0.86102900  0.95645400  0.27744400  1
  H  H68  1  0.86890700  0.95637200  0.85171400  1
  H  H69  1  0.04362800  0.13109300  0.64828600  1
  H  H70  1  0.13109300  0.04362800  0.14828600  1
  H  H71  1  0.95637200  0.86890700  0.35171400  1
  C  C0  1  0.74378100  0.36124600  0.19195200  1
  C  C1  1  0.63875400  0.25621900  0.30804800  1
  C  C2  1  0.25621900  0.63875400  0.80804800  1
  C  C3  1  0.36124600  0.74378100  0.69195200  1
  C  C4  1  0.51142500  0.37868100  0.20620500  1
  C  C5  1  0.62131900  0.48857500  0.29379500  1
  C  C6  1  0.48857500  0.62131900  0.79379500  1
  C  C7  1  0.37868100  0.51142500  0.70620500  1
  C  C8  1  0.82148300  0.06592400  0.70765400  1
  C  C9  1  0.93407600  0.17851700  0.79234600  1
  C  C10  1  0.17851700  0.93407600  0.29234600  1
  C  C11  1  0.06592400  0.82148300  0.20765400  1
  C  C12  1  0.95189600  0.94662400  0.80897200  1
  C  C13  1  0.05337600  0.04810400  0.69102800  1
  C  C14  1  0.04810400  0.05337600  0.19102800  1
  C  C15  1  0.94662400  0.95189600  0.30897200  1
  N  N0  1  0.62864600  0.37135400  0.25000000  1
  N  N1  1  0.37135400  0.62864600  0.75000000  1
  N  N2  1  0.94001500  0.05998500  0.75000000  1
  N  N3  1  0.05998500  0.94001500  0.25000000  1
  O  O0  1  0.96556500  0.59271400  0.10735000  1
  O  O1  1  0.40728600  0.03443500  0.39265000  1
  O  O2  1  0.03443500  0.40728600  0.89265000  1
  O  O3  1  0.59271400  0.96556500  0.60735000  1
  O  O4  1  0.32869000  0.66832000  0.08608700  1
  O  O5  1  0.33168000  0.67131000  0.41391300  1
  O  O6  1  0.67131000  0.33168000  0.91391300  1
  O  O7  1  0.66832000  0.32869000  0.58608700  1
  O  O8  1  0.02316100  0.31982400  0.06377200  1
  O  O9  1  0.68017600  0.97683900  0.43622800  1
  O  O10  1  0.97683900  0.68017600  0.93622800  1
  O  O11  1  0.31982400  0.02316100  0.56377200  1
  O  O12  1  0.53880900  0.95958200  0.82516800  1
  O  O13  1  0.04041800  0.46119100  0.67483200  1
  O  O14  1  0.46119100  0.04041800  0.17483200  1
  O  O15  1  0.95958200  0.53880900  0.32516800  1
  O  O16  1  0.19186700  0.50814200  0.00935600  1
  O  O17  1  0.49185800  0.80813300  0.49064400  1
  O  O18  1  0.80813300  0.49185800  0.99064400  1
  O  O19  1  0.50814200  0.19186700  0.50935600  1
  O  O20  1  0.87246800  0.90742900  0.02093400  1
  O  O21  1  0.09257100  0.12753200  0.47906600  1
  O  O22  1  0.12753200  0.09257100  0.97906600  1
  O  O23  1  0.90742900  0.87246800  0.52093400  1
  O  O24  1  0.60597900  0.88895800  0.29083400  1
  O  O25  1  0.11104200  0.39402100  0.20916600  1
  O  O26  1  0.39402100  0.11104200  0.70916600  1
  O  O27  1  0.88895800  0.60597900  0.79083400  1
  O  O28  1  0.83070400  0.16628200  0.03080000  1
  O  O29  1  0.83371800  0.16929600  0.46920000  1
  O  O30  1  0.16929600  0.83371800  0.96920000  1
  O  O31  1  0.16628200  0.83070400  0.53080000  1
  O  O32  1  0.59023200  0.62851200  0.05488400  1
  O  O33  1  0.37148800  0.40976800  0.44511600  1
  O  O34  1  0.40976800  0.37148800  0.94511600  1
  O  O35  1  0.62851200  0.59023200  0.55488400  1
  O  O36  1  0.41870400  0.08120200  0.95171400  1
  O  O37  1  0.91879800  0.58129600  0.54828600  1
  O  O38  1  0.58129600  0.91879800  0.04828600  1
  O  O39  1  0.08120200  0.41870400  0.45171400  1
  O  O40  1  0.71571100  0.01337600  0.14991700  1
  O  O41  1  0.98662400  0.28428900  0.35008300  1
  O  O42  1  0.28428900  0.98662400  0.85008300  1
  O  O43  1  0.01337600  0.71571100  0.64991700  1
  O  O44  1  0.68246700  0.05374100  0.93010300  1
  O  O45  1  0.94625900  0.31753300  0.56989700  1
  O  O46  1  0.31753300  0.94625900  0.06989700  1
  O  O47  1  0.05374100  0.68246700  0.43010300  1
  O  O48  1  0.44617000  0.81653100  0.95769900  1
  O  O49  1  0.18346900  0.55383000  0.54230100  1
  O  O50  1  0.55383000  0.18346900  0.04230100  1
  O  O51  1  0.81653100  0.44617000  0.45769900  1
  O  O52  1  0.74746100  0.74928400  0.17359000  1
  O  O53  1  0.25071600  0.25253900  0.32641000  1
  O  O54  1  0.25253900  0.25071600  0.82641000  1
  O  O55  1  0.74928400  0.74746100  0.67359000  1
  O  O56  1  0.48254600  0.78621300  0.17445000  1
  O  O57  1  0.21378700  0.51745400  0.32555000  1
  O  O58  1  0.51745400  0.21378700  0.82555000  1
  O  O59  1  0.78621300  0.48254600  0.67445000  1
  O  O60  1  0.71286700  0.78828100  0.90938600  1
  O  O61  1  0.21171900  0.28713300  0.59061400  1
  O  O62  1  0.28713300  0.21171900  0.09061400  1
  O  O63  1  0.78828100  0.71286700  0.40938600  1
loop_
_geom_bond_atom_site_label_1
_geom_bond_atom_site_label_2
_geom_bond_distance
_geom_bond_site_symmetry_2
Co0 O16 2.088502 1_555
Co0 O18 2.088502 1_454
Co0 O8 2.114918 1_555
Co0 O10 2.114918 1_454
Co0 O2 2.132312 1_554
Co0 O0 2.132312 1_455
Co1 O19 2.088502 1_555
Co1 O17 2.088502 1_545
Co1 O11 2.114918 1_555
Co1 O9 2.114918 1_545
Co1 O1 2.132312 1_555
Co1 O3 2.132312 1_545
Mo0 O60 1.725614 1_555
Mo0 O12 1.787674 1_555
Mo0 O48 1.973761 1_555
Mo0 O44 1.983408 1_565
Mo0 O38 2.150159 1_556
Mo0 O36 2.411696 1_565
Mo1 O61 1.725614 1_555
Mo1 O13 1.787674 1_555
Mo1 O49 1.973761 1_555
Mo1 O45 1.983408 1_455
Mo1 O39 2.150159 1_555
Mo1 O37 2.411696 1_455
Mo2 O62 1.725614 1_555
Mo2 O14 1.787674 1_555
Mo2 O50 1.973761 1_555
Mo2 O46 1.983408 1_545
Mo2 O36 2.150159 1_554
Mo2 O38 2.411696 1_545
Mo3 O63 1.725614 1_555
Mo3 O15 1.787674 1_555
Mo3 O51 1.973761 1_555
Mo3 O47 1.983408 1_655
Mo3 O37 2.150159 1_555
Mo3 O39 2.411696 1_655
Mo4 O4 1.735531 1_555
Mo4 O32 1.741271 1_555
Mo4 O56 1.911371 1_555
Mo4 O48 1.996537 1_554
Mo4 O38 2.401111 1_555
Mo4 O46 2.417771 1_555
Mo5 O5 1.735531 1_555
Mo5 O33 1.741271 1_555
Mo5 O57 1.911371 1_555
Mo5 O49 1.996537 1_555
Mo5 O39 2.401111 1_555
Mo5 O47 2.417771 1_555
Mo6 O6 1.735531 1_555
Mo6 O34 1.741271 1_555
Mo6 O58 1.911371 1_555
Mo6 O50 1.996537 1_556
Mo6 O36 2.401111 1_555
Mo6 O44 2.417771 1_555
Mo7 O7 1.735531 1_555
Mo7 O35 1.741271 1_555
Mo7 O59 1.911371 1_555
Mo7 O51 1.996537 1_555
Mo7 O37 2.401111 1_555
Mo7 O45 2.417771 1_555
Mo8 O28 1.727914 1_555
Mo8 O20 1.729578 1_545
Mo8 O40 1.932991 1_555
Mo8 O44 2.014760 1_554
Mo8 O38 2.368948 1_545
Mo8 O50 2.453767 1_555
Mo9 O29 1.727914 1_555
Mo9 O21 1.729578 1_655
Mo9 O41 1.932991 1_555
Mo9 O45 2.014760 1_555
Mo9 O39 2.368948 1_655
Mo9 O51 2.453767 1_555
Mo10 O30 1.727914 1_555
Mo10 O22 1.729578 1_565
Mo10 O42 1.932991 1_555
Mo10 O46 2.014760 1_556
Mo10 O36 2.368948 1_565
Mo10 O48 2.453767 1_555
Mo11 O31 1.727914 1_555
Mo11 O23 1.729578 1_455
Mo11 O43 1.932991 1_555
Mo11 O47 2.014760 1_555
Mo11 O37 2.368948 1_455
Mo11 O49 2.453767 1_555
Mo12 O24 1.732701 1_555
Mo12 O52 1.750357 1_555
Mo12 O40 1.949569 1_565
Mo12 O56 1.949730 1_555
Mo12 O14 2.288769 1_565
Mo12 O38 2.479060 1_555
Mo13 O25 1.732701 1_555
Mo13 O53 1.750357 1_555
Mo13 O41 1.949569 1_455
Mo13 O57 1.949730 1_555
Mo13 O15 2.288769 1_455
Mo13 O39 2.479060 1_555
Mo14 O26 1.732701 1_555
Mo14 O54 1.750357 1_555
Mo14 O42 1.949569 1_545
Mo14 O58 1.949730 1_555
Mo14 O12 2.288769 1_545
Mo14 O36 2.479060 1_555
Mo15 O27 1.732701 1_555
Mo15 O55 1.750357 1_555
Mo15 O43 1.949569 1_655
Mo15 O59 1.949730 1_555
Mo15 O13 2.288769 1_655
Mo15 O37 2.479060 1_555
H0 O0 0.988187 1_555
H1 O1 0.988187 1_555
H2 O2 0.988187 1_555
H3 O3 0.988187 1_555
H4 O0 0.980832 1_455
H5 O1 0.980832 1_565
H6 O2 0.980832 1_655
H7 O3 0.980832 1_545
H8 O8 0.985466 1_555
H9 O9 0.985466 1_555
H10 O10 0.985466 1_555
H11 O11 0.985466 1_555
H12 O8 0.984920 1_555
H13 O9 0.984920 1_555
H14 O10 0.984920 1_555
H15 O11 0.984920 1_555
H16 O16 0.987815 1_556
H17 O17 0.987815 1_555
H18 O18 0.987815 1_554
H19 O19 0.987815 1_555
H20 O16 0.984056 1_555
H21 O17 0.984056 1_555
H22 O18 0.984056 1_555
H23 O19 0.984056 1_555
C0 H28 1.094291 1_555
C0 H32 1.095134 1_555
C0 H24 1.095304 1_555
C0 N0 1.504075 1_555
C1 H29 1.094291 1_555
C1 H33 1.095134 1_555
C1 H25 1.095304 1_555
C1 N0 1.504075 1_555
C2 H30 1.094291 1_555
C2 H34 1.095134 1_555
C2 H26 1.095304 1_555
C2 N1 1.504075 1_555
C3 H31 1.094291 1_555
C3 H35 1.095134 1_555
C3 H27 1.095304 1_555
C3 N1 1.504075 1_555
C4 H36 1.094484 1_555
C4 H40 1.094521 1_555
C4 H44 1.095237 1_555
C4 N0 1.503297 1_555
C5 H37 1.094484 1_555
C5 H41 1.094521 1_555
C5 H45 1.095237 1_555
C5 N0 1.503297 1_555
C6 H38 1.094484 1_555
C6 H42 1.094521 1_555
C6 H46 1.095237 1_555
C6 N1 1.503297 1_555
C7 H39 1.094484 1_555
C7 H43 1.094521 1_555
C7 H47 1.095237 1_555
C7 N1 1.503297 1_555
C8 H48 1.095056 1_555
C8 H52 1.095205 1_555
C8 H56 1.095456 1_545
C8 N2 1.503714 1_555
C9 H49 1.095056 1_555
C9 H53 1.095205 1_555
C9 H57 1.095456 1_655
C9 N2 1.503714 1_555
C10 H50 1.095056 1_555
C10 H54 1.095205 1_555
C10 H58 1.095456 1_565
C10 N3 1.503714 1_555
C11 H51 1.095056 1_555
C11 H55 1.095205 1_555
C11 H59 1.095456 1_455
C11 N3 1.503714 1_555
C12 H68 1.093614 1_555
C12 H64 1.094473 1_555
C12 H60 1.094511 1_655
C12 N2 1.499556 1_565
C13 H69 1.093614 1_555
C13 H65 1.094473 1_555
C13 H61 1.094511 1_545
C13 N2 1.499556 1_455
C14 H70 1.093614 1_555
C14 H66 1.094473 1_555
C14 H62 1.094511 1_455
C14 N3 1.499556 1_545
C15 H71 1.093614 1_555
C15 H67 1.094473 1_555
C15 H63 1.094511 1_565
C15 N3 1.499556 1_655
