# generated using pymatgen
data_Na2AlPCO7
_symmetry_space_group_name_H-M   'P 1'
_cell_length_a   6.40359300
_cell_length_b   5.17166700
_cell_length_c   8.88698471
_cell_angle_alpha   88.22095017
_cell_angle_beta   90.00000000
_cell_angle_gamma   90.00000000
_symmetry_Int_Tables_number   1
_chemical_formula_structural   Na2AlPCO7
_chemical_formula_sum   'Na4 Al2 P2 C2 O14'
_cell_volume   294.17063502
_cell_formula_units_Z   2
loop_
 _symmetry_equiv_pos_site_id
 _symmetry_equiv_pos_as_xyz
  1  'x, y, z'
loop_
 _atom_site_type_symbol
 _atom_site_label
 _atom_site_symmetry_multiplicity
 _atom_site_fract_x
 _atom_site_fract_y
 _atom_site_fract_z
 _atom_site_occupancy
  Na  Na0  1  0.50470500  0.76308400  0.77226400  1
  Na  Na1  1  0.99529500  0.76308400  0.77226400  1
  Na  Na2  1  0.49529500  0.23691600  0.22773600  1
  Na  Na3  1  0.00470500  0.23691600  0.22773600  1
  Al  Al0  1  0.25000000  0.21739300  0.65004400  1
  Al  Al1  1  0.75000000  0.78260700  0.34995600  1
  P  P0  1  0.75000000  0.27921800  0.56956300  1
  P  P1  1  0.25000000  0.72078200  0.43043700  1
  C  C0  1  0.25000000  0.27209600  0.91661800  1
  C  C1  1  0.75000000  0.72790400  0.08338200  1
  O  O0  1  0.75000000  0.69165100  0.94499300  1
  O  O1  1  0.25000000  0.04509900  0.85442700  1
  O  O2  1  0.25000000  0.46181800  0.81217700  1
  O  O3  1  0.94640500  0.21540200  0.66406400  1
  O  O4  1  0.55359500  0.21540200  0.66406400  1
  O  O5  1  0.25000000  0.87947300  0.57669300  1
  O  O6  1  0.75000000  0.57488800  0.52477000  1
  O  O7  1  0.25000000  0.42511200  0.47523000  1
  O  O8  1  0.75000000  0.12052700  0.42330700  1
  O  O9  1  0.44640500  0.78459800  0.33593600  1
  O  O10  1  0.05359500  0.78459800  0.33593600  1
  O  O11  1  0.75000000  0.53818200  0.18782300  1
  O  O12  1  0.75000000  0.95490100  0.14557300  1
  O  O13  1  0.25000000  0.30834900  0.05500700  1
loop_
_geom_bond_atom_site_label_1
_geom_bond_atom_site_label_2
_geom_bond_distance
_geom_bond_site_symmetry_2
Na0 O0 2.219218 1_555
Na0 O2 2.275800 1_555
Na0 O1 2.320932 1_565
Na0 O5 2.445072 1_555
Na0 O4 2.520914 1_565
Na0 O6 2.895724 1_555
Na1 O0 2.219218 1_555
Na1 O2 2.275800 1_655
Na1 O1 2.320932 1_665
Na1 O5 2.445072 1_655
Na1 O3 2.520914 1_565
Na1 O6 2.895724 1_555
Na2 O13 2.219218 1_555
Na2 O11 2.275800 1_555
Na2 O12 2.320932 1_545
Na2 O8 2.445072 1_555
Na2 O9 2.520914 1_545
Na2 O7 2.895724 1_555
Na3 O13 2.219218 1_555
Na3 O11 2.275800 1_455
Na3 O12 2.320932 1_445
Na3 O8 2.445072 1_455
Na3 O10 2.520914 1_545
Na3 O7 2.895724 1_555
Al0 O7 1.861175 1_555
Al0 O5 1.884093 1_545
Al0 O2 1.946052 1_555
Al0 O4 1.948094 1_555
Al0 O3 1.948094 1_455
Al0 O1 1.998148 1_555
Al1 O6 1.861175 1_555
Al1 O8 1.884093 1_565
Al1 O11 1.946052 1_555
Al1 O9 1.948094 1_555
Al1 O10 1.948094 1_655
Al1 O12 1.998148 1_555
C0 O13 1.249811 1_556
C0 O1 1.312981 1_555
C0 O2 1.329533 1_555
C1 O0 1.249811 1_554
C1 O12 1.312981 1_555
C1 O11 1.329533 1_555
O3 P0 1.542345 1_555
O4 P0 1.542345 1_555
O5 P1 1.558586 1_555
O6 P0 1.568068 1_555
O7 P1 1.568068 1_555
O8 P0 1.558586 1_555
O9 P1 1.542345 1_555
O10 P1 1.542345 1_555
