# generated using pymatgen
data_Li3CuS3
_symmetry_space_group_name_H-M   'P 1'
_cell_length_a   10.78597700
_cell_length_b   10.78597700
_cell_length_c   4.49166300
_cell_angle_alpha   90.00000000
_cell_angle_beta   90.00000000
_cell_angle_gamma   90.00000000
_symmetry_Int_Tables_number   1
_chemical_formula_structural   Li3CuS3
_chemical_formula_sum   'Li12 Cu4 S12'
_cell_volume   522.54794523
_cell_formula_units_Z   4
loop_
 _symmetry_equiv_pos_site_id
 _symmetry_equiv_pos_as_xyz
  1  'x, y, z'
loop_
 _atom_site_type_symbol
 _atom_site_label
 _atom_site_symmetry_multiplicity
 _atom_site_fract_x
 _atom_site_fract_y
 _atom_site_fract_z
 _atom_site_occupancy
  Li  Li0  1  0.35893400  0.10951900  0.50000000  1
  Li  Li1  1  0.60951800  0.14106600  0.00000000  1
  Li  Li2  1  0.16190000  0.16190000  0.00000000  1
  Li  Li3  1  0.66190000  0.33810000  0.50000000  1
  Li  Li4  1  0.10951900  0.35893400  0.50000000  1
  Li  Li5  1  0.85893400  0.39048100  0.00000000  1
  Li  Li6  1  0.14106600  0.60951800  0.00000000  1
  Li  Li7  1  0.89048200  0.64106600  0.50000000  1
  Li  Li8  1  0.33810000  0.66190000  0.50000000  1
  Li  Li9  1  0.83810000  0.83810000  0.00000000  1
  Li  Li10  1  0.39048100  0.85893400  0.00000000  1
  Li  Li11  1  0.64106600  0.89048200  0.50000000  1
  Cu  Cu0  1  0.88709600  0.11290400  0.50000000  1
  Cu  Cu1  1  0.38709600  0.38709600  0.00000000  1
  Cu  Cu2  1  0.61290400  0.61290400  0.00000000  1
  Cu  Cu3  1  0.11290400  0.88709600  0.50000000  1
  S  S0  1  0.09468700  0.09468700  0.50000000  1
  S  S1  1  0.67972400  0.11092900  0.50000000  1
  S  S2  1  0.38907100  0.17972400  0.00000000  1
  S  S3  1  0.88907100  0.32027600  0.50000000  1
  S  S4  1  0.17972400  0.38907100  0.00000000  1
  S  S5  1  0.59468700  0.40531300  0.00000000  1
  S  S6  1  0.40531300  0.59468700  0.00000000  1
  S  S7  1  0.82027600  0.61092900  0.00000000  1
  S  S8  1  0.11092900  0.67972400  0.50000000  1
  S  S9  1  0.61092900  0.82027600  0.00000000  1
  S  S10  1  0.32027600  0.88907100  0.50000000  1
  S  S11  1  0.90531300  0.90531300  0.50000000  1
loop_
_geom_bond_atom_site_label_1
_geom_bond_atom_site_label_2
_geom_bond_distance
_geom_bond_site_symmetry_2
Li0 S2 2.392241 1_555
Li0 S2 2.392241 1_556
Li0 S10 2.414030 1_545
Li0 S0 2.854648 1_555
Li1 S1 2.392245 1_555
Li1 S1 2.392245 1_554
Li1 S2 2.414019 1_555
Li1 S5 2.854648 1_555
Li2 S2 2.457792 1_555
Li2 S4 2.457792 1_555
Li2 S0 2.468782 1_555
Li2 S0 2.468782 1_554
Li3 S3 2.457792 1_555
Li3 S1 2.457792 1_555
Li3 S5 2.468782 1_556
Li3 S5 2.468782 1_555
Li4 S4 2.392241 1_555
Li4 S4 2.392241 1_556
Li4 S3 2.414030 1_455
Li4 S0 2.854648 1_555
Li5 S3 2.392241 1_554
Li5 S3 2.392241 1_555
Li5 S7 2.414030 1_555
Li5 S5 2.854648 1_555
Li6 S8 2.392245 1_555
Li6 S8 2.392245 1_554
Li6 S4 2.414019 1_555
Li6 S6 2.854648 1_555
Li7 S7 2.392245 1_556
Li7 S7 2.392245 1_555
Li7 S8 2.414019 1_655
Li7 S11 2.854648 1_555
Li8 S10 2.457792 1_555
Li8 S8 2.457792 1_555
Li8 S6 2.468782 1_555
Li8 S6 2.468782 1_556
Li9 S9 2.457792 1_555
Li9 S7 2.457792 1_555
Li9 S11 2.468782 1_555
Li9 S11 2.468782 1_554
Li10 S10 2.392241 1_555
Li10 S10 2.392241 1_554
Li10 S9 2.414030 1_555
Li10 S6 2.854648 1_555
Li11 S9 2.392245 1_555
Li11 S9 2.392245 1_556
Li11 S1 2.414019 1_565
Li11 S11 2.854648 1_555
Cu0 S1 2.236811 1_555
Cu0 S3 2.236811 1_555
Cu0 S11 2.247677 1_545
Cu0 S0 2.247677 1_655
Cu1 S2 2.236811 1_555
Cu1 S4 2.236811 1_555
Cu1 S5 2.247677 1_555
Cu1 S6 2.247677 1_555
Cu2 S9 2.236811 1_555
Cu2 S7 2.236811 1_555
Cu2 S5 2.247677 1_555
Cu2 S6 2.247677 1_555
Cu3 S8 2.236811 1_555
Cu3 S10 2.236811 1_555
Cu3 S0 2.247677 1_565
Cu3 S11 2.247677 1_455
