# generated using pymatgen
data_Li3VFe3O8
_symmetry_space_group_name_H-M   'P 1'
_cell_length_a   5.89905991
_cell_length_b   5.90788465
_cell_length_c   9.62183124
_cell_angle_alpha   89.93489843
_cell_angle_beta   89.94542771
_cell_angle_gamma   59.99358112
_symmetry_Int_Tables_number   1
_chemical_formula_structural   Li3VFe3O8
_chemical_formula_sum   'Li6 V2 Fe6 O16'
_cell_volume   290.38539152
_cell_formula_units_Z   2
loop_
 _symmetry_equiv_pos_site_id
 _symmetry_equiv_pos_as_xyz
  1  'x, y, z'
loop_
 _atom_site_type_symbol
 _atom_site_label
 _atom_site_symmetry_multiplicity
 _atom_site_fract_x
 _atom_site_fract_y
 _atom_site_fract_z
 _atom_site_occupancy
  Li  Li0  1  0.82503900  0.82512600  0.94322200  1
  Li  Li1  1  0.35064500  0.82405800  0.94279000  1
  Li  Li2  1  0.82388600  0.35097300  0.94288900  1
  Li  Li3  1  0.17501000  0.64965600  0.44301600  1
  Li  Li4  1  0.64959500  0.17491900  0.44287800  1
  Li  Li5  1  0.17554900  0.17502600  0.44251700  1
  V  V0  1  0.66694900  0.66576900  0.49061200  1
  V  V1  1  0.33241700  0.33173200  0.99058900  1
  Fe  Fe0  1  0.83269300  0.83138500  0.21253600  1
  Fe  Fe1  1  0.33792400  0.82832300  0.21326700  1
  Fe  Fe2  1  0.82913700  0.33762000  0.21372500  1
  Fe  Fe3  1  0.16723700  0.66314300  0.71278000  1
  Fe  Fe4  1  0.66277900  0.16683700  0.71327700  1
  Fe  Fe5  1  0.16931300  0.16827000  0.71347000  1
  O  O0  1  0.00122000  0.00076100  0.32137300  1
  O  O1  1  0.83330700  0.83312400  0.59117200  1
  O  O2  1  0.52098700  0.96005100  0.34813900  1
  O  O3  1  0.96173500  0.52014500  0.34768300  1
  O  O4  1  0.33772200  0.83073300  0.59095600  1
  O  O5  1  0.66740000  0.66619400  0.09648100  1
  O  O6  1  0.51847900  0.51869700  0.34680300  1
  O  O7  1  0.82955300  0.33882700  0.59056500  1
  O  O8  1  0.16757700  0.66714500  0.09093200  1
  O  O9  1  0.47889100  0.47985400  0.84875600  1
  O  O10  1  0.03702000  0.48262200  0.84734100  1
  O  O11  1  0.00038000  0.00075300  0.82103900  1
  O  O12  1  0.33314600  0.33299300  0.59637200  1
  O  O13  1  0.66443900  0.16850400  0.09200700  1
  O  O14  1  0.48132700  0.03769800  0.84687800  1
  O  O15  1  0.17160400  0.16905300  0.08954000  1
loop_
_geom_bond_atom_site_label_1
_geom_bond_atom_site_label_2
_geom_bond_distance
_geom_bond_site_symmetry_2
Li0 O10 1.995117 1_655
Li0 O14 2.000419 1_565
Li0 O11 2.144036 1_665
Li0 O5 2.188261 1_556
Li0 O8 2.256152 1_656
Li0 O13 2.268057 1_566
Li1 O9 1.997578 1_555
Li1 O14 2.002043 1_565
Li1 O11 2.139126 1_565
Li1 O5 2.192542 1_556
Li1 O8 2.247834 1_556
Li1 O15 2.261432 1_566
Li2 O9 1.998493 1_555
Li2 O10 2.001285 1_655
Li2 O11 2.141994 1_655
Li2 O5 2.188259 1_556
Li2 O13 2.261302 1_556
Li2 O15 2.269519 1_656
Li3 O3 1.994071 1_455
Li3 O6 1.997750 1_555
Li3 O0 2.143223 1_565
Li3 O12 2.190492 1_555
Li3 O1 2.254529 1_455
Li3 O4 2.263858 1_555
Li4 O2 1.996280 1_545
Li4 O6 2.000911 1_555
Li4 O0 2.142772 1_655
Li4 O12 2.189139 1_555
Li4 O1 2.257327 1_545
Li4 O7 2.262330 1_555
Li5 O2 2.000163 1_545
Li5 O3 2.001617 1_455
Li5 O0 2.130766 1_555
Li5 O12 2.190955 1_555
Li5 O4 2.267637 1_545
Li5 O7 2.270153 1_455
Fe0 O0 2.021300 1_665
Fe0 O5 2.026444 1_555
Fe0 O3 2.061053 1_555
Fe0 O2 2.064208 1_555
Fe0 O8 2.072218 1_655
Fe0 O13 2.077626 1_565
Fe1 O0 2.009866 1_565
Fe1 O5 2.023362 1_555
Fe1 O6 2.044499 1_555
Fe1 O8 2.064925 1_555
Fe1 O2 2.073991 1_555
Fe1 O15 2.110306 1_565
Fe2 O0 2.010123 1_655
Fe2 O5 2.023790 1_555
Fe2 O6 2.044547 1_555
Fe2 O3 2.069950 1_555
Fe2 O13 2.071107 1_555
Fe2 O15 2.118179 1_655
Fe3 O11 2.017745 1_565
Fe3 O12 2.027400 1_555
Fe3 O10 2.053815 1_555
Fe3 O9 2.067477 1_555
Fe3 O1 2.069088 1_455
Fe3 O4 2.087290 1_555
Fe4 O11 2.012756 1_655
Fe4 O12 2.025469 1_555
Fe4 O14 2.047499 1_555
Fe4 O9 2.071748 1_555
Fe4 O1 2.073303 1_545
Fe4 O7 2.095071 1_555
Fe5 O11 2.006477 1_555
Fe5 O12 2.021555 1_555
Fe5 O14 2.052480 1_555
Fe5 O10 2.066670 1_555
Fe5 O4 2.091589 1_545
Fe5 O7 2.100649 1_455
O1 V0 1.962463 1_555
O2 V0 2.035399 1_555
O3 V0 2.038920 1_555
O4 V0 1.938889 1_555
O6 V0 2.050091 1_555
O7 V0 1.928800 1_555
O8 V1 1.969690 1_554
O9 V1 2.031275 1_555
O10 V1 2.044265 1_555
O13 V1 1.957227 1_554
O14 V1 2.044056 1_555
O15 V1 1.907408 1_554
