# generated using pymatgen
data_Li2V3CuO8
_symmetry_space_group_name_H-M   'P 1'
_cell_length_a   8.60488123
_cell_length_b   8.61144325
_cell_length_c   8.07928510
_cell_angle_alpha   90.01349823
_cell_angle_beta   89.99660481
_cell_angle_gamma   90.02505327
_symmetry_Int_Tables_number   1
_chemical_formula_structural   Li2V3CuO8
_chemical_formula_sum   'Li8 V12 Cu4 O32'
_cell_volume   598.67855735
_cell_formula_units_Z   4
loop_
 _symmetry_equiv_pos_site_id
 _symmetry_equiv_pos_as_xyz
  1  'x, y, z'
loop_
 _atom_site_type_symbol
 _atom_site_label
 _atom_site_symmetry_multiplicity
 _atom_site_fract_x
 _atom_site_fract_y
 _atom_site_fract_z
 _atom_site_occupancy
  Li  Li0  1  0.00431200  0.00207900  0.00251800  1
  Li  Li1  1  0.25256200  0.24923100  0.24846500  1
  Li  Li2  1  0.24717000  0.75073800  0.74807300  1
  Li  Li3  1  0.49590400  0.99782300  0.50265900  1
  Li  Li4  1  0.50081200  0.50333200  0.99857700  1
  Li  Li5  1  0.74775200  0.25388200  0.75247900  1
  Li  Li6  1  0.75198100  0.74624800  0.25239900  1
  Li  Li7  1  0.99914700  0.49645800  0.49839100  1
  V  V0  1  0.12536900  0.13216300  0.62041200  1
  V  V1  1  0.12437000  0.37741300  0.88107400  1
  V  V2  1  0.12561500  0.62464900  0.13221500  1
  V  V3  1  0.37420200  0.37557600  0.63193800  1
  V  V4  1  0.37593900  0.62263200  0.38079000  1
  V  V5  1  0.37460100  0.86794700  0.12027200  1
  V  V6  1  0.61818000  0.37426700  0.36912600  1
  V  V7  1  0.61653700  0.11893600  0.12011100  1
  V  V8  1  0.63063400  0.86644500  0.87054800  1
  V  V9  1  0.86930000  0.13345800  0.37058900  1
  V  V10  1  0.88349100  0.88077700  0.61988200  1
  V  V11  1  0.88190100  0.62572100  0.86924200  1
  Cu  Cu0  1  0.13334700  0.88341800  0.37509200  1
  Cu  Cu1  1  0.36719500  0.11696300  0.87506400  1
  Cu  Cu2  1  0.63572200  0.61645800  0.62399500  1
  Cu  Cu3  1  0.86382300  0.38372800  0.12383100  1
  O  O0  1  0.09938600  0.14081500  0.39253800  1
  O  O1  1  0.11153300  0.90256100  0.62254700  1
  O  O2  1  0.11579900  0.61256400  0.88910600  1
  O  O3  1  0.12686200  0.14894900  0.85962400  1
  O  O4  1  0.13545600  0.39006700  0.10284100  1
  O  O5  1  0.13834800  0.36657400  0.63907700  1
  O  O6  1  0.13953400  0.61498000  0.35365900  1
  O  O7  1  0.14616300  0.85653600  0.12963900  1
  O  O8  1  0.35388200  0.14370200  0.62925200  1
  O  O9  1  0.36057400  0.38507400  0.85349000  1
  O  O10  1  0.36156300  0.63350900  0.13892500  1
  O  O11  1  0.36428300  0.60996500  0.60250100  1
  O  O12  1  0.37380600  0.85099700  0.35954200  1
  O  O13  1  0.38433100  0.38740300  0.38881400  1
  O  O14  1  0.38856900  0.09751400  0.12306800  1
  O  O15  1  0.40040100  0.85937700  0.89248400  1
  O  O16  1  0.60185800  0.37856800  0.61021400  1
  O  O17  1  0.60743400  0.60275200  0.37802400  1
  O  O18  1  0.61598200  0.88589600  0.11291400  1
  O  O19  1  0.60896900  0.34947800  0.14138800  1
  O  O20  1  0.62026800  0.10579200  0.89378500  1
  O  O21  1  0.63508700  0.13446500  0.36257900  1
  O  O22  1  0.64377000  0.86896700  0.64417800  1
  O  O23  1  0.65278200  0.63911300  0.87442200  1
  O  O24  1  0.84720800  0.36088500  0.37406300  1
  O  O25  1  0.85611800  0.13025500  0.14430700  1
  O  O26  1  0.86484600  0.86559700  0.86241000  1
  O  O27  1  0.87923600  0.89410400  0.39382700  1
  O  O28  1  0.89128500  0.65026000  0.64160700  1
  O  O29  1  0.88396500  0.11398200  0.61303200  1
  O  O30  1  0.89269300  0.39719100  0.87825500  1
  O  O31  1  0.89814400  0.62190700  0.11028200  1
loop_
_geom_bond_atom_site_label_1
_geom_bond_atom_site_label_2
_geom_bond_distance
_geom_bond_site_symmetry_2
Li0 O3 2.010935 1_554
Li0 O26 2.025147 1_444
Li0 O7 2.029201 1_545
Li0 O25 2.038921 1_455
Li1 O4 1.967850 1_555
Li1 O0 1.990752 1_555
Li1 O13 1.996374 1_555
Li1 O14 2.025731 1_555
Li2 O11 1.966883 1_555
Li2 O15 1.993397 1_555
Li2 O2 1.997832 1_555
Li2 O1 2.025382 1_555
Li3 O12 2.009426 1_555
Li3 O21 2.024610 1_565
Li3 O8 2.029351 1_565
Li3 O22 2.039490 1_555
Li4 O9 1.966180 1_555
Li4 O19 1.988653 1_556
Li4 O10 1.994636 1_556
Li4 O23 2.020512 1_555
Li5 O16 2.012950 1_555
Li5 O29 2.023598 1_555
Li5 O30 2.027151 1_555
Li5 O20 2.032823 1_555
Li6 O31 2.011756 1_555
Li6 O18 2.021804 1_555
Li6 O17 2.025655 1_555
Li6 O27 2.030786 1_555
Li7 O6 1.966638 1_655
Li7 O28 1.988642 1_555
Li7 O5 1.994906 1_655
Li7 O24 2.019801 1_555
Cu0 O7 1.999539 1_555
Cu0 O1 2.014764 1_555
Cu0 O12 2.091758 1_555
Cu0 O27 2.193788 1_455
Cu0 O0 2.240272 1_565
Cu0 O6 2.318709 1_555
Cu1 O8 2.002635 1_555
Cu1 O14 2.019134 1_556
Cu1 O3 2.090156 1_555
Cu1 O20 2.185081 1_555
Cu1 O15 2.241096 1_545
Cu1 O9 2.316160 1_555
Cu2 O17 2.005578 1_555
Cu2 O23 2.037906 1_555
Cu2 O16 2.072039 1_555
Cu2 O22 2.181604 1_555
Cu2 O28 2.222707 1_555
Cu2 O11 2.342799 1_555
Cu3 O30 2.002935 1_554
Cu3 O24 2.036300 1_555
Cu3 O31 2.075004 1_555
Cu3 O25 2.190042 1_555
Cu3 O19 2.217144 1_555
Cu3 O4 2.344116 1_655
O0 V0 1.856116 1_555
O0 V9 1.988779 1_455
O1 V10 1.971257 1_455
O1 V0 1.980813 1_565
O2 V2 1.968693 1_556
O2 V11 2.022290 1_455
O2 V1 2.027388 1_555
O3 V0 1.938069 1_555
O3 V1 1.975108 1_555
O4 V1 1.797540 1_554
O4 V2 2.035725 1_555
O5 V1 1.961055 1_555
O5 V0 2.027237 1_555
O5 V3 2.031758 1_555
O6 V2 1.795075 1_555
O6 V4 2.047056 1_555
O7 V5 1.969544 1_555
O7 V2 2.004730 1_555
O8 V0 1.970091 1_555
O8 V3 2.004447 1_555
O9 V3 1.795659 1_555
O9 V1 2.045713 1_555
O10 V4 1.960279 1_555
O10 V5 2.027559 1_555
O10 V2 2.032430 1_555
O11 V4 1.797402 1_555
O11 V3 2.034276 1_555
O12 V5 1.938679 1_555
O12 V4 1.974165 1_555
O13 V3 1.968854 1_555
O13 V6 2.021725 1_555
O13 V4 2.028031 1_555
O14 V7 1.970356 1_555
O14 V5 1.980625 1_545
O15 V5 1.855148 1_556
O15 V8 1.989934 1_555
O16 V6 1.953211 1_555
O16 V3 1.966948 1_555
O17 V6 1.971092 1_555
O17 V4 1.999528 1_555
O18 V8 1.969293 1_554
O18 V7 2.007643 1_565
O18 V5 2.083576 1_555
O19 V6 1.853948 1_555
O19 V7 1.993779 1_555
O20 V7 1.832306 1_556
O20 V8 2.071571 1_545
O21 V7 1.969978 1_555
O21 V9 2.016440 1_555
O21 V6 2.070886 1_555
O22 V8 1.832524 1_555
O22 V10 2.074530 1_555
O23 V8 1.967251 1_555
O23 V11 1.975402 1_555
O24 V9 1.967955 1_555
O24 V6 1.974581 1_555
O25 V9 1.831919 1_555
O25 V7 2.073073 1_555
O26 V10 1.970368 1_555
O26 V8 2.016451 1_555
O26 V11 2.071698 1_555
O27 V10 1.830361 1_555
O27 V9 2.071563 1_565
O28 V11 1.853029 1_555
O28 V10 1.994028 1_555
O29 V9 1.970030 1_555
O29 V10 2.009009 1_545
O29 V0 2.083932 1_655
O30 V11 1.971566 1_555
O30 V1 2.001021 1_655
O31 V11 1.952733 1_554
O31 V2 1.965507 1_655
