# generated using pymatgen
data_Li3Mn3(PO4)4
_symmetry_space_group_name_H-M   'P 1'
_cell_length_a   9.93831404
_cell_length_b   9.93831404
_cell_length_c   10.49105612
_cell_angle_alpha   89.56859020
_cell_angle_beta   89.56859020
_cell_angle_gamma   39.68611579
_symmetry_Int_Tables_number   1
_chemical_formula_structural   Li3Mn3(PO4)4
_chemical_formula_sum   'Li6 Mn6 P8 O32'
_cell_volume   661.67840521
_cell_formula_units_Z   2
loop_
 _symmetry_equiv_pos_site_id
 _symmetry_equiv_pos_as_xyz
  1  'x, y, z'
loop_
 _atom_site_type_symbol
 _atom_site_label
 _atom_site_symmetry_multiplicity
 _atom_site_fract_x
 _atom_site_fract_y
 _atom_site_fract_z
 _atom_site_occupancy
  Li  Li0  1  0.95532300  0.18412700  0.19957000  1
  Li  Li1  1  0.44373400  0.55626600  0.00000000  1
  Li  Li2  1  0.81587300  0.04467700  0.80043000  1
  Li  Li3  1  0.21040800  0.93551000  0.69940200  1
  Li  Li4  1  0.06449000  0.78959200  0.30059800  1
  Li  Li5  1  0.55421200  0.44578800  0.50000000  1
  Mn  Mn0  1  0.63401400  0.67939300  0.50274600  1
  Mn  Mn1  1  0.67889800  0.63436000  0.00332900  1
  Mn  Mn2  1  0.49898500  0.00059300  0.24979100  1
  Mn  Mn3  1  0.32060700  0.36598600  0.49725400  1
  Mn  Mn4  1  0.36564000  0.32110200  0.99667100  1
  Mn  Mn5  1  0.99940700  0.50101500  0.75020900  1
  P  P0  1  0.41644100  0.74531700  0.24743200  1
  P  P1  1  0.74310800  0.41846100  0.74806900  1
  P  P2  1  0.82657800  0.77971800  0.00033000  1
  P  P3  1  0.17223000  0.22056500  0.49985600  1
  P  P4  1  0.77943500  0.82777000  0.50014400  1
  P  P5  1  0.25468300  0.58355900  0.75256800  1
  P  P6  1  0.22028200  0.17342200  0.99967000  1
  P  P7  1  0.58153900  0.25689200  0.25193100  1
  O  O0  1  0.58410200  0.58691600  0.64037100  1
  O  O1  1  0.23251700  0.27784100  0.89165700  1
  O  O2  1  0.35787900  0.94913400  0.96453200  1
  O  O3  1  0.81558900  0.22058700  0.72376100  1
  O  O4  1  0.76682100  0.72254100  0.60735800  1
  O  O5  1  0.68170500  0.80290100  0.39243700  1
  O  O6  1  0.58269400  0.58761600  0.13985200  1
  O  O7  1  0.05086600  0.64212100  0.03546800  1
  O  O8  1  0.21548100  0.82191100  0.22233000  1
  O  O9  1  0.94762400  0.35950400  0.46580500  1
  O  O10  1  0.36760000  0.47794900  0.62087700  1
  O  O11  1  0.47622000  0.36956000  0.12074500  1
  O  O12  1  0.99842200  0.30314500  0.04124200  1
  O  O13  1  0.41308400  0.41589800  0.35962900  1
  O  O14  1  0.17808900  0.78451900  0.77767000  1
  O  O15  1  0.52205100  0.63240000  0.37912300  1
  O  O16  1  0.27745900  0.23317900  0.39264200  1
  O  O17  1  0.19709900  0.31829500  0.60756300  1
  O  O18  1  0.72215900  0.76748300  0.10834300  1
  O  O19  1  0.80229400  0.68212000  0.89288000  1
  O  O20  1  0.00089500  0.69657700  0.45747300  1
  O  O21  1  0.64261800  0.05728800  0.25345500  1
  O  O22  1  0.64049600  0.05237600  0.53419500  1
  O  O23  1  0.05429100  0.64547600  0.75306600  1
  O  O24  1  0.77941300  0.18441100  0.27623900  1
  O  O25  1  0.31788000  0.19770600  0.10712000  1
  O  O26  1  0.63044000  0.52378000  0.87925500  1
  O  O27  1  0.35452400  0.94570900  0.24693400  1
  O  O28  1  0.94271200  0.35738200  0.74654500  1
  O  O29  1  0.41238400  0.41730600  0.86014800  1
  O  O30  1  0.69685500  0.00157800  0.95875800  1
  O  O31  1  0.30342300  0.99910500  0.54252700  1
loop_
_geom_bond_atom_site_label_1
_geom_bond_atom_site_label_2
_geom_bond_distance
_geom_bond_site_symmetry_2
Li0 O24 1.916926 1_555
Li0 O12 2.254123 1_555
Li0 O8 2.317727 1_645
Li1 O11 2.049545 1_555
Li1 O26 2.049545 1_554
Li1 O29 2.203774 1_554
Li1 O6 2.203774 1_555
Li2 O3 1.916926 1_555
Li2 O30 2.254123 1_555
Li2 O14 2.317727 1_645
Li3 O14 1.936101 1_555
Li3 O31 2.196192 1_555
Li3 O0 2.524580 1_555
Li3 O3 2.524744 1_465
Li4 O8 1.936101 1_555
Li4 O20 2.196192 1_555
Li4 O13 2.524580 1_555
Li4 O24 2.524744 1_465
Li5 O10 2.051393 1_555
Li5 O15 2.051393 1_555
Li5 O13 2.214289 1_555
Li5 O0 2.214289 1_555
Mn0 O0 1.961196 1_555
Mn0 O5 1.984016 1_555
Mn0 O15 1.992236 1_555
Mn0 O4 2.007602 1_555
Mn0 O9 2.172847 1_555
Mn0 O31 2.235311 1_555
Mn1 O6 1.958144 1_555
Mn1 O19 1.984463 1_554
Mn1 O26 1.994891 1_554
Mn1 O18 2.013342 1_555
Mn1 O2 2.184000 1_554
Mn1 O12 2.233536 1_555
Mn2 O27 1.888341 1_545
Mn2 O21 1.896234 1_555
Mn2 O25 1.971574 1_555
Mn2 O5 1.975523 1_545
Mn2 O18 2.140628 1_545
Mn2 O16 2.146164 1_555
Mn3 O13 1.961196 1_555
Mn3 O17 1.984016 1_555
Mn3 O10 1.992236 1_555
Mn3 O16 2.007602 1_555
Mn3 O22 2.172847 1_555
Mn3 O20 2.235311 1_555
Mn4 O29 1.958144 1_555
Mn4 O25 1.984463 1_556
Mn4 O11 1.994891 1_556
Mn4 O1 2.013342 1_555
Mn4 O7 2.184000 1_556
Mn4 O30 2.233536 1_555
Mn5 O23 1.888341 1_655
Mn5 O28 1.896234 1_555
Mn5 O19 1.971574 1_555
Mn5 O17 1.975523 1_655
Mn5 O1 2.140628 1_655
Mn5 O4 2.146164 1_555
O0 P1 1.582134 1_555
O1 P6 1.596939 1_555
O2 P6 1.512562 1_565
O3 P1 1.508545 1_555
O4 P4 1.598907 1_555
O5 P4 1.634463 1_555
O6 P0 1.572608 1_555
O7 P2 1.512562 1_455
O8 P0 1.517437 1_555
O9 P3 1.509186 1_655
O10 P5 1.566965 1_555
O11 P7 1.561454 1_555
O12 P6 1.527360 1_654
O13 P7 1.582134 1_555
O14 P5 1.517437 1_555
O15 P0 1.566965 1_555
O16 P3 1.598907 1_555
O17 P3 1.634463 1_555
O18 P2 1.596939 1_555
O19 P2 1.628081 1_556
O20 P4 1.523729 1_455
O21 P7 1.565321 1_555
O22 P4 1.509186 1_545
O23 P5 1.568022 1_555
O24 P7 1.508545 1_555
O25 P6 1.628081 1_554
O26 P1 1.561454 1_555
O27 P0 1.568022 1_555
O28 P1 1.565321 1_555
O29 P5 1.572608 1_555
O30 P2 1.527360 1_546
O31 P3 1.523729 1_565
