# generated using pymatgen
data_Na2Ge2O5
_symmetry_space_group_name_H-M   'P 1'
_cell_length_a   12.46260700
_cell_length_b   5.04140400
_cell_length_c   10.10327615
_cell_angle_alpha   60.58819911
_cell_angle_beta   90.00000000
_cell_angle_gamma   90.00000000
_symmetry_Int_Tables_number   1
_chemical_formula_structural   Na2Ge2O5
_chemical_formula_sum   'Na8 Ge8 O20'
_cell_volume   552.96413297
_cell_formula_units_Z   4
loop_
 _symmetry_equiv_pos_site_id
 _symmetry_equiv_pos_as_xyz
  1  'x, y, z'
loop_
 _atom_site_type_symbol
 _atom_site_label
 _atom_site_symmetry_multiplicity
 _atom_site_fract_x
 _atom_site_fract_y
 _atom_site_fract_z
 _atom_site_occupancy
  Na  Na0  1  0.53705900  0.10569400  0.62018300  1
  Na  Na1  1  0.99750700  0.60805700  0.62960400  1
  Na  Na2  1  0.49750700  0.39194300  0.87039600  1
  Na  Na3  1  0.03705900  0.89430600  0.87981700  1
  Na  Na4  1  0.96294100  0.10569400  0.12018300  1
  Na  Na5  1  0.50249300  0.60805700  0.12960400  1
  Na  Na6  1  0.00249300  0.39194300  0.37039600  1
  Na  Na7  1  0.46294100  0.89430600  0.37981700  1
  Ge  Ge0  1  0.69518900  0.64127500  0.55254900  1
  Ge  Ge1  1  0.82399800  0.02108300  0.67529200  1
  Ge  Ge2  1  0.32399800  0.97891700  0.82470800  1
  Ge  Ge3  1  0.19518900  0.35872500  0.94745100  1
  Ge  Ge4  1  0.80481100  0.64127500  0.05254900  1
  Ge  Ge5  1  0.67600200  0.02108300  0.17529200  1
  Ge  Ge6  1  0.17600200  0.97891700  0.32470800  1
  Ge  Ge7  1  0.30481100  0.35872500  0.44745100  1
  O  O0  1  0.71972900  0.27876700  0.56281900  1
  O  O1  1  0.56622500  0.64091800  0.61505200  1
  O  O2  1  0.95616600  0.13129000  0.63353600  1
  O  O3  1  0.80636600  0.69328000  0.65005200  1
  O  O4  1  0.28319200  0.07108300  0.63859900  1
  O  O5  1  0.30636600  0.30672000  0.84994800  1
  O  O6  1  0.78319200  0.92891700  0.86140100  1
  O  O7  1  0.45616600  0.86871000  0.86646400  1
  O  O8  1  0.06622500  0.35908200  0.88494800  1
  O  O9  1  0.21972900  0.72123300  0.93718100  1
  O  O10  1  0.78027100  0.27876700  0.06281900  1
  O  O11  1  0.93377500  0.64091800  0.11505200  1
  O  O12  1  0.54383400  0.13129000  0.13353600  1
  O  O13  1  0.21680800  0.07108300  0.13859900  1
  O  O14  1  0.69363400  0.69328000  0.15005200  1
  O  O15  1  0.71680800  0.92891700  0.36140100  1
  O  O16  1  0.19363400  0.30672000  0.34994800  1
  O  O17  1  0.04383400  0.86871000  0.36646400  1
  O  O18  1  0.43377500  0.35908200  0.38494800  1
  O  O19  1  0.28027100  0.72123300  0.43718100  1
loop_
_geom_bond_atom_site_label_1
_geom_bond_atom_site_label_2
_geom_bond_distance
_geom_bond_site_symmetry_2
Na0 O7 2.390673 1_545
Na0 O1 2.396735 1_545
Na0 O0 2.404826 1_555
Na0 O18 2.440341 1_555
Na0 O1 2.697803 1_555
Na1 O17 2.386817 1_655
Na1 O8 2.404985 1_655
Na1 O2 2.439348 1_555
Na1 O3 2.447228 1_555
Na1 O2 2.707044 1_565
Na2 O12 2.386817 1_556
Na2 O1 2.404985 1_555
Na2 O7 2.439348 1_555
Na2 O5 2.447228 1_555
Na2 O7 2.707044 1_545
Na3 O2 2.390673 1_465
Na3 O8 2.396735 1_565
Na3 O9 2.404826 1_555
Na3 O11 2.440341 1_456
Na3 O8 2.697803 1_555
Na4 O17 2.390673 1_645
Na4 O11 2.396735 1_545
Na4 O10 2.404826 1_555
Na4 O8 2.440341 1_654
Na4 O11 2.697803 1_555
Na5 O7 2.386817 1_554
Na5 O18 2.404985 1_555
Na5 O12 2.439348 1_555
Na5 O14 2.447228 1_555
Na5 O12 2.707044 1_565
Na6 O2 2.386817 1_455
Na6 O11 2.404985 1_455
Na6 O17 2.439348 1_555
Na6 O16 2.447228 1_555
Na6 O17 2.707044 1_545
Na7 O12 2.390673 1_565
Na7 O18 2.396735 1_565
Na7 O19 2.404826 1_555
Na7 O1 2.440341 1_555
Na7 O18 2.697803 1_555
Ge0 O1 1.726511 1_555
Ge0 O15 1.776090 1_555
Ge0 O3 1.792369 1_555
Ge0 O0 1.804990 1_555
Ge1 O2 1.723248 1_555
Ge1 O6 1.775384 1_545
Ge1 O0 1.793776 1_555
Ge1 O3 1.805066 1_545
Ge2 O7 1.723248 1_555
Ge2 O4 1.775384 1_565
Ge2 O9 1.793776 1_555
Ge2 O5 1.805066 1_565
Ge3 O8 1.726511 1_555
Ge3 O13 1.776090 1_556
Ge3 O5 1.792369 1_555
Ge3 O9 1.804990 1_555
Ge4 O11 1.726511 1_555
Ge4 O6 1.776090 1_554
Ge4 O14 1.792369 1_555
Ge4 O10 1.804990 1_555
Ge5 O12 1.723248 1_555
Ge5 O15 1.775384 1_545
Ge5 O10 1.793776 1_555
Ge5 O14 1.805066 1_545
Ge6 O17 1.723248 1_555
Ge6 O13 1.775384 1_565
Ge6 O19 1.793776 1_555
Ge6 O16 1.805066 1_565
Ge7 O18 1.726511 1_555
Ge7 O4 1.776090 1_555
Ge7 O16 1.792369 1_555
Ge7 O19 1.804990 1_555
