# generated using pymatgen
data_LiSnPO4
_symmetry_space_group_name_H-M   'P 1'
_cell_length_a   5.35117532
_cell_length_b   5.35117532
_cell_length_c   5.35117532
_cell_angle_alpha   121.05544502
_cell_angle_beta   121.05544502
_cell_angle_gamma   88.18143456
_symmetry_Int_Tables_number   1
_chemical_formula_structural   LiSnPO4
_chemical_formula_sum   'Li1 Sn1 P1 O4'
_cell_volume   106.56410590
_cell_formula_units_Z   1
loop_
 _symmetry_equiv_pos_site_id
 _symmetry_equiv_pos_as_xyz
  1  'x, y, z'
loop_
 _atom_site_type_symbol
 _atom_site_label
 _atom_site_symmetry_multiplicity
 _atom_site_fract_x
 _atom_site_fract_y
 _atom_site_fract_z
 _atom_site_occupancy
  Li  Li0  1  0.50000000  0.50000000  0.00000000  1
  Sn  Sn0  1  0.00000000  0.00000000  0.00000000  1
  P  P0  1  0.25000000  0.75000000  0.50000000  1
  O  O0  1  0.34155800  0.76993800  0.83959900  1
  O  O1  1  0.49804100  0.65844200  0.42838100  1
  O  O2  1  0.93033900  0.50195900  0.16040100  1
  O  O3  1  0.23006200  0.06966100  0.57161900  1
loop_
_geom_bond_atom_site_label_1
_geom_bond_atom_site_label_2
_geom_bond_distance
_geom_bond_site_symmetry_2
Li0 O2 1.998189 1_555
Li0 O0 1.998189 1_554
Li0 O3 1.998190 1_554
Li0 O1 1.998194 1_555
O0 P0 1.561574 1_555
O0 Sn0 2.445101 1_566
O1 P0 1.561571 1_555
O1 Sn0 2.445100 1_666
O2 P0 1.561574 1_655
O2 Sn0 2.445101 1_655
O3 P0 1.561575 1_545
O3 Sn0 2.445096 1_555
