# generated using pymatgen
data_Li3Ti(CoO2)4
_symmetry_space_group_name_H-M   'P 1'
_cell_length_a   5.93743386
_cell_length_b   5.93743386
_cell_length_c   5.98857011
_cell_angle_alpha   60.16902785
_cell_angle_beta   60.16902785
_cell_angle_gamma   60.63032708
_symmetry_Int_Tables_number   1
_chemical_formula_structural   Li3Ti(CoO2)4
_chemical_formula_sum   'Li3 Ti1 Co4 O8'
_cell_volume   150.36522661
_cell_formula_units_Z   1
loop_
 _symmetry_equiv_pos_site_id
 _symmetry_equiv_pos_as_xyz
  1  'x, y, z'
loop_
 _atom_site_type_symbol
 _atom_site_label
 _atom_site_symmetry_multiplicity
 _atom_site_fract_x
 _atom_site_fract_y
 _atom_site_fract_z
 _atom_site_occupancy
  Li  Li0  1  0.50000000  0.00000000  0.50000000  1
  Li  Li1  1  0.00000000  0.00000000  0.50000000  1
  Li  Li2  1  0.00000000  0.50000000  0.50000000  1
  Ti  Ti0  1  0.50000000  0.50000000  0.00000000  1
  Co  Co0  1  0.50000000  0.50000000  0.50000000  1
  Co  Co1  1  0.00000000  0.00000000  0.00000000  1
  Co  Co2  1  0.50000000  0.00000000  0.00000000  1
  Co  Co3  1  0.00000000  0.50000000  0.00000000  1
  O  O0  1  0.26329500  0.26329500  0.22649800  1
  O  O1  1  0.73624600  0.26182600  0.23763900  1
  O  O2  1  0.26182600  0.73624600  0.23763900  1
  O  O3  1  0.75094200  0.75094200  0.23432900  1
  O  O4  1  0.24905800  0.24905800  0.76567100  1
  O  O5  1  0.73817400  0.26375400  0.76236100  1
  O  O6  1  0.26375400  0.73817400  0.76236100  1
  O  O7  1  0.73670500  0.73670500  0.77350200  1
loop_
_geom_bond_atom_site_label_1
_geom_bond_atom_site_label_2
_geom_bond_distance
_geom_bond_site_symmetry_2
Li0 O1 2.090247 1_555
Li0 O6 2.090247 1_545
Li0 O7 2.165507 1_545
Li0 O0 2.165507 1_555
Li0 O4 2.181529 1_555
Li0 O3 2.181529 1_545
Li1 O0 2.207449 1_555
Li1 O7 2.207449 1_445
Li1 O2 2.228817 1_545
Li1 O5 2.228817 1_455
Li1 O6 2.228817 1_545
Li1 O1 2.228817 1_455
Li2 O2 2.090247 1_555
Li2 O5 2.090247 1_455
Li2 O7 2.165507 1_455
Li2 O0 2.165507 1_555
Li2 O4 2.181529 1_555
Li2 O3 2.181529 1_455
Co0 O4 2.105215 1_555
Co0 O3 2.105215 1_555
Co0 O1 2.123233 1_555
Co0 O5 2.123233 1_555
Co0 O2 2.123233 1_555
Co0 O6 2.123233 1_555
Co1 O4 2.087730 1_554
Co1 O3 2.087730 1_445
Co1 O1 2.119014 1_455
Co1 O2 2.119014 1_545
Co1 O6 2.119014 1_544
Co1 O5 2.119014 1_454
Co2 O3 2.056790 1_545
Co2 O4 2.056790 1_554
Co2 O0 2.077710 1_555
Co2 O7 2.077710 1_544
Co2 O2 2.104827 1_545
Co2 O5 2.104827 1_554
Co3 O3 2.056790 1_455
Co3 O4 2.056790 1_554
Co3 O0 2.077710 1_555
Co3 O7 2.077710 1_454
Co3 O6 2.104827 1_554
Co3 O1 2.104827 1_455
O0 Ti0 1.983572 1_555
O1 Ti0 2.007664 1_555
O2 Ti0 2.007664 1_555
O5 Ti0 2.007664 1_556
O6 Ti0 2.007664 1_556
O7 Ti0 1.983572 1_556
