# generated using pymatgen
data_Li5FeS4
_symmetry_space_group_name_H-M   'P 1'
_cell_length_a   7.70874755
_cell_length_b   7.70874755
_cell_length_c   7.70874755
_cell_angle_alpha   152.05326252
_cell_angle_beta   128.06889959
_cell_angle_gamma   60.00051159
_symmetry_Int_Tables_number   1
_chemical_formula_structural   Li5FeS4
_chemical_formula_sum   'Li5 Fe1 S4'
_cell_volume   167.76906838
_cell_formula_units_Z   1
loop_
 _symmetry_equiv_pos_site_id
 _symmetry_equiv_pos_as_xyz
  1  'x, y, z'
loop_
 _atom_site_type_symbol
 _atom_site_label
 _atom_site_symmetry_multiplicity
 _atom_site_fract_x
 _atom_site_fract_y
 _atom_site_fract_z
 _atom_site_occupancy
  Li  Li0  1  0.95811000  0.17650300  0.78160600  1
  Li  Li1  1  0.39489700  0.17650300  0.21839400  1
  Li  Li2  1  0.60526500  0.82058400  0.78468100  1
  Li  Li3  1  0.03590300  0.82058400  0.21531900  1
  Li  Li4  1  0.49613200  0.49613200  0.00000000  1
  Fe  Fe0  1  0.99539300  0.49539300  0.50000000  1
  S  S0  1  0.24709400  0.99997200  0.24712200  1
  S  S1  1  0.20283600  0.70283600  0.50000000  1
  S  S2  1  0.79744100  0.29744100  0.50000000  1
  S  S3  1  0.75285000  0.99997200  0.75287800  1
loop_
_geom_bond_atom_site_label_1
_geom_bond_atom_site_label_2
_geom_bond_distance
_geom_bond_site_symmetry_2
Li0 S3 2.364996 1_545
Li0 S1 2.400387 1_645
Li0 S1 2.400390 1_656
Li0 S2 2.494170 1_555
Li1 S0 2.364990 1_545
Li1 S1 2.400392 1_544
Li1 S1 2.400392 1_555
Li1 S2 2.494172 1_555
Li2 S2 2.381800 1_555
Li2 S2 2.381800 1_566
Li2 S3 2.404774 1_555
Li2 S1 2.482841 1_555
Li3 S2 2.381800 1_465
Li3 S2 2.381800 1_454
Li3 S0 2.404774 1_555
Li3 S1 2.482841 1_555
Li4 S0 2.526142 1_544
Li4 S0 2.526142 1_555
Li4 S3 2.526142 1_544
Li4 S3 2.526142 1_555
Fe0 S3 2.500273 1_555
Fe0 S3 2.500273 1_544
Fe0 S0 2.500273 1_645
Fe0 S0 2.500273 1_656
Fe0 S2 2.643037 1_555
Fe0 S1 2.769760 1_655
