# generated using pymatgen
data_LiCa2Nb3O10
_symmetry_space_group_name_H-M   'P 1'
_cell_length_a   5.55501700
_cell_length_b   5.53906600
_cell_length_c   27.48011318
_cell_angle_alpha   89.55089675
_cell_angle_beta   90.00000000
_cell_angle_gamma   90.00000000
_symmetry_Int_Tables_number   1
_chemical_formula_structural   LiCa2Nb3O10
_chemical_formula_sum   'Li4 Ca8 Nb12 O40'
_cell_volume   845.52627464
_cell_formula_units_Z   4
loop_
 _symmetry_equiv_pos_site_id
 _symmetry_equiv_pos_as_xyz
  1  'x, y, z'
loop_
 _atom_site_type_symbol
 _atom_site_label
 _atom_site_symmetry_multiplicity
 _atom_site_fract_x
 _atom_site_fract_y
 _atom_site_fract_z
 _atom_site_occupancy
  Li  Li0  1  0.00509900  0.25090500  0.74914000  1
  Li  Li1  1  0.50523600  0.24940900  0.76048600  1
  Li  Li2  1  0.49476400  0.24940900  0.26048600  1
  Li  Li3  1  0.99490100  0.25090500  0.24914000  1
  Ca  Ca0  1  0.24027800  0.98989300  0.58432500  1
  Ca  Ca1  1  0.75972200  0.98989300  0.08432500  1
  Ca  Ca2  1  0.76776400  0.51416300  0.58071000  1
  Ca  Ca3  1  0.26711100  0.48370300  0.92028100  1
  Ca  Ca4  1  0.23223600  0.51416300  0.08071000  1
  Ca  Ca5  1  0.73288900  0.48370300  0.42028100  1
  Ca  Ca6  1  0.73950400  0.01148700  0.91648200  1
  Ca  Ca7  1  0.26049600  0.01148700  0.41648200  1
  Nb  Nb0  1  0.24821500  0.99365200  0.84399100  1
  Nb  Nb1  1  0.74966800  0.99969400  0.50006400  1
  Nb  Nb2  1  0.75178500  0.99365200  0.34399100  1
  Nb  Nb3  1  0.25033200  0.99969400  0.00006400  1
  Nb  Nb4  1  0.76079600  0.50301500  0.84398500  1
  Nb  Nb5  1  0.23920400  0.50301500  0.34398500  1
  Nb  Nb6  1  0.24993000  0.49956500  0.50004200  1
  Nb  Nb7  1  0.25894000  0.49698800  0.65659700  1
  Nb  Nb8  1  0.75007000  0.49956500  0.00004200  1
  Nb  Nb9  1  0.74106000  0.49698800  0.15659700  1
  Nb  Nb10  1  0.75190300  0.00577900  0.65674100  1
  Nb  Nb11  1  0.24809700  0.00577900  0.15674100  1
  O  O0  1  0.21335500  0.00286400  0.77900700  1
  O  O1  1  0.78664500  0.00286400  0.27900700  1
  O  O2  1  0.81296500  0.95250200  0.56980700  1
  O  O3  1  0.18703500  0.95250200  0.06980700  1
  O  O4  1  0.94018100  0.81084300  0.98316900  1
  O  O5  1  0.05981900  0.81084300  0.48316900  1
  O  O6  1  0.50531900  0.75296000  0.64050600  1
  O  O7  1  0.50582500  0.74800100  0.86036900  1
  O  O8  1  0.00518000  0.75127400  0.65363600  1
  O  O9  1  0.00650700  0.74584900  0.86854200  1
  O  O10  1  0.49468100  0.75296000  0.14050600  1
  O  O11  1  0.49417500  0.74800100  0.36036900  1
  O  O12  1  0.99482000  0.75127400  0.15363600  1
  O  O13  1  0.99349300  0.74584900  0.36854200  1
  O  O14  1  0.56789800  0.68245700  0.49978100  1
  O  O15  1  0.43210200  0.68245700  0.99978100  1
  O  O16  1  0.20451600  0.56143500  0.56974200  1
  O  O17  1  0.79548400  0.56143500  0.06974200  1
  O  O18  1  0.79577900  0.49623000  0.77900700  1
  O  O19  1  0.20422100  0.49623000  0.27900700  1
  O  O20  1  0.28039000  0.43037900  0.72074900  1
  O  O21  1  0.71961000  0.43037900  0.22074900  1
  O  O22  1  0.70041500  0.43609300  0.93007500  1
  O  O23  1  0.29958500  0.43609300  0.43007500  1
  O  O24  1  0.93272900  0.31799000  0.49983800  1
  O  O25  1  0.06727100  0.31799000  0.99983800  1
  O  O26  1  0.50664900  0.25356200  0.63091100  1
  O  O27  1  0.50491700  0.24813400  0.84436900  1
  O  O28  1  0.00598900  0.25229100  0.63802600  1
  O  O29  1  0.00491600  0.24676500  0.86292600  1
  O  O30  1  0.49335100  0.25356200  0.13091100  1
  O  O31  1  0.49508300  0.24813400  0.34436900  1
  O  O32  1  0.99401100  0.25229100  0.13802600  1
  O  O33  1  0.99508400  0.24676500  0.36292600  1
  O  O34  1  0.43900200  0.18822200  0.51650900  1
  O  O35  1  0.56099800  0.18822200  0.01650900  1
  O  O36  1  0.31578400  0.05210600  0.93009100  1
  O  O37  1  0.68421600  0.05210600  0.43009100  1
  O  O38  1  0.73094900  0.06979900  0.72077000  1
  O  O39  1  0.26905100  0.06979900  0.22077000  1
loop_
_geom_bond_atom_site_label_1
_geom_bond_atom_site_label_2
_geom_bond_distance
_geom_bond_site_symmetry_2
Li0 O0 1.970262 1_555
Li0 O18 1.972230 1_455
Li0 O20 1.980757 1_555
Li0 O38 1.986360 1_455
Li1 O20 1.933941 1_555
Li1 O38 1.941664 1_555
Li1 O0 2.177622 1_555
Li1 O18 2.178066 1_555
Li1 O27 2.305070 1_555
Li2 O21 1.933941 1_555
Li2 O39 1.941664 1_555
Li2 O1 2.177622 1_555
Li2 O19 2.178066 1_555
Li2 O31 2.305070 1_555
Li3 O1 1.970262 1_555
Li3 O19 1.972230 1_655
Li3 O21 1.980757 1_555
Li3 O39 1.986360 1_655
Ca0 O2 2.416186 1_455
Ca0 O16 2.418123 1_555
Ca0 O34 2.422052 1_565
Ca0 O26 2.447589 1_565
Ca0 O28 2.453096 1_565
Ca0 O6 2.498358 1_555
Ca0 O8 2.653459 1_555
Ca1 O3 2.416186 1_655
Ca1 O17 2.418123 1_555
Ca1 O35 2.422052 1_565
Ca1 O30 2.447589 1_565
Ca1 O32 2.453096 1_565
Ca1 O10 2.498358 1_555
Ca1 O12 2.653459 1_555
Ca2 O2 2.456937 1_555
Ca2 O16 2.458545 1_655
Ca2 O26 2.461601 1_555
Ca2 O28 2.510027 1_655
Ca2 O6 2.570833 1_555
Ca2 O24 2.645238 1_555
Ca2 O14 2.648595 1_555
Ca2 O8 2.742563 1_655
Ca3 O36 2.418854 1_555
Ca3 O22 2.436098 1_555
Ca3 O9 2.488631 1_555
Ca3 O29 2.521985 1_555
Ca3 O7 2.564067 1_555
Ca3 O25 2.612097 1_555
Ca3 O15 2.619640 1_555
Ca3 O27 2.800363 1_555
Ca4 O3 2.456937 1_555
Ca4 O17 2.458545 1_455
Ca4 O30 2.461601 1_555
Ca4 O32 2.510027 1_455
Ca4 O10 2.570833 1_555
Ca4 O25 2.645238 1_554
Ca4 O15 2.648595 1_554
Ca4 O12 2.742563 1_455
Ca5 O37 2.418854 1_555
Ca5 O23 2.436098 1_555
Ca5 O13 2.488631 1_555
Ca5 O33 2.521985 1_555
Ca5 O11 2.564067 1_555
Ca5 O24 2.612097 1_555
Ca5 O14 2.619640 1_555
Ca5 O31 2.800363 1_555
Ca6 O22 2.394156 1_555
Ca6 O36 2.394168 1_555
Ca6 O4 2.409198 1_545
Ca6 O29 2.451133 1_655
Ca6 O9 2.476045 1_645
Ca6 O7 2.495616 1_545
Ca6 O27 2.702346 1_555
Ca7 O23 2.394156 1_555
Ca7 O37 2.394168 1_555
Ca7 O5 2.409198 1_545
Ca7 O33 2.451133 1_455
Ca7 O13 2.476045 1_445
Ca7 O11 2.495616 1_545
Ca7 O31 2.702346 1_555
Nb0 O0 1.796564 1_565
Nb0 O27 2.005173 1_565
Nb0 O29 2.018527 1_565
Nb0 O7 2.022930 1_555
Nb0 O9 2.031625 1_555
Nb0 O36 2.419889 1_565
Nb1 O2 1.963990 1_555
Nb1 O37 1.976143 1_565
Nb1 O14 2.026717 1_555
Nb1 O24 2.035278 1_565
Nb1 O34 2.068900 1_565
Nb1 O5 2.070210 1_655
Nb2 O1 1.796564 1_565
Nb2 O31 2.005173 1_565
Nb2 O33 2.018527 1_565
Nb2 O11 2.022930 1_555
Nb2 O13 2.031625 1_555
Nb2 O37 2.419889 1_565
Nb3 O3 1.963990 1_555
Nb3 O36 1.976143 1_564
Nb3 O15 2.026717 1_554
Nb3 O25 2.035278 1_564
Nb3 O35 2.068900 1_565
Nb3 O4 2.070210 1_454
Nb4 O18 1.796832 1_555
Nb4 O27 2.003366 1_555
Nb4 O7 2.014899 1_555
Nb4 O29 2.028048 1_655
Nb4 O9 2.035160 1_655
Nb4 O22 2.415160 1_555
Nb5 O19 1.796832 1_555
Nb5 O31 2.003366 1_555
Nb5 O11 2.014899 1_555
Nb5 O33 2.028048 1_455
Nb5 O13 2.035160 1_455
Nb5 O23 2.415160 1_555
Nb6 O16 1.964687 1_555
Nb6 O23 1.976630 1_555
Nb6 O24 2.028918 1_455
Nb6 O14 2.036194 1_555
Nb6 O34 2.066333 1_555
Nb6 O5 2.071369 1_555
Nb7 O20 1.802209 1_555
Nb7 O8 1.993942 1_555
Nb7 O6 2.017215 1_555
Nb7 O28 2.020597 1_555
Nb7 O26 2.055397 1_555
Nb7 O16 2.429449 1_555
Nb8 O17 1.964687 1_555
Nb8 O22 1.976630 1_554
Nb8 O25 2.028918 1_654
Nb8 O15 2.036194 1_554
Nb8 O35 2.066333 1_555
Nb8 O4 2.071369 1_554
Nb9 O21 1.802209 1_555
Nb9 O12 1.993942 1_555
Nb9 O10 2.017215 1_555
Nb9 O32 2.020597 1_555
Nb9 O30 2.055397 1_555
Nb9 O17 2.429449 1_555
Nb10 O38 1.801390 1_555
Nb10 O8 1.993993 1_645
Nb10 O6 2.011516 1_545
Nb10 O28 2.027345 1_655
Nb10 O26 2.056304 1_555
Nb10 O2 2.433168 1_545
Nb11 O39 1.801390 1_555
Nb11 O12 1.993993 1_445
Nb11 O10 2.011516 1_545
Nb11 O32 2.027345 1_455
Nb11 O30 2.056304 1_555
Nb11 O3 2.433168 1_545
