# generated using pymatgen
data_VOF
_symmetry_space_group_name_H-M   'P 1'
_cell_length_a   3.10187900
_cell_length_b   4.74585600
_cell_length_c   18.93661900
_cell_angle_alpha   88.73311022
_cell_angle_beta   90.00000000
_cell_angle_gamma   90.00000000
_symmetry_Int_Tables_number   1
_chemical_formula_structural   VOF
_chemical_formula_sum   'V8 O8 F8'
_cell_volume   278.69917016
_cell_formula_units_Z   8
loop_
 _symmetry_equiv_pos_site_id
 _symmetry_equiv_pos_as_xyz
  1  'x, y, z'
loop_
 _atom_site_type_symbol
 _atom_site_label
 _atom_site_symmetry_multiplicity
 _atom_site_fract_x
 _atom_site_fract_y
 _atom_site_fract_z
 _atom_site_occupancy
  V  V0  1  0.00000000  0.91051800  0.24939800  1
  V  V1  1  0.00000000  0.02674000  0.00027500  1
  V  V2  1  0.00000000  0.98582100  0.50012700  1
  V  V3  1  0.00000000  0.04127900  0.75015300  1
  V  V4  1  0.50000000  0.47689900  0.12505100  1
  V  V5  1  0.50000000  0.59002700  0.87479300  1
  V  V6  1  0.50000000  0.45555700  0.37504800  1
  V  V7  1  0.50000000  0.51372900  0.62508700  1
  O  O0  1  0.50000000  0.75336700  0.19918300  1
  O  O1  1  0.50000000  0.83782100  0.95170000  1
  O  O2  1  0.00000000  0.75343300  0.82401300  1
  O  O3  1  0.00000000  0.70270200  0.57520800  1
  O  O4  1  0.00000000  0.65146300  0.32681300  1
  O  O5  1  0.00000000  0.26849500  0.42513500  1
  O  O6  1  0.00000000  0.32432600  0.67519600  1
  O  O7  1  0.50000000  0.20680700  0.05046100  1
  F  F0  1  0.50000000  0.77966600  0.45151200  1
  F  F1  1  0.50000000  0.83419900  0.70147200  1
  F  F2  1  0.00000000  0.69149200  0.07677700  1
  F  F3  1  0.00000000  0.26504900  0.17563000  1
  F  F4  1  0.00000000  0.34187800  0.92121300  1
  F  F5  1  0.50000000  0.15239700  0.29601600  1
  F  F6  1  0.50000000  0.19191600  0.54902400  1
  F  F7  1  0.50000000  0.24442100  0.80070900  1
loop_
_geom_bond_atom_site_label_1
_geom_bond_atom_site_label_2
_geom_bond_distance
_geom_bond_site_symmetry_2
O0 V4 1.942595 1_555
O0 V0 1.974140 1_555
O0 V0 1.974140 1_655
O1 V5 1.892003 1_555
O1 V1 2.022834 1_666
O1 V1 2.022834 1_566
O2 V3 1.933370 1_565
O2 V5 1.974466 1_455
O2 V5 1.974466 1_555
O3 V2 1.934518 1_555
O3 V7 2.016043 1_555
O3 V7 2.016043 1_455
O4 V0 1.892330 1_555
O4 V6 2.016580 1_455
O4 V6 2.016580 1_555
O5 V2 1.931872 1_545
O5 V6 2.013933 1_455
O5 V6 2.013933 1_555
O6 V3 1.932597 1_555
O6 V7 2.018931 1_555
O6 V7 2.018931 1_455
O7 V4 1.928270 1_555
O7 V1 2.018611 1_555
O7 V1 2.018611 1_655
F0 V2 2.061549 1_655
F0 V2 2.061549 1_555
F0 V6 2.135669 1_555
F1 V3 2.064250 1_565
F1 V3 2.064250 1_665
F1 V7 2.121960 1_555
F2 V4 2.058423 1_455
F2 V4 2.058423 1_555
F2 V1 2.127953 1_565
F3 V4 2.071485 1_555
F3 V4 2.071485 1_455
F3 V0 2.162967 1_545
F4 V1 2.092681 1_556
F4 V5 2.125858 1_555
F4 V5 2.125858 1_455
F5 V6 2.098817 1_555
F5 V0 2.132432 1_645
F5 V0 2.132432 1_545
F6 V2 2.063857 1_645
F6 V2 2.063857 1_545
F6 V7 2.122390 1_555
F7 V3 2.071767 1_655
F7 V3 2.071767 1_555
F7 V5 2.181771 1_555
