# generated using pymatgen
data_LiTi2(PO4)3
_symmetry_space_group_name_H-M   'P 1'
_cell_length_a   8.64861000
_cell_length_b   8.70920500
_cell_length_c   12.00716300
_cell_angle_alpha   90.00000000
_cell_angle_beta   90.00000000
_cell_angle_gamma   90.00000000
_symmetry_Int_Tables_number   1
_chemical_formula_structural   LiTi2(PO4)3
_chemical_formula_sum   'Li4 Ti8 P12 O48'
_cell_volume   904.40974465
_cell_formula_units_Z   4
loop_
 _symmetry_equiv_pos_site_id
 _symmetry_equiv_pos_as_xyz
  1  'x, y, z'
loop_
 _atom_site_type_symbol
 _atom_site_label
 _atom_site_symmetry_multiplicity
 _atom_site_fract_x
 _atom_site_fract_y
 _atom_site_fract_z
 _atom_site_occupancy
  Li  Li0  1  0.53407900  0.27120200  0.81710600  1
  Li  Li1  1  0.46592100  0.72879800  0.31710600  1
  Li  Li2  1  0.03407900  0.22879800  0.31710600  1
  Li  Li3  1  0.96592100  0.77120200  0.81710600  1
  Ti  Ti0  1  0.50511000  0.04838600  0.37944600  1
  Ti  Ti1  1  0.49846900  0.47169600  0.61620800  1
  Ti  Ti2  1  0.50153100  0.52830400  0.11620800  1
  Ti  Ti3  1  0.49489000  0.95161400  0.87944600  1
  Ti  Ti4  1  0.99846900  0.02830400  0.11620800  1
  Ti  Ti5  1  0.00511000  0.45161400  0.87944600  1
  Ti  Ti6  1  0.99489000  0.54838600  0.37944600  1
  Ti  Ti7  1  0.00153100  0.97169600  0.61620800  1
  P  P0  1  0.71208800  0.75348700  0.50168600  1
  P  P1  1  0.64687600  0.60466300  0.85556100  1
  P  P2  1  0.64132600  0.89430800  0.14421400  1
  P  P3  1  0.35312400  0.39533700  0.35556100  1
  P  P4  1  0.35867400  0.10569200  0.64421400  1
  P  P5  1  0.28791200  0.24651300  0.00168600  1
  P  P6  1  0.21208800  0.74651300  0.00168600  1
  P  P7  1  0.14687600  0.89533700  0.35556100  1
  P  P8  1  0.14132600  0.60569200  0.64421400  1
  P  P9  1  0.85312400  0.10466300  0.85556100  1
  P  P10  1  0.85867400  0.39430800  0.14421400  1
  P  P11  1  0.78791200  0.25348700  0.50168600  1
  O  O0  1  0.68687200  0.35396600  0.57569700  1
  O  O1  1  0.68773600  0.15018600  0.42439000  1
  O  O2  1  0.68124300  0.40890300  0.15421800  1
  O  O3  1  0.67586200  0.09839100  0.84443300  1
  O  O4  1  0.58854600  0.93161300  0.02505000  1
  O  O5  1  0.59327300  0.56452700  0.97446400  1
  O  O6  1  0.58952400  0.72941900  0.17615800  1
  O  O7  1  0.59640800  0.77004400  0.82666400  1
  O  O8  1  0.60306900  0.84450300  0.42386300  1
  O  O9  1  0.60954300  0.65066300  0.57656400  1
  O  O10  1  0.56750000  0.00789800  0.22784700  1
  O  O11  1  0.57183100  0.48473600  0.77703800  1
  O  O12  1  0.42816900  0.51526400  0.27703800  1
  O  O13  1  0.43250000  0.99210200  0.72784700  1
  O  O14  1  0.39045700  0.34933700  0.07656400  1
  O  O15  1  0.39693100  0.15549700  0.92386300  1
  O  O16  1  0.41047600  0.27058100  0.67615800  1
  O  O17  1  0.40359200  0.22995600  0.32666400  1
  O  O18  1  0.40672700  0.43547300  0.47446400  1
  O  O19  1  0.41145400  0.06838700  0.52505000  1
  O  O20  1  0.31875700  0.59109700  0.65421800  1
  O  O21  1  0.32413800  0.90160900  0.34443300  1
  O  O22  1  0.31312800  0.64603400  0.07569700  1
  O  O23  1  0.31226400  0.84981400  0.92439000  1
  O  O24  1  0.18773600  0.34981400  0.92439000  1
  O  O25  1  0.18687200  0.14603400  0.07569700  1
  O  O26  1  0.17586200  0.40160900  0.34443300  1
  O  O27  1  0.18124300  0.09109700  0.65421800  1
  O  O28  1  0.09327300  0.93547300  0.47446400  1
  O  O29  1  0.08854600  0.56838700  0.52505000  1
  O  O30  1  0.09640800  0.72995600  0.32666400  1
  O  O31  1  0.08952400  0.77058100  0.67615800  1
  O  O32  1  0.10954300  0.84933700  0.07656400  1
  O  O33  1  0.10306900  0.65549700  0.92386300  1
  O  O34  1  0.07183100  0.01526400  0.27703800  1
  O  O35  1  0.06750000  0.49210200  0.72784700  1
  O  O36  1  0.93250000  0.50789800  0.22784700  1
  O  O37  1  0.92816900  0.98473600  0.77703800  1
  O  O38  1  0.89693100  0.34450300  0.42386300  1
  O  O39  1  0.89045700  0.15066300  0.57656400  1
  O  O40  1  0.91047600  0.22941900  0.17615800  1
  O  O41  1  0.90359200  0.27004400  0.82666400  1
  O  O42  1  0.91145400  0.43161300  0.02505000  1
  O  O43  1  0.90672700  0.06452700  0.97446400  1
  O  O44  1  0.82413800  0.59839100  0.84443300  1
  O  O45  1  0.81875700  0.90890300  0.15421800  1
  O  O46  1  0.81226400  0.65018600  0.42439000  1
  O  O47  1  0.81312800  0.85396600  0.57569700  1
loop_
_geom_bond_atom_site_label_1
_geom_bond_atom_site_label_2
_geom_bond_distance
_geom_bond_site_symmetry_2
Li0 O11 1.948484 1_555
Li0 O3 1.968872 1_555
Li0 O16 2.001736 1_555
Li0 O15 2.016313 1_555
Li1 O12 1.948484 1_555
Li1 O21 1.968872 1_555
Li1 O6 2.001736 1_555
Li1 O8 2.016313 1_555
Li2 O34 1.948484 1_555
Li2 O26 1.968872 1_555
Li2 O40 2.001736 1_455
Li2 O38 2.016313 1_455
Li3 O37 1.948484 1_555
Li3 O44 1.968872 1_555
Li3 O31 2.001736 1_655
Li3 O33 2.016313 1_655
O0 P11 1.522869 1_555
O0 Ti1 1.985684 1_555
O1 P11 1.556087 1_555
O1 Ti0 1.889967 1_555
O2 P10 1.544465 1_555
O2 Ti2 1.924937 1_555
O3 P9 1.539851 1_555
O3 Ti3 2.064106 1_545
O4 P2 1.536612 1_555
O4 Ti3 1.934672 1_554
O5 P1 1.541232 1_555
O5 Ti2 1.904123 1_556
O6 P2 1.552443 1_555
O6 Ti2 2.040891 1_555
O7 P1 1.544498 1_555
O7 Ti3 1.916540 1_555
O8 P0 1.546122 1_555
O8 Ti0 2.038421 1_565
O9 P0 1.548167 1_555
O9 Ti1 1.891780 1_555
O10 P2 1.547499 1_545
O10 Ti0 1.931034 1_555
O11 P1 1.549550 1_555
O11 Ti1 2.035843 1_555
O12 P3 1.549550 1_555
O12 Ti2 2.035843 1_555
O13 P4 1.547499 1_565
O13 Ti3 1.931034 1_555
O14 P5 1.548167 1_555
O14 Ti2 1.891780 1_555
O15 P5 1.546122 1_556
O15 Ti3 2.038421 1_545
O16 P4 1.552443 1_555
O16 Ti1 2.040891 1_555
O17 P3 1.544498 1_555
O17 Ti0 1.916540 1_555
O18 P3 1.541232 1_555
O18 Ti1 1.904123 1_555
O19 P4 1.536612 1_555
O19 Ti0 1.934672 1_555
O20 P8 1.544465 1_555
O20 Ti1 1.924937 1_555
O21 P7 1.539851 1_555
O21 Ti0 2.064106 1_565
O22 P6 1.522869 1_555
O22 Ti2 1.985684 1_555
O23 P6 1.556087 1_556
O23 Ti3 1.889967 1_555
O24 P5 1.556087 1_556
O24 Ti5 1.889967 1_555
O25 P5 1.522869 1_555
O25 Ti4 1.985684 1_455
O26 P3 1.539851 1_555
O26 Ti6 2.064106 1_455
O27 P4 1.544465 1_555
O27 Ti7 1.924937 1_545
O28 P7 1.541232 1_555
O28 Ti7 1.904123 1_555
O29 P8 1.536612 1_555
O29 Ti6 1.934672 1_455
O30 P7 1.544498 1_555
O30 Ti6 1.916540 1_455
O31 P8 1.552443 1_555
O31 Ti7 2.040891 1_555
O32 P6 1.548167 1_555
O32 Ti4 1.891780 1_465
O33 P6 1.546122 1_556
O33 Ti5 2.038421 1_555
O34 P7 1.549550 1_545
O34 Ti4 2.035843 1_455
O35 P8 1.547499 1_555
O35 Ti5 1.931034 1_555
O36 P10 1.547499 1_555
O36 Ti6 1.931034 1_555
O37 P9 1.549550 1_565
O37 Ti7 2.035843 1_655
O38 P11 1.546122 1_555
O38 Ti6 2.038421 1_555
O39 P11 1.548167 1_555
O39 Ti7 1.891780 1_645
O40 P10 1.552443 1_555
O40 Ti4 2.040891 1_555
O41 P9 1.544498 1_555
O41 Ti5 1.916540 1_655
O42 P10 1.536612 1_555
O42 Ti5 1.934672 1_654
O43 P9 1.541232 1_555
O43 Ti4 1.904123 1_556
O44 P1 1.539851 1_555
O44 Ti5 2.064106 1_655
O45 P2 1.544465 1_555
O45 Ti4 1.924937 1_565
O46 P0 1.556087 1_555
O46 Ti6 1.889967 1_555
O47 P0 1.522869 1_555
O47 Ti7 1.985684 1_655
