# generated using pymatgen
data_Ag2O
_symmetry_space_group_name_H-M   'P 1'
_cell_length_a   3.21546802
_cell_length_b   3.21546802
_cell_length_c   4.98854700
_cell_angle_alpha   90.00000000
_cell_angle_beta   90.00000000
_cell_angle_gamma   120.00000048
_symmetry_Int_Tables_number   1
_chemical_formula_structural   Ag2O
_chemical_formula_sum   'Ag2 O1'
_cell_volume   44.66764830
_cell_formula_units_Z   1
loop_
 _symmetry_equiv_pos_site_id
 _symmetry_equiv_pos_as_xyz
  1  'x, y, z'
loop_
 _atom_site_type_symbol
 _atom_site_label
 _atom_site_symmetry_multiplicity
 _atom_site_fract_x
 _atom_site_fract_y
 _atom_site_fract_z
 _atom_site_occupancy
  Ag  Ag0  1  0.33333300  0.66666700  0.71262100  1
  Ag  Ag1  1  0.66666700  0.33333300  0.28737900  1
  O  O0  1  0.00000000  0.00000000  0.00000000  1
loop_
_geom_bond_atom_site_label_1
_geom_bond_atom_site_label_2
_geom_bond_distance
_geom_bond_site_symmetry_2
Ag0 O0 2.345554 1_566
Ag0 O0 2.345556 1_666
Ag0 O0 2.345556 1_556
Ag1 O0 2.345554 1_655
Ag1 O0 2.345556 1_555
Ag1 O0 2.345556 1_665
