# generated using pymatgen
data_Li5Cr2Co3O10
_symmetry_space_group_name_H-M   'P 1'
_cell_length_a   5.12440192
_cell_length_b   10.23932367
_cell_length_c   7.78886446
_cell_angle_alpha   108.57744080
_cell_angle_beta   76.41164084
_cell_angle_gamma   80.85967148
_symmetry_Int_Tables_number   1
_chemical_formula_structural   Li5Cr2Co3O10
_chemical_formula_sum   'Li10 Cr4 Co6 O20'
_cell_volume   364.23187972
_cell_formula_units_Z   2
loop_
 _symmetry_equiv_pos_site_id
 _symmetry_equiv_pos_as_xyz
  1  'x, y, z'
loop_
 _atom_site_type_symbol
 _atom_site_label
 _atom_site_symmetry_multiplicity
 _atom_site_fract_x
 _atom_site_fract_y
 _atom_site_fract_z
 _atom_site_occupancy
  Li  Li0  1  0.00000300  0.50000400  0.49998300  1
  Li  Li1  1  0.00003200  0.00000600  0.50005100  1
  Li  Li2  1  0.50345600  0.60498800  0.41406100  1
  Li  Li3  1  0.50101800  0.10548200  0.41411200  1
  Li  Li4  1  0.49661300  0.39500700  0.58593400  1
  Li  Li5  1  0.49896400  0.89453100  0.58592800  1
  Li  Li6  1  0.50998100  0.69525200  0.78820300  1
  Li  Li7  1  0.50931400  0.19479600  0.78723700  1
  Li  Li8  1  0.49001800  0.30477900  0.21182500  1
  Li  Li9  1  0.49078300  0.80520100  0.21279200  1
  Cr  Cr0  1  0.00065300  0.79598600  0.69581300  1
  Cr  Cr1  1  0.99697400  0.29926200  0.69581800  1
  Cr  Cr2  1  0.99892700  0.20388900  0.30432500  1
  Cr  Cr3  1  0.00329900  0.70065900  0.30386900  1
  Co  Co0  1  0.50005000  0.50001600  0.99997300  1
  Co  Co1  1  0.00738100  0.60108900  0.89105300  1
  Co  Co2  1  0.99263600  0.39892300  0.10904900  1
  Co  Co3  1  0.49997500  0.00002000  0.00001700  1
  Co  Co4  1  0.00736800  0.09923600  0.88899600  1
  Co  Co5  1  0.99268400  0.90078400  0.11098900  1
  O  O0  1  0.23169900  0.90243400  0.86053700  1
  O  O1  1  0.22991500  0.40352600  0.85960100  1
  O  O2  1  0.76817000  0.09753900  0.13946000  1
  O  O3  1  0.77018400  0.59651900  0.14038900  1
  O  O4  1  0.75981300  0.80304100  0.94942500  1
  O  O5  1  0.75966200  0.30206800  0.94772700  1
  O  O6  1  0.24003700  0.19695000  0.05063600  1
  O  O7  1  0.24051200  0.69797300  0.05221800  1
  O  O8  1  0.76972800  0.70351300  0.54731900  1
  O  O9  1  0.76883700  0.20418200  0.54700200  1
  O  O10  1  0.23023300  0.29644800  0.45254700  1
  O  O11  1  0.23106800  0.79583100  0.45310000  1
  O  O12  1  0.25614600  0.50451800  0.23126000  1
  O  O13  1  0.25665200  0.00549500  0.23101500  1
  O  O14  1  0.74396100  0.49546100  0.76872900  1
  O  O15  1  0.74327700  0.99455700  0.76899400  1
  O  O16  1  0.22620400  0.60659800  0.66722800  1
  O  O17  1  0.22463200  0.10658700  0.66748000  1
  O  O18  1  0.77363500  0.39344800  0.33285300  1
  O  O19  1  0.77550700  0.89340300  0.33245100  1
loop_
_geom_bond_atom_site_label_1
_geom_bond_atom_site_label_2
_geom_bond_distance
_geom_bond_site_symmetry_2
Li0 O8 2.096523 1_455
Li0 O10 2.096635 1_555
Li0 O18 2.106479 1_455
Li0 O16 2.106494 1_555
Li0 O12 2.212655 1_555
Li0 O14 2.212730 1_455
Li1 O17 2.100901 1_555
Li1 O19 2.101472 1_445
Li1 O11 2.104550 1_545
Li1 O9 2.104856 1_455
Li1 O15 2.219227 1_445
Li1 O13 2.219729 1_555
Li2 O8 2.095824 1_555
Li2 O11 2.101120 1_555
Li2 O16 2.136014 1_555
Li2 O18 2.184352 1_555
Li2 O3 2.212454 1_555
Li2 O12 2.240634 1_555
Li3 O10 2.099602 1_555
Li3 O9 2.101869 1_555
Li3 O17 2.137265 1_555
Li3 O19 2.197222 1_545
Li3 O2 2.221420 1_555
Li3 O13 2.228497 1_555
Li4 O10 2.096937 1_555
Li4 O9 2.100827 1_555
Li4 O18 2.135180 1_555
Li4 O16 2.185133 1_555
Li4 O1 2.212176 1_555
Li4 O14 2.240701 1_555
Li5 O8 2.099547 1_555
Li5 O11 2.101965 1_555
Li5 O19 2.138181 1_555
Li5 O17 2.196850 1_565
Li5 O0 2.221523 1_555
Li5 O15 2.228270 1_555
Li6 O8 2.064568 1_555
Li6 O16 2.084412 1_555
Li6 O14 2.140833 1_555
Li6 O0 2.179712 1_555
Li6 O7 2.180192 1_556
Li6 O4 2.180655 1_555
Li7 O9 2.065186 1_555
Li7 O17 2.082118 1_555
Li7 O15 2.148192 1_545
Li7 O5 2.177432 1_555
Li7 O6 2.178259 1_556
Li7 O1 2.194657 1_555
Li8 O10 2.063992 1_555
Li8 O18 2.083955 1_555
Li8 O12 2.140278 1_555
Li8 O2 2.179838 1_555
Li8 O5 2.181111 1_554
Li8 O6 2.181296 1_555
Li9 O11 2.065984 1_555
Li9 O19 2.081915 1_555
Li9 O13 2.149062 1_565
Li9 O7 2.177289 1_555
Li9 O4 2.177519 1_554
Li9 O3 2.194211 1_555
Cr0 O11 1.979044 1_555
Cr0 O8 1.983910 1_455
Cr0 O16 2.009447 1_555
Cr0 O4 2.040977 1_455
Cr0 O15 2.062708 1_455
Cr0 O0 2.113920 1_555
Cr1 O10 1.977350 1_655
Cr1 O9 1.984280 1_555
Cr1 O14 2.034441 1_555
Cr1 O5 2.039916 1_555
Cr1 O17 2.042599 1_655
Cr1 O1 2.108230 1_655
Cr2 O9 1.977634 1_555
Cr2 O10 1.984623 1_655
Cr2 O18 2.010538 1_555
Cr2 O6 2.042419 1_655
Cr2 O13 2.061826 1_655
Cr2 O2 2.112977 1_555
Cr3 O8 1.978926 1_455
Cr3 O11 1.984970 1_555
Cr3 O12 2.034052 1_555
Cr3 O7 2.038563 1_555
Cr3 O19 2.042828 1_455
Cr3 O3 2.107061 1_455
Co0 O14 1.917970 1_555
Co0 O12 1.918421 1_556
Co0 O7 2.099192 1_556
Co0 O5 2.099281 1_555
Co0 O1 2.131937 1_555
Co0 O3 2.132164 1_556
Co1 O16 1.861183 1_555
Co1 O3 2.053760 1_456
Co1 O1 2.067043 1_555
Co1 O7 2.067562 1_556
Co1 O14 2.076358 1_455
Co1 O4 2.094908 1_455
Co2 O18 1.861257 1_555
Co2 O1 2.054768 1_654
Co2 O3 2.067459 1_555
Co2 O5 2.067530 1_554
Co2 O12 2.076192 1_655
Co2 O6 2.094668 1_655
Co3 O13 1.911648 1_555
Co3 O15 1.911800 1_544
Co3 O6 2.095009 1_555
Co3 O4 2.095243 1_544
Co3 O2 2.124113 1_555
Co3 O0 2.124891 1_544
Co4 O17 1.851707 1_555
Co4 O2 2.052620 1_456
Co4 O15 2.066588 1_445
Co4 O6 2.071084 1_556
Co4 O0 2.071478 1_545
Co4 O5 2.101929 1_455
Co5 O19 1.851329 1_555
Co5 O0 2.051997 1_654
Co5 O13 2.066296 1_665
Co5 O2 2.071390 1_565
Co5 O4 2.071672 1_554
Co5 O7 2.101925 1_655
