# generated using pymatgen
data_Li5MnCr3O8
_symmetry_space_group_name_H-M   'P 1'
_cell_length_a   8.68204600
_cell_length_b   8.68204600
_cell_length_c   8.39528000
_cell_angle_alpha   90.00000000
_cell_angle_beta   90.00000000
_cell_angle_gamma   90.00000000
_symmetry_Int_Tables_number   1
_chemical_formula_structural   Li5MnCr3O8
_chemical_formula_sum   'Li20 Mn4 Cr12 O32'
_cell_volume   632.81876727
_cell_formula_units_Z   4
loop_
 _symmetry_equiv_pos_site_id
 _symmetry_equiv_pos_as_xyz
  1  'x, y, z'
loop_
 _atom_site_type_symbol
 _atom_site_label
 _atom_site_symmetry_multiplicity
 _atom_site_fract_x
 _atom_site_fract_y
 _atom_site_fract_z
 _atom_site_occupancy
  Li  Li0  1  0.19784000  0.04882500  0.05681500  1
  Li  Li1  1  0.14719200  0.85280800  0.25000000  1
  Li  Li2  1  0.13301800  0.61037700  0.48303900  1
  Li  Li3  1  0.11037700  0.36698200  0.73303900  1
  Li  Li4  1  0.95117500  0.80216000  0.44318500  1
  Li  Li5  1  0.04882500  0.19784000  0.94318500  1
  Li  Li6  1  0.88962300  0.63301800  0.23303900  1
  Li  Li7  1  0.86698200  0.38962300  0.98303900  1
  Li  Li8  1  0.85280800  0.14719200  0.75000000  1
  Li  Li9  1  0.80216000  0.95117500  0.55681500  1
  Li  Li10  1  0.69784000  0.45117500  0.19318500  1
  Li  Li11  1  0.61037700  0.13301800  0.51696100  1
  Li  Li12  1  0.63301800  0.88962300  0.76696100  1
  Li  Li13  1  0.64719200  0.64719200  0.00000000  1
  Li  Li14  1  0.45117500  0.69784000  0.80681500  1
  Li  Li15  1  0.54882500  0.30216000  0.30681500  1
  Li  Li16  1  0.35280800  0.35280800  0.50000000  1
  Li  Li17  1  0.36698200  0.11037700  0.26696100  1
  Li  Li18  1  0.38962300  0.86698200  0.01696100  1
  Li  Li19  1  0.30216000  0.54882500  0.69318500  1
  Mn  Mn0  1  0.11914900  0.11914900  0.50000000  1
  Mn  Mn1  1  0.88085100  0.88085100  0.00000000  1
  Mn  Mn2  1  0.61914900  0.38085100  0.75000000  1
  Mn  Mn3  1  0.38085100  0.61914900  0.25000000  1
  Cr  Cr0  1  0.12907000  0.87093000  0.75000000  1
  Cr  Cr1  1  0.12096600  0.37365100  0.24728600  1
  Cr  Cr2  1  0.87903400  0.62634900  0.74728600  1
  Cr  Cr3  1  0.87093000  0.12907000  0.25000000  1
  Cr  Cr4  1  0.62096600  0.12634900  0.00271400  1
  Cr  Cr5  1  0.62907000  0.62907000  0.50000000  1
  Cr  Cr6  1  0.37093000  0.37093000  0.00000000  1
  Cr  Cr7  1  0.37903400  0.87365100  0.50271400  1
  Cr  Cr8  1  0.12634900  0.62096600  0.99728600  1
  Cr  Cr9  1  0.87365100  0.37903400  0.49728600  1
  Cr  Cr10  1  0.62634900  0.87903400  0.25271400  1
  Cr  Cr11  1  0.37365100  0.12096600  0.75271400  1
  O  O0  1  0.12216800  0.61371900  0.24028700  1
  O  O1  1  0.13726800  0.10658800  0.75967500  1
  O  O2  1  0.13339100  0.38703700  0.00472700  1
  O  O3  1  0.14568900  0.86652900  0.50601500  1
  O  O4  1  0.11296300  0.63339100  0.75472700  1
  O  O5  1  0.10658800  0.13726800  0.24032500  1
  O  O6  1  0.11371900  0.37783200  0.49028700  1
  O  O7  1  0.13347100  0.85431100  0.99398500  1
  O  O8  1  0.86652900  0.14568900  0.49398500  1
  O  O9  1  0.88628100  0.62216800  0.99028700  1
  O  O10  1  0.89341200  0.86273200  0.74032500  1
  O  O11  1  0.88703700  0.36660900  0.25472700  1
  O  O12  1  0.85431100  0.13347100  0.00601500  1
  O  O13  1  0.86660900  0.61296300  0.50472700  1
  O  O14  1  0.86273200  0.89341200  0.25967500  1
  O  O15  1  0.87783200  0.38628100  0.74028700  1
  O  O16  1  0.62216800  0.88628100  0.00971300  1
  O  O17  1  0.63726800  0.39341200  0.49032500  1
  O  O18  1  0.64568900  0.63347100  0.74398500  1
  O  O19  1  0.63339100  0.11296300  0.24527300  1
  O  O20  1  0.60658800  0.36273200  0.00967500  1
  O  O21  1  0.61296300  0.86660900  0.49527300  1
  O  O22  1  0.61371900  0.12216800  0.75971300  1
  O  O23  1  0.63347100  0.64568900  0.25601500  1
  O  O24  1  0.36652900  0.35431100  0.75601500  1
  O  O25  1  0.38628100  0.87783200  0.25971300  1
  O  O26  1  0.38703700  0.13339100  0.99527300  1
  O  O27  1  0.39341200  0.63726800  0.50967500  1
  O  O28  1  0.36660900  0.88703700  0.74527300  1
  O  O29  1  0.35431100  0.36652900  0.24398500  1
  O  O30  1  0.36273200  0.60658800  0.99032500  1
  O  O31  1  0.37783200  0.11371900  0.50971300  1
loop_
_geom_bond_atom_site_label_1
_geom_bond_atom_site_label_2
_geom_bond_distance
_geom_bond_site_symmetry_2
Li0 O7 1.855404 1_544
Li0 O26 1.871948 1_554
Li0 O5 1.894938 1_555
Li1 O25 2.088713 1_555
Li1 O0 2.088713 1_555
Li1 O7 2.152656 1_554
Li1 O3 2.152656 1_555
Li1 O5 2.496050 1_565
Li1 O14 2.496050 1_455
Li2 O6 2.026821 1_555
Li2 O0 2.040353 1_555
Li2 O3 2.234982 1_555
Li2 O27 2.283750 1_555
Li2 O4 2.296243 1_555
Li2 O13 2.320239 1_455
Li3 O15 2.026821 1_455
Li3 O6 2.040353 1_555
Li3 O24 2.234982 1_555
Li3 O1 2.283750 1_555
Li3 O2 2.296243 1_556
Li3 O4 2.320239 1_555
Li4 O3 1.855404 1_655
Li4 O13 1.871948 1_555
Li4 O14 1.894938 1_555
Li5 O12 1.855404 1_456
Li5 O2 1.871948 1_556
Li5 O1 1.894938 1_555
Li6 O0 2.026821 1_655
Li6 O9 2.040353 1_554
Li6 O23 2.234982 1_555
Li6 O14 2.283750 1_555
Li6 O13 2.296243 1_555
Li6 O11 2.320239 1_555
Li7 O9 2.026821 1_555
Li7 O15 2.040353 1_555
Li7 O12 2.234982 1_556
Li7 O20 2.283750 1_556
Li7 O11 2.296243 1_556
Li7 O2 2.320239 1_656
Li8 O22 2.088713 1_555
Li8 O15 2.088713 1_555
Li8 O12 2.152656 1_556
Li8 O8 2.152656 1_555
Li8 O1 2.496050 1_655
Li8 O10 2.496050 1_545
Li9 O8 1.855404 1_565
Li9 O21 1.871948 1_555
Li9 O10 1.894938 1_555
Li10 O23 1.855404 1_555
Li10 O11 1.871948 1_555
Li10 O20 1.894938 1_555
Li11 O31 2.026821 1_555
Li11 O22 2.040353 1_555
Li11 O8 2.234982 1_555
Li11 O17 2.283750 1_555
Li11 O19 2.296243 1_555
Li11 O21 2.320239 1_545
Li12 O22 2.026821 1_565
Li12 O16 2.040353 1_556
Li12 O18 2.234982 1_555
Li12 O10 2.283750 1_555
Li12 O21 2.296243 1_555
Li12 O28 2.320239 1_555
Li13 O16 2.088713 1_555
Li13 O9 2.088713 1_554
Li13 O18 2.152656 1_554
Li13 O23 2.152656 1_555
Li13 O20 2.496050 1_555
Li13 O30 2.496050 1_554
Li14 O18 1.855404 1_555
Li14 O28 1.871948 1_555
Li14 O30 1.894938 1_555
Li15 O29 1.855404 1_555
Li15 O19 1.871948 1_555
Li15 O17 1.894938 1_555
Li16 O6 2.088713 1_555
Li16 O31 2.088713 1_555
Li16 O24 2.152656 1_555
Li16 O29 2.152656 1_555
Li16 O27 2.496050 1_555
Li16 O17 2.496050 1_555
Li17 O25 2.026821 1_545
Li17 O31 2.040353 1_555
Li17 O29 2.234982 1_555
Li17 O5 2.283750 1_555
Li17 O26 2.296243 1_554
Li17 O19 2.320239 1_555
Li18 O16 2.026821 1_555
Li18 O25 2.040353 1_555
Li18 O7 2.234982 1_554
Li18 O30 2.283750 1_554
Li18 O28 2.296243 1_554
Li18 O26 2.320239 1_564
Li19 O24 1.855404 1_555
Li19 O4 1.871948 1_555
Li19 O27 1.894938 1_555
Mn0 O1 2.188432 1_555
Mn0 O5 2.188432 1_555
Mn0 O8 2.205907 1_455
Mn0 O3 2.205907 1_545
Mn0 O6 2.247872 1_555
Mn0 O31 2.247872 1_555
Mn1 O14 2.188432 1_555
Mn1 O10 2.188432 1_554
Mn1 O12 2.205907 1_565
Mn1 O7 2.205907 1_654
Mn1 O16 2.247872 1_555
Mn1 O9 2.247872 1_554
Mn2 O20 2.188432 1_556
Mn2 O17 2.188432 1_555
Mn2 O24 2.205907 1_555
Mn2 O18 2.205907 1_555
Mn2 O22 2.247872 1_555
Mn2 O15 2.247872 1_555
Mn3 O27 2.188432 1_555
Mn3 O30 2.188432 1_554
Mn3 O23 2.205907 1_555
Mn3 O29 2.205907 1_555
Mn3 O25 2.247872 1_555
Mn3 O0 2.247872 1_555
Cr0 O1 2.048842 1_565
Cr0 O10 2.048842 1_455
Cr0 O3 2.053753 1_555
Cr0 O7 2.053753 1_555
Cr0 O28 2.067441 1_555
Cr0 O4 2.067441 1_555
Cr1 O29 2.027045 1_555
Cr1 O11 2.032862 1_455
Cr1 O6 2.041354 1_555
Cr1 O2 2.042515 1_555
Cr1 O5 2.056911 1_555
Cr1 O0 2.085136 1_555
Cr2 O18 2.027045 1_555
Cr2 O4 2.032862 1_655
Cr2 O9 2.041354 1_555
Cr2 O13 2.042515 1_555
Cr2 O10 2.056911 1_555
Cr2 O15 2.085136 1_555
Cr3 O5 2.048842 1_655
Cr3 O14 2.048842 1_545
Cr3 O8 2.053753 1_555
Cr3 O12 2.053753 1_555
Cr3 O11 2.067441 1_555
Cr3 O19 2.067441 1_555
Cr4 O12 2.027045 1_555
Cr4 O26 2.032862 1_554
Cr4 O22 2.041354 1_554
Cr4 O19 2.042515 1_555
Cr4 O20 2.056911 1_555
Cr4 O16 2.085136 1_545
Cr5 O27 2.048842 1_555
Cr5 O17 2.048842 1_555
Cr5 O18 2.053753 1_555
Cr5 O23 2.053753 1_555
Cr5 O13 2.067441 1_555
Cr5 O21 2.067441 1_555
Cr6 O20 2.048842 1_555
Cr6 O30 2.048842 1_554
Cr6 O29 2.053753 1_555
Cr6 O24 2.053753 1_554
Cr6 O2 2.067441 1_555
Cr6 O26 2.067441 1_554
Cr7 O3 2.027045 1_555
Cr7 O21 2.032862 1_555
Cr7 O25 2.041354 1_555
Cr7 O28 2.042515 1_555
Cr7 O27 2.056911 1_555
Cr7 O31 2.085136 1_565
Cr8 O7 2.027045 1_555
Cr8 O2 2.032862 1_556
Cr8 O0 2.041354 1_556
Cr8 O4 2.042515 1_555
Cr8 O30 2.056911 1_555
Cr8 O9 2.085136 1_455
Cr9 O8 2.027045 1_555
Cr9 O13 2.032862 1_555
Cr9 O15 2.041354 1_555
Cr9 O11 2.042515 1_555
Cr9 O17 2.056911 1_555
Cr9 O6 2.085136 1_655
Cr10 O23 2.027045 1_555
Cr10 O19 2.032862 1_565
Cr10 O16 2.041354 1_555
Cr10 O21 2.042515 1_555
Cr10 O14 2.056911 1_555
Cr10 O25 2.085136 1_555
Cr11 O24 2.027045 1_555
Cr11 O28 2.032862 1_545
Cr11 O31 2.041354 1_555
Cr11 O26 2.042515 1_555
Cr11 O1 2.056911 1_555
Cr11 O22 2.085136 1_555
