# generated using pymatgen
data_Na3NiBSO7
_symmetry_space_group_name_H-M   'P 1'
_cell_length_a   8.57273229
_cell_length_b   8.57279927
_cell_length_c   10.29832135
_cell_angle_alpha   107.59229988
_cell_angle_beta   107.58982164
_cell_angle_gamma   104.14638744
_symmetry_Int_Tables_number   1
_chemical_formula_structural   Na3NiBSO7
_chemical_formula_sum   'Na12 Ni4 B4 S4 O28'
_cell_volume   639.05334019
_cell_formula_units_Z   4
loop_
 _symmetry_equiv_pos_site_id
 _symmetry_equiv_pos_as_xyz
  1  'x, y, z'
loop_
 _atom_site_type_symbol
 _atom_site_label
 _atom_site_symmetry_multiplicity
 _atom_site_fract_x
 _atom_site_fract_y
 _atom_site_fract_z
 _atom_site_occupancy
  Na  Na0  1  0.53042900  0.28044000  0.06255300  1
  Na  Na1  1  0.03042600  0.78042200  0.06252100  1
  Na  Na2  1  0.96956800  0.21955200  0.93745300  1
  Na  Na3  1  0.46956200  0.71955700  0.93746200  1
  Na  Na4  1  0.73816500  0.74528500  0.24066000  1
  Na  Na5  1  0.23821500  0.24530100  0.24065900  1
  Na  Na6  1  0.49530000  0.98816500  0.24066700  1
  Na  Na7  1  0.99528200  0.48818400  0.24064100  1
  Na  Na8  1  0.00467100  0.51180300  0.75929800  1
  Na  Na9  1  0.50473200  0.01179200  0.75935200  1
  Na  Na10  1  0.76180800  0.75469800  0.75932400  1
  Na  Na11  1  0.26177900  0.25469300  0.75931700  1
  Ni  Ni0  1  0.42732800  0.67728100  0.33585100  1
  Ni  Ni1  1  0.07271700  0.82290000  0.66442400  1
  Ni  Ni2  1  0.92721800  0.17738300  0.33560700  1
  Ni  Ni3  1  0.57273600  0.32261600  0.66436800  1
  B  B0  1  0.77502800  0.02500300  0.06703500  1
  B  B1  1  0.27502700  0.52502500  0.06709100  1
  B  B2  1  0.72496400  0.47497200  0.93295000  1
  B  B3  1  0.22500500  0.97499900  0.93295000  1
  S  S0  1  0.69285600  0.44282500  0.42033600  1
  S  S1  1  0.19285700  0.94287200  0.42033100  1
  S  S2  1  0.80714600  0.05716400  0.57963200  1
  S  S3  1  0.30709000  0.55708700  0.57962000  1
  O  O0  1  0.31194800  0.06192400  0.08367600  1
  O  O1  1  0.81193700  0.56194000  0.08366300  1
  O  O2  1  0.18806800  0.43808300  0.91634800  1
  O  O3  1  0.68806100  0.93804100  0.91631600  1
  O  O4  1  0.92781000  0.17778600  0.13940200  1
  O  O5  1  0.42786000  0.67781500  0.13953900  1
  O  O6  1  0.57220200  0.32219900  0.86058900  1
  O  O7  1  0.07216000  0.82221400  0.86051500  1
  O  O8  1  0.72043500  0.97043400  0.16713700  1
  O  O9  1  0.22043500  0.47045000  0.16721000  1
  O  O10  1  0.77954300  0.52954800  0.83285400  1
  O  O11  1  0.27964000  0.02961900  0.83287200  1
  O  O12  1  0.57118500  0.32104100  0.45677000  1
  O  O13  1  0.07114600  0.82112100  0.45676500  1
  O  O14  1  0.92882500  0.17893700  0.54319500  1
  O  O15  1  0.42885200  0.67888800  0.54323700  1
  O  O16  1  0.66487500  0.91487300  0.43855000  1
  O  O17  1  0.16485500  0.41484300  0.43852600  1
  O  O18  1  0.83515800  0.58514300  0.56143800  1
  O  O19  1  0.33514300  0.08515000  0.56145000  1
  O  O20  1  0.59097500  0.51776200  0.32766600  1
  O  O21  1  0.09100100  0.01783400  0.32766700  1
  O  O22  1  0.76781100  0.34105800  0.32760200  1
  O  O23  1  0.26784600  0.84108200  0.32763800  1
  O  O24  1  0.73217100  0.15892000  0.67235600  1
  O  O25  1  0.23213900  0.65891300  0.67232500  1
  O  O26  1  0.90902600  0.98222500  0.67231100  1
  O  O27  1  0.40898300  0.48213900  0.67228200  1
loop_
_geom_bond_atom_site_label_1
_geom_bond_atom_site_label_2
_geom_bond_distance
_geom_bond_site_symmetry_2
Na0 O6 2.328077 1_554
Na0 O0 2.417055 1_555
Na0 O11 2.536318 1_554
Na0 O22 2.670245 1_555
Na0 O20 2.670649 1_555
Na0 O1 2.866017 1_555
Na1 O7 2.328484 1_554
Na1 O1 2.417028 1_455
Na1 O10 2.536709 1_454
Na1 O23 2.670783 1_555
Na1 O21 2.671137 1_565
Na1 O0 2.865900 1_565
Na2 O4 2.327898 1_556
Na2 O2 2.417130 1_655
Na2 O9 2.537123 1_656
Na2 O24 2.670624 1_555
Na2 O26 2.670896 1_545
Na2 O3 2.865949 1_545
Na3 O5 2.328933 1_556
Na3 O3 2.417114 1_555
Na3 O8 2.536722 1_556
Na3 O25 2.670985 1_555
Na3 O27 2.671404 1_555
Na3 O2 2.865789 1_555
Na4 O1 2.247723 1_555
Na4 O8 2.297644 1_555
Na4 O5 2.388504 1_555
Na4 O16 2.467993 1_555
Na4 O20 2.595434 1_555
Na4 O13 2.811170 1_655
Na5 O0 2.247565 1_555
Na5 O9 2.297289 1_555
Na5 O4 2.389269 1_455
Na5 O17 2.468052 1_555
Na5 O21 2.595179 1_555
Na5 O12 2.811339 1_555
Na6 O0 2.247707 1_565
Na6 O8 2.297529 1_555
Na6 O5 2.388886 1_555
Na6 O16 2.467977 1_555
Na6 O23 2.594349 1_555
Na6 O12 2.810351 1_565
Na7 O1 2.247577 1_555
Na7 O9 2.297107 1_655
Na7 O4 2.389251 1_555
Na7 O17 2.468257 1_655
Na7 O22 2.594532 1_555
Na7 O13 2.810864 1_655
Na8 O2 2.248056 1_555
Na8 O10 2.297643 1_455
Na8 O7 2.389324 1_555
Na8 O18 2.467858 1_455
Na8 O25 2.594546 1_555
Na8 O14 2.810375 1_455
Na9 O3 2.247387 1_545
Na9 O11 2.297260 1_555
Na9 O6 2.389325 1_555
Na9 O19 2.468533 1_555
Na9 O24 2.594596 1_555
Na9 O15 2.810586 1_545
Na10 O3 2.247540 1_555
Na10 O10 2.297700 1_555
Na10 O7 2.388831 1_655
Na10 O18 2.468183 1_555
Na10 O26 2.595609 1_555
Na10 O15 2.810996 1_555
Na11 O2 2.247793 1_555
Na11 O11 2.297408 1_555
Na11 O6 2.389428 1_555
Na11 O19 2.468078 1_555
Na11 O27 2.595212 1_555
Na11 O14 2.811252 1_455
Ni0 O9 2.011350 1_555
Ni0 O5 2.024452 1_555
Ni0 O15 2.127664 1_555
Ni0 O16 2.186980 1_555
Ni0 O20 2.187446 1_555
Ni0 O23 2.188283 1_555
Ni1 O11 2.010409 1_565
Ni1 O7 2.022637 1_555
Ni1 O13 2.129916 1_555
Ni1 O26 2.186337 1_455
Ni1 O18 2.187593 1_455
Ni1 O25 2.189034 1_555
Ni2 O8 2.010797 1_545
Ni2 O4 2.023166 1_555
Ni2 O14 2.129668 1_555
Ni2 O17 2.186601 1_655
Ni2 O22 2.186825 1_555
Ni2 O21 2.188475 1_655
Ni3 O10 2.010875 1_555
Ni3 O6 2.023216 1_555
Ni3 O12 2.129860 1_555
Ni3 O19 2.186420 1_555
Ni3 O24 2.187147 1_555
Ni3 O27 2.188085 1_555
B0 O3 1.360232 1_544
B0 O4 1.402801 1_555
B0 O8 1.405951 1_545
B1 O2 1.360416 1_554
B1 O5 1.403045 1_555
B1 O9 1.406135 1_555
B2 O1 1.360189 1_556
B2 O6 1.402663 1_555
B2 O10 1.405865 1_555
B3 O0 1.360254 1_566
B3 O7 1.403082 1_555
B3 O11 1.406097 1_565
O12 S0 1.503257 1_555
O13 S1 1.503292 1_555
O14 S2 1.503262 1_555
O15 S3 1.503461 1_555
O16 S2 1.488928 1_565
O17 S3 1.488757 1_555
O18 S0 1.489188 1_555
O19 S1 1.489117 1_545
O20 S0 1.492442 1_555
O21 S1 1.492463 1_545
O22 S0 1.492426 1_555
O23 S1 1.492497 1_555
O24 S2 1.492449 1_555
O25 S3 1.492473 1_555
O26 S2 1.492506 1_565
O27 S3 1.492517 1_555
