# generated using pymatgen
data_Li2Co2P2O9
_symmetry_space_group_name_H-M   'P 1'
_cell_length_a   5.53008800
_cell_length_b   7.97410800
_cell_length_c   14.72519000
_cell_angle_alpha   90.00000000
_cell_angle_beta   90.00000000
_cell_angle_gamma   90.00000000
_symmetry_Int_Tables_number   1
_chemical_formula_structural   Li2Co2P2O9
_chemical_formula_sum   'Li8 Co8 P8 O36'
_cell_volume   649.34434524
_cell_formula_units_Z   4
loop_
 _symmetry_equiv_pos_site_id
 _symmetry_equiv_pos_as_xyz
  1  'x, y, z'
loop_
 _atom_site_type_symbol
 _atom_site_label
 _atom_site_symmetry_multiplicity
 _atom_site_fract_x
 _atom_site_fract_y
 _atom_site_fract_z
 _atom_site_occupancy
  Li  Li0  1  0.75000000  0.56669600  0.25303100  1
  Li  Li1  1  0.75000000  0.54735800  0.62605600  1
  Li  Li2  1  0.25000000  0.95264200  0.12605600  1
  Li  Li3  1  0.25000000  0.93330400  0.75303100  1
  Li  Li4  1  0.75000000  0.06669600  0.24696900  1
  Li  Li5  1  0.75000000  0.04735800  0.87394400  1
  Li  Li6  1  0.25000000  0.45264200  0.37394400  1
  Li  Li7  1  0.25000000  0.43330400  0.74696900  1
  Co  Co0  1  0.50000000  0.50000000  0.00000000  1
  Co  Co1  1  0.00000000  0.50000000  0.00000000  1
  Co  Co2  1  0.75000000  0.71480600  0.43574900  1
  Co  Co3  1  0.25000000  0.78519400  0.93574900  1
  Co  Co4  1  0.50000000  0.00000000  0.50000000  1
  Co  Co5  1  0.00000000  0.00000000  0.50000000  1
  Co  Co6  1  0.75000000  0.21480600  0.06425100  1
  Co  Co7  1  0.25000000  0.28519400  0.56425100  1
  P  P0  1  0.25000000  0.68077000  0.57667400  1
  P  P1  1  0.75000000  0.69903400  0.83713600  1
  P  P2  1  0.25000000  0.80096600  0.33713600  1
  P  P3  1  0.75000000  0.81923000  0.07667400  1
  P  P4  1  0.25000000  0.18077000  0.92332600  1
  P  P5  1  0.75000000  0.19903400  0.66286400  1
  P  P6  1  0.25000000  0.30096600  0.16286400  1
  P  P7  1  0.75000000  0.31923000  0.42332600  1
  O  O0  1  0.75000000  0.49002900  0.47450000  1
  O  O1  1  0.75000000  0.55807600  0.91562000  1
  O  O2  1  0.25000000  0.55846700  0.92101100  1
  O  O3  1  0.75000000  0.60757300  0.74918800  1
  O  O4  1  0.25000000  0.66774700  0.67905400  1
  O  O5  1  0.02558100  0.68401400  0.35184900  1
  O  O6  1  0.47441900  0.68401400  0.35184900  1
  O  O7  1  0.51125900  0.72913200  0.04299800  1
  O  O8  1  0.98874100  0.72913200  0.04299800  1
  O  O9  1  0.01125900  0.77086800  0.54299800  1
  O  O10  1  0.48874100  0.77086800  0.54299800  1
  O  O11  1  0.52558100  0.81598600  0.85184900  1
  O  O12  1  0.97441900  0.81598600  0.85184900  1
  O  O13  1  0.75000000  0.83225300  0.17905400  1
  O  O14  1  0.25000000  0.89242700  0.24918800  1
  O  O15  1  0.75000000  0.94153300  0.42101100  1
  O  O16  1  0.25000000  0.94192400  0.41562000  1
  O  O17  1  0.25000000  0.00997100  0.97450000  1
  O  O18  1  0.75000000  0.99002900  0.02550000  1
  O  O19  1  0.75000000  0.05807600  0.58438000  1
  O  O20  1  0.25000000  0.05846700  0.57898900  1
  O  O21  1  0.75000000  0.10757300  0.75081200  1
  O  O22  1  0.25000000  0.16774700  0.82094600  1
  O  O23  1  0.02558100  0.18401400  0.14815100  1
  O  O24  1  0.47441900  0.18401400  0.14815100  1
  O  O25  1  0.51125900  0.22913200  0.45700200  1
  O  O26  1  0.98874100  0.22913200  0.45700200  1
  O  O27  1  0.01125900  0.27086800  0.95700200  1
  O  O28  1  0.48874100  0.27086800  0.95700200  1
  O  O29  1  0.52558100  0.31598600  0.64815100  1
  O  O30  1  0.97441900  0.31598600  0.64815100  1
  O  O31  1  0.75000000  0.33225300  0.32094600  1
  O  O32  1  0.25000000  0.39242700  0.25081200  1
  O  O33  1  0.75000000  0.44153300  0.07898900  1
  O  O34  1  0.25000000  0.44192400  0.08438000  1
  O  O35  1  0.25000000  0.50997100  0.52550000  1
loop_
_geom_bond_atom_site_label_1
_geom_bond_atom_site_label_2
_geom_bond_distance
_geom_bond_site_symmetry_2
Li0 O31 2.120154 1_555
Li0 O6 2.305443 1_555
Li0 O5 2.305443 1_655
Li0 O13 2.381339 1_555
Li1 O3 1.875644 1_555
Li1 O30 2.247231 1_555
Li1 O29 2.247231 1_555
Li1 O0 2.278032 1_555
Li1 O9 2.599964 1_655
Li1 O10 2.599964 1_555
Li2 O14 1.875644 1_555
Li2 O24 2.247231 1_565
Li2 O23 2.247231 1_565
Li2 O17 2.278032 1_564
Li2 O7 2.599964 1_555
Li2 O8 2.599964 1_455
Li3 O22 2.120154 1_565
Li3 O11 2.305443 1_555
Li3 O12 2.305443 1_455
Li3 O4 2.381339 1_555
Li4 O13 2.120154 1_545
Li4 O23 2.305443 1_655
Li4 O24 2.305443 1_555
Li4 O31 2.381339 1_555
Li5 O21 1.875644 1_555
Li5 O12 2.247231 1_545
Li5 O11 2.247231 1_545
Li5 O18 2.278032 1_546
Li5 O27 2.599964 1_655
Li5 O28 2.599964 1_555
Li6 O32 1.875644 1_555
Li6 O6 2.247231 1_555
Li6 O5 2.247231 1_555
Li6 O35 2.278032 1_555
Li6 O26 2.599964 1_455
Li6 O25 2.599964 1_555
Li7 O4 2.120154 1_555
Li7 O29 2.305443 1_555
Li7 O30 2.305443 1_455
Li7 O22 2.381339 1_555
Co0 O33 1.865904 1_555
Co0 O2 1.865904 1_554
Co0 O1 1.915638 1_554
Co0 O34 1.915638 1_555
Co0 O7 1.934720 1_555
Co0 O28 1.934720 1_554
Co1 O33 1.865904 1_455
Co1 O2 1.865904 1_554
Co1 O1 1.915638 1_454
Co1 O34 1.915638 1_555
Co1 O8 1.934720 1_455
Co1 O27 1.934720 1_554
Co2 O15 1.820924 1_555
Co2 O0 1.881033 1_555
Co2 O6 1.977156 1_555
Co2 O5 1.977156 1_655
Co2 O9 2.186623 1_655
Co2 O10 2.186623 1_555
Co3 O2 1.820924 1_555
Co3 O17 1.881033 1_565
Co3 O11 1.977156 1_555
Co3 O12 1.977156 1_455
Co3 O8 2.186623 1_456
Co3 O7 2.186623 1_556
Co4 O20 1.865904 1_555
Co4 O15 1.865904 1_545
Co4 O19 1.915638 1_555
Co4 O16 1.915638 1_545
Co4 O10 1.934720 1_545
Co4 O25 1.934720 1_555
Co5 O20 1.865904 1_555
Co5 O15 1.865904 1_445
Co5 O19 1.915638 1_455
Co5 O16 1.915638 1_545
Co5 O9 1.934720 1_545
Co5 O26 1.934720 1_455
Co6 O33 1.820924 1_555
Co6 O18 1.881033 1_545
Co6 O24 1.977156 1_555
Co6 O23 1.977156 1_655
Co6 O27 2.186623 1_654
Co6 O28 2.186623 1_554
Co7 O20 1.820924 1_555
Co7 O35 1.881033 1_555
Co7 O29 1.977156 1_555
Co7 O30 1.977156 1_455
Co7 O25 2.186623 1_555
Co7 O26 2.186623 1_455
O0 P7 1.556533 1_555
O1 P1 1.612151 1_555
O3 P1 1.486292 1_555
O4 P0 1.511137 1_555
O5 P2 1.567444 1_555
O6 P2 1.567444 1_555
O7 P3 1.582769 1_555
O8 P3 1.582769 1_555
O9 P0 1.582769 1_555
O10 P0 1.582769 1_555
O11 P1 1.567444 1_555
O12 P1 1.567444 1_555
O13 P3 1.511137 1_555
O14 P2 1.486292 1_555
O16 P2 1.612151 1_555
O17 P4 1.556533 1_555
O18 P3 1.556533 1_555
O19 P5 1.612151 1_555
O21 P5 1.486292 1_555
O22 P4 1.511137 1_555
O23 P6 1.567444 1_555
O24 P6 1.567444 1_555
O25 P7 1.582769 1_555
O26 P7 1.582769 1_555
O27 P4 1.582769 1_555
O28 P4 1.582769 1_555
O29 P5 1.567444 1_555
O30 P5 1.567444 1_555
O31 P7 1.511137 1_555
O32 P6 1.486292 1_555
O34 P6 1.612151 1_555
O35 P0 1.556533 1_555
