# generated using pymatgen
data_YbVO3
_symmetry_space_group_name_H-M   'P 1'
_cell_length_a   5.27259500
_cell_length_b   5.45927500
_cell_length_c   7.55483800
_cell_angle_alpha   90.00000000
_cell_angle_beta   90.00000000
_cell_angle_gamma   90.00000000
_symmetry_Int_Tables_number   1
_chemical_formula_structural   YbVO3
_chemical_formula_sum   'Yb4 V4 O12'
_cell_volume   217.46258245
_cell_formula_units_Z   4
loop_
 _symmetry_equiv_pos_site_id
 _symmetry_equiv_pos_as_xyz
  1  'x, y, z'
loop_
 _atom_site_type_symbol
 _atom_site_label
 _atom_site_symmetry_multiplicity
 _atom_site_fract_x
 _atom_site_fract_y
 _atom_site_fract_z
 _atom_site_occupancy
  Yb  Yb0  1  0.51326100  0.55704100  0.25000000  1
  Yb  Yb1  1  0.98673900  0.05704100  0.25000000  1
  Yb  Yb2  1  0.48673900  0.44295900  0.75000000  1
  Yb  Yb3  1  0.01326100  0.94295900  0.75000000  1
  V  V0  1  0.50000000  0.00000000  0.50000000  1
  V  V1  1  0.00000000  0.50000000  0.00000000  1
  V  V2  1  0.50000000  0.00000000  0.00000000  1
  V  V3  1  0.00000000  0.50000000  0.50000000  1
  O  O0  1  0.79197600  0.79909800  0.04211400  1
  O  O1  1  0.70802400  0.29909800  0.45788600  1
  O  O2  1  0.91255800  0.51981000  0.75000000  1
  O  O3  1  0.70802400  0.29909800  0.04211400  1
  O  O4  1  0.29197600  0.70090200  0.54211400  1
  O  O5  1  0.08744200  0.48019000  0.25000000  1
  O  O6  1  0.41255800  0.98019000  0.25000000  1
  O  O7  1  0.58744200  0.01981000  0.75000000  1
  O  O8  1  0.20802400  0.20090200  0.95788600  1
  O  O9  1  0.79197600  0.79909800  0.45788600  1
  O  O10  1  0.20802400  0.20090200  0.54211400  1
  O  O11  1  0.29197600  0.70090200  0.95788600  1
loop_
_geom_bond_atom_site_label_1
_geom_bond_atom_site_label_2
_geom_bond_distance
_geom_bond_site_symmetry_2
O0 V2 1.916801 1_565
O0 V1 1.992607 1_655
O0 Yb1 2.346087 1_565
O0 Yb0 2.524369 1_555
O0 Yb3 2.616946 1_654
O1 V3 1.916801 1_655
O1 V0 1.992607 1_555
O1 Yb0 2.346087 1_555
O1 Yb1 2.524369 1_555
O1 Yb2 2.616946 1_555
O2 V1 1.947173 1_656
O2 V3 1.947173 1_655
O2 Yb2 2.284035 1_555
O2 Yb3 2.370322 1_655
O3 V1 1.916801 1_655
O3 V2 1.992607 1_555
O3 Yb0 2.346087 1_555
O3 Yb1 2.524369 1_555
O3 Yb2 2.616946 1_554
O4 V3 1.916801 1_555
O4 V0 1.992607 1_565
O4 Yb2 2.346087 1_555
O4 Yb3 2.524369 1_555
O4 Yb0 2.616946 1_555
O5 V1 1.947173 1_555
O5 V3 1.947173 1_555
O5 Yb0 2.284035 1_555
O5 Yb1 2.370322 1_455
O6 V2 1.947173 1_565
O6 V0 1.947173 1_565
O6 Yb1 2.284035 1_465
O6 Yb0 2.370322 1_555
O7 V2 1.947173 1_556
O7 V0 1.947173 1_555
O7 Yb3 2.284035 1_645
O7 Yb2 2.370322 1_555
O8 V2 1.916801 1_556
O8 V1 1.992607 1_556
O8 Yb3 2.346087 1_545
O8 Yb2 2.524369 1_555
O8 Yb1 2.616946 1_456
O9 V0 1.916801 1_565
O9 V3 1.992607 1_655
O9 Yb1 2.346087 1_565
O9 Yb0 2.524369 1_555
O9 Yb3 2.616946 1_655
O10 V0 1.916801 1_555
O10 V3 1.992607 1_555
O10 Yb3 2.346087 1_545
O10 Yb2 2.524369 1_555
O10 Yb1 2.616946 1_455
O11 V1 1.916801 1_556
O11 V2 1.992607 1_566
O11 Yb2 2.346087 1_555
O11 Yb3 2.524369 1_555
O11 Yb0 2.616946 1_556
