# generated using pymatgen
data_Li3Ni5OF11
_symmetry_space_group_name_H-M   'P 1'
_cell_length_a   5.12774029
_cell_length_b   5.54572815
_cell_length_c   9.09921804
_cell_angle_alpha   85.10298320
_cell_angle_beta   74.33720572
_cell_angle_gamma   118.24346264
_symmetry_Int_Tables_number   1
_chemical_formula_structural   Li3Ni5OF11
_chemical_formula_sum   'Li3 Ni5 O1 F11'
_cell_volume   212.44360803
_cell_formula_units_Z   1
loop_
 _symmetry_equiv_pos_site_id
 _symmetry_equiv_pos_as_xyz
  1  'x, y, z'
loop_
 _atom_site_type_symbol
 _atom_site_label
 _atom_site_symmetry_multiplicity
 _atom_site_fract_x
 _atom_site_fract_y
 _atom_site_fract_z
 _atom_site_occupancy
  Li  Li0  1  0.14353600  0.85397100  0.57367900  1
  Li  Li1  1  0.85082000  0.62865500  0.92823400  1
  Li  Li2  1  0.84359600  0.13634000  0.43970200  1
  Ni  Ni0  1  0.12519000  0.36622500  0.07142700  1
  Ni  Ni1  1  0.37077100  0.88719500  0.16828000  1
  Ni  Ni2  1  0.34396900  0.35581200  0.66995700  1
  Ni  Ni3  1  0.65349500  0.63614000  0.32787800  1
  Ni  Ni4  1  0.67013000  0.14285500  0.83408900  1
  O  O0  1  0.74193500  0.22400500  0.02802700  1
  F  F0  1  0.07148500  0.52566000  0.71328500  1
  F  F1  1  0.05671100  0.02449200  0.21870900  1
  F  F2  1  0.44585900  0.87128100  0.37433100  1
  F  F3  1  0.54657100  0.61862700  0.12891300  1
  F  F4  1  0.25869600  0.28176800  0.46686600  1
  F  F5  1  0.25092400  0.78052800  0.96966700  1
  F  F6  1  0.74540300  0.71265200  0.52762500  1
  F  F7  1  0.43508100  0.37843900  0.87113400  1
  F  F8  1  0.56049400  0.12933200  0.63266300  1
  F  F9  1  0.94103100  0.47559200  0.27992300  1
  F  F10  1  0.94430200  0.97043000  0.77561300  1
loop_
_geom_bond_atom_site_label_1
_geom_bond_atom_site_label_2
_geom_bond_distance
_geom_bond_site_symmetry_2
Li1 O0 2.089181 1_556
Ni0 O0 1.909292 1_455
Ni1 O0 1.912286 1_565
Ni4 O0 1.944687 1_556
F0 Li0 1.944291 1_555
F0 Ni2 2.001618 1_555
F0 Ni4 2.048339 1_455
F0 Li1 2.244871 1_455
F1 Ni0 2.047777 1_555
F1 Ni1 2.050588 1_545
F1 Ni3 2.052168 1_445
F1 Li2 2.300106 1_455
F2 Li0 2.003448 1_555
F2 Ni1 2.016184 1_555
F2 Ni3 2.043989 1_555
F2 Li2 2.154306 1_565
F3 Ni3 2.025653 1_555
F3 Li1 2.033158 1_554
F3 Ni1 2.084878 1_555
F3 Ni0 2.185054 1_555
F4 Li2 1.983823 1_455
F4 Ni3 1.996942 1_555
F4 Ni2 2.042235 1_555
F4 Li0 2.211863 1_545
F5 Li1 1.974114 1_455
F5 Ni4 2.058428 1_565
F5 Ni1 2.105181 1_556
F5 Ni0 2.112936 1_556
F6 Li0 1.990317 1_655
F6 Ni2 2.024432 1_555
F6 Ni3 2.027442 1_555
F6 Li2 2.180898 1_565
F7 Ni2 2.007601 1_555
F7 Ni0 2.040714 1_556
F7 Ni4 2.149267 1_555
F7 Li1 2.159046 1_555
F8 Li2 1.936591 1_555
F8 Ni2 2.028439 1_555
F8 Ni4 2.054464 1_555
F8 Li0 2.204705 1_545
F9 Ni3 2.029385 1_555
F9 Li2 2.038175 1_555
F9 Ni0 2.151739 1_655
F9 Ni1 2.175557 1_655
F10 Li1 2.020429 1_555
F10 Ni4 2.032061 1_565
F10 Ni2 2.032718 1_665
F10 Li0 2.156507 1_655
