# generated using pymatgen
data_Ba2YCl7
_symmetry_space_group_name_H-M   'P 1'
_cell_length_a   9.27614616
_cell_length_b   9.27614616
_cell_length_c   10.39104952
_cell_angle_alpha   56.34416946
_cell_angle_beta   56.34416946
_cell_angle_gamma   52.36248800
_symmetry_Int_Tables_number   1
_chemical_formula_structural   Ba2YCl7
_chemical_formula_sum   'Ba4 Y2 Cl14'
_cell_volume   556.89067110
_cell_formula_units_Z   2
loop_
 _symmetry_equiv_pos_site_id
 _symmetry_equiv_pos_as_xyz
  1  'x, y, z'
loop_
 _atom_site_type_symbol
 _atom_site_label
 _atom_site_symmetry_multiplicity
 _atom_site_fract_x
 _atom_site_fract_y
 _atom_site_fract_z
 _atom_site_occupancy
  Ba  Ba0  1  0.69704300  0.68022500  0.71853200  1
  Ba  Ba1  1  0.68022500  0.69704300  0.21853200  1
  Ba  Ba2  1  0.31977500  0.30295700  0.78146800  1
  Ba  Ba3  1  0.30295700  0.31977500  0.28146800  1
  Y  Y0  1  0.03383800  0.96616200  0.75000000  1
  Y  Y1  1  0.96616200  0.03383800  0.25000000  1
  Cl  Cl0  1  0.93148100  0.68940100  0.84867200  1
  Cl  Cl1  1  0.68940100  0.93148100  0.34867200  1
  Cl  Cl2  1  0.93450700  0.24085100  0.93698200  1
  Cl  Cl3  1  0.89164000  0.35721500  0.55246300  1
  Cl  Cl4  1  0.38841800  0.61158200  0.75000000  1
  Cl  Cl5  1  0.24085100  0.93450700  0.43698200  1
  Cl  Cl6  1  0.64278500  0.10836000  0.94753700  1
  Cl  Cl7  1  0.35721500  0.89164000  0.05246300  1
  Cl  Cl8  1  0.75914900  0.06549300  0.56301800  1
  Cl  Cl9  1  0.61158200  0.38841800  0.25000000  1
  Cl  Cl10  1  0.10836000  0.64278500  0.44753700  1
  Cl  Cl11  1  0.06549300  0.75914900  0.06301800  1
  Cl  Cl12  1  0.31059900  0.06851900  0.65132800  1
  Cl  Cl13  1  0.06851900  0.31059900  0.15132800  1
loop_
_geom_bond_atom_site_label_1
_geom_bond_atom_site_label_2
_geom_bond_distance
_geom_bond_site_symmetry_2
Ba0 Cl4 3.109062 1_555
Ba0 Cl10 3.188184 1_655
Ba0 Cl0 3.190365 1_555
Ba0 Cl1 3.221700 1_555
Ba0 Cl12 3.244784 1_565
Ba0 Cl8 3.285849 1_565
Ba0 Cl3 3.299488 1_555
Ba0 Cl2 3.307398 1_555
Ba0 Cl7 3.700203 1_556
Ba1 Cl9 3.109062 1_555
Ba1 Cl6 3.188184 1_564
Ba1 Cl1 3.190365 1_555
Ba1 Cl0 3.221700 1_554
Ba1 Cl13 3.244784 1_655
Ba1 Cl11 3.285849 1_655
Ba1 Cl7 3.299488 1_555
Ba1 Cl5 3.307398 1_555
Ba1 Cl3 3.700203 1_555
Ba2 Cl4 3.109062 1_555
Ba2 Cl7 3.188184 1_546
Ba2 Cl12 3.190365 1_555
Ba2 Cl13 3.221700 1_556
Ba2 Cl0 3.244784 1_455
Ba2 Cl2 3.285849 1_455
Ba2 Cl6 3.299488 1_555
Ba2 Cl8 3.307398 1_555
Ba2 Cl10 3.700203 1_555
Ba3 Cl9 3.109062 1_555
Ba3 Cl3 3.188184 1_455
Ba3 Cl13 3.190365 1_555
Ba3 Cl12 3.221700 1_555
Ba3 Cl1 3.244784 1_545
Ba3 Cl5 3.285849 1_545
Ba3 Cl10 3.299488 1_555
Ba3 Cl11 3.307398 1_555
Ba3 Cl6 3.700203 1_554
Cl0 Y0 2.743011 1_655
Cl1 Y1 2.743011 1_565
Cl2 Y1 2.792847 1_556
Cl2 Y0 3.428155 1_645
Cl3 Y0 2.831230 1_645
Cl4 Y0 2.902413 1_555
Cl5 Y0 2.792847 1_555
Cl5 Y1 3.428155 1_465
Cl6 Y0 2.831230 1_645
Cl7 Y1 2.831230 1_465
Cl8 Y1 2.792847 1_555
Cl8 Y0 3.428155 1_645
Cl9 Y1 2.902413 1_555
Cl10 Y1 2.831230 1_465
Cl11 Y0 2.792847 1_554
Cl11 Y1 3.428155 1_465
Cl12 Y0 2.743011 1_545
Cl13 Y1 2.743011 1_455
