# generated using pymatgen
data_NaGdRe4(H2O5)4
_symmetry_space_group_name_H-M   'P 1'
_cell_length_a   12.72371100
_cell_length_b   12.72371100
_cell_length_c   5.75980400
_cell_angle_alpha   90.00000000
_cell_angle_beta   90.00000000
_cell_angle_gamma   90.00000000
_symmetry_Int_Tables_number   1
_chemical_formula_structural   NaGdRe4(H2O5)4
_chemical_formula_sum   'Na2 Gd2 Re8 H16 O40'
_cell_volume   932.47092149
_cell_formula_units_Z   2
loop_
 _symmetry_equiv_pos_site_id
 _symmetry_equiv_pos_as_xyz
  1  'x, y, z'
loop_
 _atom_site_type_symbol
 _atom_site_label
 _atom_site_symmetry_multiplicity
 _atom_site_fract_x
 _atom_site_fract_y
 _atom_site_fract_z
 _atom_site_occupancy
  Na  Na0  1  0.50000000  0.50000000  0.00000000  1
  Na  Na1  1  0.00000000  0.00000000  0.50000000  1
  Gd  Gd0  1  0.50000000  0.00000000  0.25000000  1
  Gd  Gd1  1  0.00000000  0.50000000  0.75000000  1
  Re  Re0  1  0.40774100  0.71482000  0.46559400  1
  Re  Re1  1  0.90774100  0.78518000  0.96559400  1
  Re  Re2  1  0.71482000  0.59225900  0.53440600  1
  Re  Re3  1  0.21482000  0.90774100  0.03440600  1
  Re  Re4  1  0.59225900  0.28518000  0.46559400  1
  Re  Re5  1  0.09225900  0.21482000  0.96559400  1
  Re  Re6  1  0.28518000  0.40774100  0.53440600  1
  Re  Re7  1  0.78518000  0.09225900  0.03440600  1
  H  H0  1  0.33592200  0.13538500  0.49186300  1
  H  H1  1  0.83592200  0.36461500  0.99186300  1
  H  H2  1  0.13538500  0.66407800  0.50813700  1
  H  H3  1  0.63538500  0.83592200  0.00813700  1
  H  H4  1  0.66407800  0.86461500  0.49186300  1
  H  H5  1  0.16407800  0.63538500  0.99186300  1
  H  H6  1  0.86461500  0.33592200  0.50813700  1
  H  H7  1  0.36461500  0.16407800  0.00813700  1
  H  H8  1  0.28530900  0.02290100  0.46391700  1
  H  H9  1  0.78530900  0.47709900  0.96391700  1
  H  H10  1  0.02290100  0.71469100  0.53608300  1
  H  H11  1  0.52290100  0.78530900  0.03608300  1
  H  H12  1  0.71469100  0.97709900  0.46391700  1
  H  H13  1  0.21469100  0.52290100  0.96391700  1
  H  H14  1  0.97709900  0.28530900  0.53608300  1
  H  H15  1  0.47709900  0.21469100  0.03608300  1
  O  O0  1  0.43503600  0.85100300  0.49165100  1
  O  O1  1  0.93503600  0.64899700  0.99165100  1
  O  O2  1  0.85100300  0.56496400  0.50834900  1
  O  O3  1  0.35100300  0.93503600  0.00834900  1
  O  O4  1  0.56496400  0.14899700  0.49165100  1
  O  O5  1  0.06496400  0.35100300  0.99165100  1
  O  O6  1  0.14899700  0.43503600  0.50834900  1
  O  O7  1  0.64899700  0.06496400  0.00834900  1
  O  O8  1  0.27290600  0.69231500  0.49817600  1
  O  O9  1  0.77290600  0.80768500  0.99817600  1
  O  O10  1  0.69231500  0.72709400  0.50182400  1
  O  O11  1  0.19231500  0.77290600  0.00182400  1
  O  O12  1  0.72709400  0.30768500  0.49817600  1
  O  O13  1  0.22709400  0.19231500  0.99817600  1
  O  O14  1  0.30768500  0.27290600  0.50182400  1
  O  O15  1  0.80768500  0.22709400  0.00182400  1
  O  O16  1  0.47585300  0.64484600  0.67855900  1
  O  O17  1  0.97585300  0.85515400  0.17855900  1
  O  O18  1  0.64484600  0.52414700  0.32144100  1
  O  O19  1  0.14484600  0.97585300  0.82144100  1
  O  O20  1  0.52414700  0.35515400  0.67855900  1
  O  O21  1  0.02414700  0.14484600  0.17855900  1
  O  O22  1  0.35515400  0.47585300  0.32144100  1
  O  O23  1  0.85515400  0.02414700  0.82144100  1
  O  O24  1  0.45015700  0.67482400  0.19004500  1
  O  O25  1  0.95015700  0.82517600  0.69004500  1
  O  O26  1  0.67482400  0.54984300  0.80995500  1
  O  O27  1  0.17482400  0.95015700  0.30995500  1
  O  O28  1  0.54984300  0.32517600  0.19004500  1
  O  O29  1  0.04984300  0.17482400  0.69004500  1
  O  O30  1  0.32517600  0.45015700  0.80995500  1
  O  O31  1  0.82517600  0.04984300  0.30995500  1
  O  O32  1  0.35308200  0.05969700  0.48042400  1
  O  O33  1  0.85308200  0.44030300  0.98042400  1
  O  O34  1  0.05969700  0.64691800  0.51957600  1
  O  O35  1  0.55969700  0.85308200  0.01957600  1
  O  O36  1  0.64691800  0.94030300  0.48042400  1
  O  O37  1  0.14691800  0.55969700  0.98042400  1
  O  O38  1  0.94030300  0.35308200  0.51957600  1
  O  O39  1  0.44030300  0.14691800  0.01957600  1
loop_
_geom_bond_atom_site_label_1
_geom_bond_atom_site_label_2
_geom_bond_distance
_geom_bond_site_symmetry_2
Na0 O26 2.558983 1_554
Na0 O24 2.558983 1_555
Na0 O28 2.558983 1_555
Na0 O30 2.558983 1_554
Na0 O18 2.630359 1_555
Na0 O16 2.630359 1_554
Na0 O20 2.630359 1_554
Na0 O22 2.630359 1_555
Na1 O29 2.558983 1_555
Na1 O27 2.558983 1_545
Na1 O31 2.558983 1_455
Na1 O25 2.558983 1_445
Na1 O19 2.630359 1_545
Na1 O21 2.630359 1_555
Na1 O17 2.630359 1_445
Na1 O23 2.630359 1_455
Gd0 O36 2.415126 1_545
Gd0 O32 2.415126 1_555
Gd0 O39 2.415126 1_555
Gd0 O35 2.415126 1_545
Gd0 O7 2.492902 1_555
Gd0 O4 2.492902 1_555
Gd0 O0 2.492902 1_545
Gd0 O3 2.492902 1_545
Gd1 O37 2.415126 1_555
Gd1 O33 2.415126 1_455
Gd1 O34 2.415126 1_555
Gd1 O38 2.415126 1_455
Gd1 O1 2.492902 1_455
Gd1 O5 2.492902 1_555
Gd1 O6 2.492902 1_555
Gd1 O2 2.492902 1_455
H0 O32 0.989669 1_555
H1 O33 0.989669 1_555
H2 O34 0.989669 1_555
H3 O35 0.989669 1_555
H4 O36 0.989669 1_555
H5 O37 0.989669 1_555
H6 O38 0.989669 1_555
H7 O39 0.989669 1_555
H8 O32 0.985818 1_555
H9 O33 0.985818 1_555
H10 O34 0.985818 1_555
H11 O35 0.985818 1_555
H12 O36 0.985818 1_555
H13 O37 0.985818 1_555
H14 O38 0.985818 1_555
H15 O39 0.985818 1_555
O0 Re0 1.773576 1_555
O1 Re1 1.773576 1_555
O2 Re2 1.773576 1_555
O3 Re3 1.773576 1_555
O4 Re4 1.773576 1_555
O5 Re5 1.773576 1_555
O6 Re6 1.773576 1_555
O7 Re7 1.773576 1_555
O8 Re0 1.749429 1_555
O9 Re1 1.749429 1_555
O10 Re2 1.749429 1_555
O11 Re3 1.749429 1_555
O12 Re4 1.749429 1_555
O13 Re5 1.749429 1_555
O14 Re6 1.749429 1_555
O15 Re7 1.749429 1_555
O16 Re0 1.745962 1_555
O17 Re1 1.745962 1_554
O18 Re2 1.745962 1_555
O19 Re3 1.745962 1_556
O20 Re4 1.745962 1_555
O21 Re5 1.745962 1_554
O22 Re6 1.745962 1_555
O23 Re7 1.745962 1_556
O24 Re0 1.751900 1_555
O25 Re1 1.751900 1_555
O26 Re2 1.751900 1_555
O27 Re3 1.751900 1_555
O28 Re4 1.751900 1_555
O29 Re5 1.751900 1_555
O30 Re6 1.751900 1_555
O31 Re7 1.751900 1_555
