# generated using pymatgen
data_NaLi2MnPCO7
_symmetry_space_group_name_H-M   'P 1'
_cell_length_a   6.65221300
_cell_length_b   8.71873597
_cell_length_c   10.08034748
_cell_angle_alpha   89.00357158
_cell_angle_beta   89.95278376
_cell_angle_gamma   89.88694922
_symmetry_Int_Tables_number   1
_chemical_formula_structural   NaLi2MnPCO7
_chemical_formula_sum   'Na4 Li8 Mn4 P4 C4 O28'
_cell_volume   584.55922227
_cell_formula_units_Z   4
loop_
 _symmetry_equiv_pos_site_id
 _symmetry_equiv_pos_as_xyz
  1  'x, y, z'
loop_
 _atom_site_type_symbol
 _atom_site_label
 _atom_site_symmetry_multiplicity
 _atom_site_fract_x
 _atom_site_fract_y
 _atom_site_fract_z
 _atom_site_occupancy
  Na  Na0  1  0.74586700  0.08415900  0.87793100  1
  Na  Na1  1  0.74790500  0.08427700  0.37860400  1
  Na  Na2  1  0.00296100  0.25158000  0.12444500  1
  Na  Na3  1  0.49957900  0.74845400  0.37634200  1
  Li  Li0  1  0.97953500  0.26507500  0.61690400  1
  Li  Li1  1  0.52215500  0.26692800  0.61388400  1
  Li  Li2  1  0.51802900  0.26804900  0.11530500  1
  Li  Li3  1  0.48215100  0.73647500  0.88205500  1
  Li  Li4  1  0.01971100  0.73469000  0.88562000  1
  Li  Li5  1  0.01591700  0.73384600  0.38443700  1
  Li  Li6  1  0.24587700  0.91780600  0.62800500  1
  Li  Li7  1  0.25088100  0.91266300  0.12341300  1
  Mn  Mn0  1  0.25280700  0.35782200  0.88434600  1
  Mn  Mn1  1  0.25228600  0.35980900  0.39173500  1
  Mn  Mn2  1  0.75342000  0.64464100  0.61589600  1
  Mn  Mn3  1  0.75152500  0.64196800  0.10891900  1
  P  P0  1  0.74991900  0.41251300  0.84947900  1
  P  P1  1  0.75169700  0.41276800  0.35552500  1
  P  P2  1  0.25019600  0.59339100  0.65124700  1
  P  P3  1  0.25057800  0.59294200  0.14541200  1
  C  C0  1  0.25018400  0.04146100  0.86579900  1
  C  C1  1  0.24300900  0.04602800  0.36586600  1
  C  C2  1  0.75085900  0.95047100  0.63339400  1
  C  C3  1  0.74269600  0.94582200  0.13227700  1
  O  O0  1  0.75139400  0.10019800  0.64034400  1
  O  O1  1  0.72374400  0.09435000  0.14157400  1
  O  O2  1  0.24710400  0.08840000  0.98787800  1
  O  O3  1  0.25052700  0.08982000  0.48844400  1
  O  O4  1  0.25275400  0.14081400  0.76762600  1
  O  O5  1  0.25813200  0.14770800  0.26945400  1
  O  O6  1  0.93808800  0.32292800  0.89806800  1
  O  O7  1  0.56697800  0.32062500  0.90440400  1
  O  O8  1  0.93703400  0.31434600  0.39893900  1
  O  O9  1  0.56670000  0.32591000  0.41400000  1
  O  O10  1  0.74645300  0.41342800  0.69386100  1
  O  O11  1  0.24749500  0.42340200  0.60305400  1
  O  O12  1  0.73479800  0.41818200  0.20051500  1
  O  O13  1  0.26795500  0.42627400  0.09388000  1
  O  O14  1  0.74716000  0.58218000  0.89508500  1
  O  O15  1  0.24581700  0.58646500  0.80677400  1
  O  O16  1  0.76813300  0.57910600  0.40452800  1
  O  O17  1  0.23410400  0.58186100  0.30012400  1
  O  O18  1  0.43726200  0.68446600  0.60457900  1
  O  O19  1  0.06930500  0.68863100  0.59776800  1
  O  O20  1  0.43351300  0.69428600  0.10376100  1
  O  O21  1  0.06685900  0.68185500  0.08809200  1
  O  O22  1  0.75301800  0.86532300  0.74011200  1
  O  O23  1  0.75579300  0.86000100  0.23837100  1
  O  O24  1  0.74826300  0.88475900  0.51882700  1
  O  O25  1  0.74933900  0.88222700  0.01706600  1
  O  O26  1  0.25096200  0.89591400  0.83991700  1
  O  O27  1  0.22156900  0.90290200  0.33611400  1
loop_
_geom_bond_atom_site_label_1
_geom_bond_atom_site_label_2
_geom_bond_distance
_geom_bond_site_symmetry_2
Na0 O25 2.231886 1_546
Na0 O22 2.380000 1_545
Na0 O0 2.396866 1_555
Na0 O7 2.397249 1_555
Na0 O6 2.456753 1_555
Na0 O1 2.664578 1_556
Na1 O24 2.222266 1_545
Na1 O8 2.381861 1_555
Na1 O1 2.394951 1_555
Na1 O23 2.433151 1_545
Na1 O9 2.456436 1_555
Na1 O0 2.644612 1_555
Na2 O1 2.315232 1_455
Na2 O13 2.348537 1_555
Na2 O6 2.394103 1_454
Na2 O5 2.406280 1_555
Na2 O12 2.430310 1_455
Na2 O2 2.571435 1_554
Na2 O8 2.863177 1_455
Na3 O27 2.317408 1_555
Na3 O16 2.329833 1_555
Na3 O18 2.393962 1_555
Na3 O23 2.395976 1_555
Na3 O17 2.422789 1_555
Na3 O24 2.506593 1_555
Na3 O20 2.830910 1_555
Li0 O0 2.102792 1_555
Li0 O10 2.168846 1_555
Li0 O8 2.249381 1_555
Li0 O11 2.259431 1_655
Li0 O4 2.593259 1_655
Li1 O9 2.091808 1_555
Li1 O0 2.118540 1_555
Li1 O10 2.133788 1_555
Li1 O11 2.279629 1_555
Li1 O4 2.601233 1_555
Li2 O1 2.052995 1_555
Li2 O12 2.139890 1_555
Li2 O13 2.167552 1_555
Li2 O7 2.191209 1_554
Li2 O5 2.539780 1_555
Li3 O26 2.109530 1_555
Li3 O15 2.191506 1_555
Li3 O14 2.218028 1_555
Li3 O20 2.281520 1_556
Li3 O22 2.550264 1_555
Li3 O25 2.588289 1_556
Li4 O21 2.108077 1_556
Li4 O26 2.130600 1_555
Li4 O15 2.142485 1_555
Li4 O14 2.251493 1_455
Li4 O22 2.556222 1_455
Li4 O25 2.586779 1_456
Li5 O27 2.064763 1_555
Li5 O16 2.139355 1_455
Li5 O17 2.148129 1_555
Li5 O19 2.208438 1_555
Li5 O23 2.512450 1_455
Li5 O24 2.604877 1_455
Li6 O3 2.038645 1_565
Li6 O26 2.141637 1_555
Li6 O19 2.344371 1_555
Li6 O18 2.412785 1_555
Li6 O4 2.420552 1_565
Li7 O2 2.035188 1_564
Li7 O27 2.153011 1_555
Li7 O20 2.268026 1_555
Li7 O21 2.389613 1_555
Li7 O5 2.544520 1_565
Mn0 O6 2.120219 1_455
Mn0 O7 2.123586 1_555
Mn0 O15 2.129095 1_555
Mn0 O13 2.207274 1_556
Mn0 O4 2.245342 1_555
Mn0 O2 2.554121 1_555
Mn1 O9 2.123283 1_555
Mn1 O17 2.133694 1_555
Mn1 O8 2.135965 1_455
Mn1 O11 2.210644 1_555
Mn1 O5 2.240436 1_555
Mn1 O3 2.532174 1_555
Mn2 O18 2.133766 1_555
Mn2 O19 2.143877 1_655
Mn2 O10 2.151466 1_555
Mn2 O16 2.217557 1_555
Mn2 O24 2.295646 1_555
Mn2 O22 2.313799 1_555
Mn3 O21 2.136550 1_655
Mn3 O12 2.147054 1_555
Mn3 O20 2.163699 1_555
Mn3 O14 2.226676 1_554
Mn3 O25 2.275514 1_555
Mn3 O23 2.324623 1_555
C0 O26 1.299964 1_545
C0 O2 1.303733 1_555
C0 O4 1.303921 1_555
C1 O27 1.296640 1_545
C1 O3 1.300633 1_555
C1 O5 1.307972 1_555
C2 O22 1.296454 1_555
C2 O24 1.298215 1_555
C2 O0 1.308537 1_565
C3 O25 1.296293 1_555
C3 O23 1.297416 1_555
C3 O1 1.305832 1_565
O6 P0 1.549408 1_555
O7 P0 1.554570 1_555
O8 P1 1.559352 1_555
O9 P1 1.556397 1_555
O10 P0 1.568753 1_555
O11 P2 1.567825 1_555
O12 P1 1.566571 1_555
O13 P3 1.555729 1_555
O14 P0 1.556756 1_555
O15 P2 1.568128 1_555
O16 P1 1.544291 1_555
O17 P3 1.564628 1_555
O18 P2 1.546064 1_555
O19 P2 1.552315 1_555
O20 P3 1.558336 1_555
O21 P3 1.552506 1_555
