# generated using pymatgen
data_Li7Ni5O12
_symmetry_space_group_name_H-M   'P 1'
_cell_length_a   4.91005933
_cell_length_b   4.91005933
_cell_length_c   9.47529245
_cell_angle_alpha   85.05774785
_cell_angle_beta   85.05774785
_cell_angle_gamma   120.35591381
_symmetry_Int_Tables_number   1
_chemical_formula_structural   Li7Ni5O12
_chemical_formula_sum   'Li7 Ni5 O12'
_cell_volume   194.13839510
_cell_formula_units_Z   1
loop_
 _symmetry_equiv_pos_site_id
 _symmetry_equiv_pos_as_xyz
  1  'x, y, z'
loop_
 _atom_site_type_symbol
 _atom_site_label
 _atom_site_symmetry_multiplicity
 _atom_site_fract_x
 _atom_site_fract_y
 _atom_site_fract_z
 _atom_site_occupancy
  Li  Li0  1  0.00943866  0.50272031  0.75357705  1
  Li  Li1  1  0.65921734  0.83043111  0.75322658  1
  Li  Li2  1  0.84041893  0.67132108  0.24659529  1
  Li  Li3  1  0.49727969  0.99056134  0.24642295  1
  Li  Li4  1  0.16956889  0.34078266  0.24677342  1
  Li  Li5  1  0.32867892  0.15958107  0.75340471  1
  Li  Li6  1  0.25051939  0.74948061  -0.00000000  1
  Ni  Ni0  1  0.91738420  0.08261580  -0.00000000  1
  Ni  Ni1  1  0.75005472  0.24994528  0.50000000  1
  Ni  Ni2  1  0.41443662  0.58556338  0.50000000  1
  Ni  Ni3  1  0.58434911  0.41565089  -0.00000000  1
  Ni  Ni4  1  0.07981122  0.92018878  0.50000000  1
  O  O0  1  0.77115729  0.93437845  0.38432532  1
  O  O1  1  0.57144347  0.71054696  0.11016414  1
  O  O2  1  0.85513277  0.35371465  0.11145014  1
  O  O3  1  0.28945304  0.42855653  0.88983586  1
  O  O4  1  0.06562155  0.22884271  0.61567468  1
  O  O5  1  0.64628535  0.14486723  0.88854986  1
  O  O6  1  0.37124432  0.85864058  0.61553081  1
  O  O7  1  0.93046857  0.78728902  0.88898736  1
  O  O8  1  0.71363933  0.56967579  0.60876113  1
  O  O9  1  0.14135942  0.62875568  0.38446919  1
  O  O10  1  0.43032421  0.28636067  0.39123887  1
  O  O11  1  0.21271098  0.06953143  0.11101264  1
loop_
_geom_bond_atom_site_label_1
_geom_bond_atom_site_label_2
_geom_bond_distance
_geom_bond_site_symmetry_2
Li0 O5 1.988862 1_455
Li0 O6 1.997186 1_555
Li0 O4 2.051206 1_555
Li0 O3 2.102552 1_555
Li0 O7 2.125947 1_455
Li0 O8 2.201966 1_455
Li1 O7 2.001721 1_555
Li1 O8 2.041846 1_555
Li1 O6 2.050713 1_555
Li1 O3 2.097472 1_555
Li1 O5 2.111379 1_565
Li1 O4 2.162053 1_665
Li2 O1 1.990179 1_555
Li2 O0 2.035928 1_555
Li2 O11 2.089238 1_665
Li2 O2 2.125783 1_555
Li2 O9 2.128723 1_655
Li2 O10 2.176444 1_555
Li3 O2 1.988862 1_565
Li3 O9 1.997186 1_555
Li3 O0 2.051206 1_555
Li3 O1 2.102552 1_555
Li3 O11 2.125947 1_565
Li3 O10 2.201966 1_565
Li4 O11 2.001721 1_555
Li4 O10 2.041846 1_555
Li4 O9 2.050713 1_555
Li4 O1 2.097472 1_555
Li4 O2 2.111379 1_455
Li4 O0 2.162053 1_445
Li5 O3 1.990179 1_555
Li5 O4 2.035928 1_555
Li5 O7 2.089238 1_445
Li5 O5 2.125783 1_555
Li5 O6 2.128723 1_545
Li5 O8 2.176444 1_555
Li6 O5 2.034793 1_564
Li6 O2 2.034793 1_455
Li6 O7 2.038739 1_454
Li6 O11 2.038739 1_565
Li6 O3 2.040256 1_554
Li6 O1 2.040256 1_555
Ni0 O3 1.881959 1_654
Ni0 O1 1.881959 1_545
Ni0 O11 1.886428 1_655
Ni0 O7 1.886428 1_544
Ni0 O5 1.891637 1_554
Ni0 O2 1.891637 1_555
Ni1 O6 2.006025 1_545
Ni1 O9 2.006025 1_655
Ni1 O0 2.012011 1_545
Ni1 O4 2.012011 1_655
Ni1 O8 2.022199 1_555
Ni1 O10 2.022199 1_555
Ni2 O0 1.875159 1_555
Ni2 O4 1.875159 1_555
Ni2 O6 1.881873 1_555
Ni2 O9 1.881873 1_555
Ni2 O10 1.894522 1_555
Ni2 O8 1.894522 1_555
Ni3 O3 1.879351 1_554
Ni3 O1 1.879351 1_555
Ni3 O7 1.884471 1_554
Ni3 O11 1.884471 1_555
Ni3 O5 1.889622 1_554
Ni3 O2 1.889622 1_555
Ni4 O8 1.871938 1_455
Ni4 O10 1.871938 1_565
Ni4 O4 1.970463 1_565
Ni4 O0 1.970463 1_455
Ni4 O9 1.996819 1_555
Ni4 O6 1.996819 1_555
