# generated using pymatgen
data_Co2OF3
_symmetry_space_group_name_H-M   'P 1'
_cell_length_a   9.06721285
_cell_length_b   5.64493828
_cell_length_c   5.64493828
_cell_angle_alpha   72.00591167
_cell_angle_beta   86.53704544
_cell_angle_gamma   86.53704544
_symmetry_Int_Tables_number   1
_chemical_formula_structural   Co2OF3
_chemical_formula_sum   'Co8 O4 F12'
_cell_volume   274.03064196
_cell_formula_units_Z   4
loop_
 _symmetry_equiv_pos_site_id
 _symmetry_equiv_pos_as_xyz
  1  'x, y, z'
loop_
 _atom_site_type_symbol
 _atom_site_label
 _atom_site_symmetry_multiplicity
 _atom_site_fract_x
 _atom_site_fract_y
 _atom_site_fract_z
 _atom_site_occupancy
  Co  Co0  1  0.60246400  0.89303100  0.89303100  1
  Co  Co1  1  0.88253600  0.64162700  0.64162700  1
  Co  Co2  1  0.50000000  0.50000000  0.50000000  1
  Co  Co3  1  0.76789100  0.25565200  0.25565200  1
  Co  Co4  1  0.23210900  0.74434800  0.74434800  1
  Co  Co5  1  0.39753600  0.10696900  0.10696900  1
  Co  Co6  1  0.11746400  0.35837300  0.35837300  1
  Co  Co7  1  0.00000000  0.00000000  0.00000000  1
  O  O0  1  0.50000000  0.21865500  0.78134500  1
  O  O1  1  0.96874600  0.22423000  0.22423000  1
  O  O2  1  0.03125400  0.77577000  0.77577000  1
  O  O3  1  0.50000000  0.78134500  0.21865500  1
  F  F0  1  0.73999600  0.56783900  0.94758000  1
  F  F1  1  0.73999600  0.94758000  0.56783900  1
  F  F2  1  0.73063700  0.47900100  0.47900100  1
  F  F3  1  0.23198000  0.96922800  0.96922800  1
  F  F4  1  0.46004100  0.72648100  0.72648100  1
  F  F5  1  0.53995900  0.27351900  0.27351900  1
  F  F6  1  0.76802000  0.03077200  0.03077200  1
  F  F7  1  0.26936300  0.52099900  0.52099900  1
  F  F8  1  0.00000000  0.30416200  0.69583800  1
  F  F9  1  0.26000400  0.05242000  0.43216100  1
  F  F10  1  0.26000400  0.43216100  0.05242000  1
  F  F11  1  0.00000000  0.69583800  0.30416200  1
loop_
_geom_bond_atom_site_label_1
_geom_bond_atom_site_label_2
_geom_bond_distance
_geom_bond_site_symmetry_2
Co0 O0 1.946231 1_565
Co0 O3 1.946231 1_556
Co0 F6 2.029301 1_566
Co0 F4 2.067592 1_555
Co0 F1 2.107194 1_555
Co0 F0 2.107194 1_555
Co1 O2 1.888413 1_655
Co1 F1 2.043927 1_555
Co1 F0 2.043927 1_555
Co1 F8 2.071479 1_655
Co1 F11 2.071479 1_655
Co1 F2 2.099673 1_555
Co2 O3 1.867144 1_555
Co2 O0 1.867144 1_555
Co2 F5 2.073206 1_555
Co2 F4 2.073206 1_555
Co2 F7 2.085702 1_555
Co2 F2 2.085702 1_555
Co3 O1 1.822379 1_555
Co3 F2 2.042671 1_555
Co3 F6 2.053823 1_555
Co3 F5 2.060958 1_555
Co3 F1 2.073570 1_545
Co3 F0 2.073570 1_554
Co4 O2 1.822379 1_555
Co4 F7 2.042671 1_555
Co4 F3 2.053823 1_555
Co4 F4 2.060958 1_555
Co4 F10 2.073570 1_556
Co4 F9 2.073570 1_565
Co5 O3 1.946231 1_545
Co5 O0 1.946231 1_554
Co5 F3 2.029301 1_544
Co5 F5 2.067592 1_555
Co5 F10 2.107194 1_555
Co5 F9 2.107194 1_555
Co6 O1 1.888413 1_455
Co6 F9 2.043927 1_555
Co6 F10 2.043927 1_555
Co6 F11 2.071479 1_555
Co6 F8 2.071479 1_555
Co6 F7 2.099673 1_555
Co7 F8 2.018569 1_554
Co7 F11 2.018569 1_545
Co7 O1 2.046420 1_455
Co7 O2 2.046420 1_544
Co7 F6 2.101203 1_455
Co7 F3 2.101203 1_544
