# generated using pymatgen
data_Ba6Yb6Al13Si11N29O13
_symmetry_space_group_name_H-M   'P 1'
_cell_length_a   6.27812700
_cell_length_b   6.33805931
_cell_length_c   29.54334832
_cell_angle_alpha   89.83403106
_cell_angle_beta   89.74600826
_cell_angle_gamma   60.55710688
_symmetry_Int_Tables_number   1
_chemical_formula_structural   Ba6Yb6Al13Si11N29O13
_chemical_formula_sum   'Ba6 Yb6 Al13 Si11 N29 O13'
_cell_volume   1023.72448050
_cell_formula_units_Z   1
loop_
 _symmetry_equiv_pos_site_id
 _symmetry_equiv_pos_as_xyz
  1  'x, y, z'
loop_
 _atom_site_type_symbol
 _atom_site_label
 _atom_site_symmetry_multiplicity
 _atom_site_fract_x
 _atom_site_fract_y
 _atom_site_fract_z
 _atom_site_occupancy
  Ba  Ba0  1  0.70239600  0.65859200  0.96301300  1
  Ba  Ba1  1  0.64485500  0.68222900  0.29006300  1
  Ba  Ba2  1  0.67937300  0.67188800  0.61153600  1
  Ba  Ba3  1  0.32110900  0.32930200  0.44714000  1
  Ba  Ba4  1  0.29609200  0.32468200  0.12056100  1
  Ba  Ba5  1  0.38247500  0.29577400  0.78133900  1
  Yb  Yb0  1  0.75704800  0.60498300  0.75719200  1
  Yb  Yb1  1  0.63286600  0.60977300  0.09689900  1
  Yb  Yb2  1  0.65294400  0.65395100  0.42808000  1
  Yb  Yb3  1  0.38103500  0.33573600  0.90936700  1
  Yb  Yb4  1  0.33813300  0.33955200  0.55908600  1
  Yb  Yb5  1  0.32518300  0.31737300  0.23823300  1
  Al  Al0  1  0.31639500  0.85972100  0.18930000  1
  Al  Al1  1  0.33146100  0.87369300  0.51676300  1
  Al  Al2  1  0.02008400  0.99414800  0.93167700  1
  Al  Al3  1  0.86501600  0.81352400  0.51595000  1
  Al  Al4  1  0.10705700  0.68755100  0.35764900  1
  Al  Al5  1  0.16838900  0.65693000  0.68126400  1
  Al  Al6  1  0.14684800  0.66413900  0.02207300  1
  Al  Al7  1  0.19067500  0.15078300  0.68155200  1
  Al  Al8  1  0.17523800  0.13543700  0.35461900  1
  Al  Al9  1  0.15316900  0.15515000  0.02430500  1
  Al  Al10  1  0.69408900  0.17890200  0.68426900  1
  Al  Al11  1  0.64752100  0.21729800  0.35246200  1
  Al  Al12  1  0.64666200  0.18637200  0.01715000  1
  Si  Si0  1  0.37782800  0.83729300  0.85252500  1
  Si  Si1  1  0.02076500  0.95985600  0.76824500  1
  Si  Si2  1  0.00166000  0.01352200  0.59561700  1
  Si  Si3  1  0.99498300  0.00809400  0.43346900  1
  Si  Si4  1  0.96664200  0.02102700  0.26759400  1
  Si  Si5  1  0.97236700  0.01127300  0.10446500  1
  Si  Si6  1  0.83192100  0.80932500  0.19099300  1
  Si  Si7  1  0.89206100  0.77776600  0.85240500  1
  Si  Si8  1  0.76064700  0.35627300  0.19232300  1
  Si  Si9  1  0.79695900  0.34452600  0.51980500  1
  Si  Si10  1  0.80955200  0.36321400  0.85609300  1
  N  N0  1  0.04593900  0.95477000  0.82806300  1
  N  N1  1  0.20757900  0.74656600  0.07966800  1
  N  N2  1  0.06513000  0.71087800  0.74165900  1
  N  N3  1  0.96255100  0.76631100  0.41654700  1
  N  N4  1  0.01372200  0.46111300  0.34376800  1
  N  N5  1  0.99013600  0.48676000  0.03366400  1
  N  N6  1  0.99232400  0.47642900  0.83771300  1
  N  N7  1  0.93577700  0.49984300  0.18153200  1
  N  N8  1  0.96937200  0.48360300  0.51203400  1
  N  N9  1  0.75578300  0.26196500  0.57618800  1
  N  N10  1  0.78325500  0.27374100  0.90801100  1
  N  N11  1  0.72875900  0.26767600  0.24584500  1
  N  N12  1  0.50952300  0.53774200  0.83779900  1
  N  N13  1  0.49358000  0.54326200  0.50489700  1
  N  N14  1  0.46939200  0.53747400  0.17345700  1
  N  N15  1  0.25069700  0.97474000  0.08100200  1
  N  N16  1  0.06802100  0.18185900  0.74187700  1
  N  N17  1  0.26214100  0.97049500  0.41014300  1
  N  N18  1  0.58279400  0.94369800  0.84094700  1
  N  N19  1  0.52875400  0.98406800  0.18535100  1
  N  N20  1  0.53899400  0.99267600  0.50835900  1
  N  N21  1  0.71436900  0.20229500  0.07772900  1
  N  N22  1  0.79257000  0.22800800  0.74381800  1
  N  N23  1  0.74793100  0.25338200  0.40985100  1
  N  N24  1  0.96672500  0.00914600  0.16462500  1
  N  N25  1  0.98660200  0.99235500  0.99387300  1
  N  N26  1  0.01681500  0.99160200  0.65629100  1
  N  N27  1  0.99148700  0.02853800  0.49477100  1
  N  N28  1  0.97539400  0.99960100  0.32559600  1
  O  O0  1  0.30709100  0.93145400  0.90605600  1
  O  O1  1  0.26104600  0.99848900  0.57912800  1
  O  O2  1  0.22477900  0.99229200  0.24663300  1
  O  O3  1  0.51707600  0.02417200  0.68829100  1
  O  O4  1  0.47081500  0.08261200  0.33297700  1
  O  O5  1  0.44932800  0.07108100  0.99883400  1
  O  O6  1  0.99956900  0.74242700  0.90590300  1
  O  O7  1  0.01566700  0.76300200  0.57555500  1
  O  O8  1  0.97314000  0.77320000  0.24272300  1
  O  O9  1  0.49315300  0.49458100  0.67419100  1
  O  O10  1  0.42808400  0.53285000  0.34426400  1
  O  O11  1  0.43566400  0.48583100  0.99255900  1
  O  O12  1  0.07697700  0.44776000  0.66153200  1
loop_
_geom_bond_atom_site_label_1
_geom_bond_atom_site_label_2
_geom_bond_distance
_geom_bond_site_symmetry_2
Ba0 O5 2.529179 1_565
Ba0 O11 2.559150 1_555
Ba0 N5 2.625301 1_556
Ba0 O6 2.747970 1_555
Ba0 N10 2.765175 1_555
Ba0 O0 2.789659 1_555
Ba1 O4 2.553694 1_565
Ba1 O10 2.559527 1_555
Ba1 N4 2.583288 1_655
Ba1 O2 2.717295 1_555
Ba1 N11 2.746032 1_555
Ba1 O8 2.770253 1_555
Ba2 O1 2.601016 1_555
Ba2 N9 2.618563 1_555
Ba2 O12 2.639151 1_655
Ba2 O7 2.663875 1_655
Ba2 O9 2.704895 1_555
Ba2 O3 2.989618 1_565
Ba3 N20 2.612409 1_545
Ba3 N23 2.708304 1_555
Ba3 N17 2.710927 1_545
Ba3 N8 2.712672 1_455
Ba3 N13 2.719626 1_555
Ba3 N3 2.725764 1_455
Ba4 N14 2.629579 1_555
Ba4 N15 2.646850 1_545
Ba4 N21 2.659408 1_555
Ba4 N7 2.664728 1_455
Ba4 N19 2.712695 1_545
Ba4 N1 2.728491 1_555
Ba4 N5 3.069868 1_455
Ba5 N18 2.626825 1_545
Ba5 N22 2.632919 1_555
Ba5 N12 2.645683 1_555
Ba5 N2 2.667429 1_555
Ba5 N16 2.684107 1_555
Ba5 N6 2.702248 1_455
Ba5 O3 3.132227 1_555
Al0 N14 1.840123 1_555
Al0 O2 1.852109 1_555
Al0 N19 1.855609 1_555
Al0 N24 2.052755 1_465
Al1 N20 1.813822 1_555
Al1 N13 1.857521 1_555
Al1 O1 1.968049 1_555
Al1 N27 1.972363 1_465
Al2 N10 1.803202 1_465
Al2 O0 1.806465 1_555
Al2 O6 1.830762 1_455
Al2 N25 1.849174 1_455
Al3 N20 1.801878 1_555
Al3 N8 1.862534 1_555
Al3 O7 1.952363 1_655
Al3 N27 1.983307 1_565
Al4 O10 1.797829 1_555
Al4 N4 1.844878 1_555
Al4 N3 1.909401 1_455
Al4 N28 1.969900 1_455
Al5 O12 1.783866 1_555
Al5 O9 1.787322 1_555
Al5 N2 1.869801 1_555
Al5 N26 1.990472 1_555
Al6 O11 1.817244 1_554
Al6 N5 1.852389 1_455
Al6 N1 1.876246 1_555
Al6 N25 1.993383 1_454
Al7 O12 1.754609 1_555
Al7 O3 1.807987 1_555
Al7 N16 1.910172 1_555
Al7 N26 1.964803 1_545
Al8 N4 1.825661 1_555
Al8 O4 1.828751 1_555
Al8 N17 1.875798 1_545
Al8 N28 2.031327 1_445
Al9 O5 1.822962 1_554
Al9 N5 1.851336 1_455
Al9 N15 1.948785 1_545
Al9 N25 2.010214 1_444
Al10 O9 1.789331 1_555
Al10 O3 1.811208 1_555
Al10 N22 1.943241 1_555
Al10 N26 1.955459 1_645
Al11 O4 1.797320 1_555
Al11 O10 1.802202 1_555
Al11 N23 1.864872 1_555
Al11 N28 1.992622 1_545
Al12 O5 1.805500 1_554
Al12 O11 1.847624 1_554
Al12 N21 1.855771 1_555
Al12 N25 1.987867 1_544
N0 Si1 1.773763 1_555
N0 Si7 1.940021 1_455
N0 Si0 1.975662 1_555
N0 Si10 2.411292 1_465
N1 N15 1.597362 1_555
N1 Si5 1.758964 1_465
N1 Yb1 2.423521 1_555
N2 Si1 1.660672 1_555
N2 Yb0 2.380899 1_455
N3 Si3 1.718092 1_565
N3 Yb2 2.398956 1_555
N5 Yb1 2.716796 1_555
N6 Si10 1.711176 1_555
N6 Si7 1.747223 1_555
N6 Yb0 2.709500 1_555
N6 Yb3 3.021150 1_655
N7 Si6 1.759264 1_555
N7 Si8 1.765596 1_555
N7 Yb5 2.714005 1_655
N7 Yb1 3.013820 1_555
N8 Si9 1.713481 1_555
N8 Yb4 2.463505 1_655
N9 Si2 1.674754 1_655
N9 Si9 1.799851 1_555
N9 Yb4 2.472848 1_555
N10 Si10 1.669203 1_555
N10 Yb3 2.357182 1_555
N11 Si4 1.671687 1_555
N11 Si8 1.719948 1_555
N11 Yb5 2.406133 1_555
N12 Si0 1.713422 1_555
N12 Si10 1.738070 1_555
N12 Yb3 2.782984 1_555
N12 Yb0 2.979932 1_555
N13 Si9 1.747545 1_555
N13 Yb4 2.528893 1_555
N13 Yb2 2.702631 1_555
N14 Si8 1.707031 1_555
N14 Yb1 2.610499 1_555
N14 Yb5 2.763843 1_555
N15 Si5 1.783228 1_465
N15 Yb1 2.423932 1_555
N16 N22 1.606649 1_455
N16 Si1 1.754052 1_545
N16 Yb0 2.461741 1_455
N17 Si3 1.715406 1_465
N17 Yb2 2.343448 1_555
N18 Si7 1.728233 1_555
N18 Si0 1.753740 1_555
N18 Yb3 2.962524 1_565
N18 Yb0 3.102593 1_555
N19 Si6 1.675230 1_555
N19 Yb5 2.425703 1_565
N20 Yb4 2.438520 1_565
N21 Si5 1.670678 1_555
N21 Yb1 2.441153 1_555
N22 Si1 1.752163 1_645
N22 Yb0 2.322800 1_555
N23 Si3 1.715286 1_555
N23 Yb2 2.368111 1_555
N24 Si5 1.777668 1_555
N24 Si6 1.992294 1_545
N24 Si8 2.094425 1_555
N26 Si2 1.796811 1_565
N27 Si3 1.815336 1_555
N27 Si9 1.909315 1_555
N28 Si4 1.717540 1_565
O0 Si0 1.671277 1_555
O0 Yb3 2.821715 1_565
O1 Si2 1.654979 1_565
O1 Yb4 2.505236 1_565
O2 Si4 1.656694 1_465
O2 Yb5 2.444704 1_565
O3 Yb0 3.087530 1_545
O4 Yb5 3.089613 1_555
O5 Yb3 3.043203 1_555
O6 Si7 1.691898 1_555
O6 Yb3 2.514342 1_655
O7 Si2 1.657675 1_565
O7 Yb4 2.489076 1_555
O8 Si4 1.718200 1_565
O8 Si6 1.727575 1_555
O8 Yb5 2.640314 1_655
O11 Yb3 2.721219 1_555
