# generated using pymatgen
data_V6O5F19
_symmetry_space_group_name_H-M   'P 1'
_cell_length_a   5.37477300
_cell_length_b   5.51959854
_cell_length_c   14.72553937
_cell_angle_alpha   100.67000918
_cell_angle_beta   89.63774200
_cell_angle_gamma   92.34100118
_symmetry_Int_Tables_number   1
_chemical_formula_structural   V6O5F19
_chemical_formula_sum   'V6 O5 F19'
_cell_volume   428.94458163
_cell_formula_units_Z   1
loop_
 _symmetry_equiv_pos_site_id
 _symmetry_equiv_pos_as_xyz
  1  'x, y, z'
loop_
 _atom_site_type_symbol
 _atom_site_label
 _atom_site_symmetry_multiplicity
 _atom_site_fract_x
 _atom_site_fract_y
 _atom_site_fract_z
 _atom_site_occupancy
  V  V0  1  0.94719800  0.98595200  0.00538300  1
  V  V1  1  0.54337000  0.80173300  0.67062800  1
  V  V2  1  0.03443400  0.61501600  0.32915700  1
  V  V3  1  0.43928700  0.52699400  0.99372900  1
  V  V4  1  0.03423700  0.29035100  0.66318100  1
  V  V5  1  0.51411400  0.15279000  0.33505300  1
  O  O0  1  0.71632500  0.78916300  0.02047400  1
  O  O1  1  0.77243300  0.63689100  0.68780100  1
  O  O2  1  0.21612600  0.70863500  0.97629000  1
  O  O3  1  0.20059200  0.36923500  0.30831000  1
  O  O4  1  0.20286200  0.05194300  0.64592600  1
  F  F0  1  0.78702400  0.98574800  0.35930400  1
  F  F1  1  0.29922400  0.84931200  0.30916700  1
  F  F2  1  0.94587800  0.95799900  0.88380700  1
  F  F3  1  0.56370500  0.81200900  0.55111600  1
  F  F4  1  0.91126900  0.64047200  0.22027400  1
  F  F5  1  0.40693400  0.88004800  0.78168600  1
  F  F6  1  0.07285700  0.72579000  0.44876900  1
  F  F7  1  0.44092900  0.54821400  0.11508200  1
  F  F8  1  0.71774500  0.46827100  0.35756600  1
  F  F9  1  0.79536200  0.27490900  0.02601000  1
  F  F10  1  0.28875000  0.53513800  0.63875800  1
  F  F11  1  0.59389700  0.44739200  0.88603800  1
  F  F12  1  0.90419100  0.29194200  0.55277000  1
  F  F13  1  0.57041500  0.13154300  0.21554000  1
  F  F14  1  0.07418000  0.41211600  0.78261200  1
  F  F15  1  0.39778400  0.22120300  0.44905500  1
  F  F16  1  0.09856600  0.04481700  0.11440300  1
  F  F17  1  0.72307600  0.12470200  0.69480800  1
  F  F18  1  0.28723600  0.21966800  0.97730000  1
loop_
_geom_bond_atom_site_label_1
_geom_bond_atom_site_label_2
_geom_bond_distance
_geom_bond_site_symmetry_2
O0 V0 1.656743 1_555
O0 V3 2.021542 1_554
O1 V1 1.608791 1_555
O2 V3 1.645373 1_555
O2 V0 2.132101 1_456
O3 V2 1.635080 1_555
O3 V5 2.183812 1_555
O4 V4 1.608826 1_555
F0 V5 1.835277 1_565
F1 V2 1.941607 1_555
F1 V5 1.973891 1_565
F2 V0 1.768252 1_556
F3 V1 1.773798 1_555
F4 V2 1.770078 1_655
F5 V1 1.774275 1_555
F6 V2 1.764749 1_555
F7 V3 1.769105 1_554
F8 V2 1.931879 1_655
F8 V5 1.993770 1_555
F9 V0 1.796065 1_545
F10 V1 1.961197 1_555
F10 V4 1.961860 1_555
F11 V3 1.775820 1_555
F12 V4 1.775449 1_655
F13 V5 1.766999 1_555
F14 V4 1.773714 1_555
F15 V5 1.767193 1_555
F16 V0 1.773829 1_445
F17 V1 1.966270 1_545
F17 V4 1.967937 1_655
F18 V3 1.827889 1_555
F18 V0 2.273931 1_446
