# generated using pymatgen
data_LiMnCuO4
_symmetry_space_group_name_H-M   'P 1'
_cell_length_a   5.89279514
_cell_length_b   5.89279514
_cell_length_c   5.89279514
_cell_angle_alpha   121.36649412
_cell_angle_beta   120.46313375
_cell_angle_gamma   88.42449697
_symmetry_Int_Tables_number   1
_chemical_formula_structural   LiMnCuO4
_chemical_formula_sum   'Li2 Mn2 Cu2 O8'
_cell_volume   142.62277970
_cell_formula_units_Z   2
loop_
 _symmetry_equiv_pos_site_id
 _symmetry_equiv_pos_as_xyz
  1  'x, y, z'
loop_
 _atom_site_type_symbol
 _atom_site_label
 _atom_site_symmetry_multiplicity
 _atom_site_fract_x
 _atom_site_fract_y
 _atom_site_fract_z
 _atom_site_occupancy
  Li  Li0  1  0.12930800  0.37930800  0.75000000  1
  Li  Li1  1  0.87069200  0.62069200  0.25000000  1
  Mn  Mn0  1  0.50000000  0.00000000  0.00000000  1
  Mn  Mn1  1  0.50000000  0.50000000  0.50000000  1
  Cu  Cu0  1  0.00000000  0.00000000  0.00000000  1
  Cu  Cu1  1  0.50000000  0.00000000  0.50000000  1
  O  O0  1  0.27210700  0.79503800  0.02293100  1
  O  O1  1  0.28151400  0.25084200  0.03067200  1
  O  O2  1  0.72017000  0.25084200  0.46932800  1
  O  O3  1  0.27210700  0.24917600  0.47706900  1
  O  O4  1  0.72789300  0.75082400  0.52293100  1
  O  O5  1  0.71848600  0.74915800  0.96932800  1
  O  O6  1  0.27983000  0.74915800  0.53067200  1
  O  O7  1  0.72789300  0.20496200  0.97706900  1
loop_
_geom_bond_atom_site_label_1
_geom_bond_atom_site_label_2
_geom_bond_distance
_geom_bond_site_symmetry_2
Li0 O2 1.968502 1_455
Li0 O1 1.968502 1_556
Li0 O3 1.983869 1_555
Li0 O0 1.983869 1_556
Li1 O6 1.968502 1_655
Li1 O5 1.968502 1_554
Li1 O4 1.983869 1_555
Li1 O7 1.983869 1_554
Mn0 O0 1.929659 1_545
Mn0 O7 1.929659 1_554
Mn0 O5 1.930918 1_544
Mn0 O6 1.930918 1_544
Mn0 O1 1.930918 1_555
Mn0 O2 1.930918 1_555
Mn1 O4 1.929659 1_555
Mn1 O3 1.929659 1_555
Mn1 O5 1.930918 1_555
Mn1 O1 1.930918 1_555
Mn1 O2 1.930918 1_555
Mn1 O6 1.930918 1_555
Cu0 O4 1.972781 1_444
Cu0 O0 1.972781 1_545
Cu0 O7 1.972781 1_454
Cu0 O3 1.972781 1_555
Cu0 O5 2.126565 1_444
Cu0 O1 2.126565 1_555
Cu1 O7 1.972781 1_555
Cu1 O4 1.972781 1_545
Cu1 O3 1.972781 1_555
Cu1 O0 1.972781 1_545
Cu1 O2 2.126565 1_555
Cu1 O6 2.126565 1_545
