# generated using pymatgen
data_Ag7(PbO3)3
_symmetry_space_group_name_H-M   'P 1'
_cell_length_a   8.86112079
_cell_length_b   8.86112079
_cell_length_c   8.91005287
_cell_angle_alpha   72.22190316
_cell_angle_beta   72.22190316
_cell_angle_gamma   72.09392063
_symmetry_Int_Tables_number   1
_chemical_formula_structural   Ag7(PbO3)3
_chemical_formula_sum   'Ag14 Pb6 O18'
_cell_volume   616.43062184
_cell_formula_units_Z   2
loop_
 _symmetry_equiv_pos_site_id
 _symmetry_equiv_pos_as_xyz
  1  'x, y, z'
loop_
 _atom_site_type_symbol
 _atom_site_label
 _atom_site_symmetry_multiplicity
 _atom_site_fract_x
 _atom_site_fract_y
 _atom_site_fract_z
 _atom_site_occupancy
  Ag  Ag0  1  0.50000000  0.00000000  0.00000000  1
  Ag  Ag1  1  0.66469900  0.16886200  0.66606300  1
  Ag  Ag2  1  0.16668100  0.16668100  0.16665700  1
  Ag  Ag3  1  0.33530100  0.83113800  0.33393700  1
  Ag  Ag4  1  0.25438300  0.25438300  0.75428100  1
  Ag  Ag5  1  0.07835000  0.07835000  0.57829600  1
  Ag  Ag6  1  0.92165000  0.92165000  0.42170400  1
  Ag  Ag7  1  0.74561700  0.74561700  0.24571900  1
  Ag  Ag8  1  0.58471900  0.58471900  0.09358400  1
  Ag  Ag9  1  0.41528100  0.41528100  0.90641600  1
  Ag  Ag10  1  0.83331900  0.83331900  0.83334300  1
  Ag  Ag11  1  0.00000000  0.50000000  0.00000000  1
  Ag  Ag12  1  0.16886200  0.66469900  0.66606300  1
  Ag  Ag13  1  0.83113800  0.33530100  0.33393700  1
  Pb  Pb0  1  0.49914000  0.17214300  0.33473800  1
  Pb  Pb1  1  0.83243600  0.16756400  0.00000000  1
  Pb  Pb2  1  0.50086000  0.82785700  0.66526200  1
  Pb  Pb3  1  0.16756400  0.83243600  0.00000000  1
  Pb  Pb4  1  0.82785700  0.50086000  0.66526200  1
  Pb  Pb5  1  0.17214300  0.49914000  0.33473800  1
  O  O0  1  0.56113300  0.18517400  0.06324000  1
  O  O1  1  0.77184200  0.14841200  0.27155500  1
  O  O2  1  0.43886700  0.81482600  0.93676000  1
  O  O3  1  0.48118400  0.10253400  0.60585900  1
  O  O4  1  0.10491700  0.10491700  0.98137200  1
  O  O5  1  0.22712600  0.22712600  0.35318000  1
  O  O6  1  0.85158800  0.22815800  0.72844500  1
  O  O7  1  0.51881600  0.89746600  0.39414100  1
  O  O8  1  0.89508300  0.89508300  0.01862800  1
  O  O9  1  0.43778600  0.43778600  0.31311400  1
  O  O10  1  0.77287400  0.77287400  0.64682000  1
  O  O11  1  0.81482600  0.43886700  0.93676000  1
  O  O12  1  0.14841200  0.77184200  0.27155500  1
  O  O13  1  0.56221400  0.56221400  0.68688600  1
  O  O14  1  0.18517400  0.56113300  0.06324000  1
  O  O15  1  0.89746600  0.51881600  0.39414100  1
  O  O16  1  0.22815800  0.85158800  0.72844500  1
  O  O17  1  0.10253400  0.48118400  0.60585900  1
loop_
_geom_bond_atom_site_label_1
_geom_bond_atom_site_label_2
_geom_bond_distance
_geom_bond_site_symmetry_2
Ag0 O0 2.144972 1_555
Ag0 O2 2.144972 1_544
Ag1 O3 2.142536 1_555
Ag1 O6 2.145462 1_555
Ag2 O5 2.144605 1_555
Ag2 O4 2.147612 1_554
Ag3 O7 2.142536 1_555
Ag3 O12 2.145462 1_555
Ag4 O17 2.323602 1_555
Ag4 O3 2.323602 1_555
Ag4 O4 2.325521 1_555
Ag5 O5 2.310484 1_555
Ag5 O16 2.322117 1_545
Ag5 O6 2.322117 1_455
Ag6 O10 2.310484 1_555
Ag6 O1 2.322117 1_565
Ag6 O12 2.322117 1_655
Ag7 O7 2.323602 1_555
Ag7 O15 2.323602 1_555
Ag7 O8 2.325521 1_555
Ag8 O9 2.269009 1_555
Ag8 O2 2.350074 1_554
Ag8 O11 2.350074 1_554
Ag9 O13 2.269009 1_555
Ag9 O14 2.350074 1_556
Ag9 O0 2.350074 1_556
Ag10 O10 2.144605 1_555
Ag10 O8 2.147612 1_556
Ag11 O14 2.144972 1_555
Ag11 O11 2.144972 1_454
Ag12 O17 2.142536 1_555
Ag12 O16 2.145462 1_555
Ag13 O15 2.142536 1_555
Ag13 O1 2.145462 1_555
O0 Pb1 2.262102 1_555
O0 Pb0 2.285585 1_555
O1 Pb0 2.264831 1_555
O1 Pb1 2.276698 1_555
O2 Pb3 2.262102 1_556
O2 Pb2 2.285585 1_555
O3 Pb0 2.270928 1_555
O3 Pb2 2.289837 1_545
O4 Pb1 2.269979 1_456
O4 Pb3 2.269979 1_546
O5 Pb0 2.271356 1_555
O5 Pb5 2.271356 1_555
O6 Pb4 2.264831 1_555
O6 Pb1 2.276698 1_556
O7 Pb2 2.270928 1_555
O7 Pb0 2.289837 1_565
O8 Pb1 2.269979 1_565
O8 Pb3 2.269979 1_655
O9 Pb0 2.207624 1_555
O9 Pb5 2.207624 1_555
O10 Pb2 2.271356 1_555
O10 Pb4 2.271356 1_555
O11 Pb1 2.262102 1_556
O11 Pb4 2.285585 1_555
O12 Pb5 2.264831 1_555
O12 Pb3 2.276698 1_555
O13 Pb4 2.207624 1_555
O13 Pb2 2.207624 1_555
O14 Pb3 2.262102 1_555
O14 Pb5 2.285585 1_555
O15 Pb4 2.270928 1_555
O15 Pb5 2.289837 1_655
O16 Pb2 2.264831 1_555
O16 Pb3 2.276698 1_556
O17 Pb5 2.270928 1_555
O17 Pb4 2.289837 1_455
