# generated using pymatgen
data_Li2V2F7
_symmetry_space_group_name_H-M   'P 1'
_cell_length_a   5.46706200
_cell_length_b   6.90767227
_cell_length_c   8.57254354
_cell_angle_alpha   70.61791989
_cell_angle_beta   75.83052066
_cell_angle_gamma   85.21299416
_symmetry_Int_Tables_number   1
_chemical_formula_structural   Li2V2F7
_chemical_formula_sum   'Li4 V4 F14'
_cell_volume   296.09971521
_cell_formula_units_Z   2
loop_
 _symmetry_equiv_pos_site_id
 _symmetry_equiv_pos_as_xyz
  1  'x, y, z'
loop_
 _atom_site_type_symbol
 _atom_site_label
 _atom_site_symmetry_multiplicity
 _atom_site_fract_x
 _atom_site_fract_y
 _atom_site_fract_z
 _atom_site_occupancy
  Li  Li0  1  0.33338400  0.76348900  0.89610600  1
  Li  Li1  1  0.86676900  0.97937400  0.74565200  1
  Li  Li2  1  0.13323100  0.02062600  0.25434800  1
  Li  Li3  1  0.66661600  0.23651100  0.10389400  1
  V  V0  1  0.29383200  0.27443900  0.82107700  1
  V  V1  1  0.81958300  0.51623100  0.67222400  1
  V  V2  1  0.18041700  0.48376900  0.32777600  1
  V  V3  1  0.70616800  0.72556100  0.17892300  1
  F  F0  1  0.63397600  0.82063700  0.94178700  1
  F  F1  1  0.90939100  0.38628800  0.89114500  1
  F  F2  1  0.45999600  0.56972300  0.77388400  1
  F  F3  1  0.92966200  0.78434200  0.62677400  1
  F  F4  1  0.68077000  0.24322600  0.70375800  1
  F  F5  1  0.16243700  0.00725800  0.81364600  1
  F  F6  1  0.18366600  0.42305500  0.57656800  1
  F  F7  1  0.81633400  0.57694500  0.42343200  1
  F  F8  1  0.83756300  0.99274200  0.18635400  1
  F  F9  1  0.31923000  0.75677400  0.29624200  1
  F  F10  1  0.07033800  0.21565800  0.37322600  1
  F  F11  1  0.54000400  0.43027700  0.22611600  1
  F  F12  1  0.09060900  0.61371200  0.10885500  1
  F  F13  1  0.36602400  0.17936300  0.05821300  1
loop_
_geom_bond_atom_site_label_1
_geom_bond_atom_site_label_2
_geom_bond_distance
_geom_bond_site_symmetry_2
F0 Li0 1.880359 1_555
F0 Li1 1.900180 1_555
F0 V3 2.045241 1_556
F1 V1 1.956599 1_555
F1 Li3 1.987452 1_556
F1 V0 2.189535 1_655
F2 Li0 1.946673 1_555
F2 V1 2.003608 1_555
F2 V0 2.175090 1_555
F3 V1 1.880493 1_555
F3 Li1 1.906345 1_555
F4 Li1 1.979871 1_545
F4 V1 2.001354 1_555
F4 V0 2.135216 1_555
F5 Li0 1.865288 1_545
F5 Li1 1.891422 1_445
F5 V0 2.061074 1_555
F6 V2 2.036804 1_555
F6 V1 2.094282 1_455
F6 V0 2.212864 1_555
F7 V1 2.036804 1_555
F7 V2 2.094282 1_655
F7 V3 2.212864 1_555
F8 Li3 1.865288 1_565
F8 Li2 1.891422 1_665
F8 V3 2.061074 1_555
F9 Li2 1.979871 1_565
F9 V2 2.001354 1_555
F9 V3 2.135216 1_555
F10 V2 1.880493 1_555
F10 Li2 1.906345 1_555
F11 Li3 1.946673 1_555
F11 V2 2.003608 1_555
F11 V3 2.175090 1_555
F12 V2 1.956599 1_555
F12 Li0 1.987452 1_554
F12 V3 2.189535 1_455
F13 Li3 1.880359 1_555
F13 Li2 1.900180 1_555
F13 V0 2.045241 1_554
