# generated using pymatgen
data_Li5Ti6FeO16
_symmetry_space_group_name_H-M   'P 1'
_cell_length_a   5.97180000
_cell_length_b   5.95629400
_cell_length_c   8.45482215
_cell_angle_alpha   89.67128089
_cell_angle_beta   90.00000000
_cell_angle_gamma   90.00000000
_symmetry_Int_Tables_number   1
_chemical_formula_structural   Li5Ti6FeO16
_chemical_formula_sum   'Li5 Ti6 Fe1 O16'
_cell_volume   300.73135386
_cell_formula_units_Z   1
loop_
 _symmetry_equiv_pos_site_id
 _symmetry_equiv_pos_as_xyz
  1  'x, y, z'
loop_
 _atom_site_type_symbol
 _atom_site_label
 _atom_site_symmetry_multiplicity
 _atom_site_fract_x
 _atom_site_fract_y
 _atom_site_fract_z
 _atom_site_occupancy
  Li  Li0  1  0.50000000  0.50256300  0.99869000  1
  Li  Li1  1  0.00000000  0.75997100  0.11772300  1
  Li  Li2  1  0.00000000  0.99524900  0.50159100  1
  Li  Li3  1  0.50000000  0.26289000  0.62230600  1
  Li  Li4  1  0.00000000  0.23415300  0.87901700  1
  Ti  Ti0  1  0.50000000  0.00638800  0.99181000  1
  Ti  Ti1  1  0.75873400  0.24850500  0.24646100  1
  Ti  Ti2  1  0.24126600  0.24850500  0.24646100  1
  Ti  Ti3  1  0.00000000  0.47864000  0.50528100  1
  Ti  Ti4  1  0.24861600  0.74852500  0.75837300  1
  Ti  Ti5  1  0.75138400  0.74852500  0.75837300  1
  Fe  Fe0  1  0.50000000  0.73718700  0.38417600  1
  O  O0  1  0.72618500  0.23582100  0.02320000  1
  O  O1  1  0.27381500  0.23582100  0.02320000  1
  O  O2  1  0.50000000  0.01139700  0.24772700  1
  O  O3  1  0.50000000  0.47591600  0.25184000  1
  O  O4  1  0.00000000  0.47691500  0.25809800  1
  O  O5  1  0.00000000  0.03849800  0.25228600  1
  O  O6  1  0.77054700  0.26868000  0.48080900  1
  O  O7  1  0.22945300  0.26868000  0.48080900  1
  O  O8  1  0.23733500  0.73786400  0.50971200  1
  O  O9  1  0.76266500  0.73786400  0.50971200  1
  O  O10  1  0.00000000  0.95759800  0.74279600  1
  O  O11  1  0.00000000  0.51870700  0.73709900  1
  O  O12  1  0.50000000  0.98455700  0.76232400  1
  O  O13  1  0.50000000  0.54183000  0.74970800  1
  O  O14  1  0.27059600  0.76937400  0.98020800  1
  O  O15  1  0.72940400  0.76937400  0.98020800  1
loop_
_geom_bond_atom_site_label_1
_geom_bond_atom_site_label_2
_geom_bond_distance
_geom_bond_site_symmetry_2
Li0 O1 2.094733 1_556
Li0 O0 2.094733 1_556
Li0 O15 2.103311 1_555
Li0 O14 2.103311 1_555
Li0 O13 2.116717 1_555
Li0 O3 2.145307 1_556
Li1 O14 1.991346 1_554
Li1 O15 1.991346 1_454
Li1 O5 2.016997 1_565
Li1 O4 2.056239 1_555
Li2 O10 2.050360 1_555
Li2 O8 2.088677 1_555
Li2 O9 2.088677 1_455
Li2 O5 2.122045 1_565
Li2 O7 2.134859 1_565
Li2 O6 2.134859 1_465
Li3 O13 1.985251 1_555
Li3 O6 2.010537 1_555
Li3 O7 2.010537 1_555
Li3 O12 2.031585 1_545
Li4 O10 2.015353 1_545
Li4 O1 2.039626 1_556
Li4 O0 2.039626 1_456
Li4 O11 2.071001 1_555
Fe0 O9 1.893952 1_555
Fe0 O8 1.893952 1_555
Fe0 O3 1.921886 1_555
Fe0 O2 1.994212 1_565
O0 Ti1 1.899548 1_555
O0 Ti0 1.940770 1_554
O1 Ti2 1.899548 1_555
O1 Ti0 1.940770 1_554
O2 Ti1 2.093286 1_555
O2 Ti2 2.093286 1_555
O2 Ti0 2.164110 1_554
O3 Ti1 2.055450 1_555
O3 Ti2 2.055450 1_555
O4 Ti2 1.984439 1_555
O4 Ti1 1.984439 1_455
O4 Ti3 2.089973 1_555
O5 Ti2 1.908471 1_555
O5 Ti1 1.908471 1_455
O6 Ti3 1.867436 1_655
O6 Ti1 1.986952 1_555
O7 Ti3 1.867436 1_555
O7 Ti2 1.986952 1_555
O8 Ti3 2.096386 1_555
O8 Ti4 2.104786 1_555
O9 Ti3 2.096386 1_655
O9 Ti5 2.104786 1_555
O10 Ti4 1.941784 1_555
O10 Ti5 1.941784 1_455
O11 Ti3 1.975814 1_555
O11 Ti4 2.028116 1_555
O11 Ti5 2.028116 1_455
O12 Ti0 1.945360 1_565
O12 Ti5 2.057131 1_555
O12 Ti4 2.057131 1_555
O13 Ti5 1.943128 1_555
O13 Ti4 1.943128 1_555
O14 Ti4 1.884969 1_555
O14 Ti0 1.970014 1_565
O15 Ti5 1.884969 1_555
O15 Ti0 1.970014 1_565
