# generated using pymatgen
data_B(HO)3
_symmetry_space_group_name_H-M   'P 1'
_cell_length_a   6.89331434
_cell_length_b   6.89331517
_cell_length_c   8.96752158
_cell_angle_alpha   90.00000000
_cell_angle_beta   90.00000000
_cell_angle_gamma   119.99999136
_symmetry_Int_Tables_number   1
_chemical_formula_structural   B(HO)3
_chemical_formula_sum   'B6 H18 O18'
_cell_volume   369.02799877
_cell_formula_units_Z   6
loop_
 _symmetry_equiv_pos_site_id
 _symmetry_equiv_pos_as_xyz
  1  'x, y, z'
loop_
 _atom_site_type_symbol
 _atom_site_label
 _atom_site_symmetry_multiplicity
 _atom_site_fract_x
 _atom_site_fract_y
 _atom_site_fract_z
 _atom_site_occupancy
  B  B0  1  0.18783126  0.64440665  0.29462623  1
  B  B1  1  0.45657539  0.81216874  0.62796023  1
  B  B2  1  0.35559335  0.54342461  0.96129323  1
  B  B3  1  0.51914598  0.31059094  0.30923626  1
  B  B4  1  0.79144496  0.48085402  0.64256926  1
  B  B5  1  0.68940906  0.20855504  0.97590326  1
  H  H0  1  0.05935911  0.78965125  0.64072553  1
  H  H1  1  0.14628037  0.91206313  0.30173073  1
  H  H2  1  0.31494307  0.81245906  0.96927096  1
  H  H3  1  0.18754094  0.50248501  0.63593796  1
  H  H4  1  0.08793687  0.23421624  0.96839773  1
  H  H5  1  0.21034875  0.26970685  0.30739253  1
  H  H6  1  0.49751499  0.68505693  0.30260396  1
  H  H7  1  0.73029215  0.94064089  0.97405853  1
  H  H8  1  0.48160013  0.43894120  0.63838262  1
  H  H9  1  0.76578376  0.85371963  0.63506373  1
  H  H10  1  0.38056249  0.16834415  0.96548332  1
  H  H11  1  0.66480698  0.58520623  0.96311296  1
  H  H12  1  0.41479377  0.07960175  0.62977896  1
  H  H13  1  0.78778166  0.61943751  0.29881732  1
  H  H14  1  0.56105880  0.04265893  0.30504962  1
  H  H15  1  0.95734107  0.51839987  0.97171662  1
  H  H16  1  0.83165585  0.21221834  0.63215032  1
  H  H17  1  0.92039825  0.33519302  0.29644596  1
  O  O0  1  0.06122539  0.74594397  0.29350431  1
  O  O1  1  0.32962156  0.91347494  0.62599883  1
  O  O2  1  0.08652506  0.41614562  0.29266483  1
  O  O3  1  0.22920915  0.64564968  0.96682553  1
  O  O4  1  0.41644053  0.77079085  0.30015953  1
  O  O5  1  0.35435032  0.58355947  0.63349253  1
  O  O6  1  0.25405603  0.31528142  0.96017131  1
  O  O7  1  0.29110545  0.18414084  0.31396606  1
  O  O8  1  0.68471858  0.93877461  0.62683831  1
  O  O9  1  0.58385438  0.67037844  0.95933183  1
  O  O10  1  0.62159661  0.53909285  0.30539863  1
  O  O11  1  0.56289776  0.35362011  0.63942205  1
  O  O12  1  0.46090715  0.08250377  0.97206563  1
  O  O13  1  0.89303539  0.70889455  0.64730006  1
  O  O14  1  0.64637989  0.20927664  0.30608905  1
  O  O15  1  0.79072336  0.43710224  0.97275605  1
  O  O16  1  0.91749623  0.37840339  0.63873263  1
  O  O17  1  0.81585916  0.10696461  0.98063306  1
loop_
_geom_bond_atom_site_label_1
_geom_bond_atom_site_label_2
_geom_bond_distance
_geom_bond_site_symmetry_2
B0 O0 1.364741 1_555
B0 O2 1.365647 1_555
B0 O4 1.368186 1_555
B1 O8 1.364741 1_555
B1 O1 1.365641 1_555
B1 O5 1.368186 1_555
B2 O6 1.364741 1_555
B2 O9 1.365647 1_555
B2 O3 1.368186 1_555
B3 O7 1.364706 1_555
B3 O10 1.366964 1_555
B3 O14 1.367597 1_555
B4 O13 1.364707 1_555
B4 O16 1.366963 1_555
B4 O11 1.367591 1_555
B5 O17 1.364706 1_555
B5 O12 1.366964 1_555
B5 O15 1.367591 1_555
H0 O13 0.994804 1_455
H0 O1 1.620680 1_555
H1 O0 0.994531 1_555
H1 O7 1.629074 1_565
H2 O3 0.996187 1_555
H2 O12 1.614067 1_565
H3 O5 0.996187 1_555
H3 O16 1.614067 1_455
H4 O6 0.994531 1_555
H4 O17 1.629074 1_455
H5 O7 0.994797 1_555
H5 O2 1.620681 1_555
H6 O4 0.996181 1_555
H6 O10 1.614073 1_555
H7 O17 0.994804 1_565
H7 O9 1.620680 1_555
H8 O11 0.994818 1_555
H8 O5 1.624690 1_555
H9 O8 0.994536 1_555
H9 O13 1.629068 1_555
H10 O12 0.994024 1_555
H10 O6 1.634613 1_555
H11 O9 0.992416 1_555
H11 O15 1.639911 1_555
H12 O1 0.992427 1_545
H12 O11 1.639900 1_555
H13 O10 0.994024 1_555
H13 O0 1.634613 1_655
H14 O14 0.994813 1_555
H14 O4 1.624690 1_545
H15 O15 0.994812 1_555
H15 O3 1.624690 1_655
H16 O16 0.994024 1_555
H16 O8 1.634613 1_545
H17 O2 0.992428 1_655
H17 O14 1.639899 1_555
