# generated using pymatgen
data_Li2Fe(Si2O5)2
_symmetry_space_group_name_H-M   'P 1'
_cell_length_a   7.75540900
_cell_length_b   11.15924700
_cell_length_c   11.20958933
_cell_angle_alpha   68.47034399
_cell_angle_beta   90.00000000
_cell_angle_gamma   90.00000000
_symmetry_Int_Tables_number   1
_chemical_formula_structural   Li2Fe(Si2O5)2
_chemical_formula_sum   'Li8 Fe4 Si16 O40'
_cell_volume   902.44052065
_cell_formula_units_Z   4
loop_
 _symmetry_equiv_pos_site_id
 _symmetry_equiv_pos_as_xyz
  1  'x, y, z'
loop_
 _atom_site_type_symbol
 _atom_site_label
 _atom_site_symmetry_multiplicity
 _atom_site_fract_x
 _atom_site_fract_y
 _atom_site_fract_z
 _atom_site_occupancy
  Li  Li0  1  0.75000000  0.90991300  0.38846900  1
  Li  Li1  1  0.75000000  0.97275600  0.10482400  1
  Li  Li2  1  0.75000000  0.62779000  0.87740100  1
  Li  Li3  1  0.75000000  0.62569300  0.45747800  1
  Li  Li4  1  0.25000000  0.37430700  0.54252200  1
  Li  Li5  1  0.25000000  0.37221000  0.12259900  1
  Li  Li6  1  0.25000000  0.02724400  0.89517600  1
  Li  Li7  1  0.25000000  0.09008700  0.61153100  1
  Fe  Fe0  1  0.98845700  0.78853100  0.27775400  1
  Fe  Fe1  1  0.51154300  0.78853100  0.27775400  1
  Fe  Fe2  1  0.48845700  0.21146900  0.72224600  1
  Fe  Fe3  1  0.01154300  0.21146900  0.72224600  1
  Si  Si0  1  0.95004000  0.91081800  0.74007800  1
  Si  Si1  1  0.54996000  0.91081800  0.74007800  1
  Si  Si2  1  0.04681500  0.74080300  0.58837800  1
  Si  Si3  1  0.45318500  0.74080300  0.58837800  1
  Si  Si4  1  0.44859500  0.75753300  0.00787700  1
  Si  Si5  1  0.05140500  0.75753300  0.00787700  1
  Si  Si6  1  0.44697100  0.47019200  0.77616100  1
  Si  Si7  1  0.05302900  0.47019200  0.77616100  1
  Si  Si8  1  0.94697100  0.52980800  0.22383900  1
  Si  Si9  1  0.55302900  0.52980800  0.22383900  1
  Si  Si10  1  0.94859500  0.24246700  0.99212300  1
  Si  Si11  1  0.55140500  0.24246700  0.99212300  1
  Si  Si12  1  0.95318500  0.25919700  0.41162200  1
  Si  Si13  1  0.54681500  0.25919700  0.41162200  1
  Si  Si14  1  0.45004000  0.08918200  0.25992200  1
  Si  Si15  1  0.04996000  0.08918200  0.25992200  1
  O  O0  1  0.75000000  0.95470500  0.69751800  1
  O  O1  1  0.94007000  0.77929800  0.87431100  1
  O  O2  1  0.55993000  0.77929800  0.87431100  1
  O  O3  1  0.25000000  0.80745500  0.96142400  1
  O  O4  1  0.46319900  0.86910000  0.62733100  1
  O  O5  1  0.03680100  0.86910000  0.62733100  1
  O  O6  1  0.93649200  0.97619600  0.24295200  1
  O  O7  1  0.56350800  0.97619600  0.24295200  1
  O  O8  1  0.25000000  0.71393300  0.56392700  1
  O  O9  1  0.93067600  0.75869400  0.46417000  1
  O  O10  1  0.56932400  0.75869400  0.46417000  1
  O  O11  1  0.96890900  0.83505400  0.08933600  1
  O  O12  1  0.53109100  0.83505400  0.08933600  1
  O  O13  1  0.52668000  0.61839100  0.71517200  1
  O  O14  1  0.97332000  0.61839100  0.71517200  1
  O  O15  1  0.25000000  0.47806500  0.82765400  1
  O  O16  1  0.94209200  0.40034400  0.91100500  1
  O  O17  1  0.55790800  0.40034400  0.91100500  1
  O  O18  1  0.95906600  0.60046500  0.32545600  1
  O  O19  1  0.54093400  0.60046500  0.32545600  1
  O  O20  1  0.45906600  0.39953500  0.67454400  1
  O  O21  1  0.04093400  0.39953500  0.67454400  1
  O  O22  1  0.44209200  0.59965600  0.08899500  1
  O  O23  1  0.05790800  0.59965600  0.08899500  1
  O  O24  1  0.75000000  0.52193500  0.17234600  1
  O  O25  1  0.47332000  0.38160900  0.28482800  1
  O  O26  1  0.02668000  0.38160900  0.28482800  1
  O  O27  1  0.03109100  0.16494600  0.91066400  1
  O  O28  1  0.46890900  0.16494600  0.91066400  1
  O  O29  1  0.43067600  0.24130600  0.53583000  1
  O  O30  1  0.06932400  0.24130600  0.53583000  1
  O  O31  1  0.75000000  0.28606700  0.43607300  1
  O  O32  1  0.43649200  0.02380400  0.75704800  1
  O  O33  1  0.06350800  0.02380400  0.75704800  1
  O  O34  1  0.96319900  0.13090000  0.37266900  1
  O  O35  1  0.53680100  0.13090000  0.37266900  1
  O  O36  1  0.75000000  0.19254500  0.03857600  1
  O  O37  1  0.44007000  0.22070200  0.12568900  1
  O  O38  1  0.05993000  0.22070200  0.12568900  1
  O  O39  1  0.25000000  0.04529500  0.30248200  1
loop_
_geom_bond_atom_site_label_1
_geom_bond_atom_site_label_2
_geom_bond_distance
_geom_bond_site_symmetry_2
Li0 O7 2.100992 1_555
Li0 O6 2.100992 1_555
Li0 O9 2.116625 1_555
Li0 O10 2.116625 1_555
Li1 O6 2.129403 1_555
Li1 O7 2.129403 1_555
Li1 O36 2.286979 1_565
Li1 O11 2.338703 1_555
Li1 O12 2.338703 1_555
Li2 O2 2.233746 1_555
Li2 O1 2.233746 1_555
Li2 O13 2.541185 1_555
Li2 O14 2.541185 1_555
Li3 O9 2.062419 1_555
Li3 O10 2.062419 1_555
Li3 O19 2.281251 1_555
Li3 O18 2.281251 1_555
Li4 O29 2.062419 1_555
Li4 O30 2.062419 1_555
Li4 O20 2.281251 1_555
Li4 O21 2.281251 1_555
Li5 O37 2.233746 1_555
Li5 O38 2.233746 1_555
Li5 O26 2.541185 1_555
Li5 O25 2.541185 1_555
Li6 O33 2.129403 1_555
Li6 O32 2.129403 1_555
Li6 O3 2.286979 1_545
Li6 O28 2.338703 1_555
Li6 O27 2.338703 1_555
Li7 O32 2.100992 1_555
Li7 O33 2.100992 1_555
Li7 O29 2.116625 1_555
Li7 O30 2.116625 1_555
Fe0 O18 1.979560 1_555
Fe0 O11 1.987115 1_555
Fe0 O6 2.025005 1_555
Fe0 O9 2.041476 1_555
Fe1 O19 1.979560 1_555
Fe1 O12 1.987115 1_555
Fe1 O7 2.025005 1_555
Fe1 O10 2.041476 1_555
Fe2 O20 1.979560 1_555
Fe2 O28 1.987115 1_555
Fe2 O32 2.025005 1_555
Fe2 O29 2.041476 1_555
Fe3 O21 1.979560 1_555
Fe3 O27 1.987115 1_555
Fe3 O33 2.025005 1_555
Fe3 O30 2.041476 1_555
O0 Si1 1.644015 1_555
O0 Si0 1.644015 1_555
O1 Si5 1.667123 1_656
O1 Si0 1.674290 1_555
O2 Si4 1.667123 1_556
O2 Si1 1.674290 1_555
O3 Si4 1.655523 1_556
O3 Si5 1.655523 1_556
O4 Si1 1.642752 1_555
O4 Si3 1.644776 1_555
O5 Si0 1.642752 1_455
O5 Si2 1.644776 1_555
O6 Si15 1.605093 1_665
O7 Si14 1.605093 1_565
O8 Si3 1.645735 1_555
O8 Si2 1.645735 1_555
O9 Si2 1.607999 1_655
O10 Si3 1.607999 1_555
O11 Si5 1.603513 1_655
O12 Si4 1.603513 1_555
O13 Si6 1.659731 1_555
O13 Si3 1.669131 1_555
O14 Si7 1.659731 1_655
O14 Si2 1.669131 1_655
O15 Si7 1.646709 1_555
O15 Si6 1.646709 1_555
O16 Si10 1.660560 1_555
O16 Si7 1.663670 1_655
O17 Si11 1.660560 1_555
O17 Si6 1.663670 1_555
O18 Si8 1.608483 1_555
O19 Si9 1.608483 1_555
O20 Si6 1.608483 1_555
O21 Si7 1.608483 1_555
O22 Si4 1.660560 1_555
O22 Si9 1.663670 1_555
O23 Si5 1.660560 1_555
O23 Si8 1.663670 1_455
O24 Si9 1.646709 1_555
O24 Si8 1.646709 1_555
O25 Si9 1.659731 1_555
O25 Si13 1.669131 1_555
O26 Si8 1.659731 1_455
O26 Si12 1.669131 1_455
O27 Si10 1.603513 1_455
O28 Si11 1.603513 1_555
O29 Si13 1.607999 1_555
O30 Si12 1.607999 1_455
O31 Si12 1.645735 1_555
O31 Si13 1.645735 1_555
O32 Si1 1.605093 1_545
O33 Si0 1.605093 1_445
O34 Si15 1.642752 1_655
O34 Si12 1.644776 1_555
O35 Si14 1.642752 1_555
O35 Si13 1.644776 1_555
O36 Si10 1.655523 1_554
O36 Si11 1.655523 1_554
O37 Si11 1.667123 1_554
O37 Si14 1.674290 1_555
O38 Si10 1.667123 1_454
O38 Si15 1.674290 1_555
O39 Si15 1.644015 1_555
O39 Si14 1.644015 1_555
