# generated using pymatgen
data_Li2V3SnO8
_symmetry_space_group_name_H-M   'P 1'
_cell_length_a   6.01400047
_cell_length_b   6.01400047
_cell_length_c   9.83151122
_cell_angle_alpha   89.93694544
_cell_angle_beta   89.93694544
_cell_angle_gamma   120.55600651
_symmetry_Int_Tables_number   1
_chemical_formula_structural   Li2V3SnO8
_chemical_formula_sum   'Li4 V6 Sn2 O16'
_cell_volume   306.20774464
_cell_formula_units_Z   2
loop_
 _symmetry_equiv_pos_site_id
 _symmetry_equiv_pos_as_xyz
  1  'x, y, z'
loop_
 _atom_site_type_symbol
 _atom_site_label
 _atom_site_symmetry_multiplicity
 _atom_site_fract_x
 _atom_site_fract_y
 _atom_site_fract_z
 _atom_site_occupancy
  Li  Li0  1  0.33771700  0.67045700  0.89529700  1
  Li  Li1  1  0.99378200  0.99795200  0.99281700  1
  Li  Li2  1  0.99795200  0.99378200  0.49281700  1
  Li  Li3  1  0.67045700  0.33771700  0.39529700  1
  V  V0  1  0.65262600  0.82773800  0.21922500  1
  V  V1  1  0.16641100  0.82952500  0.21129600  1
  V  V2  1  0.82952500  0.16641100  0.71129600  1
  V  V3  1  0.34295000  0.17078700  0.71393400  1
  V  V4  1  0.17078700  0.34295000  0.21393400  1
  V  V5  1  0.82773800  0.65262600  0.71922500  1
  Sn  Sn0  1  0.32947900  0.66551000  0.49243200  1
  Sn  Sn1  1  0.66551000  0.32947900  0.99243200  1
  O  O0  1  0.67478300  0.83768200  0.60295200  1
  O  O1  1  0.49244000  0.52730300  0.34284100  1
  O  O2  1  0.35709400  0.67416500  0.10444400  1
  O  O3  1  0.98134700  0.99673800  0.30649400  1
  O  O4  1  0.99673800  0.98134700  0.80649400  1
  O  O5  1  0.15816800  0.31899100  0.60069900  1
  O  O6  1  0.48775500  0.96798500  0.33781100  1
  O  O7  1  0.03572600  0.51438000  0.33720400  1
  O  O8  1  0.83435900  0.15646700  0.09647400  1
  O  O9  1  0.15646700  0.83435900  0.59647400  1
  O  O10  1  0.96798500  0.48775500  0.83781100  1
  O  O11  1  0.51438000  0.03572600  0.83720400  1
  O  O12  1  0.67416500  0.35709400  0.60444400  1
  O  O13  1  0.83768200  0.67478300  0.10295200  1
  O  O14  1  0.52730300  0.49244000  0.84284100  1
  O  O15  1  0.31899100  0.15816800  0.10069900  1
loop_
_geom_bond_atom_site_label_1
_geom_bond_atom_site_label_2
_geom_bond_distance
_geom_bond_site_symmetry_2
Li0 O11 1.975725 1_565
Li0 O14 1.988258 1_555
Li0 O10 1.997740 1_455
Li0 O2 2.059162 1_556
Li1 O4 1.835225 1_555
Li1 O8 1.948313 1_566
Li1 O13 1.992256 1_556
Li1 O15 1.992307 1_666
Li2 O3 1.835225 1_555
Li2 O9 1.948313 1_655
Li2 O0 1.992256 1_555
Li2 O5 1.992307 1_665
Li3 O7 1.975725 1_655
Li3 O1 1.988258 1_555
Li3 O6 1.997740 1_545
Li3 O12 2.059162 1_555
O0 V2 2.011287 1_565
O0 Sn0 2.094385 1_555
O0 V5 2.105222 1_555
O1 V0 1.972937 1_555
O1 V4 2.098863 1_555
O1 Sn0 2.154550 1_555
O2 V0 1.903428 1_555
O2 V4 2.026153 1_555
O2 V1 2.092983 1_555
O3 V0 1.907899 1_555
O3 V4 2.010712 1_665
O3 V1 2.064881 1_655
O4 V5 1.907899 1_555
O4 V3 2.010712 1_665
O4 V2 2.064881 1_565
O5 V2 2.019840 1_455
O5 V3 2.067934 1_555
O5 Sn0 2.084957 1_555
O6 V0 1.975793 1_555
O6 V1 2.084866 1_555
O6 Sn0 2.180867 1_555
O7 V4 2.010845 1_555
O7 V1 2.054327 1_555
O7 Sn0 2.156972 1_555
O8 Sn1 2.057746 1_554
O8 V0 2.086696 1_545
O8 V4 2.094244 1_655
O9 Sn0 2.057746 1_555
O9 V5 2.086696 1_455
O9 V3 2.094244 1_565
O10 V5 1.975793 1_555
O10 V2 2.084866 1_555
O10 Sn1 2.180867 1_555
O11 V3 2.010845 1_555
O11 V2 2.054327 1_555
O11 Sn1 2.156972 1_555
O12 V5 1.903428 1_555
O12 V3 2.026153 1_555
O12 V2 2.092983 1_555
O13 V1 2.011287 1_655
O13 Sn1 2.094385 1_554
O13 V0 2.105222 1_555
O14 V5 1.972937 1_555
O14 V3 2.098863 1_555
O14 Sn1 2.154550 1_555
O15 V1 2.019840 1_545
O15 V4 2.067934 1_555
O15 Sn1 2.084957 1_554
