# generated using pymatgen
data_NaH3C4S4(OF)12
_symmetry_space_group_name_H-M   'P 1'
_cell_length_a   14.33139022
_cell_length_b   14.33139022
_cell_length_c   14.33139022
_cell_angle_alpha   109.47122063
_cell_angle_beta   109.47122063
_cell_angle_gamma   109.47122063
_symmetry_Int_Tables_number   1
_chemical_formula_structural   NaH3C4S4(OF)12
_chemical_formula_sum   'Na4 H12 C16 S16 O48 F48'
_cell_volume   2265.91217471
_cell_formula_units_Z   4
loop_
 _symmetry_equiv_pos_site_id
 _symmetry_equiv_pos_as_xyz
  1  'x, y, z'
loop_
 _atom_site_type_symbol
 _atom_site_label
 _atom_site_symmetry_multiplicity
 _atom_site_fract_x
 _atom_site_fract_y
 _atom_site_fract_z
 _atom_site_occupancy
  Na  Na0  1  0.50000000  0.00000000  0.72582700  1
  Na  Na1  1  0.00000000  0.72582700  0.50000000  1
  Na  Na2  1  0.72582700  0.50000000  0.00000000  1
  Na  Na3  1  0.77417300  0.77417300  0.77417300  1
  H  H0  1  0.35054200  0.28564000  0.89839700  1
  H  H1  1  0.93509800  0.14945800  0.04785500  1
  H  H2  1  0.21436000  0.56490200  0.61275700  1
  H  H3  1  0.14945800  0.04785500  0.93509800  1
  H  H4  1  0.56490200  0.61275700  0.21436000  1
  H  H5  1  0.28564000  0.89839700  0.35054200  1
  H  H6  1  0.61275700  0.21436000  0.56490200  1
  H  H7  1  0.89839700  0.35054200  0.28564000  1
  H  H8  1  0.04785500  0.93509800  0.14945800  1
  H  H9  1  0.88724300  0.45214500  0.60160300  1
  H  H10  1  0.60160300  0.88724300  0.45214500  1
  H  H11  1  0.45214500  0.60160300  0.88724300  1
  C  C0  1  0.49271500  0.22122800  0.05997100  1
  C  C1  1  0.72851400  0.00728500  0.06725700  1
  C  C2  1  0.27877200  0.77148600  0.83874300  1
  C  C3  1  0.00728500  0.06725700  0.72851400  1
  C  C4  1  0.77148600  0.83874300  0.27877200  1
  C  C5  1  0.22122800  0.05997100  0.49271500  1
  C  C6  1  0.83874300  0.27877200  0.77148600  1
  C  C7  1  0.05997100  0.49271500  0.22122800  1
  C  C8  1  0.06725700  0.72851400  0.00728500  1
  C  C9  1  0.66125700  0.43274300  0.44002900  1
  C  C10  1  0.44002900  0.66125700  0.43274300  1
  C  C11  1  0.43274300  0.44002900  0.66125700  1
  C  C12  1  0.24480500  0.50000000  0.00000000  1
  C  C13  1  0.25519500  0.25519500  0.25519500  1
  C  C14  1  0.00000000  0.24480500  0.50000000  1
  C  C15  1  0.50000000  0.00000000  0.24480500  1
  S  S0  1  0.47818500  0.23079100  0.92906000  1
  S  S1  1  0.75260700  0.02181500  0.95087500  1
  S  S2  1  0.26920900  0.74739300  0.69826900  1
  S  S3  1  0.02181500  0.95087500  0.75260700  1
  S  S4  1  0.74739300  0.69826900  0.26920900  1
  S  S5  1  0.23079100  0.92906000  0.47818500  1
  S  S6  1  0.69826900  0.26920900  0.74739300  1
  S  S7  1  0.92906000  0.47818500  0.23079100  1
  S  S8  1  0.95087500  0.75260700  0.02181500  1
  S  S9  1  0.80173100  0.54912500  0.57094000  1
  S  S10  1  0.57094000  0.80173100  0.54912500  1
  S  S11  1  0.54912500  0.57094000  0.80173100  1
  S  S12  1  0.37609400  0.50000000  0.00000000  1
  S  S13  1  0.12390600  0.12390600  0.12390600  1
  S  S14  1  0.00000000  0.37609400  0.50000000  1
  S  S15  1  0.50000000  0.00000000  0.37609400  1
  O  O0  1  0.56293300  0.34502500  0.96819200  1
  O  O1  1  0.78209200  0.93706700  0.90525900  1
  O  O2  1  0.15497500  0.71790800  0.62316700  1
  O  O3  1  0.93706700  0.90525900  0.78209200  1
  O  O4  1  0.71790800  0.62316700  0.15497500  1
  O  O5  1  0.34502500  0.96819200  0.56293300  1
  O  O6  1  0.62316700  0.15497500  0.71790800  1
  O  O7  1  0.96819200  0.56293300  0.34502500  1
  O  O8  1  0.90525900  0.78209200  0.93706700  1
  O  O9  1  0.87683300  0.59474100  0.53180800  1
  O  O10  1  0.53180800  0.87683300  0.59474100  1
  O  O11  1  0.59474100  0.53180800  0.87683300  1
  O  O12  1  0.35545000  0.21119100  0.87696600  1
  O  O13  1  0.85574200  0.14455000  0.02151600  1
  O  O14  1  0.28880900  0.64425800  0.66577500  1
  O  O15  1  0.14455000  0.02151600  0.85574200  1
  O  O16  1  0.64425800  0.66577500  0.28880900  1
  O  O17  1  0.21119100  0.87696600  0.35545000  1
  O  O18  1  0.66577500  0.28880900  0.64425800  1
  O  O19  1  0.87696600  0.35545000  0.21119100  1
  O  O20  1  0.02151600  0.85574200  0.14455000  1
  O  O21  1  0.83422500  0.47848400  0.62303400  1
  O  O22  1  0.62303400  0.83422500  0.47848400  1
  O  O23  1  0.47848400  0.62303400  0.83422500  1
  O  O24  1  0.47877400  0.13422100  0.85635100  1
  O  O25  1  0.65544700  0.02122600  0.87757700  1
  O  O26  1  0.36577900  0.84455300  0.72213000  1
  O  O27  1  0.02122600  0.87757700  0.65544700  1
  O  O28  1  0.84455300  0.72213000  0.36577900  1
  O  O29  1  0.13422100  0.85635100  0.47877400  1
  O  O30  1  0.72213000  0.36577900  0.84455300  1
  O  O31  1  0.85635100  0.47877400  0.13422100  1
  O  O32  1  0.87757700  0.65544700  0.02122600  1
  O  O33  1  0.77787000  0.62242300  0.64364900  1
  O  O34  1  0.64364900  0.77787000  0.62242300  1
  O  O35  1  0.62242300  0.64364900  0.77787000  1
  O  O36  1  0.44695000  0.52393300  0.11505400  1
  O  O37  1  0.07698400  0.05305000  0.16810400  1
  O  O38  1  0.97606700  0.42301600  0.59112000  1
  O  O39  1  0.05305000  0.16810400  0.07698400  1
  O  O40  1  0.42301600  0.59112000  0.97606700  1
  O  O41  1  0.52393300  0.11505400  0.44695000  1
  O  O42  1  0.59112000  0.97606700  0.42301600  1
  O  O43  1  0.11505400  0.44695000  0.52393300  1
  O  O44  1  0.16810400  0.07698400  0.05305000  1
  O  O45  1  0.90888000  0.33189600  0.38494600  1
  O  O46  1  0.38494600  0.90888000  0.33189600  1
  O  O47  1  0.33189600  0.38494600  0.90888000  1
  F  F0  1  0.41365000  0.11700900  0.02952600  1
  F  F1  1  0.70335900  0.08635000  0.11587600  1
  F  F2  1  0.38299100  0.79664100  0.91251700  1
  F  F3  1  0.08635000  0.11587600  0.70335900  1
  F  F4  1  0.79664100  0.91251700  0.38299100  1
  F  F5  1  0.11700900  0.02952600  0.41365000  1
  F  F6  1  0.91251700  0.38299100  0.79664100  1
  F  F7  1  0.02952600  0.41365000  0.11700900  1
  F  F8  1  0.11587600  0.70335900  0.08635000  1
  F  F9  1  0.58748300  0.38412400  0.47047400  1
  F  F10  1  0.47047400  0.58748300  0.38412400  1
  F  F11  1  0.38412400  0.47047400  0.58748300  1
  F  F12  1  0.47685400  0.30151800  0.12398600  1
  F  F13  1  0.82466300  0.02314600  0.14713200  1
  F  F14  1  0.19848200  0.67533700  0.82246800  1
  F  F15  1  0.02314600  0.14713200  0.82466300  1
  F  F16  1  0.67533700  0.82246800  0.19848200  1
  F  F17  1  0.30151800  0.12398600  0.47685400  1
  F  F18  1  0.82246800  0.19848200  0.67533700  1
  F  F19  1  0.12398600  0.47685400  0.30151800  1
  F  F20  1  0.14713200  0.82466300  0.02314600  1
  F  F21  1  0.67753200  0.35286800  0.37601400  1
  F  F22  1  0.37601400  0.67753200  0.35286800  1
  F  F23  1  0.35286800  0.37601400  0.67753200  1
  F  F24  1  0.59778900  0.23929000  0.12159800  1
  F  F25  1  0.64150100  0.90221100  0.02380800  1
  F  F26  1  0.26071000  0.85849900  0.88230700  1
  F  F27  1  0.90221100  0.02380800  0.64150100  1
  F  F28  1  0.85849900  0.88230700  0.26071000  1
  F  F29  1  0.23929000  0.12159800  0.59778900  1
  F  F30  1  0.88230700  0.26071000  0.85849900  1
  F  F31  1  0.12159800  0.59778900  0.23929000  1
  F  F32  1  0.02380800  0.64150100  0.90221100  1
  F  F33  1  0.61769300  0.47619200  0.37840200  1
  F  F34  1  0.37840200  0.61769300  0.47619200  1
  F  F35  1  0.47619200  0.37840200  0.61769300  1
  F  F36  1  0.27389200  0.60244200  0.08205700  1
  F  F37  1  0.32855000  0.22610800  0.30816500  1
  F  F38  1  0.89755800  0.17145000  0.47961500  1
  F  F39  1  0.22610800  0.30816500  0.32855000  1
  F  F40  1  0.17145000  0.47961500  0.89755800  1
  F  F41  1  0.60244200  0.08205700  0.27389200  1
  F  F42  1  0.47961500  0.89755800  0.17145000  1
  F  F43  1  0.08205700  0.27389200  0.60244200  1
  F  F44  1  0.30816500  0.32855000  0.22610800  1
  F  F45  1  0.02038500  0.19183500  0.41794300  1
  F  F46  1  0.41794300  0.02038500  0.19183500  1
  F  F47  1  0.19183500  0.41794300  0.02038500  1
loop_
_geom_bond_atom_site_label_1
_geom_bond_atom_site_label_2
_geom_bond_distance
_geom_bond_site_symmetry_2
Na0 O25 2.379584 1_555
Na0 O24 2.379584 1_555
Na0 O26 2.379584 1_545
Na0 O10 2.397812 1_545
Na0 O6 2.397812 1_555
Na0 O5 2.397812 1_545
Na1 O27 2.379584 1_555
Na1 O29 2.379584 1_555
Na1 O28 2.379584 1_455
Na1 O9 2.397812 1_455
Na1 O2 2.397812 1_555
Na1 O7 2.397812 1_455
Na2 O32 2.379584 1_555
Na2 O31 2.379584 1_555
Na2 O30 2.379584 1_554
Na2 O11 2.397812 1_554
Na2 O4 2.397812 1_555
Na2 O0 2.397812 1_554
Na3 O34 2.379584 1_555
Na3 O33 2.379584 1_555
Na3 O35 2.379584 1_555
Na3 O1 2.397812 1_555
Na3 O8 2.397812 1_555
Na3 O3 2.397812 1_555
H0 O12 1.040983 1_555
H0 O47 1.502404 1_555
H1 O13 1.040969 1_555
H1 O39 1.502404 1_655
H2 O14 1.040976 1_555
H2 O43 1.502407 1_555
H3 O15 1.040969 1_555
H3 O44 1.502404 1_556
H4 O16 1.040976 1_555
H4 O36 1.502407 1_555
H5 O17 1.040983 1_555
H5 O46 1.502404 1_555
H6 O18 1.040976 1_555
H6 O41 1.502407 1_555
H7 O19 1.040983 1_555
H7 O45 1.502404 1_555
H8 O20 1.040969 1_555
H8 O37 1.502404 1_565
H9 O21 1.040983 1_555
H9 O38 1.502418 1_555
H10 O22 1.040983 1_555
H10 O42 1.502418 1_555
H11 O23 1.040983 1_555
H11 O40 1.502418 1_555
C0 F0 1.346414 1_555
C0 F24 1.347489 1_555
C0 F12 1.351667 1_555
C1 F1 1.346419 1_555
C1 F25 1.347488 1_545
C1 F13 1.351641 1_555
C2 F2 1.346408 1_555
C2 F26 1.347498 1_555
C2 F14 1.351648 1_555
C3 F3 1.346419 1_555
C3 F27 1.347488 1_455
C3 F15 1.351641 1_555
C4 F4 1.346408 1_555
C4 F28 1.347498 1_555
C4 F16 1.351648 1_555
C5 F5 1.346414 1_555
C5 F29 1.347489 1_555
C5 F17 1.351667 1_555
C6 F6 1.346408 1_555
C6 F30 1.347498 1_555
C6 F18 1.351648 1_555
C7 F7 1.346414 1_555
C7 F31 1.347489 1_555
C7 F19 1.351667 1_555
C8 F8 1.346419 1_555
C8 F32 1.347488 1_554
C8 F20 1.351641 1_555
C9 F9 1.346408 1_555
C9 F33 1.347507 1_555
C9 F21 1.351657 1_555
C10 F10 1.346408 1_555
C10 F34 1.347507 1_555
C10 F22 1.351657 1_555
C11 F11 1.346408 1_555
C11 F35 1.347507 1_555
C11 F23 1.351657 1_555
C12 F36 1.351415 1_555
C12 F40 1.351415 1_554
C12 F47 1.351415 1_555
C13 F37 1.351415 1_555
C13 F44 1.351415 1_555
C13 F39 1.351415 1_555
C14 F43 1.351415 1_555
C14 F38 1.351415 1_455
C14 F45 1.351415 1_555
C15 F41 1.351415 1_555
C15 F42 1.351415 1_545
C15 F46 1.351415 1_555
O0 S0 1.441558 1_555
O1 S1 1.441547 1_565
O2 S2 1.441563 1_555
O3 S3 1.441547 1_655
O4 S4 1.441563 1_555
O5 S5 1.441558 1_555
O6 S6 1.441563 1_555
O7 S7 1.441558 1_555
O8 S8 1.441547 1_556
O9 S9 1.441558 1_555
O10 S10 1.441558 1_555
O11 S11 1.441558 1_555
O12 S0 1.544528 1_555
O13 S1 1.544528 1_554
O14 S2 1.544528 1_555
O15 S3 1.544528 1_545
O16 S4 1.544528 1_555
O17 S5 1.544528 1_555
O18 S6 1.544528 1_555
O19 S7 1.544528 1_555
O20 S8 1.544528 1_455
O21 S9 1.544528 1_555
O22 S10 1.544528 1_555
O23 S11 1.544528 1_555
O24 S0 1.433008 1_555
O25 S1 1.433019 1_555
O26 S2 1.433016 1_555
O27 S3 1.433019 1_555
O28 S4 1.433016 1_555
O29 S5 1.433008 1_555
O30 S6 1.433016 1_555
O31 S7 1.433008 1_555
O32 S8 1.433019 1_555
O33 S9 1.433008 1_555
O34 S10 1.433008 1_555
O35 S11 1.433008 1_555
O36 S12 1.463605 1_555
O37 S13 1.463600 1_555
O38 S14 1.463590 1_655
O39 S13 1.463600 1_555
O40 S12 1.463590 1_556
O41 S15 1.463605 1_555
O42 S15 1.463590 1_565
O43 S14 1.463605 1_555
O44 S13 1.463600 1_555
O45 S14 1.463600 1_655
O46 S15 1.463600 1_565
O47 S12 1.463600 1_556
