# generated using pymatgen
data_Li4V3Cr3(SnO8)2
_symmetry_space_group_name_H-M   'P 1'
_cell_length_a   5.94751500
_cell_length_b   5.98976856
_cell_length_c   9.77152756
_cell_angle_alpha   89.80318296
_cell_angle_beta   89.66324888
_cell_angle_gamma   60.32700680
_symmetry_Int_Tables_number   1
_chemical_formula_structural   Li4V3Cr3(SnO8)2
_chemical_formula_sum   'Li4 V3 Cr3 Sn2 O16'
_cell_volume   302.44941586
_cell_formula_units_Z   1
loop_
 _symmetry_equiv_pos_site_id
 _symmetry_equiv_pos_as_xyz
  1  'x, y, z'
loop_
 _atom_site_type_symbol
 _atom_site_label
 _atom_site_symmetry_multiplicity
 _atom_site_fract_x
 _atom_site_fract_y
 _atom_site_fract_z
 _atom_site_occupancy
  Li  Li0  1  0.67251800  0.66748700  0.10463600  1
  Li  Li1  1  0.99787300  0.99880700  0.00679900  1
  Li  Li2  1  0.99472500  0.00146200  0.50553700  1
  Li  Li3  1  0.33689100  0.33522500  0.60583000  1
  V  V0  1  0.65364000  0.17378600  0.28140300  1
  V  V1  1  0.82804500  0.82832700  0.78177200  1
  V  V2  1  0.17157400  0.65946000  0.28725700  1
  Cr  Cr0  1  0.83078500  0.33926900  0.78585300  1
  Cr  Cr1  1  0.33914800  0.83078600  0.78625000  1
  Cr  Cr2  1  0.16682700  0.17087300  0.28628200  1
  Sn  Sn0  1  0.66311700  0.66712900  0.50814500  1
  Sn  Sn1  1  0.33067600  0.33189500  0.00681500  1
  O  O0  1  0.83507800  0.32259700  0.40087900  1
  O  O1  1  0.51769900  0.51955200  0.66395400  1
  O  O2  1  0.67698000  0.67585800  0.89131800  1
  O  O3  1  0.99319400  0.99411500  0.69261400  1
  O  O4  1  0.98374600  0.00999700  0.19306400  1
  O  O5  1  0.31650800  0.83952500  0.40119500  1
  O  O6  1  0.96692700  0.52354800  0.66172300  1
  O  O7  1  0.52195500  0.96759000  0.66266700  1
  O  O8  1  0.15877400  0.15756800  0.90091500  1
  O  O9  1  0.83540200  0.84082800  0.39973200  1
  O  O10  1  0.48542700  0.03336100  0.16275100  1
  O  O11  1  0.03695500  0.48224100  0.16147800  1
  O  O12  1  0.35372900  0.31781300  0.39429200  1
  O  O13  1  0.67933100  0.15657000  0.89973100  1
  O  O14  1  0.49500500  0.47436000  0.15857700  1
  O  O15  1  0.15777000  0.67967200  0.90069600  1
loop_
_geom_bond_atom_site_label_1
_geom_bond_atom_site_label_2
_geom_bond_distance
_geom_bond_site_symmetry_2
Li0 O11 1.966324 1_655
Li0 O14 1.982189 1_555
Li0 O10 1.987471 1_565
Li0 O2 2.085202 1_554
Li1 O4 1.821471 1_565
Li1 O8 1.942464 1_664
Li1 O13 1.954675 1_564
Li1 O15 1.958439 1_654
Li2 O3 1.828484 1_545
Li2 O5 1.946523 1_645
Li2 O9 1.952843 1_545
Li2 O0 1.958812 1_555
Li3 O1 1.971032 1_555
Li3 O6 1.986192 1_455
Li3 O7 1.991983 1_545
Li3 O12 2.069373 1_555
Cr0 O3 2.015596 1_545
Cr0 O1 2.019559 1_555
Cr0 O2 2.034862 1_555
Cr0 O8 2.041877 1_655
Cr0 O13 2.050125 1_555
Cr0 O6 2.051670 1_555
Cr1 O3 2.012662 1_455
Cr1 O1 2.017771 1_555
Cr1 O2 2.030751 1_555
Cr1 O8 2.039463 1_565
Cr1 O7 2.042477 1_555
Cr1 O15 2.044311 1_555
Cr2 O4 2.000114 1_455
Cr2 O12 2.028069 1_555
Cr2 O11 2.032564 1_555
Cr2 O10 2.039779 1_555
Cr2 O0 2.044146 1_455
Cr2 O5 2.059000 1_545
O0 V0 2.072732 1_555
O0 Sn0 2.077476 1_555
O1 Sn0 2.139995 1_555
O2 V1 1.892477 1_555
O3 V1 1.913010 1_555
O4 V0 1.908150 1_555
O4 V2 2.044521 1_645
O5 V2 2.021356 1_555
O5 Sn0 2.078069 1_555
O6 V1 1.975183 1_555
O6 Sn0 2.177398 1_555
O7 V1 1.969562 1_555
O7 Sn0 2.175173 1_555
O8 Sn1 2.069603 1_556
O9 V2 2.053648 1_655
O9 Sn0 2.071195 1_555
O9 V0 2.084995 1_565
O10 V0 1.976385 1_555
O10 Sn1 2.175919 1_555
O11 V2 2.034797 1_555
O11 Sn1 2.137149 1_555
O12 V0 1.898046 1_555
O12 V2 2.063700 1_555
O13 V1 2.063555 1_545
O13 Sn1 2.079337 1_556
O14 V0 1.971961 1_555
O14 V2 2.092871 1_555
O14 Sn1 2.175774 1_555
O15 V1 2.068759 1_455
O15 Sn1 2.085384 1_556
