# generated using pymatgen
data_BaNa2O2
_symmetry_space_group_name_H-M   'P 1'
_cell_length_a   6.97294700
_cell_length_b   6.67246900
_cell_length_c   8.42117641
_cell_angle_alpha   81.86310163
_cell_angle_beta   90.00000000
_cell_angle_gamma   90.00000000
_symmetry_Int_Tables_number   1
_chemical_formula_structural   BaNa2O2
_chemical_formula_sum   'Ba4 Na8 O8'
_cell_volume   387.86569485
_cell_formula_units_Z   4
loop_
 _symmetry_equiv_pos_site_id
 _symmetry_equiv_pos_as_xyz
  1  'x, y, z'
loop_
 _atom_site_type_symbol
 _atom_site_label
 _atom_site_symmetry_multiplicity
 _atom_site_fract_x
 _atom_site_fract_y
 _atom_site_fract_z
 _atom_site_occupancy
  Ba  Ba0  1  0.40840100  0.09208900  0.69675200  1
  Ba  Ba1  1  0.09159900  0.59208900  0.69675200  1
  Ba  Ba2  1  0.90840100  0.40791100  0.30324800  1
  Ba  Ba3  1  0.59159900  0.90791100  0.30324800  1
  Na  Na0  1  0.35847800  0.35251600  0.05164100  1
  Na  Na1  1  0.14152200  0.85251600  0.05164100  1
  Na  Na2  1  0.86723400  0.04161400  0.62101200  1
  Na  Na3  1  0.63276600  0.54161400  0.62101200  1
  Na  Na4  1  0.36723400  0.45838600  0.37898800  1
  Na  Na5  1  0.13276600  0.95838600  0.37898800  1
  Na  Na6  1  0.85847800  0.14748400  0.94835900  1
  Na  Na7  1  0.64152200  0.64748400  0.94835900  1
  O  O0  1  0.59470800  0.33336300  0.86315800  1
  O  O1  1  0.90529200  0.83336300  0.86315800  1
  O  O2  1  0.12088700  0.26616400  0.54360700  1
  O  O3  1  0.37911300  0.76616400  0.54360700  1
  O  O4  1  0.62088700  0.23383600  0.45639300  1
  O  O5  1  0.87911300  0.73383600  0.45639300  1
  O  O6  1  0.09470800  0.16663700  0.13684200  1
  O  O7  1  0.40529200  0.66663700  0.13684200  1
loop_
_geom_bond_atom_site_label_1
_geom_bond_atom_site_label_2
_geom_bond_distance
_geom_bond_site_symmetry_2
Ba0 O2 2.570525 1_555
Ba0 O4 2.577774 1_555
Ba0 O0 2.623319 1_555
Ba0 O3 2.688549 1_545
Ba1 O3 2.570525 1_555
Ba1 O5 2.577774 1_455
Ba1 O1 2.623319 1_455
Ba1 O2 2.688549 1_555
Ba2 O4 2.570525 1_555
Ba2 O2 2.577774 1_655
Ba2 O6 2.623319 1_655
Ba2 O5 2.688549 1_555
Ba3 O5 2.570525 1_555
Ba3 O3 2.577774 1_555
Ba3 O7 2.623319 1_555
Ba3 O4 2.688549 1_565
Na0 O6 2.276844 1_555
Na0 O0 2.303572 1_554
Na0 O7 2.332405 1_555
Na1 O7 2.276844 1_555
Na1 O1 2.303572 1_454
Na1 O6 2.332405 1_565
Na2 O1 2.314588 1_545
Na2 O2 2.349824 1_655
Na2 O4 2.452393 1_555
Na2 O5 2.636662 1_545
Na3 O0 2.314588 1_555
Na3 O3 2.349824 1_555
Na3 O5 2.452393 1_555
Na3 O4 2.636662 1_555
Na4 O7 2.314588 1_555
Na4 O4 2.349824 1_555
Na4 O2 2.452393 1_555
Na4 O3 2.636662 1_555
Na5 O6 2.314588 1_565
Na5 O5 2.349824 1_455
Na5 O3 2.452393 1_555
Na5 O2 2.636662 1_565
Na6 O0 2.276844 1_555
Na6 O6 2.303572 1_656
Na6 O1 2.332405 1_545
Na7 O1 2.276844 1_555
Na7 O7 2.303572 1_556
Na7 O0 2.332405 1_555
