# generated using pymatgen
data_Fe4O5F3
_symmetry_space_group_name_H-M   'P 1'
_cell_length_a   4.69851700
_cell_length_b   7.69933009
_cell_length_c   7.70600738
_cell_angle_alpha   104.75890301
_cell_angle_beta   91.20723277
_cell_angle_gamma   90.86039216
_symmetry_Int_Tables_number   1
_chemical_formula_structural   Fe4O5F3
_chemical_formula_sum   'Fe8 O10 F6'
_cell_volume   269.45083762
_cell_formula_units_Z   2
loop_
 _symmetry_equiv_pos_site_id
 _symmetry_equiv_pos_as_xyz
  1  'x, y, z'
loop_
 _atom_site_type_symbol
 _atom_site_label
 _atom_site_symmetry_multiplicity
 _atom_site_fract_x
 _atom_site_fract_y
 _atom_site_fract_z
 _atom_site_occupancy
  Fe  Fe0  1  0.49653500  0.40810100  0.14173700  1
  Fe  Fe1  1  0.50780600  0.12235000  0.37141800  1
  Fe  Fe2  1  0.45180700  0.86662700  0.63304400  1
  Fe  Fe3  1  0.50771900  0.62036200  0.87094100  1
  Fe  Fe4  1  0.99565200  0.76338800  0.25815600  1
  Fe  Fe5  1  0.02394200  0.47844100  0.48258200  1
  Fe  Fe6  1  0.05952700  0.24434200  0.74542100  1
  Fe  Fe7  1  0.96259000  0.99440700  0.99314600  1
  O  O0  1  0.20850800  0.26522500  0.51871700  1
  O  O1  1  0.18710400  0.54438900  0.27935800  1
  O  O2  1  0.18136900  0.02232300  0.78640900  1
  O  O3  1  0.30470800  0.90696300  0.40402500  1
  O  O4  1  0.30135900  0.63579900  0.65863200  1
  O  O5  1  0.32148700  0.41177200  0.90487600  1
  O  O6  1  0.70422800  0.61126100  0.09153200  1
  O  O7  1  0.69241300  0.34419100  0.34243900  1
  O  O8  1  0.68304200  0.83454400  0.84605000  1
  O  O9  1  0.80444800  0.97717600  0.22433200  1
  F  F0  1  0.19800900  0.78670700  0.03091600  1
  F  F1  1  0.29575800  0.15728700  0.14380500  1
  F  F2  1  0.69904400  0.09619800  0.60700500  1
  F  F3  1  0.80308200  0.22876200  0.97052500  1
  F  F4  1  0.79615100  0.72289900  0.47920300  1
  F  F5  1  0.81371200  0.45648500  0.71572500  1
loop_
_geom_bond_atom_site_label_1
_geom_bond_atom_site_label_2
_geom_bond_distance
_geom_bond_site_symmetry_2
Fe0 O7 1.955127 1_555
Fe0 O6 1.956288 1_555
Fe0 O1 1.970607 1_555
Fe0 O5 1.993119 1_554
Fe1 O7 1.969157 1_555
Fe1 O3 1.974515 1_545
Fe1 O9 1.986083 1_545
Fe1 O0 1.988367 1_555
Fe2 O2 1.958444 1_565
Fe2 O4 1.960553 1_555
Fe2 O3 1.980664 1_555
Fe2 O8 2.018711 1_555
Fe3 O8 1.887268 1_555
Fe3 O5 1.895969 1_555
Fe3 O4 1.914835 1_555
Fe3 O6 1.934805 1_556
Fe4 O9 1.958966 1_555
Fe4 O3 1.960619 1_655
Fe4 O1 1.964351 1_655
Fe4 O6 2.001731 1_555
Fe5 O1 1.934440 1_555
Fe5 O0 1.946780 1_555
Fe5 O7 1.993266 1_455
Fe5 O4 2.011947 1_555
Fe6 O2 1.909554 1_555
Fe6 O0 1.938827 1_555
Fe6 O5 1.941166 1_555
Fe7 O8 1.924286 1_555
Fe7 O2 1.969189 1_665
Fe7 O9 1.979079 1_556
F0 Fe7 2.035240 1_454
F0 Fe4 2.056168 1_455
F0 Fe3 2.145855 1_554
F1 Fe1 2.077562 1_555
F1 Fe7 2.119828 1_444
F1 Fe0 2.140308 1_555
F2 Fe1 2.065589 1_555
F2 Fe6 2.133876 1_655
F2 Fe2 2.154706 1_545
F3 Fe7 2.010772 1_545
F3 Fe6 2.159854 1_655
F3 Fe0 2.221128 1_556
F4 Fe4 2.050955 1_555
F4 Fe2 2.171127 1_555
F4 Fe5 2.184722 1_655
F5 Fe6 2.071263 1_655
F5 Fe3 2.108951 1_555
F5 Fe5 2.111053 1_655
