# generated using pymatgen
data_Mn27Nb13O60
_symmetry_space_group_name_H-M   'P 1'
_cell_length_a   5.72062667
_cell_length_b   5.70424162
_cell_length_c   56.89407152
_cell_angle_alpha   55.91149186
_cell_angle_beta   55.85153390
_cell_angle_gamma   56.15992201
_symmetry_Int_Tables_number   1
_chemical_formula_structural   Mn27Nb13O60
_chemical_formula_sum   'Mn27 Nb13 O60'
_cell_volume   1190.31393324
_cell_formula_units_Z   1
loop_
 _symmetry_equiv_pos_site_id
 _symmetry_equiv_pos_as_xyz
  1  'x, y, z'
loop_
 _atom_site_type_symbol
 _atom_site_label
 _atom_site_symmetry_multiplicity
 _atom_site_fract_x
 _atom_site_fract_y
 _atom_site_fract_z
 _atom_site_occupancy
  Mn  Mn0  1  0.28302930  0.28171727  0.02767289  1
  Mn  Mn1  1  0.28266198  0.28645401  0.12809438  1
  Mn  Mn2  1  0.78486590  0.77892358  0.07790189  1
  Mn  Mn3  1  0.28313683  0.28435763  0.22855916  1
  Mn  Mn4  1  0.78604156  0.78464974  0.17827413  1
  Mn  Mn5  1  0.28069585  0.28940800  0.32846501  1
  Mn  Mn6  1  0.78306157  0.78381414  0.27847738  1
  Mn  Mn7  1  0.26923104  0.27526251  0.43153154  1
  Mn  Mn8  1  0.48388160  0.49158013  0.45427337  1
  Mn  Mn9  1  0.78504549  0.77065351  0.37967737  1
  Mn  Mn10  1  0.28399130  0.28420709  0.53130519  1
  Mn  Mn11  1  0.49545535  0.49758890  0.55287250  1
  Mn  Mn12  1  0.78400188  0.77315544  0.48188200  1
  Mn  Mn13  1  0.27615387  0.28663101  0.63201346  1
  Mn  Mn14  1  0.49308642  0.49561972  0.65180809  1
  Mn  Mn15  1  0.78491675  0.78248463  0.58070852  1
  Mn  Mn16  1  -0.00110145  0.98562139  0.69968994  1
  Mn  Mn17  1  0.31390116  0.30050977  0.72806912  1
  Mn  Mn18  1  0.51262331  0.51120936  0.74795964  1
  Mn  Mn19  1  0.79979072  0.78034677  0.68025118  1
  Mn  Mn20  1  0.29331258  0.29280020  0.82609226  1
  Mn  Mn21  1  0.50796618  0.50781972  0.84836073  1
  Mn  Mn22  1  0.80011697  0.80844600  0.77643435  1
  Mn  Mn23  1  0.30360361  0.29870275  0.92395810  1
  Mn  Mn24  1  0.51837656  0.50686071  0.94684471  1
  Mn  Mn25  1  0.79148206  0.79432320  0.87749097  1
  Mn  Mn26  1  0.78600494  0.80902693  0.97447669  1
  Nb  Nb0  1  0.00120182  0.02433810  0.99571688  1
  Nb  Nb1  1  0.50560833  0.49628151  0.04810452  1
  Nb  Nb2  1  0.49525076  0.49320317  0.14942319  1
  Nb  Nb3  1  0.99323198  0.99550698  0.09917594  1
  Nb  Nb4  1  0.49403641  0.49333068  0.24979954  1
  Nb  Nb5  1  0.99196020  0.99371379  0.30001802  1
  Nb  Nb6  1  0.99452171  0.99420567  0.19958191  1
  Nb  Nb7  1  0.49330655  0.49137169  0.35091012  1
  Nb  Nb8  1  -0.00743032  0.97702148  0.40354579  1
  Nb  Nb9  1  0.99001508  0.98526716  0.50252136  1
  Nb  Nb10  1  0.98497890  -0.00561195  0.60206380  1
  Nb  Nb11  1  0.01035505  0.00361832  0.79865457  1
  Nb  Nb12  1  0.01002990  0.00682539  0.89699833  1
  O  O0  1  0.11727441  0.35994850  0.07279526  1
  O  O1  1  0.35631909  0.71782135  0.01299058  1
  O  O2  1  0.71299307  0.11490724  0.03754468  1
  O  O3  1  0.22515207  0.85275886  0.06229154  1
  O  O4  1  0.61446434  0.22073921  0.08616276  1
  O  O5  1  0.11530606  0.36405745  0.17238037  1
  O  O6  1  0.86003376  0.60136919  0.02480446  1
  O  O7  1  0.36296569  0.72118119  0.11168287  1
  O  O8  1  0.71967487  0.11959235  0.13632205  1
  O  O9  1  0.21964285  0.86753790  0.16137767  1
  O  O10  1  0.61631150  0.21942169  0.18667965  1
  O  O11  1  0.11758219  0.36383501  0.27253206  1
  O  O12  1  0.86183409  0.61827496  0.12247136  1
  O  O13  1  0.36574626  0.72164435  0.21143645  1
  O  O14  1  0.71954016  0.11720378  0.23655225  1
  O  O15  1  0.21868765  0.86599311  0.26173946  1
  O  O16  1  0.62050322  0.22072098  0.28644732  1
  O  O17  1  0.11947031  0.35813773  0.37126195  1
  O  O18  1  0.86480879  0.61510067  0.22234649  1
  O  O19  1  0.37047146  0.71219055  0.31110821  1
  O  O20  1  0.72502444  0.11979563  0.33670481  1
  O  O21  1  0.22883755  0.86787553  0.35896205  1
  O  O22  1  0.61418204  0.23386801  0.38584991  1
  O  O23  1  0.09161098  0.36012983  0.47222366  1
  O  O24  1  0.85563527  0.61770634  0.32260151  1
  O  O25  1  0.36520233  0.73631070  0.40921714  1
  O  O26  1  0.72706089  0.10439289  0.43631390  1
  O  O27  1  0.18374133  0.89166466  0.46184256  1
  O  O28  1  0.59624249  0.18482761  0.49240333  1
  O  O29  1  0.09263100  0.35925135  0.57191654  1
  O  O30  1  0.88346149  0.63684583  0.41803627  1
  O  O31  1  0.36556155  0.70209423  0.51055830  1
  O  O32  1  0.72581508  0.09270773  0.53806086  1
  O  O33  1  0.17920276  0.91217320  0.56055731  1
  O  O34  1  0.57953257  0.19231829  0.59376079  1
  O  O35  1  0.09774372  0.37213359  0.67057459  1
  O  O36  1  0.88924082  0.61125616  0.52112062  1
  O  O37  1  0.36059105  0.70992957  0.61040319  1
  O  O38  1  0.72438618  0.09450666  0.63791450  1
  O  O39  1  0.19828040  0.89424128  0.66124181  1
  O  O40  1  0.60861275  0.17614096  0.69071589  1
  O  O41  1  0.09540948  0.37910687  0.77078204  1
  O  O42  1  0.88734132  0.60988474  0.61974459  1
  O  O43  1  0.39263085  0.69071857  0.71037286  1
  O  O44  1  0.70501903  0.10386673  0.73685568  1
  O  O45  1  0.21091579  0.91807608  0.75708340  1
  O  O46  1  0.61390533  0.20726537  0.78609678  1
  O  O47  1  0.10024005  0.37472090  0.87161421  1
  O  O48  1  0.92367814  0.59474788  0.72016640  1
  O  O49  1  0.36966827  0.73318020  0.80800264  1
  O  O50  1  0.72250420  0.10069328  0.83474710  1
  O  O51  1  0.20694925  0.89594343  0.86032819  1
  O  O52  1  0.63207012  0.19373260  0.88669129  1
  O  O53  1  0.09427311  0.37165863  0.97551423  1
  O  O54  1  0.90170699  0.62655614  0.81565526  1
  O  O55  1  0.35952814  0.73142464  0.90998094  1
  O  O56  1  0.71032042  0.10921856  0.93571321  1
  O  O57  1  0.20203513  0.88058220  0.96351962  1
  O  O58  1  0.62316647  0.19041078  0.98962506  1
  O  O59  1  0.89585971  0.61536024  0.92004095  1
loop_
_geom_bond_atom_site_label_1
_geom_bond_atom_site_label_2
_geom_bond_distance
_geom_bond_site_symmetry_2
Mn0 O58 2.037058 1_554
Mn0 O6 2.098200 1_455
Mn0 O3 2.178094 1_545
Mn0 O1 2.345425 1_555
Mn0 O2 2.369811 1_555
Mn0 O0 2.401820 1_555
Mn1 O9 2.132306 1_545
Mn1 O4 2.135635 1_555
Mn1 O12 2.142757 1_455
Mn1 O7 2.328941 1_555
Mn1 O5 2.351819 1_555
Mn1 O8 2.353548 1_555
Mn2 O2 2.088934 1_565
Mn2 O0 2.123365 1_655
Mn2 O7 2.143721 1_555
Mn2 O3 2.358154 1_655
Mn2 O4 2.366405 1_565
Mn2 O12 2.379693 1_555
Mn3 O15 2.131520 1_545
Mn3 O10 2.133474 1_555
Mn3 O18 2.141237 1_455
Mn3 O13 2.338051 1_555
Mn3 O14 2.342186 1_555
Mn3 O11 2.344055 1_555
Mn4 O5 2.139143 1_655
Mn4 O13 2.139924 1_555
Mn4 O8 2.142220 1_565
Mn4 O9 2.328111 1_655
Mn4 O10 2.334158 1_565
Mn4 O18 2.343173 1_555
Mn5 O21 2.102431 1_545
Mn5 O16 2.152113 1_555
Mn5 O24 2.160963 1_455
Mn5 O17 2.253700 1_555
Mn5 O19 2.279370 1_555
Mn5 O20 2.388964 1_555
Mn6 O19 2.118673 1_555
Mn6 O14 2.134683 1_565
Mn6 O11 2.142747 1_655
Mn6 O24 2.331930 1_555
Mn6 O15 2.339515 1_655
Mn6 O16 2.343859 1_565
Mn7 O27 2.004047 1_545
Mn7 O23 2.166600 1_555
Mn7 O30 2.184358 1_455
Mn7 O22 2.261797 1_555
Mn7 O26 2.354400 1_555
Mn7 O25 2.431597 1_555
Mn8 O28 2.058849 1_555
Mn8 O27 2.061354 1_555
Mn8 O30 2.250780 1_555
Mn8 O23 2.254696 1_555
Mn8 O26 2.317138 1_555
Mn8 O25 2.422366 1_555
Mn9 O25 2.062688 1_555
Mn9 O17 2.155692 1_655
Mn9 O30 2.167024 1_555
Mn9 O20 2.187351 1_565
Mn9 O21 2.370270 1_655
Mn9 O22 2.416341 1_565
Mn10 O33 1.992620 1_545
Mn10 O28 2.061757 1_555
Mn10 O29 2.113614 1_555
Mn10 O36 2.116806 1_455
Mn10 O31 2.181669 1_555
Mn10 O32 2.296579 1_555
Mn11 O34 2.111351 1_555
Mn11 O36 2.122157 1_555
Mn11 O33 2.136062 1_555
Mn11 O32 2.307785 1_555
Mn11 O29 2.317480 1_555
Mn11 O31 2.367187 1_555
Mn12 O31 2.123904 1_555
Mn12 O23 2.167347 1_655
Mn12 O36 2.185804 1_555
Mn12 O27 2.217400 1_655
Mn12 O28 2.251905 1_565
Mn12 O26 2.273573 1_565
Mn13 O34 2.017435 1_555
Mn13 O39 2.019971 1_545
Mn13 O35 2.055223 1_555
Mn13 O42 2.137047 1_455
Mn13 O37 2.209011 1_555
Mn13 O38 2.304992 1_555
Mn14 O39 2.093661 1_555
Mn14 O40 2.106427 1_555
Mn14 O42 2.127151 1_555
Mn14 O35 2.229643 1_555
Mn14 O38 2.256552 1_555
Mn14 O37 2.315758 1_555
Mn15 O32 2.138873 1_565
Mn15 O42 2.147679 1_555
Mn15 O37 2.156129 1_555
Mn15 O29 2.193013 1_655
Mn15 O33 2.225702 1_655
Mn15 O34 2.303140 1_565
Mn16 O44 2.024173 1_465
Mn16 O48 2.026759 1_455
Mn16 O35 2.041498 1_565
Mn16 O39 2.042683 1_555
Mn16 O40 2.093321 1_465
Mn16 O43 2.107927 1_555
Mn17 O48 2.027418 1_455
Mn17 O45 2.033202 1_545
Mn17 O40 2.048778 1_555
Mn17 O43 2.065501 1_555
Mn17 O44 2.084750 1_555
Mn17 O41 2.203595 1_555
Mn18 O46 2.031081 1_555
Mn18 O48 2.117984 1_555
Mn18 O43 2.122105 1_555
Mn18 O45 2.125565 1_555
Mn18 O44 2.241885 1_555
Mn18 O41 2.318907 1_555
Mn19 O43 2.118093 1_555
Mn19 O35 2.143253 1_655
Mn19 O38 2.160168 1_565
Mn19 O40 2.161830 1_565
Mn19 O39 2.209607 1_655
Mn19 O48 2.248662 1_555
Mn20 O46 2.083792 1_555
Mn20 O51 2.094107 1_545
Mn20 O54 2.114672 1_455
Mn20 O50 2.286351 1_555
Mn20 O49 2.319411 1_555
Mn20 O47 2.390881 1_555
Mn21 O52 2.100380 1_555
Mn21 O51 2.111350 1_555
Mn21 O54 2.139072 1_555
Mn21 O49 2.269078 1_555
Mn21 O47 2.269152 1_555
Mn21 O50 2.296546 1_555
Mn22 O44 2.075324 1_565
Mn22 O54 2.140717 1_555
Mn22 O41 2.149449 1_655
Mn22 O46 2.158190 1_565
Mn22 O49 2.195813 1_555
Mn22 O45 2.255247 1_655
Mn23 O52 2.020398 1_555
Mn23 O59 2.047676 1_455
Mn23 O57 2.269335 1_545
Mn23 O56 2.272607 1_555
Mn23 O55 2.284971 1_555
Mn23 O53 2.660996 1_555
Mn24 O59 2.026141 1_555
Mn24 O55 2.167284 1_555
Mn24 O57 2.182293 1_555
Mn24 O56 2.192561 1_555
Mn24 O58 2.247182 1_555
Mn24 O53 2.317870 1_555
Mn25 O47 2.118014 1_655
Mn25 O50 2.160823 1_565
Mn25 O55 2.183496 1_555
Mn25 O52 2.187069 1_565
Mn25 O51 2.287532 1_655
Mn25 O59 2.330852 1_555
Mn26 O56 1.999138 1_565
Mn26 O53 2.095075 1_655
Mn26 O1 2.283354 1_556
Mn26 O58 2.299277 1_565
Mn26 O57 2.313102 1_655
Mn26 O6 2.604220 1_556
Nb0 O53 1.861431 1_555
Nb0 O57 1.902568 1_545
Nb0 O58 1.971320 1_455
Nb0 O1 2.123473 1_546
Nb0 O2 2.161714 1_456
Nb0 O6 2.325085 1_446
Nb1 O6 1.916491 1_555
Nb1 O3 2.028012 1_555
Nb1 O4 2.038490 1_555
Nb1 O1 2.049617 1_555
Nb1 O2 2.071570 1_555
Nb1 O0 2.170089 1_555
Nb2 O12 2.021868 1_555
Nb2 O10 2.035768 1_555
Nb2 O9 2.045086 1_555
Nb2 O8 2.098735 1_555
Nb2 O7 2.114817 1_555
Nb2 O5 2.119068 1_555
Nb3 O0 2.006897 1_665
Nb3 O8 2.036300 1_565
Nb3 O7 2.045471 1_655
Nb3 O3 2.100826 1_655
Nb3 O12 2.106674 1_555
Nb3 O4 2.127919 1_565
Nb4 O16 2.023613 1_555
Nb4 O18 2.031340 1_555
Nb4 O15 2.037043 1_555
Nb4 O11 2.104760 1_555
Nb4 O14 2.115167 1_555
Nb4 O13 2.132155 1_555
Nb5 O20 2.021621 1_565
Nb5 O11 2.036315 1_665
Nb5 O19 2.047154 1_655
Nb5 O16 2.108315 1_565
Nb5 O24 2.123268 1_555
Nb5 O15 2.123880 1_655
Nb6 O5 2.021528 1_665
Nb6 O14 2.025189 1_565
Nb6 O13 2.034020 1_655
Nb6 O18 2.114993 1_555
Nb6 O9 2.118151 1_655
Nb6 O10 2.121476 1_565
Nb7 O22 1.930348 1_555
Nb7 O21 1.953755 1_555
Nb7 O24 2.006068 1_555
Nb7 O20 2.119216 1_555
Nb7 O17 2.129688 1_555
Nb7 O19 2.193540 1_555
Nb8 O26 1.849528 1_465
Nb8 O25 1.883935 1_555
Nb8 O30 1.952584 1_455
Nb8 O17 2.100382 1_565
Nb8 O22 2.259818 1_465
Nb8 O21 2.373303 1_555
Nb9 O32 1.916991 1_565
Nb9 O31 1.960524 1_655
Nb9 O23 2.002289 1_665
Nb9 O36 2.039123 1_555
Nb9 O28 2.137018 1_565
Nb9 O27 2.171691 1_655
Nb10 O38 1.911199 1_555
Nb10 O37 1.968112 1_645
Nb10 O29 1.973058 1_655
Nb10 O42 2.096405 1_545
Nb10 O34 2.143169 1_555
Nb10 O33 2.178622 1_645
Nb11 O49 1.914086 1_545
Nb11 O50 1.922938 1_455
Nb11 O41 1.956070 1_555
Nb11 O54 2.104757 1_445
Nb11 O45 2.184499 1_545
Nb11 O46 2.226659 1_455
Nb12 O47 1.930843 1_555
Nb12 O55 1.967220 1_545
Nb12 O51 2.017134 1_545
Nb12 O56 2.054116 1_455
Nb12 O52 2.076230 1_455
Nb12 O59 2.124417 1_445
