# generated using pymatgen
data_Li2MnOF2
_symmetry_space_group_name_H-M   'P 1'
_cell_length_a   4.17367400
_cell_length_b   10.50274067
_cell_length_c   6.18906794
_cell_angle_alpha   88.01138164
_cell_angle_beta   90.00001592
_cell_angle_gamma   89.99997187
_symmetry_Int_Tables_number   1
_chemical_formula_structural   Li2MnOF2
_chemical_formula_sum   'Li8 Mn4 O4 F8'
_cell_volume   271.13449822
_cell_formula_units_Z   4
loop_
 _symmetry_equiv_pos_site_id
 _symmetry_equiv_pos_as_xyz
  1  'x, y, z'
loop_
 _atom_site_type_symbol
 _atom_site_label
 _atom_site_symmetry_multiplicity
 _atom_site_fract_x
 _atom_site_fract_y
 _atom_site_fract_z
 _atom_site_occupancy
  Li  Li0  1  0.94555200  0.58233600  0.08334700  1
  Li  Li1  1  0.94555300  0.08233400  0.58333700  1
  Li  Li2  1  0.44555400  0.75053600  0.91526300  1
  Li  Li3  1  0.44555300  0.25053500  0.41525800  1
  Li  Li4  1  0.44555200  0.41766400  0.91667400  1
  Li  Li5  1  0.44555200  0.91766200  0.41666200  1
  Li  Li6  1  0.94555400  0.24946500  0.08475600  1
  Li  Li7  1  0.94555300  0.74946600  0.58475300  1
  Mn  Mn0  1  0.94543600  0.41642700  0.58359000  1
  Mn  Mn1  1  0.44544300  0.08353100  0.91632100  1
  Mn  Mn2  1  0.94544100  0.91643200  0.08360100  1
  Mn  Mn3  1  0.44541700  0.58360000  0.41638200  1
  O  O0  1  0.44539300  0.90578100  0.09428400  1
  O  O1  1  0.44539000  0.40577900  0.59429800  1
  O  O2  1  0.94539500  0.09421700  0.90570900  1
  O  O3  1  0.94539100  0.59422600  0.40571800  1
  F  F0  1  0.94492500  0.73904400  0.90172200  1
  F  F1  1  0.94492100  0.23904800  0.40172000  1
  F  F2  1  0.44494700  0.58142000  0.05933500  1
  F  F3  1  0.44494400  0.08141900  0.55931600  1
  F  F4  1  0.94494000  0.41858300  0.94068500  1
  F  F5  1  0.94495300  0.91857700  0.44067900  1
  F  F6  1  0.44492300  0.26096300  0.09829800  1
  F  F7  1  0.44492100  0.76095400  0.59829100  1
loop_
_geom_bond_atom_site_label_1
_geom_bond_atom_site_label_2
_geom_bond_distance
_geom_bond_site_symmetry_2
Li0 O3 2.003401 1_555
Li1 O2 2.003400 1_555
Li2 O0 2.002875 1_556
Li3 O1 2.002934 1_555
Li4 O1 2.003426 1_555
Li5 O0 2.003435 1_555
Li6 O2 2.002994 1_554
Li7 O3 2.002881 1_555
Mn0 O1 2.090567 1_655
Mn0 O1 2.090951 1_555
Mn0 O3 2.134554 1_555
Mn1 O2 2.090562 1_555
Mn1 O2 2.090962 1_455
Mn1 O0 2.134387 1_546
Mn2 O0 2.090556 1_655
Mn2 O0 2.090956 1_555
Mn2 O2 2.134488 1_564
Mn3 O3 2.090631 1_555
Mn3 O3 2.090847 1_455
Mn3 O1 2.134884 1_555
F0 Li0 1.960625 1_556
F0 Li7 1.961000 1_555
F0 Li2 2.089553 1_555
F0 Li2 2.094790 1_655
F0 Mn2 2.209900 1_556
F1 Li1 1.960650 1_555
F1 Li6 1.960968 1_555
F1 Li3 2.089537 1_555
F1 Li3 2.094799 1_655
F1 Mn0 2.209789 1_555
F2 Li2 1.959589 1_554
F2 Li4 1.960354 1_554
F2 Li0 2.089649 1_455
F2 Li0 2.094686 1_555
F2 Mn3 2.210702 1_555
F3 Li3 1.959552 1_555
F3 Li5 1.960343 1_545
F3 Li1 2.089636 1_455
F3 Li1 2.094707 1_555
F3 Mn1 2.210410 1_555
F4 Li6 1.959605 1_556
F4 Li0 1.960329 1_556
F4 Li4 2.089620 1_555
F4 Li4 2.094715 1_655
F4 Mn0 2.210988 1_555
F5 Li7 1.959547 1_555
F5 Li1 1.960355 1_565
F5 Li5 2.089676 1_555
F5 Li5 2.094664 1_655
F5 Mn2 2.210877 1_555
F6 Li4 1.960561 1_554
F6 Li3 1.960945 1_555
F6 Li6 2.089549 1_455
F6 Li6 2.094802 1_555
F6 Mn1 2.210625 1_554
F7 Li5 1.960638 1_555
F7 Li2 1.961017 1_555
F7 Li7 2.089537 1_455
F7 Li7 2.094799 1_555
F7 Mn3 2.209693 1_555
