# generated using pymatgen
data_LiBiP2O7
_symmetry_space_group_name_H-M   'P 1'
_cell_length_a   6.75381700
_cell_length_b   6.80525979
_cell_length_c   6.92067482
_cell_angle_alpha   67.50519910
_cell_angle_beta   83.69174137
_cell_angle_gamma   83.14636543
_symmetry_Int_Tables_number   1
_chemical_formula_structural   LiBiP2O7
_chemical_formula_sum   'Li2 Bi2 P4 O14'
_cell_volume   291.06680002
_cell_formula_units_Z   2
loop_
 _symmetry_equiv_pos_site_id
 _symmetry_equiv_pos_as_xyz
  1  'x, y, z'
loop_
 _atom_site_type_symbol
 _atom_site_label
 _atom_site_symmetry_multiplicity
 _atom_site_fract_x
 _atom_site_fract_y
 _atom_site_fract_z
 _atom_site_occupancy
  Li  Li0  1  0.58774100  0.34362000  0.66033600  1
  Li  Li1  1  0.41225900  0.65638000  0.33966400  1
  Bi  Bi0  1  0.15977100  0.24488900  0.11238900  1
  Bi  Bi1  1  0.84022900  0.75511100  0.88761100  1
  P  P0  1  0.63656800  0.24956600  0.23593000  1
  P  P1  1  0.11322600  0.17740000  0.64337600  1
  P  P2  1  0.88677400  0.82260000  0.35662400  1
  P  P3  1  0.36343200  0.75043400  0.76407000  1
  O  O0  1  0.48202800  0.15634200  0.15240100  1
  O  O1  1  0.77690800  0.04506200  0.37560200  1
  O  O2  1  0.90313600  0.11896100  0.75178000  1
  O  O3  1  0.77657200  0.38107800  0.04892500  1
  O  O4  1  0.10818600  0.33081600  0.41549200  1
  O  O5  1  0.55089300  0.36359900  0.37861700  1
  O  O6  1  0.24111100  0.24202600  0.77535400  1
  O  O7  1  0.75888900  0.75797400  0.22464600  1
  O  O8  1  0.44910700  0.63640100  0.62138300  1
  O  O9  1  0.89181400  0.66918400  0.58450800  1
  O  O10  1  0.22342800  0.61892200  0.95107500  1
  O  O11  1  0.09686400  0.88103900  0.24822000  1
  O  O12  1  0.22309200  0.95493800  0.62439800  1
  O  O13  1  0.51797200  0.84365800  0.84759900  1
loop_
_geom_bond_atom_site_label_1
_geom_bond_atom_site_label_2
_geom_bond_distance
_geom_bond_site_symmetry_2
Li0 O5 1.943554 1_555
Li0 O8 2.029390 1_555
Li0 O2 2.460479 1_555
Li0 O6 2.479500 1_555
Li1 O8 1.943554 1_555
Li1 O5 2.029390 1_555
Li1 O11 2.460479 1_555
Li1 O7 2.479500 1_555
Bi0 O0 2.206476 1_555
Bi0 O6 2.343801 1_554
Bi0 O11 2.361659 1_545
Bi0 O4 2.364944 1_555
Bi0 O10 2.427234 1_554
Bi0 O3 2.667536 1_455
Bi1 O13 2.206476 1_555
Bi1 O7 2.343801 1_556
Bi1 O2 2.361659 1_565
Bi1 O9 2.364944 1_555
Bi1 O3 2.427234 1_556
Bi1 O10 2.667536 1_655
O0 P0 1.548319 1_555
O1 P0 1.620713 1_555
O1 P2 1.649968 1_545
O2 P1 1.551370 1_655
O3 P0 1.554592 1_555
O4 P1 1.523751 1_555
O5 P0 1.505263 1_555
O6 P1 1.531365 1_555
O7 P2 1.531365 1_555
O8 P3 1.505263 1_555
O9 P2 1.523751 1_555
O10 P3 1.554592 1_555
O11 P2 1.551370 1_455
O12 P3 1.620713 1_555
O12 P1 1.649968 1_565
O13 P3 1.548319 1_555
