# generated using pymatgen
data_Ba3(RhO2)14
_symmetry_space_group_name_H-M   'P 1'
_cell_length_a   10.09985000
_cell_length_b   10.77538780
_cell_length_c   10.99471692
_cell_angle_alpha   73.51075722
_cell_angle_beta   81.70654376
_cell_angle_gamma   77.21413311
_symmetry_Int_Tables_number   1
_chemical_formula_structural   Ba3(RhO2)14
_chemical_formula_sum   'Ba6 Rh28 O56'
_cell_volume   1114.64243246
_cell_formula_units_Z   2
loop_
 _symmetry_equiv_pos_site_id
 _symmetry_equiv_pos_as_xyz
  1  'x, y, z'
loop_
 _atom_site_type_symbol
 _atom_site_label
 _atom_site_symmetry_multiplicity
 _atom_site_fract_x
 _atom_site_fract_y
 _atom_site_fract_z
 _atom_site_occupancy
  Ba  Ba0  1  0.42340900  0.65319000  0.42502900  1
  Ba  Ba1  1  0.57659100  0.34681000  0.57497100  1
  Ba  Ba2  1  0.89897100  0.70187300  0.89930600  1
  Ba  Ba3  1  0.73104600  0.03602000  0.73164400  1
  Ba  Ba4  1  0.26895400  0.96398000  0.26835600  1
  Ba  Ba5  1  0.10102900  0.29812700  0.10069400  1
  Rh  Rh0  1  0.83313600  0.49045700  0.64506300  1
  Rh  Rh1  1  0.81694000  0.55257400  0.31426300  1
  Rh  Rh2  1  0.73732100  0.36531300  0.92652500  1
  Rh  Rh3  1  0.60924700  0.59007300  0.11808300  1
  Rh  Rh4  1  0.89530100  0.02045000  0.40281600  1
  Rh  Rh5  1  0.75148000  0.30577000  0.26078200  1
  Rh  Rh6  1  0.88034900  0.07933700  0.06914100  1
  Rh  Rh7  1  0.39075300  0.40992700  0.88191700  1
  Rh  Rh8  1  0.40467700  0.34898700  0.21723900  1
  Rh  Rh9  1  0.69005000  0.77689200  0.50303000  1
  Rh  Rh10  1  0.54698600  0.06299200  0.36052900  1
  Rh  Rh11  1  0.26267900  0.63468700  0.07347500  1
  Rh  Rh12  1  0.53153500  0.12400100  0.02589300  1
  Rh  Rh13  1  0.67362500  0.83847800  0.17058200  1
  Rh  Rh14  1  0.18306000  0.44742600  0.68573700  1
  Rh  Rh15  1  0.32637500  0.16152200  0.82941800  1
  Rh  Rh16  1  0.30995000  0.22310800  0.49697000  1
  Rh  Rh17  1  0.59532300  0.65101300  0.78276100  1
  Rh  Rh18  1  0.16686400  0.50954300  0.35493700  1
  Rh  Rh19  1  0.45301400  0.93700800  0.63947100  1
  Rh  Rh20  1  0.46846500  0.87599900  0.97410700  1
  Rh  Rh21  1  0.97632800  0.20543800  0.78688500  1
  Rh  Rh22  1  0.10469900  0.97955000  0.59718400  1
  Rh  Rh23  1  0.96043300  0.26575900  0.45582500  1
  Rh  Rh24  1  0.24852000  0.69423000  0.73921800  1
  Rh  Rh25  1  0.11965100  0.92066300  0.93085900  1
  Rh  Rh26  1  0.03956700  0.73424100  0.54417500  1
  Rh  Rh27  1  0.02367200  0.79456200  0.21311500  1
  O  O0  1  0.78870000  0.54074600  0.81582300  1
  O  O1  1  0.91813200  0.37892500  0.27430900  1
  O  O2  1  0.83331600  0.42884400  0.49122700  1
  O  O3  1  0.77929600  0.31193700  0.75282800  1
  O  O4  1  0.63630900  0.59772000  0.60936000  1
  O  O5  1  0.92399000  0.02746400  0.89649400  1
  O  O6  1  0.73704700  0.42729100  0.08202800  1
  O  O7  1  0.88099400  0.14393000  0.22350900  1
  O  O8  1  0.64571700  0.48079300  0.30544600  1
  O  O9  1  0.78928800  0.19409700  0.44813100  1
  O  O10  1  0.55593300  0.47488400  0.88068400  1
  O  O11  1  0.69835000  0.18791900  0.02224800  1
  O  O12  1  0.84137600  0.90234400  0.16598500  1
  O  O13  1  0.87235500  0.66843000  0.54921900  1
  O  O14  1  0.58598400  0.23969500  0.26465700  1
  O  O15  1  0.44406700  0.52511600  0.11931600  1
  O  O16  1  0.72881000  0.95437300  0.40769800  1
  O  O17  1  0.35428300  0.51920700  0.69455400  1
  O  O18  1  0.49676400  0.23353100  0.83898600  1
  O  O19  1  0.26295300  0.57270900  0.91797200  1
  O  O20  1  0.50679500  0.11571000  0.53331400  1
  O  O21  1  0.36369100  0.40228000  0.39064000  1
  O  O22  1  0.64851400  0.82855800  0.67501800  1
  O  O23  1  0.63748300  0.94803000  0.98503700  1
  O  O24  1  0.77530500  0.66265400  0.13331900  1
  O  O25  1  0.40253000  0.28739400  0.06152800  1
  O  O26  1  0.54612600  0.00226300  0.20484200  1
  O  O27  1  0.68924900  0.71581400  0.34863100  1
  O  O28  1  0.31075100  0.28418600  0.65136900  1
  O  O29  1  0.45387400  0.99773700  0.79515800  1
  O  O30  1  0.16668400  0.57115600  0.50877300  1
  O  O31  1  0.22469500  0.33734600  0.86668100  1
  O  O32  1  0.08186800  0.62107500  0.72569100  1
  O  O33  1  0.35148600  0.17144200  0.32498200  1
  O  O34  1  0.21130000  0.45925400  0.18417700  1
  O  O35  1  0.49320500  0.88429000  0.46668600  1
  O  O36  1  0.59747000  0.71260600  0.93847200  1
  O  O37  1  0.50323600  0.76646900  0.16101400  1
  O  O38  1  0.36251700  0.05197000  0.01496300  1
  O  O39  1  0.98476400  0.61707400  0.30810200  1
  O  O40  1  0.27119000  0.04562700  0.59230200  1
  O  O41  1  0.12764500  0.33157000  0.45078100  1
  O  O42  1  0.41401600  0.76030500  0.73534300  1
  O  O43  1  0.15862400  0.09765600  0.83401500  1
  O  O44  1  0.01523600  0.38292600  0.69189800  1
  O  O45  1  0.30165000  0.81208100  0.97775200  1
  O  O46  1  0.06526100  0.09227900  0.41184500  1
  O  O47  1  0.21071200  0.80590300  0.55186900  1
  O  O48  1  0.97691300  0.14175400  0.63344900  1
  O  O49  1  0.11900600  0.85607000  0.77649100  1
  O  O50  1  0.93030900  0.25582200  0.95753700  1
  O  O51  1  0.22070400  0.68806300  0.24717200  1
  O  O52  1  0.07601000  0.97253600  0.10350600  1
  O  O53  1  0.02308700  0.85824600  0.36655100  1
  O  O54  1  0.93473900  0.90772100  0.58815500  1
  O  O55  1  0.06969100  0.74417800  0.04246300  1
loop_
_geom_bond_atom_site_label_1
_geom_bond_atom_site_label_2
_geom_bond_distance
_geom_bond_site_symmetry_2
Ba0 O47 2.853287 1_555
Ba0 O27 2.863456 1_555
Ba0 O30 2.866338 1_555
Ba0 O37 2.883590 1_555
Ba0 O35 2.902638 1_555
Ba0 O51 2.924693 1_555
Ba0 O17 2.962069 1_555
Ba0 O8 2.984878 1_555
Ba0 O4 3.014782 1_555
Ba0 O21 3.030566 1_555
Ba1 O9 2.853287 1_555
Ba1 O28 2.863456 1_555
Ba1 O2 2.866338 1_555
Ba1 O18 2.883590 1_555
Ba1 O20 2.902638 1_555
Ba1 O3 2.924693 1_555
Ba1 O8 2.962069 1_555
Ba1 O17 2.984878 1_555
Ba1 O21 3.014782 1_555
Ba1 O4 3.030566 1_555
Ba2 O32 2.651096 1_655
Ba2 O24 2.654765 1_556
Ba2 O0 2.674452 1_555
Ba2 O55 2.682599 1_656
Ba2 O36 2.994268 1_555
Ba2 O49 3.002960 1_655
Ba3 O54 2.770453 1_545
Ba3 O23 2.773304 1_545
Ba3 O22 2.800784 1_545
Ba3 O5 2.817017 1_555
Ba3 O29 2.877165 1_545
Ba3 O48 2.900104 1_555
Ba3 O9 3.140767 1_555
Ba3 O18 3.148421 1_555
Ba3 O20 3.181681 1_555
Ba3 O3 3.193470 1_555
Ba4 O46 2.770453 1_565
Ba4 O38 2.773304 1_565
Ba4 O33 2.800784 1_565
Ba4 O52 2.817017 1_555
Ba4 O26 2.877165 1_565
Ba4 O53 2.900104 1_555
Ba4 O47 3.140767 1_555
Ba4 O37 3.148421 1_555
Ba4 O35 3.181681 1_555
Ba4 O51 3.193470 1_555
Ba5 O1 2.651096 1_455
Ba5 O31 2.654765 1_554
Ba5 O34 2.674452 1_555
Ba5 O50 2.682599 1_454
Ba5 O25 2.994268 1_555
Ba5 O7 3.002960 1_455
O0 Rh0 2.060755 1_555
O0 Rh2 2.066403 1_555
O0 Rh17 2.071450 1_555
O1 Rh5 2.050012 1_555
O1 Rh1 2.056526 1_555
O1 Rh23 2.070332 1_555
O2 Rh0 1.984332 1_555
O2 Rh1 2.028098 1_555
O2 Rh23 2.033088 1_555
O3 Rh21 2.092236 1_555
O3 Rh0 2.093599 1_555
O3 Rh2 2.107059 1_555
O4 Rh9 2.094809 1_555
O4 Rh0 2.095805 1_555
O4 Rh17 2.103437 1_555
O5 Rh25 2.081893 1_645
O5 Rh6 2.088486 1_556
O5 Rh21 2.088643 1_555
O6 Rh2 2.003775 1_554
O6 Rh5 2.033650 1_555
O6 Rh3 2.035894 1_555
O7 Rh6 2.010190 1_555
O7 Rh5 2.039981 1_555
O7 Rh4 2.045924 1_555
O8 Rh1 2.069102 1_555
O8 Rh3 2.101377 1_555
O8 Rh5 2.102781 1_555
O9 Rh23 2.064297 1_555
O9 Rh4 2.093868 1_555
O9 Rh5 2.110271 1_555
O10 Rh7 1.943767 1_555
O10 Rh17 1.992482 1_555
O10 Rh2 1.993840 1_555
O11 Rh12 1.947564 1_555
O11 Rh2 1.996962 1_554
O11 Rh6 1.998158 1_555
O12 Rh13 1.954044 1_555
O12 Rh6 1.996137 1_565
O12 Rh27 1.998593 1_655
O13 Rh26 1.959283 1_655
O13 Rh9 1.998593 1_555
O13 Rh0 2.003410 1_555
O14 Rh5 1.947197 1_555
O14 Rh10 1.991094 1_555
O14 Rh8 1.996062 1_555
O15 Rh3 1.943767 1_555
O15 Rh8 1.992482 1_555
O15 Rh11 1.993840 1_555
O16 Rh4 1.954375 1_565
O16 Rh9 1.996080 1_555
O16 Rh10 1.997502 1_565
O17 Rh14 2.069102 1_555
O17 Rh7 2.101377 1_555
O17 Rh24 2.102781 1_555
O18 Rh15 2.064998 1_555
O18 Rh12 2.094561 1_556
O18 Rh7 2.108249 1_555
O19 Rh11 2.003775 1_556
O19 Rh24 2.033650 1_555
O19 Rh7 2.035894 1_555
O20 Rh19 2.090316 1_545
O20 Rh10 2.093916 1_555
O20 Rh16 2.097571 1_555
O21 Rh16 2.094809 1_555
O21 Rh18 2.095805 1_555
O21 Rh8 2.103437 1_555
O22 Rh9 2.080154 1_555
O22 Rh17 2.082479 1_555
O22 Rh19 2.087857 1_555
O23 Rh20 2.056571 1_555
O23 Rh13 2.084577 1_556
O23 Rh12 2.094993 1_566
O24 Rh3 2.046604 1_555
O24 Rh1 2.054899 1_555
O24 Rh13 2.066389 1_555
O25 Rh8 2.008476 1_555
O25 Rh7 2.043354 1_554
O25 Rh12 2.044479 1_555
O26 Rh10 2.000247 1_555
O26 Rh13 2.036256 1_545
O26 Rh12 2.036290 1_555
O27 Rh9 1.988846 1_555
O27 Rh13 2.032755 1_555
O27 Rh1 2.032893 1_555
O28 Rh16 1.988846 1_555
O28 Rh15 2.032755 1_555
O28 Rh14 2.032893 1_555
O29 Rh19 2.000247 1_555
O29 Rh15 2.036256 1_565
O29 Rh20 2.036290 1_555
O30 Rh18 1.984332 1_555
O30 Rh14 2.028098 1_555
O30 Rh26 2.033088 1_555
O31 Rh7 2.046604 1_555
O31 Rh14 2.054899 1_555
O31 Rh15 2.066389 1_555
O32 Rh24 2.050012 1_555
O32 Rh14 2.056526 1_555
O32 Rh26 2.070332 1_555
O33 Rh16 2.080154 1_555
O33 Rh8 2.082479 1_555
O33 Rh10 2.087857 1_555
O34 Rh18 2.060755 1_555
O34 Rh11 2.066403 1_555
O34 Rh8 2.071450 1_555
O35 Rh10 2.090316 1_565
O35 Rh19 2.093916 1_555
O35 Rh9 2.097571 1_555
O36 Rh17 2.008476 1_555
O36 Rh3 2.043354 1_556
O36 Rh20 2.044479 1_555
O37 Rh13 2.064998 1_555
O37 Rh20 2.094561 1_554
O37 Rh3 2.108249 1_555
O38 Rh12 2.056571 1_555
O38 Rh15 2.084577 1_554
O38 Rh20 2.094993 1_544
O39 Rh1 1.955050 1_555
O39 Rh18 1.995393 1_655
O39 Rh27 1.995793 1_655
O40 Rh22 1.954375 1_545
O40 Rh16 1.996080 1_555
O40 Rh19 1.997502 1_545
O41 Rh23 1.959283 1_455
O41 Rh16 1.998593 1_555
O41 Rh18 2.003410 1_555
O42 Rh24 1.947197 1_555
O42 Rh19 1.991094 1_555
O42 Rh17 1.996062 1_555
O43 Rh15 1.954044 1_555
O43 Rh25 1.996137 1_545
O43 Rh21 1.998593 1_455
O44 Rh14 1.955050 1_555
O44 Rh0 1.995393 1_455
O44 Rh21 1.995793 1_455
O45 Rh20 1.947564 1_555
O45 Rh11 1.996962 1_556
O45 Rh25 1.998158 1_555
O46 Rh4 2.058242 1_455
O46 Rh23 2.082914 1_455
O46 Rh22 2.097963 1_545
O47 Rh26 2.064297 1_555
O47 Rh22 2.093868 1_555
O47 Rh24 2.110271 1_555
O48 Rh21 1.992321 1_555
O48 Rh22 2.031807 1_645
O48 Rh23 2.034958 1_555
O49 Rh25 2.010190 1_555
O49 Rh24 2.039981 1_555
O49 Rh22 2.045924 1_555
O50 Rh21 2.060619 1_555
O50 Rh2 2.062258 1_555
O50 Rh6 2.073202 1_556
O51 Rh27 2.092236 1_555
O51 Rh18 2.093599 1_555
O51 Rh11 2.107059 1_555
O52 Rh6 2.081893 1_465
O52 Rh25 2.088486 1_554
O52 Rh27 2.088643 1_555
O53 Rh27 1.992321 1_555
O53 Rh4 2.031807 1_465
O53 Rh26 2.034958 1_555
O54 Rh22 2.058242 1_655
O54 Rh26 2.082914 1_655
O54 Rh4 2.097963 1_565
O55 Rh27 2.060619 1_555
O55 Rh11 2.062258 1_555
O55 Rh25 2.073202 1_554
