# generated using pymatgen
data_Fe3Co2Sn(PO4)6
_symmetry_space_group_name_H-M   'P 1'
_cell_length_a   8.51424501
_cell_length_b   8.51424501
_cell_length_c   8.51424518
_cell_angle_alpha   61.35709681
_cell_angle_beta   61.35709681
_cell_angle_gamma   61.35709366
_symmetry_Int_Tables_number   1
_chemical_formula_structural   Fe3Co2Sn(PO4)6
_chemical_formula_sum   'Fe3 Co2 Sn1 P6 O24'
_cell_volume   449.74752154
_cell_formula_units_Z   1
loop_
 _symmetry_equiv_pos_site_id
 _symmetry_equiv_pos_as_xyz
  1  'x, y, z'
loop_
 _atom_site_type_symbol
 _atom_site_label
 _atom_site_symmetry_multiplicity
 _atom_site_fract_x
 _atom_site_fract_y
 _atom_site_fract_z
 _atom_site_occupancy
  Fe  Fe0  1  0.64592100  0.64592100  0.64592100  1
  Fe  Fe1  1  0.85378500  0.85378500  0.85378500  1
  Fe  Fe2  1  0.35566000  0.35566000  0.35566000  1
  Co  Co0  1  0.99433400  0.99433400  0.99433400  1
  Co  Co1  1  0.50085500  0.50085500  0.50085500  1
  Sn  Sn0  1  0.14347100  0.14347100  0.14347100  1
  P  P0  1  0.95102200  0.25303900  0.54971000  1
  P  P1  1  0.54971000  0.95102200  0.25303900  1
  P  P2  1  0.25303900  0.54971000  0.95102200  1
  P  P3  1  0.74593300  0.45764300  0.04747500  1
  P  P4  1  0.45764300  0.04747500  0.74593300  1
  P  P5  1  0.04747500  0.74593300  0.45764300  1
  O  O0  1  0.50184300  0.10996700  0.31941700  1
  O  O1  1  0.31941700  0.50184300  0.10996700  1
  O  O2  1  0.10996700  0.31941700  0.50184300  1
  O  O3  1  0.93788300  0.09352400  0.74729100  1
  O  O4  1  0.98588600  0.18158300  0.39672900  1
  O  O5  1  0.75195400  0.40820300  0.56433200  1
  O  O6  1  0.74729100  0.93788300  0.09352400  1
  O  O7  1  0.56433200  0.75195400  0.40820300  1
  O  O8  1  0.82021200  0.60944900  0.00510000  1
  O  O9  1  0.40820300  0.56433200  0.75195400  1
  O  O10  1  0.90481900  0.25497400  0.05970000  1
  O  O11  1  0.60944900  0.00510000  0.82021200  1
  O  O12  1  0.39672900  0.98588600  0.18158300  1
  O  O13  1  0.09352400  0.74729100  0.93788300  1
  O  O14  1  0.59178200  0.44098100  0.24757500  1
  O  O15  1  0.18158300  0.39672900  0.98588600  1
  O  O16  1  0.44098100  0.24757500  0.59178200  1
  O  O17  1  0.25497400  0.05970000  0.90481900  1
  O  O18  1  0.24757500  0.59178200  0.44098100  1
  O  O19  1  0.00510000  0.82021200  0.60944900  1
  O  O20  1  0.05970000  0.90481900  0.25497400  1
  O  O21  1  0.89268100  0.67766100  0.49759700  1
  O  O22  1  0.67766100  0.49759700  0.89268100  1
  O  O23  1  0.49759700  0.89268100  0.67766100  1
loop_
_geom_bond_atom_site_label_1
_geom_bond_atom_site_label_2
_geom_bond_distance
_geom_bond_site_symmetry_2
Fe0 O23 1.937893 1_555
Fe0 O21 1.937893 1_555
Fe0 O22 1.937893 1_555
Fe0 O5 2.095006 1_555
Fe0 O7 2.095006 1_555
Fe0 O9 2.095006 1_555
Fe1 O11 1.927922 1_565
Fe1 O8 1.927922 1_556
Fe1 O19 1.927922 1_655
Fe1 O13 2.122674 1_655
Fe1 O6 2.122674 1_556
Fe1 O3 2.122674 1_565
Fe2 O0 1.942907 1_555
Fe2 O2 1.942907 1_555
Fe2 O1 1.942907 1_555
Fe2 O18 2.098058 1_555
Fe2 O16 2.098058 1_555
Fe2 O14 2.098058 1_555
Co0 O13 2.060469 1_655
Co0 O6 2.060469 1_556
Co0 O3 2.060469 1_565
Co0 O10 2.229612 1_566
Co0 O17 2.229612 1_665
Co0 O20 2.229612 1_656
Co1 O5 2.137106 1_555
Co1 O7 2.137106 1_555
Co1 O9 2.137106 1_555
Co1 O18 2.141190 1_555
Co1 O16 2.141190 1_555
Co1 O14 2.141190 1_555
O0 P1 1.516765 1_545
O1 P2 1.516765 1_554
O2 P0 1.516765 1_455
O3 P0 1.569049 1_555
O4 P0 1.539713 1_555
O4 Sn0 2.008704 1_655
O5 P0 1.562772 1_555
O6 P1 1.569049 1_555
O7 P1 1.562772 1_555
O8 P3 1.522686 1_555
O9 P2 1.562772 1_555
O10 P3 1.594791 1_555
O10 Sn0 2.104679 1_655
O11 P4 1.522686 1_555
O12 P1 1.539713 1_555
O12 Sn0 2.008704 1_565
O13 P2 1.569049 1_555
O14 P3 1.564735 1_555
O15 P2 1.539713 1_555
O15 Sn0 2.008704 1_556
O16 P4 1.564735 1_555
O17 P4 1.594791 1_555
O17 Sn0 2.104679 1_556
O18 P5 1.564735 1_555
O19 P5 1.522686 1_555
O20 P5 1.594791 1_555
O20 Sn0 2.104679 1_565
O21 P5 1.518448 1_655
O22 P3 1.518448 1_556
O23 P4 1.518448 1_565
