# generated using pymatgen
data_Zr2N2O
_symmetry_space_group_name_H-M   'P 1'
_cell_length_a   8.76525598
_cell_length_b   8.79455677
_cell_length_c   8.79613505
_cell_angle_alpha   109.58656945
_cell_angle_beta   109.47168511
_cell_angle_gamma   109.23522016
_symmetry_Int_Tables_number   1
_chemical_formula_structural   Zr2N2O
_chemical_formula_sum   'Zr16 N16 O8'
_cell_volume   522.74258592
_cell_formula_units_Z   8
loop_
 _symmetry_equiv_pos_site_id
 _symmetry_equiv_pos_as_xyz
  1  'x, y, z'
loop_
 _atom_site_type_symbol
 _atom_site_label
 _atom_site_symmetry_multiplicity
 _atom_site_fract_x
 _atom_site_fract_y
 _atom_site_fract_z
 _atom_site_occupancy
  Zr  Zr0  1  0.46224808  0.21648909  0.25749039  1
  Zr  Zr1  1  0.00627085  0.00904894  0.99628708  1
  Zr  Zr2  1  0.50764111  0.51641101  0.00737075  1
  Zr  Zr3  1  0.98888367  0.49776103  0.49752636  1
  Zr  Zr4  1  0.74715420  0.46501037  0.71388858  1
  Zr  Zr5  1  0.24220158  0.02482032  0.78306330  1
  Zr  Zr6  1  0.71706840  0.25509277  0.96980898  1
  Zr  Zr7  1  0.21527133  0.25038366  0.46222173  1
  Zr  Zr8  1  0.96200274  0.70740103  0.24885988  1
  Zr  Zr9  1  0.03788938  0.28517897  0.74929508  1
  Zr  Zr10  1  0.78381619  0.75038910  0.52771444  1
  Zr  Zr11  1  0.27754251  0.74026818  0.02120328  1
  Zr  Zr12  1  0.75325887  0.96919187  0.21643963  1
  Zr  Zr13  1  0.49707104  0.99520762  0.50703653  1
  Zr  Zr14  1  0.25204199  0.53023408  0.28042610  1
  Zr  Zr15  1  0.53831953  0.79689043  0.75687263  1
  N  N0  1  0.46427758  0.23364220  0.51080484  1
  N  N1  1  0.95837575  0.22510705  0.46699834  1
  N  N2  1  0.73720642  0.50850624  0.96378035  1
  N  N3  1  0.02721843  0.54140638  0.77153379  1
  N  N4  1  0.23099744  0.95827002  0.99010949  1
  N  N5  1  0.98608642  0.03536266  0.76238055  1
  N  N6  1  0.72409782  0.46547170  0.44978890  1
  N  N7  1  0.48231670  0.72409404  0.94971714  1
  N  N8  1  0.77386524  0.04272287  0.01190947  1
  N  N9  1  0.97159009  0.45738972  0.22853947  1
  N  N10  1  0.26231593  0.48850892  0.03485995  1
  N  N11  1  0.04800997  0.77203858  0.53492625  1
  N  N12  1  0.45936781  0.99449911  0.72928545  1
  N  N13  1  0.23652274  0.27038667  0.23121022  1
  N  N14  1  0.73050864  0.74108380  0.27019599  1
  N  N15  1  0.52989362  0.76041593  0.48931622  1
  O  O0  1  0.27412883  0.26161005  0.73007819  1
  O  O1  1  0.76330841  0.72735938  0.77365122  1
  O  O2  1  0.54574520  0.00880091  0.27428496  1
  O  O3  1  0.77069358  0.22440548  0.73495684  1
  O  O4  1  0.27635423  0.52977031  0.54907825  1
  O  O5  1  0.01534070  0.96464493  0.23905926  1
  O  O6  1  0.51283124  0.27357765  0.04495691  1
  O  O7  1  0.23026973  0.78114496  0.26307320  1
loop_
_geom_bond_atom_site_label_1
_geom_bond_atom_site_label_2
_geom_bond_distance
_geom_bond_site_symmetry_2
N0 Zr7 2.144797 1_555
N0 Zr0 2.175854 1_555
N0 Zr4 2.182904 1_555
N0 Zr13 2.199482 1_545
N1 Zr12 2.126426 1_545
N1 Zr9 2.157501 1_655
N1 Zr7 2.204792 1_655
N1 Zr3 2.234128 1_555
N2 Zr4 2.138108 1_555
N2 Zr8 2.173560 1_556
N2 Zr2 2.188483 1_556
N2 Zr6 2.197081 1_555
N3 Zr11 2.092824 1_556
N3 Zr4 2.142368 1_455
N3 Zr3 2.196398 1_455
N3 Zr9 2.231678 1_555
N4 Zr5 2.113058 1_565
N4 Zr11 2.170157 1_556
N4 Zr1 2.171897 1_565
N4 Zr0 2.237200 1_566
N5 Zr1 2.102755 1_655
N5 Zr9 2.143226 1_655
N5 Zr10 2.202094 1_545
N5 Zr5 2.226546 1_655
N6 Zr3 2.116526 1_555
N6 Zr0 2.130911 1_555
N6 Zr10 2.183465 1_555
N6 Zr4 2.265241 1_555
N7 Zr2 2.110828 1_556
N7 Zr11 2.120845 1_556
N7 Zr15 2.145784 1_555
N7 Zr12 2.304883 1_556
N8 Zr12 2.146434 1_545
N8 Zr15 2.165341 1_544
N8 Zr1 2.193896 1_654
N8 Zr6 2.196985 1_554
N9 Zr6 2.146383 1_554
N9 Zr14 2.163323 1_655
N9 Zr8 2.177551 1_555
N9 Zr3 2.215719 1_555
N10 Zr14 2.104408 1_555
N10 Zr9 2.180208 1_554
N10 Zr2 2.186637 1_555
N10 Zr11 2.220098 1_555
N11 Zr5 2.092858 1_565
N11 Zr8 2.171881 1_455
N11 Zr3 2.173911 1_455
N11 Zr10 2.237480 1_455
N12 Zr13 2.090105 1_555
N12 Zr15 2.126321 1_555
N12 Zr5 2.183674 1_565
N12 Zr6 2.232232 1_565
N13 Zr14 2.126235 1_555
N13 Zr0 2.139912 1_555
N13 Zr1 2.145862 1_554
N13 Zr7 2.159890 1_555
N14 Zr2 2.109068 1_555
N14 Zr10 2.121533 1_555
N14 Zr12 2.173268 1_555
N14 Zr8 2.202927 1_555
N15 Zr13 2.139244 1_555
N15 Zr14 2.163289 1_555
N15 Zr10 2.173406 1_555
N15 Zr15 2.238189 1_555
O0 Zr7 2.197096 1_555
O0 Zr9 2.202725 1_555
O0 Zr5 2.232905 1_555
O0 Zr2 2.268290 1_556
O1 Zr4 2.131125 1_555
O1 Zr15 2.223931 1_555
O1 Zr1 2.235679 1_665
O1 Zr10 2.298302 1_555
O2 Zr12 2.145769 1_545
O2 Zr0 2.209816 1_555
O2 Zr13 2.258456 1_545
O2 Zr11 2.321131 1_545
O3 Zr9 2.172515 1_655
O3 Zr13 2.175810 1_545
O3 Zr6 2.217747 1_555
O3 Zr4 2.253779 1_555
O4 Zr7 2.123559 1_555
O4 Zr15 2.213809 1_555
O4 Zr14 2.302385 1_555
O4 Zr3 2.306364 1_455
O5 Zr7 2.176444 1_565
O5 Zr8 2.192017 1_455
O5 Zr12 2.253780 1_455
O5 Zr1 2.277144 1_564
O6 Zr6 2.139337 1_554
O6 Zr0 2.231324 1_555
O6 Zr2 2.280260 1_555
O6 Zr5 2.297495 1_554
O7 Zr13 2.159395 1_555
O7 Zr8 2.170319 1_455
O7 Zr11 2.236146 1_555
O7 Zr14 2.326563 1_555
