# generated using pymatgen
data_Li3VP2HO8
_symmetry_space_group_name_H-M   'P 1'
_cell_length_a   5.55702444
_cell_length_b   13.47187301
_cell_length_c   8.56445331
_cell_angle_alpha   71.51013424
_cell_angle_beta   90.04582868
_cell_angle_gamma   79.02663290
_symmetry_Int_Tables_number   1
_chemical_formula_structural   Li3VP2HO8
_chemical_formula_sum   'Li12 V4 P8 H4 O32'
_cell_volume   595.66034086
_cell_formula_units_Z   4
loop_
 _symmetry_equiv_pos_site_id
 _symmetry_equiv_pos_as_xyz
  1  'x, y, z'
loop_
 _atom_site_type_symbol
 _atom_site_label
 _atom_site_symmetry_multiplicity
 _atom_site_fract_x
 _atom_site_fract_y
 _atom_site_fract_z
 _atom_site_occupancy
  Li  Li0  1  0.87535400  0.24972100  0.87438000  1
  Li  Li1  1  0.37535600  0.24972500  0.37433500  1
  Li  Li2  1  0.12468700  0.75021500  0.12565100  1
  Li  Li3  1  0.62467300  0.75022600  0.62557900  1
  Li  Li4  1  0.24196100  0.37992700  0.99796400  1
  Li  Li5  1  0.74182000  0.37991000  0.49798400  1
  Li  Li6  1  0.49281500  0.88025800  0.24749300  1
  Li  Li7  1  0.99256000  0.88024600  0.74710500  1
  Li  Li8  1  0.50729700  0.11972000  0.75294400  1
  Li  Li9  1  0.00731100  0.11972200  0.25283500  1
  Li  Li10  1  0.75796900  0.62008700  0.00200800  1
  Li  Li11  1  0.25809100  0.62007800  0.50200600  1
  V  V0  1  0.50052500  0.00004500  0.49986000  1
  V  V1  1  0.74946500  0.49997300  0.74997000  1
  V  V2  1  0.00025500  0.00003800  0.00033800  1
  V  V3  1  0.24991300  0.50008200  0.25025800  1
  P  P0  1  0.44034600  0.12380100  0.07753500  1
  P  P1  1  0.94056300  0.12376900  0.57747600  1
  P  P2  1  0.69052300  0.62400000  0.32797800  1
  P  P3  1  0.19060600  0.62396400  0.82806300  1
  P  P4  1  0.30932200  0.37602400  0.67194700  1
  P  P5  1  0.80926700  0.37604800  0.17196500  1
  P  P6  1  0.55976600  0.87625000  0.92266200  1
  P  P7  1  0.05959400  0.87616000  0.42240200  1
  H  H0  1  0.12636300  0.24989800  0.62455700  1
  H  H1  1  0.62656200  0.24993600  0.12456700  1
  H  H2  1  0.37365700  0.75016800  0.87546400  1
  H  H3  1  0.87374600  0.75009200  0.37542600  1
  O  O0  1  0.48661400  0.02822800  0.23748000  1
  O  O1  1  0.98675000  0.02823800  0.73740700  1
  O  O2  1  0.73883700  0.52816700  0.48748200  1
  O  O3  1  0.23883400  0.52816900  0.98753100  1
  O  O4  1  0.26113000  0.47182600  0.51248900  1
  O  O5  1  0.76113500  0.47183400  0.01242800  1
  O  O6  1  0.51320000  0.97175000  0.76261200  1
  O  O7  1  0.01337600  0.97174900  0.26251400  1
  O  O8  1  0.42239400  0.22988700  0.12444700  1
  O  O9  1  0.92268800  0.22990100  0.62436100  1
  O  O10  1  0.67135200  0.73019500  0.37500000  1
  O  O11  1  0.17131400  0.73021300  0.87497000  1
  O  O12  1  0.32855300  0.26979400  0.62494700  1
  O  O13  1  0.82833300  0.26981300  0.12488200  1
  O  O14  1  0.57713300  0.77013500  0.87572900  1
  O  O15  1  0.07735600  0.76999200  0.37553400  1
  O  O16  1  0.19391100  0.13049700  0.98651100  1
  O  O17  1  0.69406600  0.13050700  0.48645600  1
  O  O18  1  0.44304300  0.63066100  0.23844300  1
  O  O19  1  0.94306500  0.63065000  0.73844400  1
  O  O20  1  0.55681300  0.36932500  0.76154200  1
  O  O21  1  0.05680400  0.36931900  0.26153600  1
  O  O22  1  0.80679900  0.86955500  0.01308400  1
  O  O23  1  0.30606000  0.86946100  0.51341100  1
  O  O24  1  0.09335200  0.38005200  0.78708700  1
  O  O25  1  0.59332400  0.38008000  0.28703700  1
  O  O26  1  0.34412000  0.88039900  0.03822400  1
  O  O27  1  0.84352800  0.88044600  0.53744500  1
  O  O28  1  0.65631900  0.11948300  0.96243000  1
  O  O29  1  0.15640300  0.11963800  0.46204900  1
  O  O30  1  0.90650300  0.61999000  0.21285600  1
  O  O31  1  0.40652300  0.61996400  0.71288300  1
loop_
_geom_bond_atom_site_label_1
_geom_bond_atom_site_label_2
_geom_bond_distance
_geom_bond_site_symmetry_2
Li0 O16 2.138276 1_655
Li0 O20 2.141805 1_555
Li0 O9 2.249968 1_555
Li0 O13 2.255358 1_556
Li0 O24 2.255646 1_655
Li0 O28 2.259190 1_555
Li1 O17 2.138804 1_555
Li1 O21 2.141715 1_555
Li1 O8 2.248798 1_555
Li1 O25 2.255786 1_555
Li1 O12 2.256053 1_555
Li1 O29 2.257052 1_555
Li2 O22 2.137228 1_455
Li2 O18 2.140715 1_555
Li2 O15 2.248583 1_555
Li2 O30 2.255183 1_455
Li2 O11 2.256186 1_554
Li2 O26 2.259684 1_555
Li3 O23 2.138623 1_555
Li3 O19 2.141118 1_555
Li3 O14 2.251664 1_555
Li3 O10 2.255505 1_555
Li3 O31 2.255512 1_555
Li3 O27 2.258379 1_555
Li4 O3 1.967304 1_555
Li4 O24 1.984678 1_555
Li4 O8 2.025437 1_556
Li4 O21 2.455568 1_556
Li5 O2 1.967491 1_555
Li5 O25 1.984740 1_555
Li5 O9 2.025671 1_555
Li5 O20 2.455148 1_555
Li6 O0 1.961564 1_565
Li6 O26 1.972283 1_555
Li6 O10 2.024413 1_555
Li6 O23 2.477109 1_555
Li7 O1 1.962996 1_565
Li7 O27 1.975815 1_555
Li7 O11 2.025162 1_655
Li7 O22 2.475425 1_556
Li8 O6 1.962681 1_545
Li8 O28 1.974256 1_555
Li8 O12 2.025803 1_555
Li8 O17 2.481563 1_555
Li9 O7 1.962536 1_545
Li9 O29 1.973061 1_555
Li9 O13 2.026277 1_455
Li9 O16 2.479918 1_554
Li10 O5 1.967443 1_555
Li10 O30 1.984417 1_555
Li10 O14 2.025820 1_554
Li10 O19 2.455453 1_554
Li11 O4 1.967411 1_555
Li11 O31 1.984324 1_555
Li11 O15 2.024684 1_555
Li11 O18 2.455060 1_555
H0 O12 1.203948 1_555
H0 O9 1.212425 1_455
H1 O13 1.201527 1_555
H1 O8 1.215333 1_555
H2 O11 1.205161 1_555
H2 O14 1.211226 1_555
H3 O10 1.205081 1_555
H3 O15 1.211497 1_655
O0 P0 1.534622 1_555
O0 V0 2.155729 1_555
O1 P1 1.534247 1_555
O1 V2 2.160345 1_656
O2 P2 1.534221 1_555
O2 V1 2.156668 1_555
O3 P3 1.533753 1_555
O3 V3 2.158902 1_556
O4 P4 1.533747 1_555
O4 V3 2.154343 1_555
O5 P5 1.534051 1_555
O5 V1 2.156500 1_554
O6 P6 1.534684 1_555
O6 V0 2.158630 1_565
O7 P7 1.534428 1_555
O7 V2 2.153774 1_565
O8 P0 1.588683 1_555
O9 P1 1.589205 1_555
O10 P2 1.589892 1_555
O11 P3 1.589996 1_555
O12 P4 1.590212 1_555
O13 P5 1.590756 1_555
O14 P6 1.589513 1_555
O15 P7 1.589664 1_555
O16 P0 1.548517 1_556
O16 V2 2.202106 1_556
O17 P1 1.548649 1_555
O17 V0 2.202456 1_555
O18 P2 1.547600 1_555
O18 V3 2.205146 1_555
O19 P3 1.548150 1_655
O19 V1 2.208484 1_555
O20 P4 1.547762 1_555
O20 V1 2.204697 1_555
O21 P5 1.547780 1_455
O21 V3 2.208199 1_555
O22 P6 1.548937 1_554
O22 V2 2.203539 1_665
O23 P7 1.548595 1_555
O23 V0 2.206931 1_565
O24 P4 1.557807 1_555
O24 V1 2.204743 1_455
O25 P5 1.557321 1_555
O25 V3 2.203651 1_555
O26 P6 1.558913 1_554
O26 V2 2.202101 1_565
O27 P7 1.557991 1_655
O27 V0 2.198556 1_565
O28 P0 1.557978 1_556
O28 V2 2.201014 1_656
O29 P1 1.558966 1_455
O29 V0 2.202874 1_555
O30 P2 1.557728 1_555
O30 V3 2.202509 1_655
O31 P3 1.557769 1_555
O31 V1 2.201444 1_555
