# generated using pymatgen
data_Li2MnSiO5
_symmetry_space_group_name_H-M   'P 1'
_cell_length_a   4.48662900
_cell_length_b   6.38383300
_cell_length_c   6.38383300
_cell_angle_alpha   90.00000000
_cell_angle_beta   89.99999102
_cell_angle_gamma   90.00000000
_symmetry_Int_Tables_number   1
_chemical_formula_structural   Li2MnSiO5
_chemical_formula_sum   'Li4 Mn2 Si2 O10'
_cell_volume   182.84504428
_cell_formula_units_Z   2
loop_
 _symmetry_equiv_pos_site_id
 _symmetry_equiv_pos_as_xyz
  1  'x, y, z'
loop_
 _atom_site_type_symbol
 _atom_site_label
 _atom_site_symmetry_multiplicity
 _atom_site_fract_x
 _atom_site_fract_y
 _atom_site_fract_z
 _atom_site_occupancy
  Li  Li0  1  0.00000100  0.99999700  0.99999600  1
  Li  Li1  1  0.00000200  0.99999700  0.50000200  1
  Li  Li2  1  0.00000200  0.50000400  0.50000200  1
  Li  Li3  1  0.00000100  0.50000300  0.99999600  1
  Mn  Mn0  1  0.38011600  0.74999900  0.75000600  1
  Mn  Mn1  1  0.61998100  0.25000000  0.25000300  1
  Si  Si0  1  0.49999200  0.25000000  0.75000000  1
  Si  Si1  1  0.49999300  0.75000000  0.25000000  1
  O  O0  1  0.22904400  0.25000100  0.24999900  1
  O  O1  1  0.77091600  0.75000000  0.75000000  1
  O  O2  1  0.28054300  0.04363100  0.75000000  1
  O  O3  1  0.71944600  0.25000000  0.54362900  1
  O  O4  1  0.71944600  0.25000000  0.95636900  1
  O  O5  1  0.28054300  0.45636900  0.74999900  1
  O  O6  1  0.71944500  0.54363000  0.24999900  1
  O  O7  1  0.28054200  0.75000000  0.04363200  1
  O  O8  1  0.28054200  0.75000000  0.45636800  1
  O  O9  1  0.71944500  0.95637000  0.24999900  1
loop_
_geom_bond_atom_site_label_1
_geom_bond_atom_site_label_2
_geom_bond_distance
_geom_bond_site_symmetry_2
Li0 O2 2.051557 1_565
Li0 O7 2.051561 1_556
Li0 O4 2.051622 1_465
Li0 O9 2.051624 1_456
Li0 O0 2.479987 1_566
Li0 O1 2.480007 1_455
Li1 O8 2.051557 1_555
Li1 O2 2.051565 1_565
Li1 O3 2.051625 1_465
Li1 O9 2.051628 1_455
Li1 O0 2.479985 1_565
Li1 O1 2.480017 1_455
Li2 O8 2.051552 1_555
Li2 O5 2.051561 1_555
Li2 O6 2.051627 1_455
Li2 O3 2.051630 1_455
Li2 O0 2.479981 1_555
Li2 O1 2.480013 1_455
Li3 O7 2.051561 1_556
Li3 O5 2.051562 1_555
Li3 O4 2.051622 1_455
Li3 O6 2.051624 1_456
Li3 O0 2.479978 1_556
Li3 O1 2.480007 1_455
Mn0 O1 1.753375 1_555
Mn0 O7 1.926963 1_556
Mn0 O5 1.926986 1_555
Mn0 O2 1.926999 1_565
Mn0 O8 1.927037 1_555
Mn1 O0 1.753989 1_555
Mn1 O3 1.926849 1_555
Mn1 O9 1.926873 1_545
Mn1 O6 1.926873 1_555
Mn1 O4 1.926899 1_554
O2 Si0 1.644694 1_555
O3 Si0 1.644718 1_555
O4 Si0 1.644708 1_555
O5 Si0 1.644694 1_555
O6 Si1 1.644707 1_555
O7 Si1 1.644695 1_555
O8 Si1 1.644694 1_555
O9 Si1 1.644707 1_555
