# generated using pymatgen
data_Li6Sb2S7
_symmetry_space_group_name_H-M   'P 1'
_cell_length_a   7.57843400
_cell_length_b   6.49862800
_cell_length_c   12.68228243
_cell_angle_alpha   70.20096501
_cell_angle_beta   90.00000000
_cell_angle_gamma   90.00000000
_symmetry_Int_Tables_number   1
_chemical_formula_structural   Li6Sb2S7
_chemical_formula_sum   'Li12 Sb4 S14'
_cell_volume   587.67307853
_cell_formula_units_Z   2
loop_
 _symmetry_equiv_pos_site_id
 _symmetry_equiv_pos_as_xyz
  1  'x, y, z'
loop_
 _atom_site_type_symbol
 _atom_site_label
 _atom_site_symmetry_multiplicity
 _atom_site_fract_x
 _atom_site_fract_y
 _atom_site_fract_z
 _atom_site_occupancy
  Li  Li0  1  0.79281000  0.22553000  0.14544500  1
  Li  Li1  1  0.22748000  0.22717100  0.13845500  1
  Li  Li2  1  0.51754700  0.75423400  0.14851500  1
  Li  Li3  1  0.72748000  0.77282900  0.36154500  1
  Li  Li4  1  0.29281000  0.77447000  0.35455500  1
  Li  Li5  1  0.01754700  0.24576600  0.35148500  1
  Li  Li6  1  0.98245300  0.75423400  0.64851500  1
  Li  Li7  1  0.70719000  0.22553000  0.64544500  1
  Li  Li8  1  0.27252000  0.22717100  0.63845500  1
  Li  Li9  1  0.48245300  0.24576600  0.85148500  1
  Li  Li10  1  0.77252000  0.77282900  0.86154500  1
  Li  Li11  1  0.20719000  0.77447000  0.85455500  1
  Sb  Sb0  1  0.00273000  0.75163400  0.12789200  1
  Sb  Sb1  1  0.50273000  0.24836600  0.37210800  1
  Sb  Sb2  1  0.49727000  0.75163400  0.62789200  1
  Sb  Sb3  1  0.99727000  0.24836600  0.87210800  1
  S  S0  1  0.00000000  0.50000000  0.00000000  1
  S  S1  1  0.75999900  0.99142700  0.00472400  1
  S  S2  1  0.01205900  0.95450100  0.26205600  1
  S  S3  1  0.51205900  0.04549900  0.23794400  1
  S  S4  1  0.26709300  0.50429900  0.24233000  1
  S  S5  1  0.76709300  0.49570100  0.25767000  1
  S  S6  1  0.25999900  0.00857300  0.49527600  1
  S  S7  1  0.74000100  0.99142700  0.50472400  1
  S  S8  1  0.50000000  0.50000000  0.50000000  1
  S  S9  1  0.23290700  0.50429900  0.74233000  1
  S  S10  1  0.73290700  0.49570100  0.75767000  1
  S  S11  1  0.48794100  0.95450100  0.76205600  1
  S  S12  1  0.98794100  0.04549900  0.73794400  1
  S  S13  1  0.24000100  0.00857300  0.99527600  1
loop_
_geom_bond_atom_site_label_1
_geom_bond_atom_site_label_2
_geom_bond_distance
_geom_bond_site_symmetry_2
Li0 S2 2.507100 1_645
Li0 S3 2.518350 1_555
Li0 S0 2.611616 1_655
Li0 S5 2.615180 1_555
Li0 S1 2.720419 1_545
Li1 S2 2.525991 1_545
Li1 S3 2.574474 1_555
Li1 S4 2.583848 1_555
Li1 S13 2.659293 1_554
Li1 S0 2.662660 1_555
Li2 S3 2.514986 1_565
Li2 S4 2.519358 1_555
Li2 S5 2.596160 1_555
Li2 S1 2.678305 1_555
Li2 S13 2.959201 1_564
Li3 S3 2.525991 1_565
Li3 S2 2.574474 1_655
Li3 S5 2.583848 1_555
Li3 S7 2.659293 1_555
Li3 S8 2.662660 1_555
Li4 S3 2.507100 1_565
Li4 S2 2.518350 1_555
Li4 S8 2.611616 1_555
Li4 S4 2.615180 1_555
Li4 S6 2.720419 1_565
Li5 S2 2.514986 1_545
Li5 S5 2.519358 1_455
Li5 S4 2.596160 1_555
Li5 S6 2.678305 1_555
Li5 S7 2.959201 1_445
Li6 S12 2.514986 1_565
Li6 S9 2.519358 1_655
Li6 S10 2.596160 1_555
Li6 S7 2.678305 1_555
Li6 S6 2.959201 1_665
Li7 S11 2.507100 1_545
Li7 S12 2.518350 1_555
Li7 S8 2.611616 1_555
Li7 S10 2.615180 1_555
Li7 S7 2.720419 1_545
Li8 S11 2.525991 1_545
Li8 S12 2.574474 1_455
Li8 S9 2.583848 1_555
Li8 S6 2.659293 1_555
Li8 S8 2.662660 1_555
Li9 S11 2.514986 1_545
Li9 S10 2.519358 1_555
Li9 S9 2.596160 1_555
Li9 S13 2.678305 1_555
Li9 S1 2.959201 1_546
Li10 S12 2.525991 1_565
Li10 S11 2.574474 1_555
Li10 S10 2.583848 1_555
Li10 S1 2.659293 1_556
Li10 S0 2.662660 1_656
Li11 S12 2.507100 1_465
Li11 S11 2.518350 1_555
Li11 S0 2.611616 1_556
Li11 S9 2.615180 1_555
Li11 S13 2.720419 1_565
S0 Sb0 2.664984 1_555
S0 Sb3 2.664984 1_454
S1 Sb0 2.569668 1_655
S1 Sb3 2.635832 1_564
S2 Sb0 2.481496 1_555
S3 Sb1 2.481496 1_555
S4 Sb1 2.609534 1_555
S4 Sb0 2.668973 1_555
S5 Sb0 2.609534 1_655
S5 Sb1 2.668973 1_555
S6 Sb1 2.569668 1_555
S6 Sb2 2.635832 1_545
S7 Sb2 2.569668 1_555
S7 Sb1 2.635832 1_565
S8 Sb2 2.664984 1_555
S8 Sb1 2.664984 1_555
S9 Sb3 2.609534 1_455
S9 Sb2 2.668973 1_555
S10 Sb2 2.609534 1_555
S10 Sb3 2.668973 1_555
S11 Sb2 2.481496 1_555
S12 Sb3 2.481496 1_555
S13 Sb3 2.569668 1_455
S13 Sb0 2.635832 1_546
