# generated using pymatgen
data_Sr16Fe6Co2Mo8O45
_symmetry_space_group_name_H-M   'P 1'
_cell_length_a   5.71196532
_cell_length_b   5.69999151
_cell_length_c   45.62623663
_cell_angle_alpha   120.10022915
_cell_angle_beta   120.30622817
_cell_angle_gamma   89.68092715
_symmetry_Int_Tables_number   1
_chemical_formula_structural   Sr16Fe6Co2Mo8O45
_chemical_formula_sum   'Sr16 Fe6 Co2 Mo8 O45'
_cell_volume   1046.86376062
_cell_formula_units_Z   1
loop_
 _symmetry_equiv_pos_site_id
 _symmetry_equiv_pos_as_xyz
  1  'x, y, z'
loop_
 _atom_site_type_symbol
 _atom_site_label
 _atom_site_symmetry_multiplicity
 _atom_site_fract_x
 _atom_site_fract_y
 _atom_site_fract_z
 _atom_site_occupancy
  Sr  Sr0  1  0.26020332  0.76124268  0.94013230  1
  Sr  Sr1  1  0.25694224  0.75757232  0.81428477  1
  Sr  Sr2  1  0.76197758  0.26245409  0.94049960  1
  Sr  Sr3  1  0.25621681  0.75827197  0.68908403  1
  Sr  Sr4  1  0.75518109  0.25589354  0.81406401  1
  Sr  Sr5  1  0.24075882  0.73984089  0.55983715  1
  Sr  Sr6  1  0.75812128  0.26008611  0.68982568  1
  Sr  Sr7  1  0.26638876  0.76752441  0.44185635  1
  Sr  Sr8  1  0.74774588  0.24659772  0.56201484  1
  Sr  Sr9  1  0.25773378  0.75792949  0.31436522  1
  Sr  Sr10  1  0.75997678  0.26029104  0.44010607  1
  Sr  Sr11  1  0.26359375  0.76620606  0.19164473  1
  Sr  Sr12  1  0.74419768  0.24318971  0.31085942  1
  Sr  Sr13  1  0.25279775  0.75213446  0.06296889  1
  Sr  Sr14  1  0.76138106  0.26184347  0.19080524  1
  Sr  Sr15  1  0.74059648  0.23946334  0.05989468  1
  Fe  Fe0  1  0.99596327  0.99653978  0.62395975  1
  Fe  Fe1  1  0.00752793  0.00585160  0.50143606  1
  Fe  Fe2  1  -0.00053114  -0.00076353  0.37480845  1
  Fe  Fe3  1  0.00628573  0.00701716  0.00156884  1
  Fe  Fe4  1  0.00766838  0.00853396  0.25225596  1
  Fe  Fe5  1  0.99701887  0.99688781  0.12428070  1
  Co  Co0  1  0.00393055  0.00392594  0.87598289  1
  Co  Co1  1  0.00653899  0.00831242  0.75193619  1
  Mo  Mo0  1  0.50632981  0.50681015  0.00154150  1
  Mo  Mo1  1  0.50030772  0.50048042  0.87510311  1
  Mo  Mo2  1  0.50053605  0.50179340  0.75030753  1
  Mo  Mo3  1  0.51304814  0.51422353  0.62848351  1
  Mo  Mo4  1  0.50855354  0.50790562  0.50195101  1
  Mo  Mo5  1  0.51106510  0.51053989  0.37767805  1
  Mo  Mo6  1  0.50791878  0.50811456  0.25213812  1
  Mo  Mo7  1  0.50808315  0.50800677  0.12703289  1
  O  O0  1  0.26132988  0.25976865  0.94018174  1
  O  O1  1  0.21758497  0.69796004  0.87380893  1
  O  O2  1  0.29344566  0.21858961  0.87399933  1
  O  O3  1  0.25363367  0.25351147  0.81330782  1
  O  O4  1  0.73671113  0.73478911  0.93394024  1
  O  O5  1  0.69913240  0.77391677  0.87412830  1
  O  O6  1  0.21887257  0.69767100  0.74897948  1
  O  O7  1  0.77373324  0.29297512  0.87397962  1
  O  O8  1  0.29429317  0.21955597  0.74879422  1
  O  O9  1  0.25388781  0.25892640  0.68898073  1
  O  O10  1  0.74131123  0.74143005  0.81037241  1
  O  O11  1  0.69653177  0.77147508  0.74885193  1
  O  O12  1  0.20236785  0.69858509  0.62087675  1
  O  O13  1  0.77149042  0.29429881  0.74878850  1
  O  O14  1  0.27300339  0.21078128  0.61765402  1
  O  O15  1  0.74971897  0.75103724  0.68747046  1
  O  O16  1  0.67036401  0.72903975  0.61785484  1
  O  O17  1  0.22181387  0.72955092  0.50203734  1
  O  O18  1  0.76725883  0.27112879  0.62169217  1
  O  O19  1  0.29467421  0.22393244  0.50369665  1
  O  O20  1  0.26464644  0.26208619  0.44065051  1
  O  O21  1  0.73951584  0.73772701  0.55991004  1
  O  O22  1  0.73449685  0.80595910  0.50386362  1
  O  O23  1  0.20203947  0.65857126  0.36449675  1
  O  O24  1  0.79657732  0.28808303  0.50240927  1
  O  O25  1  0.28677261  0.21601942  0.37418803  1
  O  O26  1  0.74749194  0.74287105  0.43631861  1
  O  O27  1  0.70852465  0.77874410  0.37448180  1
  O  O28  1  0.22230627  0.72881758  0.25222733  1
  O  O29  1  0.71269891  0.25621761  0.36412418  1
  O  O30  1  0.29369419  0.22585838  0.25318515  1
  O  O31  1  0.26656937  0.26333525  0.19146713  1
  O  O32  1  0.74354559  0.74386963  0.31087307  1
  O  O33  1  0.72896019  0.79744976  0.25280874  1
  O  O34  1  0.20286035  0.65940154  0.11486128  1
  O  O35  1  0.79794460  0.29049840  0.25290943  1
  O  O36  1  0.27898379  0.21162808  0.12332704  1
  O  O37  1  0.74358758  0.74251609  0.18583749  1
  O  O38  1  0.71020684  0.77784605  0.12394685  1
  O  O39  1  0.22338572  0.72897538  0.00218029  1
  O  O40  1  0.71828386  0.26219984  0.11505769  1
  O  O41  1  0.28962629  0.22428179  0.00227132  1
  O  O42  1  0.73922938  0.73996821  0.05968118  1
  O  O43  1  0.72722141  0.79386007  0.00194466  1
  O  O44  1  0.79641360  0.29037081  0.00257553  1
loop_
_geom_bond_atom_site_label_1
_geom_bond_atom_site_label_2
_geom_bond_distance
_geom_bond_site_symmetry_2
Fe0 O18 2.042110 1_565
Fe0 O12 2.049287 1_655
Fe0 O21 2.059542 1_555
Fe0 O9 2.090814 1_665
Fe0 O14 2.216210 1_665
Fe0 O16 2.223534 1_555
Fe1 O17 1.991793 1_545
Fe1 O19 1.992326 1_555
Fe1 O24 2.000647 1_455
Fe1 O22 2.015775 1_445
Fe1 O26 2.093875 1_445
Fe2 O32 2.055789 1_445
Fe2 O27 2.078713 1_445
Fe2 O25 2.079740 1_555
Fe2 O20 2.117108 1_555
Fe2 O23 2.222335 1_545
Fe2 O29 2.224853 1_455
Fe3 O44 2.001843 1_455
Fe3 O39 2.009426 1_545
Fe3 O41 2.020929 1_555
Fe3 O43 2.021735 1_445
Fe3 O4 2.174596 1_444
Fe4 O35 1.996385 1_455
Fe4 O28 2.005716 1_545
Fe4 O33 2.018648 1_445
Fe4 O30 2.026192 1_555
Fe4 O37 2.135671 1_445
Fe5 O38 2.054627 1_555
Fe5 O36 2.059166 1_665
Fe5 O42 2.077161 1_555
Fe5 O31 2.160347 1_665
Fe5 O34 2.218820 1_655
Fe5 O40 2.221315 1_565
Co0 O0 2.064261 1_555
Co0 O10 2.109653 1_445
Co0 O7 2.111256 1_455
Co0 O1 2.113216 1_545
Co0 O5 2.126628 1_445
Co0 O2 2.127139 1_555
Co1 O3 1.973363 1_555
Co1 O15 2.072861 1_445
Co1 O13 2.120450 1_455
Co1 O6 2.127444 1_545
Co1 O11 2.135970 1_445
Co1 O8 2.145907 1_555
Mo0 O42 1.869442 1_555
Mo0 O0 1.973015 1_554
Mo0 O39 2.050411 1_555
Mo0 O44 2.055832 1_555
Mo0 O43 2.058825 1_555
Mo0 O41 2.060163 1_555
Mo1 O4 1.891864 1_555
Mo1 O1 1.956688 1_555
Mo1 O7 1.959646 1_555
Mo1 O2 1.964775 1_555
Mo1 O5 1.964983 1_555
Mo1 O3 1.986985 1_555
Mo2 O10 1.931336 1_555
Mo2 O6 1.946308 1_555
Mo2 O13 1.950537 1_555
Mo2 O8 1.951475 1_555
Mo2 O11 1.953785 1_555
Mo2 O9 1.971948 1_555
Mo3 O16 1.894608 1_555
Mo3 O15 1.896691 1_555
Mo3 O14 1.897675 1_555
Mo3 O12 2.024205 1_555
Mo3 O18 2.031123 1_555
Mo4 O21 1.863662 1_555
Mo4 O20 1.971103 1_555
Mo4 O24 2.060495 1_555
Mo4 O17 2.063287 1_555
Mo4 O22 2.078830 1_555
Mo4 O19 2.090065 1_555
Mo5 O26 1.885580 1_555
Mo5 O23 1.900107 1_555
Mo5 O29 1.900365 1_555
Mo5 O25 2.008703 1_555
Mo5 O27 2.009807 1_555
Mo6 O32 1.888587 1_555
Mo6 O31 1.950908 1_555
Mo6 O28 2.054944 1_555
Mo6 O30 2.060588 1_555
Mo6 O35 2.060654 1_555
Mo6 O33 2.061194 1_555
Mo7 O37 1.890813 1_555
Mo7 O40 1.891741 1_555
Mo7 O34 1.891927 1_555
Mo7 O36 2.027257 1_555
Mo7 O38 2.029658 1_555
O0 Sr0 2.840504 1_545
O0 Sr2 2.852479 1_555
O0 Sr0 2.859499 1_555
O0 Sr2 2.859546 1_455
O1 Sr4 2.583468 1_455
O1 Sr0 2.740299 1_555
O1 Sr1 3.014061 1_555
O1 Sr2 3.165911 1_565
O2 Sr1 2.573612 1_545
O2 Sr2 2.735366 1_555
O2 Sr4 3.011101 1_455
O2 Sr0 3.149347 1_555
O3 Sr4 2.847593 1_555
O3 Sr1 2.849274 1_545
O3 Sr1 2.851068 1_555
O3 Sr4 2.864584 1_455
O4 Sr2 2.849417 1_555
O4 Sr0 2.855410 1_655
O4 Sr2 2.866174 1_565
O4 Sr0 2.870453 1_555
O5 Sr1 2.575026 1_555
O5 Sr2 2.740329 1_565
O5 Sr4 3.014954 1_555
O5 Sr0 3.133747 1_655
O6 Sr6 2.565940 1_455
O6 Sr1 2.714509 1_555
O6 Sr3 3.028038 1_555
O6 Sr4 3.126830 1_565
O7 Sr4 2.580207 1_555
O7 Sr0 2.737343 1_655
O7 Sr1 3.015673 1_545
O7 Sr2 3.159392 1_555
O8 Sr3 2.570251 1_545
O8 Sr4 2.704996 1_555
O8 Sr6 2.995192 1_455
O8 Sr1 3.134260 1_555
O9 Sr3 2.843999 1_555
O9 Sr6 2.851376 1_455
O9 Sr3 2.856039 1_545
O9 Sr6 2.860904 1_555
O10 Sr4 2.850884 1_565
O10 Sr4 2.854059 1_555
O10 Sr1 2.858472 1_655
O10 Sr1 2.859035 1_555
O11 Sr3 2.577204 1_555
O11 Sr4 2.711665 1_565
O11 Sr6 2.990691 1_555
O11 Sr1 3.123376 1_655
O12 Sr8 2.586386 1_455
O12 Sr3 2.805048 1_555
O12 Sr5 3.022166 1_555
O12 Sr6 3.186311 1_565
O13 Sr6 2.558891 1_555
O13 Sr1 2.719503 1_655
O13 Sr3 3.013069 1_545
O13 Sr4 3.140210 1_555
O14 Sr5 2.571192 1_545
O14 Sr8 2.883378 1_455
O14 Sr6 2.910690 1_555
O14 Sr3 3.237312 1_555
O15 Sr6 2.848962 1_565
O15 Sr6 2.853054 1_555
O15 Sr3 2.856263 1_555
O15 Sr3 2.856652 1_655
O16 Sr5 2.576556 1_555
O16 Sr8 2.888625 1_555
O16 Sr6 2.929601 1_565
O16 Sr3 3.205470 1_655
O17 Sr5 2.554764 1_555
O17 Sr10 2.659424 1_455
O17 Sr8 2.985193 1_565
O17 Sr7 2.992256 1_555
O18 Sr8 2.599597 1_555
O18 Sr3 2.796527 1_655
O18 Sr5 3.023735 1_545
O18 Sr6 3.167112 1_555
O19 Sr8 2.550166 1_555
O19 Sr7 2.633854 1_545
O19 Sr5 2.921359 1_555
O19 Sr10 3.072756 1_455
O20 Sr10 2.841843 1_555
O20 Sr7 2.846854 1_545
O20 Sr7 2.853775 1_555
O20 Sr10 2.870232 1_455
O21 Sr5 2.847171 1_555
O21 Sr8 2.848138 1_555
O21 Sr8 2.853461 1_565
O21 Sr5 2.864862 1_655
O22 Sr8 2.543421 1_565
O22 Sr7 2.636608 1_555
O22 Sr5 2.919988 1_655
O22 Sr10 3.082933 1_555
O23 Sr12 2.496404 1_455
O23 Sr9 2.772986 1_555
O23 Sr7 3.077921 1_555
O24 Sr5 2.555245 1_655
O24 Sr10 2.664287 1_555
O24 Sr8 2.990176 1_555
O24 Sr7 3.006962 1_545
O25 Sr9 2.587439 1_545
O25 Sr10 2.730751 1_555
O25 Sr12 3.063263 1_455
O25 Sr7 3.170436 1_555
O26 Sr10 2.839625 1_555
O26 Sr7 2.842821 1_655
O26 Sr10 2.865652 1_565
O26 Sr7 2.880309 1_555
O27 Sr9 2.591658 1_555
O27 Sr10 2.731857 1_565
O27 Sr12 3.080350 1_555
O27 Sr7 3.149058 1_655
O28 Sr14 2.649490 1_455
O28 Sr9 2.656286 1_555
O28 Sr12 2.970008 1_565
O28 Sr11 2.998486 1_555
O29 Sr12 2.490829 1_555
O29 Sr9 2.763096 1_545
O29 Sr7 3.080490 1_655
O30 Sr12 2.542455 1_555
O30 Sr11 2.630017 1_545
O30 Sr9 3.018669 1_555
O30 Sr14 3.038485 1_455
O31 Sr11 2.837875 1_545
O31 Sr14 2.841626 1_555
O31 Sr11 2.862284 1_555
O31 Sr14 2.870513 1_455
O32 Sr12 2.846456 1_565
O32 Sr12 2.853541 1_555
O32 Sr9 2.857105 1_555
O32 Sr9 2.859274 1_655
O33 Sr12 2.549131 1_565
O33 Sr11 2.627845 1_555
O33 Sr9 3.021105 1_655
O33 Sr14 3.036032 1_555
O34 Sr15 2.521315 1_455
O34 Sr13 2.811600 1_555
O34 Sr11 3.066089 1_555
O35 Sr9 2.647810 1_655
O35 Sr14 2.652993 1_555
O35 Sr12 2.948425 1_555
O35 Sr11 3.028612 1_545
O36 Sr13 2.611542 1_545
O36 Sr14 2.777827 1_555
O36 Sr15 3.054696 1_455
O36 Sr11 3.179095 1_555
O37 Sr11 2.843443 1_655
O37 Sr14 2.851558 1_565
O37 Sr14 2.857431 1_555
O37 Sr11 2.880721 1_555
O38 Sr13 2.616745 1_555
O38 Sr14 2.769435 1_565
O38 Sr15 3.082013 1_555
O38 Sr11 3.144209 1_655
O39 Sr13 2.626976 1_555
O39 Sr2 2.650184 1_454
O39 Sr15 2.947489 1_565
O39 Sr0 3.035832 1_554
O40 Sr15 2.522719 1_555
O40 Sr13 2.819318 1_545
O40 Sr11 3.035030 1_655
O41 Sr15 2.548424 1_555
O41 Sr0 2.655355 1_544
O41 Sr13 2.998279 1_555
O41 Sr2 3.018158 1_454
O42 Sr15 2.842286 1_565
O42 Sr13 2.855753 1_555
O42 Sr15 2.857725 1_555
O42 Sr13 2.860134 1_655
O43 Sr15 2.551534 1_565
O43 Sr0 2.644097 1_554
O43 Sr13 3.006939 1_655
O43 Sr2 3.018512 1_554
O44 Sr13 2.620765 1_655
O44 Sr2 2.659309 1_554
O44 Sr15 2.937540 1_555
O44 Sr0 3.044933 1_544
