# generated using pymatgen
data_Li2MnF4
_symmetry_space_group_name_H-M   'P 1'
_cell_length_a   5.79062344
_cell_length_b   5.79062344
_cell_length_c   5.79062344
_cell_angle_alpha   111.23592764
_cell_angle_beta   110.15929729
_cell_angle_gamma   107.04720404
_symmetry_Int_Tables_number   1
_chemical_formula_structural   Li2MnF4
_chemical_formula_sum   'Li4 Mn2 F8'
_cell_volume   149.25663819
_cell_formula_units_Z   2
loop_
 _symmetry_equiv_pos_site_id
 _symmetry_equiv_pos_as_xyz
  1  'x, y, z'
loop_
 _atom_site_type_symbol
 _atom_site_label
 _atom_site_symmetry_multiplicity
 _atom_site_fract_x
 _atom_site_fract_y
 _atom_site_fract_z
 _atom_site_occupancy
  Li  Li0  1  0.74845900  0.00999900  0.26154000  1
  Li  Li1  1  0.74845900  0.48691900  0.73846000  1
  Li  Li2  1  0.73279000  0.49866700  0.23412300  1
  Li  Li3  1  0.26454400  0.49866700  0.76587700  1
  Mn  Mn0  1  0.34465500  0.84465500  0.50000000  1
  Mn  Mn1  1  0.11733700  0.11733700  0.00000000  1
  F  F0  1  0.46490400  0.67028500  0.20538100  1
  F  F1  1  0.46490400  0.25952300  0.79461900  1
  F  F2  1  0.04095600  0.34497100  0.30401500  1
  F  F3  1  0.04095600  0.73694100  0.69598500  1
  F  F4  1  0.51583000  0.22155900  0.29427100  1
  F  F5  1  0.59227200  0.78637100  0.80590100  1
  F  F6  1  0.98047000  0.78637100  0.19409900  1
  F  F7  1  0.92728800  0.22155900  0.70572900  1
loop_
_geom_bond_atom_site_label_1
_geom_bond_atom_site_label_2
_geom_bond_distance
_geom_bond_site_symmetry_2
F0 Li0 1.986511 1_565
F0 Li3 2.065747 1_554
F0 Li2 2.065747 1_555
F0 Mn0 2.097153 1_555
F1 Li1 1.986511 1_555
F1 Li3 2.065747 1_555
F1 Li2 2.065747 1_556
F1 Mn0 2.097153 1_545
F2 Li0 2.032897 1_455
F2 Mn1 2.056636 1_555
F2 Li3 2.198761 1_555
F2 Li2 2.198761 1_455
F2 Mn0 2.452542 1_555
F3 Li1 2.032897 1_455
F3 Mn1 2.056636 1_566
F3 Li2 2.198761 1_455
F3 Li3 2.198761 1_555
F3 Mn0 2.452542 1_555
F4 Li2 1.949101 1_555
F4 Mn1 2.078661 1_555
F4 Li0 2.080057 1_555
F4 Li1 2.080057 1_555
F5 Li3 1.998522 1_555
F5 Mn0 2.067302 1_555
F5 Li1 2.156314 1_555
F5 Li0 2.156314 1_566
F5 Mn1 2.616912 1_666
F6 Li2 1.998522 1_555
F6 Mn0 2.067302 1_655
F6 Li1 2.156314 1_554
F6 Li0 2.156314 1_565
F6 Mn1 2.616912 1_665
F7 Li3 1.949101 1_655
F7 Mn1 2.078661 1_656
F7 Li0 2.080057 1_555
F7 Li1 2.080057 1_555
