# generated using pymatgen
data_Mn21O40
_symmetry_space_group_name_H-M   'P 1'
_cell_length_a   10.16554928
_cell_length_b   10.16554928
_cell_length_c   10.16554928
_cell_angle_alpha   99.71783926
_cell_angle_beta   99.71783926
_cell_angle_gamma   131.48373824
_symmetry_Int_Tables_number   1
_chemical_formula_structural   Mn21O40
_chemical_formula_sum   'Mn21 O40'
_cell_volume   717.48273415
_cell_formula_units_Z   1
loop_
 _symmetry_equiv_pos_site_id
 _symmetry_equiv_pos_as_xyz
  1  'x, y, z'
loop_
 _atom_site_type_symbol
 _atom_site_label
 _atom_site_symmetry_multiplicity
 _atom_site_fract_x
 _atom_site_fract_y
 _atom_site_fract_z
 _atom_site_occupancy
  Mn  Mn0  1  0.77740400  0.82870300  0.35506500  1
  Mn  Mn1  1  0.17386300  0.02351500  0.44869600  1
  Mn  Mn2  1  0.97975200  0.92932200  0.15137500  1
  Mn  Mn3  1  0.77794700  0.82837700  0.84862500  1
  Mn  Mn4  1  0.50000000  0.50000000  0.00000000  1
  Mn  Mn5  1  0.17162300  0.02024800  0.94957000  1
  Mn  Mn6  1  0.47363800  0.42233900  0.64493500  1
  Mn  Mn7  1  0.87894600  0.62482400  0.25303300  1
  Mn  Mn8  1  0.37408700  0.12105400  0.74587800  1
  Mn  Mn9  1  0.57766100  0.22259600  0.05129900  1
  Mn  Mn10  1  0.77552500  0.32426300  0.35052300  1
  Mn  Mn11  1  0.67573700  0.02625900  0.45126200  1
  Mn  Mn12  1  0.57499700  0.22447500  0.54873800  1
  Mn  Mn13  1  0.27483200  0.82613700  0.84965200  1
  Mn  Mn14  1  0.97648500  0.42518000  0.15034800  1
  Mn  Mn15  1  0.17129700  0.52636200  0.94870100  1
  Mn  Mn16  1  0.37517600  0.62820900  0.25412200  1
  Mn  Mn17  1  0.97374100  0.42500300  0.64947700  1
  Mn  Mn18  1  0.37179100  0.62591300  0.74696700  1
  Mn  Mn19  1  0.07067800  0.22205300  0.05043000  1
  Mn  Mn20  1  0.57482000  0.72516800  0.55130400  1
  O  O0  1  0.53524000  0.60430100  0.35638300  1
  O  O1  1  0.01560800  0.04747000  0.34516500  1
  O  O2  1  0.84454800  0.97636300  0.04392500  1
  O  O3  1  0.19937700  0.15545200  0.13181400  1
  O  O4  1  0.02363700  0.06756300  0.86818600  1
  O  O5  1  0.93026500  0.78583200  0.43315300  1
  O  O6  1  0.35267800  0.49711200  0.56684700  1
  O  O7  1  0.52712900  0.58348000  0.83048400  1
  O  O8  1  0.75299600  0.69664500  0.16951600  1
  O  O9  1  0.42006800  0.26332900  0.46543300  1
  O  O10  1  0.10365800  0.87096400  0.25657300  1
  O  O11  1  0.70230500  0.67044400  0.65483500  1
  O  O12  1  0.93243700  0.80062300  0.95607500  1
  O  O13  1  0.24791800  0.17885700  0.64361700  1
  O  O14  1  0.81433200  0.44652300  0.54347600  1
  O  O15  1  0.41652000  0.24700400  0.94365000  1
  O  O16  1  0.64778600  0.37837500  0.24369400  1
  O  O17  1  0.55347700  0.09695300  0.36780800  1
  O  O18  1  0.59590700  0.35221400  0.73058900  1
  O  O19  1  0.82114300  0.46476000  0.06906100  1
  O  O20  1  0.99874400  0.55266500  0.33359700  1
  O  O21  1  0.32955600  0.98439200  0.03186200  1
  O  O22  1  0.15291400  0.89634200  0.76730600  1
  O  O23  1  0.90304700  0.27085500  0.45652400  1
  O  O24  1  0.33485300  0.00125600  0.55392200  1
  O  O25  1  0.50288800  0.06973500  0.85556600  1
  O  O26  1  0.73667100  0.20210500  0.15673900  1
  O  O27  1  0.21416800  0.64732200  0.14443400  1
  O  O28  1  0.44733500  0.78093200  0.44607800  1
  O  O29  1  0.04536500  0.57993200  0.84326100  1
  O  O30  1  0.72914500  0.18566800  0.63219200  1
  O  O31  1  0.12903600  0.38560900  0.23269400  1
  O  O32  1  0.21906800  0.66514700  0.66640300  1
  O  O33  1  0.39569900  0.75208200  0.93093900  1
  O  O34  1  0.95253000  0.29769500  0.96813800  1
  O  O35  1  0.62162500  0.86531800  0.26941100  1
  O  O36  1  0.79789500  0.95463500  0.53456700  1
  O  O37  1  0.30335500  0.47287100  0.05635000  1
  O  O38  1  0.13468200  0.40409300  0.75630600  1
  O  O39  1  0.61439100  0.84708600  0.74342700  1
loop_
_geom_bond_atom_site_label_1
_geom_bond_atom_site_label_2
_geom_bond_distance
_geom_bond_site_symmetry_2
Mn0 O36 1.934343 1_555
Mn0 O35 1.956839 1_555
Mn0 O5 1.957614 1_555
Mn0 O1 1.960338 1_665
Mn0 O0 1.961076 1_555
Mn0 O8 1.991831 1_555
Mn1 O10 1.941472 1_545
Mn1 O1 1.946525 1_555
Mn1 O5 1.951251 1_445
Mn1 O13 1.962604 1_555
Mn1 O24 1.963425 1_555
Mn1 O9 1.966976 1_555
Mn2 O3 1.952760 1_665
Mn2 O10 1.957408 1_655
Mn2 O1 1.958328 1_665
Mn2 O2 1.962410 1_555
Mn2 O12 1.962556 1_554
Mn2 O8 2.002413 1_555
Mn3 O4 1.952755 1_665
Mn3 O39 1.957416 1_555
Mn3 O11 1.958325 1_555
Mn3 O12 1.962402 1_555
Mn3 O2 1.962560 1_556
Mn3 O7 2.002413 1_555
Mn4 O37 2.027253 1_555
Mn4 O7 2.027258 1_554
Mn4 O8 2.027258 1_555
Mn4 O15 2.027258 1_554
Mn5 O12 1.952760 1_445
Mn5 O22 1.957403 1_545
Mn5 O21 1.958320 1_546
Mn5 O3 1.962402 1_556
Mn5 O4 1.962565 1_555
Mn5 O15 2.002408 1_555
Mn6 O9 1.934338 1_555
Mn6 O18 1.956839 1_555
Mn6 O6 1.957623 1_555
Mn6 O11 1.960343 1_555
Mn6 O13 1.961076 1_555
Mn6 O7 1.991831 1_555
Mn7 O20 1.934281 1_555
Mn7 O19 1.955878 1_555
Mn7 O5 1.959152 1_555
Mn7 O10 1.962080 1_655
Mn7 O16 1.962765 1_555
Mn7 O8 1.993450 1_555
Mn8 O24 1.934272 1_555
Mn8 O13 1.955878 1_555
Mn8 O25 1.959147 1_555
Mn8 O22 1.962084 1_545
Mn8 O18 1.962761 1_555
Mn8 O15 1.993459 1_555
Mn9 O26 1.934330 1_555
Mn9 O16 1.956847 1_555
Mn9 O25 1.957623 1_554
Mn9 O21 1.960342 1_545
Mn9 O19 1.961076 1_555
Mn9 O15 1.991827 1_554
Mn10 O23 1.948002 1_555
Mn10 O14 1.952920 1_555
Mn10 O17 1.956114 1_555
Mn10 O16 1.959602 1_555
Mn10 O26 1.959686 1_555
Mn10 O20 1.963751 1_555
Mn11 O30 1.948002 1_555
Mn11 O17 1.952933 1_555
Mn11 O23 1.956119 1_555
Mn11 O35 1.959602 1_545
Mn11 O36 1.959672 1_545
Mn11 O28 1.963742 1_545
Mn12 O17 1.948007 1_555
Mn12 O30 1.952941 1_555
Mn12 O14 1.956124 1_555
Mn12 O18 1.959602 1_555
Mn12 O9 1.959680 1_555
Mn12 O24 1.963750 1_555
Mn13 O22 1.941472 1_555
Mn13 O21 1.946525 1_556
Mn13 O25 1.951258 1_565
Mn13 O33 1.962612 1_555
Mn13 O32 1.963425 1_555
Mn13 O29 1.966973 1_555
Mn14 O31 1.941464 1_655
Mn14 O34 1.946521 1_554
Mn14 O27 1.951253 1_655
Mn14 O19 1.962612 1_555
Mn14 O20 1.963425 1_555
Mn14 O26 1.966969 1_555
Mn15 O29 1.934338 1_555
Mn15 O38 1.956848 1_555
Mn15 O27 1.957626 1_556
Mn15 O34 1.960338 1_455
Mn15 O33 1.961076 1_555
Mn15 O37 1.991826 1_556
Mn16 O28 1.934273 1_555
Mn16 O0 1.955878 1_555
Mn16 O27 1.959155 1_555
Mn16 O31 1.962080 1_555
Mn16 O35 1.962761 1_555
Mn16 O37 1.993459 1_555
Mn17 O14 1.947994 1_555
Mn17 O23 1.952925 1_555
Mn17 O30 1.956127 1_555
Mn17 O38 1.959602 1_655
Mn17 O29 1.959689 1_655
Mn17 O32 1.963742 1_655
Mn18 O32 1.934281 1_555
Mn18 O33 1.955878 1_555
Mn18 O6 1.959147 1_555
Mn18 O39 1.962083 1_555
Mn18 O38 1.962756 1_555
Mn18 O7 1.993450 1_555
Mn19 O2 1.952755 1_445
Mn19 O31 1.957408 1_555
Mn19 O34 1.958328 1_454
Mn19 O4 1.962397 1_554
Mn19 O3 1.962556 1_555
Mn19 O37 2.002416 1_555
Mn20 O39 1.941476 1_555
Mn20 O11 1.946518 1_555
Mn20 O6 1.951263 1_555
Mn20 O0 1.962603 1_555
Mn20 O28 1.963425 1_555
Mn20 O36 1.966964 1_555
