# generated using pymatgen
data_La2Bi2O7
_symmetry_space_group_name_H-M   'P 1'
_cell_length_a   5.96037400
_cell_length_b   8.44202600
_cell_length_c   14.31471845
_cell_angle_alpha   81.41738349
_cell_angle_beta   90.00000000
_cell_angle_gamma   90.00000000
_symmetry_Int_Tables_number   1
_chemical_formula_structural   La2Bi2O7
_chemical_formula_sum   'La8 Bi8 O28'
_cell_volume   712.21680003
_cell_formula_units_Z   4
loop_
 _symmetry_equiv_pos_site_id
 _symmetry_equiv_pos_as_xyz
  1  'x, y, z'
loop_
 _atom_site_type_symbol
 _atom_site_label
 _atom_site_symmetry_multiplicity
 _atom_site_fract_x
 _atom_site_fract_y
 _atom_site_fract_z
 _atom_site_occupancy
  La  La0  1  0.77361800  0.76318600  0.92131700  1
  La  La1  1  0.33308700  0.85713100  0.56487000  1
  La  La2  1  0.25141000  0.71546300  0.12467600  1
  La  La3  1  0.78251900  0.64546400  0.38901900  1
  La  La4  1  0.28251900  0.35453600  0.61098100  1
  La  La5  1  0.75141000  0.28453700  0.87532400  1
  La  La6  1  0.83308700  0.14286900  0.43513000  1
  La  La7  1  0.27361800  0.23681400  0.07868300  1
  Bi  Bi0  1  0.26877000  0.92206900  0.31782300  1
  Bi  Bi1  1  0.76745700  0.97350300  0.11827400  1
  Bi  Bi2  1  0.77999500  0.58645800  0.67521800  1
  Bi  Bi3  1  0.26662800  0.53220700  0.87742500  1
  Bi  Bi4  1  0.76662800  0.46779300  0.12257500  1
  Bi  Bi5  1  0.27999500  0.41354200  0.32478200  1
  Bi  Bi6  1  0.26745700  0.02649700  0.88172600  1
  Bi  Bi7  1  0.76877000  0.07793100  0.68217700  1
  O  O0  1  0.39792600  0.99168400  0.18038200  1
  O  O1  1  0.55147700  0.92827000  0.41003900  1
  O  O2  1  0.65658600  0.83157600  0.67859300  1
  O  O3  1  0.39672100  0.77526900  0.88472700  1
  O  O4  1  0.05643900  0.86562000  0.43813100  1
  O  O5  1  0.05296200  0.91975900  0.01817900  1
  O  O6  1  0.98526600  0.84019000  0.24732700  1
  O  O7  1  0.10107800  0.62789500  0.61592700  1
  O  O8  1  0.90087000  0.57782400  0.81930400  1
  O  O9  1  0.41551900  0.67700600  0.30805100  1
  O  O10  1  0.62818800  0.73206800  0.07876700  1
  O  O11  1  0.58153800  0.59810300  0.54703800  1
  O  O12  1  0.55918200  0.43762100  0.98198000  1
  O  O13  1  0.49110900  0.48350100  0.74808700  1
  O  O14  1  0.99110900  0.51649900  0.25191300  1
  O  O15  1  0.05918200  0.56237900  0.01802000  1
  O  O16  1  0.08153800  0.40189700  0.45296200  1
  O  O17  1  0.12818800  0.26793200  0.92123300  1
  O  O18  1  0.91551900  0.32299400  0.69194900  1
  O  O19  1  0.40087000  0.42217600  0.18069600  1
  O  O20  1  0.60107800  0.37210500  0.38407300  1
  O  O21  1  0.48526600  0.15981000  0.75267300  1
  O  O22  1  0.55296200  0.08024100  0.98182100  1
  O  O23  1  0.55643900  0.13438000  0.56186900  1
  O  O24  1  0.89672100  0.22473100  0.11527300  1
  O  O25  1  0.15658600  0.16842400  0.32140700  1
  O  O26  1  0.05147700  0.07173000  0.58996100  1
  O  O27  1  0.89792600  0.00831600  0.81961800  1
loop_
_geom_bond_atom_site_label_1
_geom_bond_atom_site_label_2
_geom_bond_distance
_geom_bond_site_symmetry_2
La0 O3 2.305499 1_555
La0 O10 2.392387 1_556
La0 O8 2.416288 1_555
La0 O27 2.459982 1_565
La0 O15 2.643220 1_656
La0 O5 2.643651 1_656
La0 O12 3.037955 1_555
La1 O7 2.401953 1_555
La1 O4 2.444735 1_555
La1 O2 2.511907 1_555
La1 O26 2.534296 1_565
La1 O1 2.563208 1_555
La1 O11 2.684484 1_555
La1 O23 2.687422 1_565
La2 O10 2.338241 1_555
La2 O15 2.429559 1_555
La2 O5 2.431634 1_555
La2 O19 2.640891 1_555
La2 O6 2.694330 1_455
La2 O0 2.718657 1_555
La2 O14 2.762723 1_455
La2 O9 2.774571 1_555
La3 O9 2.471258 1_555
La3 O11 2.538025 1_555
La3 O20 2.559067 1_555
La3 O4 2.646523 1_655
La3 O14 2.687145 1_555
La3 O6 2.698415 1_555
La3 O16 2.771371 1_655
La3 O1 2.810924 1_555
La4 O18 2.471258 1_455
La4 O16 2.538025 1_555
La4 O7 2.559067 1_555
La4 O23 2.646523 1_555
La4 O13 2.687145 1_555
La4 O21 2.698415 1_555
La4 O11 2.771371 1_555
La4 O26 2.810924 1_555
La5 O17 2.338241 1_655
La5 O12 2.429559 1_555
La5 O22 2.431634 1_555
La5 O8 2.640891 1_555
La5 O21 2.694330 1_555
La5 O27 2.718657 1_555
La5 O13 2.762723 1_555
La5 O18 2.774571 1_555
La6 O20 2.401953 1_555
La6 O23 2.444735 1_555
La6 O25 2.511907 1_655
La6 O1 2.534296 1_545
La6 O26 2.563208 1_655
La6 O16 2.684484 1_655
La6 O4 2.687422 1_645
La7 O24 2.305499 1_455
La7 O17 2.392387 1_554
La7 O19 2.416288 1_555
La7 O0 2.459982 1_545
La7 O12 2.643220 1_554
La7 O22 2.643651 1_554
La7 O15 3.037955 1_555
Bi0 O0 2.112741 1_555
Bi0 O4 2.133003 1_555
Bi0 O6 2.135350 1_455
Bi0 O1 2.145984 1_555
Bi0 O25 2.192460 1_565
Bi0 O9 2.269594 1_555
Bi1 O24 2.250859 1_565
Bi1 O5 2.312732 1_655
Bi1 O10 2.346739 1_555
Bi1 O0 2.388704 1_555
Bi1 O22 2.395086 1_564
Bi1 O6 2.396699 1_555
Bi2 O7 2.101580 1_655
Bi2 O13 2.130196 1_555
Bi2 O11 2.172956 1_555
Bi2 O8 2.175688 1_555
Bi2 O2 2.203451 1_555
Bi2 O18 2.344739 1_555
Bi3 O3 2.210573 1_555
Bi3 O8 2.344677 1_455
Bi3 O12 2.358291 1_555
Bi3 O13 2.369456 1_555
Bi3 O17 2.373602 1_555
Bi3 O15 2.407733 1_556
Bi4 O24 2.210573 1_555
Bi4 O19 2.344677 1_555
Bi4 O15 2.358291 1_655
Bi4 O14 2.369456 1_555
Bi4 O10 2.373602 1_555
Bi4 O12 2.407733 1_554
Bi5 O20 2.101580 1_555
Bi5 O14 2.130196 1_455
Bi5 O16 2.172956 1_555
Bi5 O19 2.175688 1_555
Bi5 O25 2.203451 1_555
Bi5 O9 2.344739 1_555
Bi6 O3 2.250859 1_545
Bi6 O22 2.312732 1_555
Bi6 O17 2.346739 1_555
Bi6 O27 2.388704 1_455
Bi6 O5 2.395086 1_546
Bi6 O21 2.396699 1_555
Bi7 O27 2.112741 1_555
Bi7 O23 2.133003 1_555
Bi7 O21 2.135350 1_555
Bi7 O26 2.145984 1_655
Bi7 O2 2.192460 1_545
Bi7 O18 2.269594 1_555
