# generated using pymatgen
data_V2O2F3
_symmetry_space_group_name_H-M   'P 1'
_cell_length_a   5.60216227
_cell_length_b   5.60216227
_cell_length_c   7.25952420
_cell_angle_alpha   71.35506650
_cell_angle_beta   71.35506650
_cell_angle_gamma   54.53516034
_symmetry_Int_Tables_number   1
_chemical_formula_structural   V2O2F3
_chemical_formula_sum   'V4 O4 F6'
_cell_volume   173.14668049
_cell_formula_units_Z   2
loop_
 _symmetry_equiv_pos_site_id
 _symmetry_equiv_pos_as_xyz
  1  'x, y, z'
loop_
 _atom_site_type_symbol
 _atom_site_label
 _atom_site_symmetry_multiplicity
 _atom_site_fract_x
 _atom_site_fract_y
 _atom_site_fract_z
 _atom_site_occupancy
  V  V0  1  0.31245300  0.28793300  0.87788100  1
  V  V1  1  0.71721400  0.69585000  0.61931600  1
  V  V2  1  0.28793300  0.31245300  0.37788100  1
  V  V3  1  0.69585000  0.71721400  0.11931600  1
  O  O0  1  0.54801300  0.87606800  0.85269000  1
  O  O1  1  0.87606800  0.54801300  0.35269000  1
  O  O2  1  0.09803200  0.47589400  0.64124900  1
  O  O3  1  0.47589400  0.09803200  0.14124900  1
  F  F0  1  0.06179900  0.69779100  0.96117500  1
  F  F1  1  0.69779100  0.06179900  0.46117500  1
  F  F2  1  0.61500600  0.39211700  0.74903700  1
  F  F3  1  0.39211700  0.61500600  0.24903700  1
  F  F4  1  0.31414900  0.93868100  0.54107300  1
  F  F5  1  0.93868100  0.31414900  0.04107300  1
loop_
_geom_bond_atom_site_label_1
_geom_bond_atom_site_label_2
_geom_bond_distance
_geom_bond_site_symmetry_2
O0 V0 1.918570 1_565
O0 V1 1.935050 1_555
O0 V3 2.071884 1_556
O1 V2 1.918570 1_655
O1 V3 1.935050 1_555
O1 V1 2.071884 1_555
O2 V1 1.770981 1_455
O2 V0 2.048836 1_555
O2 V2 2.077032 1_555
O3 V3 1.770981 1_545
O3 V2 2.048836 1_555
O3 V0 2.077032 1_554
F0 V3 1.961853 1_456
F0 V0 2.052542 1_555
F1 V1 1.961853 1_545
F1 V2 2.052542 1_555
F2 V1 1.967541 1_555
F2 V0 1.968142 1_555
F3 V3 1.967541 1_555
F3 V2 1.968142 1_555
F4 V2 1.994458 1_565
F4 V1 2.008354 1_555
F5 V0 1.994458 1_654
F5 V3 2.008354 1_555
