# generated using pymatgen
data_K4TeP4(HO2)10
_symmetry_space_group_name_H-M   'P 1'
_cell_length_a   7.62406692
_cell_length_b   7.62406692
_cell_length_c   17.46807466
_cell_angle_alpha   84.22615934
_cell_angle_beta   84.22615934
_cell_angle_gamma   99.52113780
_symmetry_Int_Tables_number   1
_chemical_formula_structural   K4TeP4(HO2)10
_chemical_formula_sum   'K8 Te2 P8 H20 O40'
_cell_volume   989.15153407
_cell_formula_units_Z   2
loop_
 _symmetry_equiv_pos_site_id
 _symmetry_equiv_pos_as_xyz
  1  'x, y, z'
loop_
 _atom_site_type_symbol
 _atom_site_label
 _atom_site_symmetry_multiplicity
 _atom_site_fract_x
 _atom_site_fract_y
 _atom_site_fract_z
 _atom_site_occupancy
  K  K0  1  0.92356100  0.07643900  0.75000000  1
  K  K1  1  0.07643900  0.92356100  0.25000000  1
  K  K2  1  0.79121400  0.54662300  0.43128700  1
  K  K3  1  0.45337700  0.20878600  0.06871300  1
  K  K4  1  0.20878600  0.45337700  0.56871300  1
  K  K5  1  0.54662300  0.79121400  0.93128700  1
  K  K6  1  0.71025500  0.28974500  0.25000000  1
  K  K7  1  0.28974500  0.71025500  0.75000000  1
  Te  Te0  1  0.00000000  0.00000000  0.00000000  1
  Te  Te1  1  0.00000000  0.00000000  0.50000000  1
  P  P0  1  0.36524900  0.65251000  0.13551000  1
  P  P1  1  0.34749000  0.63475200  0.36449000  1
  P  P2  1  0.63475200  0.34749000  0.86449000  1
  P  P3  1  0.65251000  0.36524800  0.63551000  1
  P  P4  1  0.23404500  0.36028400  0.26317500  1
  P  P5  1  0.63971600  0.76595500  0.23682500  1
  P  P6  1  0.76595500  0.63971600  0.73682500  1
  P  P7  1  0.36028400  0.23404500  0.76317500  1
  H  H0  1  0.81514000  0.13453600  0.59243900  1
  H  H1  1  0.86546400  0.18486000  0.90756100  1
  H  H2  1  0.18486000  0.86546400  0.40756100  1
  H  H3  1  0.13453600  0.81514000  0.09243900  1
  H  H4  1  0.02844600  0.25870600  0.40109100  1
  H  H5  1  0.74129400  0.97155400  0.09890900  1
  H  H6  1  0.97155400  0.74129400  0.59890900  1
  H  H7  1  0.25870600  0.02844600  0.90109100  1
  H  H8  1  0.73244600  0.97830700  0.42924100  1
  H  H9  1  0.02169300  0.26755400  0.07075900  1
  H  H10  1  0.26755400  0.02169300  0.57075900  1
  H  H11  1  0.97830700  0.73244600  0.92924100  1
  H  H12  1  0.44594000  0.10359700  0.42491700  1
  H  H13  1  0.89640300  0.55406000  0.07508300  1
  H  H14  1  0.55406000  0.89640300  0.57508300  1
  H  H15  1  0.10359700  0.44594000  0.92491700  1
  H  H16  1  0.57287800  0.19937400  0.47673400  1
  H  H17  1  0.80062600  0.42712200  0.02326600  1
  H  H18  1  0.42712200  0.80062600  0.52326600  1
  H  H19  1  0.19937400  0.57287800  0.97673400  1
  O  O0  1  0.79660700  0.01007500  0.57513200  1
  O  O1  1  0.98992500  0.20339300  0.92486800  1
  O  O2  1  0.20339300  0.98992500  0.42486800  1
  O  O3  1  0.01007500  0.79660700  0.07513200  1
  O  O4  1  0.00905700  0.25102800  0.45935300  1
  O  O5  1  0.74897200  0.99094300  0.04064700  1
  O  O6  1  0.99094300  0.74897200  0.54064700  1
  O  O7  1  0.25102800  0.00905700  0.95935300  1
  O  O8  1  0.83651700  0.91485500  0.42566600  1
  O  O9  1  0.08514500  0.16348300  0.07433400  1
  O  O10  1  0.16348300  0.08514500  0.57433400  1
  O  O11  1  0.91485500  0.83651700  0.92566600  1
  O  O12  1  0.53476200  0.21888200  0.70424600  1
  O  O13  1  0.78111800  0.46523800  0.79575400  1
  O  O14  1  0.46523800  0.78111800  0.29575400  1
  O  O15  1  0.21888200  0.53476200  0.20424600  1
  O  O16  1  0.64866300  0.55216800  0.67209200  1
  O  O17  1  0.44783200  0.35133700  0.82790800  1
  O  O18  1  0.35133700  0.44783200  0.32790800  1
  O  O19  1  0.55216800  0.64866300  0.17209200  1
  O  O20  1  0.56001900  0.37228500  0.56416800  1
  O  O21  1  0.62771500  0.43998100  0.93583200  1
  O  O22  1  0.43998100  0.62771500  0.43583200  1
  O  O23  1  0.37228500  0.56001900  0.06416800  1
  O  O24  1  0.83820100  0.31918400  0.63060700  1
  O  O25  1  0.68081600  0.16179900  0.86939300  1
  O  O26  1  0.16179900  0.68081600  0.36939300  1
  O  O27  1  0.31918400  0.83820100  0.13060700  1
  O  O28  1  0.04687700  0.28477300  0.30090800  1
  O  O29  1  0.71522700  0.95312300  0.19909200  1
  O  O30  1  0.95312300  0.71522700  0.69909200  1
  O  O31  1  0.28477300  0.04687700  0.80090800  1
  O  O32  1  0.75882200  0.65583000  0.27519400  1
  O  O33  1  0.34417000  0.24117800  0.22480600  1
  O  O34  1  0.24117800  0.34417000  0.72480600  1
  O  O35  1  0.65583000  0.75882200  0.77519400  1
  O  O36  1  0.57530600  0.14529100  0.42800300  1
  O  O37  1  0.85470900  0.42469400  0.07199700  1
  O  O38  1  0.42469400  0.85470900  0.57199700  1
  O  O39  1  0.14529100  0.57530600  0.92800300  1
loop_
_geom_bond_atom_site_label_1
_geom_bond_atom_site_label_2
_geom_bond_distance
_geom_bond_site_symmetry_2
K0 O25 2.844847 1_555
K0 O24 2.844847 1_555
K0 O35 2.862451 1_545
K0 O34 2.862451 1_655
K0 O31 3.013856 1_655
K0 O30 3.013856 1_545
K1 O26 2.844847 1_555
K1 O27 2.844847 1_555
K1 O32 2.862451 1_455
K1 O33 2.862451 1_565
K1 O28 3.013856 1_565
K1 O29 3.013856 1_455
K2 O8 2.761793 1_555
K2 O32 2.817008 1_555
K2 O20 2.835916 1_555
K2 O22 2.841492 1_555
K2 O26 2.899117 1_655
K2 O6 2.957891 1_555
K2 O4 3.042603 1_655
K3 O9 2.761793 1_555
K3 O33 2.817008 1_555
K3 O21 2.835916 1_554
K3 O23 2.841492 1_555
K3 O27 2.899117 1_545
K3 O7 2.957891 1_554
K3 O5 3.042603 1_545
K4 O10 2.761793 1_555
K4 O34 2.817008 1_555
K4 O22 2.835916 1_555
K4 O20 2.841492 1_555
K4 O24 2.899117 1_455
K4 O4 2.957891 1_555
K4 O6 3.042603 1_455
K5 O11 2.761793 1_555
K5 O35 2.817008 1_555
K5 O23 2.835916 1_556
K5 O21 2.841492 1_555
K5 O25 2.899117 1_565
K5 O5 2.957891 1_556
K5 O7 3.042603 1_565
K6 O29 2.804172 1_545
K6 O28 2.804172 1_655
K6 O33 2.838806 1_555
K6 O32 2.838806 1_555
K6 O36 3.198767 1_555
K6 O37 3.198767 1_555
K7 O30 2.804172 1_455
K7 O31 2.804172 1_565
K7 O34 2.838806 1_555
K7 O35 2.838806 1_555
K7 O39 3.198767 1_555
K7 O38 3.198767 1_555
H0 O0 1.016725 1_555
H0 O24 1.608662 1_555
H1 O1 1.016725 1_555
H1 O25 1.608662 1_555
H2 O2 1.016725 1_555
H2 O26 1.608662 1_555
H3 O3 1.016725 1_555
H3 O27 1.608662 1_555
H4 O4 1.007930 1_555
H5 O5 1.007930 1_555
H6 O6 1.007930 1_555
H7 O7 1.007930 1_555
H8 O8 0.995274 1_555
H9 O9 0.995274 1_555
H10 O10 0.995274 1_555
H11 O11 0.995274 1_555
H12 O36 0.993557 1_555
H13 O37 0.993557 1_555
H14 O38 0.993557 1_555
H15 O39 0.993557 1_555
H16 O36 0.982314 1_555
H16 K2 2.874622 1_555
H17 O37 0.982314 1_555
H17 K3 2.874622 1_555
H18 O38 0.982314 1_555
H18 K4 2.874622 1_555
H19 O39 0.982314 1_555
H19 K5 2.874622 1_555
O0 Te1 1.945032 1_655
O1 Te0 1.945032 1_656
O2 Te1 1.945032 1_565
O3 Te0 1.945032 1_565
O4 Te1 1.960802 1_555
O5 Te0 1.960802 1_665
O6 Te1 1.960802 1_665
O7 Te0 1.960802 1_556
O8 Te1 1.971931 1_665
O9 Te0 1.971931 1_555
O10 Te1 1.971931 1_555
O11 Te0 1.971931 1_666
O12 P7 1.625362 1_555
O12 P3 1.635519 1_555
O13 P6 1.625362 1_555
O13 P2 1.635519 1_555
O14 P5 1.625362 1_555
O14 P1 1.635519 1_555
O15 P4 1.625362 1_555
O15 P0 1.635523 1_555
O16 P3 1.622766 1_555
O16 P6 1.637577 1_555
O17 P2 1.622766 1_555
O17 P7 1.637577 1_555
O18 P1 1.622766 1_555
O18 P4 1.637577 1_555
O19 P0 1.622759 1_555
O19 P5 1.637577 1_555
O20 P3 1.492995 1_555
O21 P2 1.492995 1_555
O22 P1 1.492995 1_555
O23 P0 1.492995 1_555
O24 P3 1.510323 1_555
O25 P2 1.510323 1_555
O26 P1 1.510323 1_555
O27 P0 1.510326 1_555
O28 P4 1.504919 1_555
O29 P5 1.504919 1_555
O30 P6 1.504919 1_555
O31 P7 1.504919 1_555
O32 P5 1.496728 1_555
O33 P4 1.496728 1_555
O34 P7 1.496728 1_555
O35 P6 1.496728 1_555
