# generated using pymatgen
data_Li3MnF5
_symmetry_space_group_name_H-M   'P 1'
_cell_length_a   5.15961600
_cell_length_b   5.76665021
_cell_length_c   7.86029579
_cell_angle_alpha   96.05878291
_cell_angle_beta   108.00843885
_cell_angle_gamma   113.80744343
_symmetry_Int_Tables_number   1
_chemical_formula_structural   Li3MnF5
_chemical_formula_sum   'Li6 Mn2 F10'
_cell_volume   196.22932895
_cell_formula_units_Z   2
loop_
 _symmetry_equiv_pos_site_id
 _symmetry_equiv_pos_as_xyz
  1  'x, y, z'
loop_
 _atom_site_type_symbol
 _atom_site_label
 _atom_site_symmetry_multiplicity
 _atom_site_fract_x
 _atom_site_fract_y
 _atom_site_fract_z
 _atom_site_occupancy
  Li  Li0  1  0.68568500  0.45749000  0.91324000  1
  Li  Li1  1  0.34361500  0.96882400  0.71234400  1
  Li  Li2  1  0.94198800  0.55993300  0.30172200  1
  Li  Li3  1  0.05801200  0.44006700  0.69827800  1
  Li  Li4  1  0.65638500  0.03117600  0.28765600  1
  Li  Li5  1  0.31431500  0.54251000  0.08676000  1
  Mn  Mn0  1  0.00000000  0.00000000  0.00000000  1
  Mn  Mn1  1  0.50000000  0.50000000  0.50000000  1
  F  F0  1  0.96352000  0.70998200  0.54324900  1
  F  F1  1  0.75603000  0.74149300  0.13648100  1
  F  F2  1  0.62784600  0.27042500  0.67238600  1
  F  F3  1  0.86480100  0.28101400  0.06841800  1
  F  F4  1  0.43871400  0.25273000  0.24185400  1
  F  F5  1  0.13519900  0.71898600  0.93158200  1
  F  F6  1  0.37215400  0.72957500  0.32761400  1
  F  F7  1  0.24397000  0.25850700  0.86351900  1
  F  F8  1  0.03648000  0.29001800  0.45675100  1
  F  F9  1  0.56128600  0.74727000  0.75814600  1
loop_
_geom_bond_atom_site_label_1
_geom_bond_atom_site_label_2
_geom_bond_distance
_geom_bond_site_symmetry_2
F0 Li1 1.856578 1_655
F0 Li2 1.952041 1_555
F0 Mn1 2.091393 1_555
F0 Li3 2.188842 1_655
F1 Li5 1.976592 1_555
F1 Li2 2.007811 1_555
F1 Li0 2.100645 1_554
F1 Mn0 2.148318 1_665
F1 Li4 2.262521 1_565
F2 Li1 1.901362 1_545
F2 Li0 1.948470 1_555
F2 Li3 1.962225 1_655
F2 Mn1 2.134212 1_555
F3 Li0 1.924024 1_554
F3 Mn0 2.088657 1_655
F3 Li2 2.125379 1_555
F3 Li5 2.144233 1_655
F4 Li4 2.007190 1_555
F4 Mn1 2.208841 1_555
F4 Mn0 2.225515 1_555
F4 Li2 2.336080 1_555
F4 Li5 2.345789 1_555
F5 Li5 1.924024 1_556
F5 Mn0 2.088657 1_566
F5 Li3 2.125379 1_555
F5 Li0 2.144233 1_455
F6 Li4 1.901362 1_565
F6 Li5 1.948470 1_555
F6 Li2 1.962225 1_455
F6 Mn1 2.134212 1_555
F7 Li0 1.976592 1_555
F7 Li3 2.007811 1_555
F7 Li5 2.100645 1_556
F7 Mn0 2.148318 1_556
F7 Li1 2.262521 1_545
F8 Li4 1.856578 1_455
F8 Li3 1.952041 1_555
F8 Mn1 2.091393 1_555
F8 Li2 2.188842 1_455
F9 Li1 2.007190 1_555
F9 Mn1 2.208841 1_555
F9 Mn0 2.225515 1_666
F9 Li3 2.336080 1_555
F9 Li0 2.345789 1_555
