# generated using pymatgen
data_YNiH3SO7
_symmetry_space_group_name_H-M   'P 1'
_cell_length_a   6.97263500
_cell_length_b   7.36852000
_cell_length_c   10.37113500
_cell_angle_alpha   90.00000000
_cell_angle_beta   90.00000000
_cell_angle_gamma   90.00000000
_symmetry_Int_Tables_number   1
_chemical_formula_structural   YNiH3SO7
_chemical_formula_sum   'Y4 Ni4 H12 S4 O28'
_cell_volume   532.84817870
_cell_formula_units_Z   4
loop_
 _symmetry_equiv_pos_site_id
 _symmetry_equiv_pos_as_xyz
  1  'x, y, z'
loop_
 _atom_site_type_symbol
 _atom_site_label
 _atom_site_symmetry_multiplicity
 _atom_site_fract_x
 _atom_site_fract_y
 _atom_site_fract_z
 _atom_site_occupancy
  Y  Y0  1  0.23472700  0.25000000  0.80091500  1
  Y  Y1  1  0.73472700  0.25000000  0.69908500  1
  Y  Y2  1  0.76527300  0.75000000  0.19908500  1
  Y  Y3  1  0.26527300  0.75000000  0.30091500  1
  Ni  Ni0  1  0.00000000  0.00000000  0.00000000  1
  Ni  Ni1  1  0.50000000  0.50000000  0.50000000  1
  Ni  Ni2  1  0.00000000  0.50000000  0.00000000  1
  Ni  Ni3  1  0.50000000  0.00000000  0.50000000  1
  H  H0  1  0.23031500  0.25000000  0.07180200  1
  H  H1  1  0.73031500  0.25000000  0.42819800  1
  H  H2  1  0.76968500  0.75000000  0.92819800  1
  H  H3  1  0.26968500  0.75000000  0.57180200  1
  H  H4  1  0.97125300  0.95241900  0.76063200  1
  H  H5  1  0.47125300  0.54758100  0.73936800  1
  H  H6  1  0.02874700  0.45241900  0.23936800  1
  H  H7  1  0.52874700  0.04758100  0.26063200  1
  H  H8  1  0.02874700  0.04758100  0.23936800  1
  H  H9  1  0.52874700  0.45241900  0.26063200  1
  H  H10  1  0.97125300  0.54758100  0.76063200  1
  H  H11  1  0.47125300  0.95241900  0.73936800  1
  S  S0  1  0.62136500  0.25000000  0.05283000  1
  S  S1  1  0.12136500  0.25000000  0.44717000  1
  S  S2  1  0.37863500  0.75000000  0.94717000  1
  S  S3  1  0.87863500  0.75000000  0.55283000  1
  O  O0  1  0.55212800  0.25000000  0.91567300  1
  O  O1  1  0.05212800  0.25000000  0.58432700  1
  O  O2  1  0.44787200  0.75000000  0.08432700  1
  O  O3  1  0.94787200  0.75000000  0.41567300  1
  O  O4  1  0.45954600  0.25000000  0.14480200  1
  O  O5  1  0.95954600  0.25000000  0.35519800  1
  O  O6  1  0.54045400  0.75000000  0.85519800  1
  O  O7  1  0.04045400  0.75000000  0.64480200  1
  O  O8  1  0.26210000  0.91592400  0.92460600  1
  O  O9  1  0.76210000  0.58407600  0.57539400  1
  O  O10  1  0.73790000  0.41592400  0.07539400  1
  O  O11  1  0.23790000  0.08407600  0.42460600  1
  O  O12  1  0.73790000  0.08407600  0.07539400  1
  O  O13  1  0.23790000  0.41592400  0.42460600  1
  O  O14  1  0.26210000  0.58407600  0.92460600  1
  O  O15  1  0.76210000  0.91592400  0.57539400  1
  O  O16  1  0.12493100  0.25000000  0.00870600  1
  O  O17  1  0.62493100  0.25000000  0.49129400  1
  O  O18  1  0.87506900  0.75000000  0.99129400  1
  O  O19  1  0.37506900  0.75000000  0.50870600  1
  O  O20  1  0.95061500  0.06644400  0.80755800  1
  O  O21  1  0.45061500  0.43355600  0.69244200  1
  O  O22  1  0.04938500  0.56644400  0.19244200  1
  O  O23  1  0.54938500  0.93355600  0.30755800  1
  O  O24  1  0.04938500  0.93355600  0.19244200  1
  O  O25  1  0.54938500  0.56644400  0.30755800  1
  O  O26  1  0.95061500  0.43355600  0.80755800  1
  O  O27  1  0.45061500  0.06644400  0.69244200  1
loop_
_geom_bond_atom_site_label_1
_geom_bond_atom_site_label_2
_geom_bond_distance
_geom_bond_site_symmetry_2
Ni0 O16 2.039708 1_555
Ni0 O18 2.039708 1_444
Ni0 O8 2.082080 1_544
Ni0 O12 2.082080 1_455
Ni0 O24 2.083665 1_545
Ni0 O20 2.083665 1_454
Ni1 O19 2.039708 1_555
Ni1 O17 2.039708 1_555
Ni1 O9 2.082080 1_555
Ni1 O13 2.082080 1_555
Ni1 O21 2.083665 1_555
Ni1 O25 2.083665 1_555
Ni2 O18 2.039708 1_454
Ni2 O16 2.039708 1_555
Ni2 O10 2.082080 1_455
Ni2 O14 2.082080 1_554
Ni2 O26 2.083665 1_454
Ni2 O22 2.083665 1_555
Ni3 O17 2.039708 1_555
Ni3 O19 2.039708 1_545
Ni3 O15 2.082080 1_545
Ni3 O11 2.082080 1_555
Ni3 O27 2.083665 1_555
Ni3 O23 2.083665 1_545
H0 O16 0.983944 1_555
H1 O17 0.983944 1_555
H2 O18 0.983944 1_555
H3 O19 0.983944 1_555
H4 O20 0.981575 1_565
H5 O21 0.981575 1_555
H6 O22 0.981575 1_555
H7 O23 0.981575 1_545
H8 O24 0.981575 1_545
H9 O25 0.981575 1_555
H10 O26 0.981575 1_555
H11 O27 0.981575 1_565
O0 S0 1.502163 1_556
O0 Y0 2.512849 1_555
O0 Y1 2.582001 1_555
O1 S1 1.502163 1_555
O1 Y1 2.512849 1_455
O1 Y0 2.582001 1_555
O2 S2 1.502163 1_554
O2 Y2 2.512849 1_555
O2 Y3 2.582001 1_555
O3 S3 1.502163 1_555
O3 Y3 2.512849 1_655
O3 Y2 2.582001 1_555
O4 S0 1.477467 1_555
O5 S1 1.477467 1_655
O6 S2 1.477467 1_555
O7 S3 1.477467 1_455
O8 S2 1.486538 1_555
O8 Y0 2.782399 1_565
O9 S3 1.486538 1_555
O9 Y1 2.782399 1_555
O10 S0 1.486538 1_555
O10 Y2 2.782399 1_555
O11 S1 1.486538 1_555
O11 Y3 2.782399 1_545
O12 S0 1.486538 1_555
O12 Y2 2.782399 1_545
O13 S1 1.486538 1_555
O13 Y3 2.782399 1_555
O14 S2 1.486538 1_555
O14 Y0 2.782399 1_555
O15 S3 1.486538 1_555
O15 Y1 2.782399 1_565
O16 Y0 2.286972 1_554
O17 Y1 2.286972 1_555
O18 Y2 2.286972 1_556
O19 Y3 2.286972 1_555
O20 Y1 2.315363 1_555
O20 Y0 2.399687 1_655
O21 Y0 2.315363 1_555
O21 Y1 2.399687 1_555
O22 Y3 2.315363 1_555
O22 Y2 2.399687 1_455
O23 Y2 2.315363 1_555
O23 Y3 2.399687 1_555
O24 Y3 2.315363 1_555
O24 Y2 2.399687 1_455
O25 Y2 2.315363 1_555
O25 Y3 2.399687 1_555
O26 Y1 2.315363 1_555
O26 Y0 2.399687 1_655
O27 Y0 2.315363 1_555
O27 Y1 2.399687 1_555
