# generated using pymatgen
data_LiFe2(BO3)2
_symmetry_space_group_name_H-M   'P 1'
_cell_length_a   5.27989000
_cell_length_b   9.07025584
_cell_length_c   11.40904860
_cell_angle_alpha   113.38134029
_cell_angle_beta   102.61024647
_cell_angle_gamma   89.81586875
_symmetry_Int_Tables_number   1
_chemical_formula_structural   LiFe2(BO3)2
_chemical_formula_sum   'Li4 Fe8 B8 O24'
_cell_volume   487.28743021
_cell_formula_units_Z   4
loop_
 _symmetry_equiv_pos_site_id
 _symmetry_equiv_pos_as_xyz
  1  'x, y, z'
loop_
 _atom_site_type_symbol
 _atom_site_label
 _atom_site_symmetry_multiplicity
 _atom_site_fract_x
 _atom_site_fract_y
 _atom_site_fract_z
 _atom_site_occupancy
  Li  Li0  1  0.64699100  0.30381800  0.59193700  1
  Li  Li1  1  0.38604600  0.04876800  0.09120500  1
  Li  Li2  1  0.31562100  0.67843000  0.33481900  1
  Li  Li3  1  0.57622400  0.91287600  0.84223300  1
  Fe  Fe0  1  0.59962700  0.59345500  0.86802900  1
  Fe  Fe1  1  0.90150200  0.89306100  0.12812300  1
  Fe  Fe2  1  0.14981400  0.47486500  0.62191600  1
  Fe  Fe3  1  0.34374300  0.03471500  0.37200400  1
  Fe  Fe4  1  0.65655000  0.97528500  0.62035900  1
  Fe  Fe5  1  0.84230900  0.51032100  0.36862700  1
  Fe  Fe6  1  0.09154500  0.10295700  0.86938200  1
  Fe  Fe7  1  0.40074300  0.40111800  0.11819200  1
  B  B0  1  0.36032000  0.36626900  0.37656600  1
  B  B1  1  0.11502700  0.77096300  0.87647000  1
  B  B2  1  0.84518700  0.84247200  0.36999200  1
  B  B3  1  0.59060800  0.26179000  0.86517000  1
  B  B4  1  0.14054700  0.14178300  0.61855900  1
  B  B5  1  0.39837300  0.73961800  0.12248100  1
  B  B6  1  0.65665400  0.64333200  0.62548200  1
  B  B7  1  0.90255900  0.22174000  0.12702100  1
  O  O0  1  0.86990600  0.77571800  0.91011400  1
  O  O1  1  0.55794500  0.53519200  0.66950900  1
  O  O2  1  0.76426800  0.08142700  0.11279600  1
  O  O3  1  0.49224800  0.24082600  0.38684200  1
  O  O4  1  0.12826200  0.39596200  0.41596100  1
  O  O5  1  0.22413900  0.62529700  0.83221600  1
  O  O6  1  0.70090800  0.38944200  0.85207700  1
  O  O7  1  0.94696800  0.94201700  0.31992300  1
  O  O8  1  0.28449800  0.88875500  0.15340500  1
  O  O9  1  0.38491300  0.11483100  0.58414000  1
  O  O10  1  0.01216500  0.26949900  0.61452700  1
  O  O11  1  0.61516700  0.72545300  0.06587000  1
  O  O12  1  0.38115400  0.27549800  0.92063500  1
  O  O13  1  0.61590300  0.87785700  0.41729400  1
  O  O14  1  0.69245600  0.10977500  0.82013600  1
  O  O15  1  0.03015000  0.03003500  0.65458500  1
  O  O16  1  0.30737000  0.62284700  0.14972500  1
  O  O17  1  0.79608300  0.36748200  0.17526700  1
  O  O18  1  0.85562800  0.59767500  0.56270300  1
  O  O19  1  0.55821400  0.79079400  0.64950100  1
  O  O20  1  0.96966800  0.70937600  0.36925100  1
  O  O21  1  0.24481900  0.91064000  0.89220800  1
  O  O22  1  0.45912600  0.47669300  0.33524800  1
  O  O23  1  0.13595300  0.21003000  0.08901300  1
loop_
_geom_bond_atom_site_label_1
_geom_bond_atom_site_label_2
_geom_bond_distance
_geom_bond_site_symmetry_2
Li0 O10 1.929677 1_655
Li0 O1 2.027241 1_555
Li0 O3 2.139256 1_555
Li0 O9 2.168289 1_555
Li1 O2 1.966575 1_555
Li1 O23 1.971270 1_555
Li1 O8 1.971321 1_545
Li1 O21 2.071089 1_544
Li2 O20 1.947318 1_455
Li2 O16 1.957169 1_555
Li2 O22 1.979618 1_555
Li2 O13 2.164982 1_555
Li3 O21 1.957616 1_555
Li3 O19 2.011749 1_555
Li3 O14 2.015355 1_565
Li3 O0 2.186278 1_555
Fe0 O6 1.874056 1_555
Fe0 O5 1.979165 1_555
Fe0 O0 2.021372 1_555
Fe0 O1 2.071399 1_555
Fe0 O11 2.076022 1_556
Fe1 O2 1.910107 1_565
Fe1 O11 1.946825 1_555
Fe1 O8 1.981836 1_655
Fe1 O7 2.010811 1_555
Fe1 O0 2.250775 1_554
Fe2 O10 1.965287 1_555
Fe2 O18 2.058598 1_455
Fe2 O1 2.121000 1_555
Fe2 O4 2.143715 1_555
Fe2 O5 2.183215 1_555
Fe3 O3 1.959256 1_555
Fe3 O7 2.126029 1_445
Fe3 O13 2.145281 1_545
Fe3 O9 2.192806 1_555
Fe3 O8 2.260974 1_545
Fe4 O19 1.924284 1_555
Fe4 O15 1.950941 1_665
Fe4 O9 1.993602 1_565
Fe4 O14 2.079682 1_565
Fe4 O13 2.086528 1_555
Fe5 O20 1.925486 1_555
Fe5 O4 1.930176 1_655
Fe5 O22 1.976515 1_555
Fe5 O18 2.018768 1_555
Fe5 O17 2.025642 1_555
Fe6 O21 2.006241 1_545
Fe6 O12 2.006968 1_555
Fe6 O14 2.066246 1_455
Fe6 O15 2.217241 1_555
Fe6 O23 2.256217 1_556
Fe7 O16 1.978373 1_555
Fe7 O12 2.061507 1_554
Fe7 O23 2.103292 1_555
Fe7 O17 2.105764 1_555
Fe7 O22 2.240133 1_555
B0 O3 1.363327 1_555
B0 O4 1.384926 1_555
B0 O22 1.408189 1_555
B1 O21 1.370479 1_555
B1 O5 1.387481 1_555
B1 O0 1.423936 1_455
B2 O20 1.370634 1_555
B2 O7 1.406007 1_555
B2 O13 1.416010 1_555
B3 O12 1.371544 1_555
B3 O6 1.371732 1_555
B3 O14 1.416998 1_555
B4 O10 1.351721 1_555
B4 O15 1.405385 1_555
B4 O9 1.421848 1_555
B5 O16 1.333807 1_555
B5 O11 1.414172 1_555
B5 O8 1.422815 1_555
B6 O18 1.370591 1_555
B6 O19 1.378769 1_555
B6 O1 1.412322 1_555
B7 O23 1.383400 1_655
B7 O17 1.385393 1_555
B7 O2 1.403378 1_555
