# generated using pymatgen
data_BaZn2H16O11
_symmetry_space_group_name_H-M   'P 1'
_cell_length_a   18.50254400
_cell_length_b   6.38487900
_cell_length_c   12.24375490
_cell_angle_alpha   83.77881582
_cell_angle_beta   90.00000000
_cell_angle_gamma   90.00000000
_symmetry_Int_Tables_number   1
_chemical_formula_structural   BaZn2H16O11
_chemical_formula_sum   'Ba4 Zn8 H64 O44'
_cell_volume   1437.91630474
_cell_formula_units_Z   4
loop_
 _symmetry_equiv_pos_site_id
 _symmetry_equiv_pos_as_xyz
  1  'x, y, z'
loop_
 _atom_site_type_symbol
 _atom_site_label
 _atom_site_symmetry_multiplicity
 _atom_site_fract_x
 _atom_site_fract_y
 _atom_site_fract_z
 _atom_site_occupancy
  Ba  Ba0  1  0.93979700  0.57316600  0.72976900  1
  Ba  Ba1  1  0.43979700  0.42683400  0.77023100  1
  Ba  Ba2  1  0.06020300  0.42683400  0.27023100  1
  Ba  Ba3  1  0.56020300  0.57316600  0.22976900  1
  Zn  Zn0  1  0.84847600  0.09594300  0.57645500  1
  Zn  Zn1  1  0.34847600  0.90405700  0.92354500  1
  Zn  Zn2  1  0.15152400  0.90405700  0.42354500  1
  Zn  Zn3  1  0.65152400  0.09594300  0.07645500  1
  Zn  Zn4  1  0.70183100  0.91118300  0.55276900  1
  Zn  Zn5  1  0.20183100  0.08881700  0.94723100  1
  Zn  Zn6  1  0.29816900  0.08881700  0.44723100  1
  Zn  Zn7  1  0.79816900  0.91118300  0.05276900  1
  H  H0  1  0.58664300  0.93787600  0.11165100  1
  H  H1  1  0.08664300  0.06212400  0.38834900  1
  H  H2  1  0.41335700  0.06212400  0.88834900  1
  H  H3  1  0.91335700  0.93787600  0.61165100  1
  H  H4  1  0.77019000  0.55733600  0.51752400  1
  H  H5  1  0.27019000  0.44266400  0.98247600  1
  H  H6  1  0.22981000  0.44266400  0.48247600  1
  H  H7  1  0.72981000  0.55733600  0.01752400  1
  H  H8  1  0.94098200  0.86139700  0.89554800  1
  H  H9  1  0.44098200  0.13860300  0.60445200  1
  H  H10  1  0.05901800  0.13860300  0.10445200  1
  H  H11  1  0.55901800  0.86139700  0.39554800  1
  H  H12  1  0.65507300  0.34647800  0.08195700  1
  H  H13  1  0.15507300  0.65352200  0.41804300  1
  H  H14  1  0.34492700  0.65352200  0.91804300  1
  H  H15  1  0.84492700  0.34647800  0.58195700  1
  H  H16  1  0.76577800  0.99641700  0.63388000  1
  H  H17  1  0.26577800  0.00358300  0.86612000  1
  H  H18  1  0.23422200  0.00358300  0.36612000  1
  H  H19  1  0.73422200  0.99641700  0.13388000  1
  H  H20  1  0.54866600  0.77170500  0.64334700  1
  H  H21  1  0.04866600  0.22829500  0.85665300  1
  H  H22  1  0.45133400  0.22829500  0.35665300  1
  H  H23  1  0.95133400  0.77170500  0.14334700  1
  H  H24  1  0.63484600  0.62639600  0.65644300  1
  H  H25  1  0.13484600  0.37360400  0.84355700  1
  H  H26  1  0.36515400  0.37360400  0.34355700  1
  H  H27  1  0.86515400  0.62639600  0.15644300  1
  H  H28  1  0.77845500  0.71589700  0.74781100  1
  H  H29  1  0.27845500  0.28410300  0.75218900  1
  H  H30  1  0.22154500  0.28410300  0.25218900  1
  H  H31  1  0.72154500  0.71589700  0.24781100  1
  H  H32  1  0.78541300  0.65277500  0.88001700  1
  H  H33  1  0.28541300  0.34722500  0.61998300  1
  H  H34  1  0.21458700  0.34722500  0.11998300  1
  H  H35  1  0.71458700  0.65277500  0.38001700  1
  H  H36  1  0.89954800  0.22780300  0.92736900  1
  H  H37  1  0.39954800  0.77219700  0.57263100  1
  H  H38  1  0.10045200  0.77219700  0.07263100  1
  H  H39  1  0.60045200  0.22780300  0.42736900  1
  H  H40  1  0.05512600  0.83280600  0.87677900  1
  H  H41  1  0.55512600  0.16719400  0.62322100  1
  H  H42  1  0.94487400  0.16719400  0.12322100  1
  H  H43  1  0.44487400  0.83280600  0.37677900  1
  H  H44  1  0.20698900  0.90149300  0.62763900  1
  H  H45  1  0.70698900  0.09850700  0.87236100  1
  H  H46  1  0.79301100  0.09850700  0.37236100  1
  H  H47  1  0.29301100  0.90149300  0.12763900  1
  H  H48  1  0.68910600  0.86756500  0.92451500  1
  H  H49  1  0.18910600  0.13243500  0.57548500  1
  H  H50  1  0.31089400  0.13243500  0.07548500  1
  H  H51  1  0.81089400  0.86756500  0.42451500  1
  H  H52  1  0.43905700  0.23800600  0.56531900  1
  H  H53  1  0.93905700  0.76199400  0.93468100  1
  H  H54  1  0.56094300  0.76199400  0.43468100  1
  H  H55  1  0.06094300  0.23800600  0.06531900  1
  H  H56  1  0.83726200  0.03318700  0.86617500  1
  H  H57  1  0.33726200  0.96681300  0.63382500  1
  H  H58  1  0.16273800  0.96681300  0.13382500  1
  H  H59  1  0.66273800  0.03318700  0.36617500  1
  H  H60  1  0.08925800  0.91091600  0.76309400  1
  H  H61  1  0.58925800  0.08908400  0.73690600  1
  H  H62  1  0.91074200  0.08908400  0.23690600  1
  H  H63  1  0.41074200  0.91091600  0.26309400  1
  O  O0  1  0.01084400  0.78059400  0.16256100  1
  O  O1  1  0.51084400  0.21940600  0.33743900  1
  O  O2  1  0.98915600  0.21940600  0.83743900  1
  O  O3  1  0.48915600  0.78059400  0.66256100  1
  O  O4  1  0.74592900  0.69066400  0.97794000  1
  O  O5  1  0.24592900  0.30933600  0.52206000  1
  O  O6  1  0.25407100  0.30933600  0.02206000  1
  O  O7  1  0.75407100  0.69066400  0.47794000  1
  O  O8  1  0.00155200  0.40099700  0.51159300  1
  O  O9  1  0.50155200  0.59900300  0.98840700  1
  O  O10  1  0.99844800  0.59900300  0.48840700  1
  O  O11  1  0.49844800  0.40099700  0.01159300  1
  O  O12  1  0.83349400  0.01284900  0.40427700  1
  O  O13  1  0.33349400  0.98715100  0.09572300  1
  O  O14  1  0.16650600  0.98715100  0.59572300  1
  O  O15  1  0.66650600  0.01284900  0.90427700  1
  O  O16  1  0.67267600  0.43093100  0.80078500  1
  O  O17  1  0.17267600  0.56906900  0.69921500  1
  O  O18  1  0.32732400  0.56906900  0.19921500  1
  O  O19  1  0.82732400  0.43093100  0.30078500  1
  O  O20  1  0.61966300  0.77207900  0.63692100  1
  O  O21  1  0.11966300  0.22792100  0.86307900  1
  O  O22  1  0.38033700  0.22792100  0.36307900  1
  O  O23  1  0.88033700  0.77207900  0.13692100  1
  O  O24  1  0.62251300  0.47227900  0.86247400  1
  O  O25  1  0.12251300  0.52772100  0.63752600  1
  O  O26  1  0.37748700  0.52772100  0.13752600  1
  O  O27  1  0.87748700  0.47227900  0.36247400  1
  O  O28  1  0.95001800  0.31685800  0.92285300  1
  O  O29  1  0.45001800  0.68314200  0.57714700  1
  O  O30  1  0.04998200  0.68314200  0.07714700  1
  O  O31  1  0.54998200  0.31685800  0.42285300  1
  O  O32  1  0.06266300  0.79354600  0.80261000  1
  O  O33  1  0.56266300  0.20645400  0.69739000  1
  O  O34  1  0.93733700  0.20645400  0.19739000  1
  O  O35  1  0.43733700  0.79354600  0.30261000  1
  O  O36  1  0.68820500  0.65138900  0.30340800  1
  O  O37  1  0.18820500  0.34861100  0.19659200  1
  O  O38  1  0.31179500  0.34861100  0.69659200  1
  O  O39  1  0.81179500  0.65138900  0.80340800  1
  O  O40  1  0.16796800  0.88697100  0.07060600  1
  O  O41  1  0.66796800  0.11302900  0.42939400  1
  O  O42  1  0.83203200  0.11302900  0.92939400  1
  O  O43  1  0.33203200  0.88697100  0.57060600  1
loop_
_geom_bond_atom_site_label_1
_geom_bond_atom_site_label_2
_geom_bond_distance
_geom_bond_site_symmetry_2
Ba0 O39 2.601749 1_555
Ba0 H3 2.650182 1_555
Ba0 O2 2.651108 1_555
Ba0 O28 2.732073 1_555
Ba0 O32 2.866243 1_655
Ba0 H8 2.883880 1_555
Ba0 H53 2.898946 1_555
Ba0 H15 3.003182 1_555
Ba0 O10 3.135645 1_555
Ba0 O8 3.207218 1_655
Ba1 O38 2.601749 1_555
Ba1 H2 2.650182 1_555
Ba1 O3 2.651108 1_555
Ba1 O29 2.732073 1_555
Ba1 O33 2.866243 1_555
Ba1 H9 2.883880 1_555
Ba1 H52 2.898946 1_555
Ba1 H14 3.003182 1_555
Ba1 O11 3.135645 1_556
Ba1 O9 3.207218 1_555
Ba2 O37 2.601749 1_555
Ba2 H1 2.650182 1_555
Ba2 O0 2.651108 1_555
Ba2 O30 2.732073 1_555
Ba2 O34 2.866243 1_455
Ba2 H10 2.883880 1_555
Ba2 H55 2.898946 1_555
Ba2 H13 3.003182 1_555
Ba2 O8 3.135645 1_555
Ba2 O10 3.207218 1_455
Ba3 O36 2.601749 1_555
Ba3 H0 2.650182 1_555
Ba3 O1 2.651108 1_555
Ba3 O31 2.732073 1_555
Ba3 O35 2.866243 1_555
Ba3 H11 2.883880 1_555
Ba3 H54 2.898946 1_555
Ba3 H12 3.003182 1_555
Ba3 O9 3.135645 1_554
Ba3 O11 3.207218 1_555
H0 Zn3 1.597222 1_565
H1 Zn2 1.597222 1_545
H2 Zn1 1.597222 1_545
H3 Zn0 1.597222 1_565
H4 O7 0.979338 1_555
H5 O6 0.979338 1_556
H6 O5 0.979338 1_555
H7 O4 0.979338 1_554
H10 H55 0.753488 1_555
H11 H54 0.753488 1_555
H12 Zn3 1.609671 1_555
H13 Zn2 1.609671 1_555
H14 Zn1 1.609671 1_555
H15 Zn0 1.609671 1_555
H16 Zn4 1.673162 1_555
H16 Zn0 1.772738 1_565
H17 Zn5 1.673162 1_555
H17 Zn1 1.772738 1_545
H18 Zn6 1.673162 1_555
H18 Zn2 1.772738 1_545
H19 Zn7 1.673162 1_555
H19 Zn3 1.772738 1_565
H20 O3 1.128649 1_555
H20 O20 1.315966 1_555
H21 O2 1.128649 1_455
H21 O21 1.315966 1_555
H22 O1 1.128649 1_555
H22 O22 1.315966 1_555
H23 O0 1.128649 1_655
H23 O23 1.315966 1_555
H24 O20 0.976256 1_555
H25 O21 0.976256 1_555
H26 O22 0.976256 1_555
H27 O23 0.976256 1_555
H28 O39 0.976107 1_555
H29 O38 0.976107 1_555
H30 O37 0.976107 1_555
H31 O36 0.976107 1_555
H32 O39 1.058283 1_555
H32 O4 1.446570 1_555
H33 O38 1.058283 1_555
H33 O5 1.446570 1_555
H34 O37 1.058283 1_555
H34 O6 1.446570 1_555
H35 O36 1.058283 1_555
H35 O7 1.446570 1_555
H36 O28 1.091596 1_555
H36 O42 1.447150 1_555
H37 O29 1.091596 1_555
H37 O43 1.447150 1_555
H38 O30 1.091596 1_555
H38 O40 1.447150 1_555
H39 O31 1.091596 1_555
H39 O41 1.447150 1_555
H40 O32 0.977895 1_555
H41 O33 0.977895 1_555
H42 O34 0.977895 1_555
H43 O35 0.977895 1_555
H44 O14 0.983137 1_555
H45 O15 0.983137 1_555
H46 O12 0.983137 1_555
H47 O13 0.983137 1_555
H48 O15 1.023190 1_565
H48 O4 1.627537 1_555
H49 O14 1.023190 1_545
H49 O5 1.627537 1_555
H50 O13 1.023190 1_545
H50 O6 1.627537 1_555
H51 O12 1.023190 1_565
H51 O7 1.627537 1_555
H52 H9 0.753488 1_555
H53 H8 0.753488 1_555
H56 O42 0.976677 1_555
H57 O43 0.976677 1_555
H58 O40 0.976677 1_555
H59 O41 0.976677 1_555
H60 O32 0.979404 1_555
H61 O33 0.979404 1_555
H62 O34 0.979404 1_555
H63 O35 0.979404 1_555
O4 Zn7 2.008899 1_556
O5 Zn6 2.008899 1_555
O6 Zn5 2.008899 1_554
O7 Zn4 2.008899 1_555
O10 O8 1.266656 1_655
O11 O9 1.266656 1_554
O12 Zn0 2.246071 1_555
O13 Zn1 2.246071 1_554
O14 Zn2 2.246071 1_555
O15 Zn3 2.246071 1_556
O16 O24 1.242920 1_555
O17 O25 1.242920 1_555
O18 O26 1.242920 1_555
O19 O27 1.242920 1_555
O20 Zn4 1.990843 1_555
O21 Zn5 1.990843 1_555
O22 Zn6 1.990843 1_555
O23 Zn7 1.990843 1_555
O40 Zn5 1.978225 1_564
O41 Zn4 1.978225 1_545
O42 Zn7 1.978225 1_546
O43 Zn6 1.978225 1_565
