# generated using pymatgen
data_CaAl2Si4(H2O7)2
_symmetry_space_group_name_H-M   'P 1'
_cell_length_a   9.95837777
_cell_length_b   9.95837777
_cell_length_c   7.58697395
_cell_angle_alpha   75.12677837
_cell_angle_beta   75.12677837
_cell_angle_gamma   82.69147499
_symmetry_Int_Tables_number   1
_chemical_formula_structural   CaAl2Si4(H2O7)2
_chemical_formula_sum   'Ca2 Al4 Si8 H8 O28'
_cell_volume   701.30681894
_cell_formula_units_Z   2
loop_
 _symmetry_equiv_pos_site_id
 _symmetry_equiv_pos_as_xyz
  1  'x, y, z'
loop_
 _atom_site_type_symbol
 _atom_site_label
 _atom_site_symmetry_multiplicity
 _atom_site_fract_x
 _atom_site_fract_y
 _atom_site_fract_z
 _atom_site_occupancy
  Ca  Ca0  1  0.75819100  0.75819100  0.26749300  1
  Ca  Ca1  1  0.24180900  0.24180900  0.73250700  1
  Al  Al0  1  0.43586200  0.81723900  0.26011800  1
  Al  Al1  1  0.18276100  0.56413800  0.73988200  1
  Al  Al2  1  0.56413800  0.18276100  0.73988200  1
  Al  Al3  1  0.81723900  0.43586200  0.26011800  1
  Si  Si0  1  0.62274900  0.85812700  0.84409300  1
  Si  Si1  1  0.14187300  0.37725100  0.15590700  1
  Si  Si2  1  0.37725100  0.14187300  0.15590700  1
  Si  Si3  1  0.85812700  0.62274900  0.84409300  1
  Si  Si4  1  0.46434800  0.69781300  0.67287500  1
  Si  Si5  1  0.30218700  0.53565200  0.32712500  1
  Si  Si6  1  0.53565200  0.30218700  0.32712500  1
  Si  Si7  1  0.69781300  0.46434800  0.67287500  1
  H  H0  1  0.72647400  0.09452400  0.27652300  1
  H  H1  1  0.90547600  0.27352600  0.72347700  1
  H  H2  1  0.27352600  0.90547600  0.72347700  1
  H  H3  1  0.09452400  0.72647400  0.27652300  1
  H  H4  1  0.95336900  0.01087800  0.32091000  1
  H  H5  1  0.98912200  0.04663100  0.67909000  1
  H  H6  1  0.04663100  0.98912200  0.67909000  1
  H  H7  1  0.01087800  0.95336900  0.32091000  1
  O  O0  1  0.76228800  0.76228800  0.76876500  1
  O  O1  1  0.23771200  0.23771200  0.23123500  1
  O  O2  1  0.58945800  0.82464700  0.07403600  1
  O  O3  1  0.17535300  0.41054200  0.92596400  1
  O  O4  1  0.41054200  0.17535300  0.92596400  1
  O  O5  1  0.82464700  0.58945800  0.07403600  1
  O  O6  1  0.52405000  0.75319200  0.44617700  1
  O  O7  1  0.24680800  0.47595000  0.55382300  1
  O  O8  1  0.47595000  0.24680800  0.55382300  1
  O  O9  1  0.75319200  0.52405000  0.44617700  1
  O  O10  1  0.49135300  0.80991000  0.78430400  1
  O  O11  1  0.19009000  0.50864700  0.21569600  1
  O  O12  1  0.50864700  0.19009000  0.21569600  1
  O  O13  1  0.80991000  0.49135300  0.78430400  1
  O  O14  1  0.35231400  0.98136000  0.25072400  1
  O  O15  1  0.01864000  0.64768600  0.74927600  1
  O  O16  1  0.64768600  0.01864000  0.74927600  1
  O  O17  1  0.98136000  0.35231400  0.25072400  1
  O  O18  1  0.54822500  0.54822500  0.74277900  1
  O  O19  1  0.45177500  0.45177500  0.25722100  1
  O  O20  1  0.29833900  0.68688900  0.72465100  1
  O  O21  1  0.31311100  0.70166100  0.27534900  1
  O  O22  1  0.70166100  0.31311100  0.27534900  1
  O  O23  1  0.68688900  0.29833900  0.72465100  1
  O  O24  1  0.72576300  0.99270100  0.30002300  1
  O  O25  1  0.00729900  0.27423700  0.69997700  1
  O  O26  1  0.27423700  0.00729900  0.69997700  1
  O  O27  1  0.99270100  0.72576300  0.30002300  1
loop_
_geom_bond_atom_site_label_1
_geom_bond_atom_site_label_2
_geom_bond_distance
_geom_bond_site_symmetry_2
Ca0 O9 2.376793 1_555
Ca0 O6 2.376793 1_555
Ca0 O27 2.383716 1_555
Ca0 O24 2.383716 1_555
Ca0 O5 2.429036 1_555
Ca0 O2 2.429036 1_555
Ca1 O7 2.376793 1_555
Ca1 O8 2.376793 1_555
Ca1 O25 2.383716 1_555
Ca1 O26 2.383716 1_555
Ca1 O3 2.429036 1_555
Ca1 O4 2.429036 1_555
Al0 O14 1.730080 1_555
Al0 O21 1.746286 1_555
Al0 O6 1.789535 1_555
Al0 O2 1.790212 1_555
Al1 O15 1.730080 1_555
Al1 O20 1.746286 1_555
Al1 O7 1.789535 1_555
Al1 O3 1.790212 1_555
Al2 O16 1.730080 1_555
Al2 O23 1.746286 1_555
Al2 O8 1.789535 1_555
Al2 O4 1.790212 1_555
Al3 O17 1.730080 1_555
Al3 O22 1.746286 1_555
Al3 O9 1.789535 1_555
Al3 O5 1.790212 1_555
H0 O24 0.984067 1_545
H1 O25 0.984067 1_655
H2 O26 0.984067 1_565
H3 O27 0.984067 1_455
H4 H7 0.756648 1_645
H5 H6 0.756648 1_645
O0 Si0 1.644185 1_555
O0 Si3 1.644185 1_555
O1 Si2 1.644185 1_555
O1 Si1 1.644185 1_555
O2 Si0 1.642319 1_554
O3 Si1 1.642319 1_556
O4 Si2 1.642319 1_556
O5 Si3 1.642319 1_554
O6 Si4 1.639321 1_555
O7 Si5 1.639321 1_555
O8 Si6 1.639321 1_555
O9 Si7 1.639321 1_555
O10 Si4 1.646433 1_555
O10 Si0 1.650712 1_555
O11 Si5 1.646433 1_555
O11 Si1 1.650712 1_555
O12 Si6 1.646433 1_555
O12 Si2 1.650712 1_555
O13 Si7 1.646433 1_555
O13 Si3 1.650712 1_555
O14 Si2 1.597869 1_565
O15 Si3 1.597869 1_455
O16 Si0 1.597869 1_545
O17 Si1 1.597869 1_655
O18 Si7 1.644172 1_555
O18 Si4 1.644172 1_555
O19 Si6 1.644172 1_555
O19 Si5 1.644172 1_555
O20 Si4 1.609219 1_555
O21 Si5 1.609219 1_555
O22 Si6 1.609219 1_555
O23 Si7 1.609219 1_555
