# generated using pymatgen
data_Li3NiPCO7
_symmetry_space_group_name_H-M   'P 1'
_cell_length_a   5.09983128
_cell_length_b   10.48436602
_cell_length_c   10.48472240
_cell_angle_alpha   104.24028449
_cell_angle_beta   87.84105532
_cell_angle_gamma   92.16801006
_symmetry_Int_Tables_number   1
_chemical_formula_structural   Li3NiPCO7
_chemical_formula_sum   'Li12 Ni4 P4 C4 O28'
_cell_volume   542.75466466
_cell_formula_units_Z   4
loop_
 _symmetry_equiv_pos_site_id
 _symmetry_equiv_pos_as_xyz
  1  'x, y, z'
loop_
 _atom_site_type_symbol
 _atom_site_label
 _atom_site_symmetry_multiplicity
 _atom_site_fract_x
 _atom_site_fract_y
 _atom_site_fract_z
 _atom_site_occupancy
  Li  Li0  1  0.03041800  0.75913500  0.75587100  1
  Li  Li1  1  0.03081100  0.25903700  0.25563200  1
  Li  Li2  1  0.96991700  0.50555300  0.50899200  1
  Li  Li3  1  0.96959000  0.00555200  0.00894200  1
  Li  Li4  1  0.42067100  0.02682300  0.20191800  1
  Li  Li5  1  0.42060700  0.52686800  0.70205500  1
  Li  Li6  1  0.57911300  0.95200900  0.77658500  1
  Li  Li7  1  0.57972500  0.45241100  0.27718200  1
  Li  Li8  1  0.43659900  0.94173400  0.45970600  1
  Li  Li9  1  0.43645000  0.44169100  0.95978700  1
  Li  Li10  1  0.56315200  0.20980200  0.69162700  1
  Li  Li11  1  0.56351600  0.71008400  0.19170800  1
  Ni  Ni0  1  0.05902200  0.73717800  0.00875100  1
  Ni  Ni1  1  0.94074000  0.25858100  0.98736000  1
  Ni  Ni2  1  0.05879200  0.23744700  0.50851600  1
  Ni  Ni3  1  0.94104400  0.75855700  0.48756800  1
  P  P0  1  0.96085300  0.95445100  0.29073300  1
  P  P1  1  0.96089800  0.45455100  0.79076100  1
  P  P2  1  0.03905600  0.04081100  0.70453900  1
  P  P3  1  0.03918000  0.54067600  0.20466000  1
  C  C0  1  0.52662400  0.29921500  0.43999800  1
  C  C1  1  0.52697300  0.79917200  0.93979800  1
  C  C2  1  0.47339200  0.68995600  0.54910800  1
  C  C3  1  0.47307200  0.18995800  0.04922100  1
  O  O0  1  0.34929800  0.34728600  0.38020700  1
  O  O1  1  0.34996800  0.84713400  0.87977600  1
  O  O2  1  0.65071600  0.63003500  0.59702500  1
  O  O3  1  0.65044000  0.13007500  0.09712000  1
  O  O4  1  0.77252500  0.32983600  0.42378000  1
  O  O5  1  0.77305700  0.82964900  0.92366400  1
  O  O6  1  0.22745500  0.67370200  0.57967700  1
  O  O7  1  0.22712000  0.17363000  0.07983600  1
  O  O8  1  0.08422600  0.91179000  0.14762400  1
  O  O9  1  0.08407700  0.41190000  0.64762200  1
  O  O10  1  0.91591800  0.89764800  0.66194000  1
  O  O11  1  0.91611300  0.39749000  0.16201800  1
  O  O12  1  0.05351100  0.10188900  0.33314900  1
  O  O13  1  0.05404300  0.60192700  0.83315800  1
  O  O14  1  0.94622400  0.08323300  0.85193600  1
  O  O15  1  0.94616300  0.58302400  0.35204100  1
  O  O16  1  0.45613800  0.22289900  0.51575600  1
  O  O17  1  0.45627500  0.72308000  0.01575200  1
  O  O18  1  0.54386200  0.76591400  0.47299600  1
  O  O19  1  0.54341400  0.26590300  0.97309200  1
  O  O20  1  0.65917900  0.93230300  0.29025000  1
  O  O21  1  0.65919700  0.43253000  0.79039700  1
  O  O22  1  0.34070600  0.04053500  0.68237500  1
  O  O23  1  0.34085900  0.54053600  0.18262300  1
  O  O24  1  0.09053400  0.88039500  0.38175300  1
  O  O25  1  0.09048100  0.38043700  0.88175600  1
  O  O26  1  0.90921500  0.13168300  0.63036600  1
  O  O27  1  0.90906800  0.63148100  0.13049000  1
loop_
_geom_bond_atom_site_label_1
_geom_bond_atom_site_label_2
_geom_bond_distance
_geom_bond_site_symmetry_2
Li0 O13 2.016749 1_555
Li0 O10 2.056927 1_455
Li0 O6 2.082999 1_555
Li0 O5 2.150299 1_455
Li0 O1 2.156558 1_555
Li1 O12 2.017138 1_555
Li1 O11 2.054532 1_455
Li1 O7 2.078026 1_555
Li1 O4 2.156235 1_455
Li1 O0 2.156794 1_555
Li2 O15 2.015540 1_555
Li2 O9 2.055448 1_655
Li2 O4 2.079246 1_555
Li2 O6 2.153503 1_655
Li2 O2 2.158729 1_555
Li3 O14 2.017195 1_554
Li3 O8 2.057458 1_645
Li3 O5 2.078852 1_544
Li3 O7 2.153315 1_655
Li3 O3 2.159139 1_555
Li4 O20 1.986677 1_545
Li4 O3 2.035798 1_555
Li4 O8 2.074096 1_545
Li4 O12 2.324495 1_555
Li4 O7 2.482174 1_555
Li5 O21 1.985799 1_555
Li5 O2 2.037732 1_555
Li5 O9 2.074359 1_555
Li5 O13 2.321417 1_555
Li5 O6 2.483616 1_555
Li6 O22 1.985518 1_565
Li6 O1 2.034207 1_555
Li6 O10 2.073998 1_555
Li6 O14 2.324638 1_565
Li6 O5 2.487216 1_555
Li7 O23 1.986792 1_555
Li7 O0 2.038290 1_555
Li7 O11 2.075850 1_555
Li7 O15 2.317691 1_555
Li7 O4 2.482351 1_555
Li8 O18 1.981170 1_555
Li8 O24 1.990119 1_555
Li8 O20 2.055492 1_555
Li8 O22 2.350568 1_565
Li9 O19 1.980419 1_555
Li9 O25 1.989814 1_555
Li9 O21 2.055769 1_555
Li9 O23 2.351910 1_556
Li10 O16 1.980643 1_555
Li10 O26 1.990791 1_555
Li10 O22 2.053544 1_555
Li10 O21 2.351016 1_555
Li11 O17 1.981533 1_555
Li11 O27 1.990250 1_555
Li11 O23 2.056809 1_555
Li11 O20 2.345483 1_555
Ni0 O27 2.000069 1_455
Ni0 O13 2.029111 1_554
Ni0 O17 2.042253 1_555
Ni0 O8 2.042775 1_555
Ni0 O5 2.119708 1_454
Ni0 O1 2.417761 1_554
Ni1 O25 1.999940 1_655
Ni1 O14 2.028123 1_555
Ni1 O19 2.043136 1_555
Ni1 O11 2.043198 1_556
Ni1 O7 2.120463 1_656
Ni1 O3 2.411415 1_556
Ni2 O26 2.000796 1_455
Ni2 O12 2.028933 1_555
Ni2 O9 2.042812 1_555
Ni2 O16 2.043523 1_555
Ni2 O4 2.118260 1_455
Ni2 O0 2.411187 1_555
Ni3 O24 2.000907 1_655
Ni3 O15 2.030024 1_555
Ni3 O10 2.042132 1_555
Ni3 O18 2.042823 1_555
Ni3 O6 2.117760 1_655
Ni3 O2 2.409729 1_555
C0 O16 1.292180 1_555
C0 O4 1.298061 1_555
C0 O0 1.302866 1_555
C1 O17 1.292204 1_556
C1 O5 1.298447 1_555
C1 O1 1.302531 1_555
C2 O18 1.292125 1_555
C2 O6 1.298187 1_555
C2 O2 1.302833 1_555
C3 O19 1.292006 1_554
C3 O7 1.298498 1_555
C3 O3 1.302655 1_555
O8 P0 1.570760 1_455
O9 P1 1.570656 1_455
O10 P2 1.570595 1_665
O11 P3 1.570698 1_655
O12 P0 1.559778 1_445
O13 P1 1.559865 1_455
O14 P2 1.559779 1_655
O15 P3 1.559847 1_655
O20 P0 1.547212 1_555
O21 P1 1.547196 1_555
O22 P2 1.547141 1_555
O23 P3 1.547135 1_555
O24 P0 1.549805 1_455
O25 P1 1.549779 1_455
O26 P2 1.549842 1_655
O27 P3 1.549941 1_655
