# generated using pymatgen
data_Li2TiFe2O5
_symmetry_space_group_name_H-M   'P 1'
_cell_length_a   5.13843631
_cell_length_b   7.89531281
_cell_length_c   5.14288680
_cell_angle_alpha   70.94870284
_cell_angle_beta   109.63599340
_cell_angle_gamma   96.32818886
_symmetry_Int_Tables_number   1
_chemical_formula_structural   Li2TiFe2O5
_chemical_formula_sum   'Li4 Ti2 Fe4 O10'
_cell_volume   185.74765440
_cell_formula_units_Z   2
loop_
 _symmetry_equiv_pos_site_id
 _symmetry_equiv_pos_as_xyz
  1  'x, y, z'
loop_
 _atom_site_type_symbol
 _atom_site_label
 _atom_site_symmetry_multiplicity
 _atom_site_fract_x
 _atom_site_fract_y
 _atom_site_fract_z
 _atom_site_occupancy
  Li  Li0  1  0.49957600  0.19768200  0.90053900  1
  Li  Li1  1  0.49709700  0.00393700  0.49845400  1
  Li  Li2  1  0.00161100  0.19970400  0.40098100  1
  Li  Li3  1  0.00156700  0.59361300  0.20560400  1
  Ti  Ti0  1  0.49862200  0.38869200  0.30256500  1
  Ti  Ti1  1  0.99822300  0.01161200  0.99070900  1
  Fe  Fe0  1  0.50385900  0.60589200  0.69629800  1
  Fe  Fe1  1  0.99551100  0.39308100  0.80517900  1
  Fe  Fe2  1  0.99795600  0.79608400  0.60315500  1
  Fe  Fe3  1  0.50128500  0.80435900  0.10237400  1
  O  O0  1  0.75370800  0.81137400  0.84995000  1
  O  O1  1  0.25181400  0.59027700  0.96570600  1
  O  O2  1  0.74363900  0.19824900  0.64481300  1
  O  O3  1  0.74634600  0.58824400  0.43840000  1
  O  O4  1  0.24262900  0.81262500  0.33536300  1
  O  O5  1  0.23265600  0.00199900  0.76667100  1
  O  O6  1  0.27105400  0.40350400  0.53975400  1
  O  O7  1  0.77254300  0.99960900  0.23684000  1
  O  O8  1  0.73471700  0.39978600  0.06113700  1
  O  O9  1  0.25558800  0.19967700  0.15550800  1
loop_
_geom_bond_atom_site_label_1
_geom_bond_atom_site_label_2
_geom_bond_distance
_geom_bond_site_symmetry_2
Li0 O5 2.082002 1_555
Li0 O2 2.099022 1_555
Li0 O9 2.101006 1_556
Li0 O6 2.109567 1_555
Li0 O8 2.110188 1_556
Li0 O7 2.119367 1_546
Li1 O2 2.051738 1_555
Li1 O9 2.052181 1_555
Li1 O4 2.085510 1_545
Li1 O0 2.088934 1_545
Li1 O5 2.233998 1_555
Li1 O7 2.266095 1_545
Li2 O5 2.091521 1_555
Li2 O7 2.094459 1_445
Li2 O9 2.098672 1_555
Li2 O2 2.105759 1_455
Li2 O8 2.120186 1_455
Li2 O6 2.147049 1_555
Li3 O3 2.040813 1_455
Li3 O1 2.066710 1_554
Li3 O6 2.073301 1_555
Li3 O8 2.090231 1_455
Li3 O4 2.166861 1_555
Li3 O0 2.188078 1_454
Fe0 O6 2.098500 1_555
Fe0 O8 2.124179 1_556
Fe0 O0 2.144904 1_555
Fe0 O3 2.144935 1_555
Fe0 O1 2.161373 1_555
Fe0 O4 2.177621 1_555
Fe1 O2 2.096051 1_555
Fe1 O9 2.097457 1_656
Fe1 O3 2.118000 1_555
Fe1 O1 2.120476 1_655
Fe1 O8 2.185891 1_556
Fe1 O6 2.252716 1_655
Fe2 O0 2.098746 1_555
Fe2 O7 2.107204 1_555
Fe2 O4 2.122392 1_655
Fe2 O5 2.140890 1_665
Fe2 O1 2.161751 1_655
Fe2 O3 2.187692 1_555
Fe3 O4 2.084949 1_555
Fe3 O7 2.090906 1_555
Fe3 O5 2.106040 1_564
Fe3 O0 2.107042 1_554
Fe3 O3 2.137681 1_555
Fe3 O1 2.164849 1_554
O0 Ti1 2.073641 1_565
O1 Ti0 2.076311 1_556
O2 Ti0 2.035738 1_555
O2 Ti1 2.048615 1_555
O3 Ti0 2.066249 1_555
O4 Ti1 2.075610 1_464
O5 Ti1 1.947951 1_455
O6 Ti0 1.987709 1_555
O7 Ti1 1.959612 1_564
O8 Ti0 1.984699 1_555
O9 Ti0 2.012409 1_555
O9 Ti1 2.075409 1_454
