# generated using pymatgen
data_Li2SiNiO4
_symmetry_space_group_name_H-M   'P 1'
_cell_length_a   4.97647600
_cell_length_b   6.36139700
_cell_length_c   10.86224387
_cell_angle_alpha   88.30356719
_cell_angle_beta   90.00000000
_cell_angle_gamma   90.00000000
_symmetry_Int_Tables_number   1
_chemical_formula_structural   Li2SiNiO4
_chemical_formula_sum   'Li8 Si4 Ni4 O16'
_cell_volume   343.71902541
_cell_formula_units_Z   4
loop_
 _symmetry_equiv_pos_site_id
 _symmetry_equiv_pos_as_xyz
  1  'x, y, z'
loop_
 _atom_site_type_symbol
 _atom_site_label
 _atom_site_symmetry_multiplicity
 _atom_site_fract_x
 _atom_site_fract_y
 _atom_site_fract_z
 _atom_site_occupancy
  Li  Li0  1  0.19318500  0.50670900  0.58521800  1
  Li  Li1  1  0.30681500  0.50670900  0.08521800  1
  Li  Li2  1  0.19648900  0.26282200  0.82833300  1
  Li  Li3  1  0.30351100  0.26282200  0.32833300  1
  Li  Li4  1  0.69648900  0.73717800  0.67166700  1
  Li  Li5  1  0.80351100  0.73717800  0.17166700  1
  Li  Li6  1  0.69318500  0.49329100  0.91478200  1
  Li  Li7  1  0.80681500  0.49329100  0.41478200  1
  Si  Si0  1  0.69310800  0.26219700  0.66637000  1
  Si  Si1  1  0.80689200  0.26219700  0.16637000  1
  Si  Si2  1  0.19310800  0.73780300  0.83363000  1
  Si  Si3  1  0.30689200  0.73780300  0.33363000  1
  Ni  Ni0  1  0.20997400  0.00539100  0.58994400  1
  Ni  Ni1  1  0.29002600  0.00539100  0.08994400  1
  Ni  Ni2  1  0.70997400  0.99460900  0.91005600  1
  Ni  Ni3  1  0.79002600  0.99460900  0.41005600  1
  O  O0  1  0.79679400  0.47366100  0.59664700  1
  O  O1  1  0.70320600  0.47366100  0.09664700  1
  O  O2  1  0.35958300  0.25039800  0.66477200  1
  O  O3  1  0.14041700  0.25039800  0.16477200  1
  O  O4  1  0.79551200  0.24660500  0.81186100  1
  O  O5  1  0.70448800  0.24660500  0.31186100  1
  O  O6  1  0.80467100  0.04634600  0.59420200  1
  O  O7  1  0.69532900  0.04634600  0.09420200  1
  O  O8  1  0.30467100  0.95365400  0.90579800  1
  O  O9  1  0.19532900  0.95365400  0.40579800  1
  O  O10  1  0.85958300  0.74960200  0.83522800  1
  O  O11  1  0.64041700  0.74960200  0.33522800  1
  O  O12  1  0.29551200  0.75339500  0.68813900  1
  O  O13  1  0.20448800  0.75339500  0.18813900  1
  O  O14  1  0.29679400  0.52633900  0.90335300  1
  O  O15  1  0.20320600  0.52633900  0.40335300  1
loop_
_geom_bond_atom_site_label_1
_geom_bond_atom_site_label_2
_geom_bond_distance
_geom_bond_site_symmetry_2
Li0 O15 1.976341 1_555
Li0 O0 1.987293 1_455
Li0 O2 2.001882 1_555
Li0 O12 2.018813 1_555
Li1 O14 1.976341 1_554
Li1 O1 1.987293 1_555
Li1 O3 2.001882 1_555
Li1 O13 2.018813 1_555
Li2 O14 1.950433 1_555
Li2 O2 1.956976 1_555
Li2 O4 2.006385 1_455
Li2 O8 2.183563 1_545
Li3 O15 1.950433 1_555
Li3 O3 1.956976 1_555
Li3 O5 2.006385 1_555
Li3 O9 2.183563 1_545
Li4 O0 1.950433 1_555
Li4 O10 1.956976 1_555
Li4 O12 2.006385 1_555
Li4 O6 2.183563 1_565
Li5 O1 1.950433 1_555
Li5 O11 1.956976 1_555
Li5 O13 2.006385 1_655
Li5 O7 2.183563 1_565
Li6 O1 1.976341 1_556
Li6 O14 1.987293 1_555
Li6 O10 2.001882 1_555
Li6 O4 2.018813 1_555
Li7 O0 1.976341 1_555
Li7 O15 1.987293 1_655
Li7 O11 2.001882 1_555
Li7 O5 2.018813 1_555
Ni0 O2 1.928513 1_555
Ni0 O12 1.946124 1_545
Ni0 O6 2.034438 1_455
Ni0 O9 2.038029 1_545
Ni1 O3 1.928513 1_555
Ni1 O13 1.946124 1_545
Ni1 O7 2.034438 1_555
Ni1 O8 2.038029 1_544
Ni2 O10 1.928513 1_555
Ni2 O4 1.946124 1_565
Ni2 O8 2.034438 1_555
Ni2 O7 2.038029 1_566
Ni3 O11 1.928513 1_555
Ni3 O5 1.946124 1_565
Ni3 O9 2.034438 1_655
Ni3 O6 2.038029 1_565
O0 Si0 1.609063 1_555
O1 Si1 1.609063 1_555
O2 Si0 1.661589 1_555
O3 Si1 1.661589 1_455
O4 Si0 1.660661 1_555
O5 Si1 1.660661 1_555
O6 Si0 1.694674 1_555
O7 Si1 1.694674 1_555
O8 Si2 1.694674 1_555
O9 Si3 1.694674 1_555
O10 Si2 1.661589 1_655
O11 Si3 1.661589 1_555
O12 Si2 1.660661 1_555
O13 Si3 1.660661 1_555
O14 Si2 1.609063 1_555
O15 Si3 1.609063 1_555
