# generated using pymatgen
data_LiMn2O3F
_symmetry_space_group_name_H-M   'P 1'
_cell_length_a   7.93338368
_cell_length_b   7.93338368
_cell_length_c   7.93338368
_cell_angle_alpha   134.69065023
_cell_angle_beta   114.95712663
_cell_angle_gamma   82.80661600
_symmetry_Int_Tables_number   1
_chemical_formula_structural   LiMn2O3F
_chemical_formula_sum   'Li4 Mn8 O12 F4'
_cell_volume   310.21991058
_cell_formula_units_Z   4
loop_
 _symmetry_equiv_pos_site_id
 _symmetry_equiv_pos_as_xyz
  1  'x, y, z'
loop_
 _atom_site_type_symbol
 _atom_site_label
 _atom_site_symmetry_multiplicity
 _atom_site_fract_x
 _atom_site_fract_y
 _atom_site_fract_z
 _atom_site_occupancy
  Li  Li0  1  0.27579300  0.37729400  0.89850000  1
  Li  Li1  1  0.52120600  0.62270600  0.89850000  1
  Li  Li2  1  0.98293900  0.87111800  0.11182100  1
  Li  Li3  1  0.24070300  0.12888200  0.11182100  1
  Mn  Mn0  1  0.48573200  0.00000000  0.48573200  1
  Mn  Mn1  1  0.24246500  0.74989700  0.49256900  1
  Mn  Mn2  1  0.74267200  0.25010300  0.49256900  1
  Mn  Mn3  1  0.62446500  0.61879900  0.49185100  1
  Mn  Mn4  1  0.62446500  0.13261400  0.00566600  1
  Mn  Mn5  1  0.87305200  0.86738600  0.49185100  1
  Mn  Mn6  1  0.87305200  0.38120100  0.00566600  1
  Mn  Mn7  1  0.01303000  0.50000000  0.51303000  1
  O  O0  1  0.39365200  0.66074600  0.30818300  1
  O  O1  1  0.64743700  0.91453100  0.30818300  1
  O  O2  1  0.39365200  0.08546900  0.73290600  1
  O  O3  1  0.64743700  0.33925400  0.73290600  1
  O  O4  1  0.75300500  0.00000000  0.75300500  1
  O  O5  1  0.97516800  0.73374700  0.24142100  1
  O  O6  1  0.50767400  0.26625300  0.24142100  1
  O  O7  1  0.74195800  0.50000000  0.24195800  1
  O  O8  1  0.85352100  0.16068700  0.26449200  1
  O  O9  1  0.10380500  0.41097100  0.26449200  1
  O  O10  1  0.85352100  0.58902900  0.69283400  1
  O  O11  1  0.10380500  0.83931300  0.69283400  1
  F  F0  1  0.26039700  0.50000000  0.76039700  1
  F  F1  1  0.51164800  0.75008900  0.76155900  1
  F  F2  1  0.01147000  0.24991100  0.76155900  1
  F  F3  1  0.24227500  0.00000000  0.24227500  1
loop_
_geom_bond_atom_site_label_1
_geom_bond_atom_site_label_2
_geom_bond_distance
_geom_bond_site_symmetry_2
Li0 O0 2.043654 1_556
Li0 O2 2.043659 1_555
Li1 O3 2.043654 1_555
Li1 O1 2.043654 1_556
Li2 O5 1.973578 1_555
Li2 O10 2.084139 1_554
Li2 O8 2.084139 1_565
Li3 O6 1.973578 1_555
Li3 O11 2.084139 1_544
Li3 O9 2.084139 1_555
Mn0 O1 2.013263 1_545
Mn0 O3 2.013263 1_555
Mn0 O2 2.013263 1_555
Mn0 O0 2.013263 1_545
Mn0 O4 2.279896 1_555
Mn1 O2 1.972706 1_565
Mn1 O0 1.972710 1_555
Mn1 O11 1.982858 1_555
Mn1 O9 1.982862 1_555
Mn1 O5 2.150946 1_455
Mn2 O1 1.972703 1_545
Mn2 O3 1.972703 1_555
Mn2 O8 1.982865 1_555
Mn2 O10 1.982865 1_555
Mn2 O6 2.150951 1_555
Mn3 O0 1.965902 1_555
Mn3 O10 1.969110 1_555
Mn3 O6 1.976854 1_555
Mn3 O7 2.097312 1_555
Mn3 O4 2.157467 1_565
Mn4 O2 1.965902 1_554
Mn4 O8 1.969110 1_555
Mn4 O6 1.976854 1_555
Mn4 O7 2.097312 1_555
Mn4 O4 2.157467 1_554
Mn5 O1 1.965902 1_555
Mn5 O11 1.969110 1_655
Mn5 O5 1.976854 1_555
Mn5 O7 2.097312 1_555
Mn5 O4 2.157467 1_565
Mn6 O3 1.965902 1_554
Mn6 O9 1.969110 1_655
Mn6 O5 1.976854 1_555
Mn6 O7 2.097312 1_555
Mn6 O4 2.157467 1_554
Mn7 O10 2.004326 1_455
Mn7 O11 2.004326 1_555
Mn7 O8 2.004326 1_455
Mn7 O9 2.004326 1_555
Mn7 O7 2.312302 1_455
F0 Li1 1.876280 1_555
F0 Li0 1.876282 1_555
F0 Mn7 2.110093 1_555
F1 Li1 1.913855 1_555
F1 Mn4 2.170746 1_566
F1 Mn3 2.170746 1_555
F1 Mn1 2.294548 1_555
F2 Li0 1.913848 1_555
F2 Mn5 2.170746 1_445
F2 Mn6 2.170746 1_456
F2 Mn2 2.294543 1_455
F3 Li2 1.895003 1_445
F3 Li3 1.895003 1_555
F3 Mn0 2.076740 1_555
