# generated using pymatgen
data_Na7Li4Yb5C12O37
_symmetry_space_group_name_H-M   'P 1'
_cell_length_a   10.29251397
_cell_length_b   10.29251397
_cell_length_c   10.34674487
_cell_angle_alpha   60.79252473
_cell_angle_beta   60.79252473
_cell_angle_gamma   59.34037948
_symmetry_Int_Tables_number   1
_chemical_formula_structural   Na7Li4Yb5C12O37
_chemical_formula_sum   'Na7 Li4 Yb5 C12 O37'
_cell_volume   780.13554530
_cell_formula_units_Z   1
loop_
 _symmetry_equiv_pos_site_id
 _symmetry_equiv_pos_as_xyz
  1  'x, y, z'
loop_
 _atom_site_type_symbol
 _atom_site_label
 _atom_site_symmetry_multiplicity
 _atom_site_fract_x
 _atom_site_fract_y
 _atom_site_fract_z
 _atom_site_occupancy
  Na  Na0  1  0.88312800  0.36309200  0.88125900  1
  Na  Na1  1  0.36309200  0.88312800  0.88125900  1
  Na  Na2  1  0.36520700  0.36520700  0.89195700  1
  Na  Na3  1  0.88764700  0.88764700  0.36321300  1
  Na  Na4  1  0.11908300  0.11908300  0.62639900  1
  Na  Na5  1  0.12408000  0.62886600  0.12294700  1
  Na  Na6  1  0.62886600  0.12408000  0.12294700  1
  Li  Li0  1  0.99939500  0.99939500  0.99881400  1
  Li  Li1  1  0.00366100  0.49962700  0.99775600  1
  Li  Li2  1  0.49962700  0.00366100  0.99775600  1
  Li  Li3  1  0.37114300  0.37114300  0.35658600  1
  Yb  Yb0  1  0.63765200  0.12177600  0.61453000  1
  Yb  Yb1  1  0.12177600  0.63765200  0.61453000  1
  Yb  Yb2  1  0.88222700  0.36627200  0.36793800  1
  Yb  Yb3  1  0.36627200  0.88222700  0.36793800  1
  Yb  Yb4  1  0.62155400  0.62155400  0.12759000  1
  C  C0  1  0.77464800  0.77464800  0.78625200  1
  C  C1  1  0.48271400  0.48271400  0.06463500  1
  C  C2  1  0.76912600  0.17241500  0.77293200  1
  C  C3  1  0.48305500  0.05951500  0.48400400  1
  C  C4  1  0.17241500  0.76912600  0.77293200  1
  C  C5  1  0.21087500  0.21087500  0.86738600  1
  C  C6  1  0.47166700  0.47166700  0.47788200  1
  C  C7  1  0.77281400  0.77281400  0.16254700  1
  C  C8  1  0.86484500  0.21511900  0.21286600  1
  C  C9  1  0.21511900  0.86484500  0.21286600  1
  C  C10  1  0.05951500  0.48305500  0.48400400  1
  C  C11  1  0.20985800  0.20985800  0.21315600  1
  O  O0  1  0.63027700  0.85047500  0.85956100  1
  O  O1  1  0.85047500  0.63027700  0.85956100  1
  O  O2  1  0.84302700  0.84302700  0.64133900  1
  O  O3  1  0.84549400  0.16181600  0.84712900  1
  O  O4  1  0.16181600  0.84549400  0.84712900  1
  O  O5  1  0.63136700  0.15425200  0.84425200  1
  O  O6  1  0.15425200  0.63136700  0.84425200  1
  O  O7  1  0.82611800  0.20047100  0.62240200  1
  O  O8  1  0.20047100  0.82611800  0.62240200  1
  O  O9  1  0.13806600  0.35628000  0.86670300  1
  O  O10  1  0.35628000  0.13806600  0.86670300  1
  O  O11  1  0.63340700  0.63340700  0.46687500  1
  O  O12  1  0.84663000  0.84663000  0.15400900  1
  O  O13  1  0.13891400  0.13891400  0.86826600  1
  O  O14  1  0.40111900  0.40111900  0.61750300  1
  O  O15  1  0.84197400  0.62352500  0.16611800  1
  O  O16  1  0.62352500  0.84197400  0.16611800  1
  O  O17  1  0.39625600  0.61501000  0.40298200  1
  O  O18  1  0.61501000  0.39625600  0.40298200  1
  O  O19  1  0.86417500  0.14519400  0.35574000  1
  O  O20  1  0.14519400  0.86417500  0.35574000  1
  O  O21  1  0.06120300  0.41610000  0.62549300  1
  O  O22  1  0.41610000  0.06120300  0.62549300  1
  O  O23  1  0.36185700  0.86009600  0.14565600  1
  O  O24  1  0.86009600  0.36185700  0.14565600  1
  O  O25  1  0.61935300  0.07792400  0.40711900  1
  O  O26  1  0.07792400  0.61935300  0.40711900  1
  O  O27  1  0.41123700  0.05353300  0.41511100  1
  O  O28  1  0.05353300  0.41123700  0.41511100  1
  O  O29  1  0.14230100  0.87174900  0.13770800  1
  O  O30  1  0.87174900  0.14230100  0.13770800  1
  O  O31  1  0.62912400  0.41322700  0.06091500  1
  O  O32  1  0.41322700  0.62912400  0.06091500  1
  O  O33  1  0.40433800  0.40433800  0.08646300  1
  O  O34  1  0.13975500  0.13975500  0.35489200  1
  O  O35  1  0.13374800  0.35454900  0.14349700  1
  O  O36  1  0.35454900  0.13374800  0.14349700  1
loop_
_geom_bond_atom_site_label_1
_geom_bond_atom_site_label_2
_geom_bond_distance
_geom_bond_site_symmetry_2
Na0 O31 2.318162 1_556
Na0 O21 2.353128 1_655
Na0 O13 2.456631 1_655
Na0 O3 2.496453 1_555
Na0 O1 2.500878 1_555
Na0 O30 2.510352 1_556
Na0 O9 2.519866 1_655
Na0 O24 2.622281 1_556
Na1 O32 2.318162 1_556
Na1 O22 2.353128 1_565
Na1 O13 2.456631 1_565
Na1 O4 2.496453 1_555
Na1 O0 2.500878 1_555
Na1 O29 2.510352 1_556
Na1 O10 2.519866 1_565
Na1 O23 2.622281 1_556
Na2 O33 2.474296 1_556
Na2 O5 2.474393 1_555
Na2 O6 2.474393 1_555
Na2 O10 2.526055 1_555
Na2 O9 2.526055 1_555
Na2 O35 2.529389 1_556
Na2 O36 2.529389 1_556
Na2 O14 2.535301 1_555
Na3 O26 2.407431 1_655
Na3 O25 2.407431 1_565
Na3 O19 2.501237 1_565
Na3 O20 2.501237 1_655
Na3 O29 2.511452 1_655
Na3 O30 2.511452 1_565
Na3 O2 2.517633 1_555
Na3 O12 2.647131 1_555
Na4 O4 2.603756 1_545
Na4 O3 2.603756 1_455
Na4 O34 2.619490 1_555
Na4 O28 2.689095 1_555
Na4 O27 2.689095 1_555
Na4 O8 2.703243 1_545
Na4 O7 2.703243 1_455
Na4 O13 2.717631 1_555
Na4 O21 2.796544 1_555
Na4 O22 2.796544 1_555
Na5 O12 2.561501 1_455
Na5 O33 2.606494 1_555
Na5 O4 2.618768 1_554
Na5 O35 2.678617 1_555
Na5 O29 2.680783 1_555
Na5 O26 2.698822 1_555
Na5 O32 2.722324 1_555
Na5 O6 2.733850 1_554
Na5 O15 2.739776 1_455
Na5 O28 2.755179 1_555
Na6 O12 2.561501 1_545
Na6 O33 2.606494 1_555
Na6 O3 2.618768 1_554
Na6 O36 2.678617 1_555
Na6 O30 2.680783 1_555
Na6 O25 2.698822 1_555
Na6 O31 2.722324 1_555
Na6 O5 2.733850 1_554
Na6 O16 2.739776 1_545
Na6 O27 2.755179 1_555
Li0 O29 2.050421 1_656
Li0 O30 2.050421 1_566
Li0 O13 2.065371 1_665
Li0 O3 2.220801 1_565
Li0 O4 2.220801 1_655
Li0 O12 2.261899 1_556
Li1 O9 1.992331 1_555
Li1 O35 2.007536 1_556
Li1 O24 2.085256 1_456
Li1 O6 2.098241 1_555
Li1 O1 2.121331 1_455
Li1 O15 2.145833 1_456
Li2 O10 1.992331 1_555
Li2 O36 2.007536 1_556
Li2 O23 2.085256 1_546
Li2 O5 2.098241 1_555
Li2 O0 2.121331 1_545
Li2 O16 2.145833 1_546
Li3 O33 2.509995 1_555
C0 O2 1.297771 1_555
C0 O1 1.299022 1_555
C0 O0 1.299022 1_555
C1 O32 1.286432 1_555
C1 O31 1.286432 1_555
C1 O33 1.288625 1_555
C1 Li3 2.517210 1_555
C2 O3 1.280160 1_555
C2 O7 1.302094 1_555
C2 O5 1.305548 1_555
C3 O22 1.283113 1_555
C3 O27 1.289101 1_555
C3 O25 1.292891 1_555
C3 Li3 2.634341 1_555
C4 O4 1.280160 1_555
C4 O8 1.302094 1_555
C4 O6 1.305548 1_555
C5 O13 1.282011 1_555
C5 O10 1.285469 1_555
C5 O9 1.285469 1_555
C6 O14 1.277373 1_555
C6 O17 1.297305 1_555
C6 O18 1.297305 1_555
C6 Li3 2.709677 1_555
C7 O12 1.272769 1_555
C7 O16 1.312949 1_555
C7 O15 1.312949 1_555
C8 O30 1.277520 1_555
C8 O19 1.288454 1_555
C8 O24 1.303789 1_555
C9 O29 1.277520 1_555
C9 O20 1.288454 1_555
C9 O23 1.303789 1_555
C10 O21 1.283113 1_555
C10 O28 1.289101 1_555
C10 O26 1.292891 1_555
C10 Li3 2.634341 1_555
C11 O34 1.287423 1_555
C11 O35 1.290208 1_555
C11 O36 1.290208 1_555
O0 Yb4 2.616508 1_556
O0 Yb0 2.711073 1_565
O1 Yb4 2.616508 1_556
O1 Yb1 2.711073 1_655
O2 Yb1 2.527237 1_655
O2 Yb0 2.527237 1_565
O5 Yb0 2.523633 1_555
O6 Yb1 2.523633 1_555
O7 Yb2 2.305197 1_555
O7 Yb0 2.499288 1_555
O8 Yb3 2.305197 1_555
O8 Yb1 2.499288 1_555
O9 Yb1 2.789283 1_555
O10 Yb0 2.789283 1_555
O11 Yb3 2.858888 1_555
O11 Yb2 2.858888 1_555
O14 Yb1 2.658722 1_555
O14 Yb0 2.658722 1_555
O15 Yb2 2.423299 1_555
O15 Yb4 2.498735 1_555
O16 Yb3 2.423299 1_555
O16 Yb4 2.498735 1_555
O17 Yb3 2.461981 1_555
O17 Yb1 2.572525 1_555
O17 Yb4 2.650351 1_555
O18 Yb2 2.461981 1_555
O18 Yb0 2.572525 1_555
O18 Yb4 2.650351 1_555
O19 Yb2 2.441815 1_555
O19 Yb0 2.552295 1_555
O20 Yb3 2.441815 1_555
O20 Yb1 2.552295 1_555
O21 Yb1 2.594207 1_555
O22 Yb0 2.594207 1_555
O23 Yb3 2.442806 1_555
O23 Yb4 2.544561 1_555
O24 Yb2 2.442806 1_555
O24 Yb4 2.544561 1_555
O25 Yb0 2.504216 1_555
O26 Yb1 2.504216 1_555
O27 Yb3 2.335323 1_545
O28 Yb2 2.335323 1_455
O31 Yb4 2.510064 1_555
O32 Yb4 2.510064 1_555
O34 Yb3 2.476883 1_545
O34 Yb2 2.476883 1_455
O35 Yb2 2.489349 1_455
O36 Yb3 2.489349 1_545
