# generated using pymatgen
data_LiSb2P3O11
_symmetry_space_group_name_H-M   'P 1'
_cell_length_a   7.59195792
_cell_length_b   7.59195792
_cell_length_c   9.25524117
_cell_angle_alpha   71.29731276
_cell_angle_beta   71.29731276
_cell_angle_gamma   76.64365976
_symmetry_Int_Tables_number   1
_chemical_formula_structural   LiSb2P3O11
_chemical_formula_sum   'Li2 Sb4 P6 O22'
_cell_volume   473.69163652
_cell_formula_units_Z   2
loop_
 _symmetry_equiv_pos_site_id
 _symmetry_equiv_pos_as_xyz
  1  'x, y, z'
loop_
 _atom_site_type_symbol
 _atom_site_label
 _atom_site_symmetry_multiplicity
 _atom_site_fract_x
 _atom_site_fract_y
 _atom_site_fract_z
 _atom_site_occupancy
  Li  Li0  1  0.50943700  0.97179900  0.30029000  1
  Li  Li1  1  0.02820100  0.49056300  0.69971000  1
  Sb  Sb0  1  0.87280100  0.34857800  0.19312100  1
  Sb  Sb1  1  0.35231300  0.86883700  0.70255000  1
  Sb  Sb2  1  0.65142200  0.12719900  0.80687900  1
  Sb  Sb3  1  0.13116300  0.64768700  0.29745000  1
  P  P0  1  0.56168600  0.68915000  0.02996200  1
  P  P1  1  0.96678200  0.03321800  0.00000000  1
  P  P2  1  0.68954800  0.57055000  0.51628100  1
  P  P3  1  0.31085000  0.43831400  0.97003800  1
  P  P4  1  0.03800500  0.96199500  0.50000000  1
  P  P5  1  0.42945000  0.31045200  0.48371900  1
  O  O0  1  0.99911800  0.89417700  0.15343000  1
  O  O1  1  0.89371600  0.98398000  0.65288500  1
  O  O2  1  0.76501900  0.59453400  0.01323500  1
  O  O3  1  0.54936800  0.86720400  0.88649000  1
  O  O4  1  0.45937900  0.73554000  0.18673000  1
  O  O5  1  0.97342900  0.24010700  0.99673900  1
  O  O6  1  0.59648800  0.77687500  0.48839100  1
  O  O7  1  0.45002300  0.54997700  0.00000000  1
  O  O8  1  0.86366400  0.54988200  0.37159000  1
  O  O9  1  0.74021000  0.48188600  0.67171600  1
  O  O10  1  0.24359000  0.96250000  0.50782900  1
  O  O11  1  0.75989300  0.02657100  0.00326100  1
  O  O12  1  0.26446000  0.54062100  0.81327000  1
  O  O13  1  0.13279600  0.45063200  0.11351000  1
  O  O14  1  0.54399400  0.45600600  0.50000000  1
  O  O15  1  0.40546600  0.23498100  0.98676500  1
  O  O16  1  0.03750000  0.75641000  0.49217100  1
  O  O17  1  0.51811400  0.25979000  0.32828400  1
  O  O18  1  0.45011800  0.13633600  0.62841000  1
  O  O19  1  0.22312500  0.40351200  0.51160900  1
  O  O20  1  0.10582300  0.00088200  0.84657000  1
  O  O21  1  0.01602000  0.10628400  0.34711500  1
loop_
_geom_bond_atom_site_label_1
_geom_bond_atom_site_label_2
_geom_bond_distance
_geom_bond_site_symmetry_2
Li0 O6 2.071552 1_555
Li0 O10 2.293621 1_555
Li0 O17 2.300579 1_565
Li0 O4 2.499285 1_555
Li1 O19 2.071552 1_555
Li1 O16 2.293621 1_555
Li1 O9 2.300579 1_455
Li1 O12 2.499285 1_555
O0 P1 1.527599 1_565
O0 Sb3 2.161979 1_655
O1 P4 1.517551 1_655
O1 Sb2 2.232872 1_565
O2 P0 1.526004 1_555
O2 Sb0 2.258807 1_555
O3 P0 1.571422 1_556
O3 Sb2 2.108817 1_565
O3 Sb1 2.597634 1_555
O4 P0 1.520231 1_555
O4 Sb3 2.529030 1_555
O5 P1 1.573459 1_556
O5 Sb0 2.084245 1_556
O6 P2 1.538108 1_555
O6 Sb1 2.405348 1_555
O7 P3 1.632317 1_554
O7 P0 1.632317 1_555
O8 P2 1.571301 1_555
O8 Sb3 2.150062 1_655
O8 Sb0 2.562286 1_555
O9 P2 1.511552 1_555
O9 Sb2 2.721730 1_555
O10 P4 1.586446 1_555
O10 Sb1 2.072636 1_555
O11 P1 1.573459 1_555
O11 Sb2 2.084245 1_554
O12 P3 1.520231 1_555
O12 Sb1 2.529030 1_555
O13 P3 1.571422 1_554
O13 Sb0 2.108817 1_455
O13 Sb3 2.597634 1_555
O14 P5 1.623220 1_555
O14 P2 1.623220 1_555
O15 P3 1.526004 1_555
O15 Sb2 2.258807 1_555
O16 P4 1.586446 1_555
O16 Sb3 2.072636 1_555
O17 P5 1.511552 1_555
O17 Sb0 2.721730 1_555
O18 P5 1.571301 1_555
O18 Sb1 2.150062 1_545
O18 Sb2 2.562286 1_555
O19 P5 1.538108 1_555
O19 Sb3 2.405348 1_555
O20 P1 1.527599 1_456
O20 Sb1 2.161979 1_545
O21 P4 1.517551 1_545
O21 Sb0 2.232872 1_455
