# generated using pymatgen
data_Ba4La8Mn11SnO36
_symmetry_space_group_name_H-M   'P 1'
_cell_length_a   5.62734000
_cell_length_b   9.77204565
_cell_length_c   14.90405092
_cell_angle_alpha   108.97616428
_cell_angle_beta   100.58115989
_cell_angle_gamma   90.26893575
_symmetry_Int_Tables_number   1
_chemical_formula_structural   Ba4La8Mn11SnO36
_chemical_formula_sum   'Ba4 La8 Mn11 Sn1 O36'
_cell_volume   760.03215530
_cell_formula_units_Z   1
loop_
 _symmetry_equiv_pos_site_id
 _symmetry_equiv_pos_as_xyz
  1  'x, y, z'
loop_
 _atom_site_type_symbol
 _atom_site_label
 _atom_site_symmetry_multiplicity
 _atom_site_fract_x
 _atom_site_fract_y
 _atom_site_fract_z
 _atom_site_occupancy
  Ba  Ba0  1  0.29244500  0.62242800  0.58186500  1
  Ba  Ba1  1  0.12731500  0.12532900  0.25343900  1
  Ba  Ba2  1  0.95584700  0.62175900  0.91490100  1
  Ba  Ba3  1  0.45675000  0.12838300  0.91403100  1
  La  La0  1  0.54150600  0.86558100  0.08681800  1
  La  La1  1  0.04293600  0.38383800  0.08463400  1
  La  La2  1  0.20895500  0.87542400  0.41824500  1
  La  La3  1  0.70848300  0.37510500  0.41815600  1
  La  La4  1  0.87096700  0.87158500  0.74286000  1
  La  La5  1  0.62581000  0.62451700  0.25153400  1
  La  La6  1  0.37546500  0.37517800  0.74945900  1
  La  La7  1  0.79272300  0.12815900  0.58521100  1
  Mn  Mn0  1  0.50015900  0.49927700  0.00007600  1
  Mn  Mn1  1  0.66753200  0.99973200  0.33514500  1
  Mn  Mn2  1  0.33278200  0.00071000  0.66541800  1
  Mn  Mn3  1  0.16662100  0.50072800  0.33394100  1
  Mn  Mn4  1  0.08528600  0.74929700  0.17006200  1
  Mn  Mn5  1  0.83259900  0.49903000  0.66577500  1
  Mn  Mn6  1  0.74955500  0.75065800  0.49776900  1
  Mn  Mn7  1  0.58321500  0.25455500  0.16854100  1
  Mn  Mn8  1  0.25064800  0.24850100  0.50094000  1
  Mn  Mn9  1  0.41508600  0.74628600  0.83088300  1
  Mn  Mn10  1  0.91667900  0.25097700  0.83120100  1
  Sn  Sn0  1  0.00019500  0.00075100  0.00003300  1
  O  O0  1  0.32266600  0.62461900  0.10051600  1
  O  O1  1  0.36697700  0.88286600  0.25163300  1
  O  O2  1  0.13308600  0.65059300  0.26562900  1
  O  O3  1  0.03943700  0.85832900  0.07815700  1
  O  O4  1  0.97093800  0.62958500  0.42202900  1
  O  O5  1  0.81068200  0.13299800  0.09637100  1
  O  O6  1  0.81482400  0.60055600  0.09040500  1
  O  O7  1  0.01692500  0.89961500  0.58046300  1
  O  O8  1  0.84928800  0.39999400  0.25036600  1
  O  O9  1  0.83500700  0.86624800  0.23495000  1
  O  O10  1  0.80052400  0.65204600  0.59747900  1
  O  O11  1  0.63731200  0.15512000  0.27294900  1
  O  O12  1  0.70020400  0.85185000  0.40147600  1
  O  O13  1  0.53787700  0.36935900  0.07774900  1
  O  O14  1  0.63599500  0.62314000  0.75668000  1
  O  O15  1  0.48758400  0.12109400  0.43387000  1
  O  O16  1  0.48964800  0.60163200  0.41098000  1
  O  O17  1  0.32744300  0.09726900  0.08632100  1
  O  O18  1  0.68694000  0.88432700  0.91531800  1
  O  O19  1  0.53241300  0.37991600  0.58255600  1
  O  O20  1  0.51320300  0.88361500  0.56393200  1
  O  O21  1  0.34760100  0.38240900  0.23185800  1
  O  O22  1  0.46667800  0.65117300  0.93790500  1
  O  O23  1  0.30072600  0.15118100  0.60061700  1
  O  O24  1  0.37027600  0.86497300  0.73842900  1
  O  O25  1  0.20586100  0.36298800  0.41094500  1
  O  O26  1  0.13472100  0.12552000  0.75247300  1
  O  O27  1  0.15400700  0.59696400  0.74973600  1
  O  O28  1  0.98258900  0.09566600  0.42352400  1
  O  O29  1  0.19856400  0.38714500  0.91618500  1
  O  O30  1  0.00118100  0.36345400  0.56548000  1
  O  O31  1  0.16827600  0.87172500  0.89329300  1
  O  O32  1  0.96528600  0.15751100  0.93370300  1
  O  O33  1  0.86743900  0.35060600  0.73498500  1
  O  O34  1  0.65405800  0.09915000  0.74189700  1
  O  O35  1  0.67420500  0.37697900  0.89820300  1
loop_
_geom_bond_atom_site_label_1
_geom_bond_atom_site_label_2
_geom_bond_distance
_geom_bond_site_symmetry_2
Ba0 O24 2.696758 1_555
Ba0 O4 2.734919 1_455
Ba0 O19 2.735064 1_555
Ba0 O10 2.828638 1_455
Ba0 O10 2.831367 1_555
Ba0 O27 2.836813 1_555
Ba0 O16 2.909105 1_555
Ba0 O25 2.913176 1_555
Ba0 O30 2.926210 1_555
Ba0 O14 2.943496 1_555
Ba0 O20 2.943623 1_555
Ba0 O7 3.131393 1_555
Ba1 O25 2.676442 1_555
Ba1 O5 2.691461 1_455
Ba1 O1 2.726779 1_545
Ba1 O11 2.831886 1_455
Ba1 O11 2.834855 1_555
Ba1 O17 2.852393 1_555
Ba1 O28 2.899514 1_455
Ba1 O9 2.920988 1_445
Ba1 O21 2.931546 1_555
Ba1 O3 2.992891 1_545
Ba1 O15 3.068283 1_555
Ba1 O8 3.122025 1_455
Ba2 O29 2.677785 1_655
Ba2 O14 2.694958 1_555
Ba2 O3 2.719774 1_656
Ba2 O35 2.779911 1_555
Ba2 O27 2.825695 1_655
Ba2 O22 2.833690 1_655
Ba2 O22 2.840349 1_555
Ba2 O31 2.850435 1_655
Ba2 O6 2.937341 1_556
Ba2 O18 2.983774 1_555
Ba2 O33 3.055437 1_555
Ba2 O0 3.125186 1_656
Ba3 O18 2.723200 1_545
Ba3 O26 2.726860 1_555
Ba3 O13 2.747995 1_556
Ba3 O35 2.811643 1_555
Ba3 O32 2.826000 1_555
Ba3 O32 2.840181 1_455
Ba3 O31 2.880028 1_545
Ba3 O17 2.899570 1_556
Ba3 O34 2.910096 1_555
Ba3 O29 2.916293 1_555
Ba3 O24 2.975139 1_545
Ba3 O5 3.047275 1_556
La0 O22 2.473309 1_554
La0 O9 2.500706 1_555
La0 O17 2.571061 1_565
La0 O0 2.735062 1_555
La0 O1 2.764925 1_555
La0 O3 2.803981 1_555
La0 O3 2.828744 1_655
La0 O18 2.882373 1_554
La0 O5 2.963994 1_565
La0 O6 3.028689 1_555
La0 O11 3.213030 1_565
La0 O31 3.259304 1_554
La1 O6 2.467343 1_455
La1 O21 2.528394 1_555
La1 O32 2.556754 1_454
La1 O0 2.745242 1_555
La1 O13 2.808401 1_555
La1 O29 2.816199 1_554
La1 O13 2.826301 1_455
La1 O8 2.837296 1_455
La1 O5 2.842536 1_455
La1 O2 3.039923 1_555
La1 O35 3.129005 1_454
La1 O17 3.237133 1_555
La2 O20 2.484506 1_555
La2 O28 2.492650 1_465
La2 O2 2.562735 1_555
La2 O4 2.766607 1_455
La2 O7 2.767511 1_555
La2 O15 2.782624 1_565
La2 O1 2.808931 1_555
La2 O12 2.824863 1_555
La2 O12 2.829382 1_455
La2 O16 3.095019 1_555
La2 O23 3.102273 1_565
La2 O9 3.102720 1_455
La3 O11 2.472494 1_555
La3 O30 2.526513 1_655
La3 O16 2.561111 1_555
La3 O19 2.793675 1_555
La3 O25 2.811139 1_555
La3 O25 2.822199 1_655
La3 O8 2.839402 1_555
La3 O4 2.865243 1_555
La3 O15 2.866612 1_555
La3 O10 3.083789 1_555
La3 O21 3.146130 1_555
La3 O28 3.158899 1_555
La4 O10 2.471430 1_555
La4 O31 2.538963 1_655
La4 O34 2.544622 1_565
La4 O7 2.786935 1_655
La4 O24 2.806128 1_555
La4 O24 2.823205 1_655
La4 O26 2.835005 1_665
La4 O14 2.842571 1_555
La4 O18 2.909488 1_555
La4 O20 3.068054 1_555
La4 O27 3.147727 1_655
La4 O32 3.231402 1_565
La5 O8 2.530767 1_555
La5 O12 2.554106 1_555
La5 O0 2.562703 1_555
La5 O16 2.701313 1_555
La5 O21 2.734935 1_555
La5 O9 2.736318 1_555
La5 O6 2.743717 1_555
La5 O2 2.825386 1_555
La5 O2 2.827722 1_655
La5 O4 2.887251 1_555
La5 O13 2.913457 1_555
La5 O1 2.920274 1_555
La6 O27 2.504338 1_555
La6 O35 2.519262 1_555
La6 O23 2.525876 1_555
La6 O14 2.787742 1_555
La6 O19 2.802030 1_555
La6 O26 2.802132 1_555
La6 O29 2.810681 1_555
La6 O33 2.821471 1_555
La6 O33 2.830284 1_455
La6 O30 3.104907 1_555
La6 O34 3.106948 1_555
La6 O22 3.155466 1_555
La7 O33 2.525058 1_555
La7 O15 2.552676 1_555
La7 O7 2.557552 1_645
La7 O34 2.690790 1_555
La7 O30 2.700095 1_655
La7 O28 2.738726 1_555
La7 O20 2.752096 1_545
La7 O23 2.823897 1_555
La7 O23 2.827514 1_655
La7 O26 2.863439 1_655
La7 O19 2.876752 1_555
La7 O12 3.116887 1_545
Mn0 O13 1.965984 1_555
Mn0 O22 1.982505 1_554
Mn0 O29 1.989121 1_554
Mn0 O35 2.017388 1_554
Mn0 O0 2.026556 1_555
Mn0 O6 2.041801 1_555
Mn1 O12 1.991063 1_555
Mn1 O1 1.999575 1_555
Mn1 O15 2.005128 1_565
Mn1 O11 2.013419 1_565
Mn1 O28 2.020107 1_565
Mn1 O9 2.020210 1_555
Mn2 O24 1.960872 1_545
Mn2 O26 1.981897 1_555
Mn2 O23 1.997370 1_555
Mn2 O34 2.001742 1_555
Mn2 O20 2.019222 1_545
Mn2 O7 2.020376 1_545
Mn3 O4 1.997651 1_455
Mn3 O16 2.018738 1_555
Mn3 O8 2.019549 1_455
Mn3 O25 2.022866 1_555
Mn3 O2 2.029443 1_555
Mn3 O21 2.030993 1_555
Mn4 O2 1.945924 1_555
Mn4 O3 1.974828 1_555
Mn4 O1 1.983750 1_555
Mn4 O9 2.005374 1_455
Mn4 O6 2.007972 1_455
Mn4 O0 2.011383 1_555
Mn5 O19 2.004979 1_555
Mn5 O14 2.006244 1_555
Mn5 O33 2.026701 1_555
Mn5 O27 2.031446 1_655
Mn5 O30 2.033295 1_655
Mn5 O10 2.056561 1_555
Mn6 O4 1.971751 1_555
Mn6 O12 1.973266 1_555
Mn6 O16 1.998305 1_555
Mn6 O10 1.999175 1_555
Mn6 O7 2.008297 1_655
Mn6 O20 2.023394 1_555
Mn7 O5 1.973689 1_555
Mn7 O21 1.979334 1_555
Mn7 O8 1.982732 1_555
Mn7 O13 2.004477 1_555
Mn7 O17 2.010528 1_555
Mn7 O11 2.066507 1_555
Mn8 O19 1.974722 1_555
Mn8 O23 1.989577 1_555
Mn8 O30 1.991454 1_555
Mn8 O25 1.992145 1_555
Mn8 O15 2.005676 1_555
Mn8 O28 2.014014 1_455
Mn9 O14 1.967235 1_555
Mn9 O18 1.978185 1_555
Mn9 O27 1.982422 1_555
Mn9 O31 2.011390 1_555
Mn9 O24 2.054743 1_555
Mn9 O22 2.070992 1_555
Mn10 O33 1.961016 1_555
Mn10 O26 1.998160 1_655
Mn10 O32 1.999804 1_555
Mn10 O29 2.009311 1_655
Mn10 O35 2.022782 1_555
Mn10 O34 2.032141 1_555
O3 Sn0 2.074570 1_565
O5 Sn0 2.058534 1_655
O17 Sn0 2.063932 1_555
O18 Sn0 2.055608 1_666
O31 Sn0 2.067491 1_566
O32 Sn0 2.068547 1_656
