# generated using pymatgen
data_Mn2OF3
_symmetry_space_group_name_H-M   'P 1'
_cell_length_a   4.88690026
_cell_length_b   4.88690026
_cell_length_c   9.49303200
_cell_angle_alpha   90.00000000
_cell_angle_beta   90.00000000
_cell_angle_gamma   92.65121647
_symmetry_Int_Tables_number   1
_chemical_formula_structural   Mn2OF3
_chemical_formula_sum   'Mn6 O3 F9'
_cell_volume   226.46796987
_cell_formula_units_Z   3
loop_
 _symmetry_equiv_pos_site_id
 _symmetry_equiv_pos_as_xyz
  1  'x, y, z'
loop_
 _atom_site_type_symbol
 _atom_site_label
 _atom_site_symmetry_multiplicity
 _atom_site_fract_x
 _atom_site_fract_y
 _atom_site_fract_z
 _atom_site_occupancy
  Mn  Mn0  1  0.95750100  0.95750100  0.00000000  1
  Mn  Mn1  1  0.02893900  0.02893900  0.33302700  1
  Mn  Mn2  1  0.02893900  0.02893900  0.66697300  1
  Mn  Mn3  1  0.49213000  0.49213000  0.83285200  1
  Mn  Mn4  1  0.49213000  0.49213000  0.16714800  1
  Mn  Mn5  1  0.49896300  0.49896300  0.50000000  1
  O  O0  1  0.32484100  0.32484100  0.33393600  1
  O  O1  1  0.32484100  0.32484100  0.66606400  1
  O  O2  1  0.66027400  0.66027400  0.00000000  1
  F  F0  1  0.78861500  0.19526800  0.16764200  1
  F  F1  1  0.82127200  0.21204200  0.50000000  1
  F  F2  1  0.78861500  0.19526800  0.83235800  1
  F  F3  1  0.27504500  0.27504500  0.00000000  1
  F  F4  1  0.70765900  0.70765900  0.33991000  1
  F  F5  1  0.70765900  0.70765900  0.66009000  1
  F  F6  1  0.19526800  0.78861500  0.16764200  1
  F  F7  1  0.21204200  0.82127200  0.50000000  1
  F  F8  1  0.19526800  0.78861500  0.83235800  1
loop_
_geom_bond_atom_site_label_1
_geom_bond_atom_site_label_2
_geom_bond_distance
_geom_bond_site_symmetry_2
Mn0 O2 2.006100 1_555
Mn1 O0 1.997176 1_555
Mn2 O1 1.997176 1_555
Mn3 O1 1.944679 1_555
Mn3 O2 1.950814 1_556
Mn4 O0 1.944679 1_555
Mn4 O2 1.950814 1_555
Mn5 O1 1.966299 1_555
Mn5 O0 1.966299 1_555
F0 Mn4 2.097236 1_555
F0 Mn1 2.143184 1_655
F0 Mn0 2.157000 1_545
F1 Mn2 2.104063 1_655
F1 Mn1 2.104063 1_655
F1 Mn5 2.156679 1_555
F2 Mn3 2.097236 1_555
F2 Mn2 2.143184 1_655
F2 Mn0 2.157000 1_546
F3 Mn0 2.143228 1_445
F3 Mn4 2.159753 1_555
F3 Mn3 2.159753 1_554
F4 Mn5 2.072119 1_555
F4 Mn1 2.169428 1_665
F4 Mn4 2.192221 1_555
F5 Mn5 2.072119 1_555
F5 Mn2 2.169428 1_665
F5 Mn3 2.192221 1_555
F6 Mn4 2.097236 1_555
F6 Mn1 2.143184 1_565
F6 Mn0 2.157000 1_455
F7 Mn2 2.104063 1_565
F7 Mn1 2.104063 1_565
F7 Mn5 2.156679 1_555
F8 Mn3 2.097236 1_555
F8 Mn2 2.143184 1_565
F8 Mn0 2.157000 1_456
