# generated using pymatgen
data_HoGaO3
_symmetry_space_group_name_H-M   'P 1'
_cell_length_a   6.01336441
_cell_length_b   6.01336468
_cell_length_c   11.63625179
_cell_angle_alpha   89.99998584
_cell_angle_beta   89.99998602
_cell_angle_gamma   119.99962403
_symmetry_Int_Tables_number   1
_chemical_formula_structural   HoGaO3
_chemical_formula_sum   'Ho6 Ga6 O18'
_cell_volume   364.40174898
_cell_formula_units_Z   6
loop_
 _symmetry_equiv_pos_site_id
 _symmetry_equiv_pos_as_xyz
  1  'x, y, z'
loop_
 _atom_site_type_symbol
 _atom_site_label
 _atom_site_symmetry_multiplicity
 _atom_site_fract_x
 _atom_site_fract_y
 _atom_site_fract_z
 _atom_site_occupancy
  Ho  Ho0  1  0.33333297  0.66666636  0.22975546  1
  Ho  Ho1  1  0.00000032  0.00000033  0.27155761  1
  Ho  Ho2  1  0.99999962  0.99999947  0.77155806  1
  Ho  Ho3  1  0.33333299  0.66666708  0.72975529  1
  Ho  Ho4  1  0.66666734  0.33333292  0.72975574  1
  Ho  Ho5  1  0.66666622  0.33333298  0.22975580  1
  Ga  Ga0  1  -0.00000517  0.66585026  0.49676376  1
  Ga  Ga1  1  0.00000516  0.33415059  0.99676410  1
  Ga  Ga2  1  0.33414875  0.33414877  0.49676394  1
  Ga  Ga3  1  0.66585235  0.66585234  0.99676536  1
  Ga  Ga4  1  0.33415049  0.00000517  0.99676413  1
  Ga  Ga5  1  0.66585019  -0.00000505  0.49676384  1
  O  O0  1  -0.00000151  0.69407522  0.65945699  1
  O  O1  1  -0.00000098  0.63963835  0.33526158  1
  O  O2  1  0.00000093  0.36036152  0.83526123  1
  O  O3  1  0.00000115  0.30592357  0.15945683  1
  O  O4  1  0.33333358  0.66666733  0.01563403  1
  O  O5  1  0.33333298  0.66666652  0.51563445  1
  O  O6  1  -0.00000100  -0.00000098  0.47449873  1
  O  O7  1  0.00000116  0.00000104  0.97449811  1
  O  O8  1  0.30592258  0.30592224  0.65945777  1
  O  O9  1  0.36035949  0.36035981  0.33526260  1
  O  O10  1  0.30592360  0.00000159  0.15945683  1
  O  O11  1  0.63963990  0.63963987  0.83526119  1
  O  O12  1  0.69407787  0.69407785  0.15945674  1
  O  O13  1  0.36036136  0.00000054  0.83526120  1
  O  O14  1  0.66666648  0.33333279  0.51563417  1
  O  O15  1  0.66666749  0.33333390  0.01563385  1
  O  O16  1  0.63963806  -0.00000102  0.33526158  1
  O  O17  1  0.69407562  -0.00000134  0.65945703  1
loop_
_geom_bond_atom_site_label_1
_geom_bond_atom_site_label_2
_geom_bond_distance
_geom_bond_site_symmetry_2
Ho0 O3 2.246011 1_555
Ho0 O12 2.246011 1_555
Ho0 O10 2.246013 1_565
Ho0 O1 2.285985 1_555
Ho0 O16 2.285988 1_565
Ho0 O9 2.285988 1_555
Ho0 O4 2.491571 1_555
Ho1 O10 2.255163 1_555
Ho1 O3 2.255164 1_555
Ho1 O12 2.255172 1_445
Ho1 O1 2.290264 1_545
Ho1 O16 2.290265 1_455
Ho1 O9 2.290268 1_555
Ho1 O6 2.361474 1_555
Ho2 O8 2.255169 1_665
Ho2 O17 2.255170 1_565
Ho2 O0 2.255171 1_655
Ho2 O13 2.290260 1_665
Ho2 O2 2.290262 1_665
Ho2 O11 2.290263 1_555
Ho2 O7 2.361462 1_665
Ho3 O0 2.246004 1_555
Ho3 O17 2.246008 1_565
Ho3 O8 2.246009 1_555
Ho3 O13 2.285981 1_565
Ho3 O11 2.285985 1_555
Ho3 O2 2.285985 1_555
Ho3 O5 2.491564 1_555
Ho4 O17 2.246005 1_555
Ho4 O0 2.246008 1_655
Ho4 O8 2.246010 1_555
Ho4 O2 2.285978 1_655
Ho4 O11 2.285983 1_555
Ho4 O13 2.285984 1_555
Ho4 O14 2.491573 1_555
Ho5 O10 2.246011 1_555
Ho5 O12 2.246012 1_555
Ho5 O3 2.246012 1_655
Ho5 O16 2.285983 1_555
Ho5 O1 2.285987 1_655
Ho5 O9 2.285988 1_555
Ho5 O15 2.491577 1_555
Ga0 O1 1.885880 1_555
Ga0 O0 1.900732 1_555
Ga0 O14 2.014008 1_455
Ga0 O5 2.014040 1_555
Ga0 O6 2.025980 1_565
Ga1 O2 1.885887 1_555
Ga1 O3 1.900727 1_556
Ga1 O4 2.014006 1_556
Ga1 O15 2.014035 1_456
Ga1 O7 2.025986 1_555
Ga2 O9 1.885868 1_555
Ga2 O8 1.900740 1_555
Ga2 O5 2.014014 1_555
Ga2 O14 2.014014 1_555
Ga2 O6 2.026010 1_555
Ga3 O11 1.885902 1_555
Ga3 O12 1.900712 1_556
Ga3 O15 2.014013 1_556
Ga3 O4 2.014015 1_556
Ga3 O7 2.026007 1_665
Ga4 O13 1.885888 1_555
Ga4 O10 1.900726 1_556
Ga4 O15 2.014008 1_556
Ga4 O4 2.014035 1_546
Ga4 O7 2.025985 1_555
Ga5 O16 1.885881 1_555
Ga5 O17 1.900731 1_555
Ga5 O5 2.014008 1_545
Ga5 O14 2.014038 1_555
Ga5 O6 2.025980 1_655
