# generated using pymatgen
data_Sr2CaI6
_symmetry_space_group_name_H-M   'P 1'
_cell_length_a   13.26638793
_cell_length_b   13.26638793
_cell_length_c   8.77113873
_cell_angle_alpha   79.11148003
_cell_angle_beta   79.11148003
_cell_angle_gamma   33.52340436
_symmetry_Int_Tables_number   1
_chemical_formula_structural   Sr2CaI6
_chemical_formula_sum   'Sr4 Ca2 I12'
_cell_volume   835.79278230
_cell_formula_units_Z   2
loop_
 _symmetry_equiv_pos_site_id
 _symmetry_equiv_pos_as_xyz
  1  'x, y, z'
loop_
 _atom_site_type_symbol
 _atom_site_label
 _atom_site_symmetry_multiplicity
 _atom_site_fract_x
 _atom_site_fract_y
 _atom_site_fract_z
 _atom_site_occupancy
  Sr  Sr0  1  0.05428000  0.61192700  0.63975800  1
  Sr  Sr1  1  0.61192700  0.05428000  0.13975800  1
  Sr  Sr2  1  0.38807300  0.94572000  0.86024200  1
  Sr  Sr3  1  0.94572000  0.38807300  0.36024200  1
  Ca  Ca0  1  0.66954500  0.33045500  0.75000000  1
  Ca  Ca1  1  0.33045500  0.66954500  0.25000000  1
  I  I0  1  0.44455400  0.40315600  0.53274100  1
  I  I1  1  0.40315600  0.44455400  0.03274100  1
  I  I2  1  0.87970400  0.93844100  0.83203300  1
  I  I3  1  0.93844100  0.87970400  0.33203300  1
  I  I4  1  0.27742800  0.27027500  0.90774900  1
  I  I5  1  0.27027500  0.27742800  0.40774900  1
  I  I6  1  0.72972500  0.72257200  0.59225100  1
  I  I7  1  0.72257200  0.72972500  0.09225100  1
  I  I8  1  0.06155900  0.12029600  0.66796700  1
  I  I9  1  0.12029600  0.06155900  0.16796700  1
  I  I10  1  0.59684400  0.55544600  0.96725900  1
  I  I11  1  0.55544600  0.59684400  0.46725900  1
loop_
_geom_bond_atom_site_label_1
_geom_bond_atom_site_label_2
_geom_bond_distance
_geom_bond_site_symmetry_2
Ca0 I11 3.180990 1_555
Ca0 I1 3.180990 1_556
Ca0 I10 3.182034 1_555
Ca0 I0 3.182034 1_555
Ca0 I8 3.241303 1_655
Ca0 I2 3.241303 1_545
Ca1 I10 3.180990 1_554
Ca1 I0 3.180990 1_555
Ca1 I11 3.182034 1_555
Ca1 I1 3.182034 1_555
Ca1 I9 3.241303 1_565
Ca1 I3 3.241303 1_455
I0 Sr0 3.255104 1_555
I1 Sr1 3.255104 1_555
I2 Sr1 3.332992 1_566
I2 Sr0 3.395415 1_655
I3 Sr0 3.332992 1_655
I3 Sr1 3.395415 1_565
I4 Sr2 3.282702 1_545
I4 Sr0 3.326340 1_555
I4 Sr1 3.471551 1_556
I5 Sr3 3.282702 1_455
I5 Sr1 3.326340 1_555
I5 Sr0 3.471551 1_555
I6 Sr0 3.282702 1_655
I6 Sr2 3.326340 1_555
I6 Sr3 3.471551 1_555
I7 Sr1 3.282702 1_565
I7 Sr3 3.326340 1_555
I7 Sr2 3.471551 1_554
I8 Sr3 3.332992 1_455
I8 Sr2 3.395415 1_545
I9 Sr2 3.332992 1_544
I9 Sr3 3.395415 1_455
I10 Sr2 3.255104 1_555
I11 Sr3 3.255104 1_555
