# generated using pymatgen
data_Ba3In2(HO)12
_symmetry_space_group_name_H-M   'P 1'
_cell_length_a   12.44447848
_cell_length_b   12.44447848
_cell_length_c   12.44447848
_cell_angle_alpha   109.47122063
_cell_angle_beta   109.47122063
_cell_angle_gamma   109.47122063
_symmetry_Int_Tables_number   1
_chemical_formula_structural   Ba3In2(HO)12
_chemical_formula_sum   'Ba12 In8 H48 O48'
_cell_volume   1483.57057935
_cell_formula_units_Z   4
loop_
 _symmetry_equiv_pos_site_id
 _symmetry_equiv_pos_as_xyz
  1  'x, y, z'
loop_
 _atom_site_type_symbol
 _atom_site_label
 _atom_site_symmetry_multiplicity
 _atom_site_fract_x
 _atom_site_fract_y
 _atom_site_fract_z
 _atom_site_occupancy
  Ba  Ba0  1  0.12500000  0.37500000  0.75000000  1
  Ba  Ba1  1  0.37500000  0.12500000  0.25000000  1
  Ba  Ba2  1  0.37500000  0.75000000  0.12500000  1
  Ba  Ba3  1  0.12500000  0.25000000  0.37500000  1
  Ba  Ba4  1  0.75000000  0.12500000  0.37500000  1
  Ba  Ba5  1  0.25000000  0.37500000  0.12500000  1
  Ba  Ba6  1  0.87500000  0.62500000  0.25000000  1
  Ba  Ba7  1  0.62500000  0.87500000  0.75000000  1
  Ba  Ba8  1  0.62500000  0.25000000  0.87500000  1
  Ba  Ba9  1  0.87500000  0.75000000  0.62500000  1
  Ba  Ba10  1  0.25000000  0.87500000  0.62500000  1
  Ba  Ba11  1  0.75000000  0.62500000  0.87500000  1
  In  In0  1  0.00000000  0.50000000  0.00000000  1
  In  In1  1  0.00000000  0.00000000  0.50000000  1
  In  In2  1  0.50000000  0.00000000  0.00000000  1
  In  In3  1  0.50000000  0.50000000  0.50000000  1
  In  In4  1  0.50000000  0.50000000  0.00000000  1
  In  In5  1  0.50000000  0.00000000  0.50000000  1
  In  In6  1  0.00000000  0.50000000  0.50000000  1
  In  In7  1  0.00000000  0.00000000  0.00000000  1
  H  H0  1  0.94893300  0.25018300  0.88572400  1
  H  H1  1  0.86445900  0.06320900  0.61427600  1
  H  H2  1  0.63554100  0.24981700  0.19875000  1
  H  H3  1  0.55106700  0.43679100  0.30125000  1
  H  H4  1  0.25018300  0.88572400  0.94893300  1
  H  H5  1  0.06320900  0.61427600  0.86445900  1
  H  H6  1  0.24981700  0.19875000  0.63554100  1
  H  H7  1  0.43679100  0.30125000  0.55106700  1
  H  H8  1  0.88572400  0.94893300  0.25018300  1
  H  H9  1  0.61427600  0.86445900  0.06320900  1
  H  H10  1  0.19875000  0.63554100  0.24981700  1
  H  H11  1  0.30125000  0.55106700  0.43679100  1
  H  H12  1  0.05106700  0.74981700  0.11427600  1
  H  H13  1  0.13554100  0.93679100  0.38572400  1
  H  H14  1  0.36445900  0.75018300  0.80125000  1
  H  H15  1  0.44893300  0.56320900  0.69875000  1
  H  H16  1  0.74981700  0.11427600  0.05106700  1
  H  H17  1  0.93679100  0.38572400  0.13554100  1
  H  H18  1  0.75018300  0.80125000  0.36445900  1
  H  H19  1  0.56320900  0.69875000  0.44893300  1
  H  H20  1  0.11427600  0.05106700  0.74981700  1
  H  H21  1  0.38572400  0.13554100  0.93679100  1
  H  H22  1  0.80125000  0.36445900  0.75018300  1
  H  H23  1  0.69875000  0.44893300  0.56320900  1
  H  H24  1  0.44893300  0.38572400  0.75018300  1
  H  H25  1  0.36445900  0.11427600  0.56320900  1
  H  H26  1  0.13554100  0.69875000  0.74981700  1
  H  H27  1  0.05106700  0.80125000  0.93679100  1
  H  H28  1  0.75018300  0.44893300  0.38572400  1
  H  H29  1  0.56320900  0.36445900  0.11427600  1
  H  H30  1  0.74981700  0.13554100  0.69875000  1
  H  H31  1  0.93679100  0.05106700  0.80125000  1
  H  H32  1  0.38572400  0.75018300  0.44893300  1
  H  H33  1  0.11427600  0.56320900  0.36445900  1
  H  H34  1  0.69875000  0.74981700  0.13554100  1
  H  H35  1  0.80125000  0.93679100  0.05106700  1
  H  H36  1  0.55106700  0.61427600  0.24981700  1
  H  H37  1  0.63554100  0.88572400  0.43679100  1
  H  H38  1  0.86445900  0.30125000  0.25018300  1
  H  H39  1  0.94893300  0.19875000  0.06320900  1
  H  H40  1  0.24981700  0.55106700  0.61427600  1
  H  H41  1  0.43679100  0.63554100  0.88572400  1
  H  H42  1  0.25018300  0.86445900  0.30125000  1
  H  H43  1  0.06320900  0.94893300  0.19875000  1
  H  H44  1  0.61427600  0.24981700  0.55106700  1
  H  H45  1  0.88572400  0.43679100  0.63554100  1
  H  H46  1  0.30125000  0.25018300  0.86445900  1
  H  H47  1  0.19875000  0.06320900  0.94893300  1
  O  O0  1  0.02586700  0.33057800  0.91245200  1
  O  O1  1  0.91812600  0.11341500  0.58754800  1
  O  O2  1  0.58187400  0.16942200  0.19529000  1
  O  O3  1  0.47413300  0.38658500  0.30471000  1
  O  O4  1  0.33057800  0.91245200  0.02586700  1
  O  O5  1  0.11341500  0.58754800  0.91812600  1
  O  O6  1  0.16942200  0.19529000  0.58187400  1
  O  O7  1  0.38658500  0.30471000  0.47413300  1
  O  O8  1  0.91245200  0.02586700  0.33057800  1
  O  O9  1  0.58754800  0.91812600  0.11341500  1
  O  O10  1  0.19529000  0.58187400  0.16942200  1
  O  O11  1  0.30471000  0.47413300  0.38658500  1
  O  O12  1  0.97413300  0.66942200  0.08754800  1
  O  O13  1  0.08187400  0.88658500  0.41245200  1
  O  O14  1  0.41812600  0.83057800  0.80471000  1
  O  O15  1  0.52586700  0.61341500  0.69529000  1
  O  O16  1  0.66942200  0.08754800  0.97413300  1
  O  O17  1  0.88658500  0.41245200  0.08187400  1
  O  O18  1  0.83057800  0.80471000  0.41812600  1
  O  O19  1  0.61341500  0.69529000  0.52586700  1
  O  O20  1  0.08754800  0.97413300  0.66942200  1
  O  O21  1  0.41245200  0.08187400  0.88658500  1
  O  O22  1  0.80471000  0.41812600  0.83057800  1
  O  O23  1  0.69529000  0.52586700  0.61341500  1
  O  O24  1  0.52586700  0.41245200  0.83057800  1
  O  O25  1  0.41812600  0.08754800  0.61341500  1
  O  O26  1  0.08187400  0.69529000  0.66942200  1
  O  O27  1  0.97413300  0.80471000  0.88658500  1
  O  O28  1  0.83057800  0.52586700  0.41245200  1
  O  O29  1  0.61341500  0.41812600  0.08754800  1
  O  O30  1  0.66942200  0.08187400  0.69529000  1
  O  O31  1  0.88658500  0.97413300  0.80471000  1
  O  O32  1  0.41245200  0.83057800  0.52586700  1
  O  O33  1  0.08754800  0.61341500  0.41812600  1
  O  O34  1  0.69529000  0.66942200  0.08187400  1
  O  O35  1  0.80471000  0.88658500  0.97413300  1
  O  O36  1  0.47413300  0.58754800  0.16942200  1
  O  O37  1  0.58187400  0.91245200  0.38658500  1
  O  O38  1  0.91812600  0.30471000  0.33057800  1
  O  O39  1  0.02586700  0.19529000  0.11341500  1
  O  O40  1  0.16942200  0.47413300  0.58754800  1
  O  O41  1  0.38658500  0.58187400  0.91245200  1
  O  O42  1  0.33057800  0.91812600  0.30471000  1
  O  O43  1  0.11341500  0.02586700  0.19529000  1
  O  O44  1  0.58754800  0.16942200  0.47413300  1
  O  O45  1  0.91245200  0.38658500  0.58187400  1
  O  O46  1  0.30471000  0.33057800  0.91812600  1
  O  O47  1  0.19529000  0.11341500  0.02586700  1
loop_
_geom_bond_atom_site_label_1
_geom_bond_atom_site_label_2
_geom_bond_distance
_geom_bond_site_symmetry_2
Ba0 O41 2.804918 1_555
Ba0 O40 2.804918 1_555
Ba0 O0 2.804918 1_555
Ba0 O1 2.804918 1_455
Ba0 O6 2.856646 1_555
Ba0 O46 2.856646 1_555
Ba0 O45 2.856653 1_455
Ba0 O5 2.856653 1_555
Ba1 O42 2.804911 1_545
Ba1 O2 2.804911 1_555
Ba1 O3 2.804922 1_555
Ba1 O43 2.804922 1_555
Ba1 O7 2.856648 1_555
Ba1 O47 2.856648 1_555
Ba1 O44 2.856653 1_555
Ba1 O4 2.856653 1_545
Ba2 O37 2.804918 1_555
Ba2 O36 2.804918 1_555
Ba2 O4 2.804918 1_555
Ba2 O5 2.804918 1_554
Ba2 O10 2.856646 1_555
Ba2 O42 2.856646 1_555
Ba2 O41 2.856653 1_554
Ba2 O9 2.856653 1_555
Ba3 O6 2.804911 1_555
Ba3 O38 2.804911 1_455
Ba3 O7 2.804922 1_555
Ba3 O39 2.804922 1_555
Ba3 O11 2.856648 1_555
Ba3 O43 2.856648 1_555
Ba3 O40 2.856653 1_555
Ba3 O8 2.856653 1_455
Ba4 O45 2.804918 1_555
Ba4 O44 2.804918 1_555
Ba4 O8 2.804918 1_555
Ba4 O9 2.804918 1_545
Ba4 O2 2.856646 1_555
Ba4 O38 2.856646 1_555
Ba4 O37 2.856653 1_545
Ba4 O1 2.856653 1_555
Ba5 O10 2.804911 1_555
Ba5 O46 2.804911 1_554
Ba5 O11 2.804922 1_555
Ba5 O47 2.804922 1_555
Ba5 O3 2.856648 1_555
Ba5 O39 2.856648 1_555
Ba5 O36 2.856653 1_555
Ba5 O0 2.856653 1_554
Ba6 O12 2.804918 1_555
Ba6 O13 2.804918 1_655
Ba6 O28 2.804918 1_555
Ba6 O29 2.804918 1_555
Ba6 O34 2.856646 1_555
Ba6 O18 2.856646 1_555
Ba6 O17 2.856653 1_555
Ba6 O33 2.856653 1_655
Ba7 O30 2.804911 1_565
Ba7 O14 2.804911 1_555
Ba7 O31 2.804922 1_555
Ba7 O15 2.804922 1_555
Ba7 O35 2.856648 1_555
Ba7 O19 2.856648 1_555
Ba7 O16 2.856653 1_565
Ba7 O32 2.856653 1_555
Ba8 O16 2.804918 1_555
Ba8 O17 2.804918 1_556
Ba8 O24 2.804918 1_555
Ba8 O25 2.804918 1_555
Ba8 O30 2.856646 1_555
Ba8 O22 2.856646 1_555
Ba8 O21 2.856653 1_555
Ba8 O29 2.856653 1_556
Ba9 O26 2.804911 1_655
Ba9 O18 2.804911 1_555
Ba9 O27 2.804922 1_555
Ba9 O19 2.804922 1_555
Ba9 O31 2.856648 1_555
Ba9 O23 2.856648 1_555
Ba9 O20 2.856653 1_655
Ba9 O28 2.856653 1_555
Ba10 O20 2.804918 1_555
Ba10 O21 2.804918 1_565
Ba10 O32 2.804918 1_555
Ba10 O33 2.804918 1_555
Ba10 O26 2.856646 1_555
Ba10 O14 2.856646 1_555
Ba10 O13 2.856653 1_555
Ba10 O25 2.856653 1_565
Ba11 O34 2.804911 1_556
Ba11 O22 2.804911 1_555
Ba11 O35 2.804922 1_555
Ba11 O23 2.804922 1_555
Ba11 O27 2.856648 1_555
Ba11 O15 2.856648 1_555
Ba11 O12 2.856653 1_556
Ba11 O24 2.856653 1_555
In0 O5 2.211498 1_554
In0 O0 2.211498 1_554
In0 O17 2.211498 1_455
In0 O12 2.211498 1_455
In0 O10 2.211506 1_555
In0 O22 2.211506 1_454
In1 O1 2.211498 1_455
In1 O8 2.211498 1_455
In1 O13 2.211498 1_545
In1 O20 2.211498 1_545
In1 O6 2.211506 1_555
In1 O18 2.211506 1_445
In2 O9 2.211498 1_545
In2 O4 2.211498 1_545
In2 O21 2.211498 1_554
In2 O16 2.211498 1_554
In2 O2 2.211506 1_555
In2 O14 2.211506 1_544
In3 O7 2.211509 1_555
In3 O3 2.211509 1_555
In3 O11 2.211509 1_555
In3 O19 2.211509 1_555
In3 O23 2.211509 1_555
In3 O15 2.211509 1_555
In4 O29 2.211498 1_555
In4 O36 2.211498 1_555
In4 O24 2.211498 1_554
In4 O41 2.211498 1_554
In4 O46 2.211506 1_554
In4 O34 2.211506 1_555
In5 O25 2.211498 1_555
In5 O44 2.211498 1_555
In5 O32 2.211498 1_545
In5 O37 2.211498 1_545
In5 O42 2.211506 1_545
In5 O30 2.211506 1_555
In6 O33 2.211498 1_555
In6 O40 2.211498 1_555
In6 O28 2.211498 1_455
In6 O45 2.211498 1_455
In6 O38 2.211506 1_455
In6 O26 2.211506 1_555
In7 O35 2.211509 1_444
In7 O27 2.211509 1_444
In7 O31 2.211509 1_444
In7 O39 2.211509 1_555
In7 O43 2.211509 1_555
In7 O47 2.211509 1_555
H0 O0 0.977489 1_655
H1 O1 0.977489 1_555
H2 O2 0.977495 1_555
H3 O3 0.977481 1_555
H4 O4 0.977489 1_556
H5 O5 0.977489 1_555
H6 O6 0.977495 1_555
H7 O7 0.977481 1_555
H8 O8 0.977489 1_565
H9 O9 0.977489 1_555
H10 O10 0.977495 1_555
H11 O11 0.977481 1_555
H12 O12 0.977489 1_455
H13 O13 0.977489 1_555
H14 O14 0.977495 1_555
H15 O15 0.977481 1_555
H16 O16 0.977489 1_554
H17 O17 0.977489 1_555
H18 O18 0.977495 1_555
H19 O19 0.977481 1_555
H20 O20 0.977489 1_545
H21 O21 0.977489 1_555
H22 O22 0.977495 1_555
H23 O23 0.977481 1_555
H24 O24 0.977489 1_555
H25 O25 0.977489 1_555
H26 O26 0.977495 1_555
H27 O27 0.977481 1_455
H28 O28 0.977489 1_555
H29 O29 0.977489 1_555
H30 O30 0.977495 1_555
H31 O31 0.977481 1_545
H32 O32 0.977489 1_555
H33 O33 0.977489 1_555
H34 O34 0.977495 1_555
H35 O35 0.977481 1_554
H36 O36 0.977489 1_555
H37 O37 0.977489 1_555
H38 O38 0.977495 1_555
H39 O39 0.977481 1_655
H40 O40 0.977489 1_555
H41 O41 0.977489 1_555
H42 O42 0.977495 1_555
H43 O43 0.977481 1_565
H44 O44 0.977489 1_555
H45 O45 0.977489 1_555
H46 O46 0.977495 1_555
H47 O47 0.977481 1_556
