# generated using pymatgen
data_V5BiO10
_symmetry_space_group_name_H-M   'P 1'
_cell_length_a   10.03626100
_cell_length_b   10.04209916
_cell_length_c   10.39646302
_cell_angle_alpha   118.63520074
_cell_angle_beta   118.66625436
_cell_angle_gamma   90.02754073
_symmetry_Int_Tables_number   1
_chemical_formula_structural   V5BiO10
_chemical_formula_sum   'V20 Bi4 O40'
_cell_volume   769.97742766
_cell_formula_units_Z   4
loop_
 _symmetry_equiv_pos_site_id
 _symmetry_equiv_pos_as_xyz
  1  'x, y, z'
loop_
 _atom_site_type_symbol
 _atom_site_label
 _atom_site_symmetry_multiplicity
 _atom_site_fract_x
 _atom_site_fract_y
 _atom_site_fract_z
 _atom_site_occupancy
  V  V0  1  0.95679000  0.76739400  0.19802800  1
  V  V1  1  0.82982100  0.35358900  0.99693300  1
  V  V2  1  0.76998300  0.24221100  0.20235400  1
  V  V3  1  0.96682300  0.44302400  0.59572100  1
  V  V4  1  0.64467100  0.82824700  0.99638800  1
  V  V5  1  0.84692800  0.02779200  0.39947600  1
  V  V6  1  0.55549500  0.37105300  0.40444800  1
  V  V7  1  0.35610800  0.17054500  0.00486000  1
  V  V8  1  0.75380400  0.56807500  0.79842700  1
  V  V9  1  0.63269400  0.15077700  0.59814800  1
  V  V10  1  0.43001700  0.95385300  0.20270000  1
  V  V11  1  0.56984400  0.04769100  0.80316800  1
  V  V12  1  0.16695600  0.63692300  0.99320100  1
  V  V13  1  0.36868600  0.84314500  0.39636200  1
  V  V14  1  0.44278900  0.63233500  0.60229500  1
  V  V15  1  0.24779900  0.43417800  0.20798200  1
  V  V16  1  0.15568600  0.96585500  0.59320000  1
  V  V17  1  0.03201700  0.55282500  0.39961800  1
  V  V18  1  0.23160800  0.76118400  0.80414200  1
  V  V19  1  0.05126200  0.23138900  0.80261300  1
  Bi  Bi0  1  0.58619500  0.58914200  0.17858400  1
  Bi  Bi1  1  0.80683700  0.81177200  0.62105400  1
  Bi  Bi2  1  0.01207700  0.02260200  0.03519700  1
  Bi  Bi3  1  0.38943700  0.38230100  0.76632700  1
  O  O0  1  0.85080700  0.80907300  0.00432800  1
  O  O1  1  0.83488700  0.54702400  0.00324500  1
  O  O2  1  0.81340900  0.15310600  0.00841400  1
  O  O3  1  0.99784200  0.65129500  0.60916900  1
  O  O4  1  0.79057300  0.43936800  0.18481400  1
  O  O5  1  0.76511000  0.06219100  0.20420800  1
  O  O6  1  0.96048000  0.25946300  0.59588900  1
  O  O7  1  0.95318400  0.99583900  0.60132800  1
  O  O8  1  0.75129900  0.79298300  0.19737400  1
  O  O9  1  0.74440200  0.37236900  0.40063900  1
  O  O10  1  0.54906700  0.16458100  0.00523900  1
  O  O11  1  0.94941200  0.56349100  0.80088800  1
  O  O12  1  0.86095800  0.24381500  0.81399000  1
  O  O13  1  0.66283200  0.03025200  0.39327900  1
  O  O14  1  0.45261500  0.83997900  0.00500600  1
  O  O15  1  0.64965000  0.60890300  0.60008800  1
  O  O16  1  0.44893500  0.41307000  0.20551900  1
  O  O17  1  0.63591700  0.33761200  0.58710300  1
  O  O18  1  0.44353400  0.14954800  0.21058400  1
  O  O19  1  0.40332600  0.74156200  0.18922000  1
  O  O20  1  0.60784500  0.95127900  0.60347600  1
  O  O21  1  0.59576300  0.25369800  0.80424700  1
  O  O22  1  0.40039100  0.03311300  0.38510500  1
  O  O23  1  0.19806300  0.84639200  0.00420200  1
  O  O24  1  0.56046700  0.84919500  0.79464400  1
  O  O25  1  0.17183700  0.46260700  0.00576200  1
  O  O26  1  0.36174900  0.65531300  0.40332400  1
  O  O27  1  0.36357600  0.40854300  0.40522200  1
  O  O28  1  0.54430900  0.58407600  0.78975300  1
  O  O29  1  0.15566200  0.19955900  0.00960900  1
  O  O30  1  0.13593600  0.75837700  0.19058800  1
  O  O31  1  0.33570600  0.96350100  0.59777000  1
  O  O32  1  0.26054000  0.64063800  0.60744900  1
  O  O33  1  0.05970800  0.43537200  0.19299800  1
  O  O34  1  0.03469200  0.99574400  0.39616900  1
  O  O35  1  0.24779100  0.19971600  0.79648600  1
  O  O36  1  0.03351000  0.74491000  0.39606300  1
  O  O37  1  0.23112800  0.93560300  0.79361700  1
  O  O38  1  0.99321900  0.36041900  0.39945300  1
  O  O39  1  0.20306300  0.55275700  0.79679100  1
loop_
_geom_bond_atom_site_label_1
_geom_bond_atom_site_label_2
_geom_bond_distance
_geom_bond_site_symmetry_2
Bi0 O19 2.399709 1_555
Bi0 O16 2.438186 1_555
Bi0 O8 2.505391 1_555
Bi0 O4 2.538229 1_555
Bi1 O20 2.425387 1_555
Bi1 O15 2.434735 1_555
Bi1 O7 2.503144 1_555
Bi1 O3 2.515244 1_555
Bi2 O2 2.364364 1_455
Bi2 O29 2.474600 1_555
Bi2 O0 2.481805 1_445
Bi2 O23 2.598649 1_545
Bi3 O28 2.396192 1_555
Bi3 O21 2.412167 1_555
Bi3 O35 2.541115 1_555
Bi3 O39 2.565336 1_555
O0 V0 2.028583 1_555
O0 V4 2.043462 1_554
O0 V8 2.102385 1_554
O1 V1 1.911727 1_554
O1 V0 1.954505 1_555
O1 V8 2.002572 1_554
O2 V2 2.042128 1_555
O2 V1 2.084108 1_554
O2 V11 2.115991 1_554
O3 V18 2.030233 1_655
O3 V3 2.041591 1_555
O3 V17 2.119938 1_655
O4 V1 1.959176 1_554
O4 V2 2.092282 1_555
O4 V17 2.126962 1_655
O5 V2 1.817978 1_555
O5 V5 1.996990 1_555
O5 V4 2.067615 1_544
O6 V3 1.845272 1_555
O6 V5 2.022974 1_555
O6 V19 2.056929 1_655
O7 V5 2.035372 1_565
O7 V19 2.054365 1_665
O7 V16 2.090281 1_655
O8 V4 2.049643 1_554
O8 V5 2.051931 1_565
O8 V0 2.075607 1_555
O9 V6 1.915402 1_555
O9 V3 1.968623 1_555
O9 V2 1.987338 1_555
O10 V7 1.935714 1_555
O10 V2 1.957318 1_555
O10 V11 1.972756 1_554
O11 V12 1.924944 1_655
O11 V8 1.951883 1_555
O11 V3 1.982003 1_555
O12 V1 1.868507 1_555
O12 V19 1.969837 1_655
O12 V9 2.052568 1_555
O13 V5 1.818208 1_555
O13 V10 2.018321 1_545
O13 V9 2.059258 1_555
O14 V10 1.943764 1_555
O14 V18 1.969133 1_554
O14 V4 1.973081 1_554
O15 V6 2.057286 1_555
O15 V8 2.062878 1_555
O15 V14 2.099317 1_555
O16 V15 2.040919 1_555
O16 V6 2.076977 1_555
O16 V7 2.101167 1_555
O17 V6 1.873840 1_555
O17 V9 1.935050 1_555
O17 V8 2.052537 1_555
O18 V10 1.929191 1_545
O18 V6 1.949480 1_555
O18 V7 2.005182 1_555
O19 V12 2.047384 1_554
O19 V10 2.076836 1_555
O19 V13 2.100545 1_555
O20 V9 2.048884 1_565
O20 V11 2.055835 1_565
O20 V13 2.091585 1_555
O21 V1 2.023439 1_555
O21 V11 2.078925 1_555
O21 V9 2.106300 1_555
O22 V10 1.847332 1_545
O22 V13 2.000828 1_545
O22 V9 2.066933 1_555
O23 V10 2.024005 1_555
O23 V18 2.034175 1_554
O23 V12 2.066354 1_554
O24 V14 1.921963 1_555
O24 V11 1.952570 1_565
O24 V4 1.969798 1_555
O25 V12 1.815694 1_554
O25 V15 2.029883 1_555
O25 V19 2.039930 1_554
O26 V13 1.924449 1_555
O26 V15 1.952016 1_555
O26 V14 1.958913 1_555
O27 V15 1.960004 1_555
O27 V6 1.965837 1_555
O27 V14 1.975530 1_555
O28 V14 2.017872 1_555
O28 V8 2.070497 1_555
O28 V4 2.124792 1_555
O29 V15 2.042176 1_555
O29 V7 2.053399 1_555
O29 V19 2.080269 1_554
O30 V0 1.836763 1_455
O30 V12 2.002522 1_554
O30 V13 2.053307 1_555
O31 V16 1.784893 1_555
O31 V13 2.048063 1_555
O31 V11 2.061572 1_565
O32 V14 1.856157 1_555
O32 V18 1.982114 1_555
O32 V17 2.030723 1_555
O33 V15 1.818684 1_555
O33 V1 2.008543 1_454
O33 V17 2.056082 1_555
O34 V5 1.925627 1_465
O34 V16 1.990947 1_555
O34 V0 2.009641 1_455
O35 V19 2.024197 1_555
O35 V16 2.050071 1_545
O35 V7 2.076000 1_556
O36 V17 1.947106 1_555
O36 V0 1.951293 1_455
O36 V16 1.963347 1_555
O37 V18 1.806395 1_555
O37 V16 2.024945 1_555
O37 V7 2.085876 1_566
O38 V3 1.954074 1_555
O38 V17 1.969855 1_655
O38 V2 1.972073 1_555
O39 V12 2.017762 1_555
O39 V3 2.059152 1_455
O39 V18 2.072161 1_555
