# generated using pymatgen
data_LiMnP2O7
_symmetry_space_group_name_H-M   'P 1'
_cell_length_a   4.97679362
_cell_length_b   6.76370081
_cell_length_c   8.17936014
_cell_angle_alpha   92.57763737
_cell_angle_beta   93.62926812
_cell_angle_gamma   104.31845289
_symmetry_Int_Tables_number   1
_chemical_formula_structural   LiMnP2O7
_chemical_formula_sum   'Li2 Mn2 P4 O14'
_cell_volume   265.71824751
_cell_formula_units_Z   2
loop_
 _symmetry_equiv_pos_site_id
 _symmetry_equiv_pos_as_xyz
  1  'x, y, z'
loop_
 _atom_site_type_symbol
 _atom_site_label
 _atom_site_symmetry_multiplicity
 _atom_site_fract_x
 _atom_site_fract_y
 _atom_site_fract_z
 _atom_site_occupancy
  Li  Li0  1  0.46815600  0.53515300  0.92267600  1
  Li  Li1  1  0.06834600  0.96660600  0.43491600  1
  Mn  Mn0  1  0.50533600  0.50043900  0.49918900  1
  Mn  Mn1  1  0.01018000  0.01007700  0.99937800  1
  P  P0  1  0.54751200  0.15952700  0.76812400  1
  P  P1  1  0.14349100  0.75613100  0.69540100  1
  P  P2  1  0.87072700  0.25197800  0.30190400  1
  P  P3  1  0.46171200  0.84180600  0.22638500  1
  O  O0  1  0.39321900  0.22043500  0.90956600  1
  O  O1  1  0.06112200  0.77024700  0.87297700  1
  O  O2  1  0.79225600  0.06796100  0.81261300  1
  O  O3  1  0.33653000  0.60911600  0.69156500  1
  O  O4  1  0.64139500  0.33217600  0.65394500  1
  O  O5  1  0.32830200  0.98095600  0.65174000  1
  O  O6  1  0.91144200  0.72242900  0.56070700  1
  O  O7  1  0.11257800  0.27328500  0.42966800  1
  O  O8  1  0.69478200  0.01823100  0.33569700  1
  O  O9  1  0.37524900  0.67789100  0.34880800  1
  O  O10  1  0.68035800  0.39555100  0.31785100  1
  O  O11  1  0.20864600  0.93415800  0.19495000  1
  O  O12  1  0.94426300  0.24282400  0.12173900  1
  O  O13  1  0.59332600  0.78371000  0.07534600  1
loop_
_geom_bond_atom_site_label_1
_geom_bond_atom_site_label_2
_geom_bond_distance
_geom_bond_site_symmetry_2
Li0 O13 1.992090 1_556
Li0 O0 2.064827 1_555
Li0 O3 2.084023 1_555
Li1 O6 2.003157 1_455
Li1 O7 2.033792 1_565
Li1 O8 2.095840 1_465
Li1 O5 2.111959 1_555
Li1 O11 2.144464 1_555
Mn0 O4 1.938619 1_555
Mn0 O9 1.946528 1_555
Mn0 O10 1.958712 1_555
Mn0 O3 2.022575 1_555
Mn0 O7 2.190868 1_555
Mn0 O6 2.212414 1_555
Mn1 O2 1.928015 1_455
Mn1 O12 1.934628 1_456
Mn1 O1 1.962210 1_545
Mn1 O11 1.980628 1_546
Mn1 O0 2.264452 1_555
Mn1 O13 2.389962 1_446
O0 P0 1.524421 1_555
O1 P1 1.539175 1_555
O2 P0 1.528687 1_555
O3 P1 1.544747 1_555
O4 P0 1.528919 1_555
O5 P0 1.633567 1_565
O5 P1 1.638447 1_555
O6 P1 1.511805 1_655
O7 P2 1.517570 1_455
O8 P3 1.630007 1_545
O8 P2 1.651633 1_555
O9 P3 1.528215 1_555
O10 P2 1.522156 1_555
O11 P3 1.550836 1_555
O12 P2 1.542934 1_555
O13 P3 1.515177 1_555
