# generated using pymatgen
data_Cu3As
_symmetry_space_group_name_H-M   'P 1'
_cell_length_a   7.03118180
_cell_length_b   7.03118180
_cell_length_c   7.57295800
_cell_angle_alpha   90.00000000
_cell_angle_beta   90.00000000
_cell_angle_gamma   119.99999812
_symmetry_Int_Tables_number   1
_chemical_formula_structural   Cu3As
_chemical_formula_sum   'Cu18 As6'
_cell_volume   324.22973608
_cell_formula_units_Z   6
loop_
 _symmetry_equiv_pos_site_id
 _symmetry_equiv_pos_as_xyz
  1  'x, y, z'
loop_
 _atom_site_type_symbol
 _atom_site_label
 _atom_site_symmetry_multiplicity
 _atom_site_fract_x
 _atom_site_fract_y
 _atom_site_fract_z
 _atom_site_occupancy
  Cu  Cu0  1  0.00000000  0.00000000  0.00000000  1
  Cu  Cu1  1  0.00000000  0.00000000  0.50000000  1
  Cu  Cu2  1  0.33333300  0.66666700  0.15970400  1
  Cu  Cu3  1  0.66666700  0.33333300  0.34029600  1
  Cu  Cu4  1  0.66666700  0.33333300  0.84029600  1
  Cu  Cu5  1  0.33333300  0.66666700  0.65970400  1
  Cu  Cu6  1  0.67126300  0.06370800  0.08335300  1
  Cu  Cu7  1  0.93629200  0.60755500  0.08335300  1
  Cu  Cu8  1  0.39244500  0.32873700  0.08335300  1
  Cu  Cu9  1  0.60755500  0.93629200  0.41664700  1
  Cu  Cu10  1  0.32873700  0.39244500  0.41664700  1
  Cu  Cu11  1  0.06370800  0.67126300  0.41664700  1
  Cu  Cu12  1  0.32873700  0.93629200  0.91664700  1
  Cu  Cu13  1  0.06370800  0.39244500  0.91664700  1
  Cu  Cu14  1  0.60755500  0.67126300  0.91664700  1
  Cu  Cu15  1  0.39244500  0.06370800  0.58335300  1
  Cu  Cu16  1  0.67126300  0.60755500  0.58335300  1
  Cu  Cu17  1  0.93629200  0.32873700  0.58335300  1
  As  As0  1  0.30327900  0.00000000  0.25000000  1
  As  As1  1  0.00000000  0.30327900  0.25000000  1
  As  As2  1  0.69672100  0.69672100  0.25000000  1
  As  As3  1  0.69672100  0.00000000  0.75000000  1
  As  As4  1  0.00000000  0.69672100  0.75000000  1
  As  As5  1  0.30327900  0.30327900  0.75000000  1
loop_
_geom_bond_atom_site_label_1
_geom_bond_atom_site_label_2
_geom_bond_distance
_geom_bond_site_symmetry_2
Cu0 Cu6 2.641419 1_455
Cu0 Cu12 2.641419 1_544
Cu0 Cu13 2.641419 1_554
Cu0 Cu7 2.641419 1_445
Cu0 Cu14 2.641419 1_444
Cu0 Cu8 2.641419 1_555
Cu1 Cu17 2.641419 1_455
Cu1 Cu11 2.641419 1_545
Cu1 Cu15 2.641419 1_555
Cu1 Cu9 2.641419 1_445
Cu1 Cu16 2.641419 1_445
Cu1 Cu10 2.641419 1_555
Cu2 Cu7 2.672111 1_455
Cu2 Cu6 2.672114 1_565
Cu2 Cu8 2.672118 1_555
Cu2 Cu9 2.728099 1_555
Cu3 Cu9 2.672111 1_545
Cu3 Cu6 2.728096 1_555
Cu3 Cu7 2.728099 1_555
Cu3 Cu8 2.728101 1_555
Cu4 Cu6 2.654115 1_556
Cu4 Cu7 2.654118 1_556
Cu4 Cu8 2.654121 1_556
Cu5 Cu9 2.654118 1_555
Cu6 Cu9 2.640576 1_545
Cu10 Cu16 2.457438 1_555
Cu10 Cu8 2.640576 1_555
Cu10 Cu5 2.654121 1_555
Cu10 Cu3 2.672118 1_555
Cu10 Cu2 2.728101 1_555
Cu10 Cu15 2.858749 1_555
Cu10 Cu17 2.858749 1_455
Cu11 Cu17 2.457438 1_455
Cu11 Cu7 2.640576 1_455
Cu11 Cu5 2.654115 1_555
Cu11 Cu3 2.672114 1_455
Cu11 Cu2 2.728096 1_555
Cu11 Cu16 2.858749 1_455
Cu11 Cu15 2.858749 1_565
Cu12 Cu6 2.457438 1_566
Cu12 Cu15 2.640576 1_565
Cu12 Cu2 2.654115 1_556
Cu12 Cu4 2.672114 1_565
Cu12 Cu5 2.728096 1_555
Cu12 Cu8 2.858749 1_566
Cu12 Cu7 2.858749 1_456
Cu13 Cu7 2.457438 1_456
Cu13 Cu17 2.640576 1_455
Cu13 Cu2 2.654118 1_556
Cu13 Cu4 2.672111 1_455
Cu13 Cu5 2.728099 1_555
Cu13 Cu8 2.858749 1_556
Cu13 Cu6 2.858749 1_456
Cu14 Cu8 2.457438 1_556
Cu14 Cu16 2.640576 1_555
Cu14 Cu2 2.654121 1_556
Cu14 Cu4 2.672118 1_555
Cu14 Cu5 2.728101 1_555
Cu14 Cu7 2.858749 1_556
Cu14 Cu6 2.858749 1_566
Cu15 Cu9 2.457438 1_545
Cu15 Cu3 2.654118 1_555
Cu15 Cu5 2.672111 1_545
Cu15 Cu4 2.728099 1_555
Cu16 Cu3 2.654121 1_555
Cu16 Cu5 2.672118 1_555
Cu16 Cu4 2.728101 1_555
Cu16 Cu9 2.858749 1_555
Cu17 Cu3 2.654115 1_555
Cu17 Cu5 2.672114 1_655
Cu17 Cu4 2.728096 1_555
Cu17 Cu9 2.858749 1_545
As0 Cu8 2.424711 1_555
As0 Cu11 2.424711 1_545
As0 Cu2 2.549619 1_545
As0 Cu3 2.549623 1_555
As0 Cu12 2.585694 1_544
As0 Cu15 2.585694 1_555
As0 Cu9 2.707172 1_545
As0 Cu6 2.707172 1_555
As0 Cu0 2.851583 1_555
As0 Cu1 2.851583 1_555
As0 Cu10 2.957163 1_555
As0 Cu7 2.957163 1_445
As1 Cu10 2.424711 1_555
As1 Cu6 2.424711 1_455
As1 Cu3 2.549619 1_455
As1 Cu2 2.549623 1_555
As1 Cu17 2.585694 1_455
As1 Cu13 2.585694 1_554
As1 Cu7 2.707172 1_455
As1 Cu11 2.707172 1_555
As1 Cu0 2.851583 1_555
As1 Cu1 2.851583 1_555
As1 Cu8 2.957163 1_555
As1 Cu9 2.957163 1_445
As2 Cu7 2.424711 1_555
As2 Cu9 2.424711 1_555
As2 Cu2 2.549626 1_555
As2 Cu3 2.549626 1_555
As2 Cu14 2.585694 1_554
As2 Cu16 2.585694 1_555
As2 Cu8 2.707172 1_555
As2 Cu10 2.707172 1_555
As2 Cu0 2.851583 1_665
As2 Cu1 2.851583 1_665
As2 Cu11 2.957163 1_655
As2 Cu6 2.957163 1_565
As3 Cu14 2.424711 1_545
As3 Cu17 2.424711 1_555
As3 Cu4 2.549619 1_555
As3 Cu5 2.549623 1_545
As3 Cu6 2.585694 1_556
As3 Cu9 2.585694 1_545
As3 Cu15 2.707172 1_555
As3 Cu12 2.707172 1_545
As3 Cu0 2.851583 1_656
As3 Cu1 2.851583 1_655
As3 Cu16 2.957163 1_545
As3 Cu13 2.957163 1_655
As4 Cu16 2.424711 1_455
As4 Cu12 2.424711 1_555
As4 Cu5 2.549619 1_555
As4 Cu4 2.549623 1_455
As4 Cu11 2.585694 1_555
As4 Cu7 2.585694 1_456
As4 Cu13 2.707172 1_555
As4 Cu17 2.707172 1_455
As4 Cu0 2.851583 1_566
As4 Cu1 2.851583 1_565
As4 Cu14 2.957163 1_455
As4 Cu15 2.957163 1_565
As5 Cu15 2.424711 1_555
As5 Cu13 2.424711 1_555
As5 Cu4 2.549626 1_555
As5 Cu5 2.549626 1_555
As5 Cu10 2.585694 1_555
As5 Cu8 2.585694 1_556
As5 Cu14 2.707172 1_555
As5 Cu16 2.707172 1_555
As5 Cu0 2.851583 1_556
As5 Cu1 2.851583 1_555
As5 Cu12 2.957163 1_545
As5 Cu17 2.957163 1_455
