# generated using pymatgen
data_Li3V3FeO8
_symmetry_space_group_name_H-M   'P 1'
_cell_length_a   5.99394141
_cell_length_b   5.99394141
_cell_length_c   6.00113424
_cell_angle_alpha   59.97612129
_cell_angle_beta   59.97612129
_cell_angle_gamma   59.39781607
_symmetry_Int_Tables_number   1
_chemical_formula_structural   Li3V3FeO8
_chemical_formula_sum   'Li3 V3 Fe1 O8'
_cell_volume   151.69538556
_cell_formula_units_Z   1
loop_
 _symmetry_equiv_pos_site_id
 _symmetry_equiv_pos_as_xyz
  1  'x, y, z'
loop_
 _atom_site_type_symbol
 _atom_site_label
 _atom_site_symmetry_multiplicity
 _atom_site_fract_x
 _atom_site_fract_y
 _atom_site_fract_z
 _atom_site_occupancy
  Li  Li0  1  0.00000000  0.50000000  0.50000000  1
  Li  Li1  1  0.50000000  0.00000000  0.50000000  1
  Li  Li2  1  0.00000000  0.00000000  0.50000000  1
  V  V0  1  0.50000000  0.00000000  0.00000000  1
  V  V1  1  0.00000000  0.50000000  0.00000000  1
  V  V2  1  0.50000000  0.50000000  0.00000000  1
  Fe  Fe0  1  0.00000000  0.00000000  0.00000000  1
  O  O0  1  0.26072600  0.26072600  0.23057900  1
  O  O1  1  0.75538100  0.26304600  0.21920000  1
  O  O2  1  0.26304600  0.75538100  0.21920000  1
  O  O3  1  0.73927400  0.73927400  0.76942100  1
  O  O4  1  0.76506400  0.76506400  0.21338500  1
  O  O5  1  0.24461900  0.73695400  0.78080000  1
  O  O6  1  0.73695400  0.24461900  0.78080000  1
  O  O7  1  0.23493600  0.23493600  0.78661500  1
loop_
_geom_bond_atom_site_label_1
_geom_bond_atom_site_label_2
_geom_bond_distance
_geom_bond_site_symmetry_2
Li0 O3 2.150182 1_455
Li0 O0 2.150182 1_555
Li0 O7 2.208377 1_555
Li0 O4 2.208377 1_455
Li0 O2 2.210396 1_555
Li0 O6 2.210396 1_455
Li1 O3 2.150182 1_545
Li1 O0 2.150182 1_555
Li1 O7 2.208377 1_555
Li1 O4 2.208377 1_545
Li1 O5 2.210396 1_545
Li1 O1 2.210396 1_555
Li2 O3 2.219941 1_445
Li2 O0 2.219941 1_555
Li2 O1 2.221575 1_455
Li2 O5 2.221575 1_545
Li2 O6 2.221575 1_455
Li2 O2 2.221575 1_545
Fe0 O7 2.003919 1_554
Fe0 O4 2.003919 1_445
Fe0 O5 2.039075 1_544
Fe0 O6 2.039075 1_454
Fe0 O2 2.039075 1_545
Fe0 O1 2.039075 1_455
O0 V2 2.037361 1_555
O0 V0 2.076044 1_555
O0 V1 2.076044 1_555
O1 V2 2.005651 1_555
O1 V1 2.053757 1_655
O2 V2 2.005651 1_555
O2 V0 2.053757 1_565
O3 V2 2.037361 1_556
O3 V1 2.076044 1_656
O3 V0 2.076044 1_566
O4 V1 2.024980 1_655
O4 V0 2.024980 1_565
O5 V2 2.005651 1_556
O5 V1 2.053757 1_556
O6 V2 2.005651 1_556
O6 V0 2.053757 1_556
O7 V1 2.024980 1_556
O7 V0 2.024980 1_556
