# generated using pymatgen
data_SbOF
_symmetry_space_group_name_H-M   'P 1'
_cell_length_a   10.77646600
_cell_length_b   7.06003300
_cell_length_c   9.37508885
_cell_angle_alpha   74.80714890
_cell_angle_beta   90.00000000
_cell_angle_gamma   90.00000000
_symmetry_Int_Tables_number   1
_chemical_formula_structural   SbOF
_chemical_formula_sum   'Sb12 O12 F12'
_cell_volume   688.34782060
_cell_formula_units_Z   12
loop_
 _symmetry_equiv_pos_site_id
 _symmetry_equiv_pos_as_xyz
  1  'x, y, z'
loop_
 _atom_site_type_symbol
 _atom_site_label
 _atom_site_symmetry_multiplicity
 _atom_site_fract_x
 _atom_site_fract_y
 _atom_site_fract_z
 _atom_site_occupancy
  Sb  Sb0  1  0.52782900  0.25333100  0.09787800  1
  Sb  Sb1  1  0.21937600  0.97366300  0.04477100  1
  Sb  Sb2  1  0.16730500  0.45465100  0.22011200  1
  Sb  Sb3  1  0.66730500  0.54534900  0.27988800  1
  Sb  Sb4  1  0.71937600  0.02633700  0.45522900  1
  Sb  Sb5  1  0.02782900  0.74666900  0.40212200  1
  Sb  Sb6  1  0.97217100  0.25333100  0.59787800  1
  Sb  Sb7  1  0.28062400  0.97366300  0.54477100  1
  Sb  Sb8  1  0.33269500  0.45465100  0.72011200  1
  Sb  Sb9  1  0.83269500  0.54534900  0.77988800  1
  Sb  Sb10  1  0.78062400  0.02633700  0.95522900  1
  Sb  Sb11  1  0.47217100  0.74666900  0.90212200  1
  O  O0  1  0.56042400  0.53942500  0.10198400  1
  O  O1  1  0.32795700  0.75034700  0.03271100  1
  O  O2  1  0.64083500  0.24638900  0.28894000  1
  O  O3  1  0.14083500  0.75361100  0.21106000  1
  O  O4  1  0.82795700  0.24965300  0.46728900  1
  O  O5  1  0.06042400  0.46057500  0.39801600  1
  O  O6  1  0.93957600  0.53942500  0.60198400  1
  O  O7  1  0.17204300  0.75034700  0.53271100  1
  O  O8  1  0.85916500  0.24638900  0.78894000  1
  O  O9  1  0.35916500  0.75361100  0.71106000  1
  O  O10  1  0.67204300  0.24965300  0.96728900  1
  O  O11  1  0.43957600  0.46057500  0.89801600  1
  F  F0  1  0.90034700  0.07338200  0.10077700  1
  F  F1  1  0.82135100  0.57126800  0.16384900  1
  F  F2  1  0.65546300  0.87447100  0.16324300  1
  F  F3  1  0.15546300  0.12552900  0.33675700  1
  F  F4  1  0.32135100  0.42873200  0.33615100  1
  F  F5  1  0.40034700  0.92661800  0.39922300  1
  F  F6  1  0.59965300  0.07338200  0.60077700  1
  F  F7  1  0.67864900  0.57126800  0.66384900  1
  F  F8  1  0.84453700  0.87447100  0.66324300  1
  F  F9  1  0.34453700  0.12552900  0.83675700  1
  F  F10  1  0.17864900  0.42873200  0.83615100  1
  F  F11  1  0.09965300  0.92661800  0.89922300  1
loop_
_geom_bond_atom_site_label_1
_geom_bond_atom_site_label_2
_geom_bond_distance
_geom_bond_site_symmetry_2
O0 Sb3 2.036352 1_555
O0 Sb0 2.060423 1_555
O0 Sb11 2.262567 1_554
O1 Sb11 1.982798 1_554
O1 Sb1 1.990256 1_555
O2 Sb4 2.071455 1_555
O2 Sb3 2.109409 1_555
O2 Sb0 2.155903 1_555
O3 Sb1 2.071455 1_555
O3 Sb2 2.109409 1_555
O3 Sb5 2.155903 1_555
O4 Sb6 1.982798 1_555
O4 Sb4 1.990256 1_555
O5 Sb2 2.036352 1_555
O5 Sb5 2.060423 1_555
O5 Sb6 2.262567 1_455
O6 Sb9 2.036352 1_555
O6 Sb6 2.060423 1_555
O6 Sb5 2.262567 1_655
O7 Sb5 1.982798 1_555
O7 Sb7 1.990256 1_555
O8 Sb10 2.071455 1_555
O8 Sb9 2.109409 1_555
O8 Sb6 2.155903 1_555
O9 Sb7 2.071455 1_555
O9 Sb8 2.109409 1_555
O9 Sb11 2.155903 1_555
O10 Sb0 1.982798 1_556
O10 Sb10 1.990256 1_555
O11 Sb8 2.036352 1_555
O11 Sb11 2.060423 1_555
O11 Sb0 2.262567 1_556
F0 Sb10 1.968346 1_554
F1 Sb3 1.966839 1_555
F2 Sb3 2.297714 1_555
F2 Sb10 2.382430 1_564
F3 Sb2 2.297714 1_555
F3 Sb7 2.382430 1_545
F4 Sb2 1.966839 1_555
F5 Sb7 1.968346 1_555
F6 Sb4 1.968346 1_555
F7 Sb9 1.966839 1_555
F8 Sb9 2.297714 1_555
F8 Sb4 2.382430 1_565
F9 Sb8 2.297714 1_555
F9 Sb1 2.382430 1_546
F10 Sb8 1.966839 1_555
F11 Sb1 1.968346 1_556
