# generated using pymatgen
data_Li2V3SnO8
_symmetry_space_group_name_H-M   'P 1'
_cell_length_a   6.04731611
_cell_length_b   6.04731611
_cell_length_c   6.04731636
_cell_angle_alpha   59.96608286
_cell_angle_beta   59.96608286
_cell_angle_gamma   59.96608671
_symmetry_Int_Tables_number   1
_chemical_formula_structural   Li2V3SnO8
_chemical_formula_sum   'Li2 V3 Sn1 O8'
_cell_volume   156.25678355
_cell_formula_units_Z   1
loop_
 _symmetry_equiv_pos_site_id
 _symmetry_equiv_pos_as_xyz
  1  'x, y, z'
loop_
 _atom_site_type_symbol
 _atom_site_label
 _atom_site_symmetry_multiplicity
 _atom_site_fract_x
 _atom_site_fract_y
 _atom_site_fract_z
 _atom_site_occupancy
  Li  Li0  1  0.12034200  0.12034200  0.12034200  1
  Li  Li1  1  0.49944800  0.49944800  0.49944800  1
  V  V0  1  0.49309900  0.02337700  0.49309900  1
  V  V1  1  0.02337700  0.49309900  0.49309900  1
  V  V2  1  0.49309900  0.49309900  0.02337700  1
  Sn  Sn0  1  0.87947300  0.87947300  0.87947300  1
  O  O0  1  0.25730600  0.25730600  0.25730600  1
  O  O1  1  0.25150700  0.25150700  0.71375800  1
  O  O2  1  0.71375800  0.25150700  0.25150700  1
  O  O3  1  0.25150700  0.71375800  0.25150700  1
  O  O4  1  0.74504200  0.28450500  0.74504200  1
  O  O5  1  0.28450500  0.74504200  0.74504200  1
  O  O6  1  0.74504200  0.74504200  0.28450500  1
  O  O7  1  0.74249400  0.74249400  0.74249400  1
loop_
_geom_bond_atom_site_label_1
_geom_bond_atom_site_label_2
_geom_bond_distance
_geom_bond_site_symmetry_2
Li0 O3 2.007239 1_545
Li0 O2 2.007239 1_455
Li0 O1 2.007239 1_554
Li0 O0 2.029346 1_555
Li1 O6 2.108129 1_555
Li1 O4 2.108129 1_555
Li1 O5 2.108129 1_555
Li1 O1 2.129777 1_555
Li1 O2 2.129777 1_555
Li1 O3 2.129777 1_555
O0 V2 2.016071 1_555
O0 V1 2.016071 1_555
O0 V0 2.016071 1_555
O1 V1 1.921448 1_555
O1 V0 1.921448 1_555
O2 V0 1.921448 1_555
O2 V2 1.921448 1_555
O3 V1 1.921448 1_555
O3 V2 1.921448 1_555
O4 Sn0 1.999049 1_545
O4 V1 2.092856 1_655
O4 V2 2.092857 1_556
O5 Sn0 1.999049 1_455
O5 V0 2.092856 1_565
O5 V2 2.092857 1_556
O6 Sn0 1.999049 1_554
O6 V1 2.092857 1_655
O6 V0 2.092857 1_565
O7 Sn0 2.029568 1_555
O7 V2 2.140676 1_556
O7 V1 2.140676 1_655
O7 V0 2.140676 1_565
