# generated using pymatgen
data_LiCoB2O5
_symmetry_space_group_name_H-M   'P 1'
_cell_length_a   7.29822737
_cell_length_b   7.29822737
_cell_length_c   9.66717193
_cell_angle_alpha   68.82122048
_cell_angle_beta   68.82122048
_cell_angle_gamma   90.46266406
_symmetry_Int_Tables_number   1
_chemical_formula_structural   LiCoB2O5
_chemical_formula_sum   'Li4 Co4 B8 O20'
_cell_volume   441.98097415
_cell_formula_units_Z   4
loop_
 _symmetry_equiv_pos_site_id
 _symmetry_equiv_pos_as_xyz
  1  'x, y, z'
loop_
 _atom_site_type_symbol
 _atom_site_label
 _atom_site_symmetry_multiplicity
 _atom_site_fract_x
 _atom_site_fract_y
 _atom_site_fract_z
 _atom_site_occupancy
  Li  Li0  1  0.83748700  0.16251300  0.75000000  1
  Li  Li1  1  0.38001800  0.61998200  0.75000000  1
  Li  Li2  1  0.61998200  0.38001800  0.25000000  1
  Li  Li3  1  0.16251300  0.83748700  0.25000000  1
  Co  Co0  1  0.96187100  0.65101900  0.64779200  1
  Co  Co1  1  0.65101900  0.96187100  0.14779200  1
  Co  Co2  1  0.34898100  0.03812900  0.85220800  1
  Co  Co3  1  0.03812900  0.34898100  0.35220800  1
  B  B0  1  0.76262700  0.76959800  0.90615600  1
  B  B1  1  0.73775700  0.39886300  0.97333000  1
  B  B2  1  0.76959800  0.76262700  0.40615600  1
  B  B3  1  0.39886300  0.73775700  0.47333000  1
  B  B4  1  0.60113700  0.26224300  0.52667000  1
  B  B5  1  0.23040200  0.23737300  0.59384400  1
  B  B6  1  0.26224300  0.60113700  0.02667000  1
  B  B7  1  0.23737300  0.23040200  0.09384400  1
  O  O0  1  0.70486100  0.91327400  0.96578900  1
  O  O1  1  0.85937400  0.82884900  0.74409700  1
  O  O2  1  0.91327400  0.70486100  0.46578900  1
  O  O3  1  0.81872200  0.40532400  0.82129500  1
  O  O4  1  0.33416500  0.77163100  0.88835000  1
  O  O5  1  0.82884900  0.85937400  0.24409700  1
  O  O6  1  0.56883900  0.71641700  0.51385700  1
  O  O7  1  0.28358300  0.43116100  0.98614300  1
  O  O8  1  0.40532400  0.81872200  0.32129500  1
  O  O9  1  0.77163100  0.33416500  0.38835000  1
  O  O10  1  0.22836900  0.66583500  0.61165000  1
  O  O11  1  0.59467600  0.18127800  0.67870500  1
  O  O12  1  0.71641700  0.56883900  0.01385700  1
  O  O13  1  0.43116100  0.28358300  0.48614300  1
  O  O14  1  0.17115100  0.14062600  0.75590300  1
  O  O15  1  0.66583500  0.22836900  0.11165000  1
  O  O16  1  0.18127800  0.59467600  0.17870500  1
  O  O17  1  0.08672600  0.29513900  0.53421100  1
  O  O18  1  0.14062600  0.17115100  0.25590300  1
  O  O19  1  0.29513900  0.08672600  0.03421100  1
loop_
_geom_bond_atom_site_label_1
_geom_bond_atom_site_label_2
_geom_bond_distance
_geom_bond_site_symmetry_2
Li0 O17 2.090012 1_655
Li0 O0 2.090012 1_545
Li0 O3 2.110049 1_555
Li0 O11 2.110049 1_555
Li0 O1 2.461475 1_545
Li0 O14 2.461475 1_655
Li1 O10 1.969228 1_555
Li1 O4 1.969228 1_555
Li1 O7 2.038642 1_555
Li1 O6 2.038642 1_555
Li2 O15 1.969228 1_555
Li2 O9 1.969228 1_555
Li2 O13 2.038642 1_555
Li2 O12 2.038642 1_555
Li3 O2 2.090012 1_455
Li3 O19 2.090012 1_565
Li3 O8 2.110049 1_555
Li3 O16 2.110049 1_555
Li3 O18 2.461475 1_565
Li3 O5 2.461475 1_455
Co0 O2 1.824683 1_555
Co0 O10 1.842535 1_655
Co0 O1 1.869828 1_555
Co0 O3 1.910634 1_555
Co1 O0 1.824683 1_554
Co1 O15 1.842535 1_565
Co1 O5 1.869828 1_555
Co1 O8 1.910634 1_555
Co2 O19 1.824683 1_556
Co2 O4 1.842535 1_545
Co2 O14 1.869828 1_555
Co2 O11 1.910634 1_555
Co3 O17 1.824683 1_555
Co3 O9 1.842535 1_455
Co3 O18 1.869828 1_555
Co3 O16 1.910634 1_555
B0 O1 1.358758 1_555
B0 O0 1.370364 1_555
B0 O12 1.407328 1_556
B1 O3 1.354067 1_555
B1 O15 1.375465 1_556
B1 O12 1.423676 1_556
B2 O5 1.358758 1_555
B2 O2 1.370364 1_555
B2 O6 1.407328 1_555
B3 O8 1.354067 1_555
B3 O10 1.375465 1_555
B3 O6 1.423676 1_555
B4 O11 1.354067 1_555
B4 O9 1.375465 1_555
B4 O13 1.423676 1_555
B5 O14 1.358758 1_555
B5 O17 1.370364 1_555
B5 O13 1.407328 1_555
B6 O16 1.354067 1_555
B6 O4 1.375465 1_554
B6 O7 1.423676 1_554
B7 O18 1.358758 1_555
B7 O19 1.370364 1_555
B7 O7 1.407328 1_554
