# generated using pymatgen
data_Li2FePHO5
_symmetry_space_group_name_H-M   'P 1'
_cell_length_a   5.38881500
_cell_length_b   5.52641395
_cell_length_c   7.65699995
_cell_angle_alpha   107.54118510
_cell_angle_beta   109.22080933
_cell_angle_gamma   93.11128715
_symmetry_Int_Tables_number   1
_chemical_formula_structural   Li2FePHO5
_chemical_formula_sum   'Li4 Fe2 P2 H2 O10'
_cell_volume   202.30259305
_cell_formula_units_Z   2
loop_
 _symmetry_equiv_pos_site_id
 _symmetry_equiv_pos_as_xyz
  1  'x, y, z'
loop_
 _atom_site_type_symbol
 _atom_site_label
 _atom_site_symmetry_multiplicity
 _atom_site_fract_x
 _atom_site_fract_y
 _atom_site_fract_z
 _atom_site_occupancy
  Li  Li0  1  0.46333900  0.12567200  0.83078700  1
  Li  Li1  1  0.79266800  0.42832800  0.80542300  1
  Li  Li2  1  0.20733200  0.57167200  0.19457700  1
  Li  Li3  1  0.53666100  0.87432800  0.16921300  1
  Fe  Fe0  1  0.00000000  0.00000000  0.50000000  1
  Fe  Fe1  1  0.00000000  0.00000000  0.00000000  1
  P  P0  1  0.67394500  0.37680000  0.23053800  1
  P  P1  1  0.32605500  0.62320000  0.76946200  1
  H  H0  1  0.33262800  0.07583600  0.35515100  1
  H  H1  1  0.66737200  0.92416400  0.64484900  1
  O  O0  1  0.82045400  0.06133400  0.73131700  1
  O  O1  1  0.73617000  0.21721000  0.37132100  1
  O  O2  1  0.33414400  0.33735100  0.66595000  1
  O  O3  1  0.38773000  0.25425400  0.07291500  1
  O  O4  1  0.87351900  0.35555900  0.12094600  1
  O  O5  1  0.12648100  0.64444100  0.87905400  1
  O  O6  1  0.61227000  0.74574600  0.92708500  1
  O  O7  1  0.66585600  0.66264900  0.33405000  1
  O  O8  1  0.26383000  0.78279000  0.62867900  1
  O  O9  1  0.17954600  0.93866600  0.26868300  1
loop_
_geom_bond_atom_site_label_1
_geom_bond_atom_site_label_2
_geom_bond_distance
_geom_bond_site_symmetry_2
Li0 O3 1.960318 1_556
Li0 O2 1.961145 1_555
Li0 O8 2.014247 1_545
Li0 O4 2.489238 1_556
Li0 O6 2.514503 1_545
Li1 O5 1.916589 1_655
Li1 O0 1.962915 1_555
Li1 O6 2.164801 1_555
Li1 O2 2.302760 1_555
Li1 O4 2.469823 1_556
Li2 O4 1.916589 1_455
Li2 O9 1.962915 1_555
Li2 O3 2.164801 1_555
Li2 O7 2.302760 1_555
Li2 O5 2.469823 1_554
Li3 O6 1.960318 1_554
Li3 O7 1.961145 1_555
Li3 O1 2.014247 1_565
Li3 O5 2.489238 1_554
Li3 O3 2.514503 1_565
Fe0 O8 2.099745 1_545
Fe0 O1 2.099745 1_455
Fe0 O9 2.233876 1_545
Fe0 O0 2.233876 1_455
Fe0 O2 2.243619 1_555
Fe0 O7 2.243619 1_445
Fe1 O9 2.104489 1_545
Fe1 O0 2.104489 1_454
Fe1 O4 2.155773 1_455
Fe1 O5 2.155773 1_544
Fe1 O6 2.256553 1_444
Fe1 O3 2.256553 1_555
H0 O9 0.981575 1_545
H1 O0 0.981575 1_565
O1 P0 1.555479 1_555
O2 P1 1.549552 1_555
O3 P0 1.569218 1_555
O4 P0 1.556634 1_555
O5 P1 1.556634 1_555
O6 P1 1.569218 1_555
O7 P0 1.549552 1_555
O8 P1 1.555479 1_555
