# generated using pymatgen
data_MnV4CrO12
_symmetry_space_group_name_H-M   'P 1'
_cell_length_a   6.83177051
_cell_length_b   6.83177051
_cell_length_c   5.90292054
_cell_angle_alpha   74.87499694
_cell_angle_beta   74.87499694
_cell_angle_gamma   84.50789215
_symmetry_Int_Tables_number   1
_chemical_formula_structural   MnV4CrO12
_chemical_formula_sum   'Mn1 V4 Cr1 O12'
_cell_volume   256.63751042
_cell_formula_units_Z   1
loop_
 _symmetry_equiv_pos_site_id
 _symmetry_equiv_pos_as_xyz
  1  'x, y, z'
loop_
 _atom_site_type_symbol
 _atom_site_label
 _atom_site_symmetry_multiplicity
 _atom_site_fract_x
 _atom_site_fract_y
 _atom_site_fract_z
 _atom_site_occupancy
  Mn  Mn0  1  0.08480200  0.91519800  0.50000000  1
  V  V0  1  0.79192700  0.60708200  0.01551300  1
  V  V1  1  0.61030200  0.79348500  0.50978700  1
  V  V2  1  0.39291800  0.20807300  0.98448700  1
  V  V3  1  0.20651500  0.38969800  0.49021300  1
  Cr  Cr0  1  0.91650600  0.08349400  0.00000000  1
  O  O0  1  0.96080700  0.80503100  0.90805300  1
  O  O1  1  0.90707000  0.37371600  0.03915900  1
  O  O2  1  0.80516800  0.96603300  0.37683600  1
  O  O3  1  0.63882600  0.64590900  0.80401600  1
  O  O4  1  0.62628400  0.09293000  0.96084100  1
  O  O5  1  0.64069100  0.63157700  0.30278900  1
  O  O6  1  0.35409100  0.36117400  0.19598400  1
  O  O7  1  0.38300300  0.91626900  0.53459400  1
  O  O8  1  0.36842300  0.35930900  0.69721100  1
  O  O9  1  0.19496900  0.03919300  0.09194700  1
  O  O10  1  0.08373100  0.61699700  0.46540600  1
  O  O11  1  0.03396700  0.19483200  0.62316400  1
loop_
_geom_bond_atom_site_label_1
_geom_bond_atom_site_label_2
_geom_bond_distance
_geom_bond_site_symmetry_2
Mn0 O10 2.100675 1_555
Mn0 O7 2.100675 1_555
Mn0 O11 2.182850 1_565
Mn0 O2 2.182850 1_455
Mn0 O9 2.279713 1_565
Mn0 O0 2.279713 1_455
Cr0 O4 2.048349 1_554
Cr0 O1 2.048349 1_555
Cr0 O0 2.085231 1_544
Cr0 O9 2.085231 1_655
Cr0 O2 2.114940 1_545
Cr0 O11 2.114940 1_654
O0 V0 1.741098 1_556
O1 V0 1.697404 1_555
O2 V1 1.746481 1_555
O3 V0 1.782841 1_556
O3 V1 1.815539 1_555
O4 V2 1.697404 1_555
O5 V0 1.780960 1_555
O5 V1 1.813448 1_555
O6 V2 1.782841 1_554
O6 V3 1.815539 1_555
O7 V1 1.683015 1_555
O8 V2 1.780960 1_555
O8 V3 1.813448 1_555
O9 V2 1.741098 1_554
O10 V3 1.683015 1_555
O11 V3 1.746481 1_555
