# generated using pymatgen
data_V3Cr2Ni(PO4)6
_symmetry_space_group_name_H-M   'P 1'
_cell_length_a   8.46129023
_cell_length_b   8.46129023
_cell_length_c   8.46129031
_cell_angle_alpha   61.12618370
_cell_angle_beta   61.12618370
_cell_angle_gamma   61.12618697
_symmetry_Int_Tables_number   1
_chemical_formula_structural   V3Cr2Ni(PO4)6
_chemical_formula_sum   'V3 Cr2 Ni1 P6 O24'
_cell_volume   439.20267636
_cell_formula_units_Z   1
loop_
 _symmetry_equiv_pos_site_id
 _symmetry_equiv_pos_as_xyz
  1  'x, y, z'
loop_
 _atom_site_type_symbol
 _atom_site_label
 _atom_site_symmetry_multiplicity
 _atom_site_fract_x
 _atom_site_fract_y
 _atom_site_fract_z
 _atom_site_occupancy
  V  V0  1  0.35498900  0.35498900  0.35498900  1
  V  V1  1  0.14295600  0.14295600  0.14295600  1
  V  V2  1  0.64396500  0.64396500  0.64396500  1
  Cr  Cr0  1  0.99858500  0.99858500  0.99858500  1
  Cr  Cr1  1  0.49889200  0.49889200  0.49889200  1
  Ni  Ni0  1  0.85621700  0.85621700  0.85621700  1
  P  P0  1  0.45450800  0.75199900  0.04426900  1
  P  P1  1  0.75199900  0.04426900  0.45450800  1
  P  P2  1  0.04426900  0.45450800  0.75199900  1
  P  P3  1  0.95582200  0.54555700  0.24972300  1
  P  P4  1  0.24972300  0.95582200  0.54555700  1
  P  P5  1  0.54555700  0.24972300  0.95582200  1
  O  O0  1  0.68342000  0.88626900  0.49593100  1
  O  O1  1  0.88626900  0.49593100  0.68342000  1
  O  O2  1  0.49593100  0.68342000  0.88626900  1
  O  O3  1  0.25029900  0.90773000  0.05801100  1
  O  O4  1  0.60429200  0.81762000  0.01545900  1
  O  O5  1  0.43013600  0.58939400  0.24588300  1
  O  O6  1  0.90773000  0.05801100  0.25029900  1
  O  O7  1  0.58939400  0.24588300  0.43013600  1
  O  O8  1  0.99532800  0.38990400  0.18299700  1
  O  O9  1  0.24588300  0.43013600  0.58939400  1
  O  O10  1  0.94861500  0.74504100  0.09540800  1
  O  O11  1  0.18299700  0.99532800  0.38990400  1
  O  O12  1  0.81762000  0.01545900  0.60429200  1
  O  O13  1  0.05801100  0.25029900  0.90773000  1
  O  O14  1  0.75600900  0.56042900  0.41052400  1
  O  O15  1  0.01545900  0.60429200  0.81762000  1
  O  O16  1  0.41052400  0.75600900  0.56042900  1
  O  O17  1  0.09540800  0.94861500  0.74504100  1
  O  O18  1  0.56042900  0.41052400  0.75600900  1
  O  O19  1  0.38990400  0.18299700  0.99532800  1
  O  O20  1  0.74504100  0.09540800  0.94861500  1
  O  O21  1  0.49436700  0.32695700  0.11249600  1
  O  O22  1  0.11249600  0.49436700  0.32695700  1
  O  O23  1  0.32695700  0.11249600  0.49436700  1
loop_
_geom_bond_atom_site_label_1
_geom_bond_atom_site_label_2
_geom_bond_distance
_geom_bond_site_symmetry_2
Cr0 O10 2.072775 1_556
Cr0 O17 2.072775 1_655
Cr0 O20 2.072775 1_565
Cr0 O13 2.111790 1_665
Cr0 O6 2.111790 1_566
Cr0 O3 2.111790 1_656
Cr1 O9 2.167287 1_555
Cr1 O5 2.167287 1_555
Cr1 O7 2.167287 1_555
Cr1 O14 2.170294 1_555
Cr1 O18 2.170294 1_555
Cr1 O16 2.170294 1_555
Ni0 O4 1.984802 1_556
Ni0 O12 1.984802 1_565
Ni0 O15 1.984802 1_655
Ni0 O17 2.138068 1_655
Ni0 O10 2.138068 1_556
Ni0 O20 2.138068 1_565
O0 P1 1.532012 1_565
O0 V2 1.913315 1_555
O1 P2 1.532013 1_655
O1 V2 1.913316 1_555
O2 P0 1.532013 1_556
O2 V2 1.913315 1_555
O3 P0 1.578116 1_555
O3 V1 2.075607 1_565
O4 P0 1.491457 1_555
O5 P0 1.585297 1_555
O5 V0 2.018172 1_555
O6 P1 1.578116 1_555
O6 V1 2.075607 1_655
O7 P1 1.585297 1_555
O7 V0 2.018172 1_555
O8 P3 1.508554 1_555
O8 V1 1.948174 1_655
O9 P2 1.585297 1_555
O9 V0 2.018172 1_555
O10 P3 1.551327 1_555
O11 P4 1.508554 1_555
O11 V1 1.948174 1_565
O12 P1 1.491457 1_555
O13 P2 1.578116 1_555
O13 V1 2.075607 1_556
O14 P3 1.569630 1_555
O14 V2 2.047570 1_555
O15 P2 1.491457 1_555
O16 P4 1.569630 1_555
O16 V2 2.047570 1_555
O17 P4 1.551327 1_555
O18 P5 1.569630 1_555
O18 V2 2.047570 1_555
O19 P5 1.508554 1_555
O19 V1 1.948174 1_556
O20 P5 1.551327 1_555
O21 P5 1.542990 1_554
O21 V0 1.876144 1_555
O22 P3 1.542990 1_455
O22 V0 1.876144 1_555
O23 P4 1.542990 1_545
O23 V0 1.876144 1_555
