# generated using pymatgen
data_Li3(NiO2)5
_symmetry_space_group_name_H-M   'P 1'
_cell_length_a   5.00237507
_cell_length_b   5.04132216
_cell_length_c   7.54109162
_cell_angle_alpha   110.77835360
_cell_angle_beta   101.55870006
_cell_angle_gamma   100.28197625
_symmetry_Int_Tables_number   1
_chemical_formula_structural   Li3(NiO2)5
_chemical_formula_sum   'Li3 Ni5 O10'
_cell_volume   167.61001771
_cell_formula_units_Z   1
loop_
 _symmetry_equiv_pos_site_id
 _symmetry_equiv_pos_as_xyz
  1  'x, y, z'
loop_
 _atom_site_type_symbol
 _atom_site_label
 _atom_site_symmetry_multiplicity
 _atom_site_fract_x
 _atom_site_fract_y
 _atom_site_fract_z
 _atom_site_occupancy
  Li  Li0  1  0.22213200  0.91963600  0.41847800  1
  Li  Li1  1  0.50000000  0.50000000  0.50000000  1
  Li  Li2  1  0.77786800  0.08036400  0.58152200  1
  Ni  Ni0  1  0.10622100  0.70046500  0.69813800  1
  Ni  Ni1  1  0.00000100  0.50000000  0.00000100  1
  Ni  Ni2  1  0.30240100  0.11346000  0.10014400  1
  Ni  Ni3  1  0.69759900  0.88654000  0.89985600  1
  Ni  Ni4  1  0.89377900  0.29953500  0.30186200  1
  O  O0  1  0.05208300  0.07622800  0.85536700  1
  O  O1  1  0.11239800  0.31960400  0.53859700  1
  O  O2  1  0.32445100  0.72995000  0.94474700  1
  O  O3  1  0.21493600  0.46961300  0.23986900  1
  O  O4  1  0.45048800  0.87030900  0.66638000  1
  O  O5  1  0.54951100  0.12969100  0.33362000  1
  O  O6  1  0.78506400  0.53038700  0.76013100  1
  O  O7  1  0.67554900  0.27005100  0.05525300  1
  O  O8  1  0.88760200  0.68039500  0.46140300  1
  O  O9  1  0.94791600  0.92377200  0.14463200  1
loop_
_geom_bond_atom_site_label_1
_geom_bond_atom_site_label_2
_geom_bond_distance
_geom_bond_site_symmetry_2
Li0 O8 2.033082 1_455
Li0 O4 2.106428 1_555
Li0 O1 2.118036 1_565
Li0 O5 2.120032 1_565
Li0 O3 2.178497 1_555
Li0 O9 2.247724 1_455
Li1 O5 1.936079 1_555
Li1 O4 1.936081 1_555
Li1 O8 2.110858 1_555
Li1 O1 2.110859 1_555
Li1 O3 2.119641 1_555
Li1 O6 2.119641 1_555
Li2 O1 2.033080 1_655
Li2 O5 2.106430 1_555
Li2 O8 2.118040 1_545
Li2 O4 2.120035 1_545
Li2 O6 2.178497 1_555
Li2 O0 2.247715 1_655
Ni0 O8 1.855601 1_455
Ni0 O1 1.879387 1_555
Ni0 O4 1.881670 1_555
Ni0 O2 1.898601 1_555
Ni0 O6 1.904823 1_455
Ni0 O0 1.945744 1_565
Ni1 O3 1.981792 1_555
Ni1 O6 1.981809 1_454
Ni1 O7 2.023296 1_455
Ni1 O2 2.023300 1_554
Ni1 O0 2.116815 1_554
Ni1 O9 2.116817 1_455
Ni2 O5 1.903721 1_555
Ni2 O2 1.908892 1_544
Ni2 O3 1.910061 1_555
Ni2 O0 1.937651 1_554
Ni2 O9 2.008027 1_445
Ni2 O7 2.034426 1_555
Ni3 O4 1.903724 1_555
Ni3 O7 1.908897 1_566
Ni3 O6 1.910061 1_555
Ni3 O9 1.937643 1_556
Ni3 O0 2.008027 1_665
Ni3 O2 2.034424 1_555
Ni4 O1 1.855603 1_655
Ni4 O8 1.879383 1_555
Ni4 O5 1.881674 1_555
Ni4 O7 1.898602 1_555
Ni4 O3 1.904823 1_655
Ni4 O9 1.945744 1_545
