# generated using pymatgen
data_Na2CdO2
_symmetry_space_group_name_H-M   'P 1'
_cell_length_a   9.25082128
_cell_length_b   9.25082131
_cell_length_c   10.69969012
_cell_angle_alpha   54.74656288
_cell_angle_beta   54.74655328
_cell_angle_gamma   70.10916136
_symmetry_Int_Tables_number   1
_chemical_formula_structural   Na2CdO2
_chemical_formula_sum   'Na16 Cd8 O16'
_cell_volume   610.56710711
_cell_formula_units_Z   8
loop_
 _symmetry_equiv_pos_site_id
 _symmetry_equiv_pos_as_xyz
  1  'x, y, z'
loop_
 _atom_site_type_symbol
 _atom_site_label
 _atom_site_symmetry_multiplicity
 _atom_site_fract_x
 _atom_site_fract_y
 _atom_site_fract_z
 _atom_site_occupancy
  Na  Na0  1  0.03805740  0.24015300  0.47320348  1
  Na  Na1  1  0.45608051  0.26987671  0.25577446  1
  Na  Na2  1  0.02758410  0.78067303  0.69904442  1
  Na  Na3  1  0.72797253  0.45773050  0.52053272  1
  Na  Na4  1  0.21932669  0.97241554  0.30095595  1
  Na  Na5  1  0.54226960  0.27202744  0.47946724  1
  Na  Na6  1  0.75984697  0.96194251  0.52679650  1
  Na  Na7  1  0.73012316  0.54391941  0.74422558  1
  Na  Na8  1  0.51257809  0.21776262  0.98258721  1
  Na  Na9  1  0.22494449  0.50988762  0.47412999  1
  Na  Na10  1  0.28678264  0.99269382  0.70321524  1
  Na  Na11  1  0.98363144  0.27079833  0.22291471  1
  Na  Na12  1  0.00730657  0.71321738  0.29678438  1
  Na  Na13  1  0.72920169  0.01636836  0.77708530  1
  Na  Na14  1  0.49011215  0.77505544  0.52587022  1
  Na  Na15  1  0.78223753  0.48742166  0.01741289  1
  Cd  Cd0  1  0.23160157  0.04498433  0.98520385  1
  Cd  Cd1  1  0.26764450  0.46524957  0.74951011  1
  Cd  Cd2  1  0.76806203  0.03842779  0.21375362  1
  Cd  Cd3  1  0.47866436  0.72298503  0.00036705  1
  Cd  Cd4  1  0.27701459  0.52133571  0.99963317  1
  Cd  Cd5  1  0.96157227  0.23193806  0.78624628  1
  Cd  Cd6  1  0.53475030  0.73235505  0.25049013  1
  Cd  Cd7  1  0.95501600  0.76839924  0.01479572  1
  O  O0  1  0.96231959  0.45894699  0.54496149  1
  O  O1  1  0.00205996  0.99864363  0.75923478  1
  O  O2  1  0.72790694  0.27209272  0.00000015  1
  O  O3  1  0.78270694  0.21729282  0.49999998  1
  O  O4  1  0.25372653  0.25571175  0.20972922  1
  O  O5  1  0.24125052  0.24762289  0.73308642  1
  O  O6  1  0.54105314  0.03768043  0.45503842  1
  O  O7  1  0.00135636  0.99794018  0.24076497  1
  O  O8  1  0.45646363  0.95382649  0.04149905  1
  O  O9  1  0.50064825  0.51308080  0.24214046  1
  O  O10  1  0.48691903  0.49935171  0.75785970  1
  O  O11  1  0.75237726  0.75874937  0.26691338  1
  O  O12  1  0.74428836  0.74627339  0.79027080  1
  O  O13  1  0.28782381  0.71217608  0.49999998  1
  O  O14  1  0.22054836  0.77945179  -0.00000009  1
  O  O15  1  0.04617313  0.54353682  0.95850105  1
loop_
_geom_bond_atom_site_label_1
_geom_bond_atom_site_label_2
_geom_bond_distance
_geom_bond_site_symmetry_2
Na0 O4 2.276560 1_555
Na0 O3 2.279256 1_455
Na0 O0 2.320572 1_455
Na0 O1 2.430081 1_545
Na1 O4 2.251694 1_555
Na1 O6 2.297072 1_555
Na1 O9 2.331503 1_555
Na1 O2 2.416477 1_555
Na2 O12 2.275544 1_455
Na2 O13 2.309553 1_555
Na2 O1 2.352867 1_555
Na2 O15 2.410995 1_555
Na3 O3 2.218389 1_555
Na3 O0 2.332890 1_555
Na3 O10 2.361506 1_555
Na3 O11 2.483252 1_555
Na4 O4 2.275548 1_565
Na4 O13 2.309551 1_555
Na4 O7 2.352868 1_555
Na4 O8 2.410998 1_555
Na5 O3 2.218386 1_555
Na5 O6 2.332890 1_555
Na5 O9 2.361505 1_555
Na5 O5 2.483252 1_555
Na6 O12 2.276561 1_555
Na6 O3 2.279254 1_565
Na6 O6 2.320571 1_565
Na6 O7 2.430082 1_655
Na7 O12 2.251695 1_555
Na7 O0 2.297072 1_555
Na7 O10 2.331502 1_555
Na7 O2 2.416479 1_556
Na8 O8 2.310064 1_546
Na8 O4 2.336368 1_556
Na8 O2 2.339451 1_556
Na8 O10 2.373016 1_555
Na9 O0 2.222641 1_455
Na9 O9 2.307726 1_555
Na9 O13 2.332680 1_555
Na9 O5 2.461586 1_555
Na10 O6 2.222003 1_565
Na10 O1 2.327396 1_555
Na10 O14 2.386568 1_556
Na10 O5 2.424859 1_565
Na11 O3 2.249464 1_555
Na11 O15 2.359709 1_654
Na11 O7 2.373342 1_645
Na11 O4 2.379266 1_655
Na12 O0 2.222004 1_455
Na12 O7 2.327397 1_555
Na12 O14 2.386566 1_555
Na12 O11 2.424860 1_455
Na13 O3 2.249465 1_555
Na13 O8 2.359707 1_546
Na13 O1 2.373342 1_645
Na13 O12 2.379265 1_545
Na14 O6 2.222642 1_565
Na14 O10 2.307726 1_555
Na14 O13 2.332681 1_555
Na14 O11 2.461589 1_555
Na15 O15 2.310062 1_654
Na15 O12 2.336370 1_554
Na15 O2 2.339453 1_555
Na15 O9 2.373017 1_555
Cd0 O7 2.176421 1_546
Cd0 O5 2.190273 1_555
Cd0 O8 2.251091 1_546
Cd0 O14 2.402643 1_546
Cd1 O10 2.213452 1_555
Cd1 O5 2.221710 1_555
Cd1 O13 2.248337 1_555
Cd1 O15 2.300761 1_555
Cd2 O2 2.183716 1_555
Cd2 O6 2.192224 1_555
Cd2 O7 2.219578 1_645
Cd2 O11 2.345172 1_545
Cd3 O12 2.135965 1_554
Cd3 O9 2.245845 1_555
Cd3 O14 2.265861 1_555
Cd3 O8 2.340568 1_555
Cd4 O4 2.135965 1_556
Cd4 O10 2.245846 1_555
Cd4 O14 2.265860 1_556
Cd4 O15 2.340568 1_555
Cd5 O2 2.183717 1_556
Cd5 O0 2.192225 1_555
Cd5 O1 2.219580 1_645
Cd5 O5 2.345170 1_655
Cd6 O9 2.213449 1_555
Cd6 O11 2.221710 1_555
Cd6 O13 2.248336 1_555
Cd6 O8 2.300759 1_555
Cd7 O1 2.176418 1_654
Cd7 O11 2.190272 1_555
Cd7 O15 2.251091 1_654
Cd7 O14 2.402641 1_655
