# generated using pymatgen
data_Li2NiP2O7
_symmetry_space_group_name_H-M   'P 1'
_cell_length_a   7.03024523
_cell_length_b   12.51570104
_cell_length_c   8.10956928
_cell_angle_alpha   92.00996589
_cell_angle_beta   64.38837562
_cell_angle_gamma   106.47643970
_symmetry_Int_Tables_number   1
_chemical_formula_structural   Li2NiP2O7
_chemical_formula_sum   'Li8 Ni4 P8 O28'
_cell_volume   613.84772177
_cell_formula_units_Z   4
loop_
 _symmetry_equiv_pos_site_id
 _symmetry_equiv_pos_as_xyz
  1  'x, y, z'
loop_
 _atom_site_type_symbol
 _atom_site_label
 _atom_site_symmetry_multiplicity
 _atom_site_fract_x
 _atom_site_fract_y
 _atom_site_fract_z
 _atom_site_occupancy
  Li  Li0  1  0.38513000  0.61513400  0.84441200  1
  Li  Li1  1  0.88500800  0.11494000  0.34453400  1
  Li  Li2  1  0.11574300  0.38556300  0.15460900  1
  Li  Li3  1  0.61565100  0.88527700  0.65450300  1
  Li  Li4  1  0.88433300  0.61462700  0.84546500  1
  Li  Li5  1  0.38455600  0.11482500  0.34529500  1
  Li  Li6  1  0.11510600  0.88512700  0.65531500  1
  Li  Li7  1  0.61492300  0.38490800  0.15524200  1
  Ni  Ni0  1  0.50013900  0.49979400  0.49999400  1
  Ni  Ni1  1  0.50005000  0.00013200  0.99998400  1
  Ni  Ni2  1  0.99984800  0.99985000  0.00010700  1
  Ni  Ni3  1  0.99994000  0.50000900  0.50029300  1
  P  P0  1  0.14582700  0.28617700  0.49446900  1
  P  P1  1  0.64590100  0.78608800  0.99420700  1
  P  P2  1  0.96573800  0.60451500  0.17483800  1
  P  P3  1  0.46546400  0.10454600  0.67485700  1
  P  P4  1  0.03437300  0.39553200  0.82533000  1
  P  P5  1  0.53455800  0.89538700  0.32502500  1
  P  P6  1  0.85412100  0.71385900  0.50556500  1
  P  P7  1  0.35387500  0.21380300  0.00563200  1
  O  O0  1  0.03197200  0.28305400  0.71769700  1
  O  O1  1  0.53265400  0.78285600  0.21741500  1
  O  O2  1  0.96799700  0.71701900  0.28231800  1
  O  O3  1  0.46780000  0.21701600  0.78236200  1
  O  O4  1  0.08586300  0.64101900  0.97103100  1
  O  O5  1  0.58607700  0.14105900  0.47103700  1
  O  O6  1  0.10943600  0.16689000  0.44583000  1
  O  O7  1  0.60972000  0.66679400  0.94562300  1
  O  O8  1  0.91423800  0.35895800  0.02911800  1
  O  O9  1  0.41383600  0.85894100  0.52888400  1
  O  O10  1  0.89056700  0.83316500  0.55418000  1
  O  O11  1  0.38932700  0.33304800  0.05426600  1
  O  O12  1  0.28099000  0.46255000  0.76145700  1
  O  O13  1  0.78086100  0.96249500  0.26193400  1
  O  O14  1  0.10589700  0.14843300  0.07299000  1
  O  O15  1  0.60616800  0.64880900  0.57285000  1
  O  O16  1  0.03397800  0.35265200  0.42545100  1
  O  O17  1  0.53338000  0.85211800  0.92547900  1
  O  O18  1  0.08201100  0.53849400  0.23905800  1
  O  O19  1  0.58147500  0.03841300  0.73945500  1
  O  O20  1  0.91787800  0.46163300  0.76153500  1
  O  O21  1  0.41862100  0.96158700  0.26045200  1
  O  O22  1  0.96624900  0.64756200  0.57459400  1
  O  O23  1  0.46658300  0.14796500  0.07451600  1
  O  O24  1  0.71913700  0.53735500  0.23858400  1
  O  O25  1  0.21911400  0.03749200  0.73820800  1
  O  O26  1  0.89400200  0.85139500  0.92692600  1
  O  O27  1  0.39388500  0.35113700  0.42707400  1
loop_
_geom_bond_atom_site_label_1
_geom_bond_atom_site_label_2
_geom_bond_distance
_geom_bond_site_symmetry_2
Li0 O4 2.020247 1_555
Li0 O7 2.022078 1_555
Li0 O15 2.043843 1_555
Li0 O12 2.044045 1_555
Li1 O5 2.019433 1_555
Li1 O6 2.021906 1_655
Li1 O13 2.041330 1_545
Li1 O14 2.043422 1_655
Li2 O8 2.026924 1_455
Li2 O11 2.029766 1_555
Li2 O16 2.040084 1_555
Li2 O18 2.052781 1_555
Li3 O9 2.029824 1_555
Li3 O10 2.034977 1_555
Li3 O17 2.040772 1_555
Li3 O19 2.056989 1_565
Li4 O4 2.027701 1_655
Li4 O7 2.033555 1_555
Li4 O22 2.040103 1_555
Li4 O20 2.052170 1_555
Li5 O5 2.028892 1_555
Li5 O6 2.035846 1_555
Li5 O23 2.039609 1_555
Li5 O21 2.057799 1_545
Li6 O9 2.018546 1_555
Li6 O10 2.021638 1_455
Li6 O25 2.041349 1_565
Li6 O26 2.044274 1_455
Li7 O8 2.020689 1_555
Li7 O11 2.027019 1_555
Li7 O24 2.044179 1_555
Li7 O27 2.045534 1_555
Ni0 O27 1.971213 1_555
Ni0 O15 1.974314 1_555
Ni0 O24 1.980680 1_555
Ni0 O12 1.981051 1_555
Ni1 O23 1.972205 1_556
Ni1 O19 1.972536 1_555
Ni1 O21 1.972715 1_546
Ni1 O17 1.974090 1_545
Ni2 O26 1.969348 1_554
Ni2 O14 1.969972 1_665
Ni2 O13 1.983035 1_555
Ni2 O25 1.984147 1_664
Ni3 O16 1.968056 1_655
Ni3 O22 1.968820 1_555
Ni3 O20 1.977208 1_555
Ni3 O18 1.977409 1_655
O0 P0 1.629060 1_555
O0 P4 1.630020 1_555
O1 P1 1.628799 1_554
O1 P5 1.630499 1_555
O2 P6 1.629164 1_555
O2 P2 1.629666 1_555
O3 P7 1.629283 1_556
O3 P3 1.629408 1_555
O4 P2 1.510306 1_456
O5 P3 1.510423 1_555
O6 P0 1.509716 1_555
O7 P1 1.509662 1_555
O8 P4 1.510333 1_654
O9 P5 1.510546 1_555
O10 P6 1.509880 1_555
O11 P7 1.509215 1_555
O12 P4 1.551448 1_555
O13 P5 1.550740 1_555
O14 P7 1.551128 1_555
O15 P6 1.550171 1_555
O16 P0 1.551781 1_555
O17 P1 1.550376 1_555
O18 P2 1.550341 1_455
O19 P3 1.551585 1_555
O20 P4 1.550317 1_655
O21 P5 1.551621 1_555
O22 P6 1.551892 1_555
O23 P7 1.550551 1_555
O24 P2 1.551909 1_555
O25 P3 1.550571 1_555
O26 P1 1.551737 1_555
O27 P0 1.550430 1_555
