# generated using pymatgen
data_NaPrPCO7
_symmetry_space_group_name_H-M   'P 1'
_cell_length_a   7.20851200
_cell_length_b   5.36373700
_cell_length_c   9.79634183
_cell_angle_alpha   89.23822645
_cell_angle_beta   90.00000000
_cell_angle_gamma   90.00000000
_symmetry_Int_Tables_number   1
_chemical_formula_structural   NaPrPCO7
_chemical_formula_sum   'Na2 Pr2 P2 C2 O14'
_cell_volume   378.73779431
_cell_formula_units_Z   2
loop_
 _symmetry_equiv_pos_site_id
 _symmetry_equiv_pos_as_xyz
  1  'x, y, z'
loop_
 _atom_site_type_symbol
 _atom_site_label
 _atom_site_symmetry_multiplicity
 _atom_site_fract_x
 _atom_site_fract_y
 _atom_site_fract_z
 _atom_site_occupancy
  Na  Na0  1  0.53329100  0.76956900  0.77146400  1
  Na  Na1  1  0.03329100  0.23043100  0.22853600  1
  Pr  Pr0  1  0.22222600  0.21973600  0.62824600  1
  Pr  Pr1  1  0.72222600  0.78026400  0.37175400  1
  P  P0  1  0.73007100  0.28315700  0.58381800  1
  P  P1  1  0.23007100  0.71684300  0.41618200  1
  C  C0  1  0.27644800  0.27684600  0.93054200  1
  C  C1  1  0.77644800  0.72315400  0.06945800  1
  O  O0  1  0.74252100  0.69100700  0.94413600  1
  O  O1  1  0.28476000  0.05433800  0.88212300  1
  O  O2  1  0.29714600  0.46114900  0.84567800  1
  O  O3  1  0.90688700  0.21246700  0.66325400  1
  O  O4  1  0.55632700  0.15697100  0.64588000  1
  O  O5  1  0.25082600  0.79493500  0.56992000  1
  O  O6  1  0.70164700  0.57170000  0.58004000  1
  O  O7  1  0.20164700  0.42830000  0.41996000  1
  O  O8  1  0.75082600  0.20506500  0.43008000  1
  O  O9  1  0.05632700  0.84302900  0.35412000  1
  O  O10  1  0.40688700  0.78753300  0.33674600  1
  O  O11  1  0.79714600  0.53885100  0.15432200  1
  O  O12  1  0.78476000  0.94566200  0.11787700  1
  O  O13  1  0.24252100  0.30899300  0.05586400  1
loop_
_geom_bond_atom_site_label_1
_geom_bond_atom_site_label_2
_geom_bond_distance
_geom_bond_site_symmetry_2
Na0 O0 2.301032 1_555
Na0 O4 2.406431 1_565
Na0 O2 2.476067 1_555
Na0 O6 2.483689 1_555
Na0 O1 2.600354 1_565
Na0 O5 2.838224 1_555
Na1 O13 2.301032 1_555
Na1 O9 2.406431 1_545
Na1 O11 2.476067 1_455
Na1 O7 2.483689 1_555
Na1 O12 2.600354 1_445
Na1 O8 2.838224 1_455
C0 O13 1.265864 1_556
C0 O1 1.291515 1_555
C0 O2 1.291820 1_555
C1 O0 1.265864 1_554
C1 O12 1.291515 1_555
C1 O11 1.291820 1_555
O1 Pr0 2.667783 1_555
O2 Pr0 2.564912 1_555
O3 P0 1.538194 1_555
O3 Pr0 2.299103 1_655
O4 P0 1.544471 1_555
O4 Pr0 2.437598 1_555
O5 P1 1.575707 1_555
O5 Pr0 2.365429 1_565
O6 P0 1.561124 1_555
O6 Pr1 2.318655 1_555
O7 P1 1.561124 1_555
O7 Pr0 2.318655 1_555
O8 P0 1.575707 1_555
O8 Pr1 2.365429 1_545
O9 P1 1.544471 1_555
O9 Pr1 2.437598 1_455
O10 P1 1.538194 1_555
O10 Pr1 2.299103 1_555
O11 Pr1 2.564912 1_555
O12 Pr1 2.667783 1_555
