# generated using pymatgen
data_Mg(IO3)2
_symmetry_space_group_name_H-M   'P 1'
_cell_length_a   5.39032400
_cell_length_b   5.70446000
_cell_length_c   17.26379000
_cell_angle_alpha   90.00000000
_cell_angle_beta   90.00000000
_cell_angle_gamma   90.00000000
_symmetry_Int_Tables_number   1
_chemical_formula_structural   Mg(IO3)2
_chemical_formula_sum   'Mg4 I8 O24'
_cell_volume   530.84233904
_cell_formula_units_Z   4
loop_
 _symmetry_equiv_pos_site_id
 _symmetry_equiv_pos_as_xyz
  1  'x, y, z'
loop_
 _atom_site_type_symbol
 _atom_site_label
 _atom_site_symmetry_multiplicity
 _atom_site_fract_x
 _atom_site_fract_y
 _atom_site_fract_z
 _atom_site_occupancy
  Mg  Mg0  1  0.71306000  0.16804600  0.09467500  1
  Mg  Mg1  1  0.21306000  0.33195400  0.90532500  1
  Mg  Mg2  1  0.28694000  0.66804600  0.40532500  1
  Mg  Mg3  1  0.78694000  0.83195400  0.59467500  1
  I  I0  1  0.96830900  0.13691100  0.42472300  1
  I  I1  1  0.25340000  0.22075800  0.20650200  1
  I  I2  1  0.75340000  0.27924200  0.79349800  1
  I  I3  1  0.46830900  0.36308900  0.57527700  1
  I  I4  1  0.03169100  0.63691100  0.07527700  1
  I  I5  1  0.74660000  0.72075800  0.29349800  1
  I  I6  1  0.24660000  0.77924200  0.70650200  1
  I  I7  1  0.53169100  0.86308900  0.92472300  1
  O  O0  1  0.11007500  0.99574900  0.33652800  1
  O  O1  1  0.03050000  0.02333900  0.15749500  1
  O  O2  1  0.52546000  0.02623400  0.20144200  1
  O  O3  1  0.43372000  0.11742300  0.98358200  1
  O  O4  1  0.88044900  0.12112200  0.87915700  1
  O  O5  1  0.73547600  0.17018500  0.54685000  1
  O  O6  1  0.23547600  0.32981500  0.45315000  1
  O  O7  1  0.38044900  0.37887800  0.12084300  1
  O  O8  1  0.93372000  0.38257700  0.01641800  1
  O  O9  1  0.02546000  0.47376600  0.79855800  1
  O  O10  1  0.53050000  0.47666100  0.84250500  1
  O  O11  1  0.61007500  0.50425100  0.66347200  1
  O  O12  1  0.88992500  0.49574900  0.16347200  1
  O  O13  1  0.96950000  0.52333900  0.34250500  1
  O  O14  1  0.47454000  0.52623400  0.29855800  1
  O  O15  1  0.56628000  0.61742300  0.51641800  1
  O  O16  1  0.11955100  0.62112200  0.62084300  1
  O  O17  1  0.26452400  0.67018500  0.95315000  1
  O  O18  1  0.76452400  0.82981500  0.04685000  1
  O  O19  1  0.61955100  0.87887800  0.37915700  1
  O  O20  1  0.06628000  0.88257700  0.48358200  1
  O  O21  1  0.97454000  0.97376600  0.70144200  1
  O  O22  1  0.46950000  0.97666100  0.65749500  1
  O  O23  1  0.38992500  0.00425100  0.83652800  1
loop_
_geom_bond_atom_site_label_1
_geom_bond_atom_site_label_2
_geom_bond_distance
_geom_bond_site_symmetry_2
Mg0 O18 2.116913 1_545
Mg0 O8 2.176608 1_555
Mg0 O1 2.187568 1_655
Mg0 O7 2.205664 1_555
Mg0 O2 2.252641 1_555
Mg0 O12 2.411236 1_555
Mg0 O3 2.455384 1_554
Mg1 O17 2.116913 1_555
Mg1 O3 2.176608 1_555
Mg1 O10 2.187568 1_555
Mg1 O4 2.205664 1_455
Mg1 O9 2.252641 1_555
Mg1 O23 2.411236 1_555
Mg1 O8 2.455384 1_456
Mg2 O6 2.116913 1_555
Mg2 O20 2.176608 1_555
Mg2 O13 2.187568 1_455
Mg2 O19 2.205664 1_555
Mg2 O14 2.252641 1_555
Mg2 O0 2.411236 1_555
Mg2 O15 2.455384 1_555
Mg3 O5 2.116913 1_565
Mg3 O15 2.176608 1_555
Mg3 O22 2.187568 1_555
Mg3 O16 2.205664 1_655
Mg3 O21 2.252641 1_555
Mg3 O11 2.411236 1_555
Mg3 O20 2.455384 1_655
I0 O20 1.848333 1_645
I0 O6 1.877682 1_655
I0 O0 1.884311 1_645
I0 O5 2.460978 1_555
I0 O19 2.513862 1_545
I0 O13 2.621820 1_555
I1 O2 1.841076 1_555
I1 O1 1.851394 1_555
I1 O7 1.862641 1_555
I1 O12 2.617487 1_455
I1 O14 2.642564 1_555
I1 O0 2.698748 1_545
I2 O9 1.841076 1_655
I2 O10 1.851394 1_555
I2 O4 1.862641 1_555
I2 O23 2.617487 1_555
I2 O21 2.642564 1_545
I2 O11 2.698748 1_555
I3 O15 1.848333 1_555
I3 O5 1.877682 1_555
I3 O11 1.884311 1_555
I3 O6 2.460978 1_555
I3 O16 2.513862 1_555
I3 O22 2.621820 1_545
I4 O8 1.848333 1_455
I4 O18 1.877682 1_455
I4 O12 1.884311 1_455
I4 O17 2.460978 1_554
I4 O7 2.513862 1_555
I4 O1 2.621820 1_565
I5 O14 1.841076 1_555
I5 O13 1.851394 1_555
I5 O19 1.862641 1_555
I5 O0 2.617487 1_655
I5 O2 2.642564 1_565
I5 O12 2.698748 1_555
I6 O21 1.841076 1_455
I6 O22 1.851394 1_555
I6 O16 1.862641 1_555
I6 O11 2.617487 1_555
I6 O9 2.642564 1_555
I6 O23 2.698748 1_565
I7 O3 1.848333 1_565
I7 O17 1.877682 1_555
I7 O23 1.884311 1_565
I7 O18 2.460978 1_556
I7 O4 2.513862 1_565
I7 O10 2.621820 1_555
