# generated using pymatgen
data_HgH3CSO3
_symmetry_space_group_name_H-M   'P 1'
_cell_length_a   8.61206795
_cell_length_b   8.61206795
_cell_length_c   9.00444601
_cell_angle_alpha   61.22997030
_cell_angle_beta   61.22997030
_cell_angle_gamma   62.45595017
_symmetry_Int_Tables_number   1
_chemical_formula_structural   HgH3CSO3
_chemical_formula_sum   'Hg4 H12 C4 S4 O12'
_cell_volume   489.44337906
_cell_formula_units_Z   4
loop_
 _symmetry_equiv_pos_site_id
 _symmetry_equiv_pos_as_xyz
  1  'x, y, z'
loop_
 _atom_site_type_symbol
 _atom_site_label
 _atom_site_symmetry_multiplicity
 _atom_site_fract_x
 _atom_site_fract_y
 _atom_site_fract_z
 _atom_site_occupancy
  Hg  Hg0  1  0.77217000  0.43582300  0.68444100  1
  Hg  Hg1  1  0.56417700  0.22783000  0.81555900  1
  Hg  Hg2  1  0.22783000  0.56417700  0.31555900  1
  Hg  Hg3  1  0.43582300  0.77217000  0.18444100  1
  H  H0  1  0.14030700  0.76981500  0.64449200  1
  H  H1  1  0.23018500  0.85969300  0.85550800  1
  H  H2  1  0.85969300  0.23018500  0.35550800  1
  H  H3  1  0.76981500  0.14030700  0.14449200  1
  H  H4  1  0.12706900  0.53979500  0.79443000  1
  H  H5  1  0.46020500  0.87293100  0.70557000  1
  H  H6  1  0.87293100  0.46020500  0.20557000  1
  H  H7  1  0.53979500  0.12706900  0.29443000  1
  H  H8  1  0.01116600  0.72825900  0.88317100  1
  H  H9  1  0.27174100  0.98883400  0.61682900  1
  H  H10  1  0.98883400  0.27174100  0.11682900  1
  H  H11  1  0.72825900  0.01116600  0.38317100  1
  C  C0  1  0.05437300  0.68863600  0.76674100  1
  C  C1  1  0.31136400  0.94562700  0.73325900  1
  C  C2  1  0.94562700  0.31136400  0.23325900  1
  C  C3  1  0.68863600  0.05437300  0.26674100  1
  S  S0  1  0.84855700  0.73806700  0.73092100  1
  S  S1  1  0.26193300  0.15144300  0.76907900  1
  S  S2  1  0.15144300  0.26193300  0.26907900  1
  S  S3  1  0.73806700  0.84855700  0.23092100  1
  O  O0  1  0.77604400  0.93971400  0.65524300  1
  O  O1  1  0.06028600  0.22395600  0.84475700  1
  O  O2  1  0.22395600  0.06028600  0.34475700  1
  O  O3  1  0.93971400  0.77604400  0.15524300  1
  O  O4  1  0.72195100  0.64788000  0.89937300  1
  O  O5  1  0.35212000  0.27804900  0.60062700  1
  O  O6  1  0.27804900  0.35212000  0.10062700  1
  O  O7  1  0.64788000  0.72195100  0.39937300  1
  O  O8  1  0.91120800  0.64802200  0.59243300  1
  O  O9  1  0.35197800  0.08879200  0.90756700  1
  O  O10  1  0.08879200  0.35197800  0.40756700  1
  O  O11  1  0.64802200  0.91120800  0.09243300  1
loop_
_geom_bond_atom_site_label_1
_geom_bond_atom_site_label_2
_geom_bond_distance
_geom_bond_site_symmetry_2
Hg0 O8 2.251958 1_555
Hg1 O9 2.251958 1_555
Hg2 O10 2.251958 1_555
Hg3 O11 2.251958 1_555
C0 H4 1.094356 1_555
C0 H0 1.096242 1_555
C0 H8 1.097923 1_555
C1 H5 1.094356 1_555
C1 H1 1.096242 1_555
C1 H9 1.097923 1_555
C2 H6 1.094356 1_555
C2 H2 1.096242 1_555
C2 H10 1.097923 1_555
C3 H7 1.094356 1_555
C3 H3 1.096242 1_555
C3 H11 1.097923 1_555
O0 S0 1.462065 1_555
O1 S1 1.462065 1_555
O2 S2 1.462065 1_555
O3 S3 1.462065 1_555
O4 S0 1.466306 1_555
O5 S1 1.466306 1_555
O6 S2 1.466306 1_555
O7 S3 1.466306 1_555
O8 S0 1.530922 1_555
O9 S1 1.530922 1_555
O10 S2 1.530922 1_555
O11 S3 1.530922 1_555
