# generated using pymatgen
data_Li8FeO5F
_symmetry_space_group_name_H-M   'P 1'
_cell_length_a   5.62291455
_cell_length_b   5.62291455
_cell_length_c   10.97796000
_cell_angle_alpha   90.00000000
_cell_angle_beta   90.00000000
_cell_angle_gamma   120.00000645
_symmetry_Int_Tables_number   1
_chemical_formula_structural   Li8FeO5F
_chemical_formula_sum   'Li16 Fe2 O10 F2'
_cell_volume   300.59047491
_cell_formula_units_Z   2
loop_
 _symmetry_equiv_pos_site_id
 _symmetry_equiv_pos_as_xyz
  1  'x, y, z'
loop_
 _atom_site_type_symbol
 _atom_site_label
 _atom_site_symmetry_multiplicity
 _atom_site_fract_x
 _atom_site_fract_y
 _atom_site_fract_z
 _atom_site_occupancy
  Li  Li0  1  0.97153400  0.68773900  0.77626500  1
  Li  Li1  1  0.01706100  0.62342200  0.12275200  1
  Li  Li2  1  0.98293900  0.37657800  0.62275200  1
  Li  Li3  1  0.02846600  0.31226100  0.27626500  1
  Li  Li4  1  0.33333300  0.66666700  0.41753100  1
  Li  Li5  1  0.33333300  0.66666700  0.92772000  1
  Li  Li6  1  0.31226100  0.28379400  0.77626500  1
  Li  Li7  1  0.37657800  0.39363900  0.12275200  1
  Li  Li8  1  0.62342200  0.60636100  0.62275200  1
  Li  Li9  1  0.28379400  0.97153400  0.27626500  1
  Li  Li10  1  0.68773900  0.71620600  0.27626500  1
  Li  Li11  1  0.39363900  0.01706100  0.62275200  1
  Li  Li12  1  0.66666700  0.33333300  0.91753100  1
  Li  Li13  1  0.66666700  0.33333300  0.42772000  1
  Li  Li14  1  0.60636100  0.98293900  0.12275200  1
  Li  Li15  1  0.71620600  0.02846600  0.77626500  1
  Fe  Fe0  1  0.00000000  0.00000000  0.49506700  1
  Fe  Fe1  1  0.00000000  0.00000000  0.99506700  1
  O  O0  1  0.00174000  0.67731400  0.95008900  1
  O  O1  1  0.99826000  0.32268600  0.45008900  1
  O  O2  1  0.33333300  0.66666700  0.21485400  1
  O  O3  1  0.00000000  0.00000000  0.17547000  1
  O  O4  1  0.00000000  0.00000000  0.67547000  1
  O  O5  1  0.32268600  0.32442600  0.95008900  1
  O  O6  1  0.32442600  0.00174000  0.45008900  1
  O  O7  1  0.67731400  0.67557400  0.45008900  1
  O  O8  1  0.66666700  0.33333300  0.71485400  1
  O  O9  1  0.67557400  0.99826000  0.95008900  1
  F  F0  1  0.33333300  0.66666700  0.70774400  1
  F  F1  1  0.66666700  0.33333300  0.20774400  1
loop_
_geom_bond_atom_site_label_1
_geom_bond_atom_site_label_2
_geom_bond_distance
_geom_bond_site_symmetry_2
Li0 O0 1.919269 1_655
Li0 O8 1.987014 1_555
Li0 O4 2.012925 1_665
Li1 O0 1.928271 1_554
Li1 O2 1.952333 1_555
Li1 O3 2.242974 1_565
Li2 O1 1.928271 1_555
Li2 O8 1.952333 1_555
Li2 O4 2.242974 1_655
Li3 O1 1.919269 1_455
Li3 O2 1.987014 1_555
Li3 O3 2.012925 1_555
Li4 O6 1.942782 1_565
Li4 O1 1.942785 1_455
Li4 O7 1.942788 1_555
Li4 O2 2.224980 1_555
Li5 O0 1.911005 1_555
Li5 O9 1.911008 1_555
Li5 O5 1.911011 1_555
Li6 O5 1.919269 1_555
Li6 O8 1.987014 1_555
Li6 O4 2.012923 1_555
Li7 O5 1.928271 1_554
Li7 O2 1.952337 1_555
Li7 O3 2.242974 1_555
Li8 O7 1.928271 1_555
Li8 O8 1.952337 1_555
Li8 O4 2.242974 1_665
Li9 O6 1.919269 1_565
Li9 O2 1.987014 1_555
Li9 O3 2.012920 1_565
Li10 O7 1.919269 1_555
Li10 O2 1.987014 1_555
Li10 O3 2.012923 1_665
Li11 O6 1.928271 1_555
Li11 O8 1.952334 1_555
Li11 O4 2.242974 1_555
Li12 O9 1.942782 1_545
Li12 O0 1.942785 1_655
Li12 O5 1.942788 1_555
Li12 O8 2.224980 1_555
Li13 O1 1.911005 1_555
Li13 O6 1.911008 1_555
Li13 O7 1.911011 1_555
Li14 O9 1.928271 1_554
Li14 O2 1.952334 1_555
Li14 O3 2.242974 1_665
Li15 O9 1.919269 1_545
Li15 O8 1.987014 1_555
Li15 O4 2.012920 1_655
Fe0 O7 1.885160 1_445
Fe0 O6 1.885161 1_555
Fe0 O1 1.885161 1_455
Fe0 O4 1.980457 1_555
Fe1 O5 1.885160 1_555
Fe1 O9 1.885161 1_445
Fe1 O0 1.885161 1_545
Fe1 O3 1.980457 1_556
F0 Li11 2.049214 1_565
F0 Li2 2.049215 1_455
F0 Li8 2.049219 1_555
F0 Li0 2.227007 1_455
F0 Li15 2.227012 1_565
F0 Li6 2.227017 1_555
F0 Li5 2.414888 1_555
F1 Li14 2.049214 1_545
F1 Li1 2.049215 1_655
F1 Li7 2.049219 1_555
F1 Li3 2.227007 1_655
F1 Li9 2.227012 1_545
F1 Li10 2.227017 1_555
F1 Li13 2.414888 1_555
