# generated using pymatgen
data_Li3B2SbO6
_symmetry_space_group_name_H-M   'P 1'
_cell_length_a   6.49195500
_cell_length_b   8.88321200
_cell_length_c   10.20636468
_cell_angle_alpha   62.86979278
_cell_angle_beta   90.00000000
_cell_angle_gamma   90.00000000
_symmetry_Int_Tables_number   1
_chemical_formula_structural   Li3B2SbO6
_chemical_formula_sum   'Li12 B8 Sb4 O24'
_cell_volume   523.83341933
_cell_formula_units_Z   4
loop_
 _symmetry_equiv_pos_site_id
 _symmetry_equiv_pos_as_xyz
  1  'x, y, z'
loop_
 _atom_site_type_symbol
 _atom_site_label
 _atom_site_symmetry_multiplicity
 _atom_site_fract_x
 _atom_site_fract_y
 _atom_site_fract_z
 _atom_site_occupancy
  Li  Li0  1  0.24413900  0.39222200  0.97942900  1
  Li  Li1  1  0.93756500  0.28950200  0.16980200  1
  Li  Li2  1  0.74413900  0.60777800  0.52057100  1
  Li  Li3  1  0.71976800  0.15642000  0.04654600  1
  Li  Li4  1  0.56243500  0.28950200  0.66980200  1
  Li  Li5  1  0.21976800  0.84358000  0.45345400  1
  Li  Li6  1  0.78023200  0.15642000  0.54654600  1
  Li  Li7  1  0.43756500  0.71049800  0.33019800  1
  Li  Li8  1  0.28023200  0.84358000  0.95345400  1
  Li  Li9  1  0.25586100  0.39222200  0.47942900  1
  Li  Li10  1  0.06243500  0.71049800  0.83019800  1
  Li  Li11  1  0.75586100  0.60777800  0.02057100  1
  B  B0  1  0.33633300  0.53944800  0.67715800  1
  B  B1  1  0.83633300  0.46055200  0.82284200  1
  B  B2  1  0.83065800  0.94943400  0.38944400  1
  B  B3  1  0.33065800  0.05056600  0.11055600  1
  B  B4  1  0.66934200  0.94943400  0.88944400  1
  B  B5  1  0.16934200  0.05056600  0.61055600  1
  B  B6  1  0.16366700  0.53944800  0.17715800  1
  B  B7  1  0.66366700  0.46055200  0.32284200  1
  Sb  Sb0  1  0.46941300  0.19272700  0.29811700  1
  Sb  Sb1  1  0.03058700  0.19272700  0.79811700  1
  Sb  Sb2  1  0.96941300  0.80727300  0.20188300  1
  Sb  Sb3  1  0.53058700  0.80727300  0.70188300  1
  O  O0  1  0.78717400  0.61714300  0.81497200  1
  O  O1  1  0.29445700  0.58433500  0.78879400  1
  O  O2  1  0.43986600  0.65909900  0.55340700  1
  O  O3  1  0.93986600  0.34090100  0.94659300  1
  O  O4  1  0.79445700  0.41566500  0.71120600  1
  O  O5  1  0.72417600  0.99016900  0.48574700  1
  O  O6  1  0.43222000  0.20512700  0.06337900  1
  O  O7  1  0.28717400  0.38285700  0.68502800  1
  O  O8  1  0.83008500  0.06185400  0.24099000  1
  O  O9  1  0.33008500  0.93814600  0.25901000  1
  O  O10  1  0.93222000  0.79487300  0.43662100  1
  O  O11  1  0.22417600  0.00983100  0.01425300  1
  O  O12  1  0.77582400  0.99016900  0.98574700  1
  O  O13  1  0.06778000  0.20512700  0.56337900  1
  O  O14  1  0.66991500  0.06185400  0.74099000  1
  O  O15  1  0.16991500  0.93814600  0.75901000  1
  O  O16  1  0.71282600  0.61714300  0.31497200  1
  O  O17  1  0.56778000  0.79487300  0.93662100  1
  O  O18  1  0.27582400  0.00983100  0.51425300  1
  O  O19  1  0.20554300  0.58433500  0.28879400  1
  O  O20  1  0.06013400  0.65909900  0.05340700  1
  O  O21  1  0.56013400  0.34090100  0.44659300  1
  O  O22  1  0.70554300  0.41566500  0.21120600  1
  O  O23  1  0.21282600  0.38285700  0.18502800  1
loop_
_geom_bond_atom_site_label_1
_geom_bond_atom_site_label_2
_geom_bond_distance
_geom_bond_site_symmetry_2
Li0 O6 1.920550 1_556
Li0 O1 1.943313 1_555
Li0 O23 2.071809 1_556
Li0 O3 2.088401 1_455
Li1 O8 1.940154 1_555
Li1 O23 2.005671 1_655
Li1 O22 2.033575 1_555
Li1 O3 2.109503 1_554
Li2 O10 1.920550 1_555
Li2 O4 1.943313 1_555
Li2 O16 2.071809 1_555
Li2 O2 2.088401 1_555
Li3 O12 1.879994 1_544
Li3 O8 1.906992 1_555
Li3 O6 1.941461 1_555
Li3 O3 2.059914 1_554
Li4 O14 1.940154 1_555
Li4 O7 2.005671 1_555
Li4 O4 2.033575 1_555
Li4 O21 2.109503 1_555
Li5 O18 1.879994 1_565
Li5 O9 1.906992 1_555
Li5 O10 1.941461 1_455
Li5 O2 2.059914 1_555
Li6 O5 1.879994 1_545
Li6 O14 1.906992 1_555
Li6 O13 1.941461 1_655
Li6 O21 2.059914 1_555
Li7 O9 1.940154 1_555
Li7 O16 2.005671 1_555
Li7 O19 2.033575 1_555
Li7 O2 2.109503 1_555
Li8 O11 1.879994 1_566
Li8 O15 1.906992 1_555
Li8 O17 1.941461 1_555
Li8 O20 2.059914 1_556
Li9 O13 1.920550 1_555
Li9 O19 1.943313 1_555
Li9 O7 2.071809 1_555
Li9 O21 2.088401 1_555
Li10 O15 1.940154 1_555
Li10 O0 2.005671 1_455
Li10 O1 2.033575 1_555
Li10 O20 2.109503 1_556
Li11 O17 1.920550 1_554
Li11 O22 1.943313 1_555
Li11 O0 2.071809 1_554
Li11 O20 2.088401 1_655
B0 O7 1.393329 1_555
B0 O1 1.394806 1_555
B0 O2 1.397283 1_555
B1 O0 1.393329 1_555
B1 O4 1.394806 1_555
B1 O3 1.397283 1_555
B2 O5 1.378146 1_555
B2 O8 1.383133 1_565
B2 O10 1.395976 1_555
B3 O11 1.378146 1_555
B3 O9 1.383133 1_545
B3 O6 1.395976 1_555
B4 O12 1.378146 1_555
B4 O14 1.383133 1_565
B4 O17 1.395976 1_555
B5 O18 1.378146 1_555
B5 O15 1.383133 1_545
B5 O13 1.395976 1_555
B6 O23 1.393329 1_555
B6 O19 1.394806 1_555
B6 O20 1.397283 1_555
B7 O16 1.393329 1_555
B7 O22 1.394806 1_555
B7 O21 1.397283 1_555
O0 Sb3 2.276317 1_555
O1 Sb3 2.335938 1_555
O2 Sb3 2.488984 1_555
O3 Sb1 2.488984 1_655
O4 Sb1 2.335938 1_655
O5 Sb3 2.411776 1_555
O5 Sb0 2.549068 1_565
O6 Sb0 2.360023 1_555
O7 Sb1 2.276317 1_555
O8 Sb2 2.629652 1_545
O9 Sb0 2.629652 1_565
O10 Sb2 2.360023 1_555
O11 Sb1 2.411776 1_554
O11 Sb2 2.549068 1_445
O12 Sb2 2.411776 1_556
O12 Sb1 2.549068 1_665
O13 Sb1 2.360023 1_555
O14 Sb3 2.629652 1_545
O15 Sb1 2.629652 1_565
O16 Sb2 2.276317 1_555
O17 Sb3 2.360023 1_555
O18 Sb0 2.411776 1_555
O18 Sb3 2.549068 1_545
O19 Sb2 2.335938 1_455
O20 Sb2 2.488984 1_455
O21 Sb0 2.488984 1_555
O22 Sb0 2.335938 1_555
O23 Sb0 2.276317 1_555
