# generated using pymatgen
data_Li3Al2VO6
_symmetry_space_group_name_H-M   'P 1'
_cell_length_a   7.83876453
_cell_length_b   7.90636029
_cell_length_c   7.99122598
_cell_angle_alpha   85.08507941
_cell_angle_beta   85.37994310
_cell_angle_gamma   96.11810714
_symmetry_Int_Tables_number   1
_chemical_formula_structural   Li3Al2VO6
_chemical_formula_sum   'Li12 Al8 V4 O24'
_cell_volume   488.61892991
_cell_formula_units_Z   4
loop_
 _symmetry_equiv_pos_site_id
 _symmetry_equiv_pos_as_xyz
  1  'x, y, z'
loop_
 _atom_site_type_symbol
 _atom_site_label
 _atom_site_symmetry_multiplicity
 _atom_site_fract_x
 _atom_site_fract_y
 _atom_site_fract_z
 _atom_site_occupancy
  Li  Li0  1  0.09401100  0.50969900  0.33310700  1
  Li  Li1  1  0.09417800  0.00972500  0.83283500  1
  Li  Li2  1  0.90598300  0.49030000  0.66689600  1
  Li  Li3  1  0.90582000  0.99028000  0.16716600  1
  Li  Li4  1  0.42202000  0.50650400  0.15534600  1
  Li  Li5  1  0.42178700  0.00619700  0.65500300  1
  Li  Li6  1  0.57797800  0.49349800  0.84465400  1
  Li  Li7  1  0.57821300  0.99380600  0.34499700  1
  Li  Li8  1  0.74661300  0.66891400  0.16443500  1
  Li  Li9  1  0.74649900  0.16922000  0.66372300  1
  Li  Li10  1  0.25338600  0.33109500  0.83556700  1
  Li  Li11  1  0.25350200  0.83078600  0.33628100  1
  Al  Al0  1  0.58925800  0.17340500  0.99295300  1
  Al  Al1  1  0.58919600  0.67344300  0.49318900  1
  Al  Al2  1  0.41074500  0.82659700  0.00705100  1
  Al  Al3  1  0.41080100  0.32655400  0.50681300  1
  Al  Al4  1  0.07687500  0.66344400  0.00941300  1
  Al  Al5  1  0.07682400  0.16326700  0.50922800  1
  Al  Al6  1  0.92312000  0.33655400  0.99059400  1
  Al  Al7  1  0.92317500  0.83672900  0.49077200  1
  V  V0  1  0.75237200  0.33234200  0.33475300  1
  V  V1  1  0.24761800  0.66765000  0.66523800  1
  V  V2  1  0.75160400  0.83133400  0.83595300  1
  V  V3  1  0.24838300  0.16865600  0.16405500  1
  O  O0  1  0.25466200  0.81848200  0.84649200  1
  O  O1  1  0.25419700  0.31865500  0.34651900  1
  O  O2  1  0.74535400  0.18150400  0.15349300  1
  O  O3  1  0.74580800  0.68134700  0.65348100  1
  O  O4  1  0.07362900  0.18027500  0.00786100  1
  O  O5  1  0.07434200  0.68041300  0.50824800  1
  O  O6  1  0.92637600  0.81972900  0.99214100  1
  O  O7  1  0.92565900  0.31957400  0.49174100  1
  O  O8  1  0.58139400  0.49649100  0.35626900  1
  O  O9  1  0.58152600  0.99684500  0.85631700  1
  O  O10  1  0.41862700  0.50351400  0.64371000  1
  O  O11  1  0.41847600  0.00315600  0.14368900  1
  O  O12  1  0.42745600  0.31651300  0.00291400  1
  O  O13  1  0.42715500  0.81611500  0.50296400  1
  O  O14  1  0.57254500  0.68348800  0.99709000  1
  O  O15  1  0.57284400  0.18389200  0.49703900  1
  O  O16  1  0.24514000  0.68108700  0.14918600  1
  O  O17  1  0.24510500  0.18121000  0.64928900  1
  O  O18  1  0.75485800  0.31892000  0.85081600  1
  O  O19  1  0.75489300  0.81879200  0.35071500  1
  O  O20  1  0.92478300  0.49126500  0.14916600  1
  O  O21  1  0.92452700  0.99132200  0.64931300  1
  O  O22  1  0.07520800  0.50873800  0.85083900  1
  O  O23  1  0.07547400  0.00867500  0.35068700  1
loop_
_geom_bond_atom_site_label_1
_geom_bond_atom_site_label_2
_geom_bond_distance
_geom_bond_site_symmetry_2
Li0 O5 2.034129 1_555
Li0 O20 2.061847 1_455
Li0 O1 2.065886 1_555
Li0 O16 2.106145 1_555
Li0 O7 2.142260 1_455
Li1 O4 2.033143 1_556
Li1 O21 2.061554 1_445
Li1 O0 2.068819 1_545
Li1 O17 2.104065 1_555
Li1 O6 2.142135 1_445
Li2 O7 2.034286 1_555
Li2 O22 2.061845 1_655
Li2 O3 2.065847 1_555
Li2 O18 2.106093 1_555
Li2 O5 2.142285 1_655
Li3 O6 2.033148 1_554
Li3 O23 2.061560 1_665
Li3 O2 2.068608 1_565
Li3 O19 2.104091 1_555
Li3 O4 2.142154 1_665
Li4 O14 2.013474 1_554
Li4 O12 2.015159 1_555
Li4 O16 2.058503 1_555
Li4 O8 2.113638 1_555
Li4 O1 2.267443 1_555
Li5 O13 2.013615 1_545
Li5 O15 2.017444 1_555
Li5 O17 2.059793 1_555
Li5 O9 2.117850 1_545
Li5 O0 2.265830 1_545
Li6 O12 2.013485 1_556
Li6 O14 2.015173 1_555
Li6 O18 2.058474 1_555
Li6 O10 2.113656 1_555
Li6 O3 2.267468 1_555
Li7 O15 2.013656 1_565
Li7 O13 2.017442 1_555
Li7 O19 2.059788 1_555
Li7 O11 2.117801 1_565
Li7 O2 2.265883 1_565
Li8 O19 1.981361 1_555
Li8 O14 1.991102 1_554
Li8 O6 2.085930 1_554
Li8 O20 2.087655 1_555
Li8 O8 2.198071 1_555
Li9 O15 1.984933 1_555
Li9 O18 1.985690 1_555
Li9 O7 2.080274 1_555
Li9 O21 2.087895 1_545
Li9 O9 2.200615 1_545
Li10 O17 1.981385 1_555
Li10 O12 1.991130 1_556
Li10 O4 2.085921 1_556
Li10 O22 2.087667 1_555
Li10 O10 2.198246 1_555
Li11 O13 1.984915 1_555
Li11 O16 1.985698 1_555
Li11 O5 2.080274 1_555
Li11 O23 2.087840 1_565
Li11 O11 2.200589 1_565
Al0 O12 1.788928 1_556
Al0 O2 1.843208 1_556
Al0 O9 1.843467 1_545
Al0 O18 1.875917 1_555
Al0 O11 2.033048 1_556
Al1 O13 1.787865 1_555
Al1 O3 1.844583 1_555
Al1 O8 1.847457 1_555
Al1 O19 1.877057 1_555
Al1 O10 2.029947 1_555
Al2 O14 1.788922 1_554
Al2 O0 1.843253 1_554
Al2 O11 1.843471 1_565
Al2 O16 1.875912 1_555
Al2 O9 2.033032 1_554
Al3 O15 1.787820 1_555
Al3 O1 1.844549 1_555
Al3 O10 1.847387 1_555
Al3 O17 1.877041 1_555
Al3 O8 2.030172 1_555
Al4 O16 1.797665 1_555
Al4 O6 1.801487 1_454
Al4 O22 1.834924 1_554
Al4 O20 1.923753 1_455
Al4 O0 2.051807 1_554
Al5 O17 1.799471 1_555
Al5 O7 1.805575 1_455
Al5 O23 1.834096 1_555
Al5 O21 1.924708 1_445
Al5 O1 2.050387 1_555
Al6 O18 1.797671 1_555
Al6 O4 1.801506 1_656
Al6 O20 1.834941 1_556
Al6 O22 1.923768 1_655
Al6 O2 2.051666 1_556
Al7 O19 1.799453 1_555
Al7 O5 1.805634 1_655
Al7 O21 1.834102 1_555
Al7 O23 1.924720 1_665
Al7 O3 2.050338 1_555
O0 V1 1.953969 1_555
O1 V3 1.957071 1_555
O2 V0 1.954034 1_555
O3 V2 1.957056 1_555
O4 V3 1.930161 1_555
O5 V1 1.926392 1_555
O6 V2 1.930228 1_555
O7 V0 1.926450 1_555
O8 V0 1.970297 1_555
O9 V2 1.972240 1_555
O10 V1 1.970410 1_555
O11 V3 1.972264 1_555
O12 V3 2.023927 1_555
O13 V1 2.033010 1_555
O14 V2 2.023807 1_555
O15 V0 2.032967 1_555
O20 V0 2.144909 1_555
O21 V2 2.155804 1_555
O22 V1 2.144931 1_555
O23 V3 2.155685 1_555
