# generated using pymatgen
data_Na5GdO4
_symmetry_space_group_name_H-M   'P 1'
_cell_length_a   6.11587600
_cell_length_b   6.13738300
_cell_length_c   8.45848700
_cell_angle_alpha   90.00000000
_cell_angle_beta   90.00000000
_cell_angle_gamma   90.00000000
_symmetry_Int_Tables_number   1
_chemical_formula_structural   Na5GdO4
_chemical_formula_sum   'Na10 Gd2 O8'
_cell_volume   317.49331373
_cell_formula_units_Z   2
loop_
 _symmetry_equiv_pos_site_id
 _symmetry_equiv_pos_as_xyz
  1  'x, y, z'
loop_
 _atom_site_type_symbol
 _atom_site_label
 _atom_site_symmetry_multiplicity
 _atom_site_fract_x
 _atom_site_fract_y
 _atom_site_fract_z
 _atom_site_occupancy
  Na  Na0  1  0.94688200  0.07969200  0.31815600  1
  Na  Na1  1  0.94688200  0.07969200  0.68184400  1
  Na  Na2  1  0.75996500  0.59958800  0.69195400  1
  Na  Na3  1  0.75996500  0.59958800  0.30804600  1
  Na  Na4  1  0.72582500  0.33886700  0.00000000  1
  Na  Na5  1  0.44688200  0.92030800  0.81815600  1
  Na  Na6  1  0.44688200  0.92030800  0.18184400  1
  Na  Na7  1  0.25996500  0.40041200  0.80804600  1
  Na  Na8  1  0.25996500  0.40041200  0.19195400  1
  Na  Na9  1  0.22582500  0.66113300  0.50000000  1
  Gd  Gd0  1  0.99202800  0.83863100  0.00000000  1
  Gd  Gd1  1  0.49202800  0.16136900  0.50000000  1
  O  O0  1  0.65321000  0.73861200  0.00000000  1
  O  O1  1  0.58715900  0.81803000  0.50000000  1
  O  O2  1  0.61006200  0.25949100  0.26492800  1
  O  O3  1  0.61006200  0.25949100  0.73507200  1
  O  O4  1  0.15321000  0.26138800  0.50000000  1
  O  O5  1  0.08715900  0.18197000  0.00000000  1
  O  O6  1  0.11006200  0.74050900  0.76492800  1
  O  O7  1  0.11006200  0.74050900  0.23507200  1
loop_
_geom_bond_atom_site_label_1
_geom_bond_atom_site_label_2
_geom_bond_distance
_geom_bond_site_symmetry_2
Na0 O4 2.280722 1_655
Na0 O2 2.379874 1_555
Na0 O7 2.413155 1_645
Na1 O4 2.280722 1_655
Na1 O3 2.379874 1_555
Na1 O6 2.413155 1_645
Na2 O3 2.308757 1_555
Na2 O1 2.355958 1_555
Na2 O6 2.390303 1_655
Na2 O0 2.818416 1_556
Na3 O2 2.308757 1_555
Na3 O1 2.355958 1_555
Na3 O7 2.390303 1_655
Na3 O0 2.818416 1_555
Na4 O2 2.400035 1_555
Na4 O3 2.400035 1_554
Na4 O5 2.410558 1_655
Na4 O0 2.493259 1_555
Na5 O0 2.280722 1_556
Na5 O6 2.379874 1_555
Na5 O3 2.413155 1_565
Na6 O0 2.280722 1_555
Na6 O7 2.379874 1_555
Na6 O2 2.413155 1_565
Na7 O6 2.308757 1_555
Na7 O5 2.355958 1_556
Na7 O3 2.390303 1_555
Na7 O4 2.818416 1_555
Na8 O7 2.308757 1_555
Na8 O5 2.355958 1_555
Na8 O2 2.390303 1_555
Na8 O4 2.818416 1_555
Na9 O7 2.400035 1_555
Na9 O6 2.400035 1_555
Na9 O1 2.410558 1_555
Na9 O4 2.493259 1_555
Gd0 O0 2.161181 1_555
Gd0 O5 2.186048 1_665
Gd0 O6 2.199391 1_654
Gd0 O7 2.199391 1_655
Gd1 O4 2.161181 1_555
Gd1 O1 2.186048 1_545
Gd1 O3 2.199391 1_555
Gd1 O2 2.199391 1_555
