# generated using pymatgen
data_CsPH4(NO)2
_symmetry_space_group_name_H-M   'P 1'
_cell_length_a   5.65633000
_cell_length_b   5.65633000
_cell_length_c   15.72183200
_cell_angle_alpha   90.00000000
_cell_angle_beta   90.00000000
_cell_angle_gamma   90.00000000
_symmetry_Int_Tables_number   1
_chemical_formula_structural   CsPH4(NO)2
_chemical_formula_sum   'Cs4 P4 H16 N8 O8'
_cell_volume   503.00537890
_cell_formula_units_Z   4
loop_
 _symmetry_equiv_pos_site_id
 _symmetry_equiv_pos_as_xyz
  1  'x, y, z'
loop_
 _atom_site_type_symbol
 _atom_site_label
 _atom_site_symmetry_multiplicity
 _atom_site_fract_x
 _atom_site_fract_y
 _atom_site_fract_z
 _atom_site_occupancy
  Cs  Cs0  1  0.15034200  0.84965800  0.25000000  1
  Cs  Cs1  1  0.34965800  0.34965800  0.50000000  1
  Cs  Cs2  1  0.65034200  0.65034200  0.00000000  1
  Cs  Cs3  1  0.84965800  0.15034200  0.75000000  1
  P  P0  1  0.11073100  0.11073100  0.00000000  1
  P  P1  1  0.38926900  0.61073100  0.75000000  1
  P  P2  1  0.61073100  0.38926900  0.25000000  1
  P  P3  1  0.88926900  0.88926900  0.50000000  1
  H  H0  1  0.99090100  0.36706700  0.31093200  1
  H  H1  1  0.13293300  0.49090100  0.06093200  1
  H  H2  1  0.21255700  0.79134100  0.86407800  1
  H  H3  1  0.20865900  0.78744300  0.63592200  1
  H  H4  1  0.29134100  0.28744300  0.11407800  1
  H  H5  1  0.28744300  0.29134100  0.88592200  1
  H  H6  1  0.36706700  0.99090100  0.68906800  1
  H  H7  1  0.50909900  0.86706700  0.43906800  1
  H  H8  1  0.49090100  0.13293300  0.93906800  1
  H  H9  1  0.63293300  0.00909900  0.18906800  1
  H  H10  1  0.71255700  0.70865900  0.38592200  1
  H  H11  1  0.70865900  0.71255700  0.61407800  1
  H  H12  1  0.79134100  0.21255700  0.13592200  1
  H  H13  1  0.78744300  0.20865900  0.36407800  1
  H  H14  1  0.86706700  0.50909900  0.56093200  1
  H  H15  1  0.00909900  0.63293300  0.81093200  1
  N  N0  1  0.14200700  0.31638700  0.07802100  1
  N  N1  1  0.18361300  0.64200700  0.82802100  1
  N  N2  1  0.31638700  0.14200700  0.92197900  1
  N  N3  1  0.35799300  0.81638700  0.67197900  1
  N  N4  1  0.64200700  0.18361300  0.17197900  1
  N  N5  1  0.68361300  0.85799300  0.42197900  1
  N  N6  1  0.81638700  0.35799300  0.32802100  1
  N  N7  1  0.85799300  0.68361300  0.57802100  1
  O  O0  1  0.12509300  0.84515000  0.45661600  1
  O  O1  1  0.15485000  0.87490700  0.04338400  1
  O  O2  1  0.34515000  0.37490700  0.70661600  1
  O  O3  1  0.37490700  0.34515000  0.29338400  1
  O  O4  1  0.62509300  0.65485000  0.79338400  1
  O  O5  1  0.65485000  0.62509300  0.20661600  1
  O  O6  1  0.84515000  0.12509300  0.54338400  1
  O  O7  1  0.87490700  0.15485000  0.95661600  1
loop_
_geom_bond_atom_site_label_1
_geom_bond_atom_site_label_2
_geom_bond_distance
_geom_bond_site_symmetry_2
Cs0 H0 3.030224 1_455
Cs0 H9 3.030224 1_565
Cs0 O5 3.151763 1_455
Cs0 O3 3.151763 1_565
Cs0 O3 3.197197 1_555
Cs0 O5 3.197197 1_555
Cs0 H9 3.208773 1_465
Cs0 H0 3.208773 1_465
Cs0 O0 3.251620 1_555
Cs0 O1 3.251620 1_555
Cs0 H10 3.366665 1_455
Cs0 H4 3.366665 1_565
Cs0 H13 3.399063 1_465
Cs0 H12 3.399063 1_465
Cs1 H14 3.030224 1_455
Cs1 H7 3.030224 1_545
Cs1 O6 3.151763 1_555
Cs1 O0 3.151763 1_555
Cs1 O6 3.197197 1_455
Cs1 O0 3.197197 1_545
Cs1 H14 3.208773 1_555
Cs1 H7 3.208773 1_555
Cs1 O2 3.251620 1_555
Cs1 O3 3.251620 1_555
Cs1 H3 3.366665 1_555
Cs1 H13 3.366665 1_555
Cs1 H11 3.399063 1_555
Cs1 H10 3.399063 1_555
Cs2 H1 3.030224 1_655
Cs2 H8 3.030224 1_564
Cs2 O1 3.151763 1_555
Cs2 O7 3.151763 1_554
Cs2 O1 3.197197 1_655
Cs2 O7 3.197197 1_564
Cs2 H1 3.208773 1_555
Cs2 H8 3.208773 1_554
Cs2 O5 3.251620 1_555
Cs2 O4 3.251620 1_554
Cs2 H12 3.366665 1_555
Cs2 H2 3.366665 1_554
Cs2 H4 3.399063 1_555
Cs2 H5 3.399063 1_554
Cs3 H6 3.030224 1_545
Cs3 H15 3.030224 1_655
Cs3 O4 3.151763 1_545
Cs3 O2 3.151763 1_655
Cs3 O2 3.197197 1_555
Cs3 O4 3.197197 1_555
Cs3 H15 3.208773 1_645
Cs3 H6 3.208773 1_645
Cs3 O7 3.251620 1_555
Cs3 O6 3.251620 1_555
Cs3 H11 3.366665 1_545
Cs3 H5 3.366665 1_655
Cs3 H3 3.399063 1_645
Cs3 H2 3.399063 1_645
H0 N6 1.024306 1_555
H1 N0 1.024306 1_555
H2 N1 1.030362 1_555
H3 N3 1.030362 1_555
H4 N0 1.030362 1_555
H5 N2 1.030362 1_555
H6 N3 1.024306 1_555
H7 N5 1.024306 1_555
H8 N2 1.024306 1_555
H9 N4 1.024306 1_555
H10 N5 1.030362 1_555
H11 N7 1.030362 1_555
H12 N4 1.030362 1_555
H13 N6 1.030362 1_555
H14 N7 1.024306 1_555
H15 N1 1.024306 1_555
N0 P0 1.699734 1_555
N1 P1 1.699734 1_555
N2 P0 1.699734 1_556
N3 P1 1.699734 1_555
N4 P2 1.699734 1_555
N5 P3 1.699734 1_555
N6 P2 1.699734 1_555
N7 P3 1.699734 1_555
O0 P3 1.518812 1_455
O1 P0 1.518812 1_565
O2 P1 1.518812 1_555
O3 P2 1.518812 1_555
O4 P1 1.518812 1_555
O5 P2 1.518812 1_555
O6 P3 1.518812 1_545
O7 P0 1.518812 1_656
