# generated using pymatgen
data_Li2Fe3NiO8
_symmetry_space_group_name_H-M   'P 1'
_cell_length_a   5.87331863
_cell_length_b   5.87331911
_cell_length_c   5.87332003
_cell_angle_alpha   58.63970328
_cell_angle_beta   58.63971099
_cell_angle_gamma   58.63970270
_symmetry_Int_Tables_number   1
_chemical_formula_structural   Li2Fe3NiO8
_chemical_formula_sum   'Li2 Fe3 Ni1 O8'
_cell_volume   138.80904065
_cell_formula_units_Z   1
loop_
 _symmetry_equiv_pos_site_id
 _symmetry_equiv_pos_as_xyz
  1  'x, y, z'
loop_
 _atom_site_type_symbol
 _atom_site_label
 _atom_site_symmetry_multiplicity
 _atom_site_fract_x
 _atom_site_fract_y
 _atom_site_fract_z
 _atom_site_occupancy
  Li  Li0  1  0.12169000  0.12169000  0.12169000  1
  Li  Li1  1  0.87831000  0.87831000  0.87831000  1
  Fe  Fe0  1  0.00000000  0.50000000  0.50000000  1
  Fe  Fe1  1  0.50000000  0.00000000  0.50000000  1
  Fe  Fe2  1  0.50000000  0.50000000  0.00000000  1
  Ni  Ni0  1  0.50000000  0.50000000  0.50000000  1
  O  O0  1  0.26188500  0.26188500  0.26188500  1
  O  O1  1  0.25208900  0.25208900  0.70944300  1
  O  O2  1  0.25208900  0.70944300  0.25208900  1
  O  O3  1  0.70944300  0.25208900  0.25208900  1
  O  O4  1  0.29055700  0.74791100  0.74791100  1
  O  O5  1  0.74791100  0.29055700  0.74791100  1
  O  O6  1  0.74791100  0.74791100  0.29055700  1
  O  O7  1  0.73811500  0.73811500  0.73811500  1
loop_
_geom_bond_atom_site_label_1
_geom_bond_atom_site_label_2
_geom_bond_distance
_geom_bond_site_symmetry_2
Li0 O3 1.945745 1_455
Li0 O2 1.945745 1_545
Li0 O1 1.945746 1_554
Li0 O0 2.037421 1_555
Li1 O4 1.945745 1_655
Li1 O5 1.945745 1_565
Li1 O6 1.945746 1_556
Li1 O7 2.037421 1_555
Fe0 O6 1.900798 1_455
Fe0 O1 1.900798 1_555
Fe0 O5 1.900799 1_455
Fe0 O2 1.900799 1_555
Fe0 O7 1.958423 1_455
Fe0 O0 1.958423 1_555
Fe1 O4 1.900799 1_545
Fe1 O3 1.900799 1_555
Fe1 O6 1.900799 1_545
Fe1 O1 1.900799 1_555
Fe1 O7 1.958423 1_545
Fe1 O0 1.958423 1_555
Fe2 O4 1.900799 1_554
Fe2 O3 1.900799 1_555
Fe2 O5 1.900799 1_554
Fe2 O2 1.900799 1_555
Fe2 O7 1.958423 1_554
Fe2 O0 1.958423 1_555
Ni0 O2 2.057076 1_555
Ni0 O5 2.057076 1_555
Ni0 O6 2.057076 1_555
Ni0 O1 2.057076 1_555
Ni0 O3 2.057076 1_555
Ni0 O4 2.057076 1_555
