# generated using pymatgen
data_LiSi4NiO10
_symmetry_space_group_name_H-M   'P 1'
_cell_length_a   5.17931200
_cell_length_b   7.81520200
_cell_length_c   11.90438747
_cell_angle_alpha   67.17747858
_cell_angle_beta   90.00000000
_cell_angle_gamma   90.00000000
_symmetry_Int_Tables_number   1
_chemical_formula_structural   LiSi4NiO10
_chemical_formula_sum   'Li2 Si8 Ni2 O20'
_cell_volume   444.13397007
_cell_formula_units_Z   2
loop_
 _symmetry_equiv_pos_site_id
 _symmetry_equiv_pos_as_xyz
  1  'x, y, z'
loop_
 _atom_site_type_symbol
 _atom_site_label
 _atom_site_symmetry_multiplicity
 _atom_site_fract_x
 _atom_site_fract_y
 _atom_site_fract_z
 _atom_site_occupancy
  Li  Li0  1  0.25877700  0.00000000  0.25000000  1
  Li  Li1  1  0.74122300  0.00000000  0.75000000  1
  Si  Si0  1  0.47638500  0.29346600  0.99971300  1
  Si  Si1  1  0.02123300  0.70638900  0.14867300  1
  Si  Si2  1  0.02123300  0.29361100  0.35132700  1
  Si  Si3  1  0.47638500  0.70653400  0.50028700  1
  Si  Si4  1  0.52361500  0.29346600  0.49971300  1
  Si  Si5  1  0.97876700  0.70638900  0.64867300  1
  Si  Si6  1  0.97876700  0.29361100  0.85132700  1
  Si  Si7  1  0.52361500  0.70653400  0.00028700  1
  Ni  Ni0  1  0.75832300  0.00000000  0.25000000  1
  Ni  Ni1  1  0.24167700  0.00000000  0.75000000  1
  O  O0  1  0.50000000  0.50000000  0.00000000  1
  O  O1  1  0.52045300  0.13695600  0.13566500  1
  O  O2  1  0.99695400  0.85935200  0.20923800  1
  O  O3  1  0.81628500  0.74371500  0.03743700  1
  O  O4  1  0.31738700  0.72422800  0.09867200  1
  O  O5  1  0.99695400  0.14064800  0.29076200  1
  O  O6  1  0.52045300  0.86304400  0.36433500  1
  O  O7  1  0.96577700  0.50000000  0.25000000  1
  O  O8  1  0.31738700  0.27577200  0.40132800  1
  O  O9  1  0.18371500  0.74371500  0.53743700  1
  O  O10  1  0.81628500  0.25628500  0.46256300  1
  O  O11  1  0.68261300  0.72422800  0.59867200  1
  O  O12  1  0.50000000  0.50000000  0.50000000  1
  O  O13  1  0.03422300  0.50000000  0.75000000  1
  O  O14  1  0.47954700  0.13695600  0.63566500  1
  O  O15  1  0.00304600  0.85935200  0.70923800  1
  O  O16  1  0.68261300  0.27577200  0.90132800  1
  O  O17  1  0.18371500  0.25628500  0.96256300  1
  O  O18  1  0.00304600  0.14064800  0.79076200  1
  O  O19  1  0.47954700  0.86304400  0.86433500  1
loop_
_geom_bond_atom_site_label_1
_geom_bond_atom_site_label_2
_geom_bond_distance
_geom_bond_site_symmetry_2
Li0 O5 1.922594 1_455
Li0 O2 1.922594 1_445
Li0 O6 1.924809 1_545
Li0 O1 1.924809 1_555
Li1 O18 1.922594 1_655
Li1 O15 1.922594 1_645
Li1 O19 1.924809 1_545
Li1 O14 1.924809 1_555
Ni0 O5 1.839842 1_555
Ni0 O2 1.839842 1_545
Ni0 O6 1.840075 1_545
Ni0 O1 1.840075 1_555
Ni1 O18 1.839842 1_555
Ni1 O15 1.839842 1_545
Ni1 O19 1.840075 1_545
Ni1 O14 1.840075 1_555
O0 Si7 1.620057 1_555
O0 Si0 1.620057 1_554
O1 Si0 1.622292 1_554
O2 Si1 1.622753 1_655
O3 Si1 1.632694 1_655
O3 Si7 1.636291 1_555
O4 Si7 1.630147 1_555
O4 Si1 1.631604 1_555
O5 Si2 1.622753 1_655
O6 Si3 1.622292 1_555
O7 Si1 1.621682 1_655
O7 Si2 1.621682 1_655
O8 Si4 1.630147 1_555
O8 Si2 1.631604 1_555
O9 Si5 1.632694 1_455
O9 Si3 1.636291 1_555
O10 Si2 1.632694 1_655
O10 Si4 1.636291 1_555
O11 Si3 1.630147 1_555
O11 Si5 1.631604 1_555
O12 Si3 1.620057 1_555
O12 Si4 1.620057 1_555
O13 Si5 1.621682 1_455
O13 Si6 1.621682 1_455
O14 Si4 1.622292 1_555
O15 Si5 1.622753 1_455
O16 Si0 1.630147 1_555
O16 Si6 1.631604 1_555
O17 Si6 1.632694 1_455
O17 Si0 1.636291 1_555
O18 Si6 1.622753 1_455
O19 Si7 1.622292 1_556
