# generated using pymatgen
data_CrH8(NO2)2
_symmetry_space_group_name_H-M   'P 1'
_cell_length_a   6.93590611
_cell_length_b   6.93590611
_cell_length_c   7.70550943
_cell_angle_alpha   67.69029945
_cell_angle_beta   67.69029945
_cell_angle_gamma   54.62152637
_symmetry_Int_Tables_number   1
_chemical_formula_structural   CrH8(NO2)2
_chemical_formula_sum   'Cr2 H16 N4 O8'
_cell_volume   273.26565167
_cell_formula_units_Z   2
loop_
 _symmetry_equiv_pos_site_id
 _symmetry_equiv_pos_as_xyz
  1  'x, y, z'
loop_
 _atom_site_type_symbol
 _atom_site_label
 _atom_site_symmetry_multiplicity
 _atom_site_fract_x
 _atom_site_fract_y
 _atom_site_fract_z
 _atom_site_occupancy
  Cr  Cr0  1  0.17257800  0.17257800  0.78615100  1
  Cr  Cr1  1  0.82742200  0.82742200  0.21384900  1
  H  H0  1  0.43763800  0.43763800  0.73536300  1
  H  H1  1  0.56236200  0.56236200  0.26463700  1
  H  H2  1  0.58824900  0.58824900  0.60654700  1
  H  H3  1  0.41175100  0.41175100  0.39345300  1
  H  H4  1  0.39398100  0.65712200  0.81960500  1
  H  H5  1  0.65712200  0.39398100  0.81960500  1
  H  H6  1  0.60601900  0.34287800  0.18039500  1
  H  H7  1  0.34287800  0.60601900  0.18039500  1
  H  H8  1  0.91949400  0.91949400  0.75061700  1
  H  H9  1  0.08050600  0.08050600  0.24938300  1
  H  H10  1  0.85879300  0.85879300  0.59051400  1
  H  H11  1  0.14120700  0.14120700  0.40948600  1
  H  H12  1  0.65765300  0.91804300  0.80370900  1
  H  H13  1  0.91804300  0.65765300  0.80370900  1
  H  H14  1  0.34234700  0.08195700  0.19629100  1
  H  H15  1  0.08195700  0.34234700  0.19629100  1
  N  N0  1  0.51891000  0.51891000  0.74619200  1
  N  N1  1  0.48109000  0.48109000  0.25380800  1
  N  N2  1  0.83932600  0.83932600  0.73691300  1
  N  N3  1  0.16067400  0.16067400  0.26308700  1
  O  O0  1  0.31981000  0.31981000  0.64058100  1
  O  O1  1  0.68019000  0.68019000  0.35941900  1
  O  O2  1  0.09073000  0.09073000  0.66048100  1
  O  O3  1  0.90927000  0.90927000  0.33951900  1
  O  O4  1  0.92675900  0.35583300  0.92166400  1
  O  O5  1  0.35583300  0.92675900  0.92166400  1
  O  O6  1  0.07324100  0.64416700  0.07833600  1
  O  O7  1  0.64416700  0.07324100  0.07833600  1
loop_
_geom_bond_atom_site_label_1
_geom_bond_atom_site_label_2
_geom_bond_distance
_geom_bond_site_symmetry_2
Cr0 O4 1.661154 1_455
Cr0 O5 1.661154 1_545
Cr0 O2 1.670375 1_555
Cr0 O0 1.676918 1_555
Cr1 O7 1.661154 1_565
Cr1 O6 1.661154 1_655
Cr1 O3 1.670375 1_555
Cr1 O1 1.676918 1_555
H0 N0 1.040111 1_555
H1 N1 1.040111 1_555
H2 N0 1.049986 1_555
H3 N1 1.049986 1_555
H4 N0 1.033199 1_555
H5 N0 1.033199 1_555
H6 N1 1.033199 1_555
H7 N1 1.033199 1_555
H8 N2 1.037630 1_555
H9 N3 1.037630 1_555
H10 N2 1.048261 1_555
H11 N3 1.048261 1_555
H12 N2 1.036868 1_555
H13 N2 1.036868 1_555
H14 N3 1.036868 1_555
H15 N3 1.036868 1_555
