# generated using pymatgen
data_Li4Ti2Cr3Co3O16
_symmetry_space_group_name_H-M   'P 1'
_cell_length_a   5.75011000
_cell_length_b   5.77882249
_cell_length_c   9.38243927
_cell_angle_alpha   89.11950302
_cell_angle_beta   89.03394693
_cell_angle_gamma   60.34735453
_symmetry_Int_Tables_number   1
_chemical_formula_structural   Li4Ti2Cr3Co3O16
_chemical_formula_sum   'Li4 Ti2 Cr3 Co3 O16'
_cell_volume   270.89155056
_cell_formula_units_Z   1
loop_
 _symmetry_equiv_pos_site_id
 _symmetry_equiv_pos_as_xyz
  1  'x, y, z'
loop_
 _atom_site_type_symbol
 _atom_site_label
 _atom_site_symmetry_multiplicity
 _atom_site_fract_x
 _atom_site_fract_y
 _atom_site_fract_z
 _atom_site_occupancy
  Li  Li0  1  0.66553000  0.66605100  0.88960100  1
  Li  Li1  1  0.99779700  0.99422200  0.99343100  1
  Li  Li2  1  0.99884200  0.99777200  0.49675200  1
  Li  Li3  1  0.33020000  0.33406500  0.39492700  1
  Ti  Ti0  1  0.67445100  0.66788400  0.49942000  1
  Ti  Ti1  1  0.33871000  0.33569000  0.99744100  1
  Cr  Cr0  1  0.34856700  0.82003600  0.22217900  1
  Cr  Cr1  1  0.82957300  0.34204700  0.21312500  1
  Cr  Cr2  1  0.17367300  0.17291500  0.72319700  1
  Co  Co0  1  0.82881400  0.82995900  0.21322000  1
  Co  Co1  1  0.17128200  0.65788400  0.71301700  1
  Co  Co2  1  0.65788900  0.17113100  0.71302700  1
  O  O0  1  0.33268100  0.83476500  0.59820200  1
  O  O1  1  0.50817200  0.52675600  0.34397300  1
  O  O2  1  0.65798500  0.68167500  0.10382100  1
  O  O3  1  0.00639100  0.98825100  0.30485000  1
  O  O4  1  0.99964900  0.99936900  0.80175100  1
  O  O5  1  0.83455600  0.33231700  0.59761100  1
  O  O6  1  0.52232400  0.96151500  0.33937800  1
  O  O7  1  0.95810500  0.52943800  0.33976400  1
  O  O8  1  0.17009200  0.16200100  0.09438900  1
  O  O9  1  0.83278300  0.83383900  0.60095400  1
  O  O10  1  0.03929100  0.48016400  0.83942400  1
  O  O11  1  0.48028800  0.03959100  0.83938100  1
  O  O12  1  0.33265400  0.33314200  0.60840000  1
  O  O13  1  0.16630200  0.66566800  0.09809900  1
  O  O14  1  0.47798300  0.47775300  0.83274100  1
  O  O15  1  0.66511700  0.16440000  0.09576300  1
loop_
_geom_bond_atom_site_label_1
_geom_bond_atom_site_label_2
_geom_bond_distance
_geom_bond_site_symmetry_2
Li0 O10 1.921337 1_655
Li0 O11 1.930492 1_565
Li0 O14 1.957039 1_555
Li0 O2 2.012093 1_556
Li1 O4 1.798154 1_555
Li1 O15 1.911534 1_566
Li1 O13 1.913789 1_656
Li1 O8 1.956822 1_666
Li2 O3 1.801330 1_655
Li2 O9 1.897408 1_555
Li2 O0 1.929531 1_655
Li2 O5 1.935054 1_565
Li3 O1 1.900119 1_555
Li3 O7 1.936375 1_455
Li3 O6 1.946473 1_545
Li3 O12 2.003092 1_555
Cr0 O1 1.859372 1_555
Cr0 O3 1.870039 1_555
Cr0 O2 1.895006 1_555
Cr0 O6 1.936177 1_555
Cr0 O13 2.060976 1_555
Cr0 O8 2.087561 1_565
Cr1 O3 1.968000 1_645
Cr1 O2 1.983275 1_555
Cr1 O7 1.997938 1_555
Cr1 O1 2.018374 1_555
Cr1 O8 2.025767 1_655
Cr1 O15 2.047209 1_555
Cr2 O4 1.869686 1_445
Cr2 O11 1.893470 1_555
Cr2 O10 1.900615 1_555
Cr2 O12 1.904415 1_555
Cr2 O0 2.072745 1_545
Cr2 O5 2.075106 1_455
Co0 O3 1.896432 1_655
Co0 O2 1.909617 1_555
Co0 O7 1.914998 1_555
Co0 O6 1.927828 1_555
Co0 O13 1.992920 1_655
Co0 O15 2.001296 1_565
Co1 O12 1.910258 1_555
Co1 O4 1.912348 1_455
Co1 O14 1.915708 1_555
Co1 O10 1.934132 1_555
Co1 O0 1.984357 1_555
Co1 O9 2.001434 1_455
Co2 O12 1.907560 1_555
Co2 O4 1.907810 1_545
Co2 O14 1.918251 1_555
Co2 O11 1.930220 1_555
Co2 O5 1.985047 1_555
Co2 O9 2.001000 1_545
O0 Ti0 1.934389 1_555
O1 Ti0 2.135787 1_555
O5 Ti0 1.914140 1_555
O6 Ti0 2.096783 1_555
O7 Ti0 2.051226 1_555
O8 Ti1 1.918345 1_554
O9 Ti0 1.891397 1_555
O10 Ti1 2.117794 1_555
O11 Ti1 2.109221 1_555
O13 Ti1 1.914205 1_554
O14 Ti1 2.067133 1_555
O15 Ti1 1.882952 1_554
