# generated using pymatgen
data_LiSnP2O7
_symmetry_space_group_name_H-M   'P 1'
_cell_length_a   5.26884700
_cell_length_b   8.48746871
_cell_length_c   14.04348438
_cell_angle_alpha   75.21783956
_cell_angle_beta   87.54027020
_cell_angle_gamma   88.50251229
_symmetry_Int_Tables_number   1
_chemical_formula_structural   LiSnP2O7
_chemical_formula_sum   'Li4 Sn4 P8 O28'
_cell_volume   606.59318088
_cell_formula_units_Z   4
loop_
 _symmetry_equiv_pos_site_id
 _symmetry_equiv_pos_as_xyz
  1  'x, y, z'
loop_
 _atom_site_type_symbol
 _atom_site_label
 _atom_site_symmetry_multiplicity
 _atom_site_fract_x
 _atom_site_fract_y
 _atom_site_fract_z
 _atom_site_occupancy
  Li  Li0  1  0.25091800  0.71743100  0.83074300  1
  Li  Li1  1  0.19822000  0.65458600  0.33560700  1
  Li  Li2  1  0.80178000  0.34541400  0.66439300  1
  Li  Li3  1  0.74908200  0.28256900  0.16925700  1
  Sn  Sn0  1  0.77546900  0.90762800  0.35467000  1
  Sn  Sn1  1  0.75470600  0.39029900  0.87956200  1
  Sn  Sn2  1  0.24529400  0.60970100  0.12043800  1
  Sn  Sn3  1  0.22453100  0.09237200  0.64533000  1
  P  P0  1  0.71202000  0.01049200  0.78985000  1
  P  P1  1  0.74344400  0.72442200  0.95624500  1
  P  P2  1  0.27409000  0.78700600  0.51429200  1
  P  P3  1  0.28802000  0.49388100  0.68600800  1
  P  P4  1  0.71198000  0.50611900  0.31399200  1
  P  P5  1  0.72591000  0.21299400  0.48570800  1
  P  P6  1  0.25655600  0.27557800  0.04375500  1
  P  P7  1  0.28798000  0.98950800  0.21015000  1
  O  O0  1  0.98175700  0.95980700  0.75578400  1
  O  O1  1  0.67741300  0.91865700  0.90317700  1
  O  O2  1  0.49904300  0.95108100  0.73224400  1
  O  O3  1  0.19640200  0.89903700  0.57911200  1
  O  O4  1  0.03040200  0.70049700  0.94764000  1
  O  O5  1  0.55471500  0.79873400  0.47687000  1
  O  O6  1  0.59277600  0.63613700  0.89365300  1
  O  O7  1  0.10936500  0.80843500  0.42318800  1
  O  O8  1  0.31802100  0.81074700  0.22003000  1
  O  O9  1  0.12823900  0.56795500  0.75510200  1
  O  O10  1  0.23032000  0.60209500  0.57165800  1
  O  O11  1  0.57217000  0.49718600  0.69556300  1
  O  O12  1  0.81946500  0.67691500  0.31752400  1
  O  O13  1  0.64060800  0.69806500  0.06177900  1
  O  O14  1  0.35939200  0.30193500  0.93822100  1
  O  O15  1  0.18053500  0.32308500  0.68247600  1
  O  O16  1  0.42783000  0.50281400  0.30443700  1
  O  O17  1  0.76968000  0.39790500  0.42834200  1
  O  O18  1  0.87176100  0.43204500  0.24489800  1
  O  O19  1  0.68197900  0.18925300  0.77997000  1
  O  O20  1  0.89063500  0.19156500  0.57681200  1
  O  O21  1  0.40722400  0.36386300  0.10634700  1
  O  O22  1  0.44528500  0.20126600  0.52313000  1
  O  O23  1  0.96959800  0.29950300  0.05236000  1
  O  O24  1  0.80359800  0.10096300  0.42088800  1
  O  O25  1  0.50095700  0.04891900  0.26775600  1
  O  O26  1  0.32258700  0.08134300  0.09682300  1
  O  O27  1  0.01824300  0.04019300  0.24421600  1
loop_
_geom_bond_atom_site_label_1
_geom_bond_atom_site_label_2
_geom_bond_distance
_geom_bond_site_symmetry_2
Li0 O4 1.946839 1_555
Li0 O9 1.986261 1_555
Li0 O6 2.064337 1_555
Li0 O2 2.477035 1_555
Li0 O0 2.494365 1_455
Li1 O16 1.864234 1_555
Li1 O8 1.909875 1_555
Li1 O12 2.020398 1_455
Li1 O7 2.043328 1_555
Li2 O11 1.864234 1_555
Li2 O19 1.909875 1_555
Li2 O15 2.020398 1_655
Li2 O20 2.043328 1_555
Li3 O23 1.946839 1_555
Li3 O18 1.986261 1_555
Li3 O21 2.064337 1_555
Li3 O25 2.477035 1_555
Li3 O27 2.494365 1_655
O0 P0 1.564754 1_565
O0 Sn3 2.079075 1_665
O1 P0 1.588453 1_565
O1 P1 1.661188 1_555
O2 P0 1.575942 1_565
O2 Sn3 2.081781 1_565
O3 P2 1.513172 1_555
O3 Sn3 2.093463 1_565
O4 P1 1.524003 1_455
O4 Sn2 2.645861 1_556
O5 P2 1.544852 1_555
O5 Sn0 2.056111 1_555
O6 P1 1.546420 1_555
O6 Sn1 2.285586 1_555
O7 P2 1.546472 1_555
O7 Sn0 2.093832 1_455
O8 P7 1.492714 1_555
O8 Sn2 2.512506 1_555
O9 P3 1.503009 1_555
O9 Sn1 2.777938 1_455
O10 P2 1.588422 1_555
O10 P3 1.670177 1_555
O11 P3 1.510493 1_555
O11 Sn1 2.719644 1_555
O12 P4 1.583227 1_555
O12 Sn0 2.155794 1_555
O13 P1 1.519329 1_554
O13 Sn2 2.280011 1_555
O14 P6 1.519329 1_556
O14 Sn1 2.280011 1_555
O15 P3 1.583227 1_555
O15 Sn3 2.155794 1_555
O16 P4 1.510493 1_555
O16 Sn2 2.719644 1_555
O17 P5 1.588422 1_555
O17 P4 1.670177 1_555
O18 P4 1.503009 1_555
O18 Sn2 2.777938 1_655
O19 P0 1.492714 1_555
O19 Sn1 2.512506 1_555
O20 P5 1.546472 1_555
O20 Sn3 2.093832 1_655
O21 P6 1.546420 1_555
O21 Sn2 2.285586 1_555
O22 P5 1.544852 1_555
O22 Sn3 2.056111 1_555
O23 P6 1.524003 1_655
O23 Sn1 2.645861 1_554
O24 P5 1.513172 1_555
O24 Sn0 2.093463 1_545
O25 P7 1.575942 1_545
O25 Sn0 2.081781 1_545
O26 P7 1.588453 1_545
O26 P6 1.661188 1_555
O27 P7 1.564754 1_545
O27 Sn0 2.079075 1_445
