# generated using pymatgen
data_Li4(CuO2)3
_symmetry_space_group_name_H-M   'P 1'
_cell_length_a   6.44601303
_cell_length_b   6.44601303
_cell_length_c   7.19456133
_cell_angle_alpha   68.99080861
_cell_angle_beta   68.99080861
_cell_angle_gamma   78.78083755
_symmetry_Int_Tables_number   1
_chemical_formula_structural   Li4(CuO2)3
_chemical_formula_sum   'Li8 Cu6 O12'
_cell_volume   259.76852472
_cell_formula_units_Z   2
loop_
 _symmetry_equiv_pos_site_id
 _symmetry_equiv_pos_as_xyz
  1  'x, y, z'
loop_
 _atom_site_type_symbol
 _atom_site_label
 _atom_site_symmetry_multiplicity
 _atom_site_fract_x
 _atom_site_fract_y
 _atom_site_fract_z
 _atom_site_occupancy
  Li  Li0  1  0.03468886  0.71081187  0.44991080  1
  Li  Li1  1  0.69754908  0.69754908  0.84873329  1
  Li  Li2  1  0.71081187  0.03468886  0.44991080  1
  Li  Li3  1  0.63740406  0.30915878  0.13457605  1
  Li  Li4  1  0.34018522  0.01401027  0.88897774  1
  Li  Li5  1  0.29684112  0.29684112  0.53550424  1
  Li  Li6  1  0.30915878  0.63740406  0.13457605  1
  Li  Li7  1  0.01401027  0.34018522  0.88897774  1
  Cu  Cu0  1  0.82217333  0.15627109  0.72925884  1
  Cu  Cu1  1  0.84794243  0.52114010  0.26556203  1
  Cu  Cu2  1  0.47667250  0.47667250  0.74763692  1
  Cu  Cu3  1  0.52114010  0.84794243  0.26556203  1
  Cu  Cu4  1  0.15627109  0.82217333  0.72925884  1
  Cu  Cu5  1  0.17532065  0.17532065  0.26917931  1
  O  O0  1  0.72502248  0.39633697  0.83678541  1
  O  O1  1  0.90238414  0.90238414  0.64228092  1
  O  O2  1  0.91178853  0.26966968  0.18906390  1
  O  O3  1  0.54982861  0.21935709  0.67360362  1
  O  O4  1  0.60934006  0.60934006  0.16237758  1
  O  O5  1  0.21935709  0.54982861  0.67360362  1
  O  O6  1  0.76464524  0.76464524  0.35646355  1
  O  O7  1  0.39633697  0.72502248  0.83678541  1
  O  O8  1  0.44530961  0.09927811  0.34562067  1
  O  O9  1  0.09468111  0.09468111  0.78108706  1
  O  O10  1  0.09927811  0.44530961  0.34562067  1
  O  O11  1  0.26966968  0.91178853  0.18906390  1
loop_
_geom_bond_atom_site_label_1
_geom_bond_atom_site_label_2
_geom_bond_distance
_geom_bond_site_symmetry_2
Li0 O6 2.009797 1_455
Li0 O10 2.021094 1_555
Li0 O1 2.033983 1_455
Li0 O11 2.115793 1_555
Li0 O5 2.186185 1_555
Li1 O1 1.886498 1_555
Li1 O7 1.945144 1_555
Li1 O0 1.945144 1_555
Li1 O4 2.006080 1_556
Li2 O6 2.009797 1_545
Li2 O8 2.021094 1_555
Li2 O1 2.033983 1_545
Li2 O2 2.115793 1_555
Li2 O3 2.186185 1_555
Li3 O8 1.870789 1_555
Li3 O2 1.896613 1_555
Li3 O0 1.901982 1_554
Li3 O4 1.982981 1_555
Li4 O9 1.910097 1_555
Li4 O11 1.922197 1_546
Li4 O3 1.924376 1_555
Li4 O7 1.970746 1_545
Li5 O9 1.969008 1_555
Li5 O10 2.059064 1_555
Li5 O8 2.059064 1_555
Li5 O5 2.094046 1_555
Li5 O3 2.094046 1_555
Li6 O10 1.870789 1_555
Li6 O11 1.896613 1_555
Li6 O7 1.901982 1_554
Li6 O4 1.982981 1_555
Li7 O9 1.910097 1_555
Li7 O2 1.922197 1_456
Li7 O5 1.924376 1_555
Li7 O0 1.970746 1_455
Cu0 O9 1.863975 1_655
Cu0 O1 1.873580 1_545
Cu0 O3 1.875393 1_555
Cu0 O0 1.875956 1_555
Cu1 O2 1.821416 1_555
Cu1 O6 1.826498 1_555
Cu1 O10 1.831539 1_655
Cu1 O4 1.848160 1_555
Cu2 O5 1.845600 1_555
Cu2 O3 1.845600 1_555
Cu2 O7 1.848731 1_555
Cu2 O0 1.848731 1_555
Cu3 O11 1.821416 1_555
Cu3 O6 1.826498 1_555
Cu3 O8 1.831539 1_565
Cu3 O4 1.848160 1_555
Cu4 O9 1.863975 1_565
Cu4 O1 1.873580 1_455
Cu4 O5 1.875393 1_555
Cu4 O7 1.875956 1_555
Cu5 O2 1.906962 1_455
Cu5 O11 1.906962 1_545
Cu5 O10 1.931994 1_555
Cu5 O8 1.931994 1_555
