# generated using pymatgen
data_V4Si4O13
_symmetry_space_group_name_H-M   'P 1'
_cell_length_a   6.96106400
_cell_length_b   7.82975302
_cell_length_c   10.11539211
_cell_angle_alpha   67.72909898
_cell_angle_beta   79.87247580
_cell_angle_gamma   77.60808858
_symmetry_Int_Tables_number   1
_chemical_formula_structural   V4Si4O13
_chemical_formula_sum   'V8 Si8 O26'
_cell_volume   495.57798903
_cell_formula_units_Z   2
loop_
 _symmetry_equiv_pos_site_id
 _symmetry_equiv_pos_as_xyz
  1  'x, y, z'
loop_
 _atom_site_type_symbol
 _atom_site_label
 _atom_site_symmetry_multiplicity
 _atom_site_fract_x
 _atom_site_fract_y
 _atom_site_fract_z
 _atom_site_occupancy
  V  V0  1  0.08039500  0.19854600  0.99213700  1
  V  V1  1  0.57578500  0.19632100  0.98745400  1
  V  V2  1  0.57658700  0.55579000  0.62572600  1
  V  V3  1  0.07726000  0.55110100  0.62187800  1
  V  V4  1  0.92274000  0.44889900  0.37812200  1
  V  V5  1  0.42341300  0.44421000  0.37427400  1
  V  V6  1  0.42421500  0.80367900  0.01254600  1
  V  V7  1  0.91960500  0.80145400  0.00786300  1
  Si  Si0  1  0.26569500  0.58933900  0.82578400  1
  Si  Si1  1  0.72831800  0.85484900  0.71738500  1
  Si  Si2  1  0.37816400  0.15293700  0.71135000  1
  Si  Si3  1  0.93249800  0.15694000  0.70909400  1
  Si  Si4  1  0.06750200  0.84306000  0.29090600  1
  Si  Si5  1  0.62183600  0.84706300  0.28865000  1
  Si  Si6  1  0.27168200  0.14515100  0.28261500  1
  Si  Si7  1  0.73430500  0.41066100  0.17421600  1
  O  O0  1  0.37147100  0.10947000  0.88480400  1
  O  O1  1  0.87754400  0.10315900  0.88529000  1
  O  O2  1  0.19372300  0.72510600  0.92155300  1
  O  O3  1  0.10196800  0.44887900  0.84923400  1
  O  O4  1  0.49482800  0.46864000  0.83980900  1
  O  O5  1  0.71903800  0.76917900  0.89256000  1
  O  O6  1  0.41590800  0.36564700  0.60301100  1
  O  O7  1  0.85045700  0.37482100  0.61182700  1
  O  O8  1  0.28588300  0.69793100  0.65001000  1
  O  O9  1  0.77687200  0.69972400  0.63985900  1
  O  O10  1  0.16610400  0.14491000  0.67718000  1
  O  O11  1  0.51860400  0.98536300  0.66812100  1
  O  O12  1  0.88659000  0.00083000  0.65596000  1
  O  O13  1  0.11341000  0.99917000  0.34404000  1
  O  O14  1  0.48139600  0.01463700  0.33187900  1
  O  O15  1  0.83389600  0.85509000  0.32282000  1
  O  O16  1  0.22312800  0.30027600  0.36014100  1
  O  O17  1  0.71411700  0.30206900  0.34999000  1
  O  O18  1  0.14954300  0.62517900  0.38817300  1
  O  O19  1  0.58409200  0.63435300  0.39698900  1
  O  O20  1  0.28096200  0.23082100  0.10744000  1
  O  O21  1  0.50517200  0.53136000  0.16019100  1
  O  O22  1  0.89803200  0.55112100  0.15076600  1
  O  O23  1  0.80627700  0.27489400  0.07844700  1
  O  O24  1  0.12245600  0.89684100  0.11471000  1
  O  O25  1  0.62852900  0.89053000  0.11519600  1
loop_
_geom_bond_atom_site_label_1
_geom_bond_atom_site_label_2
_geom_bond_distance
_geom_bond_site_symmetry_2
O0 Si2 1.649820 1_555
O0 V0 2.228109 1_555
O0 V6 2.231940 1_546
O0 V1 2.243439 1_555
O1 Si3 1.661540 1_555
O1 V7 2.194113 1_546
O1 V1 2.272169 1_555
O1 V0 2.306733 1_655
O2 Si0 1.643402 1_555
O2 V7 2.020093 1_456
O2 V6 2.274249 1_556
O3 Si0 1.676262 1_555
O3 V0 1.963745 1_555
O3 V3 2.155009 1_555
O4 Si0 1.669819 1_555
O4 V2 2.022935 1_555
O4 V1 2.112087 1_555
O5 Si1 1.634439 1_555
O5 V7 2.078692 1_556
O5 V6 2.211898 1_556
O6 Si2 1.657380 1_555
O6 V2 2.141175 1_555
O6 V5 2.151071 1_555
O6 V3 2.506929 1_555
O7 Si3 1.646722 1_555
O7 V2 2.135254 1_555
O7 V4 2.201319 1_555
O7 V3 2.346490 1_655
O8 Si0 1.649719 1_555
O8 V2 2.111810 1_555
O8 V3 2.149772 1_555
O9 Si1 1.630031 1_555
O9 V2 2.025055 1_555
O9 V3 2.177597 1_655
O10 Si3 1.590638 1_455
O10 Si2 1.593172 1_555
O11 Si2 1.613215 1_565
O11 Si1 1.628890 1_555
O12 Si3 1.615867 1_555
O12 Si1 1.633330 1_545
O13 Si4 1.615867 1_555
O13 Si6 1.633330 1_565
O14 Si5 1.613215 1_545
O14 Si6 1.628890 1_555
O15 Si4 1.590638 1_655
O15 Si5 1.593172 1_555
O16 Si6 1.630031 1_555
O16 V5 2.025055 1_555
O16 V4 2.177597 1_455
O17 Si7 1.649719 1_555
O17 V5 2.111810 1_555
O17 V4 2.149772 1_555
O18 Si4 1.646722 1_555
O18 V5 2.135254 1_555
O18 V3 2.201319 1_555
O18 V4 2.346490 1_455
O19 Si5 1.657380 1_555
O19 V5 2.141175 1_555
O19 V2 2.151071 1_555
O19 V4 2.506929 1_555
O20 Si6 1.634439 1_555
O20 V0 2.078692 1_554
O20 V1 2.211898 1_554
O21 Si7 1.669819 1_555
O21 V5 2.022935 1_555
O21 V6 2.112087 1_555
O22 Si7 1.676262 1_555
O22 V7 1.963745 1_555
O22 V4 2.155009 1_555
O23 Si7 1.643402 1_555
O23 V0 2.020093 1_654
O23 V1 2.274249 1_554
O24 Si4 1.661540 1_555
O24 V0 2.194113 1_564
O24 V6 2.272169 1_555
O24 V7 2.306733 1_455
O25 Si5 1.649820 1_555
O25 V7 2.228109 1_555
O25 V1 2.231940 1_564
O25 V6 2.243439 1_555
