# generated using pymatgen
data_Li3Mn4(BO3)4
_symmetry_space_group_name_H-M   'P 1'
_cell_length_a   5.27492600
_cell_length_b   10.37347809
_cell_length_c   13.97357975
_cell_angle_alpha   91.31537272
_cell_angle_beta   100.42443138
_cell_angle_gamma   91.48075033
_symmetry_Int_Tables_number   1
_chemical_formula_structural   Li3Mn4(BO3)4
_chemical_formula_sum   'Li9 Mn12 B12 O36'
_cell_volume   751.45625555
_cell_formula_units_Z   3
loop_
 _symmetry_equiv_pos_site_id
 _symmetry_equiv_pos_as_xyz
  1  'x, y, z'
loop_
 _atom_site_type_symbol
 _atom_site_label
 _atom_site_symmetry_multiplicity
 _atom_site_fract_x
 _atom_site_fract_y
 _atom_site_fract_z
 _atom_site_occupancy
  Li  Li0  1  0.78297300  0.15557600  0.38131400  1
  Li  Li1  1  0.75668900  0.67057800  0.39101800  1
  Li  Li2  1  0.89262400  0.90162800  0.94473500  1
  Li  Li3  1  0.56031600  0.39894600  0.27485400  1
  Li  Li4  1  0.13023800  0.16145900  0.04809000  1
  Li  Li5  1  0.44784000  0.16975000  0.71465600  1
  Li  Li6  1  0.07915100  0.67229900  0.05871700  1
  Li  Li7  1  0.42423500  0.65832300  0.72162400  1
  Li  Li8  1  0.22458500  0.39948300  0.61430400  1
  Mn  Mn0  1  0.00898400  0.38721100  0.15581300  1
  Mn  Mn1  1  0.87302100  0.13084100  0.60487600  1
  Mn  Mn2  1  0.65648600  0.63382400  0.17009400  1
  Mn  Mn3  1  0.97606900  0.62534000  0.83513100  1
  Mn  Mn4  1  0.67040500  0.38424400  0.49277100  1
  Mn  Mn5  1  0.44980200  0.88568000  0.06527900  1
  Mn  Mn6  1  0.78679000  0.87537400  0.72267300  1
  Mn  Mn7  1  0.57327900  0.13135200  0.94183300  1
  Mn  Mn8  1  0.21267800  0.13254500  0.27001800  1
  Mn  Mn9  1  0.32226400  0.63416000  0.49957200  1
  Mn  Mn10  1  0.32984000  0.38028300  0.84813900  1
  Mn  Mn11  1  0.12439300  0.88271200  0.39039800  1
  B  B0  1  0.98354600  0.88626600  0.16718900  1
  B  B1  1  0.66515300  0.13376800  0.16581200  1
  B  B2  1  0.88906300  0.61714700  0.61176000  1
  B  B3  1  0.78439300  0.36920500  0.71718800  1
  B  B4  1  0.46052000  0.37200600  0.05224800  1
  B  B5  1  0.65989700  0.88035600  0.50297300  1
  B  B6  1  0.32819300  0.13492500  0.49712400  1
  B  B7  1  0.22069000  0.62134700  0.27937000  1
  B  B8  1  0.53988200  0.62765700  0.95217100  1
  B  B9  1  0.11602100  0.36593700  0.38315800  1
  B  B10  1  0.33913900  0.86674100  0.84168400  1
  B  B11  1  0.01022600  0.13135600  0.83279000  1
  O  O0  1  0.92053300  0.16740900  0.15714500  1
  O  O1  1  0.85388100  0.35512200  0.37601700  1
  O  O2  1  0.74430900  0.83743100  0.17685400  1
  O  O3  1  0.87533900  0.32363600  0.63244500  1
  O  O4  1  0.96869800  0.42202700  0.79169900  1
  O  O5  1  0.61901400  0.42123500  0.13670200  1
  O  O6  1  0.77247500  0.85447400  0.42579900  1
  O  O7  1  0.79751900  0.94785800  0.58735600  1
  O  O8  1  0.95009100  0.10469100  0.92138500  1
  O  O9  1  0.58581100  0.14146300  0.25333700  1
  O  O10  1  0.83199700  0.10153000  0.74766700  1
  O  O11  1  0.49417500  0.09459700  0.08178800  1
  O  O12  1  0.72244600  0.58691600  0.52331100  1
  O  O13  1  0.78471400  0.66483200  0.68974100  1
  O  O14  1  0.42848000  0.66924400  0.03018100  1
  O  O15  1  0.58618000  0.16385800  0.48942100  1
  O  O16  1  0.48119800  0.59877800  0.29032500  1
  O  O17  1  0.79608300  0.64229700  0.95275600  1
  O  O18  1  0.20511200  0.34808800  0.04779700  1
  O  O19  1  0.52745100  0.36325400  0.72174600  1
  O  O20  1  0.41137200  0.83785900  0.50690400  1
  O  O21  1  0.57025900  0.34242500  0.96935600  1
  O  O22  1  0.22550200  0.32710400  0.30090400  1
  O  O23  1  0.27449600  0.41223300  0.46756500  1
  O  O24  1  0.43731600  0.83767300  0.76092700  1
  O  O25  1  0.06942900  0.87259600  0.08037300  1
  O  O26  1  0.49746100  0.92521700  0.92339000  1
  O  O27  1  0.13931000  0.94632300  0.24965200  1
  O  O28  1  0.24779400  0.14509900  0.58461800  1
  O  O29  1  0.15540200  0.09846200  0.41187200  1
  O  O30  1  0.05943000  0.59263400  0.18932500  1
  O  O31  1  0.37363400  0.57170900  0.86855800  1
  O  O32  1  0.11213700  0.66872100  0.35626900  1
  O  O33  1  0.25660000  0.18499600  0.82590100  1
  O  O34  1  0.14893500  0.59505900  0.62009800  1
  O  O35  1  0.07944000  0.83581500  0.84506200  1
loop_
_geom_bond_atom_site_label_1
_geom_bond_atom_site_label_2
_geom_bond_distance
_geom_bond_site_symmetry_2
Li0 O9 1.899511 1_555
Li0 O15 1.983213 1_555
Li0 O29 2.039842 1_655
Li0 O1 2.099348 1_555
Li1 O16 1.949950 1_555
Li1 O6 1.953668 1_555
Li1 O32 2.020526 1_655
Li1 O12 2.095127 1_555
Li2 O35 1.965920 1_655
Li2 O25 1.988440 1_656
Li2 O26 2.073287 1_555
Li2 O8 2.160998 1_565
Li3 O1 1.968920 1_555
Li3 O22 1.996036 1_555
Li3 O5 2.027109 1_555
Li3 O16 2.138885 1_555
Li4 O8 1.923251 1_454
Li4 O18 1.966088 1_555
Li4 O11 2.035900 1_555
Li4 O0 2.039338 1_455
Li5 O28 1.936898 1_555
Li5 O33 2.005870 1_555
Li5 O19 2.036592 1_555
Li5 O10 2.137926 1_555
Li6 O17 1.916638 1_454
Li6 O14 1.955461 1_555
Li6 O30 2.039147 1_555
Li6 O25 2.096095 1_555
Li7 O24 1.923675 1_555
Li7 O34 1.927345 1_555
Li7 O13 2.029793 1_555
Li7 O31 2.316194 1_555
Li8 O19 2.033853 1_555
Li8 O3 2.044609 1_455
Li8 O34 2.080344 1_555
Li8 O23 2.120669 1_555
Mn0 O18 2.017890 1_555
Mn0 O5 2.066507 1_455
Mn0 O30 2.170446 1_555
Mn0 O22 2.249580 1_555
Mn0 O0 2.316690 1_455
Mn1 O7 1.930262 1_545
Mn1 O3 2.027322 1_555
Mn1 O15 2.044080 1_555
Mn1 O28 2.049259 1_655
Mn1 O10 2.073936 1_555
Mn2 O16 2.093448 1_555
Mn2 O14 2.146808 1_555
Mn2 O2 2.146855 1_555
Mn2 O30 2.148964 1_655
Mn2 O5 2.239852 1_555
Mn3 O17 2.047914 1_555
Mn3 O13 2.152126 1_555
Mn3 O31 2.154850 1_655
Mn3 O4 2.178633 1_555
Mn3 O35 2.231773 1_655
Mn4 O1 2.062406 1_555
Mn4 O23 2.083166 1_555
Mn4 O12 2.136400 1_555
Mn4 O3 2.168210 1_555
Mn4 O15 2.315429 1_555
Mn5 O25 2.056475 1_555
Mn5 O2 2.072245 1_555
Mn5 O26 2.091622 1_554
Mn5 O11 2.176243 1_565
Mn5 O14 2.282655 1_555
Mn6 O24 2.041061 1_555
Mn6 O7 2.060519 1_555
Mn6 O35 2.141457 1_655
Mn6 O13 2.220983 1_555
Mn6 O10 2.363473 1_565
Mn7 O8 2.083078 1_555
Mn7 O11 2.113163 1_556
Mn7 O26 2.166114 1_545
Mn7 O33 2.198771 1_555
Mn7 O21 2.215334 1_555
Mn8 O27 1.964374 1_545
Mn8 O9 2.023487 1_555
Mn8 O0 2.041743 1_455
Mn8 O22 2.050995 1_555
Mn8 O29 2.094949 1_555
Mn9 O34 2.099132 1_555
Mn9 O12 2.147971 1_555
Mn9 O32 2.148773 1_555
Mn9 O20 2.148904 1_555
Mn9 O23 2.333540 1_555
Mn10 O21 1.977510 1_555
Mn10 O4 1.988254 1_455
Mn10 O31 2.001105 1_555
Mn10 O33 2.058376 1_555
Mn10 O19 2.213259 1_555
Mn11 O6 2.021726 1_455
Mn11 O20 2.082740 1_555
Mn11 O27 2.102980 1_555
Mn11 O29 2.249061 1_565
Mn11 O32 2.256566 1_555
B0 O25 1.375256 1_655
B0 O2 1.378109 1_555
B0 O27 1.410318 1_655
B1 O9 1.363757 1_555
B1 O11 1.390335 1_555
B1 O0 1.409908 1_555
B2 O34 1.380161 1_655
B2 O13 1.393352 1_555
B2 O12 1.404718 1_555
B3 O19 1.368187 1_555
B3 O4 1.381828 1_555
B3 O3 1.430887 1_555
B4 O18 1.353597 1_555
B4 O5 1.394876 1_555
B4 O21 1.416475 1_554
B5 O6 1.346983 1_555
B5 O20 1.383204 1_555
B5 O7 1.426090 1_555
B6 O28 1.367401 1_555
B6 O29 1.400549 1_555
B6 O15 1.409608 1_555
B7 O16 1.381561 1_555
B7 O32 1.391767 1_555
B7 O30 1.406367 1_555
B8 O17 1.354571 1_555
B8 O14 1.393921 1_556
B8 O31 1.429248 1_555
B9 O1 1.369719 1_455
B9 O23 1.384570 1_555
B9 O22 1.431027 1_555
B10 O24 1.355169 1_555
B10 O26 1.402115 1_555
B10 O35 1.408239 1_555
B11 O8 1.364935 1_455
B11 O10 1.399228 1_455
B11 O33 1.420639 1_555
