# generated using pymatgen
data_Li2CoPO4F
_symmetry_space_group_name_H-M   'P 1'
_cell_length_a   5.13051500
_cell_length_b   11.36874300
_cell_length_c   12.97056900
_cell_angle_alpha   90.00000000
_cell_angle_beta   90.00000000
_cell_angle_gamma   90.00000000
_symmetry_Int_Tables_number   1
_chemical_formula_structural   Li2CoPO4F
_chemical_formula_sum   'Li16 Co8 P8 O32 F8'
_cell_volume   756.54094756
_cell_formula_units_Z   8
loop_
 _symmetry_equiv_pos_site_id
 _symmetry_equiv_pos_as_xyz
  1  'x, y, z'
loop_
 _atom_site_type_symbol
 _atom_site_label
 _atom_site_symmetry_multiplicity
 _atom_site_fract_x
 _atom_site_fract_y
 _atom_site_fract_z
 _atom_site_occupancy
  Li  Li0  1  0.22356100  0.17841200  0.24064500  1
  Li  Li1  1  0.22356100  0.67841200  0.75935500  1
  Li  Li2  1  0.23431800  0.39929700  0.63080600  1
  Li  Li3  1  0.23431800  0.89929700  0.36919400  1
  Li  Li4  1  0.26568200  0.39929700  0.13080600  1
  Li  Li5  1  0.26568200  0.89929700  0.86919400  1
  Li  Li6  1  0.27643900  0.67841200  0.25935500  1
  Li  Li7  1  0.27643900  0.17841200  0.74064500  1
  Li  Li8  1  0.72356100  0.82158800  0.25935500  1
  Li  Li9  1  0.72356100  0.32158800  0.74064500  1
  Li  Li10  1  0.73431800  0.10070300  0.13080600  1
  Li  Li11  1  0.73431800  0.60070300  0.86919400  1
  Li  Li12  1  0.76568200  0.60070300  0.36919400  1
  Li  Li13  1  0.76568200  0.10070300  0.63080600  1
  Li  Li14  1  0.77643900  0.32158800  0.24064500  1
  Li  Li15  1  0.77643900  0.82158800  0.75935500  1
  Co  Co0  1  0.21752300  0.66935700  0.48987700  1
  Co  Co1  1  0.21752300  0.16935700  0.51012300  1
  Co  Co2  1  0.28247700  0.16935700  0.01012300  1
  Co  Co3  1  0.28247700  0.66935700  0.98987700  1
  Co  Co4  1  0.71752300  0.33064300  0.01012300  1
  Co  Co5  1  0.71752300  0.83064300  0.98987700  1
  Co  Co6  1  0.78247700  0.33064300  0.51012300  1
  Co  Co7  1  0.78247700  0.83064300  0.48987700  1
  P  P0  1  0.20584600  0.91378300  0.12671200  1
  P  P1  1  0.20584600  0.41378300  0.87328800  1
  P  P2  1  0.29415400  0.41378300  0.37328800  1
  P  P3  1  0.29415400  0.91378300  0.62671200  1
  P  P4  1  0.70584600  0.08621700  0.37328800  1
  P  P5  1  0.70584600  0.58621700  0.62671200  1
  P  P6  1  0.79415400  0.58621700  0.12671200  1
  P  P7  1  0.79415400  0.08621700  0.87328800  1
  O  O0  1  0.09857400  0.60006800  0.11834200  1
  O  O1  1  0.09857400  0.10006800  0.88165800  1
  O  O2  1  0.16981900  0.35339400  0.47063300  1
  O  O3  1  0.16981900  0.85339400  0.52936700  1
  O  O4  1  0.18513500  0.35705400  0.27538900  1
  O  O5  1  0.18513500  0.85705400  0.72461100  1
  O  O6  1  0.22051100  0.04645400  0.62473500  1
  O  O7  1  0.22051100  0.54645400  0.37526500  1
  O  O8  1  0.27948900  0.04645400  0.12473500  1
  O  O9  1  0.27948900  0.54645400  0.87526500  1
  O  O10  1  0.31486500  0.85705400  0.22461100  1
  O  O11  1  0.31486500  0.35705400  0.77538900  1
  O  O12  1  0.33018100  0.35339400  0.97063300  1
  O  O13  1  0.33018100  0.85339400  0.02936700  1
  O  O14  1  0.40142600  0.60006800  0.61834200  1
  O  O15  1  0.40142600  0.10006800  0.38165800  1
  O  O16  1  0.59857400  0.89993200  0.61834200  1
  O  O17  1  0.59857400  0.39993200  0.38165800  1
  O  O18  1  0.66981900  0.64660600  0.02936700  1
  O  O19  1  0.66981900  0.14660600  0.97063300  1
  O  O20  1  0.68513500  0.64294600  0.22461100  1
  O  O21  1  0.68513500  0.14294600  0.77538900  1
  O  O22  1  0.72051100  0.45354600  0.12473500  1
  O  O23  1  0.72051100  0.95354600  0.87526500  1
  O  O24  1  0.77948900  0.95354600  0.37526500  1
  O  O25  1  0.77948900  0.45354600  0.62473500  1
  O  O26  1  0.81486500  0.14294600  0.27538900  1
  O  O27  1  0.81486500  0.64294600  0.72461100  1
  O  O28  1  0.83018100  0.14660600  0.47063300  1
  O  O29  1  0.83018100  0.64660600  0.52936700  1
  O  O30  1  0.90142600  0.89993200  0.11834200  1
  O  O31  1  0.90142600  0.39993200  0.88165800  1
  F  F0  1  0.00000000  0.25000000  0.10033800  1
  F  F1  1  0.00000000  0.25000000  0.63826600  1
  F  F2  1  0.00000000  0.75000000  0.36173400  1
  F  F3  1  0.00000000  0.75000000  0.89966200  1
  F  F4  1  0.50000000  0.25000000  0.60033800  1
  F  F5  1  0.50000000  0.25000000  0.13826600  1
  F  F6  1  0.50000000  0.75000000  0.39966200  1
  F  F7  1  0.50000000  0.75000000  0.86173400  1
loop_
_geom_bond_atom_site_label_1
_geom_bond_atom_site_label_2
_geom_bond_distance
_geom_bond_site_symmetry_2
Li0 O4 2.089653 1_555
Li0 O8 2.143173 1_555
Li0 O26 2.182273 1_455
Li0 O15 2.229649 1_555
Li1 O5 2.089653 1_555
Li1 O9 2.143173 1_555
Li1 O27 2.182273 1_455
Li1 O14 2.229649 1_555
Li2 O11 1.979458 1_555
Li2 O2 2.167485 1_555
Li2 O25 2.414918 1_455
Li2 O14 2.443574 1_555
Li3 O10 1.979458 1_555
Li3 O3 2.167485 1_555
Li3 O24 2.414918 1_455
Li3 O15 2.443574 1_565
Li4 O4 1.979458 1_555
Li4 O12 2.167485 1_554
Li4 O22 2.414918 1_555
Li4 O0 2.443574 1_555
Li5 O5 1.979458 1_555
Li5 O13 2.167485 1_556
Li5 O23 2.414918 1_555
Li5 O1 2.443574 1_565
Li6 O10 2.089653 1_555
Li6 O7 2.143173 1_555
Li6 O20 2.182273 1_555
Li6 O0 2.229649 1_555
Li7 O11 2.089653 1_555
Li7 O6 2.143173 1_555
Li7 O21 2.182273 1_555
Li7 O1 2.229649 1_555
Li8 O20 2.089653 1_555
Li8 O24 2.143173 1_555
Li8 O10 2.182273 1_555
Li8 O30 2.229649 1_555
Li9 O21 2.089653 1_555
Li9 O25 2.143173 1_555
Li9 O11 2.182273 1_555
Li9 O31 2.229649 1_555
Li10 O26 1.979458 1_555
Li10 O19 2.167485 1_554
Li10 O8 2.414918 1_555
Li10 O30 2.443574 1_545
Li11 O27 1.979458 1_555
Li11 O18 2.167485 1_556
Li11 O9 2.414918 1_555
Li11 O31 2.443574 1_555
Li12 O20 1.979458 1_555
Li12 O29 2.167485 1_555
Li12 O7 2.414918 1_655
Li12 O17 2.443574 1_555
Li13 O21 1.979458 1_555
Li13 O28 2.167485 1_555
Li13 O6 2.414918 1_655
Li13 O16 2.443574 1_545
Li14 O26 2.089653 1_555
Li14 O22 2.143173 1_555
Li14 O4 2.182273 1_655
Li14 O17 2.229649 1_555
Li15 O27 2.089653 1_555
Li15 O23 2.143173 1_555
Li15 O5 2.182273 1_655
Li15 O16 2.229649 1_555
Co0 O7 2.040215 1_555
Co0 O29 2.068447 1_455
Co0 O14 2.070550 1_555
Co0 F6 2.076078 1_555
Co0 O3 2.167913 1_555
Co0 F2 2.201941 1_555
Co1 O6 2.040215 1_555
Co1 O28 2.068447 1_455
Co1 O15 2.070550 1_555
Co1 F4 2.076078 1_555
Co1 O2 2.167913 1_555
Co1 F1 2.201941 1_555
Co2 O8 2.040215 1_555
Co2 O19 2.068447 1_554
Co2 O1 2.070550 1_554
Co2 F0 2.076078 1_555
Co2 O12 2.167913 1_554
Co2 F5 2.201941 1_555
Co3 O9 2.040215 1_555
Co3 O18 2.068447 1_556
Co3 O0 2.070550 1_556
Co3 F3 2.076078 1_555
Co3 O13 2.167913 1_556
Co3 F7 2.201941 1_555
Co4 O22 2.040215 1_555
Co4 O12 2.068447 1_554
Co4 O31 2.070550 1_554
Co4 F0 2.076078 1_655
Co4 O19 2.167913 1_554
Co4 F5 2.201941 1_555
Co5 O23 2.040215 1_555
Co5 O13 2.068447 1_556
Co5 O30 2.070550 1_556
Co5 F3 2.076078 1_655
Co5 O18 2.167913 1_556
Co5 F7 2.201941 1_555
Co6 O25 2.040215 1_555
Co6 O2 2.068447 1_655
Co6 O17 2.070550 1_555
Co6 F4 2.076078 1_555
Co6 O28 2.167913 1_555
Co6 F1 2.201941 1_655
Co7 O24 2.040215 1_555
Co7 O3 2.068447 1_655
Co7 O16 2.070550 1_555
Co7 F6 2.076078 1_555
Co7 O29 2.167913 1_555
Co7 F2 2.201941 1_655
O0 P6 1.573499 1_455
O1 P7 1.573499 1_455
O2 P2 1.572411 1_555
O3 P3 1.572411 1_555
O4 P2 1.530096 1_555
O5 P3 1.530096 1_555
O6 P3 1.555116 1_545
O7 P2 1.555116 1_555
O8 P0 1.555116 1_545
O9 P1 1.555116 1_555
O10 P0 1.530096 1_555
O11 P1 1.530096 1_555
O12 P1 1.572411 1_555
O13 P0 1.572411 1_555
O14 P5 1.573499 1_555
O15 P4 1.573499 1_555
O16 P3 1.573499 1_555
O17 P2 1.573499 1_555
O18 P6 1.572411 1_555
O19 P7 1.572411 1_555
O20 P6 1.530096 1_555
O21 P7 1.530096 1_555
O22 P6 1.555116 1_555
O23 P7 1.555116 1_565
O24 P4 1.555116 1_565
O25 P5 1.555116 1_555
O26 P4 1.530096 1_555
O27 P5 1.530096 1_555
O28 P4 1.572411 1_555
O29 P5 1.572411 1_555
O30 P0 1.573499 1_655
O31 P1 1.573499 1_655
F0 Li4 2.212480 1_555
F0 Li10 2.212480 1_455
F0 Li14 2.299966 1_455
F0 Li0 2.299966 1_555
F1 Li2 2.082180 1_555
F1 Li13 2.082180 1_455
F1 Li7 2.106475 1_555
F1 Li9 2.106475 1_455
F2 Li3 2.082180 1_555
F2 Li12 2.082180 1_455
F2 Li6 2.106475 1_555
F2 Li8 2.106475 1_455
F3 Li11 2.212480 1_455
F3 Li5 2.212480 1_555
F3 Li15 2.299966 1_455
F3 Li1 2.299966 1_555
F4 Li13 2.212480 1_555
F4 Li2 2.212480 1_555
F4 Li9 2.299966 1_555
F4 Li7 2.299966 1_555
F5 Li10 2.082180 1_555
F5 Li4 2.082180 1_555
F5 Li0 2.106475 1_555
F5 Li14 2.106475 1_555
F6 Li12 2.212480 1_555
F6 Li3 2.212480 1_555
F6 Li6 2.299966 1_555
F6 Li8 2.299966 1_555
F7 Li5 2.082180 1_555
F7 Li11 2.082180 1_555
F7 Li15 2.106475 1_555
F7 Li1 2.106475 1_555
