# generated using pymatgen
data_Sc5Cu5O13
_symmetry_space_group_name_H-M   'P 1'
_cell_length_a   5.82982000
_cell_length_b   6.00210724
_cell_length_c   8.80624802
_cell_angle_alpha   71.20366875
_cell_angle_beta   70.70068053
_cell_angle_gamma   80.74370479
_symmetry_Int_Tables_number   1
_chemical_formula_structural   Sc5Cu5O13
_chemical_formula_sum   'Sc5 Cu5 O13'
_cell_volume   274.80539763
_cell_formula_units_Z   1
loop_
 _symmetry_equiv_pos_site_id
 _symmetry_equiv_pos_as_xyz
  1  'x, y, z'
loop_
 _atom_site_type_symbol
 _atom_site_label
 _atom_site_symmetry_multiplicity
 _atom_site_fract_x
 _atom_site_fract_y
 _atom_site_fract_z
 _atom_site_occupancy
  Sc  Sc0  1  0.70025600  0.46212200  0.11048500  1
  Sc  Sc1  1  0.10160700  0.50799500  0.29705000  1
  Sc  Sc2  1  0.49769300  0.50502700  0.49985900  1
  Sc  Sc3  1  0.89846300  0.54741200  0.69114900  1
  Sc  Sc4  1  0.30215500  0.46145000  0.90355300  1
  Cu  Cu0  1  0.43073900  0.00010900  0.17416100  1
  Cu  Cu1  1  0.78790700  0.00317400  0.40941300  1
  Cu  Cu2  1  0.19689000  0.00911600  0.60533200  1
  Cu  Cu3  1  0.59539400  0.99594300  0.79528100  1
  Cu  Cu4  1  0.99828100  0.99989800  0.01350600  1
  O  O0  1  0.72554300  0.05204500  0.20546700  1
  O  O1  1  0.01251600  0.66445400  0.06485900  1
  O  O2  1  0.35728400  0.32422100  0.14501200  1
  O  O3  1  0.78177000  0.32896000  0.34954400  1
  O  O4  1  0.42780100  0.66943800  0.26048000  1
  O  O5  1  0.82148900  0.67998000  0.45270800  1
  O  O6  1  0.18170300  0.33867900  0.53571400  1
  O  O7  1  0.86037900  0.94805500  0.61343800  1
  O  O8  1  0.24747600  0.67974700  0.66726700  1
  O  O9  1  0.60238800  0.33029900  0.72195100  1
  O  O10  1  0.33366300  0.04711900  0.97460600  1
  O  O11  1  0.96753700  0.33473500  0.91886500  1
  O  O12  1  0.60089400  0.66329900  0.87958500  1
loop_
_geom_bond_atom_site_label_1
_geom_bond_atom_site_label_2
_geom_bond_distance
_geom_bond_site_symmetry_2
Cu0 O2 1.875246 1_555
Cu0 O4 1.883444 1_545
Cu0 O0 1.915169 1_555
Cu0 O10 1.942834 1_554
Cu1 O5 1.843164 1_545
Cu1 O3 1.851611 1_555
Cu1 O0 1.871273 1_555
Cu1 O7 1.894685 1_545
Cu2 O6 1.869366 1_555
Cu2 O8 1.875248 1_545
Cu2 O7 2.027299 1_445
Cu3 O10 1.866927 1_565
Cu3 O7 1.884668 1_555
Cu3 O12 1.891672 1_555
Cu3 O9 1.902599 1_565
Cu4 O1 1.910335 1_655
Cu4 O11 1.915523 1_564
Cu4 O10 1.921855 1_664
Cu4 O0 1.971781 1_565
O0 Sc0 2.327571 1_555
O1 Sc1 2.154128 1_555
O1 Sc0 2.205326 1_455
O1 Sc4 2.285089 1_554
O2 Sc1 2.081981 1_555
O2 Sc4 2.130967 1_554
O2 Sc0 2.178018 1_555
O3 Sc2 2.121568 1_555
O3 Sc1 2.144727 1_655
O3 Sc0 2.179763 1_555
O4 Sc1 2.155422 1_555
O4 Sc2 2.163678 1_555
O4 Sc0 2.202847 1_555
O5 Sc1 2.121616 1_655
O5 Sc3 2.162139 1_555
O5 Sc2 2.162639 1_555
O6 Sc2 2.119957 1_555
O6 Sc1 2.188094 1_555
O6 Sc3 2.261716 1_455
O7 Sc3 2.273416 1_555
O8 Sc2 2.117460 1_555
O8 Sc4 2.166851 1_555
O8 Sc3 2.223616 1_455
O9 Sc2 2.135158 1_555
O9 Sc4 2.181401 1_555
O9 Sc3 2.222021 1_555
O10 Sc4 2.352871 1_555
O11 Sc3 2.128802 1_555
O11 Sc0 2.137801 1_556
O11 Sc4 2.153936 1_655
O12 Sc3 2.167875 1_555
O12 Sc4 2.194652 1_555
O12 Sc0 2.213479 1_556
