# generated using pymatgen
data_Li6V3P8O29
_symmetry_space_group_name_H-M   'P 1'
_cell_length_a   9.79732500
_cell_length_b   9.81368839
_cell_length_c   13.90405239
_cell_angle_alpha   90.15667852
_cell_angle_beta   89.96985225
_cell_angle_gamma   119.79500394
_symmetry_Int_Tables_number   1
_chemical_formula_structural   Li6V3P8O29
_chemical_formula_sum   'Li12 V6 P16 O58'
_cell_volume   1160.12127919
_cell_formula_units_Z   2
loop_
 _symmetry_equiv_pos_site_id
 _symmetry_equiv_pos_as_xyz
  1  'x, y, z'
loop_
 _atom_site_type_symbol
 _atom_site_label
 _atom_site_symmetry_multiplicity
 _atom_site_fract_x
 _atom_site_fract_y
 _atom_site_fract_z
 _atom_site_occupancy
  Li  Li0  1  0.31373800  0.08943500  0.93941600  1
  Li  Li1  1  0.66349300  0.33180600  0.11736700  1
  Li  Li2  1  0.90886900  0.22235400  0.93901900  1
  Li  Li3  1  0.77489700  0.68555400  0.93827900  1
  Li  Li4  1  0.09920700  0.33502200  0.55745400  1
  Li  Li5  1  0.90229200  0.66745300  0.43793200  1
  Li  Li6  1  0.22761400  0.32305800  0.06292600  1
  Li  Li7  1  0.09491400  0.77353300  0.06015600  1
  Li  Li8  1  0.23781900  0.90571400  0.55838100  1
  Li  Li9  1  0.66523800  0.76878800  0.55682700  1
  Li  Li10  1  0.67627500  0.90415700  0.06240800  1
  Li  Li11  1  0.01172300  0.03442800  0.49207800  1
  V  V0  1  0.99997600  0.43062200  0.74937000  1
  V  V1  1  0.00183300  0.56377700  0.25016900  1
  V  V2  1  0.43620700  0.43284000  0.25421400  1
  V  V3  1  0.56468700  0.56727500  0.74809900  1
  V  V4  1  0.43309400  0.00005600  0.74838100  1
  V  V5  1  0.56709400  0.00225600  0.25595700  1
  P  P0  1  0.31832100  0.08855400  0.15829900  1
  P  P1  1  0.31029000  0.22611200  0.65809500  1
  P  P2  1  0.77462600  0.08443000  0.65785400  1
  P  P3  1  0.66668200  0.33339000  0.87294700  1
  P  P4  1  0.67009200  0.33660200  0.37212800  1
  P  P5  1  0.90875900  0.22725100  0.15844600  1
  P  P6  1  0.08744800  0.31281900  0.34373100  1
  P  P7  1  0.77095400  0.68001700  0.15629800  1
  P  P8  1  0.23353100  0.32015900  0.84430900  1
  P  P9  1  0.91211800  0.68297600  0.65732400  1
  P  P10  1  0.08823000  0.76743600  0.84132800  1
  P  P11  1  0.33198800  0.66653700  0.62664800  1
  P  P12  1  0.33576200  0.66705500  0.12883300  1
  P  P13  1  0.22542300  0.91204200  0.34373500  1
  P  P14  1  0.68534100  0.77299300  0.34174200  1
  P  P15  1  0.67987900  0.91278000  0.84337000  1
  O  O0  1  0.21910800  0.99180100  0.43446100  1
  O  O1  1  0.33864000  0.08329600  0.65947600  1
  O  O2  1  0.24556000  0.24623800  0.93624100  1
  O  O3  1  0.33336500  0.25219800  0.15551900  1
  O  O4  1  0.48438900  0.10924100  0.17293100  1
  O  O5  1  0.51263400  0.18672000  0.83424000  1
  O  O6  1  0.62056200  0.08734600  0.66886500  1
  O  O7  1  0.75343900  0.99790600  0.93585600  1
  O  O8  1  0.74626000  0.07846800  0.15574800  1
  O  O9  1  0.52202400  0.33378500  0.32456500  1
  O  O10  1  0.46715900  0.37900400  0.66963700  1
  O  O11  1  0.67140200  0.18945100  0.32688600  1
  O  O12  1  0.66696700  0.33361200  0.98157000  1
  O  O13  1  0.67117400  0.34347500  0.47866100  1
  O  O14  1  0.81360400  0.32467500  0.83485700  1
  O  O15  1  0.62730000  0.51437000  0.17087500  1
  O  O16  1  0.67320300  0.48677000  0.83383700  1
  O  O17  1  0.91724900  0.25519500  0.65991000  1
  O  O18  1  0.99590500  0.20686600  0.24998900  1
  O  O19  1  0.00758400  0.22521300  0.43385700  1
  O  O20  1  0.00329600  0.24763200  0.06867500  1
  O  O21  1  0.88428000  0.37092300  0.17464600  1
  O  O22  1  0.81646000  0.48952700  0.32990000  1
  O  O23  1  0.08383000  0.33540300  0.84262600  1
  O  O24  1  0.90601000  0.52590900  0.67168000  1
  O  O25  1  0.74425900  0.66210300  0.65896400  1
  O  O26  1  0.21260100  0.20388800  0.75725000  1
  O  O27  1  0.20644100  0.21437000  0.57578400  1
  O  O28  1  0.77427100  0.77148000  0.43064600  1
  O  O29  1  0.25426200  0.34066600  0.33626100  1
  O  O30  1  0.08457200  0.46811000  0.33203300  1
  O  O31  1  0.92071400  0.66551700  0.15394800  1
  O  O32  1  0.18996900  0.51066200  0.66757200  1
  O  O33  1  0.09820700  0.61786700  0.82274200  1
  O  O34  1  0.99939000  0.75585200  0.93223100  1
  O  O35  1  0.99894700  0.77068900  0.56796800  1
  O  O36  1  0.99850500  0.79097700  0.75081700  1
  O  O37  1  0.07940300  0.74635000  0.33815900  1
  O  O38  1  0.33713600  0.51799100  0.16940900  1
  O  O39  1  0.38181200  0.47998700  0.82481200  1
  O  O40  1  0.18345900  0.66524400  0.17052800  1
  O  O41  1  0.33156600  0.66655800  0.02152600  1
  O  O42  1  0.33224400  0.66708400  0.51918100  1
  O  O43  1  0.31940700  0.80984000  0.66807800  1
  O  O44  1  0.52741000  0.62007700  0.33010900  1
  O  O45  1  0.48900100  0.67939900  0.66759000  1
  O  O46  1  0.25246300  0.91607500  0.84155100  1
  O  O47  1  0.20984500  0.00243000  0.25008700  1
  O  O48  1  0.24169600  0.99476100  0.06846900  1
  O  O49  1  0.37741600  0.90425400  0.32954400  1
  O  O50  1  0.48310400  0.81808500  0.17041900  1
  O  O51  1  0.52014000  0.90232200  0.82327300  1
  O  O52  1  0.66454300  0.74825800  0.84099100  1
  O  O53  1  0.75486800  0.75791700  0.06711100  1
  O  O54  1  0.79186500  0.78854500  0.24810100  1
  O  O55  1  0.66372900  0.91593400  0.33982400  1
  O  O56  1  0.78815600  0.99381300  0.57507200  1
  O  O57  1  0.79655200  0.00838900  0.75687200  1
loop_
_geom_bond_atom_site_label_1
_geom_bond_atom_site_label_2
_geom_bond_distance
_geom_bond_site_symmetry_2
Li0 O2 1.959074 1_555
Li0 O48 1.984241 1_546
Li0 O46 2.019795 1_545
Li0 O5 2.236743 1_555
Li1 O12 1.888390 1_554
Li1 O15 2.124372 1_555
Li1 O21 2.153054 1_555
Li1 O4 2.155349 1_555
Li2 O7 1.959262 1_545
Li2 O20 1.984573 1_656
Li2 O23 2.020199 1_655
Li2 O14 2.217591 1_555
Li3 O34 1.952612 1_555
Li3 O53 1.970453 1_556
Li3 O52 2.011135 1_555
Li3 O16 2.227452 1_555
Li4 O27 1.951630 1_555
Li4 O19 1.987579 1_555
Li4 O17 2.106329 1_455
Li4 O32 2.137704 1_555
Li5 O28 1.974556 1_555
Li5 O37 2.050140 1_655
Li5 O35 2.056810 1_555
Li5 O22 2.130740 1_555
Li6 O20 1.941061 1_555
Li6 O2 1.956030 1_554
Li6 O3 1.984136 1_555
Li6 O38 2.224683 1_555
Li7 O48 1.921184 1_555
Li7 O34 1.976954 1_454
Li7 O31 1.986054 1_455
Li7 O40 2.272331 1_555
Li8 O0 1.969326 1_555
Li8 O35 2.041917 1_455
Li8 O1 2.065413 1_565
Li8 O43 2.146413 1_555
Li9 O56 1.935369 1_555
Li9 O28 2.046965 1_555
Li9 O25 2.127695 1_555
Li9 O45 2.149870 1_555
Li10 O53 1.937944 1_555
Li10 O7 1.957129 1_554
Li10 O8 1.975816 1_565
Li10 O50 2.228429 1_555
Li11 O19 2.060643 1_555
Li11 O27 2.180708 1_555
Li11 O56 2.328171 1_445
Li11 O0 2.405454 1_545
O0 P13 1.500139 1_555
O1 P1 1.558489 1_555
O1 V4 1.951845 1_555
O2 P8 1.504729 1_555
O3 P0 1.538635 1_555
O3 V2 2.062532 1_555
O4 P0 1.549731 1_555
O4 V5 1.986101 1_555
O5 P3 1.573851 1_555
O5 V4 1.989590 1_555
O6 P2 1.531421 1_555
O6 V4 1.941394 1_555
O7 P15 1.505880 1_555
O8 P5 1.535440 1_555
O8 V5 2.068902 1_555
O9 P4 1.582278 1_555
O9 V2 1.851213 1_555
O10 P1 1.531778 1_555
O10 V3 1.937134 1_555
O11 P4 1.579467 1_555
O11 V5 1.875423 1_555
O12 P3 1.510298 1_555
O13 P4 1.482395 1_555
O14 P3 1.575147 1_555
O14 V0 1.986376 1_555
O15 P7 1.546706 1_555
O15 V2 2.000531 1_555
O16 P3 1.573008 1_555
O16 V3 2.004208 1_555
O17 P2 1.560249 1_555
O17 V0 1.941805 1_555
O18 P5 1.600418 1_555
O18 P6 1.628320 1_655
O19 P6 1.502668 1_555
O20 P5 1.507272 1_455
O21 P5 1.558998 1_555
O21 V1 1.958380 1_655
O22 P4 1.587004 1_555
O22 V1 1.935325 1_655
O23 P8 1.546659 1_555
O23 V0 2.000019 1_455
O24 P9 1.526224 1_555
O24 V0 1.936733 1_555
O25 P9 1.553154 1_555
O25 V3 1.968284 1_555
O26 P8 1.602954 1_555
O26 P1 1.630059 1_555
O27 P1 1.497410 1_555
O28 P14 1.517050 1_555
O29 P6 1.520731 1_555
O29 V2 1.923084 1_555
O30 P6 1.547188 1_555
O30 V1 1.896648 1_555
O31 P7 1.543226 1_555
O31 V1 2.053146 1_655
O32 P11 1.577491 1_555
O32 V0 1.981160 1_455
O33 P10 1.539912 1_555
O33 V0 1.891264 1_455
O34 P10 1.506419 1_655
O35 P9 1.511698 1_555
O36 P10 1.616927 1_655
O36 P9 1.622237 1_555
O37 P13 1.544119 1_555
O37 V1 1.979983 1_555
O38 P12 1.575609 1_555
O38 V2 1.960471 1_555
O39 P8 1.543238 1_555
O39 V3 1.886619 1_555
O40 P12 1.592401 1_555
O40 V1 1.904523 1_555
O41 P12 1.492518 1_555
O42 P11 1.494247 1_555
O43 P11 1.578782 1_555
O43 V4 1.973706 1_565
O44 P14 1.537422 1_555
O44 V2 1.909718 1_555
O45 P11 1.585541 1_555
O45 V3 1.957591 1_555
O46 P10 1.544106 1_555
O46 V4 2.010772 1_565
O47 P0 1.607603 1_555
O47 P13 1.626847 1_545
O48 P0 1.509571 1_565
O49 P13 1.541097 1_555
O49 V5 1.911137 1_565
O50 P12 1.576347 1_555
O50 V5 1.967114 1_565
O51 P15 1.542260 1_555
O51 V4 1.884364 1_565
O52 P15 1.545679 1_555
O52 V3 2.010424 1_555
O53 P7 1.507366 1_555
O54 P7 1.606736 1_555
O54 P14 1.627586 1_555
O55 P14 1.519449 1_555
O55 V5 1.943554 1_565
O56 P2 1.498202 1_565
O57 P15 1.603831 1_545
O57 P2 1.632087 1_555
