# generated using pymatgen
data_Ti3NbCu2(PO4)6
_symmetry_space_group_name_H-M   'P 1'
_cell_length_a   8.70457104
_cell_length_b   8.70457104
_cell_length_c   8.70457128
_cell_angle_alpha   60.13465480
_cell_angle_beta   60.13465480
_cell_angle_gamma   60.13465860
_symmetry_Int_Tables_number   1
_chemical_formula_structural   Ti3NbCu2(PO4)6
_chemical_formula_sum   'Ti3 Nb1 Cu2 P6 O24'
_cell_volume   467.78887216
_cell_formula_units_Z   1
loop_
 _symmetry_equiv_pos_site_id
 _symmetry_equiv_pos_as_xyz
  1  'x, y, z'
loop_
 _atom_site_type_symbol
 _atom_site_label
 _atom_site_symmetry_multiplicity
 _atom_site_fract_x
 _atom_site_fract_y
 _atom_site_fract_z
 _atom_site_occupancy
  Ti  Ti0  1  0.14241400  0.14241400  0.14241400  1
  Ti  Ti1  1  0.35832300  0.35832300  0.35832300  1
  Ti  Ti2  1  0.64246000  0.64246000  0.64246000  1
  Nb  Nb0  1  0.85879000  0.85879000  0.85879000  1
  Cu  Cu0  1  0.00235100  0.00235100  0.00235100  1
  Cu  Cu1  1  0.49995400  0.49995400  0.49995400  1
  P  P0  1  0.74855000  0.04201100  0.45528200  1
  P  P1  1  0.04201100  0.45528200  0.74855000  1
  P  P2  1  0.53504100  0.25549200  0.96057200  1
  P  P3  1  0.96057200  0.53504100  0.25549200  1
  P  P4  1  0.25549200  0.96057200  0.53504100  1
  P  P5  1  0.45528200  0.74855000  0.04201100  1
  O  O0  1  0.30422400  0.12540600  0.49936500  1
  O  O1  1  0.49936500  0.30422400  0.12540600  1
  O  O2  1  0.91598900  0.05888500  0.26999800  1
  O  O3  1  0.12540600  0.49936500  0.30422400  1
  O  O4  1  0.80195300  0.00382500  0.62033400  1
  O  O5  1  0.58379200  0.22892100  0.44036300  1
  O  O6  1  0.05888500  0.26999800  0.91598900  1
  O  O7  1  0.22892100  0.44036300  0.58379200  1
  O  O8  1  0.37497300  0.19757900  0.99928300  1
  O  O9  1  0.44036300  0.58379200  0.22892100  1
  O  O10  1  0.72533800  0.08854800  0.94258600  1
  O  O11  1  0.99928300  0.37497300  0.19757900  1
  O  O12  1  0.00382500  0.62033400  0.80195300  1
  O  O13  1  0.26999800  0.91598900  0.05888500  1
  O  O14  1  0.55727500  0.41713700  0.77176500  1
  O  O15  1  0.62033400  0.80195300  0.00382500  1
  O  O16  1  0.77176500  0.55727500  0.41713700  1
  O  O17  1  0.94258600  0.72533800  0.08854800  1
  O  O18  1  0.41713700  0.77176500  0.55727500  1
  O  O19  1  0.19757900  0.99928300  0.37497300  1
  O  O20  1  0.87562300  0.49835700  0.69724200  1
  O  O21  1  0.08854800  0.94258600  0.72533800  1
  O  O22  1  0.49835700  0.69724200  0.87562300  1
  O  O23  1  0.69724200  0.87562300  0.49835700  1
loop_
_geom_bond_atom_site_label_1
_geom_bond_atom_site_label_2
_geom_bond_distance
_geom_bond_site_symmetry_2
Nb0 O15 1.984402 1_556
Nb0 O4 1.984402 1_565
Nb0 O12 1.984402 1_655
Nb0 O21 2.043635 1_655
Nb0 O17 2.043635 1_556
Nb0 O10 2.043635 1_565
Cu0 O6 2.294378 1_554
Cu0 O13 2.294378 1_545
Cu0 O2 2.294378 1_455
Cu0 O17 2.388849 1_445
Cu0 O10 2.388849 1_454
Cu0 O21 2.388849 1_544
Cu1 O16 2.342094 1_555
Cu1 O18 2.342094 1_555
Cu1 O14 2.342094 1_555
Cu1 O7 2.344071 1_555
Cu1 O5 2.344071 1_555
Cu1 O9 2.344071 1_555
O0 P4 1.538264 1_545
O0 Ti1 1.932782 1_555
O1 P2 1.538264 1_554
O1 Ti1 1.932782 1_555
O2 P0 1.543766 1_555
O2 Ti0 2.022291 1_655
O3 P3 1.538264 1_455
O3 Ti1 1.932782 1_555
O4 P0 1.557672 1_555
O5 P0 1.540107 1_555
O5 Ti1 2.005901 1_555
O6 P1 1.543766 1_555
O6 Ti0 2.022291 1_556
O7 P1 1.540107 1_555
O7 Ti1 2.005901 1_555
O8 P2 1.540059 1_555
O8 Ti0 1.934212 1_556
O9 P5 1.540107 1_555
O9 Ti1 2.005901 1_555
O10 P2 1.565587 1_555
O11 P3 1.540060 1_555
O11 Ti0 1.934212 1_655
O12 P1 1.557672 1_555
O13 P5 1.543766 1_555
O13 Ti0 2.022291 1_565
O14 P2 1.539373 1_555
O14 Ti2 2.020435 1_555
O15 P5 1.557672 1_555
O16 P3 1.539373 1_555
O16 Ti2 2.020436 1_555
O17 P3 1.565587 1_555
O18 P4 1.539373 1_555
O18 Ti2 2.020436 1_555
O19 P4 1.540060 1_555
O19 Ti0 1.934212 1_565
O20 P1 1.540885 1_655
O20 Ti2 1.937195 1_555
O21 P4 1.565587 1_555
O22 P5 1.540885 1_556
O22 Ti2 1.937195 1_555
O23 P0 1.540885 1_565
O23 Ti2 1.937195 1_555
