# generated using pymatgen
data_LiMgCr3(SO4)6
_symmetry_space_group_name_H-M   'P 1'
_cell_length_a   8.31506400
_cell_length_b   8.32632149
_cell_length_c   8.87946798
_cell_angle_alpha   62.17905802
_cell_angle_beta   62.34175184
_cell_angle_gamma   60.40044143
_symmetry_Int_Tables_number   1
_chemical_formula_structural   LiMgCr3(SO4)6
_chemical_formula_sum   'Li1 Mg1 Cr3 S6 O24'
_cell_volume   450.39256091
_cell_formula_units_Z   1
loop_
 _symmetry_equiv_pos_site_id
 _symmetry_equiv_pos_as_xyz
  1  'x, y, z'
loop_
 _atom_site_type_symbol
 _atom_site_label
 _atom_site_symmetry_multiplicity
 _atom_site_fract_x
 _atom_site_fract_y
 _atom_site_fract_z
 _atom_site_occupancy
  Li  Li0  1  0.76287400  0.42380700  0.62866500  1
  Mg  Mg0  1  0.16161400  0.14232200  0.54990200  1
  Cr  Cr0  1  0.35266200  0.35012700  0.93938100  1
  Cr  Cr1  1  0.64299400  0.64481500  0.06904500  1
  Cr  Cr2  1  0.85116700  0.85301600  0.44884500  1
  S  S0  1  0.03649200  0.46859700  0.74939700  1
  S  S1  1  0.53977100  0.25357900  0.25030100  1
  S  S2  1  0.25430400  0.95494300  0.25076600  1
  S  S3  1  0.74821700  0.03754400  0.74924300  1
  S  S4  1  0.46401400  0.74369600  0.75313200  1
  S  S5  1  0.95620200  0.54286500  0.25036300  1
  O  O0  1  0.30152500  0.10421000  0.07609900  1
  O  O1  1  0.10775200  0.50770200  0.08345900  1
  O  O2  1  0.00435200  0.33945400  0.70268800  1
  O  O3  1  0.02432400  0.65872500  0.60442100  1
  O  O4  1  0.35234700  0.28271200  0.38993600  1
  O  O5  1  0.04891900  0.98252500  0.29090200  1
  O  O6  1  0.51746500  0.29992300  0.07534800  1
  O  O7  1  0.23281300  0.37871600  0.76897700  1
  O  O8  1  0.67646300  0.04923600  0.29303400  1
  O  O9  1  0.38156800  0.75961400  0.22883700  1
  O  O10  1  0.63007100  0.38235900  0.22797100  1
  O  O11  1  0.28297600  0.97328700  0.39153600  1
  O  O12  1  0.71388600  0.02413000  0.60557700  1
  O  O13  1  0.38609400  0.60780100  0.76885400  1
  O  O14  1  0.61723300  0.23918600  0.76528300  1
  O  O15  1  0.33690500  0.94422800  0.70487100  1
  O  O16  1  0.76108900  0.63104600  0.22764800  1
  O  O17  1  0.49295200  0.69094400  0.92367100  1
  O  O18  1  0.94766200  0.01936700  0.70451200  1
  O  O19  1  0.65953500  0.70681600  0.60786800  1
  O  O20  1  0.96330200  0.36019500  0.40262000  1
  O  O21  1  0.98310800  0.68145400  0.28926000  1
  O  O22  1  0.89066200  0.49589000  0.92102700  1
  O  O23  1  0.69088300  0.89616700  0.92215700  1
loop_
_geom_bond_atom_site_label_1
_geom_bond_atom_site_label_2
_geom_bond_distance
_geom_bond_site_symmetry_2
Li0 O14 2.008900 1_555
Li0 O19 2.016450 1_555
Li0 O20 2.025205 1_555
Li0 O2 2.087632 1_655
Mg0 O4 2.022227 1_555
Mg0 O11 2.025716 1_545
Mg0 O15 2.026587 1_545
Mg0 O18 2.077884 1_455
Mg0 O20 2.133739 1_455
Mg0 O2 2.134439 1_555
Cr0 O0 1.976811 1_556
Cr0 O6 2.002303 1_556
Cr0 O1 2.003440 1_556
Cr0 O13 2.034491 1_555
Cr0 O7 2.041716 1_555
Cr0 O14 2.061757 1_555
Cr1 O17 1.982250 1_554
Cr1 O16 1.995673 1_555
Cr1 O10 1.997787 1_555
Cr1 O22 1.997948 1_554
Cr1 O9 2.000505 1_555
Cr1 O23 2.008198 1_554
Cr2 O5 2.008111 1_655
Cr2 O12 2.009743 1_565
Cr2 O3 2.014466 1_655
Cr2 O8 2.026101 1_565
Cr2 O21 2.037182 1_555
Cr2 O19 2.058537 1_555
O0 S2 1.490550 1_545
O1 S5 1.475393 1_455
O2 S0 1.484165 1_555
O3 S0 1.494651 1_555
O4 S1 1.462279 1_555
O5 S2 1.490032 1_555
O6 S1 1.494620 1_555
O7 S0 1.479962 1_555
O8 S1 1.489325 1_555
O9 S2 1.485578 1_555
O10 S1 1.487116 1_555
O11 S2 1.460622 1_555
O12 S3 1.491272 1_555
O13 S4 1.487408 1_555
O14 S3 1.515952 1_555
O15 S4 1.448407 1_555
O16 S5 1.483476 1_555
O17 S4 1.468655 1_555
O18 S3 1.458623 1_555
O19 S4 1.526712 1_555
O20 S5 1.486824 1_555
O21 S5 1.483139 1_555
O22 S0 1.476464 1_655
O23 S3 1.469063 1_565
