# generated using pymatgen
data_Zr2(PO4)3
_symmetry_space_group_name_H-M   'P 1'
_cell_length_a   9.11602200
_cell_length_b   9.06872100
_cell_length_c   15.51918343
_cell_angle_alpha   54.80449921
_cell_angle_beta   90.00000000
_cell_angle_gamma   90.00000000
_symmetry_Int_Tables_number   1
_chemical_formula_structural   Zr2(PO4)3
_chemical_formula_sum   'Zr8 P12 O48'
_cell_volume   1048.43956316
_cell_formula_units_Z   4
loop_
 _symmetry_equiv_pos_site_id
 _symmetry_equiv_pos_as_xyz
  1  'x, y, z'
loop_
 _atom_site_type_symbol
 _atom_site_label
 _atom_site_symmetry_multiplicity
 _atom_site_fract_x
 _atom_site_fract_y
 _atom_site_fract_z
 _atom_site_occupancy
  Zr  Zr0  1  0.47060300  0.63029800  0.11993300  1
  Zr  Zr1  1  0.53658000  0.13185500  0.61871400  1
  Zr  Zr2  1  0.97060300  0.36970200  0.38006700  1
  Zr  Zr3  1  0.03658000  0.86814500  0.88128600  1
  Zr  Zr4  1  0.96342000  0.13185500  0.11871400  1
  Zr  Zr5  1  0.02939700  0.63029800  0.61993300  1
  Zr  Zr6  1  0.46342000  0.86814500  0.38128600  1
  Zr  Zr7  1  0.52939700  0.36970200  0.88006700  1
  P  P0  1  0.25093800  0.46265300  0.50626800  1
  P  P1  1  0.11474800  0.74884600  0.14372600  1
  P  P2  1  0.39590000  0.03071700  0.85772500  1
  P  P3  1  0.89590000  0.96928300  0.64227500  1
  P  P4  1  0.61474800  0.25115400  0.35627400  1
  P  P5  1  0.75093800  0.53734700  0.99373200  1
  P  P6  1  0.24906200  0.46265300  0.00626800  1
  P  P7  1  0.38525200  0.74884600  0.64372600  1
  P  P8  1  0.10410000  0.03071700  0.35772500  1
  P  P9  1  0.60410000  0.96928300  0.14227500  1
  P  P10  1  0.88525200  0.25115400  0.85627400  1
  P  P11  1  0.74906200  0.53734700  0.49373200  1
  O  O0  1  0.59845400  0.80446100  0.13718800  1
  O  O1  1  0.65351900  0.36958200  0.56745300  1
  O  O2  1  0.83328800  0.51496500  0.41573000  1
  O  O3  1  0.91865700  0.09350300  0.84736500  1
  O  O4  1  0.14329200  0.44208200  0.43749000  1
  O  O5  1  0.27994200  0.70399300  0.16271300  1
  O  O6  1  0.07099300  0.80243100  0.03364800  1
  O  O7  1  0.34791900  0.29319800  0.56873300  1
  O  O8  1  0.49931300  0.06185600  0.77016900  1
  O  O9  1  0.02382400  0.58245600  0.22770400  1
  O  O10  1  0.23666500  0.00615900  0.83471900  1
  O  O11  1  0.44503600  0.86123300  0.96393600  1
  O  O12  1  0.52382400  0.41754400  0.27229600  1
  O  O13  1  0.94503600  0.13876700  0.53606400  1
  O  O14  1  0.73666500  0.99384100  0.66528100  1
  O  O15  1  0.99931300  0.93814400  0.72983100  1
  O  O16  1  0.57099300  0.19756900  0.46635200  1
  O  O17  1  0.84791900  0.70680200  0.93126700  1
  O  O18  1  0.77994200  0.29600700  0.33728700  1
  O  O19  1  0.64329200  0.55791800  0.06251000  1
  O  O20  1  0.33328800  0.48503500  0.08427000  1
  O  O21  1  0.41865700  0.90649700  0.65263500  1
  O  O22  1  0.09845400  0.19553900  0.36281200  1
  O  O23  1  0.15351900  0.63041800  0.93254700  1
  O  O24  1  0.84648100  0.36958200  0.06745300  1
  O  O25  1  0.90154600  0.80446100  0.63718800  1
  O  O26  1  0.58134300  0.09350300  0.34736500  1
  O  O27  1  0.66671200  0.51496500  0.91573000  1
  O  O28  1  0.35670800  0.44208200  0.93749000  1
  O  O29  1  0.22005800  0.70399300  0.66271300  1
  O  O30  1  0.15208100  0.29319800  0.06873300  1
  O  O31  1  0.42900700  0.80243100  0.53364800  1
  O  O32  1  0.00068700  0.06185600  0.27016900  1
  O  O33  1  0.26333500  0.00615900  0.33471900  1
  O  O34  1  0.05496400  0.86123300  0.46393600  1
  O  O35  1  0.47617600  0.58245600  0.72770400  1
  O  O36  1  0.55496400  0.13876700  0.03606400  1
  O  O37  1  0.76333500  0.99384100  0.16528100  1
  O  O38  1  0.97617600  0.41754400  0.77229600  1
  O  O39  1  0.50068700  0.93814400  0.22983100  1
  O  O40  1  0.65208100  0.70680200  0.43126700  1
  O  O41  1  0.92900700  0.19756900  0.96635200  1
  O  O42  1  0.72005800  0.29600700  0.83728700  1
  O  O43  1  0.85670800  0.55791800  0.56251000  1
  O  O44  1  0.08134300  0.90649700  0.15263500  1
  O  O45  1  0.16671200  0.48503500  0.58427000  1
  O  O46  1  0.34648100  0.63041800  0.43254700  1
  O  O47  1  0.40154600  0.19553900  0.86281200  1
loop_
_geom_bond_atom_site_label_1
_geom_bond_atom_site_label_2
_geom_bond_distance
_geom_bond_site_symmetry_2
O0 P9 1.542436 1_555
O0 Zr0 2.100534 1_555
O1 P11 1.541344 1_555
O1 Zr1 2.107146 1_555
O2 P11 1.542510 1_555
O2 Zr2 2.109291 1_555
O3 P10 1.543934 1_555
O3 Zr3 2.090284 1_645
O4 P0 1.538373 1_555
O4 Zr2 2.092255 1_455
O5 P1 1.543336 1_555
O5 Zr0 2.102329 1_555
O6 P1 1.535140 1_555
O6 Zr3 2.102435 1_554
O7 P0 1.538069 1_555
O7 Zr1 2.095734 1_555
O8 P2 1.540282 1_555
O8 Zr1 2.079200 1_555
O9 P1 1.547746 1_555
O9 Zr2 2.071256 1_455
O10 P2 1.541378 1_555
O10 Zr3 2.091179 1_545
O11 P2 1.536076 1_565
O11 Zr0 2.111110 1_556
O12 P4 1.547746 1_555
O12 Zr0 2.071256 1_555
O13 P3 1.536076 1_545
O13 Zr2 2.111110 1_555
O14 P3 1.541378 1_555
O14 Zr1 2.091179 1_565
O15 P3 1.540282 1_555
O15 Zr3 2.079200 1_655
O16 P4 1.535140 1_555
O16 Zr1 2.102435 1_555
O17 P5 1.538069 1_555
O17 Zr3 2.095734 1_655
O18 P4 1.543336 1_555
O18 Zr2 2.102329 1_555
O19 P5 1.538373 1_554
O19 Zr0 2.092255 1_555
O20 P6 1.542510 1_555
O20 Zr0 2.109291 1_555
O21 P7 1.543934 1_555
O21 Zr1 2.090284 1_565
O22 P8 1.542436 1_555
O22 Zr2 2.100534 1_455
O23 P6 1.541344 1_556
O23 Zr3 2.107146 1_555
O24 P5 1.541344 1_554
O24 Zr4 2.107146 1_555
O25 P3 1.542436 1_555
O25 Zr5 2.100534 1_655
O26 P4 1.543934 1_555
O26 Zr6 2.090284 1_545
O27 P5 1.542510 1_555
O27 Zr7 2.109291 1_555
O28 P6 1.538373 1_556
O28 Zr7 2.092255 1_555
O29 P7 1.543336 1_555
O29 Zr5 2.102329 1_555
O30 P6 1.538069 1_555
O30 Zr4 2.095734 1_455
O31 P7 1.535140 1_555
O31 Zr6 2.102435 1_555
O32 P8 1.540282 1_555
O32 Zr4 2.079200 1_455
O33 P8 1.541378 1_555
O33 Zr6 2.091179 1_545
O34 P8 1.536076 1_565
O34 Zr5 2.111110 1_555
O35 P7 1.547746 1_555
O35 Zr7 2.071256 1_555
O36 P9 1.536076 1_545
O36 Zr7 2.111110 1_554
O37 P9 1.541378 1_555
O37 Zr4 2.091179 1_565
O38 P10 1.547746 1_555
O38 Zr5 2.071256 1_655
O39 P9 1.540282 1_555
O39 Zr6 2.079200 1_555
O40 P11 1.538069 1_555
O40 Zr6 2.095734 1_555
O41 P10 1.535140 1_555
O41 Zr4 2.102435 1_556
O42 P10 1.543336 1_555
O42 Zr7 2.102329 1_555
O43 P11 1.538373 1_555
O43 Zr5 2.092255 1_655
O44 P1 1.543934 1_555
O44 Zr4 2.090284 1_465
O45 P0 1.542510 1_555
O45 Zr5 2.109291 1_555
O46 P0 1.541344 1_555
O46 Zr6 2.107146 1_555
O47 P2 1.542436 1_555
O47 Zr7 2.100534 1_555
