# generated using pymatgen
data_TiMnCr(PO4)3
_symmetry_space_group_name_H-M   'P 1'
_cell_length_a   8.64397316
_cell_length_b   8.64397316
_cell_length_c   8.64397291
_cell_angle_alpha   59.80551785
_cell_angle_beta   59.80551785
_cell_angle_gamma   59.80551078
_symmetry_Int_Tables_number   1
_chemical_formula_structural   TiMnCr(PO4)3
_chemical_formula_sum   'Ti2 Mn2 Cr2 P6 O24'
_cell_volume   454.67768929
_cell_formula_units_Z   2
loop_
 _symmetry_equiv_pos_site_id
 _symmetry_equiv_pos_as_xyz
  1  'x, y, z'
loop_
 _atom_site_type_symbol
 _atom_site_label
 _atom_site_symmetry_multiplicity
 _atom_site_fract_x
 _atom_site_fract_y
 _atom_site_fract_z
 _atom_site_occupancy
  Ti  Ti0  1  0.85510400  0.85510400  0.85510400  1
  Ti  Ti1  1  0.35510400  0.35510400  0.35510400  1
  Mn  Mn0  1  0.00120300  0.00120300  0.00120300  1
  Mn  Mn1  1  0.50120300  0.50120300  0.50120300  1
  Cr  Cr0  1  0.64294900  0.64294900  0.64294900  1
  Cr  Cr1  1  0.14294900  0.14294900  0.14294900  1
  P  P0  1  0.25036800  0.54009800  0.95733400  1
  P  P1  1  0.95733400  0.25036800  0.54009800  1
  P  P2  1  0.54009800  0.95733400  0.25036800  1
  P  P3  1  0.45733400  0.04009800  0.75036800  1
  P  P4  1  0.04009800  0.75036800  0.45733400  1
  P  P5  1  0.75036800  0.45733400  0.04009800  1
  O  O0  1  0.69361200  0.49385200  0.88283600  1
  O  O1  1  0.49385200  0.88283600  0.69361200  1
  O  O2  1  0.08520900  0.73565500  0.94330000  1
  O  O3  1  0.88283600  0.69361200  0.49385200  1
  O  O4  1  0.19361200  0.38283600  0.99385200  1
  O  O5  1  0.41494600  0.55875300  0.76468600  1
  O  O6  1  0.94330000  0.08520900  0.73565500  1
  O  O7  1  0.76468600  0.41494600  0.55875300  1
  O  O8  1  0.62254900  0.00059400  0.80695200  1
  O  O9  1  0.55875300  0.76468600  0.41494600  1
  O  O10  1  0.26468600  0.05875300  0.91494600  1
  O  O11  1  0.00059400  0.80695200  0.62254900  1
  O  O12  1  0.99385200  0.19361200  0.38283600  1
  O  O13  1  0.73565500  0.94330000  0.08520900  1
  O  O14  1  0.44330000  0.23565500  0.58520900  1
  O  O15  1  0.38283600  0.99385200  0.19361200  1
  O  O16  1  0.23565500  0.58520900  0.44330000  1
  O  O17  1  0.05875300  0.91494600  0.26468600  1
  O  O18  1  0.58520900  0.44330000  0.23565500  1
  O  O19  1  0.80695200  0.62254900  0.00059400  1
  O  O20  1  0.12254900  0.30695200  0.50059400  1
  O  O21  1  0.91494600  0.26468600  0.05875300  1
  O  O22  1  0.50059400  0.12254900  0.30695200  1
  O  O23  1  0.30695200  0.50059400  0.12254900  1
loop_
_geom_bond_atom_site_label_1
_geom_bond_atom_site_label_2
_geom_bond_distance
_geom_bond_site_symmetry_2
Mn0 O21 2.247002 1_455
Mn0 O17 2.247002 1_545
Mn0 O10 2.247002 1_554
Mn0 O2 2.271580 1_544
Mn0 O6 2.271580 1_454
Mn0 O13 2.271580 1_445
Mn1 O7 2.247002 1_555
Mn1 O5 2.247002 1_555
Mn1 O9 2.247002 1_555
Mn1 O16 2.271580 1_555
Mn1 O18 2.271580 1_555
Mn1 O14 2.271580 1_555
Cr0 O1 1.951943 1_555
Cr0 O0 1.951943 1_555
Cr0 O3 1.951943 1_555
Cr0 O7 2.026722 1_555
Cr0 O9 2.026722 1_555
Cr0 O5 2.026722 1_555
Cr1 O15 1.951943 1_545
Cr1 O12 1.951943 1_455
Cr1 O4 1.951943 1_554
Cr1 O21 2.026722 1_455
Cr1 O10 2.026722 1_554
Cr1 O17 2.026722 1_545
O0 P5 1.507196 1_556
O1 P3 1.507196 1_565
O2 P0 1.565494 1_555
O2 Ti0 2.066694 1_455
O3 P4 1.507196 1_655
O4 P0 1.507196 1_555
O5 P0 1.549385 1_555
O6 P1 1.565494 1_555
O6 Ti0 2.066694 1_545
O7 P1 1.549385 1_555
O8 P3 1.561867 1_555
O8 Ti0 1.888893 1_545
O9 P2 1.549385 1_555
O10 P3 1.549385 1_555
O11 P4 1.561867 1_555
O11 Ti0 1.888893 1_455
O12 P1 1.507196 1_555
O13 P2 1.565494 1_555
O13 Ti0 2.066694 1_554
O14 P3 1.565494 1_555
O14 Ti1 2.066694 1_555
O15 P2 1.507196 1_555
O16 P4 1.565494 1_555
O16 Ti1 2.066694 1_555
O17 P4 1.549385 1_555
O18 P5 1.565494 1_555
O18 Ti1 2.066694 1_555
O19 P5 1.561867 1_555
O19 Ti0 1.888893 1_554
O20 P1 1.561867 1_455
O20 Ti1 1.888893 1_555
O21 P5 1.549385 1_555
O22 P2 1.561867 1_545
O22 Ti1 1.888893 1_555
O23 P0 1.561867 1_554
O23 Ti1 1.888893 1_555
