# generated using pymatgen
data_Li7VGeO8
_symmetry_space_group_name_H-M   'P 1'
_cell_length_a   5.37244600
_cell_length_b   6.38425029
_cell_length_c   10.84706025
_cell_angle_alpha   90.34653508
_cell_angle_beta   90.14504794
_cell_angle_gamma   90.71225666
_symmetry_Int_Tables_number   1
_chemical_formula_structural   Li7VGeO8
_chemical_formula_sum   'Li14 V2 Ge2 O16'
_cell_volume   372.00693785
_cell_formula_units_Z   2
loop_
 _symmetry_equiv_pos_site_id
 _symmetry_equiv_pos_as_xyz
  1  'x, y, z'
loop_
 _atom_site_type_symbol
 _atom_site_label
 _atom_site_symmetry_multiplicity
 _atom_site_fract_x
 _atom_site_fract_y
 _atom_site_fract_z
 _atom_site_occupancy
  Li  Li0  1  0.67869200  0.76417200  0.08340600  1
  Li  Li1  1  0.31918200  0.51516800  0.17350300  1
  Li  Li2  1  0.31749100  0.01711700  0.17370900  1
  Li  Li3  1  0.81817700  0.01776800  0.34350200  1
  Li  Li4  1  0.81874000  0.51843000  0.34334700  1
  Li  Li5  1  0.18453100  0.27071300  0.43203300  1
  Li  Li6  1  0.83424200  0.74507400  0.58393200  1
  Li  Li7  1  0.20132900  0.50979200  0.66197900  1
  Li  Li8  1  0.11641400  0.04884700  0.65268300  1
  Li  Li9  1  0.97271800  0.38122300  0.82739600  1
  Li  Li10  1  0.83158400  0.01060000  0.84628100  1
  Li  Li11  1  0.45477400  0.90885900  0.70899900  1
  Li  Li12  1  0.62518000  0.54765900  0.84248100  1
  Li  Li13  1  0.35591500  0.23833900  0.93289400  1
  V  V0  1  0.83121300  0.26617100  0.09366900  1
  V  V1  1  0.33252200  0.77186000  0.42383500  1
  Ge  Ge0  1  0.67435200  0.26445100  0.59153200  1
  Ge  Ge1  1  0.16782600  0.75827100  0.92738400  1
  O  O0  1  0.30762800  0.76699800  0.07343800  1
  O  O1  1  0.15830600  0.26492600  0.09526000  1
  O  O2  1  0.71625300  0.48439700  0.16895400  1
  O  O3  1  0.71533600  0.04661800  0.16740700  1
  O  O4  1  0.21911400  0.98968300  0.34885200  1
  O  O5  1  0.21344100  0.55075100  0.35035500  1
  O  O6  1  0.65833700  0.76718700  0.42079500  1
  O  O7  1  0.81041500  0.26877700  0.44435900  1
  O  O8  1  0.22907200  0.77836700  0.57982300  1
  O  O9  1  0.34448900  0.26105800  0.59430600  1
  O  O10  1  0.80356500  0.47862500  0.68086100  1
  O  O11  1  0.76730100  0.02662700  0.66957600  1
  O  O12  1  0.22908800  0.99262300  0.83762900  1
  O  O13  1  0.27557300  0.53133500  0.84369700  1
  O  O14  1  0.83707200  0.74512400  0.92546500  1
  O  O15  1  0.72823000  0.26469200  0.93728000  1
loop_
_geom_bond_atom_site_label_1
_geom_bond_atom_site_label_2
_geom_bond_distance
_geom_bond_site_symmetry_2
Li0 O14 1.918664 1_554
Li0 O0 1.996489 1_555
Li0 O3 2.022602 1_565
Li0 O2 2.029830 1_555
Li1 O0 1.946809 1_555
Li1 O1 1.991286 1_555
Li1 O5 2.014387 1_555
Li1 O2 2.145364 1_555
Li2 O0 1.926712 1_545
Li2 O4 1.981417 1_545
Li2 O1 2.001172 1_555
Li2 O3 2.144648 1_555
Li3 O7 1.935791 1_555
Li3 O6 1.996327 1_545
Li3 O3 1.997289 1_555
Li3 O4 2.164343 1_645
Li4 O7 1.939709 1_555
Li4 O2 1.978762 1_555
Li4 O6 1.998015 1_555
Li4 O5 2.129092 1_655
Li5 O9 1.958451 1_555
Li5 O5 2.004584 1_555
Li5 O4 2.014248 1_545
Li5 O7 2.014587 1_455
Li6 O10 2.010422 1_555
Li6 O6 2.010531 1_555
Li6 O11 2.054493 1_565
Li6 O8 2.129800 1_655
Li7 O9 1.916033 1_555
Li7 O8 1.941441 1_555
Li7 O13 2.013616 1_555
Li7 O10 2.154136 1_455
Li8 O11 1.888645 1_455
Li8 O9 1.926374 1_555
Li8 O8 1.996173 1_545
Li8 O12 2.127853 1_545
Li9 O13 1.885416 1_655
Li9 O15 1.921923 1_555
Li9 O10 1.938468 1_555
Li10 O14 1.905228 1_545
Li10 O11 1.950255 1_555
Li10 O15 1.979879 1_555
Li10 O12 2.142338 1_645
Li11 O11 1.882406 1_565
Li11 O12 1.928342 1_555
Li11 O8 2.019862 1_555
Li12 O13 1.879924 1_555
Li12 O14 1.908095 1_555
Li12 O10 2.048349 1_555
Li12 O15 2.161458 1_555
Li13 O12 1.985744 1_545
Li13 O15 2.005640 1_555
Li13 O1 2.065922 1_556
Li13 O13 2.158994 1_555
Ge0 O7 1.757705 1_555
Ge0 O9 1.772368 1_555
Ge0 O10 1.802045 1_555
Ge0 O11 1.817577 1_555
Ge1 O0 1.751845 1_556
Ge1 O14 1.777960 1_455
Ge1 O13 1.807147 1_555
Ge1 O12 1.817052 1_555
O1 V0 1.757448 1_455
O2 V0 1.731917 1_555
O3 V0 1.728121 1_555
O4 V1 1.731721 1_555
O5 V1 1.731640 1_555
O6 V1 1.751439 1_555
O8 V1 1.782696 1_555
O15 V0 1.782908 1_556
