# generated using pymatgen
data_Li2Cr2(PO4)3
_symmetry_space_group_name_H-M   'P 1'
_cell_length_a   8.62364594
_cell_length_b   8.62364594
_cell_length_c   8.69399125
_cell_angle_alpha   59.81632948
_cell_angle_beta   59.81632948
_cell_angle_gamma   60.40596678
_symmetry_Int_Tables_number   1
_chemical_formula_structural   Li2Cr2(PO4)3
_chemical_formula_sum   'Li4 Cr4 P6 O24'
_cell_volume   457.27979102
_cell_formula_units_Z   2
loop_
 _symmetry_equiv_pos_site_id
 _symmetry_equiv_pos_as_xyz
  1  'x, y, z'
loop_
 _atom_site_type_symbol
 _atom_site_label
 _atom_site_symmetry_multiplicity
 _atom_site_fract_x
 _atom_site_fract_y
 _atom_site_fract_z
 _atom_site_occupancy
  Li  Li0  1  0.67630200  0.82499500  0.44714100  1
  Li  Li1  1  0.17500500  0.32369800  0.05285900  1
  Li  Li2  1  0.82499500  0.67630200  0.94714100  1
  Li  Li3  1  0.32369800  0.17500500  0.55285900  1
  Cr  Cr0  1  0.86104700  0.36110600  0.42122500  1
  Cr  Cr1  1  0.63889400  0.13895300  0.07877500  1
  Cr  Cr2  1  0.36110600  0.86104700  0.92122500  1
  Cr  Cr3  1  0.13895300  0.63889400  0.57877500  1
  P  P0  1  0.96581600  0.03418400  0.25000000  1
  P  P1  1  0.03418400  0.96581600  0.75000000  1
  P  P2  1  0.53850900  0.74691700  0.24797500  1
  P  P3  1  0.25308300  0.46149100  0.25202500  1
  P  P4  1  0.74691700  0.53850900  0.74797500  1
  P  P5  1  0.46149100  0.25308300  0.75202500  1
  O  O0  1  0.86575500  0.99181500  0.93022500  1
  O  O1  1  0.70006000  0.37165900  0.92222200  1
  O  O2  1  0.95136200  0.22229700  0.24742200  1
  O  O3  1  0.47246900  0.20357200  0.94357300  1
  O  O4  1  0.99181500  0.86575500  0.43022500  1
  O  O5  1  0.77770300  0.04863800  0.25257800  1
  O  O6  1  0.73021100  0.58151100  0.24359100  1
  O  O7  1  0.56202700  0.90899300  0.25851600  1
  O  O8  1  0.41849000  0.26978900  0.25640900  1
  O  O9  1  0.79642800  0.52753100  0.55642700  1
  O  O10  1  0.90899300  0.56202700  0.75851600  1
  O  O11  1  0.62834100  0.29994000  0.57777800  1
  O  O12  1  0.37165900  0.70006000  0.42222200  1
  O  O13  1  0.09100700  0.43797300  0.24148400  1
  O  O14  1  0.20357200  0.47246900  0.44357300  1
  O  O15  1  0.58151000  0.73021100  0.74359100  1
  O  O16  1  0.43797300  0.09100700  0.74148400  1
  O  O17  1  0.26978900  0.41849000  0.75640900  1
  O  O18  1  0.22229700  0.95136200  0.74742200  1
  O  O19  1  0.00818500  0.13424500  0.56977500  1
  O  O20  1  0.52753100  0.79642800  0.05642700  1
  O  O21  1  0.04863800  0.77770300  0.75257800  1
  O  O22  1  0.29994000  0.62834100  0.07777800  1
  O  O23  1  0.13424500  0.00818500  0.06977500  1
loop_
_geom_bond_atom_site_label_1
_geom_bond_atom_site_label_2
_geom_bond_distance
_geom_bond_site_symmetry_2
Li0 O7 1.977531 1_555
Li0 O5 2.059966 1_565
Li0 O15 2.098108 1_555
Li0 O9 2.114348 1_555
Li1 O13 1.977531 1_555
Li1 O2 2.059966 1_455
Li1 O17 2.098108 1_554
Li1 O3 2.114348 1_554
Li2 O10 1.977531 1_555
Li2 O21 2.059966 1_655
Li2 O6 2.098108 1_556
Li2 O20 2.114348 1_556
Li3 O16 1.977531 1_555
Li3 O18 2.059966 1_545
Li3 O8 2.098108 1_555
Li3 O14 2.114348 1_555
Cr0 O11 1.932605 1_555
Cr0 O19 1.939247 1_655
Cr0 O6 1.988224 1_555
Cr0 O13 1.988633 1_655
Cr0 O9 1.999934 1_555
Cr0 O2 2.009309 1_555
Cr1 O1 1.932605 1_554
Cr1 O0 1.939247 1_544
Cr1 O8 1.988222 1_555
Cr1 O7 1.988633 1_545
Cr1 O3 1.999934 1_554
Cr1 O5 2.009309 1_555
Cr2 O22 1.932605 1_556
Cr2 O23 1.939247 1_566
Cr2 O15 1.988222 1_555
Cr2 O16 1.988633 1_565
Cr2 O20 1.999934 1_556
Cr2 O18 2.009309 1_555
Cr3 O12 1.932605 1_555
Cr3 O4 1.939247 1_455
Cr3 O17 1.988222 1_555
Cr3 O10 1.988633 1_455
Cr3 O14 1.999934 1_555
Cr3 O21 2.009309 1_555
O0 P1 1.535636 1_655
O1 P4 1.515065 1_555
O2 P0 1.553759 1_555
O3 P5 1.538886 1_555
O4 P0 1.535636 1_565
O5 P0 1.553759 1_555
O6 P2 1.559253 1_555
O7 P2 1.559014 1_555
O8 P3 1.559256 1_555
O9 P4 1.538886 1_555
O10 P4 1.559014 1_555
O11 P5 1.515065 1_555
O12 P2 1.515065 1_555
O13 P3 1.559014 1_555
O14 P3 1.538886 1_555
O15 P4 1.559256 1_555
O16 P5 1.559014 1_555
O17 P5 1.559256 1_555
O18 P1 1.553759 1_555
O19 P1 1.535636 1_545
O20 P2 1.538886 1_555
O21 P1 1.553759 1_555
O22 P3 1.515065 1_555
O23 P0 1.535636 1_455
