# generated using pymatgen
data_LiCoNiO4
_symmetry_space_group_name_H-M   'P 1'
_cell_length_a   5.79307696
_cell_length_b   5.79307696
_cell_length_c   5.79307696
_cell_angle_alpha   121.80433035
_cell_angle_beta   120.60699543
_cell_angle_gamma   87.92735842
_symmetry_Int_Tables_number   1
_chemical_formula_structural   LiCoNiO4
_chemical_formula_sum   'Li2 Co2 Ni2 O8'
_cell_volume   134.85125473
_cell_formula_units_Z   2
loop_
 _symmetry_equiv_pos_site_id
 _symmetry_equiv_pos_as_xyz
  1  'x, y, z'
loop_
 _atom_site_type_symbol
 _atom_site_label
 _atom_site_symmetry_multiplicity
 _atom_site_fract_x
 _atom_site_fract_y
 _atom_site_fract_z
 _atom_site_occupancy
  Li  Li0  1  0.50000000  0.50000000  0.00000000  1
  Li  Li1  1  0.00000000  0.50000000  0.50000000  1
  Co  Co0  1  0.00000000  0.00000000  0.50000000  1
  Co  Co1  1  0.00000000  0.50000000  0.00000000  1
  Ni  Ni0  1  0.00000000  0.00000000  0.00000000  1
  Ni  Ni1  1  0.50000000  0.00000000  0.50000000  1
  O  O0  1  0.22687900  0.20495000  0.47807100  1
  O  O1  1  0.21781900  0.25145400  0.96636500  1
  O  O2  1  0.77312100  0.25119200  0.97807100  1
  O  O3  1  0.78509000  0.25145400  0.53363500  1
  O  O4  1  0.21491000  0.74854600  0.46636500  1
  O  O5  1  0.22687900  0.74880800  0.02192900  1
  O  O6  1  0.78218100  0.74854600  0.03363500  1
  O  O7  1  0.77312100  0.79505000  0.52192900  1
loop_
_geom_bond_atom_site_label_1
_geom_bond_atom_site_label_2
_geom_bond_distance
_geom_bond_site_symmetry_2
Li0 O6 2.081716 1_555
Li0 O1 2.081716 1_554
Li0 O5 2.108026 1_555
Li0 O7 2.108026 1_555
Li0 O2 2.108026 1_554
Li0 O0 2.108026 1_554
Li1 O4 2.081713 1_555
Li1 O3 2.081713 1_455
Li1 O0 2.108026 1_555
Li1 O7 2.108026 1_455
Li1 O5 2.108026 1_556
Li1 O2 2.108026 1_454
Co0 O3 1.877921 1_455
Co0 O4 1.877921 1_545
Co0 O1 1.877925 1_555
Co0 O6 1.877925 1_445
Co0 O7 1.896083 1_445
Co0 O0 1.896083 1_555
Co1 O1 1.877925 1_554
Co1 O6 1.877925 1_455
Co1 O4 1.877925 1_555
Co1 O3 1.877925 1_454
Co1 O5 1.896083 1_555
Co1 O2 1.896083 1_454
Ni0 O0 1.935875 1_555
Ni0 O2 1.935875 1_454
Ni0 O7 1.935875 1_444
Ni0 O5 1.935875 1_545
Ni0 O1 2.105864 1_554
Ni0 O6 2.105864 1_445
Ni1 O2 1.935875 1_555
Ni1 O0 1.935875 1_555
Ni1 O7 1.935875 1_545
Ni1 O5 1.935875 1_545
Ni1 O3 2.105869 1_555
Ni1 O4 2.105869 1_545
