# generated using pymatgen
data_K3YSi3O10
_symmetry_space_group_name_H-M   'P 1'
_cell_length_a   5.99228800
_cell_length_b   13.04430200
_cell_length_c   13.33130900
_cell_angle_alpha   90.00000000
_cell_angle_beta   90.00000000
_cell_angle_gamma   90.00000000
_symmetry_Int_Tables_number   1
_chemical_formula_structural   K3YSi3O10
_chemical_formula_sum   'K12 Y4 Si12 O40'
_cell_volume   1042.04462546
_cell_formula_units_Z   4
loop_
 _symmetry_equiv_pos_site_id
 _symmetry_equiv_pos_as_xyz
  1  'x, y, z'
loop_
 _atom_site_type_symbol
 _atom_site_label
 _atom_site_symmetry_multiplicity
 _atom_site_fract_x
 _atom_site_fract_y
 _atom_site_fract_z
 _atom_site_occupancy
  K  K0  1  0.05308800  0.25000000  0.36722800  1
  K  K1  1  0.44691200  0.25000000  0.86722800  1
  K  K2  1  0.94691200  0.75000000  0.63277200  1
  K  K3  1  0.55308800  0.75000000  0.13277200  1
  K  K4  1  0.42249500  0.47744700  0.36352800  1
  K  K5  1  0.07750500  0.02255300  0.86352800  1
  K  K6  1  0.57750500  0.97744700  0.63647200  1
  K  K7  1  0.92249500  0.52255300  0.13647200  1
  K  K8  1  0.57750500  0.52255300  0.63647200  1
  K  K9  1  0.92249500  0.97744700  0.13647200  1
  K  K10  1  0.42249500  0.02255300  0.36352800  1
  K  K11  1  0.07750500  0.47744700  0.86352800  1
  Y  Y0  1  0.42599600  0.75000000  0.46799000  1
  Y  Y1  1  0.07400400  0.75000000  0.96799000  1
  Y  Y2  1  0.57400400  0.25000000  0.53201000  1
  Y  Y3  1  0.92599600  0.25000000  0.03201000  1
  Si  Si0  1  0.41432700  0.40863400  0.08876900  1
  Si  Si1  1  0.08567300  0.09136600  0.58876900  1
  Si  Si2  1  0.58567300  0.90863400  0.91123100  1
  Si  Si3  1  0.91432700  0.59136600  0.41123100  1
  Si  Si4  1  0.58567300  0.59136600  0.91123100  1
  Si  Si5  1  0.91432700  0.90863400  0.41123100  1
  Si  Si6  1  0.41432700  0.09136600  0.08876900  1
  Si  Si7  1  0.08567300  0.40863400  0.58876900  1
  Si  Si8  1  0.07801500  0.75000000  0.25771100  1
  Si  Si9  1  0.42198500  0.75000000  0.75771100  1
  Si  Si10  1  0.92198500  0.25000000  0.74228900  1
  Si  Si11  1  0.57801500  0.25000000  0.24228900  1
  O  O0  1  0.14050600  0.87441200  0.47408100  1
  O  O1  1  0.35949400  0.62558800  0.97408100  1
  O  O2  1  0.85949400  0.37441200  0.52591900  1
  O  O3  1  0.64050600  0.12558800  0.02591900  1
  O  O4  1  0.85949400  0.12558800  0.52591900  1
  O  O5  1  0.64050600  0.37441200  0.02591900  1
  O  O6  1  0.14050600  0.62558800  0.47408100  1
  O  O7  1  0.35949400  0.87441200  0.97408100  1
  O  O8  1  0.68174300  0.87583400  0.46363900  1
  O  O9  1  0.81825700  0.62416600  0.96363900  1
  O  O10  1  0.31825700  0.37583400  0.53636100  1
  O  O11  1  0.18174300  0.12416600  0.03636100  1
  O  O12  1  0.31825700  0.12416600  0.53636100  1
  O  O13  1  0.18174300  0.37583400  0.03636100  1
  O  O14  1  0.68174300  0.62416600  0.46363900  1
  O  O15  1  0.81825700  0.87583400  0.96363900  1
  O  O16  1  0.92468600  0.03125300  0.37721500  1
  O  O17  1  0.57531400  0.46874700  0.87721500  1
  O  O18  1  0.07531400  0.53125300  0.62278500  1
  O  O19  1  0.42468600  0.96874700  0.12278500  1
  O  O20  1  0.07531400  0.96874700  0.62278500  1
  O  O21  1  0.42468600  0.53125300  0.12278500  1
  O  O22  1  0.92468600  0.46874700  0.37721500  1
  O  O23  1  0.57531400  0.03125300  0.87721500  1
  O  O24  1  0.93345600  0.85193000  0.29886800  1
  O  O25  1  0.56654400  0.64807000  0.79886800  1
  O  O26  1  0.06654400  0.35193000  0.70113200  1
  O  O27  1  0.43345600  0.14807000  0.20113200  1
  O  O28  1  0.06654400  0.14807000  0.70113200  1
  O  O29  1  0.43345600  0.35193000  0.20113200  1
  O  O30  1  0.93345600  0.64807000  0.29886800  1
  O  O31  1  0.56654400  0.85193000  0.79886800  1
  O  O32  1  0.32576300  0.75000000  0.30554500  1
  O  O33  1  0.17423700  0.75000000  0.80554500  1
  O  O34  1  0.67423700  0.25000000  0.69445500  1
  O  O35  1  0.82576300  0.25000000  0.19445500  1
  O  O36  1  0.05935700  0.75000000  0.13693600  1
  O  O37  1  0.44064300  0.75000000  0.63693600  1
  O  O38  1  0.94064300  0.25000000  0.86306400  1
  O  O39  1  0.55935700  0.25000000  0.36306400  1
loop_
_geom_bond_atom_site_label_1
_geom_bond_atom_site_label_2
_geom_bond_distance
_geom_bond_site_symmetry_2
K0 O35 2.675953 1_455
K0 O2 2.907757 1_455
K0 O4 2.907757 1_455
K0 O22 2.958317 1_455
K0 O16 2.958317 1_455
K0 O39 2.959099 1_455
K0 O39 3.034217 1_555
K0 O12 3.209834 1_555
K0 O10 3.209834 1_555
K1 O34 2.675953 1_555
K1 O5 2.907757 1_556
K1 O3 2.907757 1_556
K1 O17 2.958317 1_555
K1 O23 2.958317 1_555
K1 O38 2.959099 1_555
K1 O38 3.034217 1_455
K1 O11 3.209834 1_556
K1 O13 3.209834 1_556
K2 O33 2.675953 1_655
K2 O0 2.907757 1_655
K2 O6 2.907757 1_655
K2 O20 2.958317 1_655
K2 O18 2.958317 1_655
K2 O37 2.959099 1_655
K2 O37 3.034217 1_555
K2 O14 3.209834 1_555
K2 O8 3.209834 1_555
K3 O32 2.675953 1_555
K3 O7 2.907757 1_554
K3 O1 2.907757 1_554
K3 O19 2.958317 1_555
K3 O21 2.958317 1_555
K3 O36 2.959099 1_555
K3 O36 3.034217 1_655
K3 O15 3.209834 1_554
K3 O9 3.209834 1_554
K4 O29 2.715146 1_555
K4 O10 2.730542 1_555
K4 O14 2.803092 1_555
K4 O6 2.959996 1_555
K4 O22 2.990744 1_455
K4 O22 3.016935 1_555
K4 O39 3.078157 1_555
K4 O21 3.285294 1_555
K5 O28 2.715146 1_555
K5 O11 2.730542 1_556
K5 O15 2.803092 1_445
K5 O7 2.959996 1_545
K5 O23 2.990744 1_555
K5 O23 3.016935 1_455
K5 O38 3.078157 1_455
K5 O20 3.285294 1_545
K6 O31 2.715146 1_555
K6 O8 2.730542 1_555
K6 O12 2.803092 1_565
K6 O4 2.959996 1_565
K6 O20 2.990744 1_655
K6 O20 3.016935 1_555
K6 O37 3.078157 1_555
K6 O23 3.285294 1_565
K7 O30 2.715146 1_555
K7 O9 2.730542 1_554
K7 O13 2.803092 1_655
K7 O5 2.959996 1_555
K7 O21 2.990744 1_555
K7 O21 3.016935 1_655
K7 O36 3.078157 1_655
K7 O22 3.285294 1_555
K8 O25 2.715146 1_555
K8 O14 2.730542 1_555
K8 O10 2.803092 1_555
K8 O2 2.959996 1_555
K8 O18 2.990744 1_655
K8 O18 3.016935 1_555
K8 O37 3.078157 1_555
K8 O17 3.285294 1_555
K9 O24 2.715146 1_555
K9 O15 2.730542 1_554
K9 O11 2.803092 1_665
K9 O3 2.959996 1_565
K9 O19 2.990744 1_555
K9 O19 3.016935 1_655
K9 O36 3.078157 1_655
K9 O16 3.285294 1_565
K10 O27 2.715146 1_555
K10 O12 2.730542 1_555
K10 O8 2.803092 1_545
K10 O0 2.959996 1_545
K10 O16 2.990744 1_455
K10 O16 3.016935 1_555
K10 O39 3.078157 1_555
K10 O19 3.285294 1_545
K11 O26 2.715146 1_555
K11 O13 2.730542 1_556
K11 O9 2.803092 1_455
K11 O1 2.959996 1_555
K11 O17 2.990744 1_555
K11 O17 3.016935 1_455
K11 O38 3.078157 1_455
K11 O18 3.285294 1_555
O0 Si5 1.654758 1_455
O0 Y0 2.359432 1_555
O1 Si4 1.654758 1_555
O1 Y1 2.359432 1_555
O2 Si7 1.654758 1_655
O2 Y2 2.359432 1_555
O3 Si6 1.654758 1_555
O3 Y3 2.359432 1_555
O4 Si1 1.654758 1_655
O4 Y2 2.359432 1_555
O5 Si0 1.654758 1_555
O5 Y3 2.359432 1_555
O6 Si3 1.654758 1_455
O6 Y0 2.359432 1_555
O7 Si2 1.654758 1_555
O7 Y1 2.359432 1_555
O8 Si5 1.616670 1_555
O8 Y0 2.246375 1_555
O9 Si4 1.616670 1_555
O9 Y1 2.246375 1_655
O10 Si7 1.616670 1_555
O10 Y2 2.246375 1_555
O11 Si6 1.616670 1_555
O11 Y3 2.246375 1_455
O12 Si1 1.616670 1_555
O12 Y2 2.246375 1_555
O13 Si0 1.616670 1_555
O13 Y3 2.246375 1_455
O14 Si3 1.616670 1_555
O14 Y0 2.246375 1_555
O15 Si2 1.616670 1_555
O15 Y1 2.246375 1_655
O16 Si5 1.663679 1_545
O17 Si4 1.663679 1_555
O18 Si7 1.663679 1_555
O19 Si6 1.663679 1_565
O20 Si1 1.663679 1_565
O21 Si0 1.663679 1_555
O22 Si3 1.663679 1_555
O23 Si2 1.663679 1_545
O24 Si5 1.674540 1_555
O24 Si8 1.679068 1_655
O25 Si4 1.674540 1_555
O25 Si9 1.679068 1_555
O26 Si7 1.674540 1_555
O26 Si10 1.679068 1_455
O27 Si6 1.674540 1_555
O27 Si11 1.679068 1_555
O28 Si1 1.674540 1_555
O28 Si10 1.679068 1_455
O29 Si0 1.674540 1_555
O29 Si11 1.679068 1_555
O30 Si3 1.674540 1_555
O30 Si8 1.679068 1_655
O31 Si2 1.674540 1_555
O31 Si9 1.679068 1_555
O32 Si8 1.615741 1_555
O32 Y0 2.247352 1_555
O33 Si9 1.615741 1_555
O33 Y1 2.247352 1_555
O34 Si10 1.615741 1_555
O34 Y2 2.247352 1_555
O35 Si11 1.615741 1_555
O35 Y3 2.247352 1_555
O36 Si8 1.613966 1_555
O36 Y1 2.253981 1_554
O37 Si9 1.613966 1_555
O37 Y0 2.253981 1_555
O38 Si10 1.613966 1_555
O38 Y3 2.253981 1_556
O39 Si11 1.613966 1_555
O39 Y2 2.253981 1_555
