# generated using pymatgen
data_Li2VCrO4
_symmetry_space_group_name_H-M   'P 1'
_cell_length_a   5.97822975
_cell_length_b   5.97822975
_cell_length_c   5.97822975
_cell_angle_alpha   120.58609175
_cell_angle_beta   120.44603977
_cell_angle_gamma   89.10849155
_symmetry_Int_Tables_number   1
_chemical_formula_structural   Li2VCrO4
_chemical_formula_sum   'Li4 V2 Cr2 O8'
_cell_volume   149.88012795
_cell_formula_units_Z   2
loop_
 _symmetry_equiv_pos_site_id
 _symmetry_equiv_pos_as_xyz
  1  'x, y, z'
loop_
 _atom_site_type_symbol
 _atom_site_label
 _atom_site_symmetry_multiplicity
 _atom_site_fract_x
 _atom_site_fract_y
 _atom_site_fract_z
 _atom_site_occupancy
  Li  Li0  1  0.00000000  0.00000000  0.00000000  1
  Li  Li1  1  0.50000000  0.00000000  0.00000000  1
  Li  Li2  1  0.50000000  0.00000000  0.50000000  1
  Li  Li3  1  0.50000000  0.50000000  0.50000000  1
  V  V0  1  0.00000000  0.00000000  0.50000000  1
  V  V1  1  0.00000000  0.50000000  0.00000000  1
  Cr  Cr0  1  0.00000000  0.50000000  0.50000000  1
  Cr  Cr1  1  0.50000000  0.50000000  0.00000000  1
  O  O0  1  0.75364700  0.73729400  0.48364600  1
  O  O1  1  0.75200000  0.73947100  0.01252900  1
  O  O2  1  0.22694100  0.73947100  0.48747100  1
  O  O3  1  0.24635300  0.72999900  0.98364600  1
  O  O4  1  0.75364700  0.27000100  0.01635400  1
  O  O5  1  0.77305900  0.26052900  0.51252900  1
  O  O6  1  0.24800000  0.26052900  0.98747100  1
  O  O7  1  0.24635300  0.26270600  0.51635400  1
loop_
_geom_bond_atom_site_label_1
_geom_bond_atom_site_label_2
_geom_bond_distance
_geom_bond_site_symmetry_2
Li0 O0 2.166870 1_444
Li0 O7 2.166870 1_555
Li0 O4 2.166870 1_455
Li0 O3 2.166870 1_544
Li0 O1 2.220957 1_445
Li0 O6 2.220957 1_554
Li1 O1 2.152290 1_545
Li1 O6 2.152290 1_554
Li1 O2 2.152291 1_544
Li1 O5 2.152291 1_555
Li1 O4 2.163247 1_555
Li1 O3 2.163247 1_544
Li2 O0 2.166866 1_545
Li2 O7 2.166866 1_555
Li2 O4 2.166870 1_556
Li2 O3 2.166870 1_544
Li2 O5 2.220961 1_555
Li2 O2 2.220961 1_545
Li3 O6 2.152290 1_554
Li3 O1 2.152290 1_556
Li3 O2 2.152295 1_555
Li3 O5 2.152295 1_555
Li3 O0 2.163251 1_555
Li3 O7 2.163251 1_555
Cr0 O3 2.030067 1_555
Cr0 O4 2.030067 1_455
Cr0 O7 2.030071 1_555
Cr0 O0 2.030071 1_455
Cr0 O2 2.041648 1_555
Cr0 O5 2.041648 1_455
Cr1 O0 2.030067 1_555
Cr1 O7 2.030067 1_554
Cr1 O3 2.030067 1_554
Cr1 O4 2.030067 1_555
Cr1 O6 2.041652 1_554
Cr1 O1 2.041652 1_555
O0 V0 2.101162 1_665
O1 V0 2.047096 1_665
O1 V1 2.047096 1_655
O2 V0 2.047092 1_565
O2 V1 2.047096 1_555
O3 V1 2.101166 1_556
O4 V1 2.101166 1_655
O5 V0 2.047092 1_655
O5 V1 2.047096 1_656
O6 V0 2.047096 1_555
O6 V1 2.047096 1_556
O7 V0 2.101162 1_555
