# generated using pymatgen
data_K2ErPCO7
_symmetry_space_group_name_H-M   'P 1'
_cell_length_a   7.12188900
_cell_length_b   5.77402400
_cell_length_c   9.85425736
_cell_angle_alpha   87.99760084
_cell_angle_beta   90.00000000
_cell_angle_gamma   90.00000000
_symmetry_Int_Tables_number   1
_chemical_formula_structural   K2ErPCO7
_chemical_formula_sum   'K4 Er2 P2 C2 O14'
_cell_volume   404.97891177
_cell_formula_units_Z   2
loop_
 _symmetry_equiv_pos_site_id
 _symmetry_equiv_pos_as_xyz
  1  'x, y, z'
loop_
 _atom_site_type_symbol
 _atom_site_label
 _atom_site_symmetry_multiplicity
 _atom_site_fract_x
 _atom_site_fract_y
 _atom_site_fract_z
 _atom_site_occupancy
  K  K0  1  0.48826400  0.24400800  0.77302300  1
  K  K1  1  0.01173600  0.24400800  0.77302300  1
  K  K2  1  0.51173600  0.75599200  0.22697700  1
  K  K3  1  0.98826400  0.75599200  0.22697700  1
  Er  Er0  1  0.75000000  0.77758600  0.63648600  1
  Er  Er1  1  0.25000000  0.22241400  0.36351400  1
  P  P0  1  0.25000000  0.71148300  0.57148600  1
  P  P1  1  0.75000000  0.28851700  0.42851400  1
  C  C0  1  0.75000000  0.72910600  0.91302600  1
  C  C1  1  0.25000000  0.27089400  0.08697400  1
  O  O0  1  0.25000000  0.29851700  0.96032700  1
  O  O1  1  0.75000000  0.93478000  0.84957600  1
  O  O2  1  0.75000000  0.55219600  0.82966300  1
  O  O3  1  0.06894400  0.77033200  0.65073900  1
  O  O4  1  0.43105600  0.77033200  0.65073900  1
  O  O5  1  0.75000000  0.14659100  0.56723700  1
  O  O6  1  0.25000000  0.44606900  0.54216700  1
  O  O7  1  0.75000000  0.55393100  0.45783300  1
  O  O8  1  0.25000000  0.85340900  0.43276300  1
  O  O9  1  0.56894400  0.22966800  0.34926100  1
  O  O10  1  0.93105600  0.22966800  0.34926100  1
  O  O11  1  0.25000000  0.44780400  0.17033700  1
  O  O12  1  0.25000000  0.06522000  0.15042400  1
  O  O13  1  0.75000000  0.70148300  0.03967300  1
loop_
_geom_bond_atom_site_label_1
_geom_bond_atom_site_label_2
_geom_bond_distance
_geom_bond_site_symmetry_2
K0 O0 2.534927 1_555
K0 O2 2.649944 1_555
K0 O1 2.671634 1_545
K0 O5 2.825430 1_555
K0 O6 3.038156 1_555
K0 O4 3.054292 1_545
K0 O4 3.255414 1_555
K1 O0 2.534927 1_555
K1 O2 2.649944 1_455
K1 O1 2.671634 1_445
K1 O5 2.825430 1_455
K1 O6 3.038156 1_555
K1 O3 3.054292 1_545
K1 O3 3.255414 1_555
K2 O13 2.534927 1_555
K2 O11 2.649944 1_555
K2 O12 2.671634 1_565
K2 O8 2.825430 1_555
K2 O7 3.038156 1_555
K2 O9 3.054292 1_565
K2 O9 3.255414 1_555
K3 O13 2.534927 1_555
K3 O11 2.649944 1_655
K3 O12 2.671634 1_665
K3 O8 2.825430 1_655
K3 O7 3.038156 1_555
K3 O10 3.054292 1_565
K3 O10 3.255414 1_555
Er0 O5 2.214431 1_565
Er0 O7 2.219436 1_555
Er0 O2 2.268102 1_555
Er0 O3 2.276117 1_655
Er0 O4 2.276117 1_555
Er0 O1 2.316538 1_555
Er1 O8 2.214431 1_545
Er1 O6 2.219436 1_555
Er1 O11 2.268102 1_555
Er1 O10 2.276117 1_455
Er1 O9 2.276117 1_555
Er1 O12 2.316538 1_555
C0 O13 1.252622 1_556
C0 O1 1.322636 1_555
C0 O2 1.333003 1_555
C1 O0 1.252622 1_554
C1 O12 1.322636 1_555
C1 O11 1.333003 1_555
O3 P0 1.551336 1_555
O4 P0 1.551336 1_555
O5 P1 1.569073 1_555
O6 P0 1.569392 1_555
O7 P1 1.569392 1_555
O8 P0 1.569073 1_555
O9 P1 1.551336 1_555
O10 P1 1.551336 1_555
