# generated using pymatgen
data_Bi12PO20
_symmetry_space_group_name_H-M   'P 1'
_cell_length_a   8.81932703
_cell_length_b   8.81925740
_cell_length_c   8.81925799
_cell_angle_alpha   109.47115961
_cell_angle_beta   109.47122883
_cell_angle_gamma   109.47116624
_symmetry_Int_Tables_number   1
_chemical_formula_structural   Bi12PO20
_chemical_formula_sum   'Bi12 P1 O20'
_cell_volume   528.05382965
_cell_formula_units_Z   1
loop_
 _symmetry_equiv_pos_site_id
 _symmetry_equiv_pos_as_xyz
  1  'x, y, z'
loop_
 _atom_site_type_symbol
 _atom_site_label
 _atom_site_symmetry_multiplicity
 _atom_site_fract_x
 _atom_site_fract_y
 _atom_site_fract_z
 _atom_site_occupancy
  Bi  Bi0  1  0.80254337  0.14834312  0.30178301  1
  Bi  Bi1  1  0.85165886  0.65420056  0.15343981  1
  Bi  Bi2  1  0.49924190  0.34580781  0.19746226  1
  Bi  Bi3  1  0.34580186  0.19745913  0.49923946  1
  Bi  Bi4  1  0.65419975  0.15344017  0.85165667  1
  Bi  Bi5  1  0.84656448  0.50076070  0.69822158  1
  Bi  Bi6  1  0.19745951  0.49923841  0.34580045  1
  Bi  Bi7  1  0.69822123  0.84656221  0.50075979  1
  Bi  Bi8  1  0.30177705  0.80253355  0.14834399  1
  Bi  Bi9  1  0.14834206  0.30177915  0.80254077  1
  Bi  Bi10  1  0.50076073  0.69821806  0.84656231  1
  Bi  Bi11  1  0.15343329  0.85165511  0.65419170  1
  P  P0  1  -0.00001049  0.00000988  0.00000649  1
  O  O0  1  0.59688677  0.00000020  0.00000006  1
  O  O1  1  0.75947413  0.37574455  0.11970662  1
  O  O2  1  0.17592841  -0.00000083  -0.00000181  1
  O  O3  1  0.61627223  0.24052974  0.36023545  1
  O  O4  1  0.88029480  0.25603427  0.63976787  1
  O  O5  1  -0.00000120  0.17593090  -0.00000168  1
  O  O6  1  -0.00000157  -0.00000159  0.17592857  1
  O  O7  1  0.74396757  0.62426196  0.38373314  1
  O  O8  1  0.40311443  0.40311438  0.40311297  1
  O  O9  1  0.37574214  0.11970665  0.75947211  1
  O  O10  1  0.62425842  0.38373333  0.74396527  1
  O  O11  1  0.36023106  0.61626204  0.24052384  1
  O  O12  1  0.63976976  0.88029279  0.25603642  1
  O  O13  1  0.00000087  0.59688679  0.00000176  1
  O  O14  1  -0.00000074  0.99999768  0.59688574  1
  O  O15  1  0.24052673  0.36023179  0.61626844  1
  O  O16  1  0.82406985  0.82406991  0.82406769  1
  O  O17  1  0.38373143  0.74396203  0.62425495  1
  O  O18  1  0.11970527  0.75947204  0.37573812  1
  O  O19  1  0.25603504  0.63976349  0.88029416  1
loop_
_geom_bond_atom_site_label_1
_geom_bond_atom_site_label_2
_geom_bond_distance
_geom_bond_site_symmetry_2
Bi0 O12 2.127844 1_545
Bi0 O3 2.191134 1_555
Bi0 O0 2.227877 1_555
Bi0 O4 2.563809 1_555
Bi0 O6 2.795621 1_655
Bi1 O18 2.127822 1_655
Bi1 O1 2.191112 1_555
Bi1 O13 2.227862 1_655
Bi1 O7 2.563808 1_555
Bi1 O6 2.795598 1_665
Bi2 O3 2.127861 1_555
Bi2 O7 2.191121 1_555
Bi2 O8 2.227834 1_555
Bi2 O1 2.563841 1_555
Bi2 O2 2.795675 1_555
Bi3 O15 2.127836 1_555
Bi3 O10 2.191138 1_555
Bi3 O8 2.227862 1_555
Bi3 O9 2.563806 1_555
Bi3 O6 2.795644 1_555
Bi4 O1 2.127846 1_556
Bi4 O9 2.191142 1_555
Bi4 O0 2.227874 1_556
Bi4 O10 2.563808 1_555
Bi4 O5 2.795621 1_656
Bi5 O10 2.127854 1_555
Bi5 O4 2.191128 1_555
Bi5 O13 2.227851 1_656
Bi5 O3 2.563814 1_555
Bi5 O16 2.795623 1_555
Bi6 O11 2.127822 1_555
Bi6 O17 2.191111 1_555
Bi6 O8 2.227855 1_555
Bi6 O18 2.563830 1_555
Bi6 O5 2.795612 1_555
Bi7 O7 2.127815 1_555
Bi7 O12 2.191103 1_555
Bi7 O14 2.227852 1_655
Bi7 O11 2.563866 1_555
Bi7 O16 2.795602 1_555
Bi8 O19 2.127845 1_554
Bi8 O11 2.191098 1_555
Bi8 O13 2.227828 1_555
Bi8 O12 2.563880 1_555
Bi8 O2 2.795678 1_565
Bi9 O4 2.127837 1_455
Bi9 O15 2.191126 1_555
Bi9 O14 2.227862 1_545
Bi9 O19 2.563799 1_555
Bi9 O5 2.795603 1_556
Bi10 O17 2.127857 1_555
Bi10 O19 2.191144 1_555
Bi10 O0 2.227866 1_566
Bi10 O15 2.563826 1_555
Bi10 O16 2.795646 1_555
Bi11 O9 2.127866 1_565
Bi11 O18 2.191108 1_555
Bi11 O14 2.227822 1_555
Bi11 O17 2.563864 1_555
Bi11 O2 2.795644 1_566
O2 P0 1.551719 1_555
O5 P0 1.551489 1_555
O6 P0 1.551510 1_555
O16 P0 1.551604 1_666
