# generated using pymatgen
data_Li5Fe8(BO3)8
_symmetry_space_group_name_H-M   'P 1'
_cell_length_a   5.21751400
_cell_length_b   9.09128413
_cell_length_c   10.24685899
_cell_angle_alpha   88.93616535
_cell_angle_beta   89.65337797
_cell_angle_gamma   89.91033749
_symmetry_Int_Tables_number   1
_chemical_formula_structural   Li5Fe8(BO3)8
_chemical_formula_sum   'Li5 Fe8 B8 O24'
_cell_volume   485.95532202
_cell_formula_units_Z   1
loop_
 _symmetry_equiv_pos_site_id
 _symmetry_equiv_pos_as_xyz
  1  'x, y, z'
loop_
 _atom_site_type_symbol
 _atom_site_label
 _atom_site_symmetry_multiplicity
 _atom_site_fract_x
 _atom_site_fract_y
 _atom_site_fract_z
 _atom_site_occupancy
  Li  Li0  1  0.14983800  0.17058800  0.65225200  1
  Li  Li1  1  0.32576300  0.32973900  0.40823000  1
  Li  Li2  1  0.34103900  0.31952200  0.91953900  1
  Li  Li3  1  0.65895000  0.67775100  0.66687300  1
  Li  Li4  1  0.68709400  0.67171100  0.16564700  1
  Fe  Fe0  1  0.14760700  0.83865100  0.62702700  1
  Fe  Fe1  1  0.18046200  0.49183400  0.13365900  1
  Fe  Fe2  1  0.32650900  0.98258300  0.87680900  1
  Fe  Fe3  1  0.32338300  0.66969400  0.38256800  1
  Fe  Fe4  1  0.66565300  0.34278400  0.63335800  1
  Fe  Fe5  1  0.67357300  0.01105100  0.12658900  1
  Fe  Fe6  1  0.83613300  0.15399600  0.37921000  1
  Fe  Fe7  1  0.83261800  0.50790300  0.88701500  1
  B  B0  1  0.16349200  0.50161400  0.62067500  1
  B  B1  1  0.17015200  0.83221600  0.12877400  1
  B  B2  1  0.34409500  0.00162900  0.37662700  1
  B  B3  1  0.32968300  0.66085900  0.87301600  1
  B  B4  1  0.66144400  0.00176800  0.63462500  1
  B  B5  1  0.67095400  0.33367200  0.12613800  1
  B  B6  1  0.82165400  0.49399700  0.37639900  1
  B  B7  1  0.82567500  0.16733700  0.87806700  1
  O  O0  1  0.09010500  0.49887100  0.35406800  1
  O  O1  1  0.08910700  0.15231900  0.86164100  1
  O  O2  1  0.19052500  0.78900100  0.84106400  1
  O  O3  1  0.23961000  0.86940100  0.42247900  1
  O  O4  1  0.21805600  0.13134100  0.39622100  1
  O  O5  1  0.20692300  0.53346700  0.91948100  1
  O  O6  1  0.28196400  0.36570300  0.61581100  1
  O  O7  1  0.32326600  0.94292100  0.07284900  1
  O  O8  1  0.30299900  0.62905100  0.58271200  1
  O  O9  1  0.29693000  0.70788100  0.18020800  1
  O  O10  1  0.41058900  0.32493700  0.11436100  1
  O  O11  1  0.40447100  0.01133800  0.68144500  1
  O  O12  1  0.58536400  0.99751000  0.31666700  1
  O  O13  1  0.58717500  0.66345900  0.85462200  1
  O  O14  1  0.69955400  0.29679500  0.84457400  1
  O  O15  1  0.70743400  0.36393300  0.41641100  1
  O  O16  1  0.67626600  0.61846200  0.35600000  1
  O  O17  1  0.67744500  0.05026800  0.92735800  1
  O  O18  1  0.79641400  0.46811500  0.10216600  1
  O  O19  1  0.77567000  0.86859000  0.62697400  1
  O  O20  1  0.78808100  0.13017900  0.59588600  1
  O  O21  1  0.81060300  0.20655900  0.15830500  1
  O  O22  1  0.90920000  0.84432100  0.13191200  1
  O  O23  1  0.91053500  0.51503900  0.65965000  1
loop_
_geom_bond_atom_site_label_1
_geom_bond_atom_site_label_2
_geom_bond_distance
_geom_bond_site_symmetry_2
Li0 O6 1.933212 1_555
Li0 O11 1.983261 1_555
Li0 O20 2.013540 1_455
Li0 O1 2.170301 1_555
Li1 O4 1.896445 1_555
Li1 O15 2.018455 1_555
Li1 O0 2.038321 1_555
Li1 O6 2.168684 1_555
Li2 O14 2.029541 1_555
Li2 O10 2.032693 1_556
Li2 O5 2.066039 1_555
Li2 O1 2.107042 1_555
Li3 O19 1.876725 1_555
Li3 O13 1.959701 1_555
Li3 O23 1.978269 1_555
Li3 O8 2.103563 1_555
Li4 O22 1.976270 1_555
Li4 O16 2.001441 1_555
Li4 O18 2.052166 1_555
Li4 O9 2.066510 1_555
Fe0 O19 1.959162 1_455
Fe0 O8 2.125424 1_555
Fe0 O11 2.149398 1_565
Fe0 O3 2.160596 1_555
Fe0 O2 2.243415 1_555
Fe1 O10 1.945649 1_555
Fe1 O18 2.043897 1_455
Fe1 O9 2.120536 1_555
Fe1 O5 2.223616 1_554
Fe1 O0 2.306417 1_555
Fe2 O2 1.940570 1_555
Fe2 O1 1.981681 1_565
Fe2 O17 2.006586 1_565
Fe2 O7 2.034274 1_556
Fe2 O11 2.052394 1_565
Fe3 O16 1.917531 1_555
Fe3 O3 1.917706 1_555
Fe3 O0 2.001390 1_555
Fe3 O8 2.079221 1_555
Fe3 O9 2.101377 1_555
Fe4 O6 2.021142 1_555
Fe4 O23 2.045372 1_555
Fe4 O20 2.076561 1_555
Fe4 O14 2.204788 1_555
Fe4 O15 2.237125 1_555
Fe5 O22 1.950358 1_545
Fe5 O21 1.950445 1_555
Fe5 O12 2.000235 1_545
Fe5 O7 2.013918 1_545
Fe5 O17 2.065844 1_554
Fe6 O4 2.011268 1_655
Fe6 O12 2.048508 1_545
Fe6 O15 2.063699 1_555
Fe6 O20 2.239381 1_555
Fe6 O21 2.309369 1_555
Fe7 O13 1.931873 1_555
Fe7 O5 1.997704 1_655
Fe7 O14 2.096053 1_555
Fe7 O18 2.234378 1_556
Fe7 O23 2.362276 1_555
B0 O6 1.382321 1_555
B0 O23 1.382466 1_455
B0 O8 1.416293 1_555
B1 O22 1.366022 1_455
B1 O7 1.398248 1_555
B1 O9 1.404559 1_555
B2 O4 1.366805 1_555
B2 O3 1.393204 1_545
B2 O12 1.398170 1_545
B3 O13 1.355677 1_555
B3 O5 1.398720 1_555
B3 O2 1.406268 1_555
B4 O19 1.352025 1_545
B4 O20 1.392494 1_555
B4 O11 1.424352 1_555
B5 O10 1.367097 1_555
B5 O21 1.400399 1_555
B5 O18 1.404334 1_555
B6 O16 1.374757 1_555
B6 O15 1.379377 1_555
B6 O0 1.418476 1_655
B7 O14 1.386108 1_555
B7 O1 1.390532 1_655
B7 O17 1.401385 1_555
