# generated using pymatgen
data_Li11Cr3Fe3O16
_symmetry_space_group_name_H-M   'P 1'
_cell_length_a   5.98279934
_cell_length_b   5.98279934
_cell_length_c   10.04714518
_cell_angle_alpha   83.31368913
_cell_angle_beta   83.31368913
_cell_angle_gamma   59.15949239
_symmetry_Int_Tables_number   1
_chemical_formula_structural   Li11Cr3Fe3O16
_chemical_formula_sum   'Li11 Cr3 Fe3 O16'
_cell_volume   305.99455431
_cell_formula_units_Z   1
loop_
 _symmetry_equiv_pos_site_id
 _symmetry_equiv_pos_as_xyz
  1  'x, y, z'
loop_
 _atom_site_type_symbol
 _atom_site_label
 _atom_site_symmetry_multiplicity
 _atom_site_fract_x
 _atom_site_fract_y
 _atom_site_fract_z
 _atom_site_occupancy
  Li  Li0  1  0.04552400  0.04552400  0.99656600  1
  Li  Li1  1  0.63624200  0.14293200  0.44257900  1
  Li  Li2  1  0.30241000  0.30241000  0.94444700  1
  Li  Li3  1  0.35169500  0.35169500  0.20357500  1
  Li  Li4  1  0.22529000  0.22529000  0.44381500  1
  Li  Li5  1  0.14293200  0.63624200  0.44257900  1
  Li  Li6  1  0.64067300  0.64067300  0.46287700  1
  Li  Li7  1  0.67279800  0.67279800  0.71089100  1
  Li  Li8  1  0.54455600  0.54455600  0.99050700  1
  Li  Li9  1  0.80085200  0.80085200  0.92977600  1
  Li  Li10  1  0.02851000  0.02851000  0.51213000  1
  Cr  Cr0  1  0.85029500  0.35137500  0.21938100  1
  Cr  Cr1  1  0.35137500  0.85029500  0.21938100  1
  Cr  Cr2  1  0.17030500  0.17030500  0.71630000  1
  Fe  Fe0  1  0.66904600  0.17288500  0.71347000  1
  Fe  Fe1  1  0.17288500  0.66904600  0.71347000  1
  Fe  Fe2  1  0.84892100  0.84892100  0.21158100  1
  O  O0  1  0.18428800  0.18428800  0.11472400  1
  O  O1  1  0.48865000  0.00985900  0.82051400  1
  O  O2  1  0.71527300  0.19744400  0.10741300  1
  O  O3  1  0.98856800  0.98856800  0.82503100  1
  O  O4  1  0.34198300  0.34198300  0.59041500  1
  O  O5  1  0.00985900  0.48865000  0.82051400  1
  O  O6  1  0.47699700  0.47699700  0.81824000  1
  O  O7  1  0.85582500  0.33230900  0.60411900  1
  O  O8  1  0.19744400  0.71527300  0.10741300  1
  O  O9  1  0.50420800  0.52118000  0.32746400  1
  O  O10  1  0.33230900  0.85582500  0.60411900  1
  O  O11  1  0.98797900  0.51148000  0.32830900  1
  O  O12  1  0.69218300  0.69218300  0.10690400  1
  O  O13  1  0.51148000  0.98797900  0.32830900  1
  O  O14  1  0.86161400  0.86161400  0.60168600  1
  O  O15  1  0.00252800  0.00252800  0.33132300  1
loop_
_geom_bond_atom_site_label_1
_geom_bond_atom_site_label_2
_geom_bond_distance
_geom_bond_site_symmetry_2
Li0 O3 1.896056 1_445
Li0 O8 1.962739 1_546
Li0 O2 1.962739 1_456
Li0 O0 1.988331 1_556
Li1 O13 1.972707 1_545
Li1 O4 2.092161 1_555
Li1 O15 2.125618 1_655
Li1 O14 2.180556 1_545
Li1 O9 2.202995 1_555
Li2 O0 1.968415 1_556
Li2 O1 2.010050 1_555
Li2 O5 2.010050 1_555
Li2 O6 2.071639 1_555
Li3 O8 2.043701 1_555
Li3 O2 2.043701 1_555
Li3 O0 2.061088 1_555
Li3 O13 2.175011 1_545
Li3 O11 2.175011 1_455
Li3 O9 2.217463 1_555
Li4 O11 1.929440 1_455
Li4 O13 1.929440 1_545
Li4 O4 2.030508 1_555
Li4 O7 2.418680 1_455
Li4 O10 2.418680 1_545
Li5 O11 1.972707 1_455
Li5 O4 2.092161 1_555
Li5 O15 2.125618 1_565
Li5 O9 2.135670 1_555
Li5 O14 2.180556 1_455
Li6 O9 2.027872 1_555
Li6 O10 2.110726 1_555
Li6 O7 2.110726 1_555
Li6 O13 2.164573 1_555
Li6 O11 2.164573 1_555
Li7 O7 2.108984 1_555
Li7 O10 2.108984 1_555
Li7 O1 2.109538 1_565
Li7 O5 2.109538 1_655
Li7 O14 2.118299 1_555
Li7 O6 2.174019 1_555
Li8 O6 1.953382 1_555
Li8 O12 2.051504 1_556
Li8 O8 2.066907 1_556
Li8 O2 2.066907 1_556
Li9 O12 1.976609 1_556
Li9 O1 2.005156 1_565
Li9 O5 2.005156 1_655
Li9 O3 2.091129 1_555
Li10 O14 1.845925 1_445
Li10 O7 1.862429 1_455
Li10 O10 1.862429 1_545
Li10 O15 1.872066 1_555
Cr0 O0 1.950707 1_655
Cr0 O2 1.995458 1_555
Cr0 O11 2.014165 1_555
Cr0 O12 2.015969 1_555
Cr0 O9 2.018696 1_555
Cr0 O15 2.047762 1_655
Cr1 O9 1.944148 1_555
Cr1 O0 1.950707 1_565
Cr1 O8 1.995458 1_555
Cr1 O13 2.014165 1_555
Cr1 O12 2.015969 1_555
Cr1 O15 2.047762 1_565
Cr2 O1 2.000267 1_555
Cr2 O5 2.000267 1_555
Cr2 O10 2.029632 1_545
Cr2 O7 2.029632 1_455
Cr2 O4 2.046031 1_555
Cr2 O3 2.053476 1_445
Fe0 O6 1.938950 1_555
Fe0 O1 1.958965 1_555
Fe0 O7 1.982021 1_555
Fe0 O14 2.010646 1_545
Fe0 O3 2.043648 1_545
Fe0 O4 2.150196 1_555
Fe1 O6 1.938950 1_555
Fe1 O5 1.958965 1_555
Fe1 O10 1.982021 1_555
Fe1 O14 2.010646 1_455
Fe1 O3 2.043648 1_455
Fe1 O4 2.150196 1_555
Fe2 O2 2.014886 1_565
Fe2 O8 2.014886 1_655
Fe2 O13 2.024122 1_555
Fe2 O11 2.024122 1_555
Fe2 O12 2.055643 1_555
Fe2 O15 2.125403 1_665
