# generated using pymatgen
data_K3Li5Al6Si10(O5F)6
_symmetry_space_group_name_H-M   'P 1'
_cell_length_a   5.35262600
_cell_length_b   5.45197461
_cell_length_c   32.64016319
_cell_angle_alpha   88.79405426
_cell_angle_beta   87.98662683
_cell_angle_gamma   62.29806561
_symmetry_Int_Tables_number   1
_chemical_formula_structural   K3Li5Al6Si10(O5F)6
_chemical_formula_sum   'K3 Li5 Al6 Si10 O30 F6'
_cell_volume   842.80554051
_cell_formula_units_Z   1
loop_
 _symmetry_equiv_pos_site_id
 _symmetry_equiv_pos_as_xyz
  1  'x, y, z'
loop_
 _atom_site_type_symbol
 _atom_site_label
 _atom_site_symmetry_multiplicity
 _atom_site_fract_x
 _atom_site_fract_y
 _atom_site_fract_z
 _atom_site_occupancy
  K  K0  1  0.63936600  0.58551400  0.29272000  1
  K  K1  1  0.50000000  0.50000000  0.00000000  1
  K  K2  1  0.36063400  0.41448600  0.70728000  1
  Li  Li0  1  0.50000000  0.00000000  0.50000000  1
  Li  Li1  1  0.85627800  0.82613300  0.21237900  1
  Li  Li2  1  0.21967700  0.02591400  0.19544000  1
  Li  Li3  1  0.78032300  0.97408600  0.80456000  1
  Li  Li4  1  0.14372200  0.17386700  0.78762100  1
  Al  Al0  1  0.05388400  0.71466300  0.11878800  1
  Al  Al1  1  0.16151600  0.72057800  0.51126100  1
  Al  Al2  1  0.50080700  0.53471300  0.81702900  1
  Al  Al3  1  0.83848400  0.27942200  0.48873900  1
  Al  Al4  1  0.49919300  0.46528700  0.18297100  1
  Al  Al5  1  0.94611600  0.28533700  0.88121200  1
  Si  Si0  1  0.40764100  0.89071600  0.90964300  1
  Si  Si1  1  0.70273500  0.72694200  0.74296800  1
  Si  Si2  1  0.46219900  0.74276700  0.58655900  1
  Si  Si3  1  0.19296000  0.91621300  0.41342600  1
  Si  Si4  1  0.91401900  0.89794200  0.02967300  1
  Si  Si5  1  0.29726500  0.27305800  0.25703200  1
  Si  Si6  1  0.08598100  0.10205800  0.97032700  1
  Si  Si7  1  0.80704000  0.08378700  0.58657400  1
  Si  Si8  1  0.53780100  0.25723300  0.41344100  1
  Si  Si9  1  0.59235900  0.10928400  0.09035700  1
  O  O0  1  0.03591900  0.57818900  0.03473300  1
  O  O1  1  0.44926600  0.73322200  0.53553200  1
  O  O2  1  0.87028200  0.08990400  0.39680000  1
  O  O3  1  0.67427300  0.84685500  0.12109000  1
  O  O4  1  0.16798000  0.73336000  0.16781100  1
  O  O5  1  0.56239800  0.06831100  0.04007200  1
  O  O6  1  0.51164400  0.80572600  0.78784100  1
  O  O7  1  0.63688300  0.41102500  0.59964800  1
  O  O8  1  0.51299100  0.87000900  0.70313100  1
  O  O9  1  0.14517800  0.94689700  0.46646600  1
  O  O10  1  0.37443400  0.07999000  0.40205900  1
  O  O11  1  0.11315700  0.61047700  0.25759600  1
  O  O12  1  0.95923500  0.01199800  0.07881500  1
  O  O13  1  0.65222500  0.60176700  0.89453100  1
  O  O14  1  0.93832400  0.83433100  0.74954500  1
  O  O15  1  0.62556600  0.92001000  0.59794100  1
  O  O16  1  0.36311700  0.58897500  0.40035200  1
  O  O17  1  0.06167600  0.16566900  0.25045500  1
  O  O18  1  0.34777500  0.39823300  0.10546900  1
  O  O19  1  0.04076500  0.98800200  0.92118500  1
  O  O20  1  0.32572700  0.15314500  0.87891000  1
  O  O21  1  0.12971800  0.91009600  0.60320000  1
  O  O22  1  0.88684300  0.38952300  0.74240400  1
  O  O23  1  0.85482200  0.05310300  0.53353400  1
  O  O24  1  0.48700900  0.12999100  0.29686900  1
  O  O25  1  0.96408100  0.42181100  0.96526700  1
  O  O26  1  0.48835600  0.19427400  0.21215900  1
  O  O27  1  0.43760200  0.93168900  0.95992800  1
  O  O28  1  0.83202000  0.26664000  0.83218900  1
  O  O29  1  0.55073400  0.26677800  0.46446800  1
  F  F0  1  0.16008800  0.41932200  0.53036800  1
  F  F1  1  0.59786100  0.66525800  0.21285200  1
  F  F2  1  0.83991200  0.58067800  0.46963200  1
  F  F3  1  0.19500000  0.69827800  0.84658700  1
  F  F4  1  0.80500000  0.30172200  0.15341300  1
  F  F5  1  0.40213900  0.33474200  0.78714800  1
loop_
_geom_bond_atom_site_label_1
_geom_bond_atom_site_label_2
_geom_bond_distance
_geom_bond_site_symmetry_2
K0 O24 2.693261 1_565
K0 O17 2.712089 1_655
K0 O11 2.806126 1_655
K0 O24 2.951657 1_555
K0 O11 3.021595 1_555
K1 O25 2.544687 1_554
K1 O0 2.544687 1_555
K1 O5 2.555740 1_555
K1 O27 2.555740 1_554
K2 O8 2.693261 1_545
K2 O14 2.712089 1_455
K2 O22 2.806126 1_455
K2 O8 2.951657 1_555
K2 O22 3.021595 1_555
Li0 O29 1.951507 1_555
Li0 O1 1.951507 1_545
Li0 O23 2.357876 1_555
Li0 O9 2.357876 1_545
Li1 O11 2.004420 1_655
Li1 O4 2.057056 1_655
Li1 O26 2.057239 1_565
Li2 O17 1.967764 1_555
Li2 O4 1.980477 1_545
Li2 O26 2.124175 1_555
Li3 O14 1.967764 1_555
Li3 O28 1.980477 1_565
Li3 O6 2.124175 1_555
Li4 O22 2.004420 1_455
Li4 O28 2.057056 1_455
Li4 O6 2.057239 1_545
Al0 O4 1.754181 1_555
Al0 O18 1.760723 1_555
Al0 O3 1.812116 1_455
Al0 O12 1.944395 1_465
Al1 F0 1.747809 1_555
Al1 O1 1.786441 1_555
Al1 O9 1.870996 1_555
Al1 O23 1.927354 1_465
Al2 F3 1.724379 1_555
Al2 F5 1.742148 1_555
Al2 O6 1.763725 1_555
Al2 O28 1.773725 1_555
Al3 F2 1.747809 1_555
Al3 O29 1.786441 1_555
Al3 O23 1.870996 1_555
Al3 O9 1.927354 1_645
Al4 F4 1.724379 1_555
Al4 F1 1.742148 1_555
Al4 O26 1.763725 1_555
Al4 O4 1.773725 1_555
Al5 O28 1.754181 1_555
Al5 O13 1.760723 1_555
Al5 O20 1.812116 1_655
Al5 O19 1.944395 1_645
O0 Si4 1.558832 1_455
O1 Si2 1.672300 1_555
O2 Si3 1.642539 1_645
O2 Si8 1.654656 1_555
O3 Si9 1.622597 1_565
O5 Si9 1.684267 1_555
O5 Si4 1.692121 1_545
O6 Si1 1.699609 1_555
O7 Si7 1.639694 1_555
O7 Si2 1.658683 1_555
O8 Si1 1.626103 1_555
O9 Si3 1.741226 1_555
O10 Si3 1.626536 1_545
O10 Si8 1.630956 1_555
O11 Si5 1.634093 1_555
O12 Si4 1.796458 1_545
O12 Si9 1.807650 1_555
O13 Si0 1.583909 1_555
O14 Si1 1.640058 1_555
O15 Si7 1.626536 1_565
O15 Si2 1.630956 1_555
O16 Si3 1.639694 1_555
O16 Si8 1.658683 1_555
O17 Si5 1.640058 1_555
O18 Si9 1.583909 1_555
O19 Si6 1.796458 1_565
O19 Si0 1.807650 1_555
O20 Si0 1.622597 1_545
O21 Si7 1.642539 1_465
O21 Si2 1.654656 1_555
O22 Si1 1.634093 1_555
O23 Si7 1.741226 1_555
O24 Si5 1.626103 1_555
O25 Si6 1.558832 1_655
O26 Si5 1.699609 1_555
O27 Si0 1.684267 1_555
O27 Si6 1.692121 1_565
O29 Si8 1.672300 1_555
F0 Li0 2.370793 1_555
F1 Li1 1.951583 1_555
F1 Li2 2.149445 1_565
F1 K0 2.633916 1_555
F2 Li0 2.370793 1_565
F3 Li3 2.468504 1_455
F4 Li2 2.468504 1_655
F5 Li4 1.951583 1_555
F5 Li3 2.149445 1_545
F5 K2 2.633916 1_555
