# generated using pymatgen
data_LiCoP2O7
_symmetry_space_group_name_H-M   'P 1'
_cell_length_a   5.19275100
_cell_length_b   8.00699500
_cell_length_c   13.77230612
_cell_angle_alpha   68.43497697
_cell_angle_beta   90.00000000
_cell_angle_gamma   90.00000000
_symmetry_Int_Tables_number   1
_chemical_formula_structural   LiCoP2O7
_chemical_formula_sum   'Li4 Co4 P8 O28'
_cell_volume   532.54603599
_cell_formula_units_Z   4
loop_
 _symmetry_equiv_pos_site_id
 _symmetry_equiv_pos_as_xyz
  1  'x, y, z'
loop_
 _atom_site_type_symbol
 _atom_site_label
 _atom_site_symmetry_multiplicity
 _atom_site_fract_x
 _atom_site_fract_y
 _atom_site_fract_z
 _atom_site_occupancy
  Li  Li0  1  0.52044500  0.41872600  0.82597500  1
  Li  Li1  1  0.91365300  0.97305700  0.16972000  1
  Li  Li2  1  0.08634700  0.97305700  0.66972000  1
  Li  Li3  1  0.47955500  0.41872600  0.32597500  1
  Co  Co0  1  0.03462000  0.73013400  0.37147300  1
  Co  Co1  1  0.96538000  0.73013400  0.87147300  1
  Co  Co2  1  0.51531900  0.26857400  0.14515700  1
  Co  Co3  1  0.48468100  0.26857400  0.64515700  1
  P  P0  1  0.44781300  0.81952600  0.19710900  1
  P  P1  1  0.03412800  0.30282800  0.98214000  1
  P  P2  1  0.54179700  0.69890900  0.51764500  1
  P  P3  1  0.55218700  0.81952600  0.69710900  1
  P  P4  1  0.98199400  0.17912800  0.30636500  1
  P  P5  1  0.96587200  0.30282800  0.48214000  1
  P  P6  1  0.45820300  0.69890900  0.01764500  1
  P  P7  1  0.01800600  0.17912800  0.80636500  1
  O  O0  1  0.27867500  0.27188100  0.77229000  1
  O  O1  1  0.98483200  0.15652500  0.92747200  1
  O  O2  1  0.78321500  0.28105000  0.74763700  1
  O  O3  1  0.45016600  0.51697100  0.59558500  1
  O  O4  1  0.32411800  0.31200800  0.99823600  1
  O  O5  1  0.82802200  0.69558500  0.49271800  1
  O  O6  1  0.36943500  0.77424200  0.42224200  1
  O  O7  1  0.91534500  0.47713100  0.90302100  1
  O  O8  1  0.50799700  0.01397100  0.18724300  1
  O  O9  1  0.36263400  0.68462700  0.76570900  1
  O  O10  1  0.96601800  0.98631300  0.30833500  1
  O  O11  1  0.51380400  0.83843500  0.57631900  1
  O  O12  1  0.83607300  0.77268800  0.72307100  1
  O  O13  1  0.88319100  0.22630700  0.08366100  1
  O  O14  1  0.63056500  0.77424200  0.92224200  1
  O  O15  1  0.72132500  0.27188100  0.27229000  1
  O  O16  1  0.01516800  0.15652500  0.42747200  1
  O  O17  1  0.49200300  0.01397100  0.68724300  1
  O  O18  1  0.21678500  0.28105000  0.24763700  1
  O  O19  1  0.03398200  0.98631300  0.80833500  1
  O  O20  1  0.54983400  0.51697100  0.09558500  1
  O  O21  1  0.11680900  0.22630700  0.58366100  1
  O  O22  1  0.67588200  0.31200800  0.49823600  1
  O  O23  1  0.17197800  0.69558500  0.99271800  1
  O  O24  1  0.08465500  0.47713100  0.40302100  1
  O  O25  1  0.63736600  0.68462700  0.26570900  1
  O  O26  1  0.48619600  0.83843500  0.07631900  1
  O  O27  1  0.16392700  0.77268800  0.22307100  1
loop_
_geom_bond_atom_site_label_1
_geom_bond_atom_site_label_2
_geom_bond_distance
_geom_bond_site_symmetry_2
Li0 O0 2.035770 1_555
Li0 O9 2.143438 1_555
Li0 O2 2.261724 1_555
Li0 O4 2.430572 1_555
Li0 O7 2.431963 1_555
Li1 O13 1.942909 1_565
Li1 O10 1.969423 1_555
Li1 O27 1.983998 1_655
Li1 O8 2.158911 1_565
Li2 O21 1.942909 1_565
Li2 O19 1.969423 1_555
Li2 O12 1.983998 1_455
Li2 O17 2.158911 1_565
Li3 O15 2.035770 1_555
Li3 O25 2.143438 1_555
Li3 O18 2.261724 1_555
Li3 O22 2.430572 1_555
Li3 O24 2.431963 1_555
Co0 O5 1.917340 1_455
Co0 O24 1.926938 1_555
Co0 O10 1.944058 1_455
Co0 O6 1.953949 1_555
Co0 O27 2.057255 1_555
Co1 O23 1.917340 1_655
Co1 O7 1.926938 1_555
Co1 O19 1.944058 1_655
Co1 O14 1.953949 1_555
Co1 O12 2.057255 1_555
Co2 O20 1.858983 1_555
Co2 O8 1.903862 1_555
Co2 O15 2.060297 1_555
Co2 O18 2.123392 1_555
Co2 O4 2.164192 1_554
Co2 O13 2.166028 1_555
Co3 O3 1.858983 1_555
Co3 O17 1.903862 1_555
Co3 O0 2.060297 1_555
Co3 O2 2.123392 1_555
Co3 O22 2.164192 1_555
Co3 O21 2.166028 1_555
O0 P7 1.532251 1_555
O1 P7 1.619411 1_655
O1 P1 1.628816 1_655
O2 P7 1.523628 1_655
O3 P2 1.533395 1_555
O4 P1 1.527774 1_555
O5 P2 1.527860 1_555
O6 P2 1.519440 1_555
O7 P1 1.548444 1_655
O8 P0 1.544221 1_545
O9 P3 1.509296 1_555
O10 P4 1.536345 1_565
O11 P2 1.608060 1_555
O11 P3 1.626320 1_555
O12 P3 1.530698 1_555
O13 P1 1.521469 1_654
O14 P6 1.519440 1_556
O15 P4 1.532251 1_555
O16 P4 1.619411 1_455
O16 P5 1.628816 1_455
O17 P3 1.544221 1_545
O18 P4 1.523628 1_455
O19 P7 1.536345 1_565
O20 P6 1.533395 1_555
O21 P5 1.521469 1_455
O22 P5 1.527774 1_555
O23 P6 1.527860 1_556
O24 P5 1.548444 1_455
O25 P0 1.509296 1_555
O26 P6 1.608060 1_555
O26 P0 1.626320 1_555
O27 P0 1.530698 1_555
