# generated using pymatgen
data_Li6Ni3P6WO24
_symmetry_space_group_name_H-M   'P 1'
_cell_length_a   8.69906300
_cell_length_b   8.75355709
_cell_length_c   8.75449104
_cell_angle_alpha   60.48115726
_cell_angle_beta   60.29934806
_cell_angle_gamma   60.52766940
_symmetry_Int_Tables_number   1
_chemical_formula_structural   Li6Ni3P6WO24
_chemical_formula_sum   'Li6 Ni3 P6 W1 O24'
_cell_volume   476.02513197
_cell_formula_units_Z   1
loop_
 _symmetry_equiv_pos_site_id
 _symmetry_equiv_pos_as_xyz
  1  'x, y, z'
loop_
 _atom_site_type_symbol
 _atom_site_label
 _atom_site_symmetry_multiplicity
 _atom_site_fract_x
 _atom_site_fract_y
 _atom_site_fract_z
 _atom_site_occupancy
  Li  Li0  1  0.03825500  0.02595300  0.01777000  1
  Li  Li1  1  0.75115000  0.15581000  0.35156600  1
  Li  Li2  1  0.47071600  0.49778900  0.48913100  1
  Li  Li3  1  0.31915800  0.84194300  0.63427900  1
  Li  Li4  1  0.63343800  0.32431900  0.83911000  1
  Li  Li5  1  0.84354900  0.63446400  0.31933400  1
  Ni  Ni0  1  0.14567700  0.14957300  0.14308300  1
  Ni  Ni1  1  0.35533300  0.36243300  0.35163400  1
  Ni  Ni2  1  0.64823900  0.64925900  0.64824800  1
  P  P0  1  0.04733600  0.74730800  0.44153200  1
  P  P1  1  0.44583800  0.04894100  0.74219400  1
  P  P2  1  0.74524800  0.44546100  0.04529500  1
  P  P3  1  0.24925800  0.53766300  0.95976300  1
  P  P4  1  0.54092100  0.96242200  0.25101000  1
  P  P5  1  0.95600600  0.24818700  0.53400500  1
  W  W0  1  0.85258200  0.85044300  0.85310200  1
  O  O0  1  0.13143200  0.26362300  0.51290800  1
  O  O1  1  0.26802300  0.53228600  0.12520100  1
  O  O2  1  0.04798200  0.92201700  0.27056400  1
  O  O3  1  0.54937900  0.12086800  0.27218500  1
  O  O4  1  0.23379200  0.59466700  0.44511900  1
  O  O5  1  0.97612100  0.81227700  0.61846400  1
  O  O6  1  0.26464600  0.08146100  0.90024400  1
  O  O7  1  0.48056500  0.22095900  0.57282600  1
  O  O8  1  0.58984700  0.44886200  0.23306300  1
  O  O9  1  0.19491200  0.38585500  0.98757200  1
  O  O10  1  0.08684500  0.73750400  0.90503300  1
  O  O11  1  0.37924300  0.00362500  0.20250100  1
  O  O12  1  0.61694700  0.97255900  0.81782600  1
  O  O13  1  0.90351900  0.26048100  0.07272400  1
  O  O14  1  0.81686500  0.61356500  0.98040200  1
  O  O15  1  0.41506200  0.56264200  0.77259400  1
  O  O16  1  0.56276200  0.77471600  0.41410000  1
  O  O17  1  0.73732700  0.90567100  0.08538500  1
  O  O18  1  0.96547400  0.19799400  0.38598900  1
  O  O19  1  0.77286900  0.41464200  0.56417700  1
  O  O20  1  0.47514000  0.89358500  0.68766700  1
  O  O21  1  0.90756100  0.08455800  0.73404000  1
  O  O22  1  0.68602800  0.47914300  0.89224500  1
  O  O23  1  0.89495400  0.68347300  0.47711400  1
loop_
_geom_bond_atom_site_label_1
_geom_bond_atom_site_label_2
_geom_bond_distance
_geom_bond_site_symmetry_2
Li0 O6 1.901118 1_554
Li0 O2 1.964264 1_545
Li0 O13 1.966366 1_455
Li1 O13 2.083293 1_555
Li1 O7 2.206211 1_555
Li1 O8 2.214450 1_555
Li1 O18 2.246572 1_555
Li1 O3 2.367223 1_555
Li1 O2 2.402984 1_645
Li2 O4 1.964813 1_555
Li2 O8 2.118976 1_555
Li2 O7 2.127110 1_555
Li2 O15 2.577233 1_555
Li2 O16 2.601644 1_555
Li3 O20 1.924628 1_555
Li3 O15 2.053376 1_555
Li3 O16 2.096527 1_555
Li3 O10 2.339674 1_555
Li4 O22 1.924737 1_555
Li4 O19 2.016168 1_555
Li4 O15 2.073493 1_555
Li4 O21 2.396118 1_555
Li5 O23 1.917482 1_555
Li5 O16 2.050991 1_555
Li5 O19 2.113999 1_555
Li5 O17 2.368539 1_555
Ni0 O9 1.958034 1_554
Ni0 O11 1.967025 1_555
Ni0 O18 2.022417 1_455
Ni0 O6 2.099469 1_554
Ni0 O13 2.107978 1_455
Ni0 O2 2.114429 1_545
Ni1 O1 2.047784 1_555
Ni1 O0 2.065060 1_555
Ni1 O8 2.111425 1_555
Ni1 O3 2.139640 1_555
Ni1 O4 2.141796 1_555
Ni1 O7 2.206796 1_555
Ni2 O23 1.986070 1_555
Ni2 O22 1.991980 1_555
Ni2 O20 2.001009 1_555
Ni2 O15 2.094354 1_555
Ni2 O19 2.107783 1_555
Ni2 O16 2.109350 1_555
O0 P5 1.510028 1_455
O1 P3 1.511969 1_554
O2 P0 1.524332 1_555
O3 P4 1.526678 1_545
O4 P0 1.514499 1_555
O5 P0 1.636140 1_655
O5 W0 1.903013 1_555
O6 P1 1.505125 1_555
O7 P1 1.536469 1_555
O8 P2 1.528749 1_555
O9 P3 1.494648 1_555
O10 P3 1.642770 1_555
O10 W0 1.956959 1_455
O11 P4 1.493419 1_545
O12 P1 1.631599 1_565
O12 W0 1.893572 1_555
O13 P2 1.525097 1_555
O14 P2 1.613627 1_556
O14 W0 1.910947 1_555
O15 P3 1.558327 1_555
O16 P4 1.557002 1_555
O17 P4 1.639526 1_555
O17 W0 1.961019 1_554
O18 P5 1.516114 1_555
O19 P5 1.552084 1_555
O20 P1 1.523235 1_565
O21 P5 1.639151 1_555
O21 W0 1.969898 1_545
O22 P2 1.514209 1_556
O23 P0 1.521380 1_655
