# generated using pymatgen
data_Li3Co2(GeO4)2
_symmetry_space_group_name_H-M   'P 1'
_cell_length_a   5.14920700
_cell_length_b   5.56039653
_cell_length_c   6.53028070
_cell_angle_alpha   89.76626784
_cell_angle_beta   89.30961199
_cell_angle_gamma   89.87359752
_symmetry_Int_Tables_number   1
_chemical_formula_structural   Li3Co2(GeO4)2
_chemical_formula_sum   'Li3 Co2 Ge2 O8'
_cell_volume   186.95703483
_cell_formula_units_Z   1
loop_
 _symmetry_equiv_pos_site_id
 _symmetry_equiv_pos_as_xyz
  1  'x, y, z'
loop_
 _atom_site_type_symbol
 _atom_site_label
 _atom_site_symmetry_multiplicity
 _atom_site_fract_x
 _atom_site_fract_y
 _atom_site_fract_z
 _atom_site_occupancy
  Li  Li0  1  0.50111900  0.16921200  0.99999300  1
  Li  Li1  1  0.00323100  0.33672900  0.25504400  1
  Li  Li2  1  0.99498900  0.82997300  0.50649600  1
  Co  Co0  1  0.99388600  0.83008700  0.99176000  1
  Co  Co1  1  0.50500400  0.16799500  0.50014000  1
  Ge  Ge0  1  0.99262300  0.32472600  0.75197400  1
  Ge  Ge1  1  0.49888300  0.67636100  0.25774200  1
  O  O0  1  0.65752800  0.27689300  0.74919600  1
  O  O1  1  0.60807000  0.83859100  0.46905200  1
  O  O2  1  0.60416100  0.37226400  0.26333200  1
  O  O3  1  0.62843600  0.83276500  0.03796200  1
  O  O4  1  0.14534200  0.68587200  0.23937600  1
  O  O5  1  0.10588800  0.16818700  0.98177200  1
  O  O6  1  0.06837800  0.63904200  0.76222000  1
  O  O7  1  0.12218500  0.18747900  0.52670900  1
loop_
_geom_bond_atom_site_label_1
_geom_bond_atom_site_label_2
_geom_bond_distance
_geom_bond_site_symmetry_2
Li0 O0 1.910965 1_555
Li0 O3 1.996447 1_546
Li0 O5 2.040054 1_555
Li0 O2 2.134019 1_556
Li1 O7 2.055012 1_555
Li1 O2 2.064019 1_455
Li1 O4 2.077911 1_555
Li1 O5 2.081108 1_554
Li2 O1 2.010640 1_555
Li2 O6 2.014352 1_655
Li2 O4 2.064060 1_655
Li2 O7 2.099526 1_665
Co0 O6 1.876113 1_655
Co0 O3 1.902254 1_556
Co0 O5 1.968255 1_665
Co0 O4 1.970530 1_656
Co1 O0 1.915614 1_555
Co1 O1 1.916725 1_545
Co1 O2 1.977725 1_555
Co1 O7 1.979519 1_555
Ge0 O0 1.746753 1_555
Ge0 O7 1.781770 1_655
Ge0 O6 1.793254 1_655
Ge0 O5 1.832461 1_655
Ge1 O1 1.750734 1_555
Ge1 O2 1.774901 1_555
Ge1 O3 1.797363 1_555
Ge1 O4 1.826479 1_555
