# generated using pymatgen
data_Li3V3(BO5)2
_symmetry_space_group_name_H-M   'P 1'
_cell_length_a   2.99295900
_cell_length_b   9.43392800
_cell_length_c   12.06467414
_cell_angle_alpha   89.15432438
_cell_angle_beta   90.00000000
_cell_angle_gamma   90.00000000
_symmetry_Int_Tables_number   1
_chemical_formula_structural   Li3V3(BO5)2
_chemical_formula_sum   'Li6 V6 B4 O20'
_cell_volume   340.61330895
_cell_formula_units_Z   2
loop_
 _symmetry_equiv_pos_site_id
 _symmetry_equiv_pos_as_xyz
  1  'x, y, z'
loop_
 _atom_site_type_symbol
 _atom_site_label
 _atom_site_symmetry_multiplicity
 _atom_site_fract_x
 _atom_site_fract_y
 _atom_site_fract_z
 _atom_site_occupancy
  Li  Li0  1  0.50000000  0.99201600  0.99688400  1
  Li  Li1  1  0.50000000  0.00155900  0.72415500  1
  Li  Li2  1  0.50000000  0.50019800  0.50350700  1
  Li  Li3  1  0.00000000  0.49434600  0.98737300  1
  Li  Li4  1  0.50000000  0.49515400  0.78922100  1
  Li  Li5  1  0.50000000  0.99986100  0.27819000  1
  V  V0  1  0.00000000  0.00437100  0.50100700  1
  V  V1  1  0.00000000  0.75613100  0.88618800  1
  V  V2  1  0.00000000  0.73754900  0.38803600  1
  V  V3  1  0.50000000  0.49563200  0.21322800  1
  V  V4  1  0.00000000  0.26446700  0.61996200  1
  V  V5  1  0.00000000  0.22926900  0.10217200  1
  B  B0  1  0.00000000  0.76868500  0.14126900  1
  B  B1  1  0.00000000  0.73638800  0.63825600  1
  B  B2  1  0.00000000  0.27126500  0.36736800  1
  B  B3  1  0.00000000  0.23738400  0.85814200  1
  O  O0  1  0.50000000  0.87776600  0.85451300  1
  O  O1  1  0.50000000  0.87963400  0.42977500  1
  O  O2  1  0.00000000  0.88270800  0.63455800  1
  O  O3  1  0.00000000  0.83822300  0.24208700  1
  O  O4  1  0.00000000  0.84124400  0.04295700  1
  O  O5  1  0.00000000  0.65893900  0.53872700  1
  O  O6  1  0.00000000  0.66474500  0.73819900  1
  O  O7  1  0.00000000  0.61732900  0.14589900  1
  O  O8  1  0.50000000  0.63238400  0.92686100  1
  O  O9  1  0.50000000  0.61453300  0.34846900  1
  O  O10  1  0.50000000  0.37540400  0.64657800  1
  O  O11  1  0.50000000  0.37455100  0.08000600  1
  O  O12  1  0.00000000  0.37908300  0.85799000  1
  O  O13  1  0.00000000  0.34898200  0.26381700  1
  O  O14  1  0.00000000  0.34907200  0.46208800  1
  O  O15  1  0.00000000  0.15316500  0.95747000  1
  O  O16  1  0.00000000  0.15919400  0.75959500  1
  O  O17  1  0.00000000  0.12616600  0.36277300  1
  O  O18  1  0.50000000  0.12255800  0.56931400  1
  O  O19  1  0.50000000  0.12004300  0.14336400  1
loop_
_geom_bond_atom_site_label_1
_geom_bond_atom_site_label_2
_geom_bond_distance
_geom_bond_site_symmetry_2
Li0 O0 2.041253 1_555
Li0 O4 2.132658 1_556
Li0 O4 2.132658 1_656
Li0 O19 2.155202 1_566
Li0 O15 2.180698 1_565
Li0 O15 2.180698 1_665
Li1 O0 1.945029 1_545
Li1 O16 2.156978 1_555
Li1 O16 2.156978 1_655
Li1 O2 2.168147 1_545
Li1 O2 2.168147 1_645
Li1 O18 2.174830 1_555
Li2 O10 2.074966 1_555
Li2 O14 2.131394 1_555
Li2 O14 2.131394 1_655
Li2 O9 2.145365 1_555
Li2 O5 2.163666 1_555
Li2 O5 2.163666 1_655
Li3 O12 1.915493 1_555
Li3 O8 2.107179 1_555
Li3 O8 2.107179 1_455
Li3 O11 2.174484 1_456
Li3 O11 2.174484 1_556
Li3 O7 2.251555 1_556
Li4 O12 2.024854 1_655
Li4 O12 2.024854 1_555
Li4 O10 2.072506 1_555
Li4 O8 2.120619 1_555
Li4 O6 2.269143 1_555
Li4 O6 2.269143 1_655
Li5 O19 1.969002 1_565
Li5 O1 2.137710 1_555
Li5 O17 2.176348 1_565
Li5 O17 2.176348 1_665
Li5 O3 2.184958 1_555
Li5 O3 2.184958 1_655
B0 O4 1.360674 1_555
B0 O3 1.390462 1_555
B0 O7 1.428150 1_555
B1 O6 1.373556 1_555
B1 O2 1.380435 1_555
B1 O5 1.414790 1_555
B2 O14 1.367285 1_555
B2 O17 1.370793 1_555
B2 O13 1.439195 1_555
B3 O12 1.336752 1_555
B3 O16 1.408393 1_555
B3 O15 1.428012 1_555
O0 V1 1.920753 1_655
O0 V1 1.920753 1_555
O1 V2 2.075977 1_655
O1 V2 2.075977 1_555
O1 V0 2.095858 1_565
O1 V0 2.095858 1_665
O2 V0 1.964405 1_565
O3 V2 1.988259 1_555
O4 V1 2.065630 1_554
O5 V2 1.953314 1_555
O6 V1 1.994115 1_555
O7 V3 2.046912 1_455
O7 V3 2.046912 1_555
O8 V1 1.956068 1_555
O8 V1 1.956068 1_655
O9 V2 1.957165 1_555
O9 V2 1.957165 1_655
O9 V3 1.993612 1_555
O10 V4 1.856824 1_555
O10 V4 1.856824 1_655
O11 V3 1.985528 1_555
O11 V5 2.044172 1_655
O11 V5 2.044172 1_555
O13 V3 2.121573 1_555
O13 V3 2.121573 1_455
O13 V5 2.267980 1_555
O14 V4 2.054277 1_555
O15 V5 1.897425 1_556
O16 V4 1.942911 1_555
O17 V0 2.011226 1_555
O18 V0 2.046673 1_655
O18 V0 2.046673 1_555
O18 V4 2.104581 1_555
O18 V4 2.104581 1_655
O19 V5 1.879654 1_555
O19 V5 1.879654 1_655
