# generated using pymatgen
data_VZn2HO5
_symmetry_space_group_name_H-M   'P 1'
_cell_length_a   6.14185400
_cell_length_b   9.03358300
_cell_length_c   14.79209400
_cell_angle_alpha   90.00000000
_cell_angle_beta   90.00000000
_cell_angle_gamma   90.00000000
_symmetry_Int_Tables_number   1
_chemical_formula_structural   VZn2HO5
_chemical_formula_sum   'V8 Zn16 H8 O40'
_cell_volume   820.70898048
_cell_formula_units_Z   8
loop_
 _symmetry_equiv_pos_site_id
 _symmetry_equiv_pos_as_xyz
  1  'x, y, z'
loop_
 _atom_site_type_symbol
 _atom_site_label
 _atom_site_symmetry_multiplicity
 _atom_site_fract_x
 _atom_site_fract_y
 _atom_site_fract_z
 _atom_site_occupancy
  V  V0  1  0.25000000  0.68949400  0.92543200  1
  V  V1  1  0.25000000  0.81050600  0.42543200  1
  V  V2  1  0.75000000  0.31050600  0.07456800  1
  V  V3  1  0.75000000  0.18949400  0.57456800  1
  V  V4  1  0.75000000  0.01973700  0.83921200  1
  V  V5  1  0.75000000  0.48026300  0.33921200  1
  V  V6  1  0.25000000  0.98026300  0.16078800  1
  V  V7  1  0.25000000  0.51973700  0.66078800  1
  Zn  Zn0  1  0.25000000  0.08754300  0.92491500  1
  Zn  Zn1  1  0.25000000  0.41245700  0.42491500  1
  Zn  Zn2  1  0.75000000  0.91245700  0.07508500  1
  Zn  Zn3  1  0.75000000  0.58754300  0.57508500  1
  Zn  Zn4  1  0.75000000  0.66024300  0.79400000  1
  Zn  Zn5  1  0.75000000  0.83975700  0.29400000  1
  Zn  Zn6  1  0.25000000  0.33975700  0.20600000  1
  Zn  Zn7  1  0.25000000  0.16024300  0.70600000  1
  Zn  Zn8  1  0.99476900  0.37506100  0.86047600  1
  Zn  Zn9  1  0.50523100  0.12493900  0.36047600  1
  Zn  Zn10  1  0.49476900  0.62493900  0.13952400  1
  Zn  Zn11  1  0.00523100  0.87506100  0.63952400  1
  Zn  Zn12  1  0.00523100  0.62493900  0.13952400  1
  Zn  Zn13  1  0.49476900  0.87506100  0.63952400  1
  Zn  Zn14  1  0.50523100  0.37506100  0.86047600  1
  Zn  Zn15  1  0.99476900  0.12493900  0.36047600  1
  H  H0  1  0.25000000  0.34420900  0.00191800  1
  H  H1  1  0.25000000  0.15579100  0.50191800  1
  H  H2  1  0.75000000  0.65579100  0.99808200  1
  H  H3  1  0.75000000  0.84420900  0.49808200  1
  H  H4  1  0.75000000  0.40037600  0.71424000  1
  H  H5  1  0.75000000  0.09962400  0.21424000  1
  H  H6  1  0.25000000  0.59962400  0.28576000  1
  H  H7  1  0.25000000  0.90037600  0.78576000  1
  O  O0  1  0.75000000  0.87378900  0.75329800  1
  O  O1  1  0.75000000  0.62621100  0.25329800  1
  O  O2  1  0.25000000  0.12621100  0.24670200  1
  O  O3  1  0.25000000  0.37378900  0.74670200  1
  O  O4  1  0.25000000  0.87493900  0.89916700  1
  O  O5  1  0.25000000  0.62506100  0.39916700  1
  O  O6  1  0.75000000  0.12506100  0.10083300  1
  O  O7  1  0.75000000  0.37493900  0.60083300  1
  O  O8  1  0.75000000  0.34304200  0.95849900  1
  O  O9  1  0.75000000  0.15695800  0.45849900  1
  O  O10  1  0.25000000  0.65695800  0.04150100  1
  O  O11  1  0.25000000  0.84304200  0.54150100  1
  O  O12  1  0.01256900  0.61097400  0.87883300  1
  O  O13  1  0.48743100  0.88902600  0.37883300  1
  O  O14  1  0.51256900  0.38902600  0.12116700  1
  O  O15  1  0.98743100  0.11097400  0.62116700  1
  O  O16  1  0.98743100  0.38902600  0.12116700  1
  O  O17  1  0.51256900  0.11097400  0.62116700  1
  O  O18  1  0.48743100  0.61097400  0.87883300  1
  O  O19  1  0.01256900  0.88902600  0.37883300  1
  O  O20  1  0.75000000  0.93399300  0.94041000  1
  O  O21  1  0.75000000  0.56600700  0.44041000  1
  O  O22  1  0.25000000  0.06600700  0.05959000  1
  O  O23  1  0.25000000  0.43399300  0.55959000  1
  O  O24  1  0.98577100  0.13182900  0.83292900  1
  O  O25  1  0.51422900  0.36817100  0.33292900  1
  O  O26  1  0.48577100  0.86817100  0.16707100  1
  O  O27  1  0.01422900  0.63182900  0.66707100  1
  O  O28  1  0.01422900  0.86817100  0.16707100  1
  O  O29  1  0.48577100  0.63182900  0.66707100  1
  O  O30  1  0.51422900  0.13182900  0.83292900  1
  O  O31  1  0.98577100  0.36817100  0.33292900  1
  O  O32  1  0.25000000  0.31358300  0.93846000  1
  O  O33  1  0.25000000  0.18641700  0.43846000  1
  O  O34  1  0.75000000  0.68641700  0.06154000  1
  O  O35  1  0.75000000  0.81358300  0.56154000  1
  O  O36  1  0.75000000  0.43351300  0.77840200  1
  O  O37  1  0.75000000  0.06648700  0.27840200  1
  O  O38  1  0.25000000  0.56648700  0.22159800  1
  O  O39  1  0.25000000  0.93351300  0.72159800  1
loop_
_geom_bond_atom_site_label_1
_geom_bond_atom_site_label_2
_geom_bond_distance
_geom_bond_site_symmetry_2
H0 O32 0.978599 1_554
H1 O33 0.978599 1_555
H2 O34 0.978599 1_556
H3 O35 0.978599 1_555
H4 O36 0.995179 1_555
H4 O7 1.693192 1_555
H5 O37 0.995179 1_555
H5 O6 1.693192 1_555
H6 O38 0.995179 1_555
H6 O5 1.693192 1_555
H7 O39 0.995179 1_555
H7 O4 1.693192 1_555
O0 V4 1.831208 1_565
O0 Zn4 2.020855 1_555
O0 Zn11 2.299960 1_655
O0 Zn13 2.299960 1_555
O1 V5 1.831208 1_555
O1 Zn5 2.020855 1_555
O1 Zn12 2.299960 1_655
O1 Zn10 2.299960 1_555
O2 V6 1.831208 1_545
O2 Zn6 2.020855 1_555
O2 Zn9 2.299960 1_555
O2 Zn15 2.299960 1_455
O3 V7 1.831208 1_555
O3 Zn7 2.020855 1_555
O3 Zn14 2.299960 1_555
O3 Zn8 2.299960 1_455
O4 V0 1.719694 1_555
O4 Zn0 1.957976 1_565
O5 V1 1.719694 1_555
O5 Zn1 1.957976 1_555
O6 V2 1.719694 1_555
O6 Zn2 1.957976 1_545
O7 V3 1.719694 1_555
O7 Zn3 1.957976 1_555
O8 V2 1.741880 1_556
O8 Zn8 2.108573 1_555
O8 Zn14 2.108573 1_555
O9 V3 1.741880 1_555
O9 Zn15 2.108573 1_555
O9 Zn9 2.108573 1_555
O10 V0 1.741880 1_554
O10 Zn10 2.108573 1_555
O10 Zn12 2.108573 1_555
O11 V1 1.741880 1_555
O11 Zn13 2.108573 1_555
O11 Zn11 2.108573 1_555
O12 V0 1.762045 1_555
O12 Zn4 2.091276 1_455
O12 Zn8 2.151149 1_455
O13 V1 1.762045 1_555
O13 Zn5 2.091276 1_555
O13 Zn9 2.151149 1_565
O14 V2 1.762045 1_555
O14 Zn6 2.091276 1_555
O14 Zn10 2.151149 1_555
O15 V3 1.762045 1_555
O15 Zn7 2.091276 1_655
O15 Zn11 2.151149 1_645
O16 V2 1.762045 1_555
O16 Zn6 2.091276 1_655
O16 Zn12 2.151149 1_655
O17 V3 1.762045 1_555
O17 Zn7 2.091276 1_555
O17 Zn13 2.151149 1_545
O18 V0 1.762045 1_555
O18 Zn4 2.091276 1_555
O18 Zn14 2.151149 1_555
O19 V1 1.762045 1_555
O19 Zn5 2.091276 1_455
O19 Zn15 2.151149 1_465
O20 V4 1.685458 1_565
O20 Zn2 2.001602 1_556
O21 V5 1.685458 1_555
O21 Zn3 2.001602 1_555
O22 V6 1.685458 1_545
O22 Zn0 2.001602 1_554
O23 V7 1.685458 1_555
O23 Zn1 2.001602 1_555
O24 V4 1.769432 1_555
O24 Zn0 2.155254 1_655
O24 Zn8 2.235403 1_555
O24 Zn7 2.494940 1_655
O25 V5 1.769432 1_555
O25 Zn1 2.155254 1_555
O25 Zn9 2.235403 1_555
O25 Zn6 2.494940 1_555
O26 V6 1.769432 1_555
O26 Zn2 2.155254 1_555
O26 Zn10 2.235403 1_555
O26 Zn5 2.494940 1_555
O27 V7 1.769432 1_555
O27 Zn3 2.155254 1_455
O27 Zn11 2.235403 1_555
O27 Zn4 2.494940 1_455
O28 V6 1.769432 1_555
O28 Zn2 2.155254 1_455
O28 Zn12 2.235403 1_555
O28 Zn5 2.494940 1_455
O29 V7 1.769432 1_555
O29 Zn3 2.155254 1_555
O29 Zn13 2.235403 1_555
O29 Zn4 2.494940 1_555
O30 V4 1.769432 1_555
O30 Zn0 2.155254 1_555
O30 Zn14 2.235403 1_555
O30 Zn7 2.494940 1_555
O31 V5 1.769432 1_555
O31 Zn1 2.155254 1_655
O31 Zn15 2.235403 1_555
O31 Zn6 2.494940 1_655
O32 Zn14 2.023968 1_555
O32 Zn8 2.023968 1_455
O32 Zn0 2.051757 1_555
O33 Zn9 2.023968 1_555
O33 Zn15 2.023968 1_455
O33 Zn1 2.051757 1_555
O34 Zn12 2.023968 1_655
O34 Zn10 2.023968 1_555
O34 Zn2 2.051757 1_555
O35 Zn11 2.023968 1_655
O35 Zn13 2.023968 1_555
O35 Zn3 2.051757 1_555
O36 Zn8 2.003183 1_555
O36 Zn14 2.003183 1_555
O36 Zn4 2.061139 1_555
O37 Zn15 2.003183 1_555
O37 Zn9 2.003183 1_555
O37 Zn5 2.061139 1_545
O38 Zn10 2.003183 1_555
O38 Zn12 2.003183 1_555
O38 Zn6 2.061139 1_555
O39 Zn13 2.003183 1_555
O39 Zn11 2.003183 1_555
O39 Zn7 2.061139 1_565
