# generated using pymatgen
data_Li2Ti(FeO3)2
_symmetry_space_group_name_H-M   'P 1'
_cell_length_a   7.94942672
_cell_length_b   7.94942672
_cell_length_c   6.04472620
_cell_angle_alpha   78.69106934
_cell_angle_beta   78.69106934
_cell_angle_gamma   68.47683312
_symmetry_Int_Tables_number   1
_chemical_formula_structural   Li2Ti(FeO3)2
_chemical_formula_sum   'Li6 Ti3 Fe6 O18'
_cell_volume   345.20858850
_cell_formula_units_Z   3
loop_
 _symmetry_equiv_pos_site_id
 _symmetry_equiv_pos_as_xyz
  1  'x, y, z'
loop_
 _atom_site_type_symbol
 _atom_site_label
 _atom_site_symmetry_multiplicity
 _atom_site_fract_x
 _atom_site_fract_y
 _atom_site_fract_z
 _atom_site_occupancy
  Li  Li0  1  0.50015200  0.16414400  0.82964300  1
  Li  Li1  1  0.16414400  0.50015200  0.82964300  1
  Li  Li2  1  0.49984800  0.83585600  0.17035700  1
  Li  Li3  1  0.83585600  0.49984800  0.17035700  1
  Li  Li4  1  0.17058000  0.82942000  0.50000000  1
  Li  Li5  1  0.82942000  0.17058000  0.50000000  1
  Ti  Ti0  1  0.16696900  0.83303100  0.00000000  1
  Ti  Ti1  1  0.50000000  0.50000000  0.00000000  1
  Ti  Ti2  1  0.83303100  0.16696900  0.00000000  1
  Fe  Fe0  1  0.49206200  0.16482100  0.33652600  1
  Fe  Fe1  1  0.83353900  0.83353900  0.33700800  1
  Fe  Fe2  1  0.16482100  0.49206200  0.33652600  1
  Fe  Fe3  1  0.50793800  0.83517900  0.66347400  1
  Fe  Fe4  1  0.83517900  0.50793800  0.66347400  1
  Fe  Fe5  1  0.16646100  0.16646100  0.66299200  1
  O  O0  1  0.99215200  0.99215200  0.22720100  1
  O  O1  1  0.65804400  0.00460600  0.56287500  1
  O  O2  1  0.00460600  0.65804400  0.56287500  1
  O  O3  1  0.00784800  0.00784800  0.77279900  1
  O  O4  1  0.67076500  0.01737900  0.09867400  1
  O  O5  1  0.01737900  0.67076500  0.09867400  1
  O  O6  1  0.34195600  0.99539400  0.43712500  1
  O  O7  1  0.67815200  0.67815200  0.42653300  1
  O  O8  1  0.99539400  0.34195600  0.43712500  1
  O  O9  1  0.32923500  0.98262100  0.90132600  1
  O  O10  1  0.65208800  0.65208800  0.90666300  1
  O  O11  1  0.98262100  0.32923500  0.90132600  1
  O  O12  1  0.32932400  0.66979900  0.21825000  1
  O  O13  1  0.66979900  0.32932400  0.21825000  1
  O  O14  1  0.32184800  0.32184800  0.57346700  1
  O  O15  1  0.33020100  0.67067600  0.78175000  1
  O  O16  1  0.67067600  0.33020100  0.78175000  1
  O  O17  1  0.34791200  0.34791200  0.09333700  1
loop_
_geom_bond_atom_site_label_1
_geom_bond_atom_site_label_2
_geom_bond_distance
_geom_bond_site_symmetry_2
Li0 O1 2.150436 1_555
Li0 O16 2.161744 1_555
Li0 O14 2.184999 1_555
Li0 O4 2.192054 1_556
Li0 O17 2.235812 1_556
Li0 O9 2.253560 1_545
Li1 O2 2.150436 1_555
Li1 O15 2.161744 1_555
Li1 O14 2.184999 1_555
Li1 O5 2.192054 1_556
Li1 O17 2.235812 1_556
Li1 O11 2.253560 1_455
Li2 O6 2.150436 1_555
Li2 O12 2.161744 1_555
Li2 O7 2.184999 1_555
Li2 O9 2.192054 1_554
Li2 O10 2.235812 1_554
Li2 O4 2.253560 1_565
Li3 O8 2.150436 1_555
Li3 O13 2.161744 1_555
Li3 O7 2.184999 1_555
Li3 O11 2.192054 1_554
Li3 O10 2.235812 1_554
Li3 O5 2.253560 1_655
Li4 O6 2.158795 1_555
Li4 O2 2.158795 1_555
Li4 O15 2.220999 1_555
Li4 O12 2.220999 1_555
Li4 O3 2.266905 1_565
Li4 O0 2.266905 1_455
Li5 O8 2.158795 1_555
Li5 O1 2.158795 1_555
Li5 O16 2.220999 1_555
Li5 O13 2.220999 1_555
Li5 O3 2.266905 1_655
Li5 O0 2.266905 1_545
Fe0 O1 2.006647 1_555
Fe0 O4 2.024130 1_555
Fe0 O14 2.035232 1_555
Fe0 O6 2.044770 1_545
Fe0 O17 2.046992 1_555
Fe0 O13 2.193267 1_555
Fe1 O7 1.984870 1_555
Fe1 O0 2.032311 1_555
Fe1 O1 2.061239 1_565
Fe1 O2 2.061239 1_655
Fe1 O4 2.098436 1_565
Fe1 O5 2.098436 1_655
Fe2 O2 2.006647 1_555
Fe2 O5 2.024130 1_555
Fe2 O14 2.035232 1_555
Fe2 O8 2.044770 1_455
Fe2 O17 2.046992 1_555
Fe2 O12 2.193267 1_555
Fe3 O6 2.006647 1_555
Fe3 O9 2.024130 1_555
Fe3 O7 2.035232 1_555
Fe3 O1 2.044770 1_565
Fe3 O10 2.046992 1_555
Fe3 O15 2.193267 1_555
Fe4 O8 2.006647 1_555
Fe4 O11 2.024130 1_555
Fe4 O7 2.035232 1_555
Fe4 O2 2.044770 1_655
Fe4 O10 2.046992 1_555
Fe4 O16 2.193267 1_555
Fe5 O14 1.984870 1_555
Fe5 O3 2.032311 1_555
Fe5 O6 2.061239 1_545
Fe5 O8 2.061239 1_455
Fe5 O11 2.098436 1_455
Fe5 O9 2.098436 1_545
O0 Ti0 2.015037 1_655
O0 Ti2 2.015037 1_565
O3 Ti0 2.015037 1_546
O3 Ti2 2.015037 1_456
O4 Ti2 1.994828 1_555
O5 Ti0 1.994828 1_555
O9 Ti0 1.994828 1_556
O10 Ti1 1.944023 1_556
O11 Ti2 1.994828 1_556
O12 Ti0 1.964052 1_555
O12 Ti1 2.013920 1_555
O13 Ti2 1.964052 1_555
O13 Ti1 2.013920 1_555
O15 Ti0 1.964052 1_556
O15 Ti1 2.013920 1_556
O16 Ti2 1.964052 1_556
O16 Ti1 2.013920 1_556
O17 Ti1 1.944023 1_555
