# generated using pymatgen
data_Li6MnO4F
_symmetry_space_group_name_H-M   'P 1'
_cell_length_a   5.43718539
_cell_length_b   8.74079415
_cell_length_c   10.74183433
_cell_angle_alpha   66.96972731
_cell_angle_beta   76.81655274
_cell_angle_gamma   93.53860352
_symmetry_Int_Tables_number   1
_chemical_formula_structural   Li6MnO4F
_chemical_formula_sum   'Li24 Mn4 O16 F4'
_cell_volume   450.90110122
_cell_formula_units_Z   4
loop_
 _symmetry_equiv_pos_site_id
 _symmetry_equiv_pos_as_xyz
  1  'x, y, z'
loop_
 _atom_site_type_symbol
 _atom_site_label
 _atom_site_symmetry_multiplicity
 _atom_site_fract_x
 _atom_site_fract_y
 _atom_site_fract_z
 _atom_site_occupancy
  Li  Li0  1  0.14764200  0.54926100  0.74648000  1
  Li  Li1  1  0.64757900  0.04915200  0.74653700  1
  Li  Li2  1  0.35580000  0.95429900  0.24661400  1
  Li  Li3  1  0.85583500  0.45427200  0.24661100  1
  Li  Li4  1  0.28788500  0.65927700  0.24201700  1
  Li  Li5  1  0.78786800  0.15923200  0.24203600  1
  Li  Li6  1  0.21997300  0.84880400  0.74199100  1
  Li  Li7  1  0.72007200  0.34873800  0.74204000  1
  Li  Li8  1  0.61641500  0.10501100  0.00106500  1
  Li  Li9  1  0.11653000  0.60502500  0.00103000  1
  Li  Li10  1  0.13232400  0.64391400  0.50104300  1
  Li  Li11  1  0.63233200  0.14389100  0.50104600  1
  Li  Li12  1  0.41070800  0.86911500  0.50465600  1
  Li  Li13  1  0.91062600  0.36910400  0.50472000  1
  Li  Li14  1  0.33470300  0.87610600  0.00464200  1
  Li  Li15  1  0.83468300  0.37614100  0.00462800  1
  Li  Li16  1  0.38437500  0.39294300  0.45089200  1
  Li  Li17  1  0.88453400  0.89299400  0.45086400  1
  Li  Li18  1  0.91478000  0.90654500  0.95088700  1
  Li  Li19  1  0.41467900  0.40639800  0.95090900  1
  Li  Li20  1  0.14647900  0.13995700  0.05905700  1
  Li  Li21  1  0.64665700  0.64004700  0.05898600  1
  Li  Li22  1  0.54459300  0.55103400  0.55903800  1
  Li  Li23  1  0.04457100  0.05104500  0.55906400  1
  Mn  Mn0  1  0.73600700  0.72702400  0.74071100  1
  Mn  Mn1  1  0.77327200  0.78210700  0.24085500  1
  Mn  Mn2  1  0.23601300  0.22722700  0.74076500  1
  Mn  Mn3  1  0.27339400  0.28242100  0.24064900  1
  O  O0  1  0.47470700  0.75039000  0.38919800  1
  O  O1  1  0.97484500  0.25046700  0.38917600  1
  O  O2  1  0.88625700  0.61026300  0.88902000  1
  O  O3  1  0.38615900  0.11023700  0.88911100  1
  O  O4  1  0.58512700  0.86242600  0.10069700  1
  O  O5  1  0.08495100  0.36242600  0.10064000  1
  O  O6  1  0.06416600  0.78700100  0.60055100  1
  O  O7  1  0.56407500  0.28699300  0.60055700  1
  O  O8  1  0.11634900  0.41208700  0.61454100  1
  O  O9  1  0.61634800  0.91199800  0.61449400  1
  O  O10  1  0.51891300  0.22363300  0.11427300  1
  O  O11  1  0.01888600  0.72356300  0.11433000  1
  O  O12  1  0.99323800  0.97471100  0.25156800  1
  O  O13  1  0.49330700  0.47476700  0.25155300  1
  O  O14  1  0.50507000  0.52357500  0.75159500  1
  O  O15  1  0.00517500  0.02374400  0.75154900  1
  F  F0  1  0.93361100  0.24830300  0.89948500  1
  F  F1  1  0.43383200  0.74826300  0.89947100  1
  F  F2  1  0.41737800  0.10205000  0.39915400  1
  F  F3  1  0.91728300  0.60201900  0.39920000  1
loop_
_geom_bond_atom_site_label_1
_geom_bond_atom_site_label_2
_geom_bond_distance
_geom_bond_site_symmetry_2
Li0 O14 1.980695 1_555
Li0 O2 2.094817 1_455
Li0 O6 2.207640 1_555
Li0 O8 2.211252 1_555
Li1 O15 1.980980 1_655
Li1 O3 2.095586 1_555
Li1 O7 2.208515 1_555
Li1 O9 2.212023 1_545
Li2 O12 1.980846 1_455
Li2 O0 2.097264 1_555
Li2 O4 2.207576 1_555
Li2 O10 2.213209 1_565
Li3 O13 1.980801 1_555
Li3 O1 2.096934 1_555
Li3 O5 2.207349 1_655
Li3 O11 2.212763 1_655
Li4 O13 2.001073 1_555
Li4 O4 2.118260 1_555
Li4 O11 2.179375 1_555
Li4 O0 2.404882 1_555
Li5 O12 2.000982 1_545
Li5 O5 2.118163 1_655
Li5 O10 2.179786 1_555
Li5 O1 2.405558 1_555
Li6 O15 2.000327 1_565
Li6 O6 2.119110 1_555
Li6 O9 2.177226 1_555
Li6 O2 2.404856 1_455
Li7 O14 2.000268 1_555
Li7 O7 2.119836 1_555
Li7 O8 2.176718 1_655
Li7 O3 2.405315 1_555
Li8 O10 1.896115 1_555
Li8 O3 1.914813 1_554
Li8 O4 1.940931 1_545
Li9 O11 1.896428 1_555
Li9 O2 1.915329 1_454
Li9 O5 1.940847 1_555
Li10 O8 1.896581 1_555
Li10 O0 1.914735 1_555
Li10 O6 1.940787 1_555
Li11 O9 1.896927 1_545
Li11 O1 1.915515 1_555
Li11 O7 1.940982 1_555
Li12 O6 1.869692 1_555
Li12 O0 1.894977 1_555
Li12 O9 1.918011 1_555
Li13 O7 1.869625 1_555
Li13 O1 1.895196 1_555
Li13 O8 1.918531 1_655
Li14 O4 1.870102 1_555
Li14 O3 1.894807 1_564
Li14 O11 1.918329 1_555
Li15 O5 1.869021 1_655
Li15 O2 1.894864 1_554
Li15 O10 1.917961 1_555
Li16 O13 1.902183 1_555
Li16 O7 2.014990 1_555
Li16 O8 2.081742 1_555
Li17 O12 1.901804 1_555
Li17 O6 2.014972 1_655
Li17 O9 2.081487 1_555
Li18 O15 1.901965 1_665
Li18 O4 2.016044 1_556
Li18 O11 2.080593 1_656
Li19 O14 1.901729 1_555
Li19 O5 2.016112 1_556
Li19 O10 2.079572 1_556
Li20 O12 1.945571 1_445
Li20 O3 2.103812 1_554
Li20 O5 2.187348 1_555
Li20 O10 2.385745 1_555
Li21 O13 1.946149 1_555
Li21 O2 2.104073 1_554
Li21 O4 2.187291 1_555
Li21 O11 2.385038 1_655
Li22 O14 1.945398 1_555
Li22 O0 2.102320 1_555
Li22 O7 2.187011 1_555
Li22 O8 2.388151 1_555
Li23 O15 1.945143 1_555
Li23 O1 2.102536 1_455
Li23 O6 2.187203 1_545
Li23 O9 2.388491 1_445
Mn0 O2 1.916087 1_555
Mn0 O9 1.921624 1_555
Mn0 O6 1.940824 1_655
Mn0 O14 2.060926 1_555
Mn1 O0 1.915767 1_555
Mn1 O11 1.921741 1_655
Mn1 O4 1.941705 1_555
Mn1 O12 2.060019 1_555
Mn2 O3 1.916475 1_555
Mn2 O8 1.921089 1_555
Mn2 O7 1.940846 1_555
Mn2 O15 2.061324 1_555
Mn3 O1 1.916380 1_455
Mn3 O10 1.921663 1_555
Mn3 O5 1.941427 1_555
Mn3 O13 2.059094 1_555
F0 Li8 1.881332 1_556
F0 Li15 1.896858 1_556
F0 Mn2 2.156077 1_655
F0 Li7 2.199739 1_555
F0 Li20 2.223665 1_656
F1 Li9 1.881555 1_556
F1 Li14 1.897326 1_556
F1 Mn0 2.156261 1_555
F1 Li6 2.201402 1_555
F1 Li21 2.222875 1_556
F2 Li11 1.881912 1_555
F2 Li12 1.896796 1_545
F2 Mn3 2.158125 1_555
F2 Li5 2.195692 1_555
F2 Li23 2.226925 1_555
F3 Li10 1.882023 1_655
F3 Li13 1.896696 1_555
F3 Mn1 2.156106 1_555
F3 Li4 2.196378 1_655
F3 Li22 2.226118 1_555
