# generated using pymatgen
data_Li4Si2NiO7
_symmetry_space_group_name_H-M   'P 1'
_cell_length_a   4.51147117
_cell_length_b   9.28367881
_cell_length_c   7.89713597
_cell_angle_alpha   76.22868560
_cell_angle_beta   105.82263936
_cell_angle_gamma   74.87724099
_symmetry_Int_Tables_number   1
_chemical_formula_structural   Li4Si2NiO7
_chemical_formula_sum   'Li8 Si4 Ni2 O14'
_cell_volume   289.68287074
_cell_formula_units_Z   2
loop_
 _symmetry_equiv_pos_site_id
 _symmetry_equiv_pos_as_xyz
  1  'x, y, z'
loop_
 _atom_site_type_symbol
 _atom_site_label
 _atom_site_symmetry_multiplicity
 _atom_site_fract_x
 _atom_site_fract_y
 _atom_site_fract_z
 _atom_site_occupancy
  Li  Li0  1  0.16462200  0.57289600  0.86779700  1
  Li  Li1  1  0.16361400  0.07252400  0.36721000  1
  Li  Li2  1  0.86647900  0.43180900  0.13517200  1
  Li  Li3  1  0.86579200  0.93100600  0.63320900  1
  Li  Li4  1  0.72187100  0.35849600  0.78832400  1
  Li  Li5  1  0.72212800  0.85823100  0.28647800  1
  Li  Li6  1  0.29499000  0.63674400  0.21663200  1
  Li  Li7  1  0.29503500  0.13602800  0.71665700  1
  Si  Si0  1  0.56050100  0.78171100  0.92803100  1
  Si  Si1  1  0.56063100  0.28128000  0.42913500  1
  Si  Si2  1  0.41652900  0.22034700  0.06748500  1
  Si  Si3  1  0.41696500  0.71992200  0.56696300  1
  Ni  Ni0  1  0.01147600  0.49204800  0.51551900  1
  Ni  Ni1  1  0.01002800  0.99386700  0.01222100  1
  O  O0  1  0.67990200  0.25110200  0.24745900  1
  O  O1  1  0.67922300  0.75165100  0.74627800  1
  O  O2  1  0.33713200  0.56373600  0.66344700  1
  O  O3  1  0.33633000  0.06399000  0.16293700  1
  O  O4  1  0.22635700  0.44091400  0.33662600  1
  O  O5  1  0.22556200  0.94092700  0.83495300  1
  O  O6  1  0.85725000  0.81280800  0.07205000  1
  O  O7  1  0.85768500  0.31133000  0.57448800  1
  O  O8  1  0.60509500  0.18489300  0.92233700  1
  O  O9  1  0.60783300  0.68425600  0.42293600  1
  O  O10  1  0.49536700  0.62603700  0.03002000  1
  O  O11  1  0.49465600  0.12547800  0.52998300  1
  O  O12  1  0.09065900  0.37847200  0.96375600  1
  O  O13  1  0.09028800  0.87749500  0.46189800  1
loop_
_geom_bond_atom_site_label_1
_geom_bond_atom_site_label_2
_geom_bond_distance
_geom_bond_site_symmetry_2
Li0 O12 1.935063 1_555
Li0 O10 1.937440 1_556
Li0 O2 1.983162 1_555
Li0 O1 2.161021 1_455
Li1 O13 1.936400 1_545
Li1 O11 1.939482 1_555
Li1 O3 1.982387 1_555
Li1 O0 2.155345 1_455
Li2 O10 1.922971 1_555
Li2 O4 1.975154 1_655
Li2 O12 1.976105 1_654
Li2 O0 2.178269 1_555
Li3 O11 1.924905 1_565
Li3 O13 1.976728 1_655
Li3 O5 1.979623 1_655
Li3 O1 2.170601 1_555
Li4 O12 1.936039 1_655
Li4 O8 1.982449 1_555
Li4 O2 2.015470 1_555
Li4 O7 2.048203 1_555
Li5 O13 1.930807 1_655
Li5 O9 1.986132 1_555
Li5 O3 2.020413 1_565
Li5 O6 2.045896 1_555
Li6 O10 1.936033 1_555
Li6 O4 1.983070 1_555
Li6 O6 2.018160 1_455
Li6 O9 2.062501 1_555
Li7 O11 1.934059 1_555
Li7 O5 1.975323 1_545
Li7 O7 2.012160 1_455
Li7 O8 2.060025 1_555
Ni0 O2 1.977509 1_555
Ni0 O7 1.981066 1_455
Ni0 O4 1.996748 1_555
Ni0 O9 1.998025 1_455
Ni1 O3 1.980146 1_565
Ni1 O6 1.981842 1_455
Ni1 O5 1.991816 1_554
Ni1 O8 1.997336 1_464
O0 Si1 1.720509 1_555
O0 Si2 1.721241 1_555
O1 Si0 1.719554 1_555
O1 Si3 1.720087 1_555
O2 Si3 1.645865 1_555
O3 Si2 1.645600 1_555
O4 Si1 1.649814 1_555
O5 Si0 1.649264 1_555
O6 Si0 1.642212 1_554
O7 Si1 1.643197 1_555
O8 Si2 1.646578 1_556
O9 Si3 1.646033 1_555
O10 Si0 1.618704 1_554
O11 Si1 1.618780 1_555
O12 Si2 1.622355 1_556
O13 Si3 1.621982 1_555
