# generated using pymatgen
data_Li3Ni5O8
_symmetry_space_group_name_H-M   'P 1'
_cell_length_a   5.83591011
_cell_length_b   5.82234650
_cell_length_c   14.61791797
_cell_angle_alpha   78.75095528
_cell_angle_beta   95.26011524
_cell_angle_gamma   119.72158812
_symmetry_Int_Tables_number   1
_chemical_formula_structural   Li3Ni5O8
_chemical_formula_sum   'Li9 Ni15 O24'
_cell_volume   423.06018132
_cell_formula_units_Z   3
loop_
 _symmetry_equiv_pos_site_id
 _symmetry_equiv_pos_as_xyz
  1  'x, y, z'
loop_
 _atom_site_type_symbol
 _atom_site_label
 _atom_site_symmetry_multiplicity
 _atom_site_fract_x
 _atom_site_fract_y
 _atom_site_fract_z
 _atom_site_occupancy
  Li  Li0  1  0.83160100  0.24886600  0.83340100  1
  Li  Li1  1  0.66680100  0.74937000  0.16630100  1
  Li  Li2  1  0.33389400  0.75273800  0.83382100  1
  Li  Li3  1  0.66702900  0.25141400  0.16622900  1
  Li  Li4  1  0.50260500  0.25121100  0.50061000  1
  Li  Li5  1  0.33350600  0.24785100  0.83391300  1
  Li  Li6  1  0.16610500  0.74971700  0.16632500  1
  Li  Li7  1  0.99925400  0.74647100  0.50001600  1
  Li  Li8  1  0.99943100  0.25218300  0.49982700  1
  Ni  Ni0  1  0.83603100  0.75145500  0.83365800  1
  Ni  Ni1  1  0.83302000  0.49980100  0.33329500  1
  Ni  Ni2  1  0.66658300  0.49796100  0.66675800  1
  Ni  Ni3  1  0.49781400  0.74890400  0.50020000  1
  Ni  Ni4  1  0.83325700  0.99998500  0.33327000  1
  Ni  Ni5  1  0.66661100  0.00181900  0.66650000  1
  Ni  Ni6  1  0.49991900  0.49995400  0.00015100  1
  Ni  Ni7  1  0.33320700  0.49994300  0.33325700  1
  Ni  Ni8  1  0.16528800  0.49832800  0.66883800  1
  Ni  Ni9  1  0.50023500  0.00001000  0.00039200  1
  Ni  Ni10  1  0.33317500  0.99996400  0.33326200  1
  Ni  Ni11  1  0.16842200  0.00230300  0.66382200  1
  Ni  Ni12  1  0.16755500  0.25032200  0.16645400  1
  Ni  Ni13  1  0.00014900  0.49987400  0.00017100  1
  Ni  Ni14  1  0.00003600  0.00009200  0.00017100  1
  O  O0  1  0.82272200  0.87312200  0.58698700  1
  O  O1  1  0.66857100  0.87059200  0.91832900  1
  O  O2  1  0.83277000  0.63048800  0.07288400  1
  O  O3  1  0.82943400  0.37338600  0.59263400  1
  O  O4  1  0.66883100  0.38001900  0.91878300  1
  O  O5  1  0.66240300  0.62823400  0.41471900  1
  O  O6  1  0.51411200  0.62942600  0.74518700  1
  O  O7  1  0.49574500  0.86563600  0.26113900  1
  O  O8  1  0.33359700  0.86690400  0.58544400  1
  O  O9  1  0.16102100  0.87081500  0.91915400  1
  O  O10  1  0.83821000  0.12853400  0.08101000  1
  O  O11  1  0.66275100  0.11957800  0.41434000  1
  O  O12  1  0.50017400  0.12434300  0.74111400  1
  O  O13  1  0.49674300  0.37224400  0.25230600  1
  O  O14  1  0.33215400  0.62193200  0.08087500  1
  O  O15  1  0.33537200  0.38288800  0.58566900  1
  O  O16  1  0.16773200  0.36989600  0.92711800  1
  O  O17  1  0.16986500  0.62754900  0.41483600  1
  O  O18  1  0.99813900  0.63259100  0.74729500  1
  O  O19  1  0.00289500  0.87846200  0.25278100  1
  O  O20  1  0.33217800  0.12821700  0.08125300  1
  O  O21  1  0.17003900  0.13388200  0.40541100  1
  O  O22  1  0.99934800  0.11792300  0.74756300  1
  O  O23  1  0.00366500  0.37279900  0.25252500  1
loop_
_geom_bond_atom_site_label_1
_geom_bond_atom_site_label_2
_geom_bond_distance
_geom_bond_site_symmetry_2
Li0 O4 2.086072 1_555
Li0 O1 2.090267 1_545
Li0 O22 2.110112 1_555
Li0 O18 2.120024 1_555
Li0 O12 2.144596 1_555
Li0 O16 2.175903 1_655
Li1 O13 2.092329 1_555
Li1 O10 2.096141 1_565
Li1 O14 2.097971 1_555
Li1 O19 2.112920 1_655
Li1 O2 2.134963 1_555
Li1 O7 2.160248 1_555
Li2 O9 2.073524 1_555
Li2 O1 2.090709 1_555
Li2 O18 2.111912 1_455
Li2 O12 2.115353 1_565
Li2 O6 2.159130 1_555
Li2 O16 2.163808 1_555
Li3 O13 2.081737 1_555
Li3 O10 2.084779 1_555
Li3 O20 2.094970 1_555
Li3 O23 2.113536 1_655
Li3 O2 2.149174 1_555
Li3 O7 2.186624 1_545
Li4 O11 2.086778 1_555
Li4 O5 2.091486 1_555
Li4 O15 2.103004 1_555
Li4 O8 2.114404 1_545
Li4 O3 2.123930 1_555
Li4 O21 2.175101 1_555
Li5 O9 2.087249 1_545
Li5 O4 2.096422 1_555
Li5 O22 2.104025 1_455
Li5 O6 2.129186 1_555
Li5 O16 2.144352 1_555
Li5 O12 2.149281 1_555
Li6 O14 2.086211 1_555
Li6 O19 2.089162 1_555
Li6 O20 2.091955 1_565
Li6 O23 2.092790 1_555
Li6 O7 2.160075 1_555
Li6 O2 2.162306 1_455
Li7 O17 2.066028 1_655
Li7 O8 2.096787 1_655
Li7 O5 2.106334 1_555
Li7 O3 2.120786 1_555
Li7 O0 2.140240 1_555
Li7 O21 2.190953 1_665
Li8 O17 2.078714 1_655
Li8 O15 2.107006 1_655
Li8 O11 2.107199 1_555
Li8 O0 2.108264 1_545
Li8 O3 2.153418 1_555
Li8 O21 2.161823 1_655
Ni0 O18 2.043724 1_555
Ni0 O1 2.048684 1_555
Ni0 O22 2.049574 1_565
Ni0 O9 2.058963 1_655
Ni0 O4 2.063437 1_555
Ni0 O6 2.072742 1_555
Ni1 O23 2.054013 1_655
Ni1 O19 2.064711 1_655
Ni1 O5 2.066433 1_555
Ni1 O13 2.067930 1_555
Ni1 O11 2.074404 1_555
Ni1 O17 2.074801 1_655
Ni2 O3 1.944821 1_555
Ni2 O6 1.974033 1_555
Ni2 O12 2.008213 1_555
Ni2 O18 2.045195 1_555
Ni2 O0 2.046651 1_555
Ni2 O15 2.048351 1_555
Ni3 O8 2.036922 1_555
Ni3 O15 2.043595 1_555
Ni3 O5 2.051674 1_555
Ni3 O11 2.065043 1_565
Ni3 O17 2.069903 1_555
Ni3 O0 2.070017 1_555
Ni4 O21 2.001038 1_665
Ni4 O7 2.004134 1_555
Ni4 O19 2.024348 1_655
Ni4 O11 2.025977 1_565
Ni4 O5 2.041793 1_555
Ni4 O23 2.041824 1_665
Ni5 O12 1.956238 1_555
Ni5 O0 1.988299 1_545
Ni5 O3 1.996863 1_555
Ni5 O6 2.029165 1_545
Ni5 O22 2.054465 1_555
Ni5 O8 2.055501 1_545
Ni6 O16 1.987885 1_554
Ni6 O2 1.988466 1_555
Ni6 O14 2.020803 1_555
Ni6 O4 2.023777 1_554
Ni6 O1 2.039354 1_554
Ni6 O20 2.039395 1_555
Ni7 O7 1.962031 1_555
Ni7 O21 1.963795 1_555
Ni7 O13 2.029254 1_555
Ni7 O17 2.034488 1_555
Ni7 O23 2.037732 1_555
Ni7 O5 2.042412 1_555
Ni8 O3 2.028235 1_455
Ni8 O15 2.028960 1_555
Ni8 O8 2.040807 1_555
Ni8 O18 2.046702 1_455
Ni8 O22 2.061751 1_455
Ni8 O6 2.085030 1_555
Ni9 O20 2.049151 1_555
Ni9 O14 2.062075 1_545
Ni9 O1 2.067522 1_544
Ni9 O10 2.072059 1_555
Ni9 O4 2.076874 1_554
Ni9 O9 2.082277 1_544
Ni10 O7 1.965754 1_555
Ni10 O21 1.966644 1_565
Ni10 O19 2.038770 1_555
Ni10 O13 2.040743 1_565
Ni10 O11 2.040814 1_565
Ni10 O17 2.045084 1_555
Ni11 O12 2.019374 1_555
Ni11 O22 2.031455 1_455
Ni11 O8 2.042488 1_545
Ni11 O18 2.046104 1_445
Ni11 O15 2.059196 1_555
Ni11 O0 2.075308 1_445
Ni12 O20 2.054679 1_555
Ni12 O23 2.062356 1_555
Ni12 O14 2.067007 1_555
Ni12 O19 2.072894 1_545
Ni12 O10 2.076295 1_455
Ni12 O13 2.079139 1_555
Ni13 O2 1.976003 1_455
Ni13 O16 1.977435 1_554
Ni13 O9 2.035652 1_554
Ni13 O10 2.036174 1_455
Ni13 O14 2.047814 1_555
Ni13 O4 2.050660 1_454
Ni14 O2 1.982044 1_445
Ni14 O16 1.984753 1_554
Ni14 O10 2.024171 1_455
Ni14 O9 2.026019 1_544
Ni14 O20 2.051448 1_555
Ni14 O1 2.055008 1_444
