# generated using pymatgen
data_Fe4OF7
_symmetry_space_group_name_H-M   'P 1'
_cell_length_a   7.98214556
_cell_length_b   7.98214556
_cell_length_c   6.68426465
_cell_angle_alpha   65.27645058
_cell_angle_beta   65.27645058
_cell_angle_gamma   51.02030823
_symmetry_Int_Tables_number   1
_chemical_formula_structural   Fe4OF7
_chemical_formula_sum   'Fe8 O2 F14'
_cell_volume   293.37420982
_cell_formula_units_Z   2
loop_
 _symmetry_equiv_pos_site_id
 _symmetry_equiv_pos_as_xyz
  1  'x, y, z'
loop_
 _atom_site_type_symbol
 _atom_site_label
 _atom_site_symmetry_multiplicity
 _atom_site_fract_x
 _atom_site_fract_y
 _atom_site_fract_z
 _atom_site_occupancy
  Fe  Fe0  1  0.12156200  0.12156200  0.84915500  1
  Fe  Fe1  1  0.62762700  0.62762700  0.37027900  1
  Fe  Fe2  1  0.37237300  0.37237300  0.62972100  1
  Fe  Fe3  1  0.00000000  0.00000000  0.50000000  1
  Fe  Fe4  1  0.50000000  0.50000000  0.00000000  1
  Fe  Fe5  1  0.75998800  0.75998800  0.73218700  1
  Fe  Fe6  1  0.24001200  0.24001200  0.26781300  1
  Fe  Fe7  1  0.87843800  0.87843800  0.15084500  1
  O  O0  1  0.11740400  0.11740400  0.55614600  1
  O  O1  1  0.88259600  0.88259600  0.44385400  1
  F  F0  1  0.12030300  0.12030300  0.16667800  1
  F  F1  1  0.63348200  0.63348200  0.06109000  1
  F  F2  1  0.69492200  0.30507800  0.50000000  1
  F  F3  1  0.30507800  0.69492200  0.50000000  1
  F  F4  1  0.04802000  0.45062400  0.75386900  1
  F  F5  1  0.79477800  0.20522200  0.00000000  1
  F  F6  1  0.36651800  0.36651800  0.93891000  1
  F  F7  1  0.63232200  0.63232200  0.66906500  1
  F  F8  1  0.87969700  0.87969700  0.83332200  1
  F  F9  1  0.36767800  0.36767800  0.33093500  1
  F  F10  1  0.45062400  0.04802000  0.75386900  1
  F  F11  1  0.20522200  0.79477800  0.00000000  1
  F  F12  1  0.95198000  0.54937600  0.24613100  1
  F  F13  1  0.54937600  0.95198000  0.24613100  1
loop_
_geom_bond_atom_site_label_1
_geom_bond_atom_site_label_2
_geom_bond_distance
_geom_bond_site_symmetry_2
Fe0 O0 1.987022 1_555
Fe3 O1 1.894878 1_445
Fe3 O0 1.894878 1_555
Fe5 O1 1.918214 1_555
Fe6 O0 1.918214 1_555
Fe7 O1 1.987022 1_555
F0 Fe3 2.095020 1_555
F0 Fe0 2.114063 1_554
F0 Fe6 2.124250 1_555
F1 Fe1 2.028985 1_555
F1 Fe5 2.107490 1_554
F1 Fe4 2.143198 1_555
F2 Fe3 2.097520 1_655
F2 Fe1 2.109837 1_555
F2 Fe2 2.109837 1_555
F3 Fe3 2.097520 1_565
F3 Fe1 2.109837 1_555
F3 Fe2 2.109837 1_555
F4 Fe5 2.059485 1_455
F4 Fe2 2.093744 1_555
F4 Fe0 2.150100 1_555
F5 Fe4 2.026704 1_555
F5 Fe7 2.106731 1_545
F5 Fe0 2.106731 1_654
F6 Fe2 2.028985 1_555
F6 Fe6 2.107490 1_556
F6 Fe4 2.143198 1_556
F7 Fe1 2.029398 1_555
F7 Fe5 2.068991 1_555
F7 Fe4 2.149224 1_556
F8 Fe3 2.095020 1_665
F8 Fe7 2.114063 1_556
F8 Fe5 2.124250 1_555
F9 Fe2 2.029398 1_555
F9 Fe6 2.068991 1_555
F9 Fe4 2.149224 1_555
F10 Fe5 2.059485 1_545
F10 Fe2 2.093744 1_555
F10 Fe0 2.150100 1_555
F11 Fe4 2.026704 1_555
F11 Fe7 2.106731 1_455
F11 Fe0 2.106731 1_564
F12 Fe6 2.059485 1_655
F12 Fe1 2.093744 1_555
F12 Fe7 2.150100 1_555
F13 Fe6 2.059485 1_565
F13 Fe1 2.093744 1_555
F13 Fe7 2.150100 1_555
