# generated using pymatgen
data_Li8Ti7Nb6O30
_symmetry_space_group_name_H-M   'P 1'
_cell_length_a   5.19581184
_cell_length_b   5.19581184
_cell_length_c   24.34257300
_cell_angle_alpha   90.00000000
_cell_angle_beta   90.00000000
_cell_angle_gamma   119.99999796
_symmetry_Int_Tables_number   1
_chemical_formula_structural   Li8Ti7Nb6O30
_chemical_formula_sum   'Li8 Ti7 Nb6 O30'
_cell_volume   569.12013664
_cell_formula_units_Z   1
loop_
 _symmetry_equiv_pos_site_id
 _symmetry_equiv_pos_as_xyz
  1  'x, y, z'
loop_
 _atom_site_type_symbol
 _atom_site_label
 _atom_site_symmetry_multiplicity
 _atom_site_fract_x
 _atom_site_fract_y
 _atom_site_fract_z
 _atom_site_occupancy
  Li  Li0  1  0.66666700  0.33333300  0.07751000  1
  Li  Li1  1  0.66666700  0.33333300  0.37126600  1
  Li  Li2  1  0.66666700  0.33333300  0.63088300  1
  Li  Li3  1  0.66666700  0.33333300  0.92169900  1
  Li  Li4  1  0.00000000  0.00000000  0.79440700  1
  Li  Li5  1  0.00000000  0.00000000  0.52783200  1
  Li  Li6  1  0.33333300  0.66666700  0.20752500  1
  Li  Li7  1  0.33333300  0.66666700  0.47245800  1
  Ti  Ti0  1  0.00000000  0.00000000  0.29057100  1
  Ti  Ti1  1  0.00000000  0.00000000  0.89425200  1
  Ti  Ti2  1  0.00000000  0.00000000  0.01100400  1
  Ti  Ti3  1  0.00000000  0.00000000  0.69039500  1
  Ti  Ti4  1  0.33333300  0.66666700  0.98308800  1
  Ti  Ti5  1  0.33333300  0.66666700  0.71207800  1
  Ti  Ti6  1  0.33333300  0.66666700  0.31048700  1
  Nb  Nb0  1  0.00000000  0.00000000  0.40462200  1
  Nb  Nb1  1  0.66666700  0.33333300  0.20377000  1
  Nb  Nb2  1  0.66666700  0.33333300  0.50017300  1
  Nb  Nb3  1  0.66666700  0.33333300  0.80133100  1
  Nb  Nb4  1  0.33333300  0.66666700  0.10506500  1
  Nb  Nb5  1  0.33333300  0.66666700  0.59566400  1
  O  O0  1  0.58814400  0.00378900  0.15188100  1
  O  O1  1  0.67515900  0.96757700  0.34780200  1
  O  O2  1  0.67698300  0.00051900  0.74601600  1
  O  O3  1  0.95977000  0.29268200  0.45084700  1
  O  O4  1  0.64883100  0.69606200  0.04551600  1
  O  O5  1  0.04723000  0.35116900  0.04551600  1
  O  O6  1  0.70731800  0.66708700  0.45084700  1
  O  O7  1  0.99948100  0.67646400  0.74601600  1
  O  O8  1  0.29241800  0.32484100  0.34780200  1
  O  O9  1  0.99621100  0.58435500  0.15188100  1
  O  O10  1  0.32353600  0.32301700  0.74601600  1
  O  O11  1  0.03242300  0.70758200  0.34780200  1
  O  O12  1  0.00149900  0.62663900  0.54929500  1
  O  O13  1  0.41564500  0.41185600  0.15188100  1
  O  O14  1  0.03110300  0.71671500  0.95131400  1
  O  O15  1  0.30393800  0.95277000  0.04551600  1
  O  O16  1  0.91640200  0.24893200  0.84831500  1
  O  O17  1  0.33291300  0.04023000  0.45084700  1
  O  O18  1  0.29762700  0.95529600  0.65266200  1
  O  O19  1  0.01017300  0.34592500  0.25432400  1
  O  O20  1  0.33253000  0.08359800  0.84831500  1
  O  O21  1  0.04470400  0.34233200  0.65266200  1
  O  O22  1  0.33575200  0.98982700  0.25432400  1
  O  O23  1  0.62514000  0.99850100  0.54929500  1
  O  O24  1  0.28328500  0.31438800  0.95131400  1
  O  O25  1  0.68561200  0.96889700  0.95131400  1
  O  O26  1  0.37336100  0.37486000  0.54929500  1
  O  O27  1  0.65407500  0.66424800  0.25432400  1
  O  O28  1  0.65766800  0.70237300  0.65266200  1
  O  O29  1  0.75106800  0.66747000  0.84831500  1
loop_
_geom_bond_atom_site_label_1
_geom_bond_atom_site_label_2
_geom_bond_distance
_geom_bond_site_symmetry_2
Li0 O5 2.083686 1_655
Li0 O15 2.083691 1_545
Li0 O4 2.083696 1_555
Li0 O0 2.382677 1_555
Li0 O9 2.382678 1_555
Li0 O13 2.382681 1_555
Li1 O1 2.005880 1_545
Li1 O11 2.005883 1_655
Li1 O8 2.005885 1_555
Li1 O3 2.537379 1_555
Li1 O6 2.537379 1_555
Li1 O17 2.537379 1_555
Li2 O21 2.012344 1_655
Li2 O18 2.012349 1_545
Li2 O28 2.012354 1_555
Li2 O23 2.577259 1_545
Li2 O12 2.577260 1_655
Li2 O26 2.577262 1_555
Li3 O25 2.073953 1_545
Li3 O14 2.073956 1_655
Li3 O24 2.073958 1_555
Li3 O16 2.374049 1_555
Li3 O20 2.374051 1_555
Li3 O29 2.374052 1_555
Li4 O16 2.036023 1_455
Li4 O20 2.036023 1_555
Li4 O29 2.036023 1_445
Li4 O2 2.051569 1_455
Li4 O7 2.051569 1_445
Li4 O10 2.051569 1_555
Li5 O12 2.012810 1_545
Li5 O23 2.012810 1_445
Li5 O26 2.012810 1_555
Li5 O3 2.487183 1_455
Li5 O6 2.487185 1_445
Li5 O17 2.487187 1_555
Li6 O22 2.023896 1_555
Li6 O19 2.023898 1_555
Li6 O27 2.023900 1_555
Li6 O9 2.082469 1_455
Li6 O0 2.082471 1_565
Li6 O13 2.082473 1_555
Li7 O17 2.012045 1_565
Li7 O3 2.012050 1_455
Li7 O6 2.012055 1_555
Li7 O12 2.481086 1_555
Li7 O23 2.481087 1_555
Li7 O26 2.481089 1_555
Nb0 O3 1.985022 1_455
Nb0 O6 1.985024 1_445
Nb0 O17 1.985026 1_555
Nb0 O11 2.122698 1_545
Nb0 O1 2.122698 1_445
Nb0 O8 2.122698 1_555
Nb1 O0 1.998780 1_555
Nb1 O9 1.998781 1_555
Nb1 O13 1.998784 1_555
Nb1 O19 2.141823 1_655
Nb1 O22 2.141825 1_545
Nb1 O27 2.141827 1_555
Nb2 O3 2.031564 1_555
Nb2 O6 2.031565 1_555
Nb2 O17 2.031565 1_555
Nb2 O23 2.031663 1_545
Nb2 O12 2.031664 1_655
Nb2 O26 2.031667 1_555
Nb3 O16 1.937297 1_555
Nb3 O20 1.937299 1_555
Nb3 O29 1.937301 1_555
Nb3 O2 2.213349 1_555
Nb3 O7 2.213351 1_555
Nb3 O10 2.213353 1_555
Nb4 O9 1.949538 1_455
Nb4 O0 1.949539 1_565
Nb4 O13 1.949542 1_555
Nb4 O15 2.135751 1_555
Nb4 O4 2.135751 1_555
Nb4 O5 2.135751 1_555
Nb5 O12 1.982778 1_555
Nb5 O23 1.982780 1_555
Nb5 O26 1.982782 1_555
Nb5 O18 2.118188 1_555
Nb5 O28 2.118188 1_555
Nb5 O21 2.118188 1_555
O1 Ti6 1.909740 1_555
O1 Ti0 2.129231 1_665
O2 Ti5 1.944827 1_545
O2 Ti3 2.157440 1_655
O4 Ti2 1.909827 1_665
O4 Ti4 2.183923 1_554
O5 Ti2 1.909829 1_555
O5 Ti4 2.183923 1_554
O7 Ti5 1.944825 1_655
O7 Ti3 2.157440 1_665
O8 Ti6 1.909742 1_555
O8 Ti0 2.129231 1_555
O10 Ti5 1.944829 1_555
O10 Ti3 2.157440 1_555
O11 Ti6 1.909738 1_555
O11 Ti0 2.129231 1_565
O14 Ti4 1.881528 1_555
O14 Ti1 2.088032 1_565
O14 Ti2 2.131125 1_566
O15 Ti2 1.909824 1_565
O15 Ti4 2.183923 1_554
O16 Ti1 1.916713 1_655
O18 Ti3 1.910030 1_565
O18 Ti5 2.157202 1_555
O19 Ti0 1.979099 1_555
O19 Ti6 2.160433 1_555
O20 Ti1 1.916713 1_555
O21 Ti3 1.910034 1_555
O21 Ti5 2.157202 1_555
O22 Ti0 1.979099 1_565
O22 Ti6 2.160431 1_555
O24 Ti4 1.881533 1_555
O24 Ti1 2.088033 1_555
O24 Ti2 2.131125 1_556
O25 Ti4 1.881531 1_555
O25 Ti1 2.088033 1_665
O25 Ti2 2.131125 1_666
O27 Ti0 1.979099 1_665
O27 Ti6 2.160435 1_555
O28 Ti3 1.910033 1_665
O28 Ti5 2.157202 1_555
O29 Ti1 1.916713 1_665
