# generated using pymatgen
data_Li2MnV(P2O7)2
_symmetry_space_group_name_H-M   'P 1'
_cell_length_a   4.87032900
_cell_length_b   7.07510120
_cell_length_c   24.83438957
_cell_angle_alpha   89.52362098
_cell_angle_beta   89.75643027
_cell_angle_gamma   71.19348473
_symmetry_Int_Tables_number   1
_chemical_formula_structural   Li2MnV(P2O7)2
_chemical_formula_sum   'Li6 Mn3 V3 P12 O42'
_cell_volume   810.03003216
_cell_formula_units_Z   3
loop_
 _symmetry_equiv_pos_site_id
 _symmetry_equiv_pos_as_xyz
  1  'x, y, z'
loop_
 _atom_site_type_symbol
 _atom_site_label
 _atom_site_symmetry_multiplicity
 _atom_site_fract_x
 _atom_site_fract_y
 _atom_site_fract_z
 _atom_site_occupancy
  Li  Li0  1  0.17428700  0.32682300  0.62049600  1
  Li  Li1  1  0.17225900  0.32513600  0.95334400  1
  Li  Li2  1  0.17690500  0.32597900  0.28705500  1
  Li  Li3  1  0.82382100  0.67501300  0.11999400  1
  Li  Li4  1  0.82192300  0.67423500  0.45364400  1
  Li  Li5  1  0.82721100  0.67461700  0.78652400  1
  Mn  Mn0  1  0.21239500  0.27225300  0.83292700  1
  Mn  Mn1  1  0.78715500  0.73090600  0.66597800  1
  Mn  Mn2  1  0.78555900  0.72729700  0.99997800  1
  V  V0  1  0.21558800  0.27400400  0.16672900  1
  V  V1  1  0.21327600  0.27085100  0.49954500  1
  V  V2  1  0.78460400  0.72851600  0.33317000  1
  P  P0  1  0.40203100  0.47717300  0.05905000  1
  P  P1  1  0.40041900  0.47643000  0.39339900  1
  P  P2  1  0.40170000  0.48357400  0.72563900  1
  P  P3  1  0.21367700  0.91418500  0.26118300  1
  P  P4  1  0.21484400  0.91052400  0.59516100  1
  P  P5  1  0.21386300  0.90846200  0.92915300  1
  P  P6  1  0.78906000  0.08701100  0.09567200  1
  P  P7  1  0.78669700  0.08575500  0.42815900  1
  P  P8  1  0.78677300  0.09130700  0.76276700  1
  P  P9  1  0.59963400  0.52408800  0.22675800  1
  P  P10  1  0.60037900  0.51794800  0.56015700  1
  P  P11  1  0.59924100  0.51636700  0.89249000  1
  O  O0  1  0.04876000  0.15436200  0.10857000  1
  O  O1  1  0.05508500  0.15017400  0.77633100  1
  O  O2  1  0.04975900  0.14758300  0.44141400  1
  O  O3  1  0.12847000  0.10984200  0.90091800  1
  O  O4  1  0.13377500  0.11479800  0.23206700  1
  O  O5  1  0.13227100  0.11036500  0.56550900  1
  O  O6  1  0.18716500  0.51758000  0.01190100  1
  O  O7  1  0.19127500  0.51970300  0.67771200  1
  O  O8  1  0.18722600  0.51744700  0.34599500  1
  O  O9  1  0.24949900  0.50667000  0.77981000  1
  O  O10  1  0.25037200  0.49473100  0.11397500  1
  O  O11  1  0.24711900  0.49241800  0.44768400  1
  O  O12  1  0.39658300  0.39733500  0.22592400  1
  O  O13  1  0.39215600  0.39472500  0.55835000  1
  O  O14  1  0.39200200  0.39110800  0.89037200  1
  O  O15  1  0.60028300  0.08767800  0.14558200  1
  O  O16  1  0.60066800  0.08328800  0.47806000  1
  O  O17  1  0.59716600  0.09114800  0.81242800  1
  O  O18  1  0.59724500  0.24751200  0.05110900  1
  O  O19  1  0.59627400  0.24730400  0.38436600  1
  O  O20  1  0.59909600  0.25244300  0.71852200  1
  O  O21  1  0.40468300  0.75401000  0.21773800  1
  O  O22  1  0.40292500  0.74860200  0.88527700  1
  O  O23  1  0.40369500  0.74954900  0.55208300  1
  O  O24  1  0.39802800  0.91571300  0.31113900  1
  O  O25  1  0.39897400  0.91374400  0.64486000  1
  O  O26  1  0.40178600  0.90788300  0.97898500  1
  O  O27  1  0.60345300  0.60651000  0.05806700  1
  O  O28  1  0.60303800  0.60379000  0.39243300  1
  O  O29  1  0.60790000  0.61003000  0.72365500  1
  O  O30  1  0.75218300  0.50678400  0.28127300  1
  O  O31  1  0.75512300  0.49503400  0.61385900  1
  O  O32  1  0.75018800  0.49186800  0.94678900  1
  O  O33  1  0.81288800  0.48490400  0.17943300  1
  O  O34  1  0.81019500  0.48239200  0.51192900  1
  O  O35  1  0.81062300  0.48181400  0.84451400  1
  O  O36  1  0.87310200  0.88629500  0.06805000  1
  O  O37  1  0.87214000  0.89107300  0.73458100  1
  O  O38  1  0.86640800  0.88617500  0.39906200  1
  O  O39  1  0.94961900  0.85211200  0.27458600  1
  O  O40  1  0.94304700  0.85540100  0.60891800  1
  O  O41  1  0.94445200  0.84965000  0.94278400  1
loop_
_geom_bond_atom_site_label_1
_geom_bond_atom_site_label_2
_geom_bond_distance
_geom_bond_site_symmetry_2
Li0 O7 1.998542 1_555
Li0 O13 2.010245 1_555
Li0 O31 2.011034 1_455
Li0 O5 2.119253 1_555
Li1 O6 2.017783 1_556
Li1 O32 2.019866 1_455
Li1 O14 2.025990 1_555
Li1 O3 2.074996 1_555
Li2 O12 2.006502 1_555
Li2 O8 2.014361 1_555
Li2 O30 2.056515 1_455
Li2 O4 2.092871 1_555
Li3 O33 2.000856 1_555
Li3 O27 2.028251 1_555
Li3 O36 2.037861 1_555
Li3 O10 2.063280 1_655
Li4 O34 1.989306 1_555
Li4 O28 2.016089 1_555
Li4 O11 2.061091 1_655
Li4 O38 2.075092 1_555
Li5 O35 1.994672 1_555
Li5 O9 2.023458 1_655
Li5 O29 2.031777 1_555
Li5 O37 2.058654 1_555
Mn0 O1 1.940234 1_555
Mn0 O17 1.966546 1_555
Mn0 O14 2.003086 1_555
Mn0 O35 2.059556 1_455
Mn0 O3 2.145510 1_555
Mn0 O9 2.162935 1_555
Mn1 O40 1.939483 1_555
Mn1 O25 1.985706 1_555
Mn1 O29 1.998910 1_555
Mn1 O7 2.071957 1_655
Mn1 O31 2.165666 1_555
Mn1 O37 2.167626 1_555
Mn2 O41 1.941089 1_555
Mn2 O26 1.963484 1_555
Mn2 O27 2.013787 1_556
Mn2 O6 2.059477 1_656
Mn2 O36 2.156876 1_556
Mn2 O32 2.184612 1_555
O0 P6 1.524475 1_455
O0 V0 1.984079 1_555
O1 P8 1.533479 1_455
O2 P7 1.519378 1_455
O2 V1 1.989342 1_555
O3 P5 1.516072 1_545
O4 P3 1.522518 1_545
O4 V0 2.077006 1_555
O5 P4 1.523711 1_545
O5 V1 2.093065 1_555
O6 P0 1.536175 1_555
O7 P2 1.539062 1_555
O8 P1 1.535799 1_555
O8 V2 2.070272 1_455
O9 P2 1.517598 1_555
O10 P0 1.535146 1_555
O10 V0 2.078115 1_555
O11 P1 1.525527 1_555
O11 V1 2.067501 1_555
O12 P9 1.534574 1_555
O12 V0 2.056170 1_555
O13 P10 1.536742 1_555
O13 V1 2.045539 1_555
O14 P11 1.544288 1_555
O15 P6 1.539241 1_555
O15 V0 1.983603 1_555
O16 P7 1.535330 1_555
O16 V1 1.998592 1_555
O17 P8 1.537775 1_555
O18 P0 1.609577 1_555
O18 P6 1.640403 1_555
O19 P1 1.611018 1_555
O19 P7 1.629043 1_555
O20 P2 1.618444 1_555
O20 P8 1.630461 1_555
O21 P9 1.611776 1_555
O21 P3 1.626602 1_555
O22 P11 1.621623 1_555
O22 P5 1.629380 1_555
O23 P4 1.619908 1_555
O23 P10 1.620792 1_555
O24 P3 1.536671 1_555
O24 V2 1.996801 1_555
O25 P4 1.533340 1_555
O26 P5 1.541540 1_555
O27 P0 1.542238 1_555
O28 P1 1.535936 1_555
O28 V2 2.048711 1_555
O29 P2 1.545830 1_555
O30 P9 1.532004 1_555
O30 V2 2.083780 1_555
O31 P10 1.516275 1_555
O32 P11 1.520294 1_555
O33 P9 1.531756 1_555
O33 V0 2.070834 1_655
O34 P10 1.539768 1_555
O34 V1 2.072841 1_655
O35 P11 1.539917 1_555
O36 P6 1.514526 1_565
O37 P8 1.517914 1_565
O38 P7 1.525745 1_565
O38 V2 2.098371 1_555
O39 P3 1.521732 1_655
O39 V2 1.987288 1_555
O40 P4 1.532289 1_655
O41 P5 1.534695 1_655
