# generated using pymatgen
data_Li4Cr(PO4)3
_symmetry_space_group_name_H-M   'P 1'
_cell_length_a   6.99017400
_cell_length_b   7.62162681
_cell_length_c   13.49400335
_cell_angle_alpha   94.01607278
_cell_angle_beta   90.09581568
_cell_angle_gamma   103.57792372
_symmetry_Int_Tables_number   1
_chemical_formula_structural   Li4Cr(PO4)3
_chemical_formula_sum   'Li12 Cr3 P9 O36'
_cell_volume   696.98306562
_cell_formula_units_Z   3
loop_
 _symmetry_equiv_pos_site_id
 _symmetry_equiv_pos_as_xyz
  1  'x, y, z'
loop_
 _atom_site_type_symbol
 _atom_site_label
 _atom_site_symmetry_multiplicity
 _atom_site_fract_x
 _atom_site_fract_y
 _atom_site_fract_z
 _atom_site_occupancy
  Li  Li0  1  0.05494800  0.78259500  0.38360600  1
  Li  Li1  1  0.09260700  0.80260000  0.88980800  1
  Li  Li2  1  0.58576200  0.79133900  0.38857200  1
  Li  Li3  1  0.56500800  0.81743100  0.89326500  1
  Li  Li4  1  0.24750900  0.51106000  0.00059300  1
  Li  Li5  1  0.23809500  0.51546400  0.49999900  1
  Li  Li6  1  0.76691900  0.48410300  0.50103400  1
  Li  Li7  1  0.74760400  0.47183200  0.00099800  1
  Li  Li8  1  0.41785000  0.18959900  0.11448300  1
  Li  Li9  1  0.41831800  0.18385600  0.62458400  1
  Li  Li10  1  0.92295500  0.19876800  0.11286400  1
  Li  Li11  1  0.92229900  0.19772400  0.61288600  1
  Cr  Cr0  1  0.73126100  0.40108300  0.26487300  1
  Cr  Cr1  1  0.73098000  0.39747700  0.76930800  1
  Cr  Cr2  1  0.39623300  0.17517900  0.38807800  1
  P  P0  1  0.05040900  0.83381800  0.11251200  1
  P  P1  1  0.04978300  0.83311800  0.61266900  1
  P  P2  1  0.61670900  0.82363100  0.11327400  1
  P  P3  1  0.61645400  0.82397400  0.61330600  1
  P  P4  1  0.27588000  0.61783500  0.22534700  1
  P  P5  1  0.27740800  0.61874300  0.72588600  1
  P  P6  1  0.38507000  0.17522900  0.88662500  1
  P  P7  1  0.93846600  0.15819100  0.38830000  1
  P  P8  1  0.94519000  0.15937000  0.88789300  1
  O  O0  1  0.39766800  0.96161100  0.38993900  1
  O  O1  1  0.37605300  0.97658700  0.89066000  1
  O  O2  1  0.86271400  0.95686100  0.39855000  1
  O  O3  1  0.86776900  0.95833500  0.89441800  1
  O  O4  1  0.14273100  0.76535400  0.20880700  1
  O  O5  1  0.06421900  0.70834500  0.02251000  1
  O  O6  1  0.14227500  0.76351700  0.70796000  1
  O  O7  1  0.06021200  0.70697500  0.52200600  1
  O  O8  1  0.82737700  0.79852000  0.14963800  1
  O  O9  1  0.54448200  0.69854500  0.02212300  1
  O  O10  1  0.49800600  0.74085900  0.20999400  1
  O  O11  1  0.82740600  0.79861600  0.64942500  1
  O  O12  1  0.54435600  0.69829400  0.52256100  1
  O  O13  1  0.49799200  0.74257200  0.70995900  1
  O  O14  1  0.26283900  0.59507900  0.33474000  1
  O  O15  1  0.26698700  0.59813500  0.83543900  1
  O  O16  1  0.22685900  0.46322200  0.14758700  1
  O  O17  1  0.22783800  0.46220200  0.64909100  1
  O  O18  1  0.78229700  0.57273600  0.35057700  1
  O  O19  1  0.78269700  0.56876600  0.85205800  1
  O  O20  1  0.76301400  0.42235000  0.14538100  1
  O  O21  1  0.74474000  0.41993200  0.64933900  1
  O  O22  1  0.48249200  0.27930900  0.27359800  1
  O  O23  1  0.46817500  0.30772300  0.49072000  1
  O  O24  1  0.15635400  0.19785700  0.35283300  1
  O  O25  1  0.48546300  0.25328800  0.78821700  1
  O  O26  1  0.46322300  0.29939300  0.97808200  1
  O  O27  1  0.17165700  0.19896300  0.85921800  1
  O  O28  1  0.92420300  0.28729900  0.47848300  1
  O  O29  1  0.83821000  0.21311800  0.29395100  1
  O  O30  1  0.92838200  0.28696100  0.97736200  1
  O  O31  1  0.86571400  0.22351100  0.79041800  1
  O  O32  1  0.13041600  0.03446900  0.10949600  1
  O  O33  1  0.13253200  0.03339900  0.60988300  1
  O  O34  1  0.62430300  0.02132700  0.11155600  1
  O  O35  1  0.62462900  0.02195500  0.61265800  1
loop_
_geom_bond_atom_site_label_1
_geom_bond_atom_site_label_2
_geom_bond_distance
_geom_bond_site_symmetry_2
Li0 O7 1.995456 1_555
Li0 O2 2.100431 1_455
Li0 O18 2.203472 1_455
Li0 O14 2.331414 1_555
Li0 O4 2.440641 1_555
Li0 O0 2.460967 1_555
Li1 O5 1.968863 1_556
Li1 O1 2.109127 1_555
Li1 O3 2.179158 1_455
Li1 O15 2.277566 1_555
Li1 O6 2.485902 1_555
Li1 O19 2.486972 1_455
Li2 O12 1.985116 1_555
Li2 O2 2.045996 1_555
Li2 O0 2.052099 1_555
Li2 O18 2.425611 1_555
Li2 O10 2.466882 1_555
Li2 O14 2.473344 1_555
Li3 O1 1.993832 1_555
Li3 O9 2.006379 1_556
Li3 O3 2.136091 1_555
Li3 O15 2.432950 1_555
Li3 O13 2.517197 1_555
Li4 O16 2.041015 1_555
Li4 O5 2.198514 1_555
Li4 O9 2.232184 1_555
Li4 O15 2.364601 1_554
Li4 O26 2.458375 1_554
Li4 O30 2.474968 1_454
Li5 O17 2.078142 1_555
Li5 O7 2.134835 1_555
Li5 O12 2.270513 1_555
Li5 O14 2.347891 1_555
Li5 O28 2.461360 1_455
Li5 O23 2.505549 1_555
Li6 O28 2.064650 1_555
Li6 O21 2.090620 1_555
Li6 O18 2.179133 1_555
Li6 O23 2.200480 1_555
Li6 O7 2.337572 1_655
Li6 O12 2.509451 1_555
Li7 O20 2.017676 1_555
Li7 O30 2.111478 1_554
Li7 O26 2.118695 1_554
Li7 O19 2.183991 1_554
Li7 O9 2.483403 1_555
Li7 O5 2.506639 1_655
Li8 O26 2.069230 1_554
Li8 O32 2.076629 1_555
Li8 O34 2.142702 1_555
Li8 O22 2.219856 1_555
Li9 O33 2.058230 1_555
Li9 O23 2.088577 1_555
Li9 O35 2.106381 1_555
Li9 O25 2.256573 1_555
Li9 O21 2.557529 1_555
Li10 O30 1.989209 1_554
Li10 O32 2.125580 1_655
Li10 O34 2.204170 1_555
Li10 O20 2.266661 1_555
Li10 O29 2.516313 1_555
Li10 O16 2.578535 1_655
Li11 O28 1.981107 1_555
Li11 O33 2.141754 1_655
Li11 O35 2.194270 1_555
Li11 O21 2.350111 1_555
Li11 O31 2.430593 1_555
Li11 O17 2.588549 1_655
Cr0 O20 1.642062 1_555
Cr0 O18 1.656463 1_555
Cr0 O22 1.776896 1_555
Cr0 O29 1.829159 1_555
Cr1 O19 1.629338 1_555
Cr1 O21 1.640383 1_555
Cr1 O31 1.834263 1_555
Cr1 O25 1.836670 1_555
Cr2 O0 1.632068 1_545
Cr2 O23 1.659795 1_555
Cr2 O24 1.792384 1_555
Cr2 O22 1.824822 1_555
O1 P6 1.505261 1_565
O2 P7 1.517418 1_565
O3 P8 1.509313 1_565
O4 P0 1.620954 1_555
O4 P4 1.644997 1_555
O5 P0 1.509927 1_555
O6 P1 1.614509 1_555
O6 P5 1.641439 1_555
O7 P1 1.514863 1_555
O8 P0 1.605769 1_655
O8 P2 1.609053 1_555
O9 P2 1.511405 1_555
O10 P2 1.631881 1_555
O10 P4 1.636359 1_555
O11 P1 1.600124 1_655
O11 P3 1.610567 1_555
O12 P3 1.509285 1_555
O13 P3 1.627077 1_555
O13 P5 1.631154 1_555
O14 P4 1.498765 1_555
O15 P5 1.497626 1_555
O16 P4 1.497689 1_555
O17 P5 1.499637 1_555
O24 P7 1.564196 1_455
O25 P6 1.589822 1_555
O26 P6 1.519361 1_555
O27 P6 1.590338 1_555
O27 P8 1.594025 1_455
O28 P7 1.529012 1_555
O29 P7 1.580098 1_555
O30 P8 1.518781 1_555
O31 P8 1.578876 1_555
O32 P0 1.503450 1_545
O33 P1 1.503206 1_545
O34 P2 1.497010 1_545
O35 P3 1.497196 1_545
