# generated using pymatgen
data_MnP2O7
_symmetry_space_group_name_H-M   'P 1'
_cell_length_a   6.73272533
_cell_length_b   9.26069753
_cell_length_c   8.84863067
_cell_angle_alpha   117.83015370
_cell_angle_beta   99.29927819
_cell_angle_gamma   96.60392576
_symmetry_Int_Tables_number   1
_chemical_formula_structural   MnP2O7
_chemical_formula_sum   'Mn4 P8 O28'
_cell_volume   469.88032386
_cell_formula_units_Z   4
loop_
 _symmetry_equiv_pos_site_id
 _symmetry_equiv_pos_as_xyz
  1  'x, y, z'
loop_
 _atom_site_type_symbol
 _atom_site_label
 _atom_site_symmetry_multiplicity
 _atom_site_fract_x
 _atom_site_fract_y
 _atom_site_fract_z
 _atom_site_occupancy
  Mn  Mn0  1  0.99999379  0.49999534  0.49999919  1
  Mn  Mn1  1  0.50000371  0.50000003  0.00000766  1
  Mn  Mn2  1  0.00000594  0.00000073  -0.00000194  1
  Mn  Mn3  1  0.49999738  0.00000513  0.49999610  1
  P  P0  1  0.86127048  0.11984932  0.35796267  1
  P  P1  1  0.86126645  0.61985252  0.85796461  1
  P  P2  1  0.13873512  0.88014489  0.64203383  1
  P  P3  1  0.13873103  0.38014795  0.14203607  1
  P  P4  1  0.25348661  0.28809420  0.59964536  1
  P  P5  1  0.25349281  0.78809494  0.09963789  1
  P  P6  1  0.74650676  0.71190580  0.40036402  1
  P  P7  1  0.74651223  0.21190805  0.90035709  1
  O  O0  1  0.83259921  0.28251709  0.36420238  1
  O  O1  1  0.83261004  0.78252272  0.86420382  1
  O  O2  1  0.16739283  0.71747465  0.63579374  1
  O  O3  1  0.16740153  0.21747960  0.13579449  1
  O  O4  1  0.23321501  0.41564921  0.53828136  1
  O  O5  1  0.23322466  0.91564757  0.03826991  1
  O  O6  1  0.76677574  0.58435098  0.46172835  1
  O  O7  1  0.76678600  0.08434822  0.96171386  1
  O  O8  1  0.93736359  0.00608833  0.20061720  1
  O  O9  1  0.93734031  0.50608119  0.70061219  1
  O  O10  1  0.06266027  0.99391631  0.79938592  1
  O  O11  1  0.06263697  0.49390768  0.29938059  1
  O  O12  1  0.40590784  0.18891875  0.51338493  1
  O  O13  1  0.40591844  0.68891717  0.01339246  1
  O  O14  1  0.59408391  0.81108533  0.48661108  1
  O  O15  1  0.59409180  0.31108311  0.98661906  1
  O  O16  1  0.67012030  0.01851812  0.35976023  1
  O  O17  1  0.67012113  0.51852777  0.85977548  1
  O  O18  1  0.32987968  0.98147342  0.64022593  1
  O  O19  1  0.32988010  0.48148287  0.14024086  1
  O  O20  1  0.03280018  0.16481878  0.52885459  1
  O  O21  1  0.03280678  0.66481857  0.02884982  1
  O  O22  1  0.96719335  0.83518088  0.47115041  1
  O  O23  1  0.96719946  0.33518048  0.97114581  1
  O  O24  1  0.29154639  0.85766478  0.29672039  1
  O  O25  1  0.29155162  0.35765362  0.79672594  1
  O  O26  1  0.70844398  0.14235360  0.70327648  1
  O  O27  1  0.70845356  0.64233728  0.20328119  1
loop_
_geom_bond_atom_site_label_1
_geom_bond_atom_site_label_2
_geom_bond_distance
_geom_bond_site_symmetry_2
Mn0 O9 1.867172 1_555
Mn0 O11 1.867187 1_655
Mn0 O4 1.883535 1_655
Mn0 O6 1.883545 1_555
Mn0 O0 1.884380 1_555
Mn0 O2 1.884397 1_655
Mn1 O27 1.867444 1_555
Mn1 O25 1.867503 1_554
Mn1 O17 1.869204 1_554
Mn1 O19 1.869208 1_555
Mn1 O15 1.887251 1_554
Mn1 O13 1.887255 1_555
Mn2 O10 1.867172 1_544
Mn2 O8 1.867190 1_455
Mn2 O5 1.883538 1_545
Mn2 O7 1.883540 1_454
Mn2 O1 1.884381 1_444
Mn2 O3 1.884387 1_555
Mn3 O24 1.867463 1_545
Mn3 O26 1.867481 1_555
Mn3 O18 1.869200 1_545
Mn3 O16 1.869211 1_555
Mn3 O12 1.887227 1_555
Mn3 O14 1.887282 1_545
O0 P0 1.517325 1_555
O1 P1 1.517324 1_555
O2 P2 1.517323 1_555
O3 P3 1.517322 1_555
O4 P4 1.523425 1_555
O5 P5 1.523426 1_555
O6 P6 1.523423 1_555
O7 P7 1.523424 1_555
O8 P0 1.515235 1_555
O9 P1 1.515231 1_555
O10 P2 1.515233 1_555
O11 P3 1.515230 1_555
O12 P4 1.514799 1_555
O13 P5 1.514789 1_555
O14 P6 1.514785 1_555
O15 P7 1.514797 1_555
O16 P0 1.509929 1_555
O17 P1 1.509924 1_555
O18 P2 1.509927 1_555
O19 P3 1.509932 1_555
O20 P0 1.590839 1_455
O20 P4 1.595207 1_555
O21 P1 1.590844 1_454
O21 P5 1.595211 1_555
O22 P2 1.590843 1_655
O22 P6 1.595210 1_555
O23 P3 1.590840 1_656
O23 P7 1.595201 1_555
O24 P5 1.513447 1_555
O25 P4 1.513439 1_555
O26 P7 1.513444 1_555
O27 P6 1.513452 1_555
