# generated using pymatgen
data_Li5Mn2P2(CO7)2
_symmetry_space_group_name_H-M   'P 1'
_cell_length_a   6.43937500
_cell_length_b   9.57784300
_cell_length_c   10.10127093
_cell_angle_alpha   62.17437251
_cell_angle_beta   90.00000000
_cell_angle_gamma   90.00000000
_symmetry_Int_Tables_number   1
_chemical_formula_structural   Li5Mn2P2(CO7)2
_chemical_formula_sum   'Li10 Mn4 P4 C4 O28'
_cell_volume   550.96317408
_cell_formula_units_Z   2
loop_
 _symmetry_equiv_pos_site_id
 _symmetry_equiv_pos_as_xyz
  1  'x, y, z'
loop_
 _atom_site_type_symbol
 _atom_site_label
 _atom_site_symmetry_multiplicity
 _atom_site_fract_x
 _atom_site_fract_y
 _atom_site_fract_z
 _atom_site_occupancy
  Li  Li0  1  0.25000000  0.09201300  0.32382800  1
  Li  Li1  1  0.02709500  0.26193300  0.49721600  1
  Li  Li2  1  0.47290500  0.26193300  0.49721600  1
  Li  Li3  1  0.48084300  0.25536100  0.99025100  1
  Li  Li4  1  0.01915700  0.25536100  0.99025100  1
  Li  Li5  1  0.97290500  0.73806700  0.50278400  1
  Li  Li6  1  0.52709500  0.73806700  0.50278400  1
  Li  Li7  1  0.98084300  0.74463900  0.00974900  1
  Li  Li8  1  0.51915700  0.74463900  0.00974900  1
  Li  Li9  1  0.75000000  0.90798700  0.67617200  1
  Mn  Mn0  1  0.75000000  0.33704000  0.68088900  1
  Mn  Mn1  1  0.75000000  0.33775400  0.19039400  1
  Mn  Mn2  1  0.25000000  0.66296000  0.31911100  1
  Mn  Mn3  1  0.25000000  0.66224600  0.80960600  1
  P  P0  1  0.25000000  0.41513900  0.67875400  1
  P  P1  1  0.25000000  0.41617000  0.18223200  1
  P  P2  1  0.75000000  0.58486100  0.32124600  1
  P  P3  1  0.75000000  0.58383000  0.81776800  1
  C  C0  1  0.75000000  0.03962500  0.37795900  1
  C  C1  1  0.75000000  0.04044200  0.86981200  1
  C  C2  1  0.25000000  0.96037500  0.62204100  1
  C  C3  1  0.25000000  0.95955800  0.13018800  1
  O  O0  1  0.75000000  0.07702900  0.72899800  1
  O  O1  1  0.75000000  0.07926300  0.23864700  1
  O  O2  1  0.25000000  0.10647000  0.51587600  1
  O  O3  1  0.75000000  0.15181000  0.42006900  1
  O  O4  1  0.25000000  0.10142100  0.02620300  1
  O  O5  1  0.75000000  0.16146900  0.90013000  1
  O  O6  1  0.05936700  0.32342800  0.66768800  1
  O  O7  1  0.44063300  0.32342800  0.66768800  1
  O  O8  1  0.06363300  0.31328900  0.18013600  1
  O  O9  1  0.43636700  0.31328900  0.18013600  1
  O  O10  1  0.75000000  0.41256100  0.45278500  1
  O  O11  1  0.25000000  0.43040500  0.32953300  1
  O  O12  1  0.75000000  0.41638900  0.95247500  1
  O  O13  1  0.25000000  0.42709200  0.82734300  1
  O  O14  1  0.75000000  0.56959500  0.67046700  1
  O  O15  1  0.25000000  0.58743900  0.54721500  1
  O  O16  1  0.75000000  0.57290800  0.17265700  1
  O  O17  1  0.25000000  0.58361100  0.04752500  1
  O  O18  1  0.94063300  0.67657200  0.33231200  1
  O  O19  1  0.55936700  0.67657200  0.33231200  1
  O  O20  1  0.56363300  0.68671100  0.81986400  1
  O  O21  1  0.93636700  0.68671100  0.81986400  1
  O  O22  1  0.25000000  0.84819000  0.57993100  1
  O  O23  1  0.75000000  0.89353000  0.48412400  1
  O  O24  1  0.25000000  0.83853100  0.09987000  1
  O  O25  1  0.75000000  0.89857900  0.97379700  1
  O  O26  1  0.25000000  0.92297100  0.27100200  1
  O  O27  1  0.25000000  0.92073700  0.76135300  1
loop_
_geom_bond_atom_site_label_1
_geom_bond_atom_site_label_2
_geom_bond_distance
_geom_bond_site_symmetry_2
Li0 O26 1.926820 1_545
Li0 O2 2.008300 1_555
Li0 O8 2.273061 1_555
Li0 O9 2.273061 1_555
Li0 O22 2.550693 1_545
Li1 O2 2.012689 1_555
Li1 O6 2.074168 1_555
Li1 O10 2.205018 1_455
Li1 O11 2.231911 1_555
Li1 O3 2.381363 1_455
Li2 O2 2.012689 1_555
Li2 O7 2.074168 1_555
Li2 O10 2.205018 1_555
Li2 O11 2.231911 1_555
Li2 O3 2.381363 1_555
Li3 O4 2.003881 1_556
Li3 O12 2.231338 1_555
Li3 O9 2.249974 1_556
Li3 O13 2.257459 1_555
Li3 O5 2.325011 1_555
Li4 O4 2.003881 1_556
Li4 O12 2.231338 1_455
Li4 O8 2.249974 1_556
Li4 O13 2.257459 1_555
Li4 O5 2.325011 1_455
Li5 O23 2.012689 1_555
Li5 O18 2.074168 1_555
Li5 O15 2.205018 1_655
Li5 O14 2.231911 1_555
Li5 O22 2.381363 1_655
Li6 O23 2.012689 1_555
Li6 O19 2.074168 1_555
Li6 O15 2.205018 1_555
Li6 O14 2.231911 1_555
Li6 O22 2.381363 1_555
Li7 O25 2.003881 1_554
Li7 O17 2.231338 1_655
Li7 O21 2.249974 1_554
Li7 O16 2.257459 1_555
Li7 O24 2.325011 1_655
Li8 O25 2.003881 1_554
Li8 O17 2.231338 1_555
Li8 O20 2.249974 1_554
Li8 O16 2.257459 1_555
Li8 O24 2.325011 1_555
Li9 O0 1.926820 1_565
Li9 O23 2.008300 1_555
Li9 O21 2.273061 1_555
Li9 O20 2.273061 1_555
Li9 O3 2.550693 1_565
Mn0 O6 2.004892 1_655
Mn0 O7 2.004892 1_555
Mn0 O5 2.062910 1_555
Mn0 O10 2.067932 1_555
Mn0 O14 2.180223 1_555
Mn0 O0 2.303945 1_555
Mn1 O9 2.041347 1_555
Mn1 O8 2.041347 1_655
Mn1 O12 2.157133 1_554
Mn1 O3 2.167232 1_555
Mn1 O16 2.174417 1_555
Mn1 O1 2.289219 1_555
Mn2 O19 2.004892 1_555
Mn2 O18 2.004892 1_455
Mn2 O24 2.062910 1_555
Mn2 O15 2.067932 1_555
Mn2 O11 2.180223 1_555
Mn2 O26 2.303945 1_555
Mn3 O20 2.041347 1_555
Mn3 O21 2.041347 1_455
Mn3 O17 2.157133 1_556
Mn3 O22 2.167232 1_555
Mn3 O13 2.174417 1_555
Mn3 O27 2.289219 1_555
C0 O1 1.275016 1_555
C0 O23 1.306569 1_545
C0 O3 1.327460 1_555
C1 O25 1.271652 1_545
C1 O0 1.296414 1_555
C1 O5 1.329998 1_555
C2 O27 1.275016 1_555
C2 O2 1.306569 1_565
C2 O22 1.327460 1_555
C3 O4 1.271652 1_565
C3 O26 1.296414 1_555
C3 O24 1.329998 1_555
O6 P0 1.543578 1_555
O7 P0 1.543578 1_555
O8 P1 1.559200 1_555
O9 P1 1.559200 1_555
O10 P2 1.562623 1_555
O11 P1 1.556247 1_555
O12 P3 1.544745 1_555
O13 P0 1.557671 1_555
O14 P3 1.556247 1_555
O15 P0 1.562623 1_555
O16 P2 1.557671 1_555
O17 P1 1.544745 1_555
O18 P2 1.543578 1_555
O19 P2 1.543578 1_555
O20 P3 1.559200 1_555
O21 P3 1.559200 1_555
