# generated using pymatgen
data_SrCrO3
_symmetry_space_group_name_H-M   'P 1'
_cell_length_a   5.54373900
_cell_length_b   5.55191544
_cell_length_c   32.25815788
_cell_angle_alpha   90.07578100
_cell_angle_beta   90.00958596
_cell_angle_gamma   119.89870502
_symmetry_Int_Tables_number   1
_chemical_formula_structural   SrCrO3
_chemical_formula_sum   'Sr14 Cr14 O42'
_cell_volume   860.71153433
_cell_formula_units_Z   14
loop_
 _symmetry_equiv_pos_site_id
 _symmetry_equiv_pos_as_xyz
  1  'x, y, z'
loop_
 _atom_site_type_symbol
 _atom_site_label
 _atom_site_symmetry_multiplicity
 _atom_site_fract_x
 _atom_site_fract_y
 _atom_site_fract_z
 _atom_site_occupancy
  Sr  Sr0  1  0.66652800  0.33291900  0.03983500  1
  Sr  Sr1  1  0.66638500  0.33338600  0.17675400  1
  Sr  Sr2  1  0.66326300  0.33244100  0.75000400  1
  Sr  Sr3  1  0.00077500  0.00273400  0.10566900  1
  Sr  Sr4  1  0.00419300  0.00531700  0.39410900  1
  Sr  Sr5  1  0.00553100  0.00286200  0.60574400  1
  Sr  Sr6  1  0.66758800  0.33453800  0.32319900  1
  Sr  Sr7  1  0.66791400  0.33401700  0.45979700  1
  Sr  Sr8  1  0.00493000  0.00252700  0.89446500  1
  Sr  Sr9  1  0.33148600  0.66263500  0.25006000  1
  Sr  Sr10  1  0.33295800  0.66653700  0.54013800  1
  Sr  Sr11  1  0.33501600  0.66736100  0.67659700  1
  Sr  Sr12  1  0.33436800  0.66800500  0.82354000  1
  Sr  Sr13  1  0.33280400  0.66726700  0.96018400  1
  Cr  Cr0  1  0.67669000  0.33788700  0.56587200  1
  Cr  Cr1  1  0.67583000  0.33886700  0.64538100  1
  Cr  Cr2  1  0.00361600  0.00500600  0.00007100  1
  Cr  Cr3  1  0.00162000  0.00333200  0.21071500  1
  Cr  Cr4  1  0.00215500  0.00381200  0.28936100  1
  Cr  Cr5  1  0.00535500  0.00666100  0.49992600  1
  Cr  Cr6  1  0.00467800  0.00457100  0.71066300  1
  Cr  Cr7  1  0.00384600  0.00471200  0.78939500  1
  Cr  Cr8  1  0.67525300  0.33886300  0.85443100  1
  Cr  Cr9  1  0.67634200  0.33695400  0.93392800  1
  Cr  Cr10  1  0.33480000  0.67443800  0.06600300  1
  Cr  Cr11  1  0.33528500  0.67263300  0.14559100  1
  Cr  Cr12  1  0.33825300  0.67500000  0.35461100  1
  Cr  Cr13  1  0.33904700  0.67735900  0.43413000  1
  O  O0  1  0.84725800  0.69421700  0.25002700  1
  O  O1  1  0.82715000  0.66345200  0.67734000  1
  O  O2  1  0.82467300  0.66100500  0.82261100  1
  O  O3  1  0.82729900  0.66701000  0.53442800  1
  O  O4  1  0.83034400  0.66691400  0.96547600  1
  O  O5  1  0.51392400  0.48362700  0.60620000  1
  O  O6  1  0.51372000  0.48421000  0.89386900  1
  O  O7  1  0.32665200  0.16032900  0.82152700  1
  O  O8  1  0.30810000  0.15128300  0.25020000  1
  O  O9  1  0.31693400  0.15785600  0.53435400  1
  O  O10  1  0.98495100  0.49232400  0.60570200  1
  O  O11  1  0.98470700  0.49269900  0.89397100  1
  O  O12  1  0.31915200  0.15840900  0.96573300  1
  O  O13  1  0.32816300  0.16192100  0.67859800  1
  O  O14  1  0.51513500  0.03082400  0.60591100  1
  O  O15  1  0.51523800  0.03087300  0.89395300  1
  O  O16  1  0.15119000  0.84497500  0.75027700  1
  O  O17  1  0.82429700  0.16319700  0.53446600  1
  O  O18  1  0.82690100  0.16373800  0.96532500  1
  O  O19  1  0.16283800  0.82704100  0.17758100  1
  O  O20  1  0.16319500  0.82691300  0.32268800  1
  O  O21  1  0.82716200  0.16164700  0.67737500  1
  O  O22  1  0.82520900  0.16029500  0.82208500  1
  O  O23  1  0.16439200  0.82958600  0.03474700  1
  O  O24  1  0.16240800  0.82479200  0.46538800  1
  O  O25  1  0.84396400  0.15189200  0.25001700  1
  O  O26  1  0.49029700  0.98033500  0.10556200  1
  O  O27  1  0.49255300  0.98350700  0.39448900  1
  O  O28  1  0.69514500  0.84679000  0.74984800  1
  O  O29  1  0.67115700  0.83316500  0.03404800  1
  O  O30  1  0.66738200  0.82944400  0.46579400  1
  O  O31  1  0.02780400  0.51276500  0.10663200  1
  O  O32  1  0.03085200  0.51428900  0.39369400  1
  O  O33  1  0.66391400  0.82681800  0.17739300  1
  O  O34  1  0.66480300  0.82699400  0.32252900  1
  O  O35  1  0.48431200  0.51319700  0.10620500  1
  O  O36  1  0.48592700  0.51463900  0.39383200  1
  O  O37  1  0.16267900  0.32817800  0.03400900  1
  O  O38  1  0.15880600  0.32135000  0.46599800  1
  O  O39  1  0.16443700  0.32755000  0.17886100  1
  O  O40  1  0.16470800  0.32755600  0.32138900  1
  O  O41  1  0.15425800  0.31025000  0.74968900  1
loop_
_geom_bond_atom_site_label_1
_geom_bond_atom_site_label_2
_geom_bond_distance
_geom_bond_site_symmetry_2
Cr0 O17 1.850809 1_555
Cr0 O3 1.883899 1_555
Cr0 O10 1.960095 1_555
Cr0 O14 1.964860 1_555
Cr0 O5 1.971483 1_555
Cr0 O9 2.004908 1_555
Cr1 O1 1.871287 1_555
Cr1 O21 1.887429 1_555
Cr1 O5 1.941771 1_555
Cr1 O14 1.953095 1_555
Cr1 O10 1.961882 1_555
Cr1 O13 1.985916 1_555
Cr2 O12 1.878855 1_554
Cr2 O37 1.900665 1_555
Cr2 O29 1.938775 1_445
Cr2 O18 1.963568 1_454
Cr2 O23 1.965223 1_545
Cr2 O4 1.971804 1_444
Cr3 O39 1.869795 1_555
Cr3 O25 1.941076 1_455
Cr3 O19 1.941340 1_545
Cr3 O33 1.946338 1_445
Cr3 O8 1.946532 1_555
Cr3 O0 1.956462 1_445
Cr4 O40 1.868196 1_555
Cr4 O8 1.939564 1_555
Cr4 O25 1.943427 1_455
Cr4 O34 1.944022 1_445
Cr4 O20 1.947811 1_545
Cr4 O0 1.955549 1_445
Cr5 O9 1.863605 1_555
Cr5 O38 1.870192 1_555
Cr5 O30 1.962006 1_445
Cr5 O17 1.967658 1_455
Cr5 O24 1.972982 1_545
Cr5 O3 1.979702 1_445
Cr6 O13 1.868215 1_555
Cr6 O21 1.933840 1_455
Cr6 O41 1.934852 1_555
Cr6 O16 1.948822 1_545
Cr6 O28 1.953148 1_445
Cr6 O1 1.961349 1_445
Cr7 O7 1.865192 1_555
Cr7 O22 1.920833 1_455
Cr7 O16 1.940521 1_545
Cr7 O41 1.951750 1_555
Cr7 O28 1.955852 1_445
Cr7 O2 1.972867 1_445
Cr8 O2 1.861906 1_555
Cr8 O22 1.892584 1_555
Cr8 O6 1.946703 1_555
Cr8 O15 1.957069 1_555
Cr8 O11 1.958327 1_555
Cr8 O7 1.982602 1_555
Cr9 O18 1.857358 1_555
Cr9 O4 1.885745 1_555
Cr9 O15 1.956789 1_555
Cr9 O11 1.965059 1_555
Cr9 O6 1.971855 1_555
Cr9 O12 2.000700 1_555
Cr10 O23 1.861241 1_555
Cr10 O29 1.918599 1_555
Cr10 O26 1.946840 1_555
Cr10 O37 1.958823 1_555
Cr10 O31 1.975042 1_555
Cr10 O35 1.978031 1_555
Cr11 O19 1.878497 1_555
Cr11 O33 1.883233 1_555
Cr11 O31 1.939292 1_555
Cr11 O35 1.951088 1_555
Cr11 O26 1.966442 1_555
Cr11 O39 1.978939 1_555
Cr12 O20 1.879246 1_555
Cr12 O34 1.881573 1_555
Cr12 O32 1.943591 1_555
Cr12 O36 1.947526 1_555
Cr12 O27 1.963000 1_555
Cr12 O40 1.984716 1_555
Cr13 O24 1.855497 1_555
Cr13 O30 1.879970 1_555
Cr13 O27 1.952560 1_555
Cr13 O32 1.973392 1_555
Cr13 O36 1.974746 1_555
Cr13 O38 1.999672 1_555
O0 Sr9 2.776000 1_655
O0 Sr9 2.776069 1_555
O0 Sr6 2.929427 1_555
O0 Sr1 2.930803 1_555
O1 Sr11 2.739246 1_555
O1 Sr11 2.804828 1_655
O1 Sr5 2.831495 1_665
O1 Sr2 2.836314 1_555
O2 Sr12 2.737871 1_555
O2 Sr12 2.806601 1_655
O2 Sr2 2.823954 1_555
O2 Sr8 2.839892 1_665
O3 Sr10 2.745406 1_555
O3 Sr5 2.810100 1_665
O3 Sr10 2.810563 1_655
O3 Sr7 2.890233 1_555
O4 Sr13 2.764457 1_555
O4 Sr13 2.789787 1_655
O4 Sr8 2.805353 1_665
O4 Sr0 2.889733 1_556
O5 Sr5 2.751034 1_555
O5 Sr10 2.756755 1_555
O5 Sr5 2.811701 1_665
O5 Sr11 2.860839 1_555
O6 Sr8 2.754645 1_555
O6 Sr13 2.761548 1_555
O6 Sr8 2.807906 1_665
O6 Sr12 2.862447 1_555
O7 Sr12 2.755763 1_545
O7 Sr12 2.798165 1_555
O7 Sr8 2.816654 1_555
O7 Sr2 2.819240 1_555
O8 Sr9 2.776644 1_555
O8 Sr9 2.779828 1_545
O8 Sr6 2.919358 1_555
O8 Sr1 2.930274 1_555
O9 Sr5 2.747672 1_555
O9 Sr10 2.779622 1_545
O9 Sr10 2.786941 1_555
O9 Sr7 2.938953 1_555
O10 Sr10 2.697619 1_655
O10 Sr5 2.776086 1_655
O10 Sr5 2.779352 1_665
O10 Sr11 2.837810 1_655
O11 Sr13 2.711822 1_655
O11 Sr8 2.776364 1_665
O11 Sr8 2.779044 1_655
O11 Sr12 2.827210 1_655
O12 Sr8 2.749393 1_555
O12 Sr13 2.770838 1_545
O12 Sr13 2.794163 1_555
O12 Sr0 2.914359 1_556
O13 Sr11 2.765558 1_545
O13 Sr11 2.788251 1_555
O13 Sr2 2.809374 1_555
O13 Sr5 2.814337 1_555
O14 Sr10 2.750222 1_545
O14 Sr5 2.751026 1_555
O14 Sr5 2.799254 1_655
O14 Sr11 2.876198 1_545
O15 Sr8 2.754003 1_555
O15 Sr13 2.763941 1_545
O15 Sr8 2.796548 1_655
O15 Sr12 2.862965 1_545
O16 Sr2 2.779220 1_565
O16 Sr2 2.782155 1_455
O16 Sr12 2.929492 1_555
O16 Sr11 2.942186 1_555
O17 Sr10 2.751348 1_545
O17 Sr10 2.817252 1_655
O17 Sr5 2.825752 1_655
O17 Sr7 2.877116 1_555
O18 Sr13 2.756747 1_545
O18 Sr8 2.806433 1_655
O18 Sr13 2.809514 1_655
O18 Sr0 2.876982 1_556
O19 Sr1 2.750780 1_455
O19 Sr1 2.805865 1_565
O19 Sr3 2.831758 1_565
O19 Sr9 2.833614 1_555
O20 Sr6 2.744865 1_455
O20 Sr6 2.811643 1_565
O20 Sr4 2.816218 1_565
O20 Sr9 2.834533 1_555
O21 Sr11 2.740582 1_545
O21 Sr11 2.816006 1_655
O21 Sr5 2.821102 1_655
O21 Sr2 2.840348 1_555
O22 Sr12 2.731791 1_545
O22 Sr12 2.825343 1_655
O22 Sr2 2.826060 1_555
O22 Sr8 2.843598 1_655
O23 Sr0 2.768079 1_455
O23 Sr0 2.797945 1_565
O23 Sr3 2.800908 1_565
O23 Sr13 2.881477 1_554
O24 Sr7 2.742933 1_455
O24 Sr4 2.818255 1_565
O24 Sr7 2.825206 1_565
O24 Sr10 2.883276 1_555
O25 Sr9 2.775770 1_655
O25 Sr9 2.785028 1_545
O25 Sr6 2.922365 1_555
O25 Sr1 2.926476 1_555
O26 Sr0 2.717871 1_565
O26 Sr3 2.770069 1_665
O26 Sr3 2.777866 1_565
O26 Sr1 2.854603 1_565
O27 Sr7 2.696796 1_565
O27 Sr4 2.769714 1_565
O27 Sr4 2.778054 1_665
O27 Sr6 2.855801 1_565
O28 Sr2 2.771770 1_555
O28 Sr2 2.788606 1_565
O28 Sr11 2.927658 1_555
O28 Sr12 2.943647 1_555
O29 Sr0 2.771165 1_555
O29 Sr0 2.793471 1_565
O29 Sr3 2.800171 1_665
O29 Sr13 2.883473 1_554
O30 Sr7 2.758576 1_555
O30 Sr7 2.806808 1_565
O30 Sr4 2.824351 1_665
O30 Sr10 2.888271 1_555
O31 Sr3 2.760149 1_555
O31 Sr0 2.765937 1_455
O31 Sr3 2.798187 1_565
O31 Sr1 2.853269 1_455
O32 Sr4 2.755132 1_555
O32 Sr7 2.756166 1_455
O32 Sr4 2.802760 1_565
O32 Sr6 2.865593 1_455
O33 Sr1 2.746397 1_555
O33 Sr1 2.805723 1_565
O33 Sr3 2.825521 1_665
O33 Sr9 2.838020 1_555
O34 Sr6 2.741916 1_555
O34 Sr6 2.810232 1_565
O34 Sr4 2.826181 1_665
O34 Sr9 2.832660 1_555
O35 Sr0 2.758438 1_555
O35 Sr3 2.764766 1_555
O35 Sr3 2.797679 1_665
O35 Sr1 2.864330 1_555
O36 Sr7 2.750454 1_555
O36 Sr4 2.756752 1_555
O36 Sr4 2.805915 1_665
O36 Sr6 2.864295 1_555
O37 Sr0 2.770158 1_455
O37 Sr0 2.786491 1_555
O37 Sr3 2.794428 1_555
O37 Sr13 2.889207 1_554
O38 Sr7 2.764327 1_455
O38 Sr4 2.771338 1_555
O38 Sr7 2.795180 1_555
O38 Sr10 2.909854 1_555
O39 Sr1 2.767508 1_555
O39 Sr1 2.778184 1_455
O39 Sr9 2.804291 1_555
O39 Sr3 2.829598 1_555
O40 Sr6 2.769322 1_555
O40 Sr6 2.776052 1_455
O40 Sr9 2.811991 1_555
O40 Sr4 2.814258 1_555
O41 Sr2 2.762460 1_555
O41 Sr2 2.785429 1_455
O41 Sr11 2.920072 1_555
O41 Sr12 2.937167 1_555
