# generated using pymatgen
data_Li3Mn(PO4)2
_symmetry_space_group_name_H-M   'P 1'
_cell_length_a   8.55296900
_cell_length_b   8.66147758
_cell_length_c   9.37119226
_cell_angle_alpha   87.10529539
_cell_angle_beta   86.92760181
_cell_angle_gamma   69.37169136
_symmetry_Int_Tables_number   1
_chemical_formula_structural   Li3Mn(PO4)2
_chemical_formula_sum   'Li12 Mn4 P8 O32'
_cell_volume   648.41505365
_cell_formula_units_Z   4
loop_
 _symmetry_equiv_pos_site_id
 _symmetry_equiv_pos_as_xyz
  1  'x, y, z'
loop_
 _atom_site_type_symbol
 _atom_site_label
 _atom_site_symmetry_multiplicity
 _atom_site_fract_x
 _atom_site_fract_y
 _atom_site_fract_z
 _atom_site_occupancy
  Li  Li0  1  0.14743100  0.38514000  0.20663100  1
  Li  Li1  1  0.37862800  0.12826000  0.70148000  1
  Li  Li2  1  0.83944800  0.04131000  0.53928900  1
  Li  Li3  1  0.89065500  0.06259600  0.22781800  1
  Li  Li4  1  0.39104000  0.59811000  0.24004600  1
  Li  Li5  1  0.59463800  0.43094500  0.75234300  1
  Li  Li6  1  0.10531700  0.88912800  0.76947300  1
  Li  Li7  1  0.16803900  0.95772600  0.46131900  1
  Li  Li8  1  0.95396400  0.16164400  0.96503300  1
  Li  Li9  1  0.59371300  0.86633700  0.30297500  1
  Li  Li10  1  0.85382800  0.60847600  0.77443800  1
  Li  Li11  1  0.91580300  0.70982800  0.09873500  1
  Mn  Mn0  1  0.50452100  0.24495300  0.09445100  1
  Mn  Mn1  1  0.23255000  0.50269900  0.60355400  1
  Mn  Mn2  1  0.76729700  0.49903800  0.39454200  1
  Mn  Mn3  1  0.49354100  0.77144700  0.90208600  1
  P  P0  1  0.28604100  0.01235800  0.08540200  1
  P  P1  1  0.00413600  0.29187000  0.58638900  1
  P  P2  1  0.56436600  0.24964700  0.42413800  1
  P  P3  1  0.24184900  0.57198400  0.92495000  1
  P  P4  1  0.74738200  0.44406700  0.07229400  1
  P  P5  1  0.44125700  0.74863900  0.57134100  1
  P  P6  1  0.99912300  0.70874300  0.40907000  1
  P  P7  1  0.72803300  0.98204500  0.92890600  1
  O  O0  1  0.10029900  0.04000400  0.11307600  1
  O  O1  1  0.02663200  0.10728400  0.59913900  1
  O  O2  1  0.31632900  0.16952500  0.13577900  1
  O  O3  1  0.16721200  0.30971300  0.64158600  1
  O  O4  1  0.62479900  0.06182600  0.43717300  1
  O  O5  1  0.05093200  0.63222900  0.91921700  1
  O  O6  1  0.75321000  0.93887200  0.09096600  1
  O  O7  1  0.99761000  0.65327100  0.57233100  1
  O  O8  1  0.15769200  0.59542200  0.33271600  1
  O  O9  1  0.57150100  0.14559700  0.91025200  1
  O  O10  1  0.31211700  0.48537400  0.06780300  1
  O  O11  1  0.46347200  0.33501600  0.55825200  1
  O  O12  1  0.46227800  0.32373700  0.29030100  1
  O  O13  1  0.33366700  0.45749500  0.80245000  1
  O  O14  1  0.73098100  0.28871900  0.41429600  1
  O  O15  1  0.28319800  0.73538400  0.90564600  1
  O  O16  1  0.72746200  0.26856900  0.08451600  1
  O  O17  1  0.27157000  0.71256100  0.58537300  1
  O  O18  1  0.65553500  0.54697200  0.19881300  1
  O  O19  1  0.54958700  0.67108600  0.69827600  1
  O  O20  1  0.53601000  0.66748100  0.43313700  1
  O  O21  1  0.65807200  0.53404300  0.93474800  1
  O  O22  1  0.40617200  0.85693900  0.16020700  1
  O  O23  1  0.84789800  0.40177500  0.66797100  1
  O  O24  1  0.99785700  0.35304700  0.42342200  1
  O  O25  1  0.33398400  0.00052700  0.91839000  1
  O  O26  1  0.93530100  0.40679800  0.06578200  1
  O  O27  1  0.38151200  0.93674700  0.55977100  1
  O  O28  1  0.84076500  0.68944900  0.34242100  1
  O  O29  1  0.68693800  0.84146100  0.85710600  1
  O  O30  1  0.98058200  0.89262600  0.39352400  1
  O  O31  1  0.88040400  0.00608200  0.85009000  1
loop_
_geom_bond_atom_site_label_1
_geom_bond_atom_site_label_2
_geom_bond_distance
_geom_bond_site_symmetry_2
Li0 O2 2.033938 1_555
Li0 O10 2.231914 1_555
Li0 O26 2.249691 1_455
Li0 O8 2.249941 1_555
Li0 O24 2.399201 1_455
Li1 O3 2.017943 1_555
Li1 O27 2.169300 1_545
Li1 O25 2.342869 1_555
Li1 O11 2.470553 1_555
Li2 O30 1.971578 1_545
Li2 O1 1.994361 1_655
Li2 O4 2.063756 1_555
Li2 O14 2.299348 1_555
Li3 O0 1.994235 1_655
Li3 O30 2.066300 1_545
Li3 O16 2.266887 1_555
Li3 O6 2.315843 1_545
Li4 O8 2.140772 1_555
Li4 O18 2.163489 1_555
Li4 O10 2.180584 1_555
Li4 O12 2.266745 1_555
Li4 O22 2.372137 1_555
Li4 O20 2.459261 1_555
Li5 O19 2.020213 1_555
Li5 O21 2.146769 1_555
Li5 O13 2.189160 1_555
Li5 O23 2.198192 1_555
Li5 O11 2.507064 1_555
Li6 O31 1.961093 1_465
Li6 O15 2.079755 1_555
Li6 O1 2.342176 1_565
Li6 O17 2.410083 1_555
Li7 O1 1.925227 1_565
Li7 O30 2.018554 1_455
Li7 O27 2.036604 1_555
Li7 O17 2.276162 1_555
Li8 O0 1.926294 1_656
Li8 O31 2.046490 1_555
Li8 O16 2.114821 1_556
Li8 O26 2.318015 1_556
Li9 O28 2.166641 1_555
Li9 O22 2.168545 1_555
Li9 O20 2.240594 1_555
Li9 O4 2.255519 1_565
Li9 O6 2.527894 1_555
Li10 O23 2.110248 1_555
Li10 O29 2.172483 1_555
Li10 O5 2.289730 1_655
Li10 O7 2.293976 1_555
Li10 O21 2.422583 1_555
Li10 O19 2.596236 1_555
Li11 O6 1.981733 1_555
Li11 O5 1.994010 1_654
Li11 O28 2.353725 1_555
Li11 O26 2.603861 1_555
Mn0 O9 1.935219 1_554
Mn0 O2 1.953511 1_555
Mn0 O12 1.961220 1_555
Mn0 O16 1.985017 1_555
Mn0 O10 2.164204 1_555
Mn1 O3 1.951933 1_555
Mn1 O17 1.958204 1_555
Mn1 O7 2.000566 1_455
Mn1 O11 2.035123 1_555
Mn1 O13 2.058120 1_555
Mn2 O14 1.951334 1_555
Mn2 O24 1.956155 1_555
Mn2 O28 1.992325 1_555
Mn2 O20 2.028707 1_555
Mn2 O18 2.069263 1_555
Mn3 O15 1.929704 1_555
Mn3 O29 1.971742 1_555
Mn3 O25 1.980656 1_565
Mn3 O21 2.060568 1_555
Mn3 O19 2.099820 1_555
Mn3 O22 2.560287 1_556
O0 P0 1.530509 1_555
O1 P1 1.540726 1_555
O2 P0 1.571499 1_555
O3 P1 1.572948 1_555
O4 P2 1.524075 1_555
O5 P3 1.532239 1_555
O6 P7 1.553576 1_554
O7 P6 1.581069 1_555
O8 P6 1.530914 1_455
O9 P7 1.579076 1_545
O10 P3 1.543769 1_554
O11 P2 1.548867 1_555
O12 P2 1.545494 1_555
O13 P3 1.545166 1_555
O14 P2 1.573652 1_555
O15 P3 1.575052 1_555
O16 P4 1.586055 1_555
O17 P5 1.586266 1_555
O18 P4 1.526700 1_555
O19 P5 1.524332 1_555
O20 P5 1.551235 1_555
O21 P4 1.561062 1_556
O22 P0 1.538372 1_565
O23 P1 1.531030 1_655
O24 P1 1.588393 1_655
O25 P0 1.595614 1_556
O26 P4 1.522212 1_555
O27 P5 1.526085 1_555
O28 P6 1.585314 1_555
O29 P7 1.571193 1_555
O30 P6 1.544065 1_555
O31 P7 1.536143 1_545
