# generated using pymatgen
data_ErAlO3
_symmetry_space_group_name_H-M   'P 1'
_cell_length_a   3.44575220
_cell_length_b   3.44575220
_cell_length_c   11.44968200
_cell_angle_alpha   90.00000000
_cell_angle_beta   90.00000000
_cell_angle_gamma   120.00000387
_symmetry_Int_Tables_number   1
_chemical_formula_structural   ErAlO3
_chemical_formula_sum   'Er2 Al2 O6'
_cell_volume   117.73135007
_cell_formula_units_Z   2
loop_
 _symmetry_equiv_pos_site_id
 _symmetry_equiv_pos_as_xyz
  1  'x, y, z'
loop_
 _atom_site_type_symbol
 _atom_site_label
 _atom_site_symmetry_multiplicity
 _atom_site_fract_x
 _atom_site_fract_y
 _atom_site_fract_z
 _atom_site_occupancy
  Er  Er0  1  0.00000000  0.00000000  0.00000000  1
  Er  Er1  1  0.00000000  0.00000000  0.50000000  1
  Al  Al0  1  0.33333300  0.66666700  0.25000000  1
  Al  Al1  1  0.66666700  0.33333300  0.75000000  1
  O  O0  1  0.33333300  0.66666700  0.09108700  1
  O  O1  1  0.33333300  0.66666700  0.40891300  1
  O  O2  1  0.00000000  0.00000000  0.25000000  1
  O  O3  1  0.00000000  0.00000000  0.75000000  1
  O  O4  1  0.66666700  0.33333300  0.90891300  1
  O  O5  1  0.66666700  0.33333300  0.59108700  1
loop_
_geom_bond_atom_site_label_1
_geom_bond_atom_site_label_2
_geom_bond_distance
_geom_bond_site_symmetry_2
Er0 O0 2.246198 1_545
Er0 O4 2.246198 1_454
Er0 O0 2.246200 1_445
Er0 O0 2.246200 1_555
Er0 O4 2.246200 1_444
Er0 O4 2.246200 1_554
Er1 O1 2.246198 1_545
Er1 O5 2.246198 1_455
Er1 O1 2.246200 1_555
Er1 O1 2.246200 1_445
Er1 O5 2.246200 1_555
Er1 O5 2.246200 1_445
Al0 O0 1.819503 1_555
Al0 O1 1.819503 1_555
Al0 O2 1.989404 1_565
Al0 O2 1.989407 1_555
Al0 O2 1.989407 1_665
Al1 O4 1.819503 1_555
Al1 O5 1.819503 1_555
Al1 O3 1.989404 1_655
Al1 O3 1.989407 1_665
Al1 O3 1.989407 1_555
