# generated using pymatgen
data_Li4Fe2(PO4)3
_symmetry_space_group_name_H-M   'P 1'
_cell_length_a   8.79780100
_cell_length_b   8.96366200
_cell_length_c   12.22773500
_cell_angle_alpha   90.00000000
_cell_angle_beta   90.00000000
_cell_angle_gamma   90.00000000
_symmetry_Int_Tables_number   1
_chemical_formula_structural   Li4Fe2(PO4)3
_chemical_formula_sum   'Li16 Fe8 P12 O48'
_cell_volume   964.28547336
_cell_formula_units_Z   4
loop_
 _symmetry_equiv_pos_site_id
 _symmetry_equiv_pos_as_xyz
  1  'x, y, z'
loop_
 _atom_site_type_symbol
 _atom_site_label
 _atom_site_symmetry_multiplicity
 _atom_site_fract_x
 _atom_site_fract_y
 _atom_site_fract_z
 _atom_site_occupancy
  Li  Li0  1  0.42548400  0.05093900  0.71313100  1
  Li  Li1  1  0.07451600  0.05093900  0.28686900  1
  Li  Li2  1  0.76082600  0.20299200  0.81993100  1
  Li  Li3  1  0.73917400  0.20299200  0.18006900  1
  Li  Li4  1  0.26082600  0.29700800  0.68006900  1
  Li  Li5  1  0.23917400  0.29700800  0.31993100  1
  Li  Li6  1  0.92548400  0.44906100  0.78686900  1
  Li  Li7  1  0.57451600  0.44906100  0.21313100  1
  Li  Li8  1  0.42548400  0.55093900  0.78686900  1
  Li  Li9  1  0.07451600  0.55093900  0.21313100  1
  Li  Li10  1  0.76082600  0.70299200  0.68006900  1
  Li  Li11  1  0.73917400  0.70299200  0.31993100  1
  Li  Li12  1  0.26082600  0.79700800  0.81993100  1
  Li  Li13  1  0.23917400  0.79700800  0.18006900  1
  Li  Li14  1  0.92548400  0.94906100  0.71313100  1
  Li  Li15  1  0.57451600  0.94906100  0.28686900  1
  Fe  Fe0  1  0.04655300  0.25280100  0.10404600  1
  Fe  Fe1  1  0.45344700  0.25280100  0.89595400  1
  Fe  Fe2  1  0.95344700  0.24719900  0.60404600  1
  Fe  Fe3  1  0.54655300  0.24719900  0.39595400  1
  Fe  Fe4  1  0.45344700  0.75280100  0.60404600  1
  Fe  Fe5  1  0.04655300  0.75280100  0.39595400  1
  Fe  Fe6  1  0.95344700  0.74719900  0.89595400  1
  Fe  Fe7  1  0.54655300  0.74719900  0.10404600  1
  P  P0  1  0.25000000  0.05246500  0.50000000  1
  P  P1  1  0.10445300  0.10460500  0.84815600  1
  P  P2  1  0.39554700  0.10460500  0.15184400  1
  P  P3  1  0.60445300  0.39539500  0.65184400  1
  P  P4  1  0.89554700  0.39539500  0.34815600  1
  P  P5  1  0.75000000  0.44753500  0.00000000  1
  P  P6  1  0.25000000  0.55246500  0.00000000  1
  P  P7  1  0.10445300  0.60460500  0.65184400  1
  P  P8  1  0.39554700  0.60460500  0.34815600  1
  P  P9  1  0.60445300  0.89539500  0.84815600  1
  P  P10  1  0.89554700  0.89539500  0.15184400  1
  P  P11  1  0.75000000  0.94753500  0.50000000  1
  O  O0  1  0.85678200  0.04253200  0.57299600  1
  O  O1  1  0.64321800  0.04253200  0.42700400  1
  O  O2  1  0.59151200  0.06690200  0.82939900  1
  O  O3  1  0.90848800  0.06690200  0.17060100  1
  O  O4  1  0.16139600  0.15549200  0.57948500  1
  O  O5  1  0.33860400  0.15549200  0.42051500  1
  O  O6  1  0.26451000  0.15624600  0.80853400  1
  O  O7  1  0.23549000  0.15624600  0.19146600  1
  O  O8  1  0.07841700  0.15069500  0.96632200  1
  O  O9  1  0.42158300  0.15069500  0.03367800  1
  O  O10  1  0.97520500  0.17382700  0.77499700  1
  O  O11  1  0.52479500  0.17382700  0.22500300  1
  O  O12  1  0.47520500  0.32617300  0.72500300  1
  O  O13  1  0.02479500  0.32617300  0.27499700  1
  O  O14  1  0.57841700  0.34930500  0.53367800  1
  O  O15  1  0.92158300  0.34930500  0.46632200  1
  O  O16  1  0.76451000  0.34375400  0.69146600  1
  O  O17  1  0.73549000  0.34375400  0.30853400  1
  O  O18  1  0.66139600  0.34450800  0.92051500  1
  O  O19  1  0.83860400  0.34450800  0.07948500  1
  O  O20  1  0.09151200  0.43309800  0.67060100  1
  O  O21  1  0.40848800  0.43309800  0.32939900  1
  O  O22  1  0.35678200  0.45746800  0.92700400  1
  O  O23  1  0.14321800  0.45746800  0.07299600  1
  O  O24  1  0.64321800  0.54253200  0.07299600  1
  O  O25  1  0.85678200  0.54253200  0.92700400  1
  O  O26  1  0.59151200  0.56690200  0.67060100  1
  O  O27  1  0.90848800  0.56690200  0.32939900  1
  O  O28  1  0.16139600  0.65549200  0.92051500  1
  O  O29  1  0.33860400  0.65549200  0.07948500  1
  O  O30  1  0.26451000  0.65624600  0.69146600  1
  O  O31  1  0.23549000  0.65624600  0.30853400  1
  O  O32  1  0.07841700  0.65069500  0.53367800  1
  O  O33  1  0.42158300  0.65069500  0.46632200  1
  O  O34  1  0.97520500  0.67382700  0.72500300  1
  O  O35  1  0.52479500  0.67382700  0.27499700  1
  O  O36  1  0.47520500  0.82617300  0.77499700  1
  O  O37  1  0.02479500  0.82617300  0.22500300  1
  O  O38  1  0.57841700  0.84930500  0.96632200  1
  O  O39  1  0.92158300  0.84930500  0.03367800  1
  O  O40  1  0.76451000  0.84375400  0.80853400  1
  O  O41  1  0.73549000  0.84375400  0.19146600  1
  O  O42  1  0.66139600  0.84450800  0.57948500  1
  O  O43  1  0.83860400  0.84450800  0.42051500  1
  O  O44  1  0.09151200  0.93309800  0.82939900  1
  O  O45  1  0.40848800  0.93309800  0.17060100  1
  O  O46  1  0.35678200  0.95746800  0.57299600  1
  O  O47  1  0.14321800  0.95746800  0.42700400  1
loop_
_geom_bond_atom_site_label_1
_geom_bond_atom_site_label_2
_geom_bond_distance
_geom_bond_site_symmetry_2
Li0 O46 2.000877 1_545
Li0 O2 2.043350 1_555
Li0 O6 2.063384 1_555
Li0 O36 2.196073 1_545
Li0 O12 2.509787 1_555
Li1 O47 2.000877 1_545
Li1 O3 2.043350 1_455
Li1 O7 2.063384 1_555
Li1 O37 2.196073 1_545
Li1 O13 2.509787 1_555
Li2 O2 1.928822 1_555
Li2 O18 1.971548 1_555
Li2 O10 1.981783 1_555
Li2 O16 2.015086 1_555
Li3 O3 1.928822 1_555
Li3 O19 1.971548 1_555
Li3 O11 1.981783 1_555
Li3 O17 2.015086 1_555
Li4 O20 1.928822 1_555
Li4 O4 1.971548 1_555
Li4 O12 1.981783 1_555
Li4 O6 2.015086 1_555
Li5 O21 1.928822 1_555
Li5 O5 1.971548 1_555
Li5 O13 1.981783 1_555
Li5 O7 2.015086 1_555
Li6 O25 2.000877 1_555
Li6 O20 2.043350 1_655
Li6 O16 2.063384 1_555
Li6 O34 2.196073 1_555
Li6 O10 2.509787 1_555
Li7 O24 2.000877 1_555
Li7 O21 2.043350 1_555
Li7 O17 2.063384 1_555
Li7 O35 2.196073 1_555
Li7 O11 2.509787 1_555
Li8 O22 2.000877 1_555
Li8 O26 2.043350 1_555
Li8 O30 2.063384 1_555
Li8 O12 2.196073 1_555
Li8 O36 2.509787 1_555
Li9 O23 2.000877 1_555
Li9 O27 2.043350 1_455
Li9 O31 2.063384 1_555
Li9 O13 2.196073 1_555
Li9 O37 2.509787 1_555
Li10 O26 1.928822 1_555
Li10 O42 1.971548 1_555
Li10 O34 1.981783 1_555
Li10 O40 2.015086 1_555
Li11 O27 1.928822 1_555
Li11 O43 1.971548 1_555
Li11 O35 1.981783 1_555
Li11 O41 2.015086 1_555
Li12 O44 1.928822 1_555
Li12 O28 1.971548 1_555
Li12 O36 1.981783 1_555
Li12 O30 2.015086 1_555
Li13 O45 1.928822 1_555
Li13 O29 1.971548 1_555
Li13 O37 1.981783 1_555
Li13 O31 2.015086 1_555
Li14 O0 2.000877 1_565
Li14 O44 2.043350 1_655
Li14 O40 2.063384 1_555
Li14 O10 2.196073 1_565
Li14 O34 2.509787 1_555
Li15 O1 2.000877 1_565
Li15 O45 2.043350 1_555
Li15 O41 2.063384 1_555
Li15 O11 2.196073 1_565
Li15 O35 2.509787 1_555
Fe0 O8 1.937083 1_554
Fe0 O19 2.028048 1_455
Fe0 O23 2.057433 1_555
Fe0 O7 2.157482 1_555
Fe0 O13 2.199710 1_555
Fe0 O3 2.216843 1_455
Fe1 O9 1.937083 1_556
Fe1 O18 2.028048 1_555
Fe1 O22 2.057433 1_555
Fe1 O6 2.157482 1_555
Fe1 O12 2.199710 1_555
Fe1 O2 2.216843 1_555
Fe2 O15 1.937083 1_555
Fe2 O4 2.028048 1_655
Fe2 O0 2.057433 1_555
Fe2 O16 2.157482 1_555
Fe2 O10 2.199710 1_555
Fe2 O20 2.216843 1_655
Fe3 O14 1.937083 1_555
Fe3 O5 2.028048 1_555
Fe3 O1 2.057433 1_555
Fe3 O17 2.157482 1_555
Fe3 O11 2.199710 1_555
Fe3 O21 2.216843 1_555
Fe4 O33 1.937083 1_555
Fe4 O42 2.028048 1_555
Fe4 O46 2.057433 1_555
Fe4 O30 2.157482 1_555
Fe4 O36 2.199710 1_555
Fe4 O26 2.216843 1_555
Fe5 O32 1.937083 1_555
Fe5 O43 2.028048 1_455
Fe5 O47 2.057433 1_555
Fe5 O31 2.157482 1_555
Fe5 O37 2.199710 1_555
Fe5 O27 2.216843 1_455
Fe6 O39 1.937083 1_556
Fe6 O28 2.028048 1_655
Fe6 O25 2.057433 1_555
Fe6 O40 2.157482 1_555
Fe6 O34 2.199710 1_555
Fe6 O44 2.216843 1_655
Fe7 O38 1.937083 1_554
Fe7 O29 2.028048 1_555
Fe7 O24 2.057433 1_555
Fe7 O41 2.157482 1_555
Fe7 O35 2.199710 1_555
Fe7 O45 2.216843 1_555
O0 P11 1.550593 1_545
O1 P11 1.550593 1_545
O2 P9 1.558510 1_545
O3 P10 1.558510 1_545
O4 P0 1.550850 1_555
O5 P0 1.550850 1_555
O6 P1 1.559450 1_555
O7 P2 1.559450 1_555
O8 P1 1.520162 1_555
O9 P2 1.520162 1_555
O10 P1 1.574244 1_655
O11 P2 1.574244 1_555
O12 P3 1.574244 1_555
O13 P4 1.574244 1_455
O14 P3 1.520162 1_555
O15 P4 1.520162 1_555
O16 P3 1.559450 1_555
O17 P4 1.559450 1_555
O18 P5 1.550850 1_556
O19 P5 1.550850 1_555
O20 P7 1.558510 1_555
O21 P8 1.558510 1_555
O22 P6 1.550593 1_556
O23 P6 1.550593 1_555
O24 P5 1.550593 1_555
O25 P5 1.550593 1_556
O26 P3 1.558510 1_555
O27 P4 1.558510 1_555
O28 P6 1.550850 1_556
O29 P6 1.550850 1_555
O30 P7 1.559450 1_555
O31 P8 1.559450 1_555
O32 P7 1.520162 1_555
O33 P8 1.520162 1_555
O34 P7 1.574244 1_655
O35 P8 1.574244 1_555
O36 P9 1.574244 1_555
O37 P10 1.574244 1_455
O38 P9 1.520162 1_555
O39 P10 1.520162 1_555
O40 P9 1.559450 1_555
O41 P10 1.559450 1_555
O42 P11 1.550850 1_555
O43 P11 1.550850 1_555
O44 P1 1.558510 1_565
O45 P2 1.558510 1_565
O46 P0 1.550593 1_565
O47 P0 1.550593 1_565
