# generated using pymatgen
data_MnCr3O8
_symmetry_space_group_name_H-M   'P 1'
_cell_length_a   5.83705464
_cell_length_b   5.88945556
_cell_length_c   8.88549502
_cell_angle_alpha   89.99795176
_cell_angle_beta   90.00107438
_cell_angle_gamma   120.29741493
_symmetry_Int_Tables_number   1
_chemical_formula_structural   MnCr3O8
_chemical_formula_sum   'Mn2 Cr6 O16'
_cell_volume   263.73744294
_cell_formula_units_Z   2
loop_
 _symmetry_equiv_pos_site_id
 _symmetry_equiv_pos_as_xyz
  1  'x, y, z'
loop_
 _atom_site_type_symbol
 _atom_site_label
 _atom_site_symmetry_multiplicity
 _atom_site_fract_x
 _atom_site_fract_y
 _atom_site_fract_z
 _atom_site_occupancy
  Mn  Mn0  1  0.32625500  0.66314900  0.48337700  1
  Mn  Mn1  1  0.67374500  0.33689400  0.98337700  1
  Cr  Cr0  1  0.16324700  0.83248500  0.20222800  1
  Cr  Cr1  1  0.16316800  0.33077900  0.20223100  1
  Cr  Cr2  1  0.65693000  0.82841600  0.21856000  1
  Cr  Cr3  1  0.34307200  0.17148600  0.71856000  1
  Cr  Cr4  1  0.83675300  0.66923700  0.70222900  1
  Cr  Cr5  1  0.83683400  0.16761300  0.70223100  1
  O  O0  1  0.16120700  0.82284200  0.60482300  1
  O  O1  1  0.04955500  0.52478000  0.33677500  1
  O  O2  1  0.34546200  0.67276100  0.09810000  1
  O  O3  1  0.98990200  0.99494800  0.31069100  1
  O  O4  1  0.01009800  0.00504600  0.81069100  1
  O  O5  1  0.16125100  0.33837600  0.60482300  1
  O  O6  1  0.47180900  0.95016000  0.34316500  1
  O  O7  1  0.47176300  0.52162800  0.34317300  1
  O  O8  1  0.34594300  0.17302100  0.10991600  1
  O  O9  1  0.65405700  0.82707900  0.60991600  1
  O  O10  1  0.52819000  0.47834900  0.84316400  1
  O  O11  1  0.52823600  0.04986500  0.84317300  1
  O  O12  1  0.65453800  0.32729900  0.59810000  1
  O  O13  1  0.83879200  0.66163500  0.10482300  1
  O  O14  1  0.95044500  0.47522500  0.83677500  1
  O  O15  1  0.83874900  0.17712500  0.10482300  1
loop_
_geom_bond_atom_site_label_1
_geom_bond_atom_site_label_2
_geom_bond_distance
_geom_bond_site_symmetry_2
Mn0 O1 1.908278 1_555
Mn0 O6 1.918880 1_555
Mn0 O7 1.918962 1_555
Mn0 O0 1.972682 1_555
Mn0 O5 1.972763 1_555
Mn0 O9 1.998374 1_555
Mn1 O14 1.908280 1_555
Mn1 O10 1.918881 1_555
Mn1 O11 1.918961 1_555
Mn1 O13 1.972681 1_556
Mn1 O15 1.972762 1_556
Mn1 O8 1.998375 1_556
Cr0 O13 1.850815 1_455
Cr0 O8 1.916844 1_565
Cr0 O3 1.960874 1_455
Cr0 O2 1.970223 1_555
Cr0 O1 1.985001 1_555
Cr0 O6 2.008239 1_555
Cr1 O15 1.850655 1_455
Cr1 O8 1.916900 1_555
Cr1 O3 1.960907 1_445
Cr1 O2 1.970387 1_555
Cr1 O1 1.984708 1_555
Cr1 O7 2.008371 1_555
Cr2 O3 1.867146 1_555
Cr2 O2 1.899929 1_555
Cr2 O7 1.920490 1_555
Cr2 O6 1.920775 1_555
Cr2 O13 2.040876 1_555
Cr2 O15 2.041109 1_565
Cr3 O4 1.867157 1_555
Cr3 O12 1.899922 1_555
Cr3 O11 1.920476 1_555
Cr3 O10 1.920760 1_555
Cr3 O0 2.040880 1_545
Cr3 O5 2.041117 1_555
Cr4 O0 1.850816 1_655
Cr4 O9 1.916856 1_555
Cr4 O4 1.960873 1_665
Cr4 O12 1.970222 1_555
Cr4 O14 1.984990 1_555
Cr4 O10 2.008234 1_555
Cr5 O5 1.850647 1_655
Cr5 O9 1.916904 1_545
Cr5 O4 1.960906 1_655
Cr5 O12 1.970387 1_555
Cr5 O14 1.984700 1_555
Cr5 O11 2.008384 1_555
