# generated using pymatgen
data_Mn6O7F5
_symmetry_space_group_name_H-M   'P 1'
_cell_length_a   4.56862591
_cell_length_b   5.64113171
_cell_length_c   15.34618663
_cell_angle_alpha   89.96014782
_cell_angle_beta   90.44197078
_cell_angle_gamma   90.79676116
_symmetry_Int_Tables_number   1
_chemical_formula_structural   Mn6O7F5
_chemical_formula_sum   'Mn12 O14 F10'
_cell_volume   395.45523002
_cell_formula_units_Z   2
loop_
 _symmetry_equiv_pos_site_id
 _symmetry_equiv_pos_as_xyz
  1  'x, y, z'
loop_
 _atom_site_type_symbol
 _atom_site_label
 _atom_site_symmetry_multiplicity
 _atom_site_fract_x
 _atom_site_fract_y
 _atom_site_fract_z
 _atom_site_occupancy
  Mn  Mn0  1  0.03267500  0.17621100  0.40797400  1
  Mn  Mn1  1  0.03044300  0.83843700  0.24581300  1
  Mn  Mn2  1  0.99846800  0.15237400  0.07560900  1
  Mn  Mn3  1  0.01843200  0.16506300  0.74421200  1
  Mn  Mn4  1  0.99208800  0.84843300  0.58189900  1
  Mn  Mn5  1  0.01405400  0.84905100  0.90657000  1
  Mn  Mn6  1  0.50319900  0.35114500  0.58734000  1
  Mn  Mn7  1  0.49744900  0.34786800  0.92108300  1
  Mn  Mn8  1  0.50089400  0.36286100  0.25643200  1
  Mn  Mn9  1  0.50895500  0.65435900  0.09018100  1
  Mn  Mn10  1  0.51701000  0.62396400  0.42056100  1
  Mn  Mn11  1  0.49798900  0.63524500  0.76083200  1
  O  O0  1  0.24099800  0.11289500  0.30066000  1
  O  O1  1  0.20924700  0.11617500  0.63499300  1
  O  O2  1  0.21899500  0.11236800  0.96700700  1
  O  O3  1  0.21545900  0.88623400  0.13368500  1
  O  O4  1  0.23263000  0.88665400  0.80110200  1
  O  O5  1  0.28718800  0.59754900  0.31512200  1
  O  O6  1  0.28834400  0.39153600  0.47836200  1
  O  O7  1  0.27523300  0.39745300  0.81308300  1
  O  O8  1  0.71437000  0.38257400  0.03095200  1
  O  O9  1  0.72404600  0.61573000  0.19760600  1
  O  O10  1  0.72805000  0.38410300  0.35982500  1
  O  O11  1  0.73436200  0.61218100  0.52958000  1
  O  O12  1  0.72242600  0.61731800  0.86294000  1
  O  O13  1  0.72174800  0.39083400  0.69621100  1
  F  F0  1  0.25438600  0.87973500  0.46904100  1
  F  F1  1  0.24933500  0.38338300  0.15155500  1
  F  F2  1  0.25131000  0.62448600  0.65013000  1
  F  F3  1  0.25294100  0.61744200  0.98562200  1
  F  F4  1  0.74905300  0.12707000  0.19125100  1
  F  F5  1  0.77463400  0.10444500  0.51749100  1
  F  F6  1  0.78102200  0.86952600  0.36097300  1
  F  F7  1  0.75411800  0.88279000  0.01135400  1
  F  F8  1  0.77140600  0.12624300  0.84810200  1
  F  F9  1  0.73704400  0.87626200  0.69484800  1
loop_
_geom_bond_atom_site_label_1
_geom_bond_atom_site_label_2
_geom_bond_distance
_geom_bond_site_symmetry_2
Mn0 O0 1.944223 1_555
Mn0 O10 1.971424 1_455
Mn0 O6 1.987335 1_555
Mn1 O3 1.939993 1_555
Mn1 O0 1.994688 1_565
Mn1 O9 2.005372 1_455
Mn1 O5 2.092080 1_555
Mn2 O8 1.967878 1_555
Mn2 O2 1.968856 1_654
Mn2 O3 2.014197 1_645
Mn3 O1 1.917079 1_555
Mn3 O13 2.008285 1_455
Mn3 O7 2.037673 1_555
Mn3 O4 2.052828 1_545
Mn4 O11 1.936613 1_555
Mn4 O1 1.969000 1_665
Mn5 O4 1.918435 1_555
Mn5 O12 1.967566 1_455
Mn5 O2 1.973104 1_565
Mn6 O6 1.947489 1_555
Mn6 O13 1.951168 1_555
Mn6 O11 2.009673 1_555
Mn6 O1 2.014835 1_555
Mn7 O8 1.957700 1_556
Mn7 O7 1.958863 1_555
Mn7 O2 1.960984 1_555
Mn7 O12 2.032688 1_555
Mn8 O5 1.889007 1_555
Mn8 O10 1.892181 1_555
Mn8 O0 1.955355 1_555
Mn8 O9 1.964972 1_555
Mn9 O9 1.926487 1_555
Mn9 O3 2.004601 1_555
Mn9 O8 2.027961 1_555
Mn10 O6 1.889949 1_555
Mn10 O10 1.918620 1_555
Mn10 O5 1.926816 1_555
Mn10 O11 1.940498 1_555
Mn11 O7 1.857736 1_555
Mn11 O12 1.869458 1_555
Mn11 O4 1.980814 1_555
Mn11 O13 1.996543 1_555
F0 Mn10 2.034280 1_555
F0 Mn4 2.119558 1_455
F0 Mn0 2.175236 1_565
F1 Mn8 1.974719 1_555
F1 Mn2 2.076079 1_455
F1 Mn9 2.143689 1_555
F2 Mn4 2.028677 1_455
F2 Mn11 2.031892 1_555
F2 Mn6 2.167707 1_555
F3 Mn9 1.987669 1_556
F3 Mn5 2.094496 1_555
F3 Mn7 2.146561 1_555
F4 Mn8 2.028908 1_555
F4 Mn2 2.120036 1_555
F4 Mn1 2.246015 1_645
F5 Mn4 2.018023 1_545
F5 Mn0 2.096349 1_655
F5 Mn6 2.166594 1_555
F6 Mn10 2.044202 1_555
F6 Mn1 2.118852 1_655
F6 Mn0 2.183754 1_665
F7 Mn5 2.017039 1_654
F7 Mn9 2.087342 1_555
F7 Mn2 2.114037 1_565
F8 Mn3 1.970753 1_655
F8 Mn7 2.109741 1_555
F8 Mn5 2.123675 1_645
F9 Mn11 2.010111 1_555
F9 Mn4 2.103192 1_555
F9 Mn3 2.192979 1_665
