# generated using pymatgen
data_NaLiP2(H4O5)2
_symmetry_space_group_name_H-M   'P 1'
_cell_length_a   15.27945674
_cell_length_b   15.27945674
_cell_length_c   15.27945717
_cell_angle_alpha   40.53497803
_cell_angle_beta   40.53497803
_cell_angle_gamma   40.53497805
_symmetry_Int_Tables_number   1
_chemical_formula_structural   NaLiP2(H4O5)2
_chemical_formula_sum   'Na6 Li6 P12 H48 O60'
_cell_volume   1359.00157274
_cell_formula_units_Z   6
loop_
 _symmetry_equiv_pos_site_id
 _symmetry_equiv_pos_as_xyz
  1  'x, y, z'
loop_
 _atom_site_type_symbol
 _atom_site_label
 _atom_site_symmetry_multiplicity
 _atom_site_fract_x
 _atom_site_fract_y
 _atom_site_fract_z
 _atom_site_occupancy
  Na  Na0  1  0.63243300  0.63243300  0.63243300  1
  Na  Na1  1  0.13243300  0.13243300  0.13243300  1
  Na  Na2  1  0.36756700  0.36756700  0.36756700  1
  Na  Na3  1  0.86756700  0.86756700  0.86756700  1
  Na  Na4  1  0.75000000  0.75000000  0.75000000  1
  Na  Na5  1  0.25000000  0.25000000  0.25000000  1
  Li  Li0  1  0.25563500  0.75000000  0.24436500  1
  Li  Li1  1  0.24436500  0.25563500  0.75000000  1
  Li  Li2  1  0.75000000  0.24436500  0.25563500  1
  Li  Li3  1  0.75563500  0.74436500  0.25000000  1
  Li  Li4  1  0.25000000  0.75563500  0.74436500  1
  Li  Li5  1  0.74436500  0.25000000  0.75563500  1
  P  P0  1  0.28352900  0.87831000  0.79844700  1
  P  P1  1  0.79844700  0.28352900  0.87831000  1
  P  P2  1  0.87831000  0.79844700  0.28352900  1
  P  P3  1  0.78352900  0.29844700  0.37831000  1
  P  P4  1  0.37831000  0.78352900  0.29844700  1
  P  P5  1  0.29844700  0.37831000  0.78352900  1
  P  P6  1  0.71647100  0.12169000  0.20155300  1
  P  P7  1  0.20155300  0.71647100  0.12169000  1
  P  P8  1  0.12169000  0.20155300  0.71647100  1
  P  P9  1  0.21647100  0.70155300  0.62169000  1
  P  P10  1  0.62169000  0.21647100  0.70155300  1
  P  P11  1  0.70155300  0.62169000  0.21647100  1
  H  H0  1  0.25438300  0.99923700  0.96457000  1
  H  H1  1  0.96457000  0.25438300  0.99923700  1
  H  H2  1  0.99923700  0.96457000  0.25438300  1
  H  H3  1  0.75438300  0.46457000  0.49923700  1
  H  H4  1  0.49923700  0.75438300  0.46457000  1
  H  H5  1  0.46457000  0.49923700  0.75438300  1
  H  H6  1  0.74561700  0.00076300  0.03543000  1
  H  H7  1  0.03543000  0.74561700  0.00076300  1
  H  H8  1  0.00076300  0.03543000  0.74561700  1
  H  H9  1  0.24561700  0.53543000  0.50076300  1
  H  H10  1  0.50076300  0.24561700  0.53543000  1
  H  H11  1  0.53543000  0.50076300  0.24561700  1
  H  H12  1  0.61439100  0.98990400  0.09140600  1
  H  H13  1  0.09140600  0.61439100  0.98990400  1
  H  H14  1  0.98990400  0.09140600  0.61439100  1
  H  H15  1  0.11439100  0.59140600  0.48990400  1
  H  H16  1  0.48990400  0.11439100  0.59140600  1
  H  H17  1  0.59140600  0.48990400  0.11439100  1
  H  H18  1  0.38560900  0.01009600  0.90859400  1
  H  H19  1  0.90859400  0.38560900  0.01009600  1
  H  H20  1  0.01009600  0.90859400  0.38560900  1
  H  H21  1  0.88560900  0.40859400  0.51009600  1
  H  H22  1  0.51009600  0.88560900  0.40859400  1
  H  H23  1  0.40859400  0.51009600  0.88560900  1
  H  H24  1  0.11659200  0.34539900  0.44216000  1
  H  H25  1  0.44216000  0.11659200  0.34539900  1
  H  H26  1  0.34539900  0.44216000  0.11659200  1
  H  H27  1  0.61659200  0.94216000  0.84539900  1
  H  H28  1  0.84539900  0.61659200  0.94216000  1
  H  H29  1  0.94216000  0.84539900  0.61659200  1
  H  H30  1  0.88340800  0.65460100  0.55784000  1
  H  H31  1  0.55784000  0.88340800  0.65460100  1
  H  H32  1  0.65460100  0.55784000  0.88340800  1
  H  H33  1  0.38340800  0.05784000  0.15460100  1
  H  H34  1  0.15460100  0.38340800  0.05784000  1
  H  H35  1  0.05784000  0.15460100  0.38340800  1
  H  H36  1  0.55028700  0.82282000  0.99462300  1
  H  H37  1  0.99462300  0.55028700  0.82282000  1
  H  H38  1  0.82282000  0.99462300  0.55028700  1
  H  H39  1  0.05028700  0.49462300  0.32282000  1
  H  H40  1  0.32282000  0.05028700  0.49462300  1
  H  H41  1  0.49462300  0.32282000  0.05028700  1
  H  H42  1  0.44971300  0.17718000  0.00537700  1
  H  H43  1  0.00537700  0.44971300  0.17718000  1
  H  H44  1  0.17718000  0.00537700  0.44971300  1
  H  H45  1  0.94971300  0.50537700  0.67718000  1
  H  H46  1  0.67718000  0.94971300  0.50537700  1
  H  H47  1  0.50537700  0.67718000  0.94971300  1
  O  O0  1  0.77614500  0.08210500  0.27800500  1
  O  O1  1  0.27800500  0.77614500  0.08210500  1
  O  O2  1  0.08210500  0.27800500  0.77614500  1
  O  O3  1  0.27614500  0.77800500  0.58210500  1
  O  O4  1  0.58210500  0.27614500  0.77800500  1
  O  O5  1  0.77800500  0.58210500  0.27614500  1
  O  O6  1  0.22385500  0.91789500  0.72199500  1
  O  O7  1  0.72199500  0.22385500  0.91789500  1
  O  O8  1  0.91789500  0.72199500  0.22385500  1
  O  O9  1  0.72385500  0.22199500  0.41789500  1
  O  O10  1  0.41789500  0.72385500  0.22199500  1
  O  O11  1  0.22199500  0.41789500  0.72385500  1
  O  O12  1  0.52545600  0.71790300  0.29856100  1
  O  O13  1  0.29856100  0.52545600  0.71790300  1
  O  O14  1  0.71790300  0.29856100  0.52545600  1
  O  O15  1  0.02545600  0.79856100  0.21790300  1
  O  O16  1  0.21790300  0.02545600  0.79856100  1
  O  O17  1  0.79856100  0.21790300  0.02545600  1
  O  O18  1  0.47454400  0.28209700  0.70143900  1
  O  O19  1  0.70143900  0.47454400  0.28209700  1
  O  O20  1  0.28209700  0.70143900  0.47454400  1
  O  O21  1  0.97454400  0.20143900  0.78209700  1
  O  O22  1  0.78209700  0.97454400  0.20143900  1
  O  O23  1  0.20143900  0.78209700  0.97454400  1
  O  O24  1  0.74750700  0.44917800  0.79846300  1
  O  O25  1  0.79846300  0.74750700  0.44917800  1
  O  O26  1  0.44917800  0.79846300  0.74750700  1
  O  O27  1  0.24750700  0.29846300  0.94917800  1
  O  O28  1  0.94917800  0.24750700  0.29846300  1
  O  O29  1  0.29846300  0.94917800  0.24750700  1
  O  O30  1  0.25249300  0.55082200  0.20153700  1
  O  O31  1  0.20153700  0.25249300  0.55082200  1
  O  O32  1  0.55082200  0.20153700  0.25249300  1
  O  O33  1  0.75249300  0.70153700  0.05082200  1
  O  O34  1  0.05082200  0.75249300  0.70153700  1
  O  O35  1  0.70153700  0.05082200  0.75249300  1
  O  O36  1  0.07036700  0.72184900  0.93167200  1
  O  O37  1  0.93167200  0.07036700  0.72184900  1
  O  O38  1  0.72184900  0.93167200  0.07036700  1
  O  O39  1  0.57036700  0.43167200  0.22184900  1
  O  O40  1  0.22184900  0.57036700  0.43167200  1
  O  O41  1  0.43167200  0.22184900  0.57036700  1
  O  O42  1  0.92963300  0.27815100  0.06832800  1
  O  O43  1  0.06832800  0.92963300  0.27815100  1
  O  O44  1  0.27815100  0.06832800  0.92963300  1
  O  O45  1  0.42963300  0.56832800  0.77815100  1
  O  O46  1  0.77815100  0.42963300  0.56832800  1
  O  O47  1  0.56832800  0.77815100  0.42963300  1
  O  O48  1  0.11024700  0.43310700  0.11001600  1
  O  O49  1  0.11001600  0.11024700  0.43310700  1
  O  O50  1  0.43310700  0.11001600  0.11024700  1
  O  O51  1  0.61024700  0.61001600  0.93310700  1
  O  O52  1  0.93310700  0.61024700  0.61001600  1
  O  O53  1  0.61001600  0.93310700  0.61024700  1
  O  O54  1  0.88975300  0.56689300  0.88998400  1
  O  O55  1  0.88998400  0.88975300  0.56689300  1
  O  O56  1  0.56689300  0.88998400  0.88975300  1
  O  O57  1  0.38975300  0.38998400  0.06689300  1
  O  O58  1  0.06689300  0.38975300  0.38998400  1
  O  O59  1  0.38998400  0.06689300  0.38975300  1
loop_
_geom_bond_atom_site_label_1
_geom_bond_atom_site_label_2
_geom_bond_distance
_geom_bond_site_symmetry_2
Na0 O25 2.422151 1_555
Na0 O26 2.422151 1_555
Na0 O24 2.422151 1_555
Na0 O45 2.515972 1_555
Na0 O46 2.515972 1_555
Na0 O47 2.515972 1_555
Na1 O27 2.422151 1_554
Na1 O29 2.422151 1_545
Na1 O28 2.422151 1_455
Na1 O43 2.515972 1_545
Na1 O42 2.515972 1_455
Na1 O44 2.515972 1_554
Na2 O31 2.422151 1_555
Na2 O32 2.422151 1_555
Na2 O30 2.422151 1_555
Na2 O39 2.515972 1_555
Na2 O40 2.515972 1_555
Na2 O41 2.515972 1_555
Na3 O33 2.422151 1_556
Na3 O35 2.422151 1_565
Na3 O34 2.422151 1_655
Na3 O37 2.515972 1_565
Na3 O36 2.515972 1_655
Na3 O38 2.515972 1_556
Na4 O55 2.393219 1_555
Na4 O51 2.393219 1_555
Na4 O56 2.393219 1_555
Na4 O53 2.393219 1_555
Na4 O54 2.393219 1_555
Na4 O52 2.393219 1_555
Na5 O49 2.393219 1_555
Na5 O57 2.393219 1_555
Na5 O50 2.393219 1_555
Na5 O59 2.393219 1_555
Na5 O58 2.393219 1_555
Na5 O48 2.393219 1_555
Li0 O10 1.958850 1_555
Li0 O1 1.958850 1_555
Li0 O43 1.989617 1_555
Li0 O40 1.989617 1_555
Li1 O11 1.958850 1_555
Li1 O2 1.958850 1_555
Li1 O44 1.989617 1_555
Li1 O41 1.989617 1_555
Li2 O0 1.958850 1_555
Li2 O9 1.958850 1_555
Li2 O39 1.989617 1_555
Li2 O42 1.989617 1_555
Li3 O8 1.958850 1_555
Li3 O5 1.958850 1_555
Li3 O38 1.989617 1_555
Li3 O47 1.989617 1_555
Li4 O6 1.958850 1_555
Li4 O3 1.958850 1_555
Li4 O45 1.989617 1_555
Li4 O36 1.989617 1_555
Li5 O4 1.958850 1_555
Li5 O7 1.958850 1_555
Li5 O37 1.989617 1_555
Li5 O46 1.989617 1_555
H0 O44 0.981212 1_565
H1 O42 0.981212 1_556
H2 O43 0.981212 1_655
H3 O46 0.981212 1_555
H4 O47 0.981212 1_555
H5 O45 0.981212 1_555
H6 O38 0.981212 1_545
H7 O36 0.981212 1_554
H8 O37 0.981212 1_455
H9 O40 0.981212 1_555
H10 O41 0.981212 1_555
H11 O39 0.981212 1_555
H12 O38 1.001368 1_555
H13 O36 1.001368 1_555
H14 O37 1.001369 1_555
H15 O40 1.001368 1_555
H16 O41 1.001368 1_555
H17 O39 1.001369 1_555
H18 O44 1.001368 1_555
H19 O42 1.001368 1_555
H20 O43 1.001369 1_555
H21 O46 1.001368 1_555
H22 O47 1.001368 1_555
H23 O45 1.001369 1_555
H24 O58 0.994087 1_555
H25 O59 0.994087 1_555
H26 O57 0.994087 1_555
H27 O56 0.994087 1_555
H28 O54 0.994087 1_555
H29 O55 0.994087 1_555
H30 O52 0.994087 1_555
H31 O53 0.994087 1_555
H32 O51 0.994087 1_555
H33 O50 0.994087 1_555
H34 O48 0.994087 1_555
H35 O49 0.994087 1_555
H36 O56 0.981518 1_555
H37 O54 0.981518 1_555
H38 O55 0.981518 1_555
H39 O58 0.981518 1_555
H40 O59 0.981518 1_555
H41 O57 0.981518 1_555
H42 O50 0.981518 1_555
H43 O48 0.981518 1_555
H44 O49 0.981518 1_555
H45 O52 0.981518 1_555
H46 O53 0.981518 1_555
H47 O51 0.981518 1_555
O0 P6 1.506154 1_555
O1 P7 1.506154 1_555
O2 P8 1.506154 1_555
O3 P9 1.506154 1_555
O4 P10 1.506154 1_555
O5 P11 1.506154 1_555
O6 P0 1.506154 1_555
O7 P1 1.506154 1_555
O8 P2 1.506154 1_555
O9 P3 1.506154 1_555
O10 P4 1.506154 1_555
O11 P5 1.506154 1_555
O12 P11 1.623126 1_555
O12 P4 1.623843 1_555
O13 P9 1.623126 1_555
O13 P5 1.623843 1_555
O14 P10 1.623126 1_555
O14 P3 1.623843 1_555
O15 P7 1.623126 1_555
O15 P2 1.623843 1_455
O16 P8 1.623126 1_555
O16 P0 1.623843 1_545
O17 P6 1.623126 1_555
O17 P1 1.623843 1_554
O18 P5 1.623126 1_555
O18 P10 1.623843 1_555
O19 P3 1.623126 1_555
O19 P11 1.623843 1_555
O20 P4 1.623126 1_555
O20 P9 1.623843 1_555
O21 P1 1.623126 1_555
O21 P8 1.623843 1_655
O22 P2 1.623126 1_555
O22 P6 1.623843 1_565
O23 P0 1.623126 1_555
O23 P7 1.623843 1_556
O24 P1 1.501882 1_555
O25 P2 1.501882 1_555
O26 P0 1.501882 1_555
O27 P5 1.501882 1_555
O28 P3 1.501882 1_555
O29 P4 1.501882 1_555
O30 P7 1.501882 1_555
O31 P8 1.501882 1_555
O32 P6 1.501882 1_555
O33 P11 1.501882 1_555
O34 P9 1.501882 1_555
O35 P10 1.501882 1_555
