# generated using pymatgen
data_Li2TiNb3O8
_symmetry_space_group_name_H-M   'P 1'
_cell_length_a   8.65624900
_cell_length_b   8.66262378
_cell_length_c   8.66583209
_cell_angle_alpha   89.62290661
_cell_angle_beta   89.14719958
_cell_angle_gamma   89.89781153
_symmetry_Int_Tables_number   1
_chemical_formula_structural   Li2TiNb3O8
_chemical_formula_sum   'Li8 Ti4 Nb12 O32'
_cell_volume   649.72762427
_cell_formula_units_Z   4
loop_
 _symmetry_equiv_pos_site_id
 _symmetry_equiv_pos_as_xyz
  1  'x, y, z'
loop_
 _atom_site_type_symbol
 _atom_site_label
 _atom_site_symmetry_multiplicity
 _atom_site_fract_x
 _atom_site_fract_y
 _atom_site_fract_z
 _atom_site_occupancy
  Li  Li0  1  0.00618300  0.01010000  0.01526900  1
  Li  Li1  1  0.23575600  0.23824000  0.23656800  1
  Li  Li2  1  0.75856800  0.75214400  0.25223000  1
  Li  Li3  1  0.99155800  0.50712900  0.47969500  1
  Li  Li4  1  0.48826800  0.98678200  0.49910300  1
  Li  Li5  1  0.25211300  0.76099700  0.74980700  1
  Li  Li6  1  0.75300200  0.25102200  0.76160100  1
  Li  Li7  1  0.50737900  0.48789700  0.00062700  1
  Ti  Ti0  1  0.88357100  0.38355100  0.11402700  1
  Ti  Ti1  1  0.12443700  0.87949800  0.38955100  1
  Ti  Ti2  1  0.62342700  0.61847400  0.62441600  1
  Ti  Ti3  1  0.37500100  0.13531000  0.86889600  1
  Nb  Nb0  1  0.13403300  0.63502100  0.11475000  1
  Nb  Nb1  1  0.36630700  0.86531000  0.11697700  1
  Nb  Nb2  1  0.62826500  0.12163500  0.13096300  1
  Nb  Nb3  1  0.38462700  0.59990000  0.38680600  1
  Nb  Nb4  1  0.60099600  0.38010900  0.38956100  1
  Nb  Nb5  1  0.86653300  0.12948100  0.37565000  1
  Nb  Nb6  1  0.37396800  0.37325900  0.62030200  1
  Nb  Nb7  1  0.12973500  0.14486400  0.63650600  1
  Nb  Nb8  1  0.86519200  0.86808200  0.64413100  1
  Nb  Nb9  1  0.13817700  0.36485200  0.85043500  1
  Nb  Nb10  1  0.86475000  0.64572400  0.86400900  1
  Nb  Nb11  1  0.64539800  0.86276400  0.86743000  1
  O  O0  1  0.10885300  0.38717900  0.10877900  1
  O  O1  1  0.88676300  0.61339400  0.11405000  1
  O  O2  1  0.61946000  0.88435700  0.11882600  1
  O  O3  1  0.12712000  0.87495200  0.14767900  1
  O  O4  1  0.38576200  0.11192800  0.10776000  1
  O  O5  1  0.37732800  0.62507000  0.13914700  1
  O  O6  1  0.64155300  0.35824200  0.13902400  1
  O  O7  1  0.86934400  0.14877000  0.13158400  1
  O  O8  1  0.13511000  0.64175800  0.35329800  1
  O  O9  1  0.35329000  0.86132600  0.35848000  1
  O  O10  1  0.62259600  0.13021200  0.37435700  1
  O  O11  1  0.62200200  0.62598100  0.38763100  1
  O  O12  1  0.86153600  0.36274800  0.35426500  1
  O  O13  1  0.36115500  0.35962800  0.36859400  1
  O  O14  1  0.11174100  0.10785600  0.38697500  1
  O  O15  1  0.89201800  0.89181800  0.38362600  1
  O  O16  1  0.38607400  0.62269500  0.62390500  1
  O  O17  1  0.62475400  0.38582700  0.62674500  1
  O  O18  1  0.88396900  0.11809800  0.61887300  1
  O  O19  1  0.37147700  0.12044800  0.63890400  1
  O  O20  1  0.11469900  0.88646500  0.60998300  1
  O  O21  1  0.12188300  0.39056800  0.61231100  1
  O  O22  1  0.85844500  0.62807500  0.62182300  1
  O  O23  1  0.62495800  0.85980700  0.62786300  1
  O  O24  1  0.37871500  0.36155300  0.87396100  1
  O  O25  1  0.14198000  0.11979400  0.87649900  1
  O  O26  1  0.88824300  0.88933000  0.88397200  1
  O  O27  1  0.89121900  0.38653700  0.89184400  1
  O  O28  1  0.62549500  0.62238500  0.86285200  1
  O  O29  1  0.11912000  0.62131100  0.88523600  1
  O  O30  1  0.38575500  0.88817400  0.89123600  1
  O  O31  1  0.61047600  0.11171200  0.89061100  1
loop_
_geom_bond_atom_site_label_1
_geom_bond_atom_site_label_2
_geom_bond_distance
_geom_bond_site_symmetry_2
Li0 O26 1.866927 1_444
Li0 O25 1.917744 1_554
Li0 O3 1.948555 1_545
Li0 O7 1.958923 1_455
Li1 O13 1.910468 1_555
Li1 O14 2.017489 1_555
Li1 O4 2.024145 1_555
Li1 O0 2.027317 1_555
Li2 O11 1.978669 1_555
Li2 O1 2.021032 1_555
Li2 O2 2.029109 1_555
Li2 O15 2.038923 1_555
Li3 O21 1.905831 1_655
Li3 O22 1.978083 1_555
Li3 O8 2.012914 1_655
Li3 O12 2.017884 1_555
Li4 O19 1.951496 1_565
Li4 O23 1.968100 1_555
Li4 O10 2.003618 1_565
Li4 O9 2.023764 1_555
Li5 O16 1.986199 1_555
Li5 O20 2.021225 1_555
Li5 O29 2.028036 1_555
Li5 O30 2.029435 1_555
Li6 O17 1.994455 1_555
Li6 O18 2.028124 1_555
Li6 O27 2.036192 1_555
Li6 O31 2.043240 1_555
Li7 O24 1.923467 1_554
Li7 O28 1.943641 1_554
Li7 O6 2.016900 1_555
Li7 O5 2.023374 1_555
Nb0 O29 1.999354 1_554
Nb0 O8 2.068585 1_555
Nb0 O3 2.100415 1_555
Nb0 O5 2.121279 1_555
Nb0 O1 2.149049 1_455
Nb0 O0 2.159421 1_555
Nb1 O30 1.969679 1_554
Nb1 O3 2.085151 1_555
Nb1 O5 2.090837 1_555
Nb1 O9 2.094241 1_555
Nb1 O4 2.144157 1_565
Nb1 O2 2.198156 1_555
Nb2 O6 2.054772 1_555
Nb2 O2 2.060434 1_545
Nb2 O31 2.093159 1_554
Nb2 O7 2.100544 1_555
Nb2 O10 2.110846 1_555
Nb2 O4 2.113627 1_555
Nb3 O16 2.065646 1_555
Nb3 O11 2.067684 1_555
Nb3 O13 2.098844 1_555
Nb3 O5 2.157640 1_555
Nb3 O8 2.212549 1_555
Nb3 O9 2.292353 1_555
Nb4 O17 2.069629 1_555
Nb4 O13 2.094695 1_555
Nb4 O11 2.137902 1_555
Nb4 O10 2.177177 1_555
Nb4 O6 2.203485 1_555
Nb4 O12 2.276271 1_555
Nb5 O12 2.028413 1_555
Nb5 O15 2.070990 1_545
Nb5 O10 2.111774 1_555
Nb5 O18 2.117005 1_555
Nb5 O7 2.120310 1_555
Nb5 O14 2.134155 1_655
Nb6 O16 2.163950 1_555
Nb6 O17 2.175353 1_555
Nb6 O21 2.189082 1_555
Nb6 O13 2.189697 1_555
Nb6 O19 2.194994 1_555
Nb6 O24 2.200829 1_555
Nb7 O25 2.093860 1_555
Nb7 O19 2.103262 1_555
Nb7 O21 2.138429 1_555
Nb7 O18 2.148230 1_455
Nb7 O14 2.195977 1_555
Nb7 O20 2.255873 1_545
Nb8 O23 2.087781 1_555
Nb8 O22 2.090325 1_555
Nb8 O26 2.100248 1_555
Nb8 O18 2.181502 1_565
Nb8 O20 2.181564 1_655
Nb8 O15 2.273968 1_555
Nb9 O21 2.080920 1_555
Nb9 O24 2.095258 1_555
Nb9 O25 2.133596 1_555
Nb9 O27 2.170384 1_455
Nb9 O29 2.249385 1_555
Nb9 O0 2.258876 1_556
Nb10 O28 2.081434 1_555
Nb10 O22 2.106832 1_555
Nb10 O26 2.128825 1_555
Nb10 O1 2.194069 1_556
Nb10 O29 2.221883 1_655
Nb10 O27 2.268141 1_555
Nb11 O23 2.086525 1_555
Nb11 O28 2.090419 1_555
Nb11 O26 2.122163 1_555
Nb11 O31 2.187232 1_565
Nb11 O2 2.195941 1_556
Nb11 O30 2.264388 1_555
O0 Ti0 1.950255 1_455
O1 Ti0 1.991286 1_555
O3 Ti1 2.096433 1_555
O4 Ti3 2.081963 1_554
O6 Ti0 2.114565 1_555
O7 Ti0 2.042302 1_555
O8 Ti1 2.086996 1_555
O9 Ti1 2.001310 1_555
O11 Ti2 2.052761 1_555
O12 Ti0 2.094366 1_555
O14 Ti1 1.981032 1_545
O15 Ti1 2.015914 1_655
O16 Ti2 2.054917 1_555
O17 Ti2 2.015316 1_555
O19 Ti3 1.998760 1_555
O20 Ti1 1.912177 1_555
O22 Ti2 2.036006 1_555
O23 Ti2 2.091055 1_555
O24 Ti3 1.960970 1_555
O25 Ti3 2.021867 1_555
O27 Ti0 1.925558 1_556
O28 Ti2 2.067091 1_555
O30 Ti3 2.150288 1_565
O31 Ti3 2.059469 1_555
