# generated using pymatgen
data_Li2Mn3(BO3)3
_symmetry_space_group_name_H-M   'P 1'
_cell_length_a   5.22519100
_cell_length_b   6.14248277
_cell_length_c   11.95671633
_cell_angle_alpha   83.70524560
_cell_angle_beta   78.72784999
_cell_angle_gamma   87.20831975
_symmetry_Int_Tables_number   1
_chemical_formula_structural   Li2Mn3(BO3)3
_chemical_formula_sum   'Li4 Mn6 B6 O18'
_cell_volume   373.94025798
_cell_formula_units_Z   2
loop_
 _symmetry_equiv_pos_site_id
 _symmetry_equiv_pos_as_xyz
  1  'x, y, z'
loop_
 _atom_site_type_symbol
 _atom_site_label
 _atom_site_symmetry_multiplicity
 _atom_site_fract_x
 _atom_site_fract_y
 _atom_site_fract_z
 _atom_site_occupancy
  Li  Li0  1  0.13777100  0.73918000  0.07371300  1
  Li  Li1  1  0.86222900  0.26082000  0.92628700  1
  Li  Li2  1  0.45944400  0.08494200  0.39924200  1
  Li  Li3  1  0.54055600  0.91505800  0.60075800  1
  Mn  Mn0  1  0.44168800  0.07587800  0.82747400  1
  Mn  Mn1  1  0.76315000  0.41805300  0.17081300  1
  Mn  Mn2  1  0.09881200  0.74131600  0.49420500  1
  Mn  Mn3  1  0.55831200  0.92412200  0.17252600  1
  Mn  Mn4  1  0.90118800  0.25868400  0.50579500  1
  Mn  Mn5  1  0.23685000  0.58194700  0.82918700  1
  B  B0  1  0.68177600  0.69977300  0.94737100  1
  B  B1  1  0.31822400  0.30022700  0.05262900  1
  B  B2  1  0.65414100  0.66190200  0.38880100  1
  B  B3  1  0.01149800  0.02243800  0.27813500  1
  B  B4  1  0.34585900  0.33809800  0.61119900  1
  B  B5  1  0.98850200  0.97756200  0.72186500  1
  O  O0  1  0.43111200  0.78412600  0.92941500  1
  O  O1  1  0.83086300  0.57460700  0.87222800  1
  O  O2  1  0.24478800  0.26890400  0.94895900  1
  O  O3  1  0.75521200  0.73109600  0.05104100  1
  O  O4  1  0.16913700  0.42539300  0.12777200  1
  O  O5  1  0.56888800  0.21587400  0.07058500  1
  O  O6  1  0.88228300  0.56017900  0.40972000  1
  O  O7  1  0.59099300  0.65208500  0.28066700  1
  O  O8  1  0.50000500  0.77790900  0.46975300  1
  O  O9  1  0.16604900  0.92999900  0.18916700  1
  O  O10  1  0.09252600  0.04439000  0.38053400  1
  O  O11  1  0.75549500  0.09665300  0.26891300  1
  O  O12  1  0.11771700  0.43982100  0.59028000  1
  O  O13  1  0.49999500  0.22209100  0.53024700  1
  O  O14  1  0.90747400  0.95561000  0.61946600  1
  O  O15  1  0.40900700  0.34791500  0.71933300  1
  O  O16  1  0.83395100  0.07000100  0.81083300  1
  O  O17  1  0.24450500  0.90334700  0.73108700  1
loop_
_geom_bond_atom_site_label_1
_geom_bond_atom_site_label_2
_geom_bond_distance
_geom_bond_site_symmetry_2
Li0 O9 1.937195 1_555
Li0 O4 1.974106 1_555
Li0 O3 2.072725 1_455
Li0 O0 2.074914 1_554
Li1 O16 1.937195 1_555
Li1 O1 1.974106 1_555
Li1 O2 2.072725 1_655
Li1 O5 2.074914 1_556
Li2 O13 1.909103 1_555
Li2 O11 1.967316 1_555
Li2 O8 1.998685 1_545
Li2 O10 2.003545 1_555
Li3 O8 1.909103 1_555
Li3 O17 1.967316 1_555
Li3 O13 1.998685 1_565
Li3 O14 2.003545 1_555
Mn0 O16 2.019131 1_555
Mn0 O15 2.019395 1_555
Mn0 O0 2.050512 1_545
Mn0 O2 2.061270 1_555
Mn0 O17 2.085966 1_545
Mn1 O4 2.084341 1_655
Mn1 O7 2.104079 1_555
Mn1 O11 2.180923 1_555
Mn1 O5 2.221141 1_555
Mn1 O3 2.271910 1_555
Mn2 O12 2.078229 1_555
Mn2 O8 2.079039 1_555
Mn2 O6 2.086708 1_455
Mn2 O14 2.166579 1_455
Mn2 O10 2.184177 1_565
Mn3 O9 2.019131 1_555
Mn3 O7 2.019395 1_555
Mn3 O5 2.050512 1_565
Mn3 O3 2.061270 1_555
Mn3 O11 2.085966 1_565
Mn4 O6 2.078229 1_555
Mn4 O13 2.079039 1_555
Mn4 O12 2.086708 1_655
Mn4 O10 2.166579 1_655
Mn4 O14 2.184177 1_545
Mn5 O1 2.084341 1_455
Mn5 O15 2.104079 1_555
Mn5 O17 2.180923 1_555
Mn5 O0 2.221141 1_555
Mn5 O2 2.271910 1_555
B0 O1 1.350815 1_555
B0 O3 1.402206 1_556
B0 O0 1.431601 1_555
B1 O4 1.350815 1_555
B1 O2 1.402206 1_554
B1 O5 1.431601 1_555
B2 O6 1.372510 1_555
B2 O8 1.372539 1_555
B2 O7 1.403562 1_555
B3 O9 1.363121 1_545
B3 O10 1.393163 1_555
B3 O11 1.412996 1_455
B4 O12 1.372510 1_555
B4 O13 1.372539 1_555
B4 O15 1.403562 1_555
B5 O16 1.363121 1_565
B5 O14 1.393163 1_555
B5 O17 1.412996 1_655
