# generated using pymatgen
data_Na5CrHO4
_symmetry_space_group_name_H-M   'P 1'
_cell_length_a   10.09171900
_cell_length_b   10.13168500
_cell_length_c   12.36299200
_cell_angle_alpha   90.00000000
_cell_angle_beta   90.00000000
_cell_angle_gamma   90.00000000
_symmetry_Int_Tables_number   1
_chemical_formula_structural   Na5CrHO4
_chemical_formula_sum   'Na40 Cr8 H8 O32'
_cell_volume   1264.06793907
_cell_formula_units_Z   8
loop_
 _symmetry_equiv_pos_site_id
 _symmetry_equiv_pos_as_xyz
  1  'x, y, z'
loop_
 _atom_site_type_symbol
 _atom_site_label
 _atom_site_symmetry_multiplicity
 _atom_site_fract_x
 _atom_site_fract_y
 _atom_site_fract_z
 _atom_site_occupancy
  Na  Na0  1  0.99237500  0.59107700  0.20963500  1
  Na  Na1  1  0.99237500  0.90892300  0.20963500  1
  Na  Na2  1  0.07892000  0.07189500  0.41428700  1
  Na  Na3  1  0.07892000  0.42810500  0.41428700  1
  Na  Na4  1  0.08733500  0.75000000  0.44896500  1
  Na  Na5  1  0.11887100  0.25000000  0.98590400  1
  Na  Na6  1  0.12981300  0.56921800  0.98412600  1
  Na  Na7  1  0.12981300  0.93078200  0.98412600  1
  Na  Na8  1  0.22081600  0.58359400  0.68039400  1
  Na  Na9  1  0.22081600  0.91640600  0.68039400  1
  Na  Na10  1  0.27918400  0.08359400  0.18039400  1
  Na  Na11  1  0.27918400  0.41640600  0.18039400  1
  Na  Na12  1  0.37018700  0.06921800  0.48412600  1
  Na  Na13  1  0.37018700  0.43078200  0.48412600  1
  Na  Na14  1  0.38112900  0.75000000  0.48590400  1
  Na  Na15  1  0.41266500  0.25000000  0.94896500  1
  Na  Na16  1  0.42108000  0.57189500  0.91428700  1
  Na  Na17  1  0.42108000  0.92810500  0.91428700  1
  Na  Na18  1  0.50762500  0.09107700  0.70963500  1
  Na  Na19  1  0.50762500  0.40892300  0.70963500  1
  Na  Na20  1  0.49237500  0.59107700  0.29036500  1
  Na  Na21  1  0.49237500  0.90892300  0.29036500  1
  Na  Na22  1  0.57892000  0.07189500  0.08571300  1
  Na  Na23  1  0.57892000  0.42810500  0.08571300  1
  Na  Na24  1  0.58733500  0.75000000  0.05103500  1
  Na  Na25  1  0.61887100  0.25000000  0.51409600  1
  Na  Na26  1  0.62981300  0.56921800  0.51587400  1
  Na  Na27  1  0.62981300  0.93078200  0.51587400  1
  Na  Na28  1  0.72081600  0.58359400  0.81960600  1
  Na  Na29  1  0.72081600  0.91640600  0.81960600  1
  Na  Na30  1  0.77918400  0.08359400  0.31960600  1
  Na  Na31  1  0.77918400  0.41640600  0.31960600  1
  Na  Na32  1  0.87018700  0.06921800  0.01587400  1
  Na  Na33  1  0.87018700  0.43078200  0.01587400  1
  Na  Na34  1  0.88112900  0.75000000  0.01409600  1
  Na  Na35  1  0.91266500  0.25000000  0.55103500  1
  Na  Na36  1  0.92108000  0.92810500  0.58571300  1
  Na  Na37  1  0.92108000  0.57189500  0.58571300  1
  Na  Na38  1  0.00762500  0.09107700  0.79036500  1
  Na  Na39  1  0.00762500  0.40892300  0.79036500  1
  Cr  Cr0  1  0.01064500  0.25000000  0.21056400  1
  Cr  Cr1  1  0.20105800  0.25000000  0.62016500  1
  Cr  Cr2  1  0.29894200  0.75000000  0.12016500  1
  Cr  Cr3  1  0.48935500  0.75000000  0.71056400  1
  Cr  Cr4  1  0.51064500  0.25000000  0.28943600  1
  Cr  Cr5  1  0.70105800  0.25000000  0.87983500  1
  Cr  Cr6  1  0.79894200  0.75000000  0.37983500  1
  Cr  Cr7  1  0.98935500  0.75000000  0.78943600  1
  H  H0  1  0.24442800  0.63361300  0.31827600  1
  H  H1  1  0.24442800  0.86638700  0.31827600  1
  H  H2  1  0.25557200  0.13361300  0.81827600  1
  H  H3  1  0.25557200  0.36638700  0.81827600  1
  H  H4  1  0.74442800  0.63361300  0.18172400  1
  H  H5  1  0.74442800  0.86638700  0.18172400  1
  H  H6  1  0.75557200  0.13361300  0.68172400  1
  H  H7  1  0.75557200  0.36638700  0.68172400  1
  O  O0  1  0.06039400  0.75000000  0.64352100  1
  O  O1  1  0.06203400  0.40364000  0.12143100  1
  O  O2  1  0.06203400  0.09636000  0.12143100  1
  O  O3  1  0.10160900  0.40055000  0.61008900  1
  O  O4  1  0.10160900  0.09945000  0.61008900  1
  O  O5  1  0.11668500  0.75000000  0.11655800  1
  O  O6  1  0.25113300  0.08468900  0.88606900  1
  O  O7  1  0.25113300  0.41531100  0.88606900  1
  O  O8  1  0.24886700  0.58468900  0.38606900  1
  O  O9  1  0.24886700  0.91531100  0.38606900  1
  O  O10  1  0.38331500  0.25000000  0.61655800  1
  O  O11  1  0.39839100  0.59945000  0.11008900  1
  O  O12  1  0.39839100  0.90055000  0.11008900  1
  O  O13  1  0.43796600  0.59636000  0.62143100  1
  O  O14  1  0.43796600  0.90364000  0.62143100  1
  O  O15  1  0.43960600  0.25000000  0.14352100  1
  O  O16  1  0.56039400  0.75000000  0.85647900  1
  O  O17  1  0.56203400  0.09636000  0.37856900  1
  O  O18  1  0.56203400  0.40364000  0.37856900  1
  O  O19  1  0.60160900  0.09945000  0.88991100  1
  O  O20  1  0.60160900  0.40055000  0.88991100  1
  O  O21  1  0.61668500  0.75000000  0.38344200  1
  O  O22  1  0.75113300  0.08468900  0.61393100  1
  O  O23  1  0.75113300  0.41531100  0.61393100  1
  O  O24  1  0.74886700  0.58468900  0.11393100  1
  O  O25  1  0.74886700  0.91531100  0.11393100  1
  O  O26  1  0.88331500  0.25000000  0.88344200  1
  O  O27  1  0.89839100  0.90055000  0.38991100  1
  O  O28  1  0.89839100  0.59945000  0.38991100  1
  O  O29  1  0.93796600  0.90364000  0.87856900  1
  O  O30  1  0.93796600  0.59636000  0.87856900  1
  O  O31  1  0.93960600  0.25000000  0.35647900  1
loop_
_geom_bond_atom_site_label_1
_geom_bond_atom_site_label_2
_geom_bond_distance
_geom_bond_site_symmetry_2
Na0 O1 2.299934 1_655
Na0 O5 2.343185 1_655
Na0 O28 2.423655 1_555
Na1 O2 2.299934 1_665
Na1 O5 2.343185 1_655
Na1 O27 2.423655 1_555
Na2 O9 2.362198 1_545
Na2 O31 2.396582 1_455
Na2 O4 2.447478 1_555
Na2 O27 2.534500 1_445
Na3 O8 2.362198 1_555
Na3 O31 2.396582 1_455
Na3 O3 2.447478 1_555
Na3 O28 2.534500 1_455
Na4 O0 2.420611 1_555
Na4 O8 2.463168 1_555
Na4 O9 2.463168 1_555
Na4 O28 2.548610 1_455
Na4 O27 2.548610 1_455
Na5 O2 2.357852 1_556
Na5 O1 2.357852 1_556
Na5 O6 2.471877 1_555
Na5 O7 2.471877 1_555
Na5 O26 2.693610 1_455
Na6 O7 2.323818 1_555
Na6 O30 2.350957 1_455
Na6 O5 2.460287 1_556
Na6 O1 2.482672 1_556
Na7 O6 2.323818 1_565
Na7 O29 2.350957 1_455
Na7 O5 2.460287 1_556
Na7 O2 2.482672 1_566
Na8 O13 2.313097 1_555
Na8 O3 2.375295 1_555
Na8 O0 2.381441 1_555
Na9 O14 2.313097 1_555
Na9 O4 2.375295 1_565
Na9 O0 2.381441 1_555
Na10 O2 2.313097 1_555
Na10 O12 2.375295 1_545
Na10 O15 2.381441 1_555
Na11 O1 2.313097 1_555
Na11 O11 2.375295 1_555
Na11 O15 2.381441 1_555
Na12 O9 2.323818 1_545
Na12 O17 2.350957 1_555
Na12 O10 2.460287 1_555
Na12 O14 2.482672 1_545
Na13 O8 2.323818 1_555
Na13 O18 2.350957 1_555
Na13 O10 2.460287 1_555
Na13 O13 2.482672 1_555
Na14 O13 2.357852 1_555
Na14 O14 2.357852 1_555
Na14 O9 2.471877 1_555
Na14 O8 2.471877 1_555
Na14 O21 2.693610 1_555
Na15 O15 2.420611 1_556
Na15 O7 2.463168 1_555
Na15 O6 2.463168 1_555
Na15 O19 2.548610 1_555
Na15 O20 2.548610 1_555
Na16 O7 2.362198 1_555
Na16 O16 2.396582 1_555
Na16 O11 2.447478 1_556
Na16 O20 2.534500 1_555
Na17 O6 2.362198 1_565
Na17 O16 2.396582 1_555
Na17 O12 2.447478 1_556
Na17 O19 2.534500 1_565
Na18 O14 2.299934 1_545
Na18 O10 2.343185 1_555
Na18 O19 2.423655 1_555
Na19 O13 2.299934 1_555
Na19 O10 2.343185 1_555
Na19 O20 2.423655 1_555
Na20 O18 2.299934 1_555
Na20 O21 2.343185 1_555
Na20 O11 2.423655 1_555
Na21 O17 2.299934 1_565
Na21 O21 2.343185 1_555
Na21 O12 2.423655 1_555
Na22 O25 2.362198 1_545
Na22 O15 2.396582 1_555
Na22 O19 2.447478 1_554
Na22 O12 2.534500 1_545
Na23 O24 2.362198 1_555
Na23 O15 2.396582 1_555
Na23 O20 2.447478 1_554
Na23 O11 2.534500 1_555
Na24 O16 2.420611 1_554
Na24 O25 2.463168 1_555
Na24 O24 2.463168 1_555
Na24 O11 2.548610 1_555
Na24 O12 2.548610 1_555
Na25 O17 2.357852 1_555
Na25 O18 2.357852 1_555
Na25 O22 2.471877 1_555
Na25 O23 2.471877 1_555
Na25 O10 2.693610 1_555
Na26 O23 2.323818 1_555
Na26 O13 2.350957 1_555
Na26 O21 2.460287 1_555
Na26 O18 2.482672 1_555
Na27 O22 2.323818 1_565
Na27 O14 2.350957 1_555
Na27 O21 2.460287 1_555
Na27 O17 2.482672 1_565
Na28 O30 2.313097 1_555
Na28 O20 2.375295 1_555
Na28 O16 2.381441 1_555
Na29 O29 2.313097 1_555
Na29 O19 2.375295 1_565
Na29 O16 2.381441 1_555
Na30 O17 2.313097 1_555
Na30 O27 2.375295 1_545
Na30 O31 2.381441 1_555
Na31 O18 2.313097 1_555
Na31 O28 2.375295 1_555
Na31 O31 2.381441 1_555
Na32 O25 2.323818 1_545
Na32 O2 2.350957 1_655
Na32 O26 2.460287 1_554
Na32 O29 2.482672 1_544
Na33 O24 2.323818 1_555
Na33 O1 2.350957 1_655
Na33 O26 2.460287 1_554
Na33 O30 2.482672 1_554
Na34 O30 2.357852 1_554
Na34 O29 2.357852 1_554
Na34 O25 2.471877 1_555
Na34 O24 2.471877 1_555
Na34 O5 2.693610 1_655
Na35 O31 2.420611 1_555
Na35 O22 2.463168 1_555
Na35 O23 2.463168 1_555
Na35 O3 2.548610 1_655
Na35 O4 2.548610 1_655
Na36 O22 2.362198 1_565
Na36 O0 2.396582 1_655
Na36 O27 2.447478 1_555
Na36 O4 2.534500 1_665
Na37 O23 2.362198 1_555
Na37 O0 2.396582 1_655
Na37 O28 2.447478 1_555
Na37 O3 2.534500 1_655
Na38 O29 2.299934 1_445
Na38 O26 2.343185 1_455
Na38 O4 2.423655 1_555
Na39 O30 2.299934 1_455
Na39 O26 2.343185 1_455
Na39 O3 2.423655 1_555
Cr0 O31 1.941179 1_455
Cr0 O2 1.976448 1_555
Cr0 O1 1.976448 1_555
Cr1 O3 1.830128 1_555
Cr1 O4 1.830128 1_555
Cr1 O10 1.839827 1_555
Cr2 O11 1.830128 1_555
Cr2 O12 1.830128 1_555
Cr2 O5 1.839827 1_555
Cr3 O16 1.941179 1_555
Cr3 O13 1.976448 1_555
Cr3 O14 1.976448 1_555
Cr4 O15 1.941179 1_555
Cr4 O17 1.976448 1_555
Cr4 O18 1.976448 1_555
Cr5 O19 1.830128 1_555
Cr5 O20 1.830128 1_555
Cr5 O26 1.839827 1_555
Cr6 O28 1.830128 1_555
Cr6 O27 1.830128 1_555
Cr6 O21 1.839827 1_555
Cr7 O0 1.941179 1_655
Cr7 O30 1.976448 1_555
Cr7 O29 1.976448 1_555
H0 O8 0.974762 1_555
H1 O9 0.974762 1_555
H2 O6 0.974762 1_555
H3 O7 0.974762 1_555
H4 O24 0.974762 1_555
H5 O25 0.974762 1_555
H6 O22 0.974762 1_555
H7 O23 0.974762 1_555
