# generated using pymatgen
data_Co6O7F5
_symmetry_space_group_name_H-M   'P 1'
_cell_length_a   5.47300500
_cell_length_b   5.47300500
_cell_length_c   7.50769461
_cell_angle_alpha   70.08125370
_cell_angle_beta   70.08125370
_cell_angle_gamma   69.14944902
_symmetry_Int_Tables_number   1
_chemical_formula_structural   Co6O7F5
_chemical_formula_sum   'Co6 O7 F5'
_cell_volume   191.32337856
_cell_formula_units_Z   1
loop_
 _symmetry_equiv_pos_site_id
 _symmetry_equiv_pos_as_xyz
  1  'x, y, z'
loop_
 _atom_site_type_symbol
 _atom_site_label
 _atom_site_symmetry_multiplicity
 _atom_site_fract_x
 _atom_site_fract_y
 _atom_site_fract_z
 _atom_site_occupancy
  Co  Co0  1  0.69629900  0.67930700  0.85458100  1
  Co  Co1  1  0.66966100  0.65827300  0.32780300  1
  Co  Co2  1  0.34172700  0.33033900  0.67219700  1
  Co  Co3  1  0.32069300  0.30370100  0.14541900  1
  Co  Co4  1  0.00366000  0.99634000  0.50000000  1
  Co  Co5  1  0.98021300  0.01978700  0.00000000  1
  O  O0  1  0.96424800  0.35373700  0.33045100  1
  O  O1  1  0.64626300  0.03575200  0.66954900  1
  O  O2  1  0.21611300  0.22845100  0.96491800  1
  O  O3  1  0.77154900  0.78388700  0.03508200  1
  O  O4  1  0.36136900  0.95693700  0.33259100  1
  O  O5  1  0.04306300  0.63863100  0.66740900  1
  O  O6  1  0.68292500  0.31707500  0.00000000  1
  F  F0  1  0.57390200  0.57136500  0.62863400  1
  F  F1  1  0.89645500  0.89252300  0.29905900  1
  F  F2  1  0.42863500  0.42609800  0.37136600  1
  F  F3  1  0.10747700  0.10354500  0.70094100  1
  F  F4  1  0.29574800  0.70425200  0.00000000  1
loop_
_geom_bond_atom_site_label_1
_geom_bond_atom_site_label_2
_geom_bond_distance
_geom_bond_site_symmetry_2
Co0 O3 1.846680 1_556
Co0 O6 1.923972 1_556
Co0 O5 1.929059 1_655
Co0 O1 1.960322 1_565
Co0 F4 2.067394 1_556
Co0 F0 2.326831 1_555
Co1 O0 1.861219 1_555
Co1 O4 1.885598 1_555
Co1 F1 1.998175 1_555
Co1 O3 2.005424 1_555
Co1 F2 2.019369 1_555
Co1 F0 2.059342 1_555
Co2 O1 1.861219 1_555
Co2 O5 1.885598 1_555
Co2 F3 1.998175 1_555
Co2 O2 2.005424 1_555
Co2 F0 2.019369 1_555
Co2 F2 2.059342 1_555
Co3 O2 1.846680 1_554
Co3 O6 1.923972 1_555
Co3 O4 1.929059 1_545
Co3 O0 1.960322 1_455
Co3 F4 2.067394 1_555
Co3 F2 2.326831 1_555
Co4 O5 1.914811 1_555
Co4 O4 1.914811 1_555
Co4 O0 1.919148 1_465
Co4 O1 1.919148 1_465
Co4 F3 2.089851 1_565
Co4 F1 2.089851 1_455
Co5 O6 1.846648 1_555
Co5 O2 1.911392 1_654
Co5 O3 1.911392 1_545
Co5 F4 1.959992 1_645
Co5 F1 2.048614 1_545
Co5 F3 2.048614 1_654
