# generated using pymatgen
data_NaCrCSO7
_symmetry_space_group_name_H-M   'P 1'
_cell_length_a   6.43428200
_cell_length_b   5.29649800
_cell_length_c   9.06159994
_cell_angle_alpha   87.65369238
_cell_angle_beta   90.00000000
_cell_angle_gamma   90.00000000
_symmetry_Int_Tables_number   1
_chemical_formula_structural   NaCrCSO7
_chemical_formula_sum   'Na2 Cr2 C2 S2 O14'
_cell_volume   308.55283267
_cell_formula_units_Z   2
loop_
 _symmetry_equiv_pos_site_id
 _symmetry_equiv_pos_as_xyz
  1  'x, y, z'
loop_
 _atom_site_type_symbol
 _atom_site_label
 _atom_site_symmetry_multiplicity
 _atom_site_fract_x
 _atom_site_fract_y
 _atom_site_fract_z
 _atom_site_occupancy
  Na  Na0  1  0.51488800  0.76164000  0.77894900  1
  Na  Na1  1  0.01488800  0.23836000  0.22105100  1
  Cr  Cr0  1  0.24059700  0.22054700  0.65982900  1
  Cr  Cr1  1  0.74059700  0.77945300  0.34017100  1
  C  C0  1  0.25771300  0.27580100  0.92175700  1
  C  C1  1  0.75771300  0.72419900  0.07824300  1
  S  S0  1  0.74528700  0.27672900  0.57183000  1
  S  S1  1  0.24528700  0.72327100  0.42817000  1
  O  O0  1  0.75683900  0.69323600  0.94465800  1
  O  O1  1  0.25507800  0.05337800  0.85785700  1
  O  O2  1  0.25877700  0.46303200  0.81723500  1
  O  O3  1  0.92576400  0.21723900  0.66719300  1
  O  O4  1  0.56025500  0.19729400  0.66062600  1
  O  O5  1  0.25453600  0.86119100  0.56735600  1
  O  O6  1  0.73241600  0.55453300  0.53558200  1
  O  O7  1  0.23241600  0.44546700  0.46441800  1
  O  O8  1  0.75453600  0.13880900  0.43264400  1
  O  O9  1  0.06025500  0.80270600  0.33937400  1
  O  O10  1  0.42576400  0.78276100  0.33280700  1
  O  O11  1  0.75877700  0.53696800  0.18276500  1
  O  O12  1  0.75507800  0.94662200  0.14214300  1
  O  O13  1  0.25683900  0.30676400  0.05534200  1
loop_
_geom_bond_atom_site_label_1
_geom_bond_atom_site_label_2
_geom_bond_distance
_geom_bond_site_symmetry_2
Na0 O0 2.182900 1_555
Na0 O2 2.300514 1_555
Na0 O1 2.404974 1_565
Na0 O4 2.521215 1_565
Na0 O5 2.584139 1_555
Na0 O6 2.867692 1_555
Na1 O13 2.182900 1_555
Na1 O11 2.300514 1_455
Na1 O12 2.404974 1_445
Na1 O9 2.521215 1_545
Na1 O8 2.584139 1_455
Na1 O7 2.867692 1_555
Cr0 O2 1.961538 1_555
Cr0 O1 1.970430 1_555
Cr0 O3 2.026875 1_455
Cr0 O4 2.060449 1_555
Cr0 O7 2.093974 1_555
Cr0 O5 2.112689 1_545
Cr1 O11 1.961538 1_555
Cr1 O12 1.970430 1_555
Cr1 O10 2.026875 1_555
Cr1 O9 2.060449 1_655
Cr1 O6 2.093974 1_555
Cr1 O8 2.112689 1_565
C0 O13 1.228200 1_556
C0 O1 1.333887 1_555
C0 O2 1.342988 1_555
C1 O0 1.228200 1_554
C1 O12 1.333887 1_555
C1 O11 1.342988 1_555
O3 S0 1.473840 1_555
O4 S0 1.487996 1_555
O5 S1 1.484367 1_555
O6 S0 1.496716 1_555
O7 S1 1.496716 1_555
O8 S0 1.484367 1_555
O9 S1 1.487996 1_555
O10 S1 1.473840 1_555
