# generated using pymatgen
data_Li6Cr3Sb(PO4)6
_symmetry_space_group_name_H-M   'P 1'
_cell_length_a   8.47321600
_cell_length_b   8.52242715
_cell_length_c   8.52489411
_cell_angle_alpha   63.33039754
_cell_angle_beta   63.48068337
_cell_angle_gamma   63.21577082
_symmetry_Int_Tables_number   1
_chemical_formula_structural   Li6Cr3Sb(PO4)6
_chemical_formula_sum   'Li6 Cr3 Sb1 P6 O24'
_cell_volume   467.50511179
_cell_formula_units_Z   1
loop_
 _symmetry_equiv_pos_site_id
 _symmetry_equiv_pos_as_xyz
  1  'x, y, z'
loop_
 _atom_site_type_symbol
 _atom_site_label
 _atom_site_symmetry_multiplicity
 _atom_site_fract_x
 _atom_site_fract_y
 _atom_site_fract_z
 _atom_site_occupancy
  Li  Li0  1  0.02216000  0.99709300  0.99436400  1
  Li  Li1  1  0.75620200  0.13246300  0.34295100  1
  Li  Li2  1  0.46435500  0.50374600  0.50058100  1
  Li  Li3  1  0.27680600  0.83173900  0.63845300  1
  Li  Li4  1  0.63682700  0.28092600  0.82329400  1
  Li  Li5  1  0.82626200  0.63601500  0.28102200  1
  Cr  Cr0  1  0.13709200  0.14506400  0.13773400  1
  Cr  Cr1  1  0.35906300  0.35444600  0.35049500  1
  Cr  Cr2  1  0.64689600  0.65245000  0.65001000  1
  Sb  Sb0  1  0.84779800  0.84442000  0.84605100  1
  P  P0  1  0.06674000  0.75455000  0.43485400  1
  P  P1  1  0.43366800  0.06925600  0.75464900  1
  P  P2  1  0.75217100  0.44046700  0.06208300  1
  P  P3  1  0.25778500  0.53619900  0.95267300  1
  P  P4  1  0.54116900  0.95729900  0.25730000  1
  P  P5  1  0.95005800  0.25562000  0.53277400  1
  O  O0  1  0.12531100  0.29707000  0.47957200  1
  O  O1  1  0.32429700  0.49636700  0.10765700  1
  O  O2  1  0.05542500  0.91743100  0.25287200  1
  O  O3  1  0.53591600  0.11144100  0.30756000  1
  O  O4  1  0.24255300  0.59013400  0.40673500  1
  O  O5  1  0.08246100  0.81067100  0.57562200  1
  O  O6  1  0.24635500  0.07310700  0.90833900  1
  O  O7  1  0.42062800  0.24464600  0.58507600  1
  O  O8  1  0.59441500  0.41325900  0.24779400  1
  O  O9  1  0.18673700  0.38699400  0.98296800  1
  O  O10  1  0.11090500  0.73798200  0.92052900  1
  O  O11  1  0.37534200  0.00674900  0.20034100  1
  O  O12  1  0.57733600  0.07496000  0.81627600  1
  O  O13  1  0.90107500  0.24626000  0.07254800  1
  O  O14  1  0.81652800  0.57990600  0.06840900  1
  O  O15  1  0.42425900  0.54872800  0.76450700  1
  O  O16  1  0.54381500  0.77396400  0.42757800  1
  O  O17  1  0.73846100  0.90978800  0.11019500  1
  O  O18  1  0.95455000  0.19331100  0.38630500  1
  O  O19  1  0.77098300  0.43111900  0.54625800  1
  O  O20  1  0.49306000  0.89092300  0.70620100  1
  O  O21  1  0.91852800  0.11214900  0.73337000  1
  O  O22  1  0.70288700  0.49805900  0.88666100  1
  O  O23  1  0.88311900  0.71223100  0.49833800  1
loop_
_geom_bond_atom_site_label_1
_geom_bond_atom_site_label_2
_geom_bond_distance
_geom_bond_site_symmetry_2
Li0 O6 2.001191 1_565
Li0 O2 2.106190 1_556
Li0 O13 2.168519 1_466
Li0 O10 2.273003 1_555
Li0 O21 2.386024 1_465
Li0 O17 2.477878 1_456
Li1 O13 2.073728 1_555
Li1 O3 2.111837 1_555
Li1 O8 2.134904 1_555
Li1 O18 2.177682 1_555
Li1 O2 2.390263 1_645
Li2 O4 2.069062 1_555
Li2 O7 2.145531 1_555
Li2 O8 2.249060 1_555
Li2 O15 2.301937 1_555
Li2 O16 2.425015 1_555
Li2 O19 2.553961 1_555
Li3 O5 2.042379 1_555
Li3 O10 2.160050 1_555
Li3 O15 2.165532 1_555
Li3 O16 2.179758 1_555
Li3 O20 2.446437 1_555
Li4 O12 2.063378 1_555
Li4 O21 2.148374 1_555
Li4 O19 2.169909 1_555
Li4 O15 2.186010 1_555
Li4 O22 2.475961 1_555
Li5 O14 2.113696 1_555
Li5 O17 2.114470 1_555
Li5 O19 2.151333 1_555
Li5 O16 2.187079 1_555
Li5 O23 2.499077 1_555
Cr0 O11 2.000598 1_555
Cr0 O6 2.001385 1_554
Cr0 O9 2.003221 1_554
Cr0 O13 2.014855 1_455
Cr0 O2 2.024797 1_545
Cr0 O18 2.081794 1_455
Cr1 O1 1.952187 1_555
Cr1 O0 1.953573 1_555
Cr1 O4 1.973254 1_555
Cr1 O8 1.985532 1_555
Cr1 O7 1.989635 1_555
Cr1 O3 2.015490 1_555
Cr2 O22 1.983823 1_555
Cr2 O23 1.988541 1_555
Cr2 O20 1.996954 1_555
Cr2 O19 2.079808 1_555
Cr2 O16 2.081327 1_555
Cr2 O15 2.092100 1_555
O0 P5 1.504363 1_455
O1 P3 1.506108 1_554
O2 P0 1.556462 1_555
O3 P4 1.531931 1_545
O4 P0 1.530174 1_555
O5 P0 1.549835 1_555
O5 Sb0 2.310287 1_455
O6 P1 1.539935 1_555
O7 P1 1.546052 1_555
O8 P2 1.551443 1_555
O9 P3 1.517341 1_555
O10 P3 1.591824 1_555
O10 Sb0 2.262832 1_455
O11 P4 1.509814 1_545
O12 P1 1.551655 1_555
O12 Sb0 2.278212 1_545
O13 P2 1.557286 1_555
O14 P2 1.542822 1_555
O14 Sb0 2.235865 1_554
O15 P3 1.592369 1_555
O16 P4 1.584424 1_555
O17 P4 1.582678 1_555
O17 Sb0 2.244388 1_554
O18 P5 1.541778 1_555
O19 P5 1.582971 1_555
O20 P1 1.556366 1_565
O21 P5 1.581188 1_555
O21 Sb0 2.288856 1_545
O22 P2 1.538087 1_556
O23 P0 1.556361 1_655
