# generated using pymatgen
data_InH11S2O13
_symmetry_space_group_name_H-M   'P 1'
_cell_length_a   10.89719600
_cell_length_b   9.28217800
_cell_length_c   10.53276058
_cell_angle_alpha   80.48665751
_cell_angle_beta   90.00000000
_cell_angle_gamma   90.00000000
_symmetry_Int_Tables_number   1
_chemical_formula_structural   InH11S2O13
_chemical_formula_sum   'In4 H44 S8 O52'
_cell_volume   1050.73360914
_cell_formula_units_Z   4
loop_
 _symmetry_equiv_pos_site_id
 _symmetry_equiv_pos_as_xyz
  1  'x, y, z'
loop_
 _atom_site_type_symbol
 _atom_site_label
 _atom_site_symmetry_multiplicity
 _atom_site_fract_x
 _atom_site_fract_y
 _atom_site_fract_z
 _atom_site_occupancy
  In  In0  1  0.63732100  0.40648500  0.20880500  1
  In  In1  1  0.86267900  0.90648500  0.20880500  1
  In  In2  1  0.13732100  0.09351500  0.79119500  1
  In  In3  1  0.36267900  0.59351500  0.79119500  1
  H  H0  1  0.67723800  0.10454900  0.08849200  1
  H  H1  1  0.86975200  0.43571500  0.09507100  1
  H  H2  1  0.82276200  0.60454900  0.08849200  1
  H  H3  1  0.30957100  0.40720800  0.14449200  1
  H  H4  1  0.20997300  0.03753900  0.24899900  1
  H  H5  1  0.63024800  0.93571500  0.09507100  1
  H  H6  1  0.19042900  0.90720800  0.14449200  1
  H  H7  1  0.17727100  0.41847400  0.22286800  1
  H  H8  1  0.29002700  0.53753900  0.24899900  1
  H  H9  1  0.48028700  0.17768500  0.32363400  1
  H  H10  1  0.08169800  0.15662200  0.34305700  1
  H  H11  1  0.97654300  0.42512600  0.34639600  1
  H  H12  1  0.32272900  0.91847400  0.22286800  1
  H  H13  1  0.21396800  0.17546500  0.39310600  1
  H  H14  1  0.01971300  0.67768500  0.32363400  1
  H  H15  1  0.47251200  0.30339900  0.40947300  1
  H  H16  1  0.41830200  0.65662200  0.34305700  1
  H  H17  1  0.09650200  0.45255400  0.41831300  1
  H  H18  1  0.52345700  0.92512600  0.34639600  1
  H  H19  1  0.28603200  0.67546500  0.39310600  1
  H  H20  1  0.02748800  0.80339900  0.40947300  1
  H  H21  1  0.40349800  0.95255400  0.41831300  1
  H  H22  1  0.59650200  0.04744600  0.58168700  1
  H  H23  1  0.97251200  0.19660100  0.59052700  1
  H  H24  1  0.71396800  0.32453500  0.60689400  1
  H  H25  1  0.47654300  0.07487400  0.65360400  1
  H  H26  1  0.90349800  0.54744600  0.58168700  1
  H  H27  1  0.58169800  0.34337800  0.65694300  1
  H  H28  1  0.52748800  0.69660100  0.59052700  1
  H  H29  1  0.98028700  0.32231500  0.67636600  1
  H  H30  1  0.78603200  0.82453500  0.60689400  1
  H  H31  1  0.67727100  0.08152600  0.77713200  1
  H  H32  1  0.02345700  0.57487400  0.65360400  1
  H  H33  1  0.91830200  0.84337800  0.65694300  1
  H  H34  1  0.51971300  0.82231500  0.67636600  1
  H  H35  1  0.70997300  0.46246100  0.75100100  1
  H  H36  1  0.82272900  0.58152600  0.77713200  1
  H  H37  1  0.80957100  0.09279200  0.85550800  1
  H  H38  1  0.36975200  0.06428500  0.90492900  1
  H  H39  1  0.79002700  0.96246100  0.75100100  1
  H  H40  1  0.69042900  0.59279200  0.85550800  1
  H  H41  1  0.17723800  0.39545100  0.91150800  1
  H  H42  1  0.13024800  0.56428500  0.90492900  1
  H  H43  1  0.32276200  0.89545100  0.91150800  1
  S  S0  1  0.98079300  0.20823600  0.02564200  1
  S  S1  1  0.51920700  0.70823600  0.02564200  1
  S  S2  1  0.80902600  0.14687500  0.39839400  1
  S  S3  1  0.69097400  0.64687500  0.39839400  1
  S  S4  1  0.30902600  0.35312500  0.60160600  1
  S  S5  1  0.19097400  0.85312500  0.60160600  1
  S  S6  1  0.48079300  0.29176400  0.97435800  1
  S  S7  1  0.01920700  0.79176400  0.97435800  1
  O  O0  1  0.37117500  0.30087800  0.05275800  1
  O  O1  1  0.59682500  0.28223200  0.05685200  1
  O  O2  1  0.99453300  0.07151300  0.12624400  1
  O  O3  1  0.98365000  0.33712000  0.08956600  1
  O  O4  1  0.12882500  0.80087800  0.05275800  1
  O  O5  1  0.79803000  0.50090700  0.10885300  1
  O  O6  1  0.90317500  0.78223200  0.05685200  1
  O  O7  1  0.50546700  0.57151300  0.12624400  1
  O  O8  1  0.51635000  0.83712000  0.08956600  1
  O  O9  1  0.25154600  0.47007200  0.18719400  1
  O  O10  1  0.70197000  0.00090700  0.10885300  1
  O  O11  1  0.76232600  0.22135400  0.27031100  1
  O  O12  1  0.45661400  0.99563400  0.34562300  1
  O  O13  1  0.16883800  0.15093900  0.31910100  1
  O  O14  1  0.24845400  0.97007200  0.18719400  1
  O  O15  1  0.48351200  0.28706500  0.31927900  1
  O  O16  1  0.73767400  0.72135400  0.27031100  1
  O  O17  1  0.04338600  0.49563400  0.34562300  1
  O  O18  1  0.33116200  0.65093900  0.31910100  1
  O  O19  1  0.93093000  0.20957100  0.42450700  1
  O  O20  1  0.01648800  0.78706500  0.31927900  1
  O  O21  1  0.67405000  0.48749200  0.38689800  1
  O  O22  1  0.72214700  0.15724500  0.50268500  1
  O  O23  1  0.56907000  0.70957100  0.42450700  1
  O  O24  1  0.82595000  0.98749200  0.38689800  1
  O  O25  1  0.22214700  0.34275500  0.49731500  1
  O  O26  1  0.77785300  0.65724500  0.50268500  1
  O  O27  1  0.17405000  0.01250800  0.61310200  1
  O  O28  1  0.43093000  0.29042900  0.57549300  1
  O  O29  1  0.27785300  0.84275500  0.49731500  1
  O  O30  1  0.32595000  0.51250800  0.61310200  1
  O  O31  1  0.98351200  0.21293500  0.68072100  1
  O  O32  1  0.06907000  0.79042900  0.57549300  1
  O  O33  1  0.66883800  0.34906100  0.68089900  1
  O  O34  1  0.95661400  0.50436600  0.65437700  1
  O  O35  1  0.26232600  0.27864600  0.72968900  1
  O  O36  1  0.51648800  0.71293500  0.68072100  1
  O  O37  1  0.75154600  0.02992800  0.81280600  1
  O  O38  1  0.83116200  0.84906100  0.68089900  1
  O  O39  1  0.54338600  0.00436600  0.65437700  1
  O  O40  1  0.23767400  0.77864600  0.72968900  1
  O  O41  1  0.29803000  0.99909300  0.89114700  1
  O  O42  1  0.74845400  0.52992800  0.81280600  1
  O  O43  1  0.48365000  0.16288000  0.91043400  1
  O  O44  1  0.49453300  0.42848700  0.87375600  1
  O  O45  1  0.09682500  0.21776800  0.94314800  1
  O  O46  1  0.20197000  0.49909300  0.89114700  1
  O  O47  1  0.87117500  0.19912200  0.94724200  1
  O  O48  1  0.01635000  0.66288000  0.91043400  1
  O  O49  1  0.00546700  0.92848700  0.87375600  1
  O  O50  1  0.40317500  0.71776800  0.94314800  1
  O  O51  1  0.62882500  0.69912200  0.94724200  1
loop_
_geom_bond_atom_site_label_1
_geom_bond_atom_site_label_2
_geom_bond_distance
_geom_bond_site_symmetry_2
In0 O5 2.153706 1_555
In0 O1 2.167176 1_555
In0 O21 2.170364 1_555
In0 O7 2.174133 1_555
In0 O11 2.204599 1_555
In0 O15 2.228360 1_555
In1 O10 2.153706 1_565
In1 O6 2.167176 1_555
In1 O24 2.170364 1_555
In1 O2 2.174133 1_565
In1 O16 2.204599 1_555
In1 O20 2.228360 1_655
In2 O41 2.153706 1_545
In2 O45 2.167176 1_555
In2 O27 2.170364 1_555
In2 O49 2.174133 1_545
In2 O35 2.204599 1_555
In2 O31 2.228360 1_455
In3 O46 2.153706 1_555
In3 O50 2.167176 1_555
In3 O30 2.170364 1_555
In3 O44 2.174133 1_555
In3 O40 2.204599 1_555
In3 O36 2.228360 1_555
H0 O10 0.987886 1_555
H1 O5 1.013476 1_555
H1 O3 1.548855 1_555
H2 O5 0.987886 1_555
H3 O9 1.014570 1_555
H3 O0 1.635105 1_555
H4 O14 1.061389 1_545
H4 O13 1.452926 1_555
H5 O10 1.013476 1_565
H5 O8 1.548855 1_555
H6 O14 1.014570 1_555
H6 O4 1.635105 1_555
H7 O9 0.982952 1_555
H8 O9 1.061389 1_555
H8 O18 1.452926 1_555
H9 O15 1.009330 1_555
H10 O13 0.986182 1_555
H11 O17 0.978367 1_655
H12 O14 0.982952 1_555
H13 O13 0.979758 1_555
H14 O20 1.009330 1_555
H15 O15 0.993706 1_555
H16 O18 0.986182 1_555
H17 O17 0.989904 1_555
H18 O12 0.978367 1_555
H19 O18 0.979758 1_555
H20 O20 0.993706 1_555
H21 O12 0.989904 1_555
H22 O39 0.989904 1_555
H23 O31 0.993706 1_555
H24 O33 0.979758 1_555
H25 O39 0.978367 1_555
H26 O34 0.989904 1_555
H27 O33 0.986182 1_555
H28 O36 0.993706 1_555
H29 O31 1.009330 1_555
H30 O38 0.979758 1_555
H31 O37 0.982952 1_555
H32 O34 0.978367 1_455
H33 O38 0.986182 1_555
H34 O36 1.009330 1_555
H35 O42 1.061389 1_555
H35 O33 1.452926 1_555
H36 O42 0.982952 1_555
H37 O37 1.014570 1_555
H37 O47 1.635105 1_555
H38 O41 1.013476 1_545
H38 O43 1.548855 1_555
H39 O37 1.061389 1_565
H39 O38 1.452926 1_555
H40 O42 1.014570 1_555
H40 O51 1.635105 1_555
H41 O46 0.987886 1_555
H42 O46 1.013476 1_555
H42 O48 1.548855 1_555
H43 O41 0.987886 1_555
O0 S6 1.462546 1_554
O1 S6 1.528448 1_554
O2 S0 1.520288 1_555
O3 S0 1.466882 1_555
O4 S7 1.462546 1_554
O6 S7 1.528448 1_654
O7 S1 1.520288 1_555
O8 S1 1.466882 1_555
O11 S2 1.499535 1_555
O16 S3 1.499535 1_555
O19 S2 1.493957 1_555
O21 S3 1.515446 1_555
O22 S2 1.465322 1_555
O23 S3 1.493957 1_555
O24 S2 1.515446 1_565
O25 S4 1.465322 1_555
O26 S3 1.465322 1_555
O27 S5 1.515446 1_545
O28 S4 1.493957 1_555
O29 S5 1.465322 1_555
O30 S4 1.515446 1_555
O32 S5 1.493957 1_555
O35 S4 1.499535 1_555
O40 S5 1.499535 1_555
O43 S6 1.466882 1_555
O44 S6 1.520288 1_555
O45 S0 1.528448 1_456
O47 S0 1.462546 1_556
O48 S7 1.466882 1_555
O49 S7 1.520288 1_555
O50 S1 1.528448 1_556
O51 S1 1.462546 1_556
