# generated using pymatgen
data_Mg16Si8HO32
_symmetry_space_group_name_H-M   'P 1'
_cell_length_a   5.80532100
_cell_length_b   8.40810870
_cell_length_c   11.60526618
_cell_angle_alpha   90.09357696
_cell_angle_beta   90.03077263
_cell_angle_gamma   90.16460762
_symmetry_Int_Tables_number   1
_chemical_formula_structural   Mg16Si8HO32
_chemical_formula_sum   'Mg16 Si8 H1 O32'
_cell_volume   566.47040724
_cell_formula_units_Z   1
loop_
 _symmetry_equiv_pos_site_id
 _symmetry_equiv_pos_as_xyz
  1  'x, y, z'
loop_
 _atom_site_type_symbol
 _atom_site_label
 _atom_site_symmetry_multiplicity
 _atom_site_fract_x
 _atom_site_fract_y
 _atom_site_fract_z
 _atom_site_occupancy
  Mg  Mg0  1  0.75086400  0.78280300  0.00060100  1
  Mg  Mg1  1  0.25010600  0.21691200  0.00066300  1
  Mg  Mg2  1  0.24859600  0.24885300  0.24882100  1
  Mg  Mg3  1  0.25443400  0.24591900  0.75266700  1
  Mg  Mg4  1  0.00848200  0.98160300  0.62554000  1
  Mg  Mg5  1  0.50128000  0.99973700  0.37720700  1
  Mg  Mg6  1  0.00312400  0.99608100  0.37656700  1
  Mg  Mg7  1  0.50288300  0.99954500  0.62314400  1
  Mg  Mg8  1  0.27972500  0.28916700  0.49479900  1
  Mg  Mg9  1  0.74867200  0.72049800  0.49913400  1
  Mg  Mg10  1  0.74727100  0.74961900  0.75198000  1
  Mg  Mg11  1  0.75037800  0.75093000  0.24918100  1
  Mg  Mg12  1  0.50043400  0.49993600  0.12206500  1
  Mg  Mg13  1  0.00367400  0.50126100  0.87912800  1
  Mg  Mg14  1  0.50116900  0.49935300  0.88023300  1
  Mg  Mg15  1  0.00074300  0.50094900  0.12178400  1
  Si  Si0  1  0.75053400  0.13381900  0.86911000  1
  Si  Si1  1  0.74929400  0.13424700  0.13074800  1
  Si  Si2  1  0.25084200  0.86591500  0.13089600  1
  Si  Si3  1  0.25084900  0.86514400  0.87051300  1
  Si  Si4  1  0.25037500  0.63506000  0.36885800  1
  Si  Si5  1  0.25026700  0.63144600  0.63083000  1
  Si  Si6  1  0.72712800  0.37921700  0.63016900  1
  Si  Si7  1  0.74814900  0.36940300  0.36696800  1
  H  H0  1  0.93972800  0.21677200  0.52916100  1
  O  O0  1  0.75280200  0.03633500  0.99971200  1
  O  O1  1  0.25102200  0.96477400  0.00042500  1
  O  O2  1  0.75130100  0.53687900  0.00013200  1
  O  O3  1  0.25061500  0.46239400  0.00051600  1
  O  O4  1  0.75151000  0.00581100  0.75917200  1
  O  O5  1  0.75124300  0.00637500  0.24026900  1
  O  O6  1  0.25022500  0.99463400  0.24046300  1
  O  O7  1  0.25129300  0.99340600  0.76039900  1
  O  O8  1  0.96516100  0.25499500  0.61221700  1
  O  O9  1  0.51448100  0.25648400  0.36948500  1
  O  O10  1  0.48838000  0.74447800  0.37262700  1
  O  O11  1  0.00976200  0.73767900  0.62807500  1
  O  O12  1  0.01233200  0.74350600  0.37292600  1
  O  O13  1  0.48699100  0.74236900  0.62785700  1
  O  O14  1  0.50371000  0.25937800  0.62814800  1
  O  O15  1  0.98431600  0.25777000  0.38150100  1
  O  O16  1  0.24935600  0.53527900  0.49926400  1
  O  O17  1  0.73707700  0.46952400  0.49847900  1
  O  O18  1  0.24958100  0.04144800  0.50201000  1
  O  O19  1  0.75366200  0.96691600  0.50132000  1
  O  O20  1  0.25030700  0.50419300  0.26134700  1
  O  O21  1  0.24878600  0.49992900  0.73801100  1
  O  O22  1  0.75101200  0.49550100  0.74191400  1
  O  O23  1  0.75228100  0.49555200  0.25867100  1
  O  O24  1  0.48827200  0.75746400  0.12789800  1
  O  O25  1  0.01271400  0.75691500  0.87226900  1
  O  O26  1  0.98845100  0.24339000  0.86787600  1
  O  O27  1  0.51151400  0.24227900  0.12747300  1
  O  O28  1  0.51306400  0.24232500  0.87278800  1
  O  O29  1  0.98722200  0.24359200  0.12909600  1
  O  O30  1  0.01303000  0.75731400  0.12779900  1
  O  O31  1  0.48760800  0.75616300  0.87295300  1
loop_
_geom_bond_atom_site_label_1
_geom_bond_atom_site_label_2
_geom_bond_distance
_geom_bond_site_symmetry_2
Mg0 O2 2.067763 1_555
Mg0 O30 2.131161 1_655
Mg0 O0 2.131764 1_564
Mg0 O24 2.133852 1_555
Mg0 O31 2.138892 1_554
Mg0 O25 2.139982 1_654
Mg1 O3 2.064036 1_555
Mg1 O1 2.120023 1_545
Mg1 O27 2.123436 1_555
Mg1 O28 2.140082 1_554
Mg1 O29 2.145761 1_455
Mg1 O26 2.175366 1_454
Mg2 O29 2.057190 1_455
Mg2 O27 2.078100 1_555
Mg2 O9 2.084327 1_555
Mg2 O6 2.139591 1_545
Mg2 O20 2.151599 1_555
Mg2 O15 2.175603 1_455
Mg3 O26 2.043165 1_455
Mg3 O28 2.048583 1_555
Mg3 O14 2.048675 1_555
Mg3 O7 2.125225 1_545
Mg3 O21 2.143126 1_555
Mg3 O8 2.341136 1_455
Mg4 O11 2.051233 1_555
Mg4 O18 2.065890 1_565
Mg4 O19 2.068313 1_455
Mg4 O7 2.107744 1_555
Mg4 O4 2.162221 1_465
Mg5 O19 2.073367 1_555
Mg5 O18 2.087923 1_565
Mg5 O10 2.147907 1_555
Mg5 O5 2.153303 1_565
Mg5 O6 2.154382 1_555
Mg5 O9 2.161903 1_565
Mg6 O19 2.062743 1_455
Mg6 O18 2.074789 1_565
Mg6 O12 2.124856 1_555
Mg6 O6 2.134316 1_555
Mg6 O5 2.155543 1_465
Mg6 O15 2.203982 1_465
Mg7 O19 2.048620 1_555
Mg7 O18 2.065219 1_565
Mg7 O4 2.138928 1_565
Mg7 O7 2.162292 1_555
Mg7 O13 2.164848 1_555
Mg7 O14 2.185372 1_565
Mg8 O9 2.012661 1_555
Mg8 O14 2.037012 1_555
Mg8 O16 2.077902 1_555
Mg8 O18 2.091501 1_555
Mg8 O15 2.175639 1_455
Mg8 O8 2.296771 1_455
Mg9 O19 2.072142 1_555
Mg9 O17 2.111098 1_555
Mg9 O10 2.116555 1_555
Mg9 O12 2.127714 1_655
Mg9 O11 2.133787 1_655
Mg9 O13 2.139249 1_555
Mg10 O31 2.061277 1_555
Mg10 O25 2.079430 1_655
Mg10 O13 2.087749 1_555
Mg10 O11 2.098248 1_655
Mg10 O22 2.139825 1_555
Mg10 O4 2.155640 1_565
Mg11 O24 2.073129 1_555
Mg11 O30 2.077082 1_655
Mg11 O10 2.090661 1_555
Mg11 O12 2.092215 1_655
Mg11 O23 2.150308 1_555
Mg11 O5 2.150458 1_565
Mg12 O3 2.046090 1_555
Mg12 O2 2.054492 1_555
Mg12 O23 2.156455 1_555
Mg12 O24 2.167625 1_555
Mg12 O27 2.168557 1_555
Mg12 O20 2.173747 1_555
Mg13 O3 2.036787 1_556
Mg13 O2 2.052217 1_456
Mg13 O25 2.151660 1_555
Mg13 O22 2.164806 1_455
Mg13 O21 2.170143 1_555
Mg13 O26 2.173464 1_455
Mg14 O2 2.034223 1_556
Mg14 O3 2.040063 1_556
Mg14 O31 2.162734 1_555
Mg14 O28 2.164007 1_555
Mg14 O22 2.164284 1_555
Mg14 O21 2.206452 1_555
Mg15 O2 2.045271 1_455
Mg15 O3 2.047761 1_555
Mg15 O23 2.146761 1_455
Mg15 O30 2.157534 1_555
Mg15 O29 2.166886 1_455
Mg15 O20 2.172599 1_555
H0 O8 1.026025 1_555
H0 O15 1.767559 1_555
H0 Mg8 2.102412 1_655
O0 Si0 1.724345 1_555
O0 Si1 1.728223 1_556
O1 Si3 1.723560 1_554
O1 Si2 1.728492 1_555
O4 Si0 1.667885 1_555
O5 Si1 1.666167 1_555
O6 Si2 1.668452 1_555
O7 Si3 1.673489 1_555
O8 Si6 1.746926 1_555
O9 Si7 1.653830 1_555
O10 Si4 1.658280 1_555
O11 Si5 1.659961 1_555
O12 Si4 1.658468 1_555
O13 Si5 1.659039 1_555
O14 Si6 1.640266 1_555
O15 Si7 1.672373 1_555
O16 Si5 1.726576 1_555
O16 Si4 1.731589 1_555
O17 Si6 1.708571 1_555
O17 Si7 1.743093 1_555
O20 Si4 1.662230 1_555
O21 Si5 1.665694 1_555
O22 Si6 1.628445 1_555
O23 Si7 1.646035 1_555
O24 Si2 1.655220 1_555
O25 Si3 1.653042 1_555
O26 Si0 1.658130 1_555
O27 Si1 1.655074 1_555
O28 Si0 1.655850 1_555
O29 Si1 1.657188 1_555
O30 Si2 1.653384 1_555
O31 Si3 1.654351 1_555
