# generated using pymatgen
data_Na6MgO4
_symmetry_space_group_name_H-M   'P 1'
_cell_length_a   7.35663465
_cell_length_b   7.35663465
_cell_length_c   5.41591712
_cell_angle_alpha   90.00000000
_cell_angle_beta   90.00000000
_cell_angle_gamma   90.00000000
_symmetry_Int_Tables_number   1
_chemical_formula_structural   Na6MgO4
_chemical_formula_sum   'Na12 Mg2 O8'
_cell_volume   293.10983192
_cell_formula_units_Z   2
loop_
 _symmetry_equiv_pos_site_id
 _symmetry_equiv_pos_as_xyz
  1  'x, y, z'
loop_
 _atom_site_type_symbol
 _atom_site_label
 _atom_site_symmetry_multiplicity
 _atom_site_fract_x
 _atom_site_fract_y
 _atom_site_fract_z
 _atom_site_occupancy
  Na  Na0  1  0.28724654  0.28724654  0.50000000  1
  Na  Na1  1  0.71275346  0.28724654  0.50000000  1
  Na  Na2  1  -0.00000000  0.50000000  0.41718318  1
  Na  Na3  1  -0.00000000  0.50000000  0.91718318  1
  Na  Na4  1  0.28724654  0.71275346  0.50000000  1
  Na  Na5  1  0.71275346  0.71275346  0.50000000  1
  Na  Na6  1  0.78724654  0.78724654  0.00000000  1
  Na  Na7  1  0.21275346  0.78724654  0.00000000  1
  Na  Na8  1  0.50000000  -0.00000000  0.08281682  1
  Na  Na9  1  0.50000000  0.00000000  0.58281682  1
  Na  Na10  1  0.78724654  0.21275346  0.00000000  1
  Na  Na11  1  0.21275346  0.21275346  0.00000000  1
  Mg  Mg0  1  0.50000000  0.50000000  0.00000000  1
  Mg  Mg1  1  -0.00000000  0.00000000  0.50000000  1
  O  O0  1  -0.00000000  0.24250238  0.68399855  1
  O  O1  1  0.74250238  0.50000000  0.18399855  1
  O  O2  1  0.25749762  0.50000000  0.18399855  1
  O  O3  1  -0.00000000  0.75749762  0.68399855  1
  O  O4  1  0.50000000  0.74250238  0.81600145  1
  O  O5  1  0.75749762  -0.00000000  0.31600145  1
  O  O6  1  0.24250238  0.00000000  0.31600145  1
  O  O7  1  0.50000000  0.25749762  0.81600145  1
loop_
_geom_bond_atom_site_label_1
_geom_bond_atom_site_label_2
_geom_bond_distance
_geom_bond_site_symmetry_2
Na0 O2 2.329508 1_555
Na0 O7 2.329508 1_555
Na0 O6 2.359424 1_555
Na0 O0 2.359424 1_555
Na1 O1 2.329508 1_555
Na1 O7 2.329508 1_555
Na1 O0 2.359424 1_655
Na1 O5 2.359424 1_555
Na2 O1 2.276702 1_455
Na2 O2 2.276702 1_555
Na2 O0 2.382562 1_555
Na2 O3 2.382562 1_555
Na3 O3 2.276702 1_555
Na3 O0 2.276702 1_555
Na3 O2 2.382562 1_556
Na3 O1 2.382562 1_456
Na4 O4 2.329508 1_555
Na4 O2 2.329508 1_555
Na4 O6 2.359424 1_565
Na4 O3 2.359424 1_555
Na5 O4 2.329508 1_555
Na5 O1 2.329508 1_555
Na5 O3 2.359424 1_655
Na5 O5 2.359424 1_565
Na6 O5 2.329508 1_565
Na6 O3 2.329508 1_654
Na6 O4 2.359424 1_554
Na6 O1 2.359424 1_555
Na7 O6 2.329508 1_565
Na7 O3 2.329508 1_554
Na7 O4 2.359424 1_554
Na7 O2 2.359424 1_555
Na8 O5 2.276702 1_555
Na8 O6 2.276702 1_555
Na8 O4 2.382562 1_544
Na8 O7 2.382562 1_554
Na9 O4 2.276702 1_545
Na9 O7 2.276702 1_555
Na9 O5 2.382562 1_555
Na9 O6 2.382562 1_555
Na10 O0 2.329508 1_654
Na10 O5 2.329508 1_555
Na10 O7 2.359424 1_554
Na10 O1 2.359424 1_555
Na11 O0 2.329508 1_554
Na11 O6 2.329508 1_555
Na11 O2 2.359424 1_555
Na11 O7 2.359424 1_554
Mg0 O1 2.043457 1_555
Mg0 O4 2.043457 1_554
Mg0 O7 2.043457 1_554
Mg0 O2 2.043457 1_555
Mg1 O0 2.043457 1_555
Mg1 O3 2.043457 1_545
Mg1 O5 2.043457 1_455
Mg1 O6 2.043457 1_555
