# generated using pymatgen
data_NaLi2MnPCO7
_symmetry_space_group_name_H-M   'P 1'
_cell_length_a   8.46295623
_cell_length_b   8.46318887
_cell_length_c   8.68638145
_cell_angle_alpha   88.10623503
_cell_angle_beta   88.10392081
_cell_angle_gamma   106.29088908
_symmetry_Int_Tables_number   1
_chemical_formula_structural   NaLi2MnPCO7
_chemical_formula_sum   'Na4 Li8 Mn4 P4 C4 O28'
_cell_volume   596.26230182
_cell_formula_units_Z   4
loop_
 _symmetry_equiv_pos_site_id
 _symmetry_equiv_pos_as_xyz
  1  'x, y, z'
loop_
 _atom_site_type_symbol
 _atom_site_label
 _atom_site_symmetry_multiplicity
 _atom_site_fract_x
 _atom_site_fract_y
 _atom_site_fract_z
 _atom_site_occupancy
  Na  Na0  1  0.62823500  0.63121400  0.24544700  1
  Na  Na1  1  0.12826600  0.13121800  0.24547700  1
  Na  Na2  1  0.61876700  0.12174600  0.75457500  1
  Na  Na3  1  0.11878600  0.62177500  0.75456300  1
  Li  Li0  1  0.51273100  0.24963400  0.10336800  1
  Li  Li1  1  0.01271900  0.74962900  0.10331800  1
  Li  Li2  1  0.50036500  0.73724900  0.89667600  1
  Li  Li3  1  0.00035000  0.23724900  0.89668800  1
  Li  Li4  1  0.35234500  0.88961700  0.27866300  1
  Li  Li5  1  0.85235700  0.38964800  0.27857200  1
  Li  Li6  1  0.86032200  0.89761100  0.72131600  1
  Li  Li7  1  0.36042200  0.39770100  0.72141200  1
  Mn  Mn0  1  0.26058400  0.51897700  0.35090400  1
  Mn  Mn1  1  0.73108500  0.48936000  0.64898400  1
  Mn  Mn2  1  0.76065300  0.01901300  0.35087300  1
  Mn  Mn3  1  0.23118900  0.98952900  0.64905800  1
  P  P0  1  0.48240300  0.23720800  0.41007500  1
  P  P1  1  0.98243600  0.73723800  0.41006200  1
  P  P2  1  0.51280900  0.76760300  0.58992600  1
  P  P3  1  0.01278600  0.26755500  0.58994900  1
  C  C0  1  0.74109400  0.97635100  0.03894000  1
  C  C1  1  0.24112000  0.47637400  0.03896700  1
  C  C2  1  0.27362100  0.00887200  0.96109400  1
  C  C3  1  0.77360600  0.50884300  0.96102500  1
  O  O0  1  0.32279500  0.04047800  0.10003800  1
  O  O1  1  0.82278700  0.54052000  0.09995400  1
  O  O2  1  0.70950900  0.92720000  0.89998800  1
  O  O3  1  0.20950000  0.42719500  0.90003300  1
  O  O4  1  0.86750600  0.09828200  0.06655200  1
  O  O5  1  0.36754300  0.59830200  0.06654000  1
  O  O6  1  0.15169400  0.88247500  0.93349300  1
  O  O7  1  0.65167000  0.38241400  0.93349900  1
  O  O8  1  0.64103500  0.90098900  0.15296300  1
  O  O9  1  0.14107000  0.40102500  0.15301300  1
  O  O10  1  0.34900200  0.10894000  0.84707300  1
  O  O11  1  0.84896100  0.60884000  0.84695300  1
  O  O12  1  0.42808000  0.36579800  0.30868900  1
  O  O13  1  0.92813400  0.86583300  0.30865200  1
  O  O14  1  0.38416700  0.82182800  0.69135900  1
  O  O15  1  0.88412100  0.32179200  0.69133400  1
  O  O16  1  0.63146500  0.20730300  0.31686300  1
  O  O17  1  0.13150600  0.70733500  0.31685300  1
  O  O18  1  0.54280700  0.61856900  0.68311500  1
  O  O19  1  0.04273200  0.11851000  0.68314300  1
  O  O20  1  0.33976500  0.07278500  0.42641000  1
  O  O21  1  0.83979100  0.57280200  0.42632300  1
  O  O22  1  0.67718400  0.91030700  0.57355900  1
  O  O23  1  0.17718000  0.41023300  0.57364400  1
  O  O24  1  0.45457800  0.72409800  0.42499200  1
  O  O25  1  0.95460100  0.22409200  0.42499100  1
  O  O26  1  0.52585700  0.29539500  0.57503600  1
  O  O27  1  0.02590500  0.79544700  0.57501000  1
loop_
_geom_bond_atom_site_label_1
_geom_bond_atom_site_label_2
_geom_bond_distance
_geom_bond_site_symmetry_2
Na0 O1 2.352170 1_555
Na0 O8 2.367313 1_555
Na0 O24 2.405757 1_555
Na0 O12 2.437001 1_555
Na0 O21 2.559254 1_555
Na0 O5 2.696447 1_555
Na0 O13 2.832429 1_555
Na1 O0 2.351983 1_555
Na1 O9 2.367507 1_555
Na1 O25 2.405587 1_455
Na1 O13 2.436629 1_445
Na1 O20 2.559259 1_555
Na1 O4 2.696985 1_455
Na1 O12 2.831786 1_555
Na2 O2 2.352061 1_545
Na2 O10 2.367169 1_555
Na2 O26 2.405867 1_555
Na2 O15 2.436197 1_555
Na2 O22 2.559247 1_545
Na2 O7 2.696385 1_555
Na2 O14 2.832513 1_545
Na3 O3 2.352416 1_555
Na3 O11 2.367103 1_455
Na3 O27 2.405950 1_555
Na3 O14 2.436332 1_555
Na3 O23 2.559318 1_555
Na3 O6 2.696631 1_555
Na3 O15 2.833180 1_455
Li0 O7 1.963903 1_554
Li0 O0 2.031780 1_555
Li0 O16 2.204220 1_555
Li0 O12 2.255455 1_555
Li1 O6 1.963968 1_554
Li1 O1 2.031524 1_455
Li1 O17 2.204671 1_555
Li1 O13 2.255500 1_455
Li2 O5 1.964038 1_556
Li2 O2 2.031766 1_555
Li2 O18 2.204678 1_555
Li2 O14 2.255381 1_555
Li3 O4 1.964179 1_456
Li3 O3 2.031795 1_555
Li3 O19 2.204691 1_555
Li3 O15 2.255655 1_455
Li4 O0 2.043043 1_565
Li4 O20 2.067978 1_565
Li4 O17 2.071351 1_555
Li4 O24 2.227446 1_555
Li5 O1 2.043112 1_555
Li5 O21 2.067879 1_555
Li5 O16 2.072012 1_555
Li5 O25 2.228166 1_555
Li6 O2 2.043128 1_555
Li6 O22 2.068080 1_555
Li6 O19 2.072229 1_665
Li6 O27 2.227316 1_655
Li7 O3 2.043125 1_555
Li7 O23 2.068497 1_555
Li7 O18 2.072059 1_555
Li7 O26 2.227459 1_555
Mn0 O23 2.125129 1_555
Mn0 O9 2.153216 1_555
Mn0 O24 2.160546 1_555
Mn0 O17 2.188412 1_555
Mn0 O12 2.202817 1_555
Mn0 O5 2.602488 1_555
Mn1 O21 2.124467 1_555
Mn1 O11 2.153442 1_555
Mn1 O26 2.160528 1_555
Mn1 O18 2.188670 1_555
Mn1 O15 2.202584 1_555
Mn1 O7 2.603791 1_555
Mn2 O22 2.124713 1_545
Mn2 O8 2.153893 1_545
Mn2 O25 2.160212 1_555
Mn2 O16 2.188528 1_555
Mn2 O13 2.202730 1_545
Mn2 O4 2.601861 1_555
Mn3 O20 2.123743 1_565
Mn3 O10 2.153369 1_565
Mn3 O27 2.161655 1_555
Mn3 O19 2.188561 1_565
Mn3 O14 2.203038 1_555
Mn3 O6 2.603456 1_555
C0 O4 1.296491 1_565
C0 O2 1.301331 1_554
C0 O8 1.305597 1_555
C1 O5 1.296452 1_555
C1 O3 1.301296 1_554
C1 O9 1.305673 1_555
C2 O6 1.296373 1_545
C2 O0 1.301352 1_556
C2 O10 1.305680 1_555
C3 O7 1.296426 1_555
C3 O1 1.301334 1_556
C3 O11 1.305645 1_555
O12 P0 1.554170 1_555
O13 P1 1.554227 1_555
O14 P2 1.554257 1_555
O15 P3 1.554227 1_655
O16 P0 1.560801 1_555
O17 P1 1.560838 1_455
O18 P2 1.560881 1_555
O19 P3 1.560802 1_555
O20 P0 1.564263 1_555
O21 P1 1.564344 1_555
O22 P2 1.564282 1_555
O23 P3 1.564256 1_555
O24 P2 1.552669 1_555
O25 P3 1.552692 1_655
O26 P0 1.552705 1_555
O27 P1 1.552674 1_455
