# generated using pymatgen
data_Fe3(OF)2
_symmetry_space_group_name_H-M   'P 1'
_cell_length_a   6.11137300
_cell_length_b   6.45042400
_cell_length_c   8.54107100
_cell_angle_alpha   90.00000000
_cell_angle_beta   90.00000000
_cell_angle_gamma   90.00000000
_symmetry_Int_Tables_number   1
_chemical_formula_structural   Fe3(OF)2
_chemical_formula_sum   'Fe12 O8 F8'
_cell_volume   336.69710783
_cell_formula_units_Z   4
loop_
 _symmetry_equiv_pos_site_id
 _symmetry_equiv_pos_as_xyz
  1  'x, y, z'
loop_
 _atom_site_type_symbol
 _atom_site_label
 _atom_site_symmetry_multiplicity
 _atom_site_fract_x
 _atom_site_fract_y
 _atom_site_fract_z
 _atom_site_occupancy
  Fe  Fe0  1  0.50000000  0.25000000  0.19154200  1
  Fe  Fe1  1  0.00000000  0.25000000  0.19154200  1
  Fe  Fe2  1  0.75000000  0.74857600  0.22608700  1
  Fe  Fe3  1  0.25000000  0.75142400  0.22608700  1
  Fe  Fe4  1  0.50000000  0.00000000  0.50000000  1
  Fe  Fe5  1  0.50000000  0.50000000  0.50000000  1
  Fe  Fe6  1  0.00000000  0.00000000  0.50000000  1
  Fe  Fe7  1  0.00000000  0.50000000  0.50000000  1
  Fe  Fe8  1  0.25000000  0.25142400  0.77391300  1
  Fe  Fe9  1  0.75000000  0.24857600  0.77391300  1
  Fe  Fe10  1  0.00000000  0.75000000  0.80845800  1
  Fe  Fe11  1  0.50000000  0.75000000  0.80845800  1
  O  O0  1  0.00125400  0.53302000  0.26761000  1
  O  O1  1  0.99874600  0.96698000  0.26761000  1
  O  O2  1  0.50125400  0.96698000  0.26761000  1
  O  O3  1  0.49874600  0.53302000  0.26761000  1
  O  O4  1  0.49874600  0.03302000  0.73239000  1
  O  O5  1  0.00125400  0.03302000  0.73239000  1
  O  O6  1  0.50125400  0.46698000  0.73239000  1
  O  O7  1  0.99874600  0.46698000  0.73239000  1
  F  F0  1  0.25000000  0.25955900  0.01372400  1
  F  F1  1  0.75000000  0.24044100  0.01372400  1
  F  F2  1  0.75000000  0.25060200  0.48946100  1
  F  F3  1  0.25000000  0.24939800  0.48946100  1
  F  F4  1  0.25000000  0.74939800  0.51053900  1
  F  F5  1  0.75000000  0.75060200  0.51053900  1
  F  F6  1  0.25000000  0.75955900  0.98627600  1
  F  F7  1  0.75000000  0.74044100  0.98627600  1
loop_
_geom_bond_atom_site_label_1
_geom_bond_atom_site_label_2
_geom_bond_distance
_geom_bond_site_symmetry_2
Fe0 O3 1.937778 1_555
Fe0 O2 1.937778 1_545
Fe1 O1 1.937778 1_445
Fe1 O0 1.937778 1_555
Fe2 O3 2.101630 1_555
Fe2 O0 2.101630 1_655
Fe2 O2 2.102721 1_555
Fe2 O1 2.102721 1_555
Fe3 O2 2.101630 1_555
Fe3 O1 2.101630 1_455
Fe3 O3 2.102721 1_555
Fe3 O0 2.102721 1_555
Fe4 O2 1.996270 1_545
Fe4 O4 1.996270 1_555
Fe5 O3 1.996270 1_555
Fe5 O6 1.996270 1_555
Fe6 O1 1.996270 1_445
Fe6 O5 1.996270 1_555
Fe7 O0 1.996270 1_555
Fe7 O7 1.996270 1_455
Fe8 O7 2.101630 1_455
Fe8 O6 2.101630 1_555
Fe8 O5 2.102721 1_555
Fe8 O4 2.102721 1_555
Fe9 O4 2.101630 1_555
Fe9 O5 2.101630 1_655
Fe9 O7 2.102721 1_555
Fe9 O6 2.102721 1_555
Fe10 O7 1.937778 1_455
Fe10 O5 1.937778 1_565
Fe11 O6 1.937778 1_555
Fe11 O4 1.937778 1_565
F0 Fe8 2.048915 1_554
F0 Fe1 2.155163 1_555
F0 Fe0 2.155163 1_555
F1 Fe9 2.048915 1_554
F1 Fe0 2.155163 1_555
F1 Fe1 2.155163 1_655
F2 Fe7 2.220450 1_655
F2 Fe5 2.220450 1_555
F2 Fe4 2.226083 1_555
F2 Fe6 2.226083 1_655
F2 Fe9 2.429560 1_555
F3 Fe4 2.220450 1_555
F3 Fe6 2.220450 1_555
F3 Fe5 2.226083 1_555
F3 Fe7 2.226083 1_555
F3 Fe8 2.429560 1_555
F4 Fe7 2.220450 1_555
F4 Fe5 2.220450 1_555
F4 Fe4 2.226083 1_565
F4 Fe6 2.226083 1_565
F4 Fe3 2.429560 1_555
F5 Fe4 2.220450 1_565
F5 Fe6 2.220450 1_665
F5 Fe7 2.226083 1_655
F5 Fe5 2.226083 1_555
F5 Fe2 2.429560 1_555
F6 Fe3 2.048915 1_556
F6 Fe11 2.155163 1_555
F6 Fe10 2.155163 1_555
F7 Fe2 2.048915 1_556
F7 Fe11 2.155163 1_555
F7 Fe10 2.155163 1_655
