# generated using pymatgen
data_Ba3LiTi5(SbO7)3
_symmetry_space_group_name_H-M   'P 1'
_cell_length_a   9.17870709
_cell_length_b   9.17870709
_cell_length_c   11.79944100
_cell_angle_alpha   90.00000000
_cell_angle_beta   90.00000000
_cell_angle_gamma   120.13423181
_symmetry_Int_Tables_number   1
_chemical_formula_structural   Ba3LiTi5(SbO7)3
_chemical_formula_sum   'Ba6 Li2 Ti10 Sb6 O42'
_cell_volume   859.73788704
_cell_formula_units_Z   2
loop_
 _symmetry_equiv_pos_site_id
 _symmetry_equiv_pos_as_xyz
  1  'x, y, z'
loop_
 _atom_site_type_symbol
 _atom_site_label
 _atom_site_symmetry_multiplicity
 _atom_site_fract_x
 _atom_site_fract_y
 _atom_site_fract_z
 _atom_site_occupancy
  Ba  Ba0  1  0.40472400  0.99847200  0.74990000  1
  Ba  Ba1  1  0.59527600  0.00152800  0.24990000  1
  Ba  Ba2  1  0.99847200  0.40472400  0.74990000  1
  Ba  Ba3  1  0.00152800  0.59527600  0.24990000  1
  Ba  Ba4  1  0.40160400  0.40160400  0.25181700  1
  Ba  Ba5  1  0.59839600  0.59839600  0.75181700  1
  Li  Li0  1  0.99694700  0.99694700  0.75478800  1
  Li  Li1  1  0.00305300  0.00305300  0.25478800  1
  Ti  Ti0  1  0.24873800  0.99193300  0.40412800  1
  Ti  Ti1  1  0.25375500  0.00350000  0.08739100  1
  Ti  Ti2  1  0.74624500  0.99650000  0.58739100  1
  Ti  Ti3  1  0.75126200  0.00806700  0.90412800  1
  Ti  Ti4  1  0.99193300  0.24873800  0.40412800  1
  Ti  Ti5  1  0.00350000  0.25375500  0.08739100  1
  Ti  Ti6  1  0.25316300  0.25316300  0.91288100  1
  Ti  Ti7  1  0.00806700  0.75126200  0.90412800  1
  Ti  Ti8  1  0.99650000  0.74624500  0.58739100  1
  Ti  Ti9  1  0.74683700  0.74683700  0.41288100  1
  Sb  Sb0  1  0.66790400  0.33459500  0.00020600  1
  Sb  Sb1  1  0.66540500  0.33209600  0.50020600  1
  Sb  Sb2  1  0.24284700  0.24284700  0.58638800  1
  Sb  Sb3  1  0.33459500  0.66790400  0.00020600  1
  Sb  Sb4  1  0.33209600  0.66540500  0.50020600  1
  Sb  Sb5  1  0.75715300  0.75715300  0.08638800  1
  O  O0  1  0.20488600  0.00461400  0.57418700  1
  O  O1  1  0.20324900  0.99719000  0.92735500  1
  O  O2  1  0.20575500  0.99994900  0.24933100  1
  O  O3  1  0.48484800  0.16791900  0.10239200  1
  O  O4  1  0.48051300  0.16656700  0.40076500  1
  O  O5  1  0.79424500  0.00005100  0.74933100  1
  O  O6  1  0.48366000  0.31722400  0.90021100  1
  O  O7  1  0.48831800  0.31816200  0.60890000  1
  O  O8  1  0.79675100  0.00281000  0.42735500  1
  O  O9  1  0.79511400  0.99538600  0.07418700  1
  O  O10  1  0.68388000  0.17101500  0.89459400  1
  O  O11  1  0.68816200  0.16839900  0.60028500  1
  O  O12  1  0.82898500  0.31612000  0.39459400  1
  O  O13  1  0.83160100  0.31183800  0.10028500  1
  O  O14  1  0.00461400  0.20488600  0.57418700  1
  O  O15  1  0.99719000  0.20324900  0.92735500  1
  O  O16  1  0.68277600  0.51634000  0.40021100  1
  O  O17  1  0.68183800  0.51168200  0.10890000  1
  O  O18  1  0.99994900  0.20575500  0.24933100  1
  O  O19  1  0.83208100  0.51515200  0.60239200  1
  O  O20  1  0.83343300  0.51948700  0.90076500  1
  O  O21  1  0.20118500  0.20118500  0.42005800  1
  O  O22  1  0.20413000  0.20413000  0.07264500  1
  O  O23  1  0.20242500  0.20242500  0.75214100  1
  O  O24  1  0.16791900  0.48484800  0.10239200  1
  O  O25  1  0.16656700  0.48051300  0.40076500  1
  O  O26  1  0.00005100  0.79424500  0.74933100  1
  O  O27  1  0.31722400  0.48366000  0.90021100  1
  O  O28  1  0.31816200  0.48831800  0.60890000  1
  O  O29  1  0.00281000  0.79675100  0.42735500  1
  O  O30  1  0.99538600  0.79511400  0.07418700  1
  O  O31  1  0.17101500  0.68388000  0.89459400  1
  O  O32  1  0.16839900  0.68816200  0.60028500  1
  O  O33  1  0.31612000  0.82898500  0.39459400  1
  O  O34  1  0.31183800  0.83160100  0.10028500  1
  O  O35  1  0.51634000  0.68277600  0.40021100  1
  O  O36  1  0.51168200  0.68183800  0.10890000  1
  O  O37  1  0.51515200  0.83208000  0.60239200  1
  O  O38  1  0.51948700  0.83343300  0.90076500  1
  O  O39  1  0.79757500  0.79757500  0.25214100  1
  O  O40  1  0.79587000  0.79587000  0.57264500  1
  O  O41  1  0.79881500  0.79881500  0.92005800  1
loop_
_geom_bond_atom_site_label_1
_geom_bond_atom_site_label_2
_geom_bond_distance
_geom_bond_site_symmetry_2
Ba0 O0 2.787495 1_565
Ba0 O1 2.789698 1_555
Ba0 O10 2.813183 1_565
Ba0 O37 2.818433 1_555
Ba0 O38 2.859259 1_555
Ba0 O11 2.871123 1_565
Ba0 O31 3.104055 1_555
Ba0 O7 3.115517 1_565
Ba0 O32 3.119446 1_555
Ba0 O6 3.178376 1_565
Ba0 O26 3.212405 1_555
Ba0 O23 3.231593 1_565
Ba1 O9 2.787495 1_545
Ba1 O8 2.789698 1_555
Ba1 O33 2.813183 1_545
Ba1 O3 2.818426 1_555
Ba1 O4 2.859259 1_555
Ba1 O34 2.871123 1_545
Ba1 O12 3.104055 1_555
Ba1 O36 3.115517 1_545
Ba1 O13 3.119446 1_555
Ba1 O35 3.178376 1_545
Ba1 O18 3.212405 1_555
Ba1 O39 3.231593 1_545
Ba2 O14 2.787495 1_655
Ba2 O15 2.789698 1_555
Ba2 O31 2.813183 1_655
Ba2 O19 2.818426 1_555
Ba2 O20 2.859259 1_555
Ba2 O32 2.871123 1_655
Ba2 O10 3.104055 1_555
Ba2 O28 3.115517 1_655
Ba2 O11 3.119446 1_555
Ba2 O27 3.178376 1_655
Ba2 O5 3.212405 1_555
Ba2 O23 3.231593 1_655
Ba3 O30 2.787495 1_455
Ba3 O29 2.789698 1_555
Ba3 O12 2.813183 1_455
Ba3 O24 2.818426 1_555
Ba3 O25 2.859259 1_555
Ba3 O13 2.871123 1_455
Ba3 O33 3.104055 1_555
Ba3 O17 3.115517 1_455
Ba3 O34 3.119446 1_555
Ba3 O16 3.178376 1_455
Ba3 O2 3.212405 1_555
Ba3 O39 3.231593 1_455
Ba4 O21 2.703919 1_555
Ba4 O22 2.782370 1_555
Ba4 O17 2.805589 1_555
Ba4 O36 2.805589 1_555
Ba4 O16 2.847198 1_555
Ba4 O35 2.847198 1_555
Ba4 O4 3.136297 1_555
Ba4 O25 3.136297 1_555
Ba4 O3 3.152566 1_555
Ba4 O24 3.152566 1_555
Ba4 O2 3.189004 1_545
Ba4 O18 3.189004 1_455
Ba5 O41 2.703919 1_555
Ba5 O40 2.782370 1_555
Ba5 O28 2.805589 1_555
Ba5 O7 2.805589 1_555
Ba5 O27 2.847198 1_555
Ba5 O6 2.847198 1_555
Ba5 O38 3.136297 1_555
Ba5 O20 3.136297 1_555
Ba5 O37 3.152559 1_555
Ba5 O19 3.152566 1_555
Ba5 O5 3.189004 1_565
Ba5 O26 3.189004 1_655
Li0 O26 1.876113 1_655
Li0 O5 1.876113 1_565
Li0 O23 1.882454 1_665
Li1 O2 1.876113 1_545
Li1 O18 1.876113 1_455
Li1 O39 1.882454 1_445
O0 Sb2 2.039280 1_555
O0 Ti0 2.061321 1_545
O0 Ti8 2.179988 1_445
O1 Ti1 1.938327 1_566
O1 Ti7 2.078380 1_555
O1 Ti6 2.162971 1_565
O2 Ti0 1.877866 1_555
O2 Ti1 1.957528 1_565
O3 Ti1 1.895782 1_555
O3 Sb0 2.009104 1_555
O4 Ti0 1.916470 1_545
O4 Sb1 1.994068 1_555
O5 Ti3 1.877866 1_555
O5 Ti2 1.957528 1_545
O6 Ti6 1.896069 1_555
O6 Sb0 2.001677 1_556
O7 Sb2 2.015207 1_555
O7 Sb1 2.023494 1_555
O8 Ti2 1.938327 1_545
O8 Ti4 2.078380 1_555
O8 Ti9 2.162971 1_545
O9 Sb5 2.039280 1_555
O9 Ti3 2.061321 1_564
O9 Ti5 2.179988 1_665
O10 Ti3 1.887042 1_555
O10 Sb0 2.012424 1_556
O11 Ti2 1.908256 1_545
O11 Sb1 2.002700 1_555
O12 Ti4 1.887042 1_555
O12 Sb1 2.012424 1_555
O13 Ti5 1.908256 1_655
O13 Sb0 2.002700 1_555
O14 Sb2 2.039280 1_555
O14 Ti4 2.061321 1_455
O14 Ti2 2.179988 1_445
O15 Ti5 1.938327 1_656
O15 Ti3 2.078380 1_555
O15 Ti6 2.162971 1_655
O16 Ti9 1.896069 1_555
O16 Sb1 2.001677 1_555
O17 Sb5 2.015207 1_555
O17 Sb0 2.023494 1_555
O18 Ti4 1.877866 1_555
O18 Ti5 1.957528 1_655
O19 Ti8 1.895782 1_555
O19 Sb1 2.009104 1_555
O20 Ti7 1.916470 1_655
O20 Sb0 1.994068 1_556
O21 Sb2 1.999360 1_555
O21 Ti4 2.180942 1_455
O21 Ti0 2.180942 1_545
O22 Ti6 1.937894 1_554
O22 Ti5 2.114512 1_555
O22 Ti1 2.114512 1_555
O23 Ti6 1.952756 1_555
O23 Sb2 1.990534 1_555
O24 Ti5 1.895782 1_555
O24 Sb3 2.009104 1_555
O25 Ti4 1.916470 1_455
O25 Sb4 1.994068 1_555
O26 Ti7 1.877866 1_555
O26 Ti8 1.957528 1_455
O27 Ti6 1.896069 1_555
O27 Sb3 2.001677 1_556
O28 Sb2 2.015207 1_555
O28 Sb4 2.023494 1_555
O29 Ti8 1.938327 1_455
O29 Ti0 2.078380 1_555
O29 Ti9 2.162971 1_455
O30 Sb5 2.039280 1_555
O30 Ti7 2.061321 1_654
O30 Ti1 2.179988 1_665
O31 Ti7 1.887042 1_555
O31 Sb3 2.012424 1_556
O32 Ti8 1.908256 1_455
O32 Sb4 2.002700 1_555
O33 Ti0 1.887042 1_555
O33 Sb4 2.012424 1_555
O34 Ti1 1.908256 1_565
O34 Sb3 2.002700 1_555
O35 Ti9 1.896069 1_555
O35 Sb4 2.001677 1_555
O36 Sb5 2.015207 1_555
O36 Sb3 2.023494 1_555
O37 Ti2 1.895784 1_555
O37 Sb4 2.009101 1_555
O38 Ti3 1.916470 1_565
O38 Sb3 1.994068 1_556
O39 Ti9 1.952756 1_555
O39 Sb5 1.990534 1_555
O40 Ti9 1.937894 1_555
O40 Ti8 2.114512 1_555
O40 Ti2 2.114512 1_555
O41 Sb5 1.999360 1_556
O41 Ti3 2.180942 1_565
O41 Ti7 2.180942 1_655
