# generated using pymatgen
data_Li6Ti9O20
_symmetry_space_group_name_H-M   'P 1'
_cell_length_a   5.97374389
_cell_length_b   5.97374389
_cell_length_c   24.69447778
_cell_angle_alpha   83.10688743
_cell_angle_beta   83.10688743
_cell_angle_gamma   60.01657020
_symmetry_Int_Tables_number   1
_chemical_formula_structural   Li6Ti9O20
_chemical_formula_sum   'Li12 Ti18 O40'
_cell_volume   755.93498636
_cell_formula_units_Z   2
loop_
 _symmetry_equiv_pos_site_id
 _symmetry_equiv_pos_as_xyz
  1  'x, y, z'
loop_
 _atom_site_type_symbol
 _atom_site_label
 _atom_site_symmetry_multiplicity
 _atom_site_fract_x
 _atom_site_fract_y
 _atom_site_fract_z
 _atom_site_occupancy
  Li  Li0  1  0.97135300  0.97135300  0.07406500  1
  Li  Li1  1  0.22441100  0.22441100  0.32602100  1
  Li  Li2  1  0.63067900  0.63067900  0.12233400  1
  Li  Li3  1  0.17568200  0.17568200  0.47334700  1
  Li  Li4  1  0.57297200  0.57297200  0.27472800  1
  Li  Li5  1  0.50000000  0.50000000  0.50000000  1
  Li  Li6  1  0.82431800  0.82431800  0.52665300  1
  Li  Li7  1  0.42702800  0.42702800  0.72527200  1
  Li  Li8  1  0.02864700  0.02864700  0.92593500  1
  Li  Li9  1  0.77558900  0.77558900  0.67397900  1
  Li  Li10  1  0.36932100  0.36932100  0.87766600  1
  Li  Li11  1  0.50000000  0.50000000  0.00000000  1
  Ti  Ti0  1  0.09563600  0.59829700  0.20066800  1
  Ti  Ti1  1  0.31236600  0.31236600  0.09597200  1
  Ti  Ti2  1  0.10099200  0.10099200  0.19876300  1
  Ti  Ti3  1  0.59829700  0.09563600  0.20066800  1
  Ti  Ti4  1  0.69577000  0.69577000  0.40217600  1
  Ti  Ti5  1  0.20639300  0.69255800  0.40217400  1
  Ti  Ti6  1  0.30744200  0.79360700  0.59782600  1
  Ti  Ti7  1  0.09808000  0.09808000  0.69827800  1
  Ti  Ti8  1  0.90192000  0.90192000  0.30172200  1
  Ti  Ti9  1  0.69255800  0.20639300  0.40217400  1
  Ti  Ti10  1  0.79360700  0.30744200  0.59782600  1
  Ti  Ti11  1  0.30423000  0.30423000  0.59782400  1
  Ti  Ti12  1  0.00000000  0.50000000  0.00000000  1
  Ti  Ti13  1  0.89900800  0.89900800  0.80123700  1
  Ti  Ti14  1  0.40170300  0.90436400  0.79933200  1
  Ti  Ti15  1  0.90436400  0.40170300  0.79933200  1
  Ti  Ti16  1  0.68763400  0.68763400  0.90402800  1
  Ti  Ti17  1  0.50000000  0.00000000  0.00000000  1
  O  O0  1  0.98402900  0.43000600  0.15398300  1
  O  O1  1  0.43279400  0.43279400  0.15285300  1
  O  O2  1  0.03301200  0.58680900  0.35162000  1
  O  O3  1  0.43000600  0.98402900  0.15398300  1
  O  O4  1  0.25237200  0.25237200  0.24306900  1
  O  O5  1  0.21597100  0.76829500  0.24766200  1
  O  O6  1  0.76726600  0.76726600  0.24790600  1
  O  O7  1  0.58680900  0.03301200  0.35162000  1
  O  O8  1  0.03109100  0.03109100  0.35213900  1
  O  O9  1  0.36550600  0.82793900  0.44264300  1
  O  O10  1  0.94671400  0.94671400  0.15810500  1
  O  O11  1  0.54781100  0.54781100  0.35699600  1
  O  O12  1  0.76829500  0.21597100  0.24766200  1
  O  O13  1  0.14775700  0.14775700  0.55669500  1
  O  O14  1  0.82793900  0.36550600  0.44264300  1
  O  O15  1  0.36447600  0.36447600  0.44227200  1
  O  O16  1  0.17206100  0.63449400  0.55735700  1
  O  O17  1  0.63552400  0.63552400  0.55772800  1
  O  O18  1  0.23170500  0.78402900  0.75233800  1
  O  O19  1  0.63449400  0.17206100  0.55735700  1
  O  O20  1  0.45218900  0.45218900  0.64300400  1
  O  O21  1  0.85224300  0.85224300  0.44330500  1
  O  O22  1  0.05328600  0.05328600  0.84189500  1
  O  O23  1  0.96890900  0.96890900  0.64786100  1
  O  O24  1  0.41319100  0.96698800  0.64838000  1
  O  O25  1  0.56720600  0.56720600  0.84714700  1
  O  O26  1  0.01597100  0.56999400  0.84601700  1
  O  O27  1  0.78402900  0.23170500  0.75233800  1
  O  O28  1  0.23273400  0.23273400  0.75209400  1
  O  O29  1  0.74762800  0.74762800  0.75693100  1
  O  O30  1  0.33616800  0.33616800  0.95932800  1
  O  O31  1  0.15287000  0.61249200  0.05104600  1
  O  O32  1  0.56999400  0.01597100  0.84601700  1
  O  O33  1  0.96698800  0.41319100  0.64838000  1
  O  O34  1  0.61249200  0.15287000  0.05104600  1
  O  O35  1  0.16547800  0.16547800  0.04851900  1
  O  O36  1  0.83452200  0.83452200  0.95148100  1
  O  O37  1  0.38750800  0.84713000  0.94895400  1
  O  O38  1  0.84713000  0.38750800  0.94895400  1
  O  O39  1  0.66383200  0.66383200  0.04067200  1
loop_
_geom_bond_atom_site_label_1
_geom_bond_atom_site_label_2
_geom_bond_distance
_geom_bond_site_symmetry_2
Li0 O31 1.978819 1_655
Li0 O34 1.978819 1_565
Li0 O35 2.020019 1_665
Li0 O10 2.055555 1_555
Li1 O8 2.014631 1_555
Li1 O2 2.018559 1_555
Li1 O7 2.018559 1_555
Li1 O4 2.028694 1_555
Li2 O39 1.998148 1_555
Li2 O0 2.036033 1_555
Li2 O3 2.036033 1_555
Li2 O1 2.081292 1_555
Li3 O15 1.997148 1_555
Li3 O9 1.998329 1_545
Li3 O14 1.998329 1_455
Li3 O13 2.038375 1_555
Li4 O12 2.006021 1_555
Li4 O5 2.006021 1_555
Li4 O11 2.012071 1_555
Li4 O6 2.027409 1_555
Li5 O16 2.126836 1_555
Li5 O19 2.126836 1_555
Li5 O9 2.126836 1_555
Li5 O14 2.126836 1_555
Li5 O17 2.133599 1_555
Li5 O15 2.133599 1_555
Li6 O17 1.997148 1_555
Li6 O19 1.998329 1_565
Li6 O16 1.998329 1_655
Li6 O21 2.038375 1_555
Li7 O27 2.006021 1_555
Li7 O18 2.006021 1_555
Li7 O20 2.012071 1_555
Li7 O28 2.027409 1_555
Li8 O38 1.978819 1_455
Li8 O37 1.978819 1_545
Li8 O36 2.020019 1_445
Li8 O22 2.055555 1_555
Li9 O23 2.014631 1_555
Li9 O24 2.018559 1_555
Li9 O33 2.018559 1_555
Li9 O29 2.028694 1_555
Li10 O30 1.998148 1_555
Li10 O32 2.036033 1_555
Li10 O26 2.036033 1_555
Li10 O25 2.081292 1_555
Li11 O39 2.086549 1_555
Li11 O30 2.086549 1_554
Li11 O34 2.126912 1_555
Li11 O31 2.126912 1_555
Li11 O38 2.126912 1_554
Li11 O37 2.126912 1_554
O0 Ti2 1.966007 1_655
O0 Ti0 1.979117 1_655
O0 Ti1 2.140717 1_655
O1 Ti1 2.002629 1_555
O1 Ti3 2.036504 1_555
O1 Ti0 2.036504 1_555
O2 Ti8 1.968876 1_455
O2 Ti5 2.045473 1_555
O2 Ti4 2.078846 1_455
O3 Ti2 1.966007 1_565
O3 Ti3 1.979117 1_565
O3 Ti1 2.140717 1_565
O4 Ti0 2.006337 1_555
O4 Ti3 2.006337 1_555
O4 Ti2 2.031001 1_555
O5 Ti8 2.024054 1_455
O5 Ti0 2.026709 1_555
O5 Ti2 2.034324 1_565
O6 Ti3 1.995456 1_565
O6 Ti0 1.995456 1_655
O6 Ti8 2.054294 1_555
O7 Ti8 1.968876 1_545
O7 Ti9 2.045473 1_555
O7 Ti4 2.078846 1_545
O8 Ti8 1.948652 1_445
O8 Ti9 2.075365 1_455
O8 Ti5 2.075365 1_545
O9 Ti4 1.916667 1_555
O9 Ti5 1.935598 1_555
O10 Ti2 2.000001 1_665
O10 Ti3 2.019122 1_565
O10 Ti0 2.019122 1_655
O11 Ti4 2.015310 1_555
O11 Ti9 2.018610 1_555
O11 Ti5 2.018610 1_555
O12 Ti8 2.024054 1_545
O12 Ti3 2.026709 1_555
O12 Ti2 2.034324 1_655
O13 Ti11 2.026832 1_555
O13 Ti10 2.029056 1_455
O13 Ti6 2.029056 1_545
O14 Ti4 1.916667 1_555
O14 Ti9 1.935598 1_555
O15 Ti5 1.903196 1_555
O15 Ti9 1.903196 1_555
O16 Ti11 1.916667 1_555
O16 Ti6 1.935598 1_555
O17 Ti6 1.903196 1_555
O17 Ti10 1.903196 1_555
O18 Ti7 2.024054 1_565
O18 Ti14 2.026709 1_555
O18 Ti13 2.034324 1_455
O19 Ti11 1.916667 1_555
O19 Ti10 1.935598 1_555
O20 Ti11 2.015310 1_555
O20 Ti6 2.018610 1_555
O20 Ti10 2.018610 1_555
O21 Ti4 2.026832 1_555
O21 Ti9 2.029056 1_565
O21 Ti5 2.029056 1_655
O22 Ti13 2.000001 1_445
O22 Ti15 2.019122 1_455
O22 Ti14 2.019122 1_545
O23 Ti7 1.948652 1_665
O23 Ti6 2.075365 1_655
O23 Ti10 2.075365 1_565
O24 Ti7 1.968876 1_565
O24 Ti6 2.045473 1_555
O24 Ti11 2.078846 1_565
O25 Ti16 2.002629 1_555
O25 Ti15 2.036504 1_555
O25 Ti14 2.036504 1_555
O26 Ti13 1.966007 1_455
O26 Ti15 1.979117 1_455
O26 Ti16 2.140717 1_455
O27 Ti7 2.024054 1_655
O27 Ti15 2.026709 1_555
O27 Ti13 2.034324 1_545
O28 Ti15 1.995456 1_455
O28 Ti14 1.995456 1_545
O28 Ti7 2.054294 1_555
O29 Ti15 2.006337 1_555
O29 Ti14 2.006337 1_555
O29 Ti13 2.031001 1_555
O30 Ti17 1.945969 1_556
O30 Ti12 1.945969 1_556
O31 Ti1 1.849849 1_555
O31 Ti12 1.991868 1_555
O32 Ti13 1.966007 1_545
O32 Ti14 1.979117 1_545
O32 Ti16 2.140717 1_545
O33 Ti7 1.968876 1_655
O33 Ti10 2.045473 1_555
O33 Ti11 2.078846 1_655
O34 Ti1 1.849849 1_555
O34 Ti17 1.991868 1_555
O35 Ti12 2.035017 1_555
O35 Ti17 2.035017 1_555
O35 Ti1 2.043597 1_555
O36 Ti12 2.035017 1_656
O36 Ti17 2.035017 1_566
O36 Ti16 2.043597 1_555
O37 Ti16 1.849849 1_555
O37 Ti17 1.991868 1_566
O38 Ti16 1.849849 1_555
O38 Ti12 1.991868 1_656
O39 Ti12 1.945969 1_655
O39 Ti17 1.945969 1_565
