# generated using pymatgen
data_Li4Mn3(BO3)4
_symmetry_space_group_name_H-M   'P 1'
_cell_length_a   9.14706300
_cell_length_b   5.33982700
_cell_length_c   10.89991355
_cell_angle_alpha   62.69170329
_cell_angle_beta   90.00000000
_cell_angle_gamma   90.00000000
_symmetry_Int_Tables_number   1
_chemical_formula_structural   Li4Mn3(BO3)4
_chemical_formula_sum   'Li8 Mn6 B8 O24'
_cell_volume   473.05776673
_cell_formula_units_Z   2
loop_
 _symmetry_equiv_pos_site_id
 _symmetry_equiv_pos_as_xyz
  1  'x, y, z'
loop_
 _atom_site_type_symbol
 _atom_site_label
 _atom_site_symmetry_multiplicity
 _atom_site_fract_x
 _atom_site_fract_y
 _atom_site_fract_z
 _atom_site_occupancy
  Li  Li0  1  0.23563900  0.50393400  0.34247200  1
  Li  Li1  1  0.90845200  0.45326400  0.36688600  1
  Li  Li2  1  0.42932200  0.54245900  0.12685800  1
  Li  Li3  1  0.74035300  0.06700800  0.61914000  1
  Li  Li4  1  0.76436100  0.50393400  0.84247200  1
  Li  Li5  1  0.09154800  0.45326400  0.86688600  1
  Li  Li6  1  0.25964700  0.06700800  0.11914000  1
  Li  Li7  1  0.57067800  0.54245900  0.62685800  1
  Mn  Mn0  1  0.57310500  0.98577600  0.87511900  1
  Mn  Mn1  1  0.24578700  0.94895900  0.88195800  1
  Mn  Mn2  1  0.06420100  0.01542700  0.62199300  1
  Mn  Mn3  1  0.42689500  0.98577600  0.37511900  1
  Mn  Mn4  1  0.75421300  0.94895900  0.38195800  1
  Mn  Mn5  1  0.93579900  0.01542700  0.12199300  1
  B  B0  1  0.57099600  0.44868900  0.38365500  1
  B  B1  1  0.90711500  0.96426300  0.86726900  1
  B  B2  1  0.07504200  0.54970800  0.11735500  1
  B  B3  1  0.41397200  0.02779700  0.63537400  1
  B  B4  1  0.09288500  0.96426300  0.36726900  1
  B  B5  1  0.42900400  0.44868900  0.88365500  1
  B  B6  1  0.58602800  0.02779700  0.13537400  1
  B  B7  1  0.92495800  0.54970800  0.61735500  1
  O  O0  1  0.56384500  0.86364200  0.06893300  1
  O  O1  1  0.92133800  0.32042100  0.58945100  1
  O  O2  1  0.20296300  0.70013400  0.10716300  1
  O  O3  1  0.54095800  0.11813500  0.67811900  1
  O  O4  1  0.27800700  0.09273300  0.66408400  1
  O  O5  1  0.94363900  0.62487600  0.15455700  1
  O  O6  1  0.43815700  0.38409600  0.34171600  1
  O  O7  1  0.69787500  0.30002700  0.40186600  1
  O  O8  1  0.77831300  0.86294500  0.84765100  1
  O  O9  1  0.03665900  0.87733400  0.82589700  1
  O  O10  1  0.08052600  0.16064500  0.41956500  1
  O  O11  1  0.42783800  0.67666100  0.91313600  1
  O  O12  1  0.07866200  0.32042100  0.08945100  1
  O  O13  1  0.43615500  0.86364200  0.56893300  1
  O  O14  1  0.79703700  0.70013400  0.60716300  1
  O  O15  1  0.45904200  0.11813500  0.17811900  1
  O  O16  1  0.72199300  0.09273300  0.16408400  1
  O  O17  1  0.05636100  0.62487600  0.65455700  1
  O  O18  1  0.56184300  0.38409600  0.84171600  1
  O  O19  1  0.22168700  0.86294500  0.34765100  1
  O  O20  1  0.96334100  0.87733400  0.32589700  1
  O  O21  1  0.30212500  0.30002700  0.90186600  1
  O  O22  1  0.57216200  0.67666100  0.41313600  1
  O  O23  1  0.91947400  0.16064500  0.91956500  1
loop_
_geom_bond_atom_site_label_1
_geom_bond_atom_site_label_2
_geom_bond_distance
_geom_bond_site_symmetry_2
Li0 O19 1.947788 1_555
Li0 O6 1.961109 1_555
Li0 O10 2.160112 1_555
Li0 O2 2.302132 1_555
Li1 O7 2.058824 1_555
Li1 O5 2.086541 1_555
Li1 O10 2.103656 1_655
Li1 O20 2.156657 1_555
Li1 O1 2.196196 1_555
Li2 O0 1.964842 1_555
Li2 O15 2.087676 1_555
Li2 O6 2.095027 1_555
Li2 O11 2.099707 1_554
Li2 O2 2.208209 1_555
Li3 O3 1.993836 1_555
Li3 O1 2.067521 1_555
Li3 O14 2.087677 1_545
Li3 O7 2.145705 1_555
Li3 O8 2.240858 1_545
Li4 O8 1.947788 1_555
Li4 O18 1.961109 1_555
Li4 O23 2.160112 1_555
Li4 O14 2.302132 1_555
Li5 O21 2.058824 1_555
Li5 O17 2.086541 1_555
Li5 O23 2.103656 1_455
Li5 O9 2.156657 1_555
Li5 O12 2.196196 1_556
Li6 O15 1.993836 1_555
Li6 O12 2.067521 1_555
Li6 O2 2.087677 1_545
Li6 O21 2.145705 1_554
Li6 O19 2.240858 1_545
Li7 O13 1.964842 1_555
Li7 O3 2.087676 1_555
Li7 O18 2.095027 1_555
Li7 O22 2.099707 1_555
Li7 O14 2.208209 1_555
Mn0 O0 1.905579 1_556
Mn0 O3 1.950460 1_565
Mn0 O18 1.989113 1_565
Mn0 O11 2.008553 1_555
Mn0 O8 2.055077 1_555
Mn1 O21 2.049435 1_565
Mn1 O9 2.096027 1_555
Mn1 O11 2.132904 1_555
Mn1 O4 2.154781 1_565
Mn1 O2 2.225268 1_556
Mn2 O17 1.949649 1_545
Mn2 O10 1.980431 1_555
Mn2 O1 1.988924 1_455
Mn2 O9 2.010750 1_545
Mn2 O4 2.092705 1_555
Mn3 O13 1.905579 1_555
Mn3 O15 1.950460 1_565
Mn3 O6 1.989113 1_565
Mn3 O22 2.008553 1_555
Mn3 O19 2.055077 1_555
Mn4 O7 2.049435 1_565
Mn4 O20 2.096027 1_555
Mn4 O22 2.132904 1_555
Mn4 O16 2.154781 1_565
Mn4 O14 2.225268 1_555
Mn5 O5 1.949649 1_545
Mn5 O23 1.980431 1_554
Mn5 O12 1.988924 1_655
Mn5 O20 2.010750 1_545
Mn5 O16 2.092705 1_555
B0 O7 1.368177 1_555
B0 O22 1.394344 1_555
B0 O6 1.396082 1_555
B1 O8 1.353751 1_555
B1 O23 1.409196 1_565
B1 O9 1.419504 1_655
B2 O5 1.385485 1_455
B2 O12 1.390803 1_555
B2 O2 1.394564 1_555
B3 O4 1.365455 1_555
B3 O13 1.384365 1_545
B3 O3 1.416050 1_555
B4 O19 1.353751 1_555
B4 O10 1.409196 1_565
B4 O20 1.419504 1_455
B5 O21 1.368177 1_555
B5 O11 1.394344 1_555
B5 O18 1.396082 1_555
B6 O16 1.365455 1_555
B6 O0 1.384365 1_545
B6 O15 1.416050 1_555
B7 O17 1.385485 1_655
B7 O1 1.390803 1_555
B7 O14 1.394564 1_555
