# generated using pymatgen
data_Li19Mn8C16(SO16)4
_symmetry_space_group_name_H-M   'P 1'
_cell_length_a   9.45927200
_cell_length_b   9.55050989
_cell_length_c   16.38879394
_cell_angle_alpha   74.12259581
_cell_angle_beta   73.52415432
_cell_angle_gamma   60.37057326
_symmetry_Int_Tables_number   1
_chemical_formula_structural   Li19Mn8C16(SO16)4
_chemical_formula_sum   'Li19 Mn8 C16 S4 O64'
_cell_volume   1218.23620482
_cell_formula_units_Z   1
loop_
 _symmetry_equiv_pos_site_id
 _symmetry_equiv_pos_as_xyz
  1  'x, y, z'
loop_
 _atom_site_type_symbol
 _atom_site_label
 _atom_site_symmetry_multiplicity
 _atom_site_fract_x
 _atom_site_fract_y
 _atom_site_fract_z
 _atom_site_occupancy
  Li  Li0  1  0.01153700  0.41152800  0.67185600  1
  Li  Li1  1  0.79016800  0.80505700  0.53727600  1
  Li  Li2  1  0.91576200  0.91302500  0.16365800  1
  Li  Li3  1  0.40795000  0.41552100  0.66763600  1
  Li  Li4  1  0.41634000  0.00230900  0.66888600  1
  Li  Li5  1  0.71710700  0.70834500  0.96082000  1
  Li  Li6  1  0.50435200  0.08388600  0.84290900  1
  Li  Li7  1  0.12240400  0.69598200  0.95859500  1
  Li  Li8  1  0.36250500  0.78499000  0.54320000  1
  Li  Li9  1  0.87305400  0.28525100  0.03695900  1
  Li  Li10  1  0.31173800  0.27060100  0.04208000  1
  Li  Li11  1  0.58497700  0.00184900  0.32787900  1
  Li  Li12  1  0.57266600  0.58426800  0.33305600  1
  Li  Li13  1  0.07368500  0.08229300  0.84043400  1
  Li  Li14  1  0.91619100  0.50625000  0.16424800  1
  Li  Li15  1  0.78705500  0.36872000  0.54611400  1
  Li  Li16  1  0.21882700  0.20574200  0.46195000  1
  Li  Li17  1  0.29622800  0.87041900  0.04421000  1
  Li  Li18  1  0.02086300  0.57067400  0.33705100  1
  Mn  Mn0  1  0.50061700  0.50232700  0.99924400  1
  Mn  Mn1  1  0.75428000  0.75192700  0.74812600  1
  Mn  Mn2  1  0.74499300  0.25584500  0.75191400  1
  Mn  Mn3  1  0.25128000  0.75041300  0.25013400  1
  Mn  Mn4  1  0.24744600  0.75387300  0.74951700  1
  Mn  Mn5  1  0.99494300  0.00234600  0.49797000  1
  Mn  Mn6  1  0.74759500  0.24997500  0.25012900  1
  Mn  Mn7  1  0.25588800  0.24603500  0.24880300  1
  C  C0  1  0.80580700  0.42841400  0.85967900  1
  C  C1  1  0.41546900  0.81214400  0.86333500  1
  C  C2  1  0.07811100  0.70319700  0.63325000  1
  C  C3  1  0.40633400  0.42757600  0.85745900  1
  C  C4  1  0.91880800  0.91196100  0.35436700  1
  C  C5  1  0.39569500  0.38911800  0.33098100  1
  C  C6  1  0.69554700  0.07976900  0.63879800  1
  C  C7  1  0.89355800  0.89963700  0.83032900  1
  C  C8  1  0.29845000  0.92125100  0.36488500  1
  C  C9  1  0.60853100  0.61130000  0.66118600  1
  C  C10  1  0.10299400  0.11321000  0.16728300  1
  C  C11  1  0.58316700  0.58689800  0.14204000  1
  C  C12  1  0.09050500  0.07960300  0.63905400  1
  C  C13  1  0.91772500  0.30190700  0.36047500  1
  C  C14  1  0.58051000  0.20070700  0.14054500  1
  C  C15  1  0.19117900  0.58614300  0.13754000  1
  S  S0  1  0.18975200  0.17627700  0.94248600  1
  S  S1  1  0.68816900  0.68547200  0.43628600  1
  S  S2  1  0.30913400  0.30300500  0.56965300  1
  S  S3  1  0.82333200  0.80101000  0.06257200  1
  O  O0  1  0.09555100  0.07714000  0.97311500  1
  O  O1  1  0.87933800  0.35021100  0.79555200  1
  O  O2  1  0.74620500  0.36478500  0.93246700  1
  O  O3  1  0.35099800  0.08306700  0.97536200  1
  O  O4  1  0.22747700  0.20080300  0.84698900  1
  O  O5  1  0.73704800  0.62620600  0.66015600  1
  O  O6  1  0.08925100  0.32982800  0.97958000  1
  O  O7  1  0.78463300  0.57596100  0.85341300  1
  O  O8  1  0.47440900  0.74494300  0.93437500  1
  O  O9  1  0.06423900  0.78369000  0.34494600  1
  O  O10  1  0.00630700  0.62764900  0.69344100  1
  O  O11  1  0.52837100  0.28512300  0.85165700  1
  O  O12  1  0.49355700  0.87374000  0.79716700  1
  O  O13  1  0.35244700  0.51607400  0.78558700  1
  O  O14  1  0.00210900  0.79469000  0.56887200  1
  O  O15  1  0.83828100  0.98396300  0.29091800  1
  O  O16  1  0.11365200  0.97474900  0.16399400  1
  O  O17  1  0.62183200  0.47293600  0.65520300  1
  O  O18  1  0.68498500  0.94734100  0.64218700  1
  O  O19  1  0.21825500  0.68959600  0.63706400  1
  O  O20  1  0.72051900  0.19951800  0.14284000  1
  O  O21  1  0.34120000  0.48305900  0.92930500  1
  O  O22  1  0.85999100  0.95854800  0.42792900  1
  O  O23  1  0.39760500  0.14426800  0.53608200  1
  O  O24  1  0.58820600  0.59252000  0.46771500  1
  O  O25  1  0.76200300  0.88621800  0.83363300  1
  O  O26  1  0.36033300  0.83984900  0.30144900  1
  O  O27  1  0.03582300  0.76654900  0.82817700  1
  O  O28  1  0.53747300  0.25698700  0.32187000  1
  O  O29  1  0.21587900  0.87181400  0.43480800  1
  O  O30  1  0.71366400  0.72227200  0.34037300  1
  O  O31  1  0.85209000  0.58502100  0.46497500  1
  O  O32  1  0.14774100  0.39949100  0.53882900  1
  O  O33  1  0.27315600  0.26469200  0.66720600  1
  O  O34  1  0.78632500  0.12860900  0.57316400  1
  O  O35  1  0.95588900  0.24249700  0.17606900  1
  O  O36  1  0.46303300  0.74073500  0.66689800  1
  O  O37  1  0.61801700  0.16474400  0.69988800  1
  O  O38  1  0.22902100  0.13353200  0.16115500  1
  O  O39  1  0.59747600  0.84058900  0.47294600  1
  O  O40  1  0.40908900  0.39194600  0.54645500  1
  O  O41  1  0.78747800  0.29916300  0.35167500  1
  O  O42  1  0.15243800  0.02119800  0.56789800  1
  O  O43  1  0.27865600  0.81870400  0.85823300  1
  O  O44  1  0.64820200  0.53742200  0.06839300  1
  O  O45  1  0.88727900  0.03691500  0.82853200  1
  O  O46  1  0.32217800  0.04510900  0.36029900  1
  O  O47  1  0.39339400  0.52588500  0.32584400  1
  O  O48  1  0.97632000  0.22515800  0.43269800  1
  O  O49  1  0.16255500  0.99611000  0.70713800  1
  O  O50  1  0.66247600  0.52075100  0.20553900  1
  O  O51  1  0.51693900  0.12664200  0.20505300  1
  O  O52  1  0.96193800  0.21788200  0.64558700  1
  O  O53  1  0.43188700  0.70589400  0.15001400  1
  O  O54  1  0.98907200  0.37907500  0.30270600  1
  O  O55  1  0.51153600  0.27899600  0.07413400  1
  O  O56  1  0.17693500  0.45622800  0.14372800  1
  O  O57  1  0.92266300  0.63872300  0.02957400  1
  O  O58  1  0.26245100  0.37381400  0.34269800  1
  O  O59  1  0.66349000  0.88366600  0.03302800  1
  O  O60  1  0.80627300  0.76635500  0.15885400  1
  O  O61  1  0.25580900  0.64843300  0.06635300  1
  O  O62  1  0.13518400  0.65762900  0.20612000  1
  O  O63  1  0.92219400  0.89411000  0.02927700  1
loop_
_geom_bond_atom_site_label_1
_geom_bond_atom_site_label_2
_geom_bond_distance
_geom_bond_site_symmetry_2
Li0 O33 2.148646 1_555
Li0 O1 2.157066 1_455
Li0 O10 2.162540 1_555
Li0 O32 2.196281 1_555
Li0 O52 2.287792 1_455
Li0 O5 2.405331 1_455
Li1 O22 2.155273 1_555
Li1 O14 2.159103 1_655
Li1 O18 2.182640 1_555
Li1 O39 2.198109 1_555
Li1 O5 2.370287 1_555
Li1 O31 2.432067 1_555
Li2 O60 2.140581 1_555
Li2 O15 2.182009 1_555
Li2 O16 2.224914 1_655
Li2 O63 2.239969 1_555
Li2 O62 2.372022 1_655
Li2 O20 2.421545 1_565
Li3 O40 2.055524 1_555
Li3 O13 2.208211 1_555
Li3 O37 2.271888 1_555
Li3 O17 2.288531 1_555
Li3 O19 2.338936 1_555
Li3 O33 2.351080 1_555
Li4 O33 2.177652 1_555
Li4 O23 2.230093 1_555
Li4 O12 2.243420 1_545
Li4 O18 2.258446 1_545
Li4 O36 2.319986 1_545
Li4 O49 2.329393 1_545
Li5 O59 2.089345 1_556
Li5 O7 2.210553 1_555
Li5 O44 2.241267 1_556
Li5 O57 2.246542 1_556
Li5 O8 2.295326 1_555
Li5 O25 2.384288 1_555
Li6 O11 2.089723 1_555
Li6 O25 2.219103 1_545
Li6 O3 2.243274 1_555
Li6 O4 2.271681 1_555
Li6 O37 2.376451 1_555
Li6 O12 2.381126 1_545
Li7 O21 2.111452 1_555
Li7 O57 2.156144 1_456
Li7 O63 2.218249 1_456
Li7 O61 2.275115 1_556
Li7 O27 2.313524 1_555
Li7 O43 2.354317 1_555
Li8 O19 2.080875 1_555
Li8 O42 2.193738 1_565
Li8 O29 2.285020 1_555
Li8 O24 2.309362 1_555
Li8 O36 2.328072 1_555
Li8 O39 2.434891 1_555
Li9 O2 2.121787 1_554
Li9 O20 2.175771 1_555
Li9 O6 2.190624 1_654
Li9 O0 2.286349 1_654
Li9 O44 2.362597 1_555
Li9 O35 2.483134 1_555
Li10 O55 2.142502 1_555
Li10 O3 2.173679 1_554
Li10 O38 2.209775 1_555
Li10 O6 2.350958 1_554
Li10 O56 2.391630 1_555
Li10 O21 2.413678 1_554
Li11 O51 2.133174 1_555
Li11 O28 2.227165 1_555
Li11 O15 2.228431 1_545
Li11 O46 2.233389 1_555
Li11 O30 2.298172 1_545
Li11 O39 2.452394 1_545
Li12 O47 2.070082 1_555
Li12 O50 2.152724 1_555
Li12 O24 2.277905 1_555
Li12 O26 2.304623 1_555
Li12 O30 2.333610 1_555
Li12 O41 2.462217 1_555
Li13 O45 2.081324 1_455
Li13 O0 2.227121 1_555
Li13 O4 2.278629 1_555
Li13 O43 2.296633 1_545
Li13 O49 2.326904 1_545
Li13 O1 2.356681 1_455
Li14 O60 2.153582 1_555
Li14 O56 2.208399 1_655
Li14 O57 2.224400 1_555
Li14 O50 2.244625 1_555
Li14 O35 2.315758 1_555
Li14 O54 2.377174 1_555
Li15 O17 2.116660 1_555
Li15 O34 2.216515 1_555
Li15 O52 2.314717 1_555
Li15 O48 2.370613 1_555
Li15 O24 2.377047 1_555
Li15 O31 2.388243 1_555
Li16 O23 2.115186 1_555
Li16 O32 2.242417 1_555
Li16 O58 2.246663 1_555
Li16 O46 2.253058 1_555
Li16 O42 2.305884 1_555
Li16 O48 2.383469 1_455
Li17 O53 2.213605 1_555
Li17 O8 2.231441 1_554
Li17 O61 2.252648 1_555
Li17 O3 2.262972 1_564
Li17 O0 2.269154 1_564
Li17 O16 2.296729 1_555
Li18 O58 2.131244 1_555
Li18 O54 2.226961 1_455
Li18 O31 2.237244 1_455
Li18 O62 2.249504 1_555
Li18 O9 2.307255 1_555
Li18 O30 2.517280 1_455
Mn0 O55 2.118521 1_556
Mn0 O2 2.155716 1_555
Mn0 O61 2.172387 1_556
Mn0 O8 2.189596 1_555
Mn0 O44 2.216639 1_556
Mn0 O21 2.234246 1_555
Mn1 O7 2.025193 1_555
Mn1 O10 2.113688 1_655
Mn1 O18 2.142463 1_555
Mn1 O12 2.152232 1_555
Mn1 O25 2.179035 1_555
Mn1 O5 2.195634 1_555
Mn2 O45 2.121212 1_555
Mn2 O11 2.175475 1_555
Mn2 O1 2.222454 1_555
Mn2 O37 2.224132 1_555
Mn2 O52 2.227311 1_555
Mn2 O17 2.242560 1_555
Mn3 O9 1.949515 1_555
Mn3 O53 1.966027 1_555
Mn3 O26 2.063331 1_555
Mn3 O62 2.067090 1_555
Mn3 O47 2.141253 1_555
Mn3 O16 2.215350 1_555
Mn4 O13 1.965172 1_555
Mn4 O27 2.016368 1_555
Mn4 O49 2.019827 1_555
Mn4 O36 2.069194 1_555
Mn4 O43 2.174349 1_555
Mn4 O19 2.219216 1_555
Mn5 O29 1.973877 1_645
Mn5 O14 1.984647 1_645
Mn5 O34 1.986898 1_555
Mn5 O48 2.048001 1_555
Mn5 O22 2.178086 1_545
Mn5 O42 2.216269 1_655
Mn6 O35 1.977932 1_555
Mn6 O28 1.980744 1_555
Mn6 O41 2.022812 1_555
Mn6 O20 2.056859 1_555
Mn6 O15 2.208678 1_545
Mn6 O50 2.260722 1_555
Mn7 O51 2.137977 1_555
Mn7 O38 2.145691 1_555
Mn7 O56 2.215554 1_555
Mn7 O54 2.223386 1_455
Mn7 O46 2.226224 1_555
Mn7 O58 2.240027 1_555
C0 O1 1.283485 1_555
C0 O2 1.292598 1_555
C0 O7 1.299915 1_555
C1 O43 1.289995 1_555
C1 O8 1.297606 1_555
C1 O12 1.301493 1_555
C2 O19 1.284698 1_555
C2 O10 1.292324 1_555
C2 O14 1.303162 1_555
C3 O11 1.283826 1_555
C3 O21 1.286041 1_555
C3 O13 1.315855 1_555
C4 O22 1.276412 1_555
C4 O15 1.294025 1_555
C4 O9 1.316710 1_655
C5 O47 1.275329 1_555
C5 O58 1.294733 1_555
C5 O28 1.315087 1_555
C6 O37 1.280018 1_555
C6 O18 1.302317 1_545
C6 O34 1.307502 1_555
C7 O45 1.275218 1_565
C7 O25 1.297535 1_555
C7 O27 1.316858 1_655
C8 O46 1.288256 1_565
C8 O26 1.294208 1_555
C8 O29 1.306555 1_555
C9 O5 1.287085 1_555
C9 O17 1.292738 1_555
C9 O36 1.318742 1_555
C10 O38 1.272445 1_555
C10 O16 1.290673 1_545
C10 O35 1.329056 1_455
C11 O50 1.288179 1_555
C11 O44 1.289187 1_555
C11 O53 1.312842 1_555
C12 O52 1.284525 1_455
C12 O42 1.288241 1_555
C12 O49 1.323838 1_545
C13 O54 1.281635 1_555
C13 O41 1.293907 1_555
C13 O48 1.319549 1_555
C14 O51 1.276891 1_555
C14 O55 1.282383 1_555
C14 O20 1.329919 1_555
C15 O56 1.287094 1_555
C15 O61 1.289985 1_555
C15 O62 1.317018 1_555
O0 S0 1.504286 1_555
O3 S0 1.506772 1_555
O4 S0 1.482213 1_555
O6 S0 1.485067 1_555
O23 S2 1.497369 1_555
O24 S1 1.500351 1_555
O30 S1 1.489647 1_555
O31 S1 1.497190 1_555
O32 S2 1.492234 1_555
O33 S2 1.516643 1_555
O39 S1 1.493194 1_555
O40 S2 1.474305 1_555
O57 S3 1.519214 1_555
O59 S3 1.472975 1_555
O60 S3 1.499372 1_555
O63 S3 1.493360 1_555
