# generated using pymatgen
data_LiV3(O2F)2
_symmetry_space_group_name_H-M   'P 1'
_cell_length_a   5.17631004
_cell_length_b   5.66721394
_cell_length_c   5.17001313
_cell_angle_alpha   118.43055370
_cell_angle_beta   61.05286301
_cell_angle_gamma   118.95956239
_symmetry_Int_Tables_number   1
_chemical_formula_structural   LiV3(O2F)2
_chemical_formula_sum   'Li1 V3 O4 F2'
_cell_volume   110.18131282
_cell_formula_units_Z   1
loop_
 _symmetry_equiv_pos_site_id
 _symmetry_equiv_pos_as_xyz
  1  'x, y, z'
loop_
 _atom_site_type_symbol
 _atom_site_label
 _atom_site_symmetry_multiplicity
 _atom_site_fract_x
 _atom_site_fract_y
 _atom_site_fract_z
 _atom_site_occupancy
  Li  Li0  1  0.83032300  0.59943500  0.89203200  1
  V  V0  1  0.16170200  0.42198100  0.13829000  1
  V  V1  1  0.66825300  0.98959700  0.64621700  1
  V  V2  1  0.37493900  0.06212800  0.34520400  1
  O  O0  1  0.06393500  0.20756600  0.41017200  1
  O  O1  1  0.50735400  0.75298200  0.28650800  1
  O  O2  1  0.76224000  0.23133600  0.05399800  1
  O  O3  1  0.44325600  0.25021500  0.75375500  1
  F  F0  1  0.26129700  0.74681600  0.92757700  1
  F  F1  1  0.92670000  0.73794600  0.54624200  1
loop_
_geom_bond_atom_site_label_1
_geom_bond_atom_site_label_2
_geom_bond_distance
_geom_bond_site_symmetry_2
Li0 O1 2.032223 1_556
Li0 O3 2.154448 1_555
Li0 O2 2.417206 1_556
O0 V1 1.943191 1_445
O0 V2 1.970203 1_555
O0 V0 2.012645 1_555
O1 V1 1.998390 1_555
O1 V0 2.003887 1_555
O1 V2 2.021556 1_565
O2 V2 1.948505 1_555
O2 V0 1.973148 1_655
O2 V1 2.038495 1_544
O3 V0 1.936594 1_556
O3 V2 1.984163 1_555
O3 V1 2.025852 1_545
F0 Li0 2.038238 1_455
F0 V1 2.139935 1_555
F0 V2 2.176885 1_566
F0 V0 2.299646 1_556
F1 Li0 2.038319 1_555
F1 V1 2.137091 1_555
F1 V0 2.272493 1_655
F1 V2 2.279237 1_665
