# generated using pymatgen
data_Li2Co4OF8
_symmetry_space_group_name_H-M   'P 1'
_cell_length_a   5.30641001
_cell_length_b   9.10239163
_cell_length_c   14.37946253
_cell_angle_alpha   90.05738607
_cell_angle_beta   90.13500210
_cell_angle_gamma   90.38324355
_symmetry_Int_Tables_number   1
_chemical_formula_structural   Li2Co4OF8
_chemical_formula_sum   'Li8 Co16 O4 F32'
_cell_volume   694.52491201
_cell_formula_units_Z   4
loop_
 _symmetry_equiv_pos_site_id
 _symmetry_equiv_pos_as_xyz
  1  'x, y, z'
loop_
 _atom_site_type_symbol
 _atom_site_label
 _atom_site_symmetry_multiplicity
 _atom_site_fract_x
 _atom_site_fract_y
 _atom_site_fract_z
 _atom_site_occupancy
  Li  Li0  1  0.99341969  0.01744941  0.15968814  1
  Li  Li1  1  0.01081630  0.00234503  0.36182639  1
  Li  Li2  1  0.48698767  0.47325684  0.65733540  1
  Li  Li3  1  0.48629876  0.53838830  0.83550317  1
  Li  Li4  1  0.47681708  0.51594285  0.35816132  1
  Li  Li5  1  0.51500914  0.47748966  0.15711716  1
  Li  Li6  1  0.99761605  0.02665468  0.64822076  1
  Li  Li7  1  0.99331339  0.97112159  0.84478063  1
  Co  Co0  1  0.02279957  0.34226623  0.31952611  1
  Co  Co1  1  0.01963850  0.66709152  0.18252894  1
  Co  Co2  1  0.99485072  0.64628182  0.47107009  1
  Co  Co3  1  0.99020242  0.33231035  0.01046041  1
  Co  Co4  1  0.49072660  0.16950186  0.50461979  1
  Co  Co5  1  0.49320757  0.83061882  0.99598550  1
  Co  Co6  1  0.49641933  0.83698314  0.68832737  1
  Co  Co7  1  0.49082602  0.16419857  0.81425523  1
  Co  Co8  1  0.48249219  0.83333999  0.18615901  1
  Co  Co9  1  0.48563277  0.16671060  0.31606480  1
  Co  Co10  1  0.48347127  0.16362521  0.01706482  1
  Co  Co11  1  0.49121967  0.83484027  0.49063302  1
  Co  Co12  1  0.02377689  0.67523814  0.99341293  1
  Co  Co13  1  0.03158163  0.33058846  0.50434311  1
  Co  Co14  1  0.00967266  0.64725970  0.68529280  1
  Co  Co15  1  0.01050085  0.36384066  0.80466865  1
  O  O0  1  0.14984556  0.48189685  0.41668539  1
  O  O1  1  0.20498360  0.17702510  0.41057879  1
  O  O2  1  0.20376590  0.80618736  0.09040392  1
  O  O3  1  0.20819791  0.50656942  0.74741508  1
  F  F0  1  0.13697135  0.15536463  0.76308543  1
  F  F1  1  0.14291134  0.84909263  0.73875526  1
  F  F2  1  0.15414489  0.83118078  0.42432964  1
  F  F3  1  0.14352345  0.16323623  0.07630137  1
  F  F4  1  0.16810536  0.50038624  0.07837223  1
  F  F5  1  0.30207290  0.99984445  0.24829597  1
  F  F6  1  0.31166296  0.31251232  0.91646535  1
  F  F7  1  0.32710700  0.68512861  0.58746032  1
  F  F8  1  0.35424005  0.99015403  0.58640489  1
  F  F9  1  0.35236053  0.00930123  0.91596148  1
  F  F10  1  0.34305925  0.32084894  0.58616068  1
  F  F11  1  0.34463772  0.67275572  0.91796317  1
  F  F12  1  0.35541360  0.34247487  0.24628534  1
  F  F13  1  0.36119436  0.64471311  0.24761421  1
  F  F14  1  0.66240464  0.66250094  0.74582067  1
  F  F15  1  0.65102108  0.34371218  0.75927475  1
  F  F16  1  0.64941661  0.67560823  0.41863157  1
  F  F17  1  0.65891520  0.33140631  0.07555899  1
  F  F18  1  0.64790091  0.00344290  0.41650663  1
  F  F19  1  0.64460790  0.99531680  0.08621681  1
  F  F20  1  0.68021009  0.33259492  0.40769850  1
  F  F21  1  0.69720631  0.66859835  0.08666544  1
  F  F22  1  0.68591067  0.00208129  0.75204940  1
  F  F23  1  0.83495974  0.49735041  0.24027903  1
  F  F24  1  0.79218988  0.17679699  0.91570027  1
  F  F25  1  0.79862140  0.82609650  0.59061638  1
  F  F26  1  0.86660135  0.49090164  0.91838979  1
  F  F27  1  0.84985661  0.51443824  0.58243043  1
  F  F28  1  0.83285570  0.17033248  0.57074982  1
  F  F29  1  0.82968052  0.83261401  0.92776874  1
  F  F30  1  0.84082315  0.15620396  0.26316365  1
  F  F31  1  0.83532677  0.84398663  0.23689206  1
loop_
_geom_bond_atom_site_label_1
_geom_bond_atom_site_label_2
_geom_bond_distance
_geom_bond_site_symmetry_2
Li0 O2 2.442627 1_645
Li1 O1 2.013355 1_555
Li2 O3 1.993120 1_555
Li3 O3 1.962343 1_555
Li4 O0 1.953158 1_555
Co0 O0 2.000571 1_555
Co0 F12 2.057438 1_555
Co0 F23 2.073997 1_455
Co0 F30 2.104594 1_455
Co0 O1 2.220033 1_555
Co0 F20 2.220141 1_455
Co1 F23 2.005812 1_455
Co1 F31 2.045095 1_455
Co1 F13 2.049301 1_555
Co1 O2 2.074951 1_555
Co1 F21 2.194759 1_455
Co1 F4 2.276704 1_555
Co2 O0 1.882568 1_655
Co2 F2 1.996171 1_655
Co2 F16 2.000052 1_555
Co2 F27 2.143284 1_555
Co2 F7 2.451757 1_655
Co2 F25 2.596879 1_555
Co3 F3 1.985639 1_655
Co3 F17 1.993557 1_555
Co3 F4 2.039294 1_655
Co3 F26 2.068629 1_554
Co3 F6 2.187131 1_654
Co3 F24 2.221256 1_554
Co4 F10 1.975390 1_555
Co4 O1 2.030832 1_555
Co4 F28 2.047418 1_555
Co4 F8 2.136506 1_545
Co4 F18 2.145621 1_555
Co4 F20 2.268909 1_555
Co5 F11 1.980519 1_555
Co5 F29 2.039184 1_555
Co5 O2 2.063397 1_556
Co5 F9 2.131658 1_565
Co5 F19 2.133402 1_556
Co5 F21 2.250678 1_556
Co6 F14 1.999891 1_555
Co6 F1 2.016387 1_555
Co6 F22 2.020324 1_565
Co6 F25 2.137278 1_555
Co6 F8 2.161938 1_555
Co6 F7 2.189683 1_555
Co7 F15 2.001193 1_555
Co7 F0 2.016174 1_555
Co7 F22 2.017785 1_555
Co7 F9 2.159160 1_555
Co7 F24 2.164385 1_555
Co7 F6 2.215007 1_555
Co8 F5 2.008145 1_555
Co8 F31 2.009484 1_555
Co8 O2 2.032077 1_555
Co8 F13 2.033243 1_555
Co8 F19 2.229848 1_555
Co8 F21 2.370614 1_555
Co9 F12 2.014599 1_555
Co9 O1 2.021100 1_555
Co9 F30 2.036967 1_555
Co9 F5 2.044050 1_545
Co9 F20 2.247428 1_555
Co9 F18 2.247567 1_555
Co10 F17 1.970096 1_555
Co10 F3 1.996693 1_555
Co10 F19 2.020770 1_545
Co10 F9 2.132816 1_554
Co10 F6 2.185088 1_554
Co10 F24 2.198070 1_554
Co11 F16 1.973506 1_555
Co11 F2 2.024967 1_555
Co11 F18 2.042801 1_565
Co11 F8 2.106671 1_555
Co11 F7 2.132517 1_555
Co11 F25 2.173721 1_555
Co12 F29 2.005422 1_455
Co12 F11 2.021301 1_555
Co12 O2 2.062340 1_556
Co12 F4 2.151259 1_556
Co12 F26 2.155965 1_455
Co12 F21 2.194182 1_456
Co13 O0 1.968534 1_555
Co13 F10 2.029000 1_555
Co13 F28 2.034364 1_455
Co13 O1 2.153515 1_555
Co13 F27 2.239225 1_455
Co13 F20 2.323000 1_455
Co14 O3 1.887754 1_555
Co14 F14 2.045292 1_455
Co14 F27 2.084561 1_455
Co14 F1 2.107906 1_555
Co14 F7 2.222508 1_555
Co14 F25 2.403985 1_455
Co15 O3 1.858533 1_555
Co15 F15 2.021779 1_455
Co15 F0 2.103705 1_555
Co15 F26 2.146776 1_455
Co15 F6 2.314274 1_555
Co15 F24 2.603361 1_455
F0 Li6 2.150875 1_455
F0 Li7 2.182815 1_445
F1 Li7 2.049979 1_455
F1 Li6 2.217566 1_465
F2 Li1 1.956793 1_565
F3 Li0 1.956187 1_455
F4 Li5 2.170239 1_555
F5 Li0 2.079832 1_465
F5 Li1 2.250896 1_565
F6 Li3 2.534891 1_555
F7 Li2 2.338876 1_555
F8 Li6 2.120705 1_465
F9 Li7 2.186238 1_445
F10 Li2 1.880052 1_555
F11 Li3 1.865612 1_555
F12 Li5 1.966190 1_555
F12 Li4 2.339351 1_555
F13 Li4 2.070242 1_555
F13 Li5 2.166591 1_555
F14 Li3 1.951166 1_555
F14 Li2 2.328351 1_555
F15 Li2 2.075554 1_555
F15 Li3 2.264267 1_555
F16 Li4 1.919120 1_555
F17 Li5 1.934243 1_555
F18 Li1 2.081903 1_655
F19 Li0 2.137306 1_565
F20 Li4 2.116685 1_555
F21 Li5 2.229951 1_555
F22 Li7 2.124834 1_545
F22 Li6 2.241043 1_555
F23 Li5 2.081119 1_555
F24 Li7 2.389960 1_545
F25 Li6 2.258510 1_565
F26 Li3 2.383534 1_555
F27 Li2 2.238133 1_555
F28 Li6 1.931152 1_555
F29 Li7 1.939257 1_555
F30 Li0 2.116684 1_555
F30 Li1 2.191498 1_655
F31 Li0 2.102234 1_565
F31 Li1 2.478157 1_665
