# generated using pymatgen
data_NaTmO2
_symmetry_space_group_name_H-M   'P 1'
_cell_length_a   5.80094304
_cell_length_b   7.24819502
_cell_length_c   5.92540010
_cell_angle_alpha   75.14633954
_cell_angle_beta   112.38575045
_cell_angle_gamma   75.84794428
_symmetry_Int_Tables_number   1
_chemical_formula_structural   NaTmO2
_chemical_formula_sum   'Na4 Tm4 O8'
_cell_volume   205.70803956
_cell_formula_units_Z   4
loop_
 _symmetry_equiv_pos_site_id
 _symmetry_equiv_pos_as_xyz
  1  'x, y, z'
loop_
 _atom_site_type_symbol
 _atom_site_label
 _atom_site_symmetry_multiplicity
 _atom_site_fract_x
 _atom_site_fract_y
 _atom_site_fract_z
 _atom_site_occupancy
  Na  Na0  1  0.80554112  0.38891775  0.05554112  1
  Na  Na1  1  0.43011129  0.13977841  0.18011129  1
  Na  Na2  1  0.56988871  0.86022159  0.81988871  1
  Na  Na3  1  0.19445888  0.61108225  0.94445888  1
  Tm  Tm0  1  0.94339869  0.11320262  0.69339869  1
  Tm  Tm1  1  0.68277957  0.63443985  0.43277957  1
  Tm  Tm2  1  0.31722043  0.36556015  0.56722043  1
  Tm  Tm3  1  0.05660131  0.88679738  0.30660131  1
  O  O0  1  0.93916564  0.62707633  0.23098068  1
  O  O1  1  0.83151387  0.87621045  0.54165147  1
  O  O2  1  0.29227568  0.87621045  0.08213708  1
  O  O3  1  0.56624197  0.37292367  0.35805600  1
  O  O4  1  0.43375803  0.62707633  0.64194400  1
  O  O5  1  0.70772432  0.12378955  0.91786292  1
  O  O6  1  0.16848613  0.12378955  0.45834853  1
  O  O7  1  0.06083436  0.37292367  0.76901932  1
loop_
_geom_bond_atom_site_label_1
_geom_bond_atom_site_label_2
_geom_bond_distance
_geom_bond_site_symmetry_2
Na0 O4 2.371059 1_554
Na0 O0 2.371062 1_555
Na0 O5 2.380091 1_554
Na0 O6 2.380094 1_655
Na0 O3 2.649719 1_555
Na0 O7 2.649724 1_654
Na1 O3 2.350091 1_555
Na1 O7 2.350099 1_554
Na1 O1 2.363875 1_545
Na1 O2 2.363881 1_545
Na1 O5 2.632245 1_554
Na1 O6 2.632250 1_555
Na2 O4 2.350091 1_555
Na2 O0 2.350099 1_556
Na2 O6 2.363875 1_565
Na2 O5 2.363881 1_565
Na2 O2 2.632245 1_556
Na2 O1 2.632250 1_555
Na3 O3 2.371059 1_556
Na3 O7 2.371062 1_555
Na3 O2 2.380091 1_556
Na3 O1 2.380094 1_455
Na3 O4 2.649719 1_555
Na3 O0 2.649724 1_456
O0 Tm1 2.234530 1_555
O0 Tm3 2.244053 1_655
O0 Tm2 2.252772 1_655
O1 Tm3 2.242756 1_655
O1 Tm0 2.252337 1_565
O1 Tm1 2.264176 1_555
O2 Tm3 2.242761 1_555
O2 Tm0 2.252334 1_464
O2 Tm1 2.264173 1_555
O3 Tm2 2.234534 1_555
O3 Tm0 2.244055 1_555
O3 Tm1 2.252769 1_555
O4 Tm1 2.234534 1_555
O4 Tm3 2.244055 1_555
O4 Tm2 2.252769 1_555
O5 Tm0 2.242761 1_555
O5 Tm3 2.252334 1_646
O5 Tm2 2.264173 1_555
O6 Tm0 2.242756 1_455
O6 Tm3 2.252337 1_545
O6 Tm2 2.264176 1_555
O7 Tm2 2.234530 1_555
O7 Tm0 2.244053 1_455
O7 Tm1 2.252772 1_455
