# generated using pymatgen
data_Fe5(OF2)4
_symmetry_space_group_name_H-M   'P 1'
_cell_length_a   4.67640571
_cell_length_b   4.67640571
_cell_length_c   8.93748900
_cell_angle_alpha   90.00000000
_cell_angle_beta   90.00000000
_cell_angle_gamma   93.68723299
_symmetry_Int_Tables_number   1
_chemical_formula_structural   Fe5(OF2)4
_chemical_formula_sum   'Fe5 O4 F8'
_cell_volume   195.04730422
_cell_formula_units_Z   1
loop_
 _symmetry_equiv_pos_site_id
 _symmetry_equiv_pos_as_xyz
  1  'x, y, z'
loop_
 _atom_site_type_symbol
 _atom_site_label
 _atom_site_symmetry_multiplicity
 _atom_site_fract_x
 _atom_site_fract_y
 _atom_site_fract_z
 _atom_site_occupancy
  Fe  Fe0  1  0.00000000  0.00000000  0.68072000  1
  Fe  Fe1  1  0.00000000  0.00000000  0.31928000  1
  Fe  Fe2  1  0.50000000  0.50000000  0.50000000  1
  Fe  Fe3  1  0.50000000  0.50000000  0.17297500  1
  Fe  Fe4  1  0.50000000  0.50000000  0.82702500  1
  O  O0  1  0.30312400  0.30312400  0.34560900  1
  O  O1  1  0.30312400  0.30312400  0.65439100  1
  O  O2  1  0.69687600  0.69687600  0.34560900  1
  O  O3  1  0.69687600  0.69687600  0.65439100  1
  F  F0  1  0.20797100  0.79202900  0.50000000  1
  F  F1  1  0.20873500  0.79126500  0.82527300  1
  F  F2  1  0.20873500  0.79126500  0.17472700  1
  F  F3  1  0.30620000  0.30620000  0.00000000  1
  F  F4  1  0.69380000  0.69380000  0.00000000  1
  F  F5  1  0.79126500  0.20873500  0.17472700  1
  F  F6  1  0.79126500  0.20873500  0.82527300  1
  F  F7  1  0.79202900  0.20797100  0.50000000  1
loop_
_geom_bond_atom_site_label_1
_geom_bond_atom_site_label_2
_geom_bond_distance
_geom_bond_site_symmetry_2
Fe0 O1 1.953385 1_555
Fe0 O3 1.953385 1_445
Fe1 O0 1.953385 1_555
Fe1 O2 1.953385 1_445
Fe2 O3 1.868231 1_555
Fe2 O2 1.868231 1_555
Fe2 O1 1.868231 1_555
Fe2 O0 1.868231 1_555
Fe3 O2 1.991692 1_555
Fe3 O0 1.991692 1_555
Fe4 O3 1.991692 1_555
Fe4 O1 1.991692 1_555
F0 Fe2 1.992449 1_555
F0 Fe1 2.149932 1_565
F0 Fe0 2.149932 1_565
F1 Fe0 1.922842 1_565
F1 Fe4 1.987298 1_555
F2 Fe1 1.922842 1_565
F2 Fe3 1.987298 1_555
F3 Fe4 1.981684 1_554
F3 Fe3 1.981684 1_555
F4 Fe3 1.981684 1_555
F4 Fe4 1.981684 1_554
F5 Fe1 1.922842 1_655
F5 Fe3 1.987298 1_555
F6 Fe0 1.922842 1_655
F6 Fe4 1.987298 1_555
F7 Fe2 1.992449 1_555
F7 Fe1 2.149932 1_655
F7 Fe0 2.149932 1_655
