# generated using pymatgen
data_B5SbO10
_symmetry_space_group_name_H-M   'P 1'
_cell_length_a   15.05680300
_cell_length_b   7.28878400
_cell_length_c   7.29863296
_cell_angle_alpha   88.16448036
_cell_angle_beta   90.00000000
_cell_angle_gamma   90.00000000
_symmetry_Int_Tables_number   1
_chemical_formula_structural   B5SbO10
_chemical_formula_sum   'B20 Sb4 O40'
_cell_volume   800.58320857
_cell_formula_units_Z   4
loop_
 _symmetry_equiv_pos_site_id
 _symmetry_equiv_pos_as_xyz
  1  'x, y, z'
loop_
 _atom_site_type_symbol
 _atom_site_label
 _atom_site_symmetry_multiplicity
 _atom_site_fract_x
 _atom_site_fract_y
 _atom_site_fract_z
 _atom_site_occupancy
  B  B0  1  0.97231600  0.08888500  0.20131500  1
  B  B1  1  0.52768400  0.58888500  0.20131500  1
  B  B2  1  0.22186000  0.48073800  0.21958300  1
  B  B3  1  0.27814000  0.98073800  0.21958300  1
  B  B4  1  0.49600300  0.27445800  0.24500000  1
  B  B5  1  0.00399700  0.77445800  0.24500000  1
  B  B6  1  0.37984800  0.49709800  0.31396400  1
  B  B7  1  0.12015200  0.99709800  0.31396400  1
  B  B8  1  0.74194500  0.49783300  0.46760900  1
  B  B9  1  0.75805500  0.99783300  0.46760900  1
  B  B10  1  0.24194500  0.00216700  0.53239100  1
  B  B11  1  0.25805500  0.50216700  0.53239100  1
  B  B12  1  0.87984800  0.00290200  0.68603600  1
  B  B13  1  0.62015200  0.50290200  0.68603600  1
  B  B14  1  0.99600300  0.22554200  0.75500000  1
  B  B15  1  0.50399700  0.72554200  0.75500000  1
  B  B16  1  0.72186000  0.01926200  0.78041700  1
  B  B17  1  0.77814000  0.51926200  0.78041700  1
  B  B18  1  0.47231600  0.41111500  0.79868500  1
  B  B19  1  0.02768400  0.91111500  0.79868500  1
  Sb  Sb0  1  0.87500100  0.46750500  0.15432900  1
  Sb  Sb1  1  0.62499900  0.96750500  0.15432900  1
  Sb  Sb2  1  0.37500100  0.03249500  0.84567000  1
  Sb  Sb3  1  0.12499900  0.53249500  0.84567000  1
  O  O0  1  0.15188100  0.46323000  0.09161400  1
  O  O1  1  0.34811900  0.96323000  0.09161400  1
  O  O2  1  0.90643900  0.21640300  0.14219500  1
  O  O3  1  0.59356100  0.71640300  0.14219500  1
  O  O4  1  0.19278900  0.00736100  0.17386100  1
  O  O5  1  0.55170900  0.40716200  0.16974600  1
  O  O6  1  0.30721100  0.50736100  0.17386100  1
  O  O7  1  0.94829100  0.90716200  0.16974600  1
  O  O8  1  0.52111300  0.08647400  0.24019000  1
  O  O9  1  0.97888700  0.58647400  0.24019000  1
  O  O10  1  0.76501400  0.48579600  0.28007500  1
  O  O11  1  0.05071100  0.13456200  0.27263200  1
  O  O12  1  0.73498600  0.98579600  0.28007500  1
  O  O13  1  0.44928900  0.63456200  0.27263200  1
  O  O14  1  0.41669400  0.30756800  0.31821700  1
  O  O15  1  0.08330600  0.80756800  0.31821700  1
  O  O16  1  0.19424700  0.46507700  0.40275100  1
  O  O17  1  0.30575300  0.96507700  0.40275100  1
  O  O18  1  0.65579900  0.47108900  0.50204900  1
  O  O19  1  0.15579900  0.02891100  0.49795100  1
  O  O20  1  0.84420100  0.97108900  0.50204900  1
  O  O21  1  0.34420100  0.52891100  0.49795100  1
  O  O22  1  0.69424700  0.03492300  0.59724900  1
  O  O23  1  0.80575300  0.53492300  0.59724900  1
  O  O24  1  0.91669400  0.19243200  0.68178300  1
  O  O25  1  0.58330600  0.69243200  0.68178300  1
  O  O26  1  0.55071100  0.36543800  0.72736800  1
  O  O27  1  0.26501400  0.01420400  0.71992500  1
  O  O28  1  0.94928900  0.86543800  0.72736800  1
  O  O29  1  0.23498600  0.51420400  0.71992500  1
  O  O30  1  0.02111300  0.41352600  0.75981000  1
  O  O31  1  0.47888700  0.91352600  0.75981000  1
  O  O32  1  0.05170900  0.09283800  0.83025400  1
  O  O33  1  0.69278900  0.49263900  0.82613900  1
  O  O34  1  0.44829100  0.59283800  0.83025400  1
  O  O35  1  0.80721100  0.99263900  0.82613900  1
  O  O36  1  0.40643900  0.28359700  0.85780500  1
  O  O37  1  0.09356100  0.78359700  0.85780500  1
  O  O38  1  0.65188100  0.03677000  0.90838600  1
  O  O39  1  0.84811900  0.53677000  0.90838600  1
loop_
_geom_bond_atom_site_label_1
_geom_bond_atom_site_label_2
_geom_bond_distance
_geom_bond_site_symmetry_2
B0 O11 1.336478 1_655
B0 O7 1.399250 1_545
B0 O2 1.417122 1_555
B1 O13 1.336478 1_555
B1 O5 1.399250 1_555
B1 O3 1.417122 1_555
B2 O6 1.340292 1_555
B2 O16 1.401196 1_555
B2 O0 1.416500 1_555
B3 O4 1.340292 1_565
B3 O17 1.401196 1_555
B3 O1 1.416500 1_555
B4 O14 1.333431 1_555
B4 O5 1.380843 1_555
B4 O8 1.422897 1_555
B5 O15 1.333431 1_555
B5 O7 1.380843 1_455
B5 O9 1.422897 1_455
B6 O21 1.471411 1_555
B6 O13 1.472661 1_555
B6 O14 1.488081 1_555
B6 O6 1.497486 1_555
B7 O19 1.471411 1_565
B7 O11 1.472661 1_565
B7 O15 1.488081 1_555
B7 O4 1.497486 1_565
B8 O18 1.334342 1_555
B8 O23 1.381226 1_555
B8 O10 1.417566 1_555
B9 O20 1.334342 1_555
B9 O22 1.381226 1_565
B9 O12 1.417566 1_555
B10 O19 1.334342 1_555
B10 O17 1.381226 1_545
B10 O27 1.417566 1_555
B11 O21 1.334342 1_555
B11 O16 1.381226 1_555
B11 O29 1.417566 1_555
B12 O20 1.471411 1_545
B12 O28 1.472661 1_545
B12 O24 1.488081 1_555
B12 O35 1.497486 1_545
B13 O18 1.471411 1_555
B13 O26 1.472661 1_555
B13 O25 1.488081 1_555
B13 O33 1.497486 1_555
B14 O24 1.333431 1_555
B14 O32 1.380843 1_655
B14 O30 1.422897 1_655
B15 O25 1.333431 1_555
B15 O34 1.380843 1_555
B15 O31 1.422897 1_555
B16 O35 1.340292 1_545
B16 O22 1.401196 1_555
B16 O38 1.416500 1_555
B17 O33 1.340292 1_555
B17 O23 1.401196 1_555
B17 O39 1.416500 1_555
B18 O26 1.336478 1_555
B18 O34 1.399250 1_555
B18 O36 1.417122 1_555
B19 O28 1.336478 1_455
B19 O32 1.399250 1_565
B19 O37 1.417122 1_555
O0 Sb3 1.892849 1_554
O1 Sb2 1.892849 1_564
O2 Sb0 1.895265 1_555
O3 Sb1 1.895265 1_555
O8 Sb1 1.904245 1_545
O9 Sb0 1.904245 1_555
O10 Sb0 1.900114 1_555
O12 Sb1 1.900114 1_555
O27 Sb2 1.900110 1_555
O29 Sb3 1.900110 1_555
O30 Sb3 1.904242 1_555
O31 Sb2 1.904242 1_565
O36 Sb2 1.895265 1_555
O37 Sb3 1.895265 1_555
O38 Sb1 1.892842 1_546
O39 Sb0 1.892842 1_556
