# generated using pymatgen
data_Ce(WO4)2
_symmetry_space_group_name_H-M   'P 1'
_cell_length_a   9.76076000
_cell_length_b   10.35073500
_cell_length_c   14.55356900
_cell_angle_alpha   90.00000000
_cell_angle_beta   90.00000000
_cell_angle_gamma   90.00000000
_symmetry_Int_Tables_number   1
_chemical_formula_structural   Ce(WO4)2
_chemical_formula_sum   'Ce8 W16 O64'
_cell_volume   1470.36221409
_cell_formula_units_Z   8
loop_
 _symmetry_equiv_pos_site_id
 _symmetry_equiv_pos_as_xyz
  1  'x, y, z'
loop_
 _atom_site_type_symbol
 _atom_site_label
 _atom_site_symmetry_multiplicity
 _atom_site_fract_x
 _atom_site_fract_y
 _atom_site_fract_z
 _atom_site_occupancy
  Ce  Ce0  1  0.77323000  0.03468000  0.11203800  1
  Ce  Ce1  1  0.72677000  0.03468000  0.61203800  1
  Ce  Ce2  1  0.27323000  0.46532000  0.11203800  1
  Ce  Ce3  1  0.22677000  0.46532000  0.61203800  1
  Ce  Ce4  1  0.72677000  0.53468000  0.88796200  1
  Ce  Ce5  1  0.77323000  0.53468000  0.38796200  1
  Ce  Ce6  1  0.22677000  0.96532000  0.88796200  1
  Ce  Ce7  1  0.27323000  0.96532000  0.38796200  1
  W  W0  1  0.18487200  0.10368900  0.14828800  1
  W  W1  1  0.31512800  0.10368900  0.64828800  1
  W  W2  1  0.00656800  0.22612800  0.44128800  1
  W  W3  1  0.49343200  0.22612800  0.94128800  1
  W  W4  1  0.50656800  0.27387200  0.44128800  1
  W  W5  1  0.99343200  0.27387200  0.94128800  1
  W  W6  1  0.68487200  0.39631100  0.14828800  1
  W  W7  1  0.81512800  0.39631100  0.64828800  1
  W  W8  1  0.18487200  0.60368900  0.35171200  1
  W  W9  1  0.31512800  0.60368900  0.85171200  1
  W  W10  1  0.00656800  0.72612800  0.05871200  1
  W  W11  1  0.49343200  0.72612800  0.55871200  1
  W  W12  1  0.50656800  0.77387200  0.05871200  1
  W  W13  1  0.99343200  0.77387200  0.55871200  1
  W  W14  1  0.81512800  0.89631100  0.85171200  1
  W  W15  1  0.68487200  0.89631100  0.35171200  1
  O  O0  1  0.76349500  0.00853100  0.27191900  1
  O  O1  1  0.73650500  0.00853100  0.77191900  1
  O  O2  1  0.24933700  0.07353800  0.03348100  1
  O  O3  1  0.25066300  0.07353800  0.53348100  1
  O  O4  1  0.00011000  0.08373300  0.14938200  1
  O  O5  1  0.49989000  0.08373300  0.64938200  1
  O  O6  1  0.09245200  0.10688400  0.36689700  1
  O  O7  1  0.40754800  0.10688400  0.86689700  1
  O  O8  1  0.91508900  0.14618400  0.53310500  1
  O  O9  1  0.58491100  0.14618400  0.03310500  1
  O  O10  1  0.62829900  0.16296300  0.49158700  1
  O  O11  1  0.87170100  0.16296300  0.99158700  1
  O  O12  1  0.11031400  0.17330200  0.87637600  1
  O  O13  1  0.38968600  0.17330200  0.37637600  1
  O  O14  1  0.73644400  0.23406300  0.17970200  1
  O  O15  1  0.76355600  0.23406300  0.67970200  1
  O  O16  1  0.23644400  0.26593700  0.17970200  1
  O  O17  1  0.26355600  0.26593700  0.67970200  1
  O  O18  1  0.88968600  0.32669800  0.37637600  1
  O  O19  1  0.61031400  0.32669800  0.87637600  1
  O  O20  1  0.37170100  0.33703700  0.99158700  1
  O  O21  1  0.12829900  0.33703700  0.49158700  1
  O  O22  1  0.08491100  0.35381600  0.03310500  1
  O  O23  1  0.41508900  0.35381600  0.53310500  1
  O  O24  1  0.59245200  0.39311600  0.36689700  1
  O  O25  1  0.90754800  0.39311600  0.86689700  1
  O  O26  1  0.50011000  0.41626700  0.14938200  1
  O  O27  1  0.99989000  0.41626700  0.64938200  1
  O  O28  1  0.74933700  0.42646200  0.03348100  1
  O  O29  1  0.75066300  0.42646200  0.53348100  1
  O  O30  1  0.26349500  0.49146900  0.27191900  1
  O  O31  1  0.23650500  0.49146900  0.77191900  1
  O  O32  1  0.73650500  0.50853100  0.72808100  1
  O  O33  1  0.76349500  0.50853100  0.22808100  1
  O  O34  1  0.24933700  0.57353800  0.46651900  1
  O  O35  1  0.25066300  0.57353800  0.96651900  1
  O  O36  1  0.49989000  0.58373300  0.85061800  1
  O  O37  1  0.00011000  0.58373300  0.35061800  1
  O  O38  1  0.09245200  0.60688400  0.13310300  1
  O  O39  1  0.40754800  0.60688400  0.63310300  1
  O  O40  1  0.58491100  0.64618400  0.46689500  1
  O  O41  1  0.91508900  0.64618400  0.96689500  1
  O  O42  1  0.62829900  0.66296300  0.00841300  1
  O  O43  1  0.87170100  0.66296300  0.50841300  1
  O  O44  1  0.38968600  0.67330200  0.12362400  1
  O  O45  1  0.11031400  0.67330200  0.62362400  1
  O  O46  1  0.73644400  0.73406300  0.32029800  1
  O  O47  1  0.76355600  0.73406300  0.82029800  1
  O  O48  1  0.23644400  0.76593700  0.32029800  1
  O  O49  1  0.26355600  0.76593700  0.82029800  1
  O  O50  1  0.61031400  0.82669800  0.62362400  1
  O  O51  1  0.88968600  0.82669800  0.12362400  1
  O  O52  1  0.12829900  0.83703700  0.00841300  1
  O  O53  1  0.37170100  0.83703700  0.50841300  1
  O  O54  1  0.41508900  0.85381600  0.96689500  1
  O  O55  1  0.08491100  0.85381600  0.46689500  1
  O  O56  1  0.59245200  0.89311600  0.13310300  1
  O  O57  1  0.90754800  0.89311600  0.63310300  1
  O  O58  1  0.99989000  0.91626700  0.85061800  1
  O  O59  1  0.50011000  0.91626700  0.35061800  1
  O  O60  1  0.75066300  0.92646200  0.96651900  1
  O  O61  1  0.74933700  0.92646200  0.46651900  1
  O  O62  1  0.23650500  0.99146900  0.72808100  1
  O  O63  1  0.26349500  0.99146900  0.22808100  1
loop_
_geom_bond_atom_site_label_1
_geom_bond_atom_site_label_2
_geom_bond_distance
_geom_bond_site_symmetry_2
Ce0 O56 2.314008 1_545
Ce0 O14 2.314686 1_555
Ce0 O4 2.336082 1_655
Ce0 O0 2.344455 1_555
Ce0 O11 2.399981 1_554
Ce0 O60 2.405907 1_544
Ce0 O51 2.440271 1_545
Ce0 O9 2.455697 1_555
Ce1 O57 2.314008 1_545
Ce1 O15 2.314686 1_555
Ce1 O5 2.336082 1_555
Ce1 O1 2.344455 1_555
Ce1 O10 2.399981 1_555
Ce1 O61 2.405907 1_545
Ce1 O50 2.440271 1_545
Ce1 O8 2.455697 1_555
Ce2 O38 2.314008 1_555
Ce2 O16 2.314686 1_555
Ce2 O26 2.336082 1_555
Ce2 O30 2.344455 1_555
Ce2 O20 2.399981 1_554
Ce2 O35 2.405907 1_554
Ce2 O44 2.440271 1_555
Ce2 O22 2.455697 1_555
Ce3 O39 2.314008 1_555
Ce3 O17 2.314686 1_555
Ce3 O27 2.336082 1_455
Ce3 O31 2.344455 1_555
Ce3 O21 2.399981 1_555
Ce3 O34 2.405907 1_555
Ce3 O45 2.440271 1_555
Ce3 O23 2.455697 1_555
Ce4 O25 2.314008 1_555
Ce4 O47 2.314686 1_555
Ce4 O36 2.336082 1_555
Ce4 O32 2.344455 1_555
Ce4 O42 2.399981 1_556
Ce4 O28 2.405907 1_556
Ce4 O19 2.440271 1_555
Ce4 O41 2.455697 1_555
Ce5 O24 2.314008 1_555
Ce5 O46 2.314686 1_555
Ce5 O37 2.336082 1_655
Ce5 O33 2.344455 1_555
Ce5 O43 2.399981 1_555
Ce5 O29 2.405907 1_555
Ce5 O18 2.440271 1_555
Ce5 O40 2.455697 1_555
Ce6 O7 2.314008 1_565
Ce6 O49 2.314686 1_555
Ce6 O58 2.336082 1_455
Ce6 O62 2.344455 1_555
Ce6 O52 2.399981 1_556
Ce6 O2 2.405907 1_566
Ce6 O12 2.440271 1_565
Ce6 O54 2.455697 1_555
Ce7 O6 2.314008 1_565
Ce7 O48 2.314686 1_555
Ce7 O59 2.336082 1_555
Ce7 O63 2.344455 1_555
Ce7 O53 2.399981 1_555
Ce7 O3 2.405907 1_565
Ce7 O13 2.440271 1_565
Ce7 O55 2.455697 1_555
O0 W15 1.812928 1_545
O1 W14 1.812928 1_545
O2 W0 1.812476 1_555
O3 W1 1.812476 1_555
O4 W0 1.815278 1_555
O5 W1 1.815278 1_555
O6 W2 1.843443 1_555
O7 W3 1.843443 1_555
O8 W2 1.807652 1_655
O9 W3 1.807652 1_554
O10 W4 1.807080 1_555
O11 W5 1.807080 1_555
O12 W5 1.810426 1_455
O13 W4 1.810426 1_555
O14 W6 1.811836 1_555
O15 W7 1.811836 1_555
O16 W0 1.811836 1_555
O17 W1 1.811836 1_555
O18 W2 1.810426 1_655
O19 W3 1.810426 1_555
O20 W3 1.807080 1_555
O21 W2 1.807080 1_555
O22 W5 1.807652 1_454
O23 W4 1.807652 1_555
O24 W4 1.843443 1_555
O25 W5 1.843443 1_555
O26 W6 1.815278 1_555
O27 W7 1.815278 1_555
O28 W6 1.812476 1_555
O29 W7 1.812476 1_555
O30 W8 1.812928 1_555
O31 W9 1.812928 1_555
O32 W7 1.812928 1_555
O33 W6 1.812928 1_555
O34 W8 1.812476 1_555
O35 W9 1.812476 1_555
O36 W9 1.815278 1_555
O37 W8 1.815278 1_555
O38 W10 1.843443 1_555
O39 W11 1.843443 1_555
O40 W11 1.807652 1_555
O41 W10 1.807652 1_656
O42 W12 1.807080 1_555
O43 W13 1.807080 1_555
O44 W12 1.810426 1_555
O45 W13 1.810426 1_455
O46 W15 1.811836 1_555
O47 W14 1.811836 1_555
O48 W8 1.811836 1_555
O49 W9 1.811836 1_555
O50 W11 1.810426 1_555
O51 W10 1.810426 1_655
O52 W10 1.807080 1_555
O53 W11 1.807080 1_555
O54 W12 1.807652 1_556
O55 W13 1.807652 1_455
O56 W12 1.843443 1_555
O57 W13 1.843443 1_555
O58 W14 1.815278 1_555
O59 W15 1.815278 1_555
O60 W14 1.812476 1_555
O61 W15 1.812476 1_555
O62 W1 1.812928 1_565
O63 W0 1.812928 1_565
