# generated using pymatgen
data_Na4VO4
_symmetry_space_group_name_H-M   'P 1'
_cell_length_a   5.70232275
_cell_length_b   5.71372333
_cell_length_c   8.54017588
_cell_angle_alpha   79.52400516
_cell_angle_beta   69.61666950
_cell_angle_gamma   68.76680266
_symmetry_Int_Tables_number   1
_chemical_formula_structural   Na4VO4
_chemical_formula_sum   'Na8 V2 O8'
_cell_volume   242.62774931
_cell_formula_units_Z   2
loop_
 _symmetry_equiv_pos_site_id
 _symmetry_equiv_pos_as_xyz
  1  'x, y, z'
loop_
 _atom_site_type_symbol
 _atom_site_label
 _atom_site_symmetry_multiplicity
 _atom_site_fract_x
 _atom_site_fract_y
 _atom_site_fract_z
 _atom_site_occupancy
  Na  Na0  1  0.47780512  0.73067933  0.56606368  1
  Na  Na1  1  0.94858467  0.23415347  0.60722765  1
  Na  Na2  1  0.52219488  0.26932067  0.43393632  1
  Na  Na3  1  0.05141533  0.76584653  0.39277235  1
  Na  Na4  1  0.60813344  0.74028221  0.17825532  1
  Na  Na5  1  0.75954487  0.24736110  0.01454912  1
  Na  Na6  1  0.24045513  0.75263890  0.98545088  1
  Na  Na7  1  0.39186656  0.25971779  0.82174468  1
  V  V0  1  0.15823114  0.28196031  0.24507174  1
  V  V1  1  0.84176886  0.71803969  0.75492826  1
  O  O0  1  0.69513065  0.97416761  0.62291774  1
  O  O1  1  0.16302499  0.51581647  0.64255384  1
  O  O2  1  0.83697501  0.48418353  0.35744616  1
  O  O3  1  0.30486935  0.02583239  0.37708226  1
  O  O4  1  0.36635593  0.47687822  0.19989293  1
  O  O5  1  0.13969667  0.13749643  0.08266271  1
  O  O6  1  0.63364407  0.52312178  0.80010707  1
  O  O7  1  0.86030333  0.86250357  0.91733729  1
loop_
_geom_bond_atom_site_label_1
_geom_bond_atom_site_label_2
_geom_bond_distance
_geom_bond_site_symmetry_2
Na0 O3 2.309890 1_565
Na0 O0 2.370787 1_555
Na0 O2 2.373562 1_555
Na0 O1 2.375619 1_555
Na0 O6 2.408975 1_555
Na1 O6 2.333497 1_555
Na1 O0 2.379339 1_545
Na1 O3 2.392700 1_655
Na1 O1 2.456671 1_655
Na1 O2 2.485026 1_555
Na2 O0 2.309890 1_545
Na2 O3 2.370787 1_555
Na2 O1 2.373562 1_555
Na2 O2 2.375619 1_555
Na2 O4 2.408975 1_555
Na3 O4 2.333497 1_555
Na3 O3 2.379339 1_565
Na3 O0 2.392700 1_455
Na3 O2 2.456671 1_455
Na3 O1 2.485026 1_555
Na4 O2 2.319393 1_555
Na4 O4 2.329027 1_555
Na4 O7 2.334547 1_554
Na4 O3 2.335388 1_565
Na5 O5 2.278492 1_655
Na5 O7 2.295926 1_544
Na5 O6 2.323605 1_554
Na5 O4 2.324897 1_555
Na6 O7 2.278492 1_455
Na6 O5 2.295926 1_566
Na6 O4 2.323605 1_556
Na6 O6 2.324897 1_555
Na7 O1 2.319393 1_555
Na7 O6 2.329027 1_555
Na7 O5 2.334547 1_556
Na7 O0 2.335388 1_545
O0 V1 1.811692 1_555
O1 V1 1.804815 1_455
O2 V0 1.804815 1_655
O3 V0 1.811692 1_555
O4 V0 1.811030 1_555
O5 V0 1.788269 1_555
O6 V1 1.811030 1_555
O7 V1 1.788269 1_555
