# generated using pymatgen
data_NaZn2HSe2O7
_symmetry_space_group_name_H-M   'P 1'
_cell_length_a   6.17704600
_cell_length_b   8.47213200
_cell_length_c   13.57149100
_cell_angle_alpha   90.00000000
_cell_angle_beta   90.00000000
_cell_angle_gamma   90.00000000
_symmetry_Int_Tables_number   1
_chemical_formula_structural   NaZn2HSe2O7
_chemical_formula_sum   'Na4 Zn8 H4 Se8 O28'
_cell_volume   710.23343317
_cell_formula_units_Z   4
loop_
 _symmetry_equiv_pos_site_id
 _symmetry_equiv_pos_as_xyz
  1  'x, y, z'
loop_
 _atom_site_type_symbol
 _atom_site_label
 _atom_site_symmetry_multiplicity
 _atom_site_fract_x
 _atom_site_fract_y
 _atom_site_fract_z
 _atom_site_occupancy
  Na  Na0  1  0.25000000  0.12799800  0.24966500  1
  Na  Na1  1  0.75000000  0.62799800  0.25033500  1
  Na  Na2  1  0.25000000  0.37200200  0.74966500  1
  Na  Na3  1  0.75000000  0.87200200  0.75033500  1
  Zn  Zn0  1  0.00000000  0.00000000  0.00000000  1
  Zn  Zn1  1  0.50000000  0.00000000  0.00000000  1
  Zn  Zn2  1  0.75000000  0.28993000  0.11281400  1
  Zn  Zn3  1  0.25000000  0.78993000  0.38718600  1
  Zn  Zn4  1  0.00000000  0.50000000  0.50000000  1
  Zn  Zn5  1  0.50000000  0.50000000  0.50000000  1
  Zn  Zn6  1  0.75000000  0.21007000  0.61281400  1
  Zn  Zn7  1  0.25000000  0.71007000  0.88718600  1
  H  H0  1  0.75000000  0.97759600  0.15436100  1
  H  H1  1  0.25000000  0.47759600  0.34563900  1
  H  H2  1  0.75000000  0.52240400  0.65436100  1
  H  H3  1  0.25000000  0.02240400  0.84563900  1
  Se  Se0  1  0.25000000  0.38333600  0.02647400  1
  Se  Se1  1  0.25000000  0.77427200  0.17048600  1
  Se  Se2  1  0.75000000  0.27427200  0.32951400  1
  Se  Se3  1  0.75000000  0.88333600  0.47352600  1
  Se  Se4  1  0.25000000  0.11666400  0.52647400  1
  Se  Se5  1  0.25000000  0.72572800  0.67048600  1
  Se  Se6  1  0.75000000  0.22572800  0.82951400  1
  Se  Se7  1  0.75000000  0.61666400  0.97352600  1
  O  O0  1  0.03106900  0.25456600  0.01815100  1
  O  O1  1  0.46893100  0.25456600  0.01815100  1
  O  O2  1  0.75000000  0.53185900  0.08920400  1
  O  O3  1  0.75000000  0.04151100  0.09489100  1
  O  O4  1  0.25000000  0.95845000  0.11013700  1
  O  O5  1  0.54191900  0.30122600  0.24593900  1
  O  O6  1  0.95808100  0.30122600  0.24593900  1
  O  O7  1  0.04191900  0.80122600  0.25406100  1
  O  O8  1  0.45808100  0.80122600  0.25406100  1
  O  O9  1  0.75000000  0.45845000  0.38986300  1
  O  O10  1  0.25000000  0.54151100  0.40510900  1
  O  O11  1  0.25000000  0.03185900  0.41079600  1
  O  O12  1  0.53106900  0.75456600  0.48184900  1
  O  O13  1  0.96893100  0.75456600  0.48184900  1
  O  O14  1  0.03106900  0.24543400  0.51815100  1
  O  O15  1  0.46893100  0.24543400  0.51815100  1
  O  O16  1  0.75000000  0.96814100  0.58920400  1
  O  O17  1  0.75000000  0.45848900  0.59489100  1
  O  O18  1  0.25000000  0.54155000  0.61013700  1
  O  O19  1  0.54191900  0.19877400  0.74593900  1
  O  O20  1  0.95808100  0.19877400  0.74593900  1
  O  O21  1  0.04191900  0.69877400  0.75406100  1
  O  O22  1  0.45808100  0.69877400  0.75406100  1
  O  O23  1  0.75000000  0.04155000  0.88986300  1
  O  O24  1  0.25000000  0.95848900  0.90510900  1
  O  O25  1  0.25000000  0.46814100  0.91079600  1
  O  O26  1  0.53106900  0.74543400  0.98184900  1
  O  O27  1  0.96893100  0.74543400  0.98184900  1
loop_
_geom_bond_atom_site_label_1
_geom_bond_atom_site_label_2
_geom_bond_distance
_geom_bond_site_symmetry_2
Na0 O5 2.325502 1_555
Na0 O6 2.325502 1_455
Na0 O11 2.333550 1_555
Na0 O4 2.376778 1_545
Na1 O7 2.325502 1_655
Na1 O8 2.325502 1_555
Na1 O2 2.333550 1_555
Na1 O9 2.376778 1_555
Na2 O19 2.325502 1_555
Na2 O20 2.325502 1_455
Na2 O25 2.333550 1_555
Na2 O18 2.376778 1_555
Na3 O21 2.325502 1_655
Na3 O22 2.325502 1_555
Na3 O16 2.333550 1_555
Na3 O23 2.376778 1_565
H0 O3 0.971917 1_565
H1 O10 0.971917 1_555
H2 O17 0.971917 1_555
H3 O24 0.971917 1_545
O0 Se0 1.741203 1_555
O0 Zn0 2.179206 1_555
O0 Zn2 2.180498 1_455
O1 Se0 1.741203 1_555
O1 Zn1 2.179206 1_555
O1 Zn2 2.180498 1_555
O2 Se7 1.726520 1_554
O2 Zn2 2.074549 1_555
O3 Zn1 2.041296 1_555
O3 Zn0 2.041296 1_655
O3 Zn2 2.118648 1_555
O4 Se1 1.762268 1_555
O4 Zn1 2.177810 1_565
O4 Zn0 2.177810 1_565
O5 Se2 1.729365 1_555
O5 Zn2 2.219325 1_555
O6 Se2 1.729365 1_555
O6 Zn2 2.219325 1_555
O7 Se1 1.729365 1_555
O7 Zn3 2.219325 1_555
O8 Se1 1.729365 1_555
O8 Zn3 2.219325 1_555
O9 Se2 1.762268 1_555
O9 Zn5 2.177810 1_555
O9 Zn4 2.177810 1_655
O10 Zn4 2.041296 1_555
O10 Zn5 2.041296 1_555
O10 Zn3 2.118648 1_555
O11 Se4 1.726520 1_555
O11 Zn3 2.074549 1_545
O12 Se3 1.741203 1_555
O12 Zn5 2.179206 1_555
O12 Zn3 2.180498 1_555
O13 Se3 1.741203 1_555
O13 Zn4 2.179206 1_655
O13 Zn3 2.180498 1_655
O14 Se4 1.741203 1_555
O14 Zn4 2.179206 1_555
O14 Zn6 2.180498 1_455
O15 Se4 1.741203 1_555
O15 Zn5 2.179206 1_555
O15 Zn6 2.180498 1_555
O16 Se3 1.726520 1_555
O16 Zn6 2.074549 1_565
O17 Zn5 2.041296 1_555
O17 Zn4 2.041296 1_655
O17 Zn6 2.118648 1_555
O18 Se5 1.762268 1_555
O18 Zn4 2.177810 1_555
O18 Zn5 2.177810 1_555
O19 Se6 1.729365 1_555
O19 Zn6 2.219325 1_555
O20 Se6 1.729365 1_555
O20 Zn6 2.219325 1_555
O21 Se5 1.729365 1_555
O21 Zn7 2.219325 1_555
O22 Se5 1.729365 1_555
O22 Zn7 2.219325 1_555
O23 Se6 1.762268 1_555
O23 Zn0 2.177810 1_656
O23 Zn1 2.177810 1_556
O24 Zn0 2.041296 1_566
O24 Zn1 2.041296 1_566
O24 Zn7 2.118648 1_555
O25 Se0 1.726520 1_556
O25 Zn7 2.074549 1_555
O26 Se7 1.741203 1_555
O26 Zn1 2.179206 1_566
O26 Zn7 2.180498 1_555
O27 Se7 1.741203 1_555
O27 Zn0 2.179206 1_666
O27 Zn7 2.180498 1_655
