# generated using pymatgen
data_LiMn2(PO4)2
_symmetry_space_group_name_H-M   'P 1'
_cell_length_a   8.70266100
_cell_length_b   9.05059345
_cell_length_c   12.53307046
_cell_angle_alpha   104.78419388
_cell_angle_beta   99.35024690
_cell_angle_gamma   104.95176225
_symmetry_Int_Tables_number   1
_chemical_formula_structural   LiMn2(PO4)2
_chemical_formula_sum   'Li6 Mn12 P12 O48'
_cell_volume   894.19681106
_cell_formula_units_Z   6
loop_
 _symmetry_equiv_pos_site_id
 _symmetry_equiv_pos_as_xyz
  1  'x, y, z'
loop_
 _atom_site_type_symbol
 _atom_site_label
 _atom_site_symmetry_multiplicity
 _atom_site_fract_x
 _atom_site_fract_y
 _atom_site_fract_z
 _atom_site_occupancy
  Li  Li0  1  0.99805200  0.87166000  0.88263500  1
  Li  Li1  1  0.50255600  0.49342200  0.98108900  1
  Li  Li2  1  0.00703100  0.61550200  0.59867600  1
  Li  Li3  1  0.49545100  0.00467000  0.51971400  1
  Li  Li4  1  0.50340000  0.75199300  0.25054400  1
  Li  Li5  1  0.98794900  0.14144300  0.13670200  1
  Mn  Mn0  1  0.61915000  0.89324900  0.95873000  1
  Mn  Mn1  1  0.27969400  0.47712500  0.75800800  1
  Mn  Mn2  1  0.93807900  0.48749800  0.87186600  1
  Mn  Mn3  1  0.05986600  0.01187900  0.62606200  1
  Mn  Mn4  1  0.37582800  0.60273300  0.53828000  1
  Mn  Mn5  1  0.71838000  0.01868500  0.74029100  1
  Mn  Mn6  1  0.27647900  0.99371700  0.26474100  1
  Mn  Mn7  1  0.61456800  0.39607800  0.46329100  1
  Mn  Mn8  1  0.93618800  0.98991600  0.36817400  1
  Mn  Mn9  1  0.06449300  0.51656100  0.13301100  1
  Mn  Mn10  1  0.73256100  0.50625900  0.24108400  1
  Mn  Mn11  1  0.38379800  0.10142700  0.03482900  1
  P  P0  1  0.12061900  0.23345600  0.89242400  1
  P  P1  1  0.33301200  0.86957000  0.74408100  1
  P  P2  1  0.71154600  0.27736000  0.98052900  1
  P  P3  1  0.66536300  0.63036700  0.75547300  1
  P  P4  1  0.12484900  0.73990800  0.39439200  1
  P  P5  1  0.28840900  0.22277800  0.52023300  1
  P  P6  1  0.71138800  0.77166500  0.47814100  1
  P  P7  1  0.87518900  0.26589800  0.60839700  1
  P  P8  1  0.34279700  0.37921600  0.24864400  1
  P  P9  1  0.28814300  0.72802500  0.02118000  1
  P  P10  1  0.65512100  0.11581500  0.24636100  1
  P  P11  1  0.88054600  0.76789400  0.10911200  1
  O  O0  1  0.03681600  0.35562000  0.95285100  1
  O  O1  1  0.39097800  0.93117700  0.87587900  1
  O  O2  1  0.16491000  0.63501400  0.90346100  1
  O  O3  1  0.15928800  0.13116300  0.97053100  1
  O  O4  1  0.15533600  0.88200500  0.70780000  1
  O  O5  1  0.53972100  0.27924100  0.00140000  1
  O  O6  1  0.27513800  0.33157700  0.86824500  1
  O  O7  1  0.45793400  0.95780500  0.68983100  1
  O  O8  1  0.00605300  0.38616700  0.71610000  1
  O  O9  1  0.69306000  0.81560000  0.79915200  1
  O  O10  1  0.30786200  0.68527500  0.70220400  1
  O  O11  1  0.54292600  0.54320100  0.81120800  1
  O  O12  1  0.73327900  0.36664700  0.89109400  1
  O  O13  1  0.03634900  0.86233500  0.44889900  1
  O  O14  1  0.72987100  0.11026000  0.92980000  1
  O  O15  1  0.84352500  0.61851900  0.79254400  1
  O  O16  1  0.16368700  0.65687200  0.48314300  1
  O  O17  1  0.27410500  0.39095300  0.57249200  1
  O  O18  1  0.83429500  0.86531300  0.59631900  1
  O  O19  1  0.60642800  0.57020500  0.62408000  1
  O  O20  1  0.26559400  0.13534600  0.61124200  1
  O  O21  1  0.54039100  0.77129800  0.49440600  1
  O  O22  1  0.27918800  0.83313300  0.36601600  1
  O  O23  1  0.01070700  0.89203800  0.21592300  1
  O  O24  1  0.99190700  0.11196200  0.78414200  1
  O  O25  1  0.72308000  0.16512200  0.63445900  1
  O  O26  1  0.46039300  0.22031900  0.49982500  1
  O  O27  1  0.73021900  0.84996200  0.38121800  1
  O  O28  1  0.39491400  0.42817500  0.38196300  1
  O  O29  1  0.16808100  0.13515200  0.40019300  1
  O  O30  1  0.73446000  0.60237400  0.43367400  1
  O  O31  1  0.83122400  0.37050600  0.53514900  1
  O  O32  1  0.16535900  0.38619300  0.20745300  1
  O  O33  1  0.26570800  0.89766200  0.06580600  1
  O  O34  1  0.95918200  0.14610900  0.54523100  1
  O  O35  1  0.27033300  0.65050100  0.11879800  1
  O  O36  1  0.47151000  0.48941200  0.20854500  1
  O  O37  1  0.66929400  0.29475200  0.29920100  1
  O  O38  1  0.32475300  0.19757000  0.19971800  1
  O  O39  1  0.99905000  0.61495200  0.28633100  1
  O  O40  1  0.53053500  0.00390700  0.28813500  1
  O  O41  1  0.72747600  0.67383700  0.13768000  1
  O  O42  1  0.45859200  0.72566100  0.00519000  1
  O  O43  1  0.82815800  0.09489300  0.27103600  1
  O  O44  1  0.84623900  0.86481200  0.02725100  1
  O  O45  1  0.83498400  0.36241600  0.10081900  1
  O  O46  1  0.59684900  0.07058200  0.11271300  1
  O  O47  1  0.96428900  0.64337300  0.05141900  1
loop_
_geom_bond_atom_site_label_1
_geom_bond_atom_site_label_2
_geom_bond_distance
_geom_bond_site_symmetry_2
Li0 O15 2.220119 1_555
Li0 O3 2.274941 1_665
Li0 O44 2.414047 1_556
Li0 O9 2.555177 1_555
Li1 O5 2.115577 1_556
Li1 O6 2.144780 1_555
Li1 O42 2.187262 1_556
Li1 O11 2.347454 1_555
Li1 O41 2.411704 1_556
Li2 O16 2.179505 1_555
Li2 O31 2.200919 1_455
Li2 O4 2.343190 1_555
Li2 O10 2.561514 1_555
Li3 O26 2.120238 1_555
Li3 O25 2.150651 1_555
Li3 O21 2.199867 1_545
Li3 O7 2.334220 1_545
Li3 O22 2.334747 1_545
Li4 O40 2.147979 1_565
Li4 O27 2.161038 1_555
Li4 O35 2.204645 1_555
Li4 O36 2.230624 1_555
Li5 O32 2.205620 1_655
Li5 O43 2.401313 1_555
Li5 O44 2.403175 1_545
Mn0 O42 2.052695 1_556
Mn0 O14 2.101889 1_565
Mn0 O44 2.129132 1_556
Mn0 O9 2.200353 1_555
Mn0 O1 2.236679 1_555
Mn0 O46 2.244924 1_566
Mn1 O6 2.136674 1_555
Mn1 O10 2.141985 1_555
Mn1 O11 2.154835 1_555
Mn1 O8 2.232924 1_555
Mn1 O17 2.243850 1_555
Mn1 O2 2.522282 1_555
Mn2 O12 1.923325 1_555
Mn2 O15 1.977614 1_555
Mn2 O2 1.988048 1_655
Mn2 O0 2.014271 1_655
Mn2 O8 2.177995 1_655
Mn2 O47 2.270083 1_556
Mn3 O20 1.915797 1_555
Mn3 O18 1.979487 1_445
Mn3 O4 1.990810 1_545
Mn3 O34 2.039338 1_455
Mn3 O24 2.199278 1_455
Mn3 O13 2.231495 1_545
Mn4 O21 2.058512 1_555
Mn4 O17 2.075722 1_555
Mn4 O16 2.085927 1_555
Mn4 O10 2.228984 1_555
Mn4 O28 2.241258 1_555
Mn4 O19 2.244016 1_555
Mn5 O25 2.098660 1_555
Mn5 O9 2.122970 1_545
Mn5 O7 2.133742 1_545
Mn5 O24 2.232096 1_555
Mn5 O14 2.283323 1_555
Mn5 O18 2.497214 1_545
Mn6 O40 2.157121 1_565
Mn6 O22 2.161806 1_555
Mn6 O38 2.173303 1_565
Mn6 O23 2.173781 1_555
Mn6 O29 2.333426 1_565
Mn6 O33 2.399319 1_555
Mn7 O26 2.002579 1_555
Mn7 O30 2.046168 1_555
Mn7 O31 2.049264 1_555
Mn7 O28 2.140559 1_555
Mn7 O37 2.208696 1_555
Mn7 O19 2.243386 1_555
Mn8 O27 1.968111 1_555
Mn8 O13 1.986384 1_655
Mn8 O43 1.986974 1_565
Mn8 O29 2.015032 1_665
Mn8 O23 2.163859 1_655
Mn8 O34 2.251987 1_565
Mn9 O35 1.950270 1_555
Mn9 O32 1.965537 1_555
Mn9 O47 1.987238 1_455
Mn9 O45 2.027678 1_455
Mn9 O39 2.133961 1_455
Mn9 O0 2.289497 1_554
Mn10 O39 2.185986 1_555
Mn10 O37 2.190012 1_555
Mn10 O36 2.199836 1_555
Mn10 O41 2.236282 1_555
Mn10 O30 2.343325 1_555
Mn10 O45 2.349403 1_555
Mn11 O5 2.002186 1_555
Mn11 O33 2.031013 1_545
Mn11 O46 2.070400 1_555
Mn11 O3 2.099929 1_554
Mn11 O1 2.206873 1_544
Mn11 O38 2.224844 1_555
O0 P0 1.579919 1_555
O1 P1 1.551762 1_555
O2 P9 1.556178 1_556
O3 P0 1.563624 1_555
O4 P1 1.580437 1_555
O5 P2 1.562914 1_554
O6 P0 1.530458 1_555
O7 P1 1.533371 1_555
O8 P7 1.553984 1_455
O9 P3 1.564785 1_555
O10 P1 1.559817 1_555
O11 P3 1.528072 1_555
O12 P2 1.548388 1_555
O13 P4 1.585126 1_555
O14 P2 1.543874 1_555
O15 P3 1.583826 1_555
O16 P4 1.533567 1_555
O17 P5 1.541653 1_555
O18 P6 1.559789 1_555
O19 P3 1.547637 1_555
O20 P5 1.555562 1_555
O21 P6 1.533773 1_555
O22 P4 1.538190 1_555
O23 P11 1.555789 1_455
O24 P0 1.553846 1_655
O25 P7 1.536371 1_555
O26 P5 1.563573 1_555
O27 P6 1.564833 1_555
O28 P8 1.570392 1_555
O29 P5 1.561912 1_555
O30 P6 1.567741 1_555
O31 P7 1.549802 1_555
O32 P8 1.569369 1_555
O33 P9 1.568454 1_555
O34 P7 1.579675 1_555
O35 P9 1.567406 1_555
O36 P8 1.537608 1_555
O37 P10 1.549046 1_555
O38 P8 1.557056 1_555
O39 P4 1.552228 1_655
O40 P10 1.537506 1_555
O41 P11 1.533876 1_555
O42 P9 1.533545 1_555
O43 P10 1.557202 1_555
O44 P11 1.551151 1_555
O45 P2 1.572956 1_554
O46 P10 1.580300 1_555
O47 P11 1.582159 1_555
