# generated using pymatgen
data_Li5Fe8(BO3)8
_symmetry_space_group_name_H-M   'P 1'
_cell_length_a   5.22928200
_cell_length_b   9.13762429
_cell_length_c   10.09870055
_cell_angle_alpha   88.76211487
_cell_angle_beta   88.62656723
_cell_angle_gamma   89.26526828
_symmetry_Int_Tables_number   1
_chemical_formula_structural   Li5Fe8(BO3)8
_chemical_formula_sum   'Li5 Fe8 B8 O24'
_cell_volume   482.26060058
_cell_formula_units_Z   1
loop_
 _symmetry_equiv_pos_site_id
 _symmetry_equiv_pos_as_xyz
  1  'x, y, z'
loop_
 _atom_site_type_symbol
 _atom_site_label
 _atom_site_symmetry_multiplicity
 _atom_site_fract_x
 _atom_site_fract_y
 _atom_site_fract_z
 _atom_site_occupancy
  Li  Li0  1  0.15093400  0.17303400  0.65287100  1
  Li  Li1  1  0.33051200  0.33012000  0.40472300  1
  Li  Li2  1  0.32694300  0.32458000  0.91932500  1
  Li  Li3  1  0.82546400  0.82630900  0.41581800  1
  Li  Li4  1  0.83020400  0.82569400  0.91543600  1
  Fe  Fe0  1  0.17422400  0.82694400  0.63260800  1
  Fe  Fe1  1  0.16540800  0.50484800  0.13297300  1
  Fe  Fe2  1  0.32381100  0.99910700  0.88133300  1
  Fe  Fe3  1  0.35069000  0.65804800  0.37645600  1
  Fe  Fe4  1  0.65843000  0.34882200  0.63049600  1
  Fe  Fe5  1  0.66613200  0.00391300  0.13440100  1
  Fe  Fe6  1  0.84611700  0.16388300  0.37731100  1
  Fe  Fe7  1  0.81550900  0.50558800  0.87874800  1
  B  B0  1  0.15318700  0.49717600  0.62478700  1
  B  B1  1  0.16801400  0.83295000  0.12746700  1
  B  B2  1  0.33808700  0.99752100  0.38290500  1
  B  B3  1  0.33023500  0.66735700  0.87986200  1
  B  B4  1  0.67309300  0.00339000  0.62641200  1
  B  B5  1  0.66796500  0.33268300  0.12585900  1
  B  B6  1  0.83591600  0.49830600  0.37361400  1
  B  B7  1  0.82484800  0.16785800  0.87751100  1
  O  O0  1  0.09816100  0.48305600  0.33422500  1
  O  O1  1  0.08890500  0.17134200  0.85812700  1
  O  O2  1  0.17799100  0.78837900  0.83439500  1
  O  O3  1  0.21019400  0.86925200  0.42341700  1
  O  O4  1  0.22122800  0.13058000  0.38752700  1
  O  O5  1  0.20372600  0.54043600  0.92361400  1
  O  O6  1  0.28356300  0.36598500  0.60585100  1
  O  O7  1  0.32467700  0.94914900  0.09006500  1
  O  O8  1  0.26754800  0.62931500  0.58643000  1
  O  O9  1  0.27488800  0.70125900  0.16776000  1
  O  O10  1  0.40730000  0.34777200  0.11801700  1
  O  O11  1  0.40920100  0.99550600  0.66072400  1
  O  O12  1  0.59691900  0.98398200  0.33924400  1
  O  O13  1  0.58668900  0.68003800  0.88170700  1
  O  O14  1  0.67456800  0.29005300  0.85113400  1
  O  O15  1  0.70237600  0.37226300  0.40900800  1
  O  O16  1  0.72538700  0.63327100  0.37748100  1
  O  O17  1  0.70768600  0.03736400  0.92221500  1
  O  O18  1  0.82550900  0.44785900  0.09014700  1
  O  O19  1  0.81734700  0.87650500  0.62023200  1
  O  O20  1  0.78396900  0.13609900  0.59532200  1
  O  O21  1  0.77596400  0.19942300  0.16521400  1
  O  O22  1  0.90852600  0.84869700  0.11665000  1
  O  O23  1  0.90954900  0.49819200  0.67575200  1
loop_
_geom_bond_atom_site_label_1
_geom_bond_atom_site_label_2
_geom_bond_distance
_geom_bond_site_symmetry_2
Li0 O6 1.947938 1_555
Li0 O20 2.052469 1_455
Li0 O1 2.090106 1_555
Li0 O11 2.098844 1_545
Li1 O4 1.930390 1_555
Li1 O0 1.972565 1_555
Li1 O15 1.988849 1_555
Li1 O6 2.072671 1_555
Li2 O14 1.952674 1_555
Li2 O1 2.002751 1_555
Li2 O5 2.068142 1_555
Li2 O10 2.075748 1_556
Li3 O16 1.896847 1_555
Li3 O12 2.013480 1_555
Li3 O3 2.058252 1_655
Li3 O19 2.123627 1_555
Li4 O13 1.895485 1_555
Li4 O2 2.004605 1_655
Li4 O17 2.031742 1_565
Li4 O22 2.097977 1_556
Fe0 O19 1.921071 1_455
Fe0 O8 1.928636 1_555
Fe0 O11 2.011721 1_555
Fe0 O2 2.061034 1_555
Fe0 O3 2.143656 1_555
Fe1 O10 1.906981 1_555
Fe1 O18 1.920361 1_455
Fe1 O9 1.932734 1_555
Fe1 O0 2.060084 1_555
Fe1 O5 2.137200 1_554
Fe2 O1 1.997261 1_565
Fe2 O17 2.094333 1_565
Fe2 O2 2.146700 1_555
Fe2 O7 2.147225 1_556
Fe2 O11 2.262510 1_555
Fe3 O16 1.969795 1_555
Fe3 O3 2.115582 1_555
Fe3 O0 2.143170 1_555
Fe3 O8 2.165412 1_555
Fe3 O9 2.180575 1_555
Fe4 O23 1.974310 1_555
Fe4 O6 1.985717 1_555
Fe4 O20 2.078788 1_555
Fe4 O15 2.248916 1_555
Fe4 O14 2.283930 1_555
Fe5 O22 1.898522 1_545
Fe5 O21 1.917595 1_555
Fe5 O7 1.926147 1_545
Fe5 O12 2.095946 1_545
Fe5 O17 2.164101 1_554
Fe6 O4 1.985952 1_655
Fe6 O15 2.066675 1_555
Fe6 O12 2.157425 1_545
Fe6 O21 2.198261 1_555
Fe6 O20 2.227309 1_555
Fe7 O13 1.981189 1_555
Fe7 O23 2.098973 1_555
Fe7 O5 2.120114 1_655
Fe7 O14 2.137900 1_555
Fe7 O18 2.189655 1_556
B0 O23 1.362593 1_455
B0 O6 1.386051 1_555
B0 O8 1.397422 1_555
B1 O22 1.369427 1_455
B1 O9 1.377841 1_555
B1 O7 1.389727 1_555
B2 O4 1.354958 1_565
B2 O3 1.405234 1_555
B2 O12 1.418149 1_555
B3 O13 1.348154 1_555
B3 O5 1.400511 1_555
B3 O2 1.428482 1_555
B4 O19 1.376823 1_545
B4 O20 1.377719 1_555
B4 O11 1.417078 1_545
B5 O10 1.372291 1_555
B5 O18 1.381302 1_555
B5 O21 1.389914 1_555
B6 O16 1.356186 1_555
B6 O15 1.390242 1_555
B6 O0 1.424640 1_655
B7 O14 1.382005 1_555
B7 O1 1.390655 1_655
B7 O17 1.408270 1_555
