# generated using pymatgen
data_Mn6O7F5
_symmetry_space_group_name_H-M   'P 1'
_cell_length_a   4.67097100
_cell_length_b   5.61875789
_cell_length_c   7.72329965
_cell_angle_alpha   85.77222850
_cell_angle_beta   88.94257971
_cell_angle_gamma   88.14898234
_symmetry_Int_Tables_number   1
_chemical_formula_structural   Mn6O7F5
_chemical_formula_sum   'Mn6 O7 F5'
_cell_volume   202.01510358
_cell_formula_units_Z   1
loop_
 _symmetry_equiv_pos_site_id
 _symmetry_equiv_pos_as_xyz
  1  'x, y, z'
loop_
 _atom_site_type_symbol
 _atom_site_label
 _atom_site_symmetry_multiplicity
 _atom_site_fract_x
 _atom_site_fract_y
 _atom_site_fract_z
 _atom_site_occupancy
  Mn  Mn0  1  0.50048500  0.50063600  0.99957700  1
  Mn  Mn1  1  0.53703900  0.84256100  0.65785500  1
  Mn  Mn2  1  0.47835200  0.17027100  0.34813100  1
  Mn  Mn3  1  0.00803500  0.32810100  0.68628500  1
  Mn  Mn4  1  0.98505900  0.66071100  0.31932400  1
  Mn  Mn5  1  0.98638200  0.99642800  0.99051700  1
  O  O0  1  0.80672600  0.04545400  0.77039500  1
  O  O1  1  0.80649000  0.70825000  0.09097400  1
  O  O2  1  0.69532600  0.53887200  0.76529200  1
  O  O3  1  0.69364700  0.87221800  0.42808900  1
  O  O4  1  0.30132300  0.12284400  0.57368300  1
  O  O5  1  0.30662500  0.46537500  0.23548500  1
  O  O6  1  0.18341600  0.29266200  0.90434600  1
  F  F0  1  0.81658300  0.35719600  0.45410400  1
  F  F1  1  0.69695100  0.19486700  0.12356700  1
  F  F2  1  0.30981600  0.80849800  0.87905200  1
  F  F3  1  0.18904200  0.62530500  0.56224700  1
  F  F4  1  0.19870300  0.96974700  0.21107700  1
loop_
_geom_bond_atom_site_label_1
_geom_bond_atom_site_label_2
_geom_bond_distance
_geom_bond_site_symmetry_2
Mn0 O2 2.010743 1_555
Mn0 O5 2.018990 1_556
Mn0 O1 2.041679 1_556
Mn0 O6 2.092517 1_555
Mn1 O3 1.904803 1_555
Mn1 O4 1.969376 1_565
Mn1 O2 1.969565 1_555
Mn1 O0 1.980206 1_565
Mn2 O4 1.918849 1_555
Mn2 O5 1.968961 1_555
Mn2 O3 1.989693 1_545
Mn3 O6 1.880967 1_555
Mn3 O0 1.936524 1_455
Mn3 O2 1.967295 1_455
Mn3 O4 1.991221 1_555
Mn4 O5 1.960191 1_655
Mn4 O1 1.961591 1_555
Mn4 O3 1.992798 1_555
Mn5 O0 1.907613 1_565
Mn5 O1 1.951521 1_556
Mn5 O6 1.993345 1_665
F0 Mn3 2.012098 1_655
F0 Mn4 2.099020 1_555
F0 Mn2 2.133219 1_555
F1 Mn2 1.994530 1_555
F1 Mn5 2.036440 1_544
F1 Mn0 2.097342 1_554
F2 Mn1 1.994899 1_555
F2 Mn5 2.030134 1_455
F2 Mn0 2.084598 1_555
F3 Mn3 2.060736 1_555
F3 Mn4 2.113316 1_455
F3 Mn1 2.232255 1_555
F4 Mn5 1.980625 1_454
F4 Mn2 2.101923 1_565
F4 Mn4 2.139388 1_455
