# generated using pymatgen
data_Li4Co2C4SO16
_symmetry_space_group_name_H-M   'P 1'
_cell_length_a   9.49784630
_cell_length_b   9.50401463
_cell_length_c   9.49784630
_cell_angle_alpha   60.77474196
_cell_angle_beta   88.68913181
_cell_angle_gamma   119.22525804
_symmetry_Int_Tables_number   1
_chemical_formula_structural   Li4Co2C4SO16
_chemical_formula_sum   'Li8 Co4 C8 S2 O32'
_cell_volume   613.35145929
_cell_formula_units_Z   2
loop_
 _symmetry_equiv_pos_site_id
 _symmetry_equiv_pos_as_xyz
  1  'x, y, z'
loop_
 _atom_site_type_symbol
 _atom_site_label
 _atom_site_symmetry_multiplicity
 _atom_site_fract_x
 _atom_site_fract_y
 _atom_site_fract_z
 _atom_site_occupancy
  Li  Li0  1  0.90866767  0.25000000  0.34133233  1
  Li  Li1  1  0.66407846  0.75000000  0.08592154  1
  Li  Li2  1  0.34260782  0.25000000  0.34260782  1
  Li  Li3  1  0.90750176  0.81500351  0.34249824  1
  Li  Li4  1  0.90739218  0.25000000  0.90739218  1
  Li  Li5  1  0.34133233  0.25000000  0.90866767  1
  Li  Li6  1  0.34249824  0.68499649  0.90750176  1
  Li  Li7  1  0.08592154  0.75000000  0.66407846  1
  Co  Co0  1  0.49847191  0.00181197  0.99980533  1
  Co  Co1  1  0.50334006  0.00181197  0.49838270  1
  Co  Co2  1  0.49838270  0.49818803  0.50334006  1
  Co  Co3  1  0.99980533  0.49818803  0.49847191  1
  C  C0  1  0.71697157  0.06500924  0.71554947  1
  C  C1  1  0.71944129  0.43499076  0.34803768  1
  C  C2  1  0.34803768  0.06500924  0.71944129  1
  C  C3  1  0.71554947  0.43499076  0.71697157  1
  C  C4  1  0.65806504  0.93747791  0.27613597  1
  C  C5  1  0.28638512  0.56252209  0.27941287  1
  C  C6  1  0.27941287  0.93747791  0.28638512  1
  C  C7  1  0.27613597  0.56252209  0.65806504  1
  S  S0  1  0.12500000  0.25000000  0.12500000  1
  S  S1  1  0.87500000  0.75000000  0.87500000  1
  O  O0  1  0.65822266  0.05561448  0.12870933  1
  O  O1  1  0.85696978  0.21096491  0.58670196  1
  O  O2  1  0.70233213  0.28903509  0.35399612  1
  O  O3  1  0.39739282  0.05561448  0.31567619  1
  O  O4  1  0.85912840  0.55853357  0.35306493  1
  O  O5  1  0.31745429  0.37717847  0.06021329  1
  O  O6  1  0.06260824  0.12282153  0.05972518  1
  O  O7  1  0.59591828  0.46110141  0.33458909  1
  O  O8  1  0.70430950  0.03889859  0.86518313  1
  O  O9  1  0.33458909  0.03889859  0.59591828  1
  O  O10  1  0.86518313  0.46110141  0.70430950  1
  O  O11  1  0.06021329  0.12282153  0.31745429  1
  O  O12  1  0.05972518  0.37717847  0.06260824  1
  O  O13  1  0.66313886  0.79324135  0.29856764  1
  O  O14  1  0.40819101  0.70675865  0.13010249  1
  O  O15  1  0.69940516  0.55853357  0.58840151  1
  O  O16  1  0.31567619  0.44438552  0.39739282  1
  O  O17  1  0.35399612  0.21096491  0.70233213  1
  O  O18  1  0.58670196  0.28903509  0.85696978  1
  O  O19  1  0.94317240  0.62646979  0.93247250  1
  O  O20  1  0.94105770  0.87353021  0.68329740  1
  O  O21  1  0.13807570  0.53255000  0.30682178  1
  O  O22  1  0.66062822  0.96745000  0.39447430  1
  O  O23  1  0.30682178  0.96745000  0.13807570  1
  O  O24  1  0.39447430  0.53255000  0.66062822  1
  O  O25  1  0.93247250  0.87353021  0.94317240  1
  O  O26  1  0.68329740  0.62646979  0.94105770  1
  O  O27  1  0.12870933  0.44438552  0.65822266  1
  O  O28  1  0.58840151  0.94146643  0.69940516  1
  O  O29  1  0.29856764  0.70675865  0.66313886  1
  O  O30  1  0.13010249  0.79324135  0.40819101  1
  O  O31  1  0.35306493  0.94146643  0.85912840  1
loop_
_geom_bond_atom_site_label_1
_geom_bond_atom_site_label_2
_geom_bond_distance
_geom_bond_site_symmetry_2
Li0 O1 2.176095 1_555
Li0 O2 2.176105 1_555
Li0 O22 2.336755 1_545
Li0 O21 2.336755 1_655
Li0 O11 2.352818 1_655
Li0 O12 2.352821 1_655
Li1 O14 2.249743 1_555
Li1 O13 2.249743 1_555
Li1 O25 2.253864 1_554
Li1 O26 2.253864 1_554
Li1 O7 2.323375 1_555
Li1 O8 2.323375 1_564
Li2 O7 2.224491 1_555
Li2 O9 2.224491 1_555
Li2 O3 2.267881 1_555
Li2 O16 2.267881 1_555
Li2 O11 2.420231 1_555
Li2 O5 2.420231 1_555
Li3 O4 2.197269 1_555
Li3 O15 2.197269 1_555
Li3 O30 2.294206 1_655
Li3 O13 2.294206 1_555
Li3 O6 2.424895 1_665
Li3 O11 2.424900 1_665
Li4 O8 2.224491 1_555
Li4 O10 2.224491 1_555
Li4 O0 2.267875 1_556
Li4 O27 2.267875 1_655
Li4 O12 2.420234 1_656
Li4 O6 2.420234 1_656
Li5 O18 2.176095 1_555
Li5 O17 2.176105 1_555
Li5 O23 2.336755 1_546
Li5 O24 2.336755 1_555
Li5 O5 2.352818 1_556
Li5 O6 2.352821 1_556
Li6 O31 2.197269 1_555
Li6 O28 2.197269 1_555
Li6 O14 2.294206 1_556
Li6 O29 2.294206 1_555
Li6 O12 2.424895 1_556
Li6 O5 2.424900 1_556
Li7 O30 2.249743 1_555
Li7 O29 2.249743 1_555
Li7 O19 2.253864 1_455
Li7 O20 2.253864 1_455
Li7 O9 2.323375 1_565
Li7 O10 2.323375 1_455
Co0 O0 2.000318 1_556
Co0 O23 2.008989 1_546
Co0 O31 2.020085 1_545
Co0 O18 2.022955 1_555
Co0 O14 2.084468 1_546
Co0 O8 2.086587 1_555
Co1 O3 2.000312 1_555
Co1 O22 2.008989 1_545
Co1 O28 2.020085 1_545
Co1 O2 2.022953 1_555
Co1 O29 2.084468 1_545
Co1 O9 2.086587 1_555
Co2 O16 2.000312 1_555
Co2 O24 2.008989 1_555
Co2 O15 2.020085 1_555
Co2 O17 2.022953 1_555
Co2 O13 2.084468 1_555
Co2 O7 2.086587 1_555
Co3 O27 2.000318 1_655
Co3 O21 2.008989 1_655
Co3 O4 2.020085 1_555
Co3 O1 2.022955 1_555
Co3 O30 2.084468 1_655
Co3 O10 2.086587 1_555
C0 O1 1.287115 1_555
C0 O28 1.295225 1_545
C0 O8 1.309388 1_555
C1 O2 1.287106 1_555
C1 O4 1.295225 1_555
C1 O7 1.309388 1_555
C2 O17 1.287106 1_555
C2 O31 1.295225 1_545
C2 O9 1.309388 1_555
C3 O18 1.287115 1_555
C3 O15 1.295225 1_555
C3 O10 1.309388 1_555
C4 O22 1.285355 1_555
C4 O0 1.297829 1_565
C4 O13 1.306394 1_555
C5 O21 1.285346 1_555
C5 O16 1.297839 1_555
C5 O14 1.306397 1_555
C6 O23 1.285346 1_555
C6 O3 1.297839 1_565
C6 O30 1.306397 1_555
C7 O24 1.285355 1_555
C7 O27 1.297829 1_555
C7 O29 1.306394 1_555
O5 S0 1.498548 1_555
O6 S0 1.498540 1_555
O11 S0 1.498548 1_555
O12 S0 1.498540 1_555
O19 S1 1.492731 1_555
O20 S1 1.492731 1_555
O25 S1 1.492731 1_555
O26 S1 1.492731 1_555
