# generated using pymatgen
data_Li2Ti3V3O12
_symmetry_space_group_name_H-M   'P 1'
_cell_length_a   6.79660149
_cell_length_b   9.05497137
_cell_length_c   8.48604737
_cell_angle_alpha   101.75379505
_cell_angle_beta   109.55877902
_cell_angle_gamma   99.44970277
_symmetry_Int_Tables_number   1
_chemical_formula_structural   Li2Ti3V3O12
_chemical_formula_sum   'Li4 Ti6 V6 O24'
_cell_volume   466.26812483
_cell_formula_units_Z   2
loop_
 _symmetry_equiv_pos_site_id
 _symmetry_equiv_pos_as_xyz
  1  'x, y, z'
loop_
 _atom_site_type_symbol
 _atom_site_label
 _atom_site_symmetry_multiplicity
 _atom_site_fract_x
 _atom_site_fract_y
 _atom_site_fract_z
 _atom_site_occupancy
  Li  Li0  1  0.25000300  0.75000300  0.50001000  1
  Li  Li1  1  0.75000000  0.25000300  0.49999500  1
  Li  Li2  1  0.00000100  0.99999600  0.99998900  1
  Li  Li3  1  0.50001400  0.50000300  0.00000800  1
  Ti  Ti0  1  0.50002600  0.50001500  0.50001600  1
  Ti  Ti1  1  0.99999700  0.99999100  0.49999300  1
  Ti  Ti2  1  0.32743600  0.00767300  0.83767200  1
  Ti  Ti3  1  0.82747500  0.50770800  0.83770600  1
  Ti  Ti4  1  0.17248800  0.49225800  0.16231600  1
  Ti  Ti5  1  0.67250500  0.99228800  0.16232100  1
  V  V0  1  0.25000000  0.75004300  0.00001600  1
  V  V1  1  0.91143300  0.74719700  0.66629500  1
  V  V2  1  0.58866900  0.75281100  0.33373100  1
  V  V3  1  0.74999200  0.25000400  0.99996500  1
  V  V4  1  0.41133400  0.24722200  0.66630000  1
  V  V5  1  0.08863000  0.25278000  0.33370600  1
  O  O0  1  0.43385600  0.23364200  0.90667400  1
  O  O1  1  0.93382200  0.73365000  0.90666300  1
  O  O2  1  0.06618200  0.26633800  0.09331300  1
  O  O3  1  0.56614600  0.76635800  0.09335500  1
  O  O4  1  0.02235800  0.98945200  0.74357000  1
  O  O5  1  0.52235400  0.48946400  0.74356900  1
  O  O6  1  0.47763000  0.51056500  0.25642400  1
  O  O7  1  0.97764700  0.01053600  0.25642000  1
  O  O8  1  0.30701100  0.00287900  0.60023100  1
  O  O9  1  0.80700900  0.50286300  0.60023400  1
  O  O10  1  0.19298600  0.49713100  0.39975800  1
  O  O11  1  0.69298600  0.99713800  0.39976000  1
  O  O12  1  0.65682100  0.01792400  0.93561500  1
  O  O13  1  0.15679400  0.51794500  0.93563800  1
  O  O14  1  0.84321100  0.48203800  0.06435600  1
  O  O15  1  0.34320200  0.98205800  0.06437700  1
  O  O16  1  0.91235000  0.77187400  0.43808600  1
  O  O17  1  0.41234800  0.27187300  0.43809300  1
  O  O18  1  0.58765600  0.72813200  0.56190100  1
  O  O19  1  0.08764100  0.22813300  0.56189700  1
  O  O20  1  0.23715800  0.76786400  0.77495300  1
  O  O21  1  0.73712000  0.26784200  0.77490100  1
  O  O22  1  0.26281900  0.73216600  0.22510900  1
  O  O23  1  0.76288900  0.23214100  0.22506400  1
loop_
_geom_bond_atom_site_label_1
_geom_bond_atom_site_label_2
_geom_bond_distance
_geom_bond_site_symmetry_2
Li0 O10 2.193433 1_555
Li0 O8 2.193444 1_565
Li0 O16 2.228473 1_455
Li0 O18 2.228498 1_555
Li0 O22 2.337285 1_555
Li0 O20 2.337688 1_555
Li1 O9 2.193325 1_555
Li1 O11 2.193359 1_545
Li1 O19 2.228408 1_655
Li1 O17 2.228481 1_555
Li1 O21 2.337492 1_555
Li1 O23 2.337700 1_555
Li2 O4 2.215539 1_555
Li2 O7 2.215638 1_466
Li2 O12 2.252216 1_465
Li2 O15 2.252370 1_556
Li2 O2 2.296310 1_566
Li2 O1 2.296346 1_455
Li3 O6 2.215564 1_555
Li3 O5 2.215668 1_554
Li3 O14 2.252445 1_555
Li3 O13 2.252519 1_554
Li3 O3 2.296465 1_555
Li3 O0 2.296493 1_554
O0 Ti2 1.948091 1_555
O0 V3 1.993529 1_555
O0 V4 2.024537 1_555
O1 Ti3 1.947830 1_555
O1 V0 1.993755 1_656
O1 V1 2.024631 1_555
O2 Ti4 1.947603 1_555
O2 V3 1.993928 1_454
O2 V5 2.024769 1_555
O3 Ti5 1.947734 1_555
O3 V0 1.993679 1_555
O3 V2 2.024469 1_555
O4 Ti2 1.920843 1_565
O4 Ti1 2.044386 1_455
O4 V1 2.085719 1_455
O5 Ti3 1.921088 1_555
O5 Ti0 2.044269 1_555
O5 V4 2.085665 1_555
O6 Ti4 1.921111 1_555
O6 Ti0 2.044478 1_555
O6 V2 2.085702 1_555
O7 Ti5 1.921202 1_545
O7 Ti1 2.044385 1_545
O7 V5 2.085657 1_655
O8 Ti2 1.963727 1_555
O8 Ti1 1.965442 1_445
O8 V4 2.103721 1_555
O9 Ti3 1.963821 1_555
O9 Ti0 1.965327 1_555
O9 V1 2.103700 1_555
O10 Ti4 1.963457 1_555
O10 Ti0 1.965625 1_555
O10 V5 2.103815 1_555
O11 Ti5 1.963504 1_555
O11 Ti1 1.965499 1_555
O11 V2 2.103602 1_555
O12 Ti5 1.954268 1_546
O12 V3 1.994837 1_555
O12 Ti2 2.089428 1_555
O13 Ti4 1.954167 1_556
O13 V0 1.994992 1_556
O13 Ti3 2.089034 1_455
O14 Ti3 1.953808 1_554
O14 V3 1.994444 1_554
O14 Ti4 2.088808 1_655
O15 Ti2 1.954055 1_564
O15 V0 1.994287 1_555
O15 Ti5 2.088950 1_555
O16 Ti1 1.960061 1_555
O16 V1 1.996067 1_555
O16 V2 2.040183 1_555
O17 Ti0 1.960278 1_555
O17 V4 1.996181 1_555
O17 V5 2.040380 1_555
O18 Ti0 1.960065 1_555
O18 V2 1.995945 1_555
O18 V1 2.040797 1_555
O19 Ti1 1.960277 1_445
O19 V5 1.995983 1_555
O19 V4 2.040238 1_555
O20 V0 1.923521 1_556
O20 V1 2.052599 1_455
O20 Ti2 2.061067 1_565
O21 V3 1.923519 1_555
O21 V4 2.053019 1_555
O21 Ti3 2.061537 1_555
O22 V0 1.923966 1_555
O22 V2 2.053389 1_555
O22 Ti4 2.061899 1_555
O23 V3 1.923835 1_554
O23 V5 2.052734 1_655
O23 Ti5 2.061462 1_545
