# generated using pymatgen
data_FeOF
_symmetry_space_group_name_H-M   'P 1'
_cell_length_a   14.13048987
_cell_length_b   14.23480652
_cell_length_c   3.10529200
_cell_angle_alpha   90.00000000
_cell_angle_beta   90.00000000
_cell_angle_gamma   90.18852325
_symmetry_Int_Tables_number   1
_chemical_formula_structural   FeOF
_chemical_formula_sum   'Fe18 O18 F18'
_cell_volume   624.60992401
_cell_formula_units_Z   18
loop_
 _symmetry_equiv_pos_site_id
 _symmetry_equiv_pos_as_xyz
  1  'x, y, z'
loop_
 _atom_site_type_symbol
 _atom_site_label
 _atom_site_symmetry_multiplicity
 _atom_site_fract_x
 _atom_site_fract_y
 _atom_site_fract_z
 _atom_site_occupancy
  Fe  Fe0  1  0.01704300  0.99068600  0.00000000  1
  Fe  Fe1  1  0.00552500  0.32356500  0.00000000  1
  Fe  Fe2  1  0.00114600  0.67581000  0.00000000  1
  Fe  Fe3  1  0.15341800  0.16199900  0.50000000  1
  Fe  Fe4  1  0.17584800  0.51151300  0.50000000  1
  Fe  Fe5  1  0.16466800  0.82369800  0.50000000  1
  Fe  Fe6  1  0.34858100  0.99730200  0.00000000  1
  Fe  Fe7  1  0.34440500  0.33633400  0.00000000  1
  Fe  Fe8  1  0.32955400  0.67162300  0.00000000  1
  Fe  Fe9  1  0.48082400  0.50703100  0.50000000  1
  Fe  Fe10  1  0.50431800  0.14663100  0.50000000  1
  Fe  Fe11  1  0.50757500  0.85107600  0.50000000  1
  Fe  Fe12  1  0.66585900  0.99959700  0.00000000  1
  Fe  Fe13  1  0.67896000  0.33002600  0.00000000  1
  Fe  Fe14  1  0.68020800  0.66619900  0.00000000  1
  Fe  Fe15  1  0.81406100  0.15579200  0.50000000  1
  Fe  Fe16  1  0.81734100  0.49869900  0.50000000  1
  Fe  Fe17  1  0.81286600  0.83905200  0.50000000  1
  O  O0  1  0.06740700  0.27186900  0.50000000  1
  O  O1  1  0.06846500  0.92913900  0.50000000  1
  O  O2  1  0.10174700  0.10243000  0.00000000  1
  O  O3  1  0.10141000  0.76467400  0.00000000  1
  O  O4  1  0.22895800  0.56330900  0.00000000  1
  O  O5  1  0.26710100  0.73389200  0.50000000  1
  O  O6  1  0.39608300  0.60572900  0.50000000  1
  O  O7  1  0.39698900  0.93422300  0.50000000  1
  O  O8  1  0.43541300  0.10234800  0.00000000  1
  O  O9  1  0.43001100  0.43509700  0.00000000  1
  O  O10  1  0.56834500  0.90006400  0.00000000  1
  O  O11  1  0.60459300  0.06346400  0.50000000  1
  O  O12  1  0.73098700  0.26741100  0.50000000  1
  O  O13  1  0.73339100  0.60244600  0.50000000  1
  O  O14  1  0.72972000  0.93828500  0.50000000  1
  O  O15  1  0.76739400  0.09788500  0.00000000  1
  O  O16  1  0.77066800  0.43510100  0.00000000  1
  O  O17  1  0.76573100  0.77139200  0.00000000  1
  F  F0  1  0.05969100  0.59673600  0.50000000  1
  F  F1  1  0.09937100  0.43728000  0.00000000  1
  F  F2  1  0.23740300  0.23363900  0.00000000  1
  F  F3  1  0.23223500  0.90168200  0.00000000  1
  F  F4  1  0.26715800  0.06824000  0.50000000  1
  F  F5  1  0.26236900  0.39215600  0.50000000  1
  F  F6  1  0.40036800  0.26614100  0.50000000  1
  F  F7  1  0.44068800  0.77192900  0.00000000  1
  F  F8  1  0.56366300  0.23531300  0.00000000  1
  F  F9  1  0.56431100  0.56644100  0.00000000  1
  F  F10  1  0.60043000  0.40072500  0.50000000  1
  F  F11  1  0.59966800  0.72905700  0.50000000  1
  F  F12  1  0.89914400  0.23138200  0.00000000  1
  F  F13  1  0.90272400  0.56732100  0.00000000  1
  F  F14  1  0.89914300  0.89981900  0.00000000  1
  F  F15  1  0.93641000  0.06268200  0.50000000  1
  F  F16  1  0.93781100  0.39980600  0.50000000  1
  F  F17  1  0.93080100  0.73425800  0.50000000  1
loop_
_geom_bond_atom_site_label_1
_geom_bond_atom_site_label_2
_geom_bond_distance
_geom_bond_site_symmetry_2
Fe0 O1 1.926250 1_555
Fe0 O1 1.926250 1_554
Fe0 O2 1.987522 1_565
Fe1 O0 1.929011 1_554
Fe1 O0 1.929011 1_555
Fe2 O3 1.896206 1_555
Fe3 O2 1.912788 1_556
Fe3 O2 1.912788 1_555
Fe3 O0 1.983855 1_555
Fe4 O4 1.874538 1_556
Fe4 O4 1.874538 1_555
Fe5 O5 1.934285 1_555
Fe5 O3 1.977547 1_556
Fe5 O3 1.977547 1_555
Fe5 O1 2.028344 1_555
Fe6 O7 1.920652 1_554
Fe6 O7 1.920652 1_555
Fe6 O8 1.931153 1_565
Fe7 O9 1.851634 1_555
Fe8 O5 1.995077 1_555
Fe8 O5 1.995077 1_554
Fe8 O6 2.044529 1_555
Fe8 O6 2.044529 1_554
Fe8 O4 2.093655 1_555
Fe9 O6 1.848997 1_555
Fe9 O9 1.992466 1_556
Fe9 O9 1.992466 1_555
Fe10 O11 1.849401 1_555
Fe10 O8 1.937019 1_555
Fe10 O8 1.937019 1_556
Fe11 O10 1.905368 1_555
Fe11 O10 1.905368 1_556
Fe11 O7 1.963380 1_555
Fe12 O10 1.973128 1_555
Fe12 O11 1.997970 1_564
Fe12 O11 1.997970 1_565
Fe12 O14 1.997977 1_555
Fe12 O14 1.997977 1_554
Fe12 O15 2.000694 1_565
Fe13 O12 1.936474 1_555
Fe13 O12 1.936474 1_554
Fe13 O16 1.975786 1_555
Fe14 O17 1.921128 1_555
Fe14 O13 1.950264 1_555
Fe14 O13 1.950264 1_554
Fe15 O15 1.876550 1_555
Fe15 O15 1.876550 1_556
Fe15 O12 1.978581 1_555
Fe16 O13 1.897293 1_555
Fe16 O16 1.913456 1_555
Fe16 O16 1.913456 1_556
Fe17 O14 1.840280 1_555
Fe17 O17 1.943634 1_556
Fe17 O17 1.943634 1_555
F0 Fe4 2.044222 1_555
F0 Fe2 2.090023 1_555
F0 Fe2 2.090023 1_556
F1 Fe1 2.089166 1_555
F1 Fe4 2.165090 1_555
F1 Fe4 2.165090 1_554
F2 Fe7 2.099656 1_555
F2 Fe3 2.202515 1_555
F2 Fe3 2.202515 1_554
F3 Fe6 2.130910 1_555
F3 Fe5 2.132507 1_554
F3 Fe5 2.132507 1_555
F4 Fe3 2.092482 1_555
F4 Fe6 2.182152 1_545
F4 Fe6 2.182152 1_546
F5 Fe7 2.095698 1_556
F5 Fe7 2.095698 1_555
F5 Fe4 2.096441 1_555
F6 Fe7 2.009880 1_555
F6 Fe7 2.009880 1_556
F6 Fe10 2.251243 1_555
F7 Fe8 2.118973 1_555
F7 Fe11 2.136896 1_555
F7 Fe11 2.136896 1_554
F8 Fe13 2.111291 1_555
F8 Fe10 2.168071 1_555
F8 Fe10 2.168071 1_554
F9 Fe9 2.123925 1_554
F9 Fe9 2.123925 1_555
F9 Fe14 2.164070 1_555
F10 Fe13 2.159221 1_555
F10 Fe13 2.159221 1_556
F10 Fe9 2.272257 1_555
F11 Fe14 2.124436 1_555
F11 Fe14 2.124436 1_556
F11 Fe11 2.173749 1_555
F12 Fe1 1.992126 1_655
F12 Fe15 2.237282 1_555
F12 Fe15 2.237282 1_554
F13 Fe2 2.074844 1_655
F13 Fe16 2.193806 1_555
F13 Fe16 2.193806 1_554
F14 Fe0 2.105801 1_655
F14 Fe17 2.153671 1_555
F14 Fe17 2.153671 1_554
F15 Fe15 2.181903 1_555
F15 Fe0 2.183324 1_646
F15 Fe0 2.183324 1_645
F16 Fe1 2.123887 1_655
F16 Fe1 2.123887 1_656
F16 Fe16 2.212528 1_555
F17 Fe2 2.023962 1_656
F17 Fe2 2.023962 1_655
F17 Fe17 2.240256 1_555
