# generated using pymatgen
data_YNb2NO5
_symmetry_space_group_name_H-M   'P 1'
_cell_length_a   5.29444600
_cell_length_b   5.94350917
_cell_length_c   15.04335063
_cell_angle_alpha   89.67424666
_cell_angle_beta   89.30381138
_cell_angle_gamma   89.66570013
_symmetry_Int_Tables_number   1
_chemical_formula_structural   YNb2NO5
_chemical_formula_sum   'Y4 Nb8 N4 O20'
_cell_volume   473.32750129
_cell_formula_units_Z   4
loop_
 _symmetry_equiv_pos_site_id
 _symmetry_equiv_pos_as_xyz
  1  'x, y, z'
loop_
 _atom_site_type_symbol
 _atom_site_label
 _atom_site_symmetry_multiplicity
 _atom_site_fract_x
 _atom_site_fract_y
 _atom_site_fract_z
 _atom_site_occupancy
  Y  Y0  1  0.25052200  0.70182300  0.00141000  1
  Y  Y1  1  0.74947800  0.29817700  0.99859000  1
  Y  Y2  1  0.74977700  0.79348200  0.49701600  1
  Y  Y3  1  0.25022300  0.20651800  0.50298400  1
  Nb  Nb0  1  0.72027500  0.81281800  0.16266100  1
  Nb  Nb1  1  0.23288700  0.18508700  0.16993500  1
  Nb  Nb2  1  0.21629900  0.67823900  0.33401300  1
  Nb  Nb3  1  0.74774600  0.32744500  0.33757500  1
  Nb  Nb4  1  0.25225400  0.67255500  0.66242500  1
  Nb  Nb5  1  0.78370100  0.32176100  0.66598700  1
  Nb  Nb6  1  0.76711300  0.81491300  0.83006500  1
  Nb  Nb7  1  0.27972500  0.18718200  0.83733900  1
  N  N0  1  0.60849400  0.61217500  0.08208500  1
  N  N1  1  0.03448000  0.42218600  0.40213900  1
  N  N2  1  0.96552000  0.57781400  0.59786100  1
  N  N3  1  0.39150600  0.38782500  0.91791500  1
  O  O0  1  0.10279800  0.38511600  0.08552700  1
  O  O1  1  0.03781200  0.91949100  0.10150100  1
  O  O2  1  0.53675700  0.09083800  0.10070400  1
  O  O3  1  0.39583700  0.86873700  0.24263600  1
  O  O4  1  0.91689600  0.14171300  0.24757600  1
  O  O5  1  0.40020300  0.37262400  0.25515300  1
  O  O6  1  0.90368500  0.63234800  0.25660200  1
  O  O7  1  0.53186900  0.59259700  0.39788500  1
  O  O8  1  0.10361800  0.89517200  0.41613800  1
  O  O9  1  0.60111100  0.11804500  0.41911900  1
  O  O10  1  0.39888900  0.88195500  0.58088100  1
  O  O11  1  0.89638200  0.10482800  0.58386200  1
  O  O12  1  0.46813100  0.40740300  0.60211500  1
  O  O13  1  0.59979700  0.62737600  0.74484700  1
  O  O14  1  0.09631500  0.36765200  0.74339800  1
  O  O15  1  0.08310400  0.85828700  0.75242400  1
  O  O16  1  0.60416300  0.13126300  0.75736400  1
  O  O17  1  0.46324300  0.90916200  0.89929600  1
  O  O18  1  0.96218800  0.08050900  0.89849900  1
  O  O19  1  0.89720200  0.61488400  0.91447300  1
loop_
_geom_bond_atom_site_label_1
_geom_bond_atom_site_label_2
_geom_bond_distance
_geom_bond_site_symmetry_2
Nb0 O1 2.010736 1_655
Nb0 O6 2.023494 1_555
Nb0 O3 2.110951 1_555
Nb0 O2 2.128142 1_565
Nb0 O4 2.573151 1_565
Nb1 O0 1.869403 1_555
Nb1 O5 1.930263 1_555
Nb1 O2 1.985486 1_555
Nb1 O4 2.045405 1_455
Nb1 O1 2.163737 1_545
Nb1 O3 2.335870 1_545
Nb2 O8 1.880384 1_555
Nb2 O7 1.999330 1_555
Nb2 O3 2.009520 1_555
Nb2 O6 2.055635 1_455
Nb2 O5 2.372885 1_555
Nb3 O9 1.904529 1_555
Nb3 O4 1.956941 1_555
Nb3 O7 2.140810 1_555
Nb3 O5 2.245246 1_555
Nb3 O6 2.327526 1_555
Nb4 O10 1.904529 1_555
Nb4 O15 1.956941 1_555
Nb4 O12 2.140810 1_555
Nb4 O13 2.245246 1_555
Nb4 O14 2.327526 1_555
Nb5 O11 1.880384 1_555
Nb5 O12 1.999330 1_555
Nb5 O16 2.009520 1_555
Nb5 O14 2.055635 1_655
Nb5 O13 2.372885 1_555
Nb6 O19 1.869403 1_555
Nb6 O13 1.930263 1_555
Nb6 O17 1.985486 1_555
Nb6 O15 2.045405 1_655
Nb6 O18 2.163737 1_565
Nb6 O16 2.335870 1_565
Nb7 O18 2.010736 1_455
Nb7 O14 2.023494 1_555
Nb7 O16 2.110951 1_555
Nb7 O17 2.128142 1_545
Nb7 O15 2.573151 1_545
N0 Nb0 1.812107 1_555
N0 Y0 2.320681 1_555
N0 Y1 2.367554 1_554
N1 Nb3 1.901858 1_455
N1 Nb2 2.066007 1_555
N1 Y3 2.291752 1_555
N2 Nb4 1.901858 1_655
N2 Nb5 2.066007 1_555
N2 Y2 2.291752 1_555
N3 Nb7 1.812107 1_555
N3 Y1 2.320681 1_555
N3 Y0 2.367554 1_556
O0 Y1 2.356924 1_454
O0 Y0 2.392120 1_555
O1 Y0 2.274436 1_555
O2 Y1 2.258180 1_554
O7 Y2 2.249126 1_555
O8 Y2 2.303183 1_455
O8 Y3 2.408837 1_565
O9 Y3 2.293168 1_555
O9 Y2 2.385985 1_545
O10 Y2 2.293168 1_555
O10 Y3 2.385985 1_565
O11 Y3 2.303183 1_655
O11 Y2 2.408837 1_545
O12 Y3 2.249126 1_555
O17 Y0 2.258180 1_556
O18 Y1 2.274436 1_555
O19 Y0 2.356924 1_656
O19 Y1 2.392120 1_555
