# generated using pymatgen
data_Li6La3Nb2O12
_symmetry_space_group_name_H-M   'P 1'
_cell_length_a   11.16760023
_cell_length_b   11.16760023
_cell_length_c   11.16760023
_cell_angle_alpha   109.47122063
_cell_angle_beta   109.47122063
_cell_angle_gamma   109.47122063
_symmetry_Int_Tables_number   1
_chemical_formula_structural   Li6La3Nb2O12
_chemical_formula_sum   'Li24 La12 Nb8 O48'
_cell_volume   1072.15527439
_cell_formula_units_Z   4
loop_
 _symmetry_equiv_pos_site_id
 _symmetry_equiv_pos_as_xyz
  1  'x, y, z'
loop_
 _atom_site_type_symbol
 _atom_site_label
 _atom_site_symmetry_multiplicity
 _atom_site_fract_x
 _atom_site_fract_y
 _atom_site_fract_z
 _atom_site_occupancy
  Li  Li0  1  0.17929100  0.75294500  0.29040200  1
  Li  Li1  1  0.25169300  0.06432200  0.45389900  1
  Li  Li2  1  0.06432200  0.45389900  0.25169300  1
  Li  Li3  1  0.20959800  0.96254300  0.88888900  1
  Li  Li4  1  0.11042400  0.79779400  0.04610100  1
  Li  Li5  1  0.04610100  0.11042400  0.79779400  1
  Li  Li6  1  0.29040200  0.17929100  0.75294500  1
  Li  Li7  1  0.38957600  0.43567800  0.68737100  1
  Li  Li8  1  0.57365400  0.32070900  0.61111100  1
  Li  Li9  1  0.32070900  0.61111100  0.57365400  1
  Li  Li10  1  0.45389900  0.25169300  0.06432200  1
  Li  Li11  1  0.24830700  0.70220600  0.81262900  1
  Li  Li12  1  0.75294500  0.29040200  0.17929100  1
  Li  Li13  1  0.53745700  0.74705500  0.92634600  1
  Li  Li14  1  0.68737100  0.38957600  0.43567800  1
  Li  Li15  1  0.43567800  0.68737100  0.38957600  1
  Li  Li16  1  0.61111100  0.57365400  0.32070900  1
  Li  Li17  1  0.70220600  0.81262900  0.24830700  1
  Li  Li18  1  0.96254300  0.88888900  0.20959800  1
  Li  Li19  1  0.88888900  0.20959800  0.96254300  1
  Li  Li20  1  0.79779400  0.04610100  0.11042400  1
  Li  Li21  1  0.92634600  0.53745700  0.74705500  1
  Li  Li22  1  0.74705500  0.92634600  0.53745700  1
  Li  Li23  1  0.81262900  0.24830700  0.70220600  1
  La  La0  1  0.12199400  0.25000000  0.37199400  1
  La  La1  1  0.25000000  0.86812300  0.61812300  1
  La  La2  1  0.12800600  0.37800600  0.75000000  1
  La  La3  1  0.37199400  0.12199400  0.25000000  1
  La  La4  1  0.25000000  0.37199400  0.12199400  1
  La  La5  1  0.61812300  0.25000000  0.86812300  1
  La  La6  1  0.75000000  0.63187700  0.88187700  1
  La  La7  1  0.63187700  0.88187700  0.75000000  1
  La  La8  1  0.37800600  0.75000000  0.12800600  1
  La  La9  1  0.86812300  0.61812300  0.25000000  1
  La  La10  1  0.88187700  0.75000000  0.63187700  1
  La  La11  1  0.75000000  0.12800600  0.37800600  1
  Nb  Nb0  1  0.00000000  0.99999800  0.50000000  1
  Nb  Nb1  1  0.00000000  0.49986200  0.50000000  1
  Nb  Nb2  1  0.00013800  0.00013800  0.00013800  1
  Nb  Nb3  1  0.99999800  0.50000000  0.00000000  1
  Nb  Nb4  1  0.49986200  0.50000000  0.00000000  1
  Nb  Nb5  1  0.50000000  0.00000000  0.99999800  1
  Nb  Nb6  1  0.50000200  0.50000200  0.50000200  1
  Nb  Nb7  1  0.50000000  0.00000000  0.49986200  1
  O  O0  1  0.08759900  0.61524400  0.41026100  1
  O  O1  1  0.11837800  0.02695700  0.20534100  1
  O  O2  1  0.02695700  0.20534100  0.11837800  1
  O  O3  1  0.08055400  0.88198200  0.40106000  1
  O  O4  1  0.08973900  0.70498300  0.67733800  1
  O  O5  1  0.09894000  0.98092200  0.67949400  1
  O  O6  1  0.17900300  0.19765200  0.58271600  1
  O  O7  1  0.41026100  0.08759900  0.61524400  1
  O  O8  1  0.38506400  0.30234800  0.48135100  1
  O  O9  1  0.30234800  0.48135100  0.38506400  1
  O  O10  1  0.32099700  0.90371300  0.01864900  1
  O  O11  1  0.01864900  0.32099700  0.90371300  1
  O  O12  1  0.17838400  0.47304300  0.59142000  1
  O  O13  1  0.20534100  0.11837800  0.02695700  1
  O  O14  1  0.40106000  0.08055400  0.88198200  1
  O  O15  1  0.32161600  0.91303700  0.29465900  1
  O  O16  1  0.29465900  0.32161600  0.91303700  1
  O  O17  1  0.11493600  0.59628700  0.91728400  1
  O  O18  1  0.52764500  0.41240100  0.82266200  1
  O  O19  1  0.41240100  0.82266200  0.52764500  1
  O  O20  1  0.51907800  0.61801800  0.69857300  1
  O  O21  1  0.38162200  0.58696300  0.90858000  1
  O  O22  1  0.58271600  0.17900300  0.19765200  1
  O  O23  1  0.19765200  0.58271600  0.17900300  1
  O  O24  1  0.80142700  0.41944600  0.82050600  1
  O  O25  1  0.41944600  0.82050600  0.80142700  1
  O  O26  1  0.61524400  0.41026100  0.08759900  1
  O  O27  1  0.48135100  0.38506400  0.30234800  1
  O  O28  1  0.59142000  0.17838400  0.47304300  1
  O  O29  1  0.47304300  0.59142000  0.17838400  1
  O  O30  1  0.88198200  0.40106000  0.08055400  1
  O  O31  1  0.70498300  0.67733800  0.08973900  1
  O  O32  1  0.67733800  0.08973900  0.70498300  1
  O  O33  1  0.59628700  0.91728400  0.11493600  1
  O  O34  1  0.79501700  0.88475600  0.97235500  1
  O  O35  1  0.98092200  0.67949400  0.09894000  1
  O  O36  1  0.67949400  0.09894000  0.98092200  1
  O  O37  1  0.82266200  0.52764500  0.41240100  1
  O  O38  1  0.69857300  0.51907800  0.61801800  1
  O  O39  1  0.61801800  0.69857300  0.51907800  1
  O  O40  1  0.58696300  0.90858000  0.38162200  1
  O  O41  1  0.82050600  0.80142700  0.41944600  1
  O  O42  1  0.90371300  0.01864900  0.32099700  1
  O  O43  1  0.91303700  0.29465900  0.32161600  1
  O  O44  1  0.91728400  0.11493600  0.59628700  1
  O  O45  1  0.97235500  0.79501700  0.88475600  1
  O  O46  1  0.88475600  0.97235500  0.79501700  1
  O  O47  1  0.90858000  0.38162200  0.58696300  1
loop_
_geom_bond_atom_site_label_1
_geom_bond_atom_site_label_2
_geom_bond_distance
_geom_bond_site_symmetry_2
Li0 O15 1.929626 1_555
Li0 O23 2.014193 1_555
Li0 O35 2.147955 1_455
Li0 O3 2.366458 1_555
Li0 O0 2.537962 1_555
Li0 O19 2.660486 1_555
Li1 O7 1.924503 1_555
Li1 O3 2.000001 1_545
Li1 O6 2.258730 1_555
Li1 O8 2.427172 1_555
Li1 O1 2.480783 1_555
Li1 O15 2.535526 1_545
Li2 O0 1.924503 1_555
Li2 O30 2.000001 1_455
Li2 O23 2.258730 1_555
Li2 O9 2.427172 1_555
Li2 O2 2.480783 1_555
Li2 O43 2.535526 1_455
Li3 O13 1.929626 1_566
Li3 O10 2.014193 1_556
Li3 O14 2.147955 1_565
Li3 O5 2.366458 1_555
Li3 O4 2.537962 1_555
Li3 O45 2.660486 1_455
Li4 O45 1.924508 1_454
Li4 O35 2.000008 1_455
Li4 O17 2.258724 1_554
Li4 O10 2.427163 1_555
Li4 O15 2.480778 1_555
Li4 O1 2.535532 1_565
Li5 O46 1.924508 1_445
Li5 O5 2.000008 1_545
Li5 O44 2.258724 1_455
Li5 O11 2.427163 1_555
Li5 O16 2.480778 1_555
Li5 O13 2.535532 1_556
Li6 O16 1.929626 1_555
Li6 O6 2.014193 1_555
Li6 O5 2.147955 1_545
Li6 O14 2.366458 1_555
Li6 O7 2.537962 1_555
Li6 O18 2.660486 1_555
Li7 O18 1.924509 1_555
Li7 O20 1.999999 1_555
Li7 O8 2.258736 1_555
Li7 O6 2.427167 1_555
Li7 O12 2.480775 1_555
Li7 O21 2.535529 1_555
Li8 O28 1.929619 1_555
Li8 O8 2.014193 1_555
Li8 O38 2.147958 1_555
Li8 O24 2.366451 1_555
Li8 O18 2.537962 1_555
Li8 O7 2.660486 1_555
Li9 O12 1.929619 1_555
Li9 O9 2.014193 1_555
Li9 O20 2.147958 1_555
Li9 O25 2.366451 1_555
Li9 O19 2.537962 1_555
Li9 O0 2.660486 1_555
Li10 O26 1.924503 1_555
Li10 O14 2.000001 1_554
Li10 O22 2.258730 1_555
Li10 O27 2.427172 1_555
Li10 O13 2.480783 1_555
Li10 O16 2.535526 1_554
Li11 O4 1.924503 1_555
Li11 O25 2.000008 1_555
Li11 O10 2.258730 1_556
Li11 O17 2.427172 1_555
Li11 O21 2.480787 1_555
Li11 O12 2.535532 1_555
Li12 O43 1.929626 1_555
Li12 O22 2.014193 1_555
Li12 O36 2.147955 1_554
Li12 O30 2.366458 1_555
Li12 O26 2.537962 1_555
Li12 O37 2.660486 1_555
Li13 O21 1.929632 1_555
Li13 O33 2.014193 1_556
Li13 O25 2.147961 1_555
Li13 O20 2.366449 1_555
Li13 O34 2.537962 1_555
Li13 O31 2.660486 1_556
Li14 O37 1.924509 1_555
Li14 O38 1.999999 1_555
Li14 O27 2.258736 1_555
Li14 O22 2.427167 1_555
Li14 O28 2.480775 1_555
Li14 O47 2.535529 1_555
Li15 O19 1.924509 1_555
Li15 O39 1.999999 1_555
Li15 O9 2.258736 1_555
Li15 O23 2.427167 1_555
Li15 O29 2.480775 1_555
Li15 O40 2.535529 1_555
Li16 O29 1.929619 1_555
Li16 O27 2.014193 1_555
Li16 O39 2.147958 1_555
Li16 O41 2.366451 1_555
Li16 O37 2.537962 1_555
Li16 O26 2.660486 1_555
Li17 O31 1.924503 1_555
Li17 O41 2.000008 1_555
Li17 O42 2.258730 1_565
Li17 O33 2.427172 1_555
Li17 O40 2.480787 1_555
Li17 O29 2.535532 1_555
Li18 O1 1.929626 1_665
Li18 O42 2.014193 1_565
Li18 O3 2.147955 1_655
Li18 O35 2.366458 1_555
Li18 O31 2.537962 1_555
Li18 O34 2.660486 1_554
Li19 O2 1.929626 1_656
Li19 O11 2.014193 1_655
Li19 O30 2.147955 1_556
Li19 O36 2.366458 1_555
Li19 O32 2.537962 1_555
Li19 O46 2.660486 1_545
Li20 O34 1.924508 1_544
Li20 O36 2.000008 1_554
Li20 O33 2.258724 1_545
Li20 O42 2.427163 1_555
Li20 O43 2.480778 1_555
Li20 O2 2.535532 1_655
Li21 O47 1.929632 1_555
Li21 O17 2.014193 1_655
Li21 O24 2.147961 1_555
Li21 O38 2.366449 1_555
Li21 O45 2.537962 1_555
Li21 O4 2.660486 1_655
Li22 O40 1.929632 1_555
Li22 O44 2.014193 1_565
Li22 O41 2.147961 1_555
Li22 O39 2.366449 1_555
Li22 O46 2.537962 1_555
Li22 O32 2.660486 1_565
Li23 O32 1.924503 1_555
Li23 O24 2.000008 1_555
Li23 O11 2.258730 1_655
Li23 O44 2.427172 1_555
Li23 O47 2.480787 1_555
Li23 O28 2.535532 1_555
La0 O43 2.469495 1_455
La0 O2 2.469495 1_555
La0 O8 2.539957 1_555
La0 O6 2.539957 1_555
La0 O12 2.542053 1_555
La0 O1 2.542059 1_555
La0 O42 2.614689 1_455
La0 O9 2.614689 1_555
La1 O19 2.462010 1_555
La1 O0 2.462010 1_555
La1 O7 2.525495 1_565
La1 O4 2.525495 1_555
La1 O14 2.552332 1_565
La1 O5 2.552332 1_555
La1 O25 2.620721 1_555
La1 O3 2.620728 1_555
La2 O21 2.469495 1_555
La2 O12 2.469505 1_555
La2 O11 2.539957 1_555
La2 O44 2.539957 1_455
La2 O47 2.542051 1_455
La2 O16 2.542059 1_555
La2 O17 2.614689 1_555
La2 O6 2.614689 1_555
La3 O15 2.469495 1_545
La3 O1 2.469495 1_555
La3 O27 2.539957 1_555
La3 O22 2.539957 1_555
La3 O28 2.542053 1_555
La3 O13 2.542059 1_555
La3 O10 2.614689 1_545
La3 O8 2.614689 1_555
La4 O16 2.469495 1_554
La4 O13 2.469495 1_555
La4 O9 2.539957 1_555
La4 O23 2.539957 1_555
La4 O29 2.542053 1_555
La4 O2 2.542059 1_555
La4 O11 2.614689 1_554
La4 O27 2.614689 1_555
La5 O18 2.462010 1_555
La5 O7 2.462010 1_555
La5 O26 2.525495 1_556
La5 O32 2.525495 1_555
La5 O30 2.552332 1_556
La5 O36 2.552332 1_555
La5 O24 2.620721 1_555
La5 O14 2.620728 1_555
La6 O34 2.462010 1_555
La6 O31 2.462010 1_556
La6 O45 2.525495 1_555
La6 O18 2.525495 1_555
La6 O24 2.552325 1_555
La6 O38 2.552336 1_555
La6 O20 2.620723 1_555
La6 O35 2.620728 1_556
La7 O46 2.462010 1_555
La7 O32 2.462010 1_565
La7 O34 2.525495 1_555
La7 O19 2.525495 1_555
La7 O25 2.552325 1_555
La7 O20 2.552336 1_555
La7 O39 2.620723 1_555
La7 O36 2.620728 1_565
La8 O40 2.469495 1_555
La8 O29 2.469505 1_555
La8 O10 2.539957 1_555
La8 O17 2.539957 1_554
La8 O21 2.542051 1_554
La8 O15 2.542059 1_555
La8 O33 2.614689 1_555
La8 O23 2.614689 1_555
La9 O37 2.462010 1_555
La9 O26 2.462010 1_555
La9 O0 2.525495 1_655
La9 O31 2.525495 1_555
La9 O3 2.552332 1_655
La9 O35 2.552332 1_555
La9 O41 2.620721 1_555
La9 O30 2.620728 1_555
La10 O45 2.462010 1_555
La10 O4 2.462010 1_655
La10 O46 2.525495 1_555
La10 O37 2.525495 1_555
La10 O41 2.552325 1_555
La10 O39 2.552336 1_555
La10 O38 2.620723 1_555
La10 O5 2.620728 1_655
La11 O47 2.469495 1_555
La11 O28 2.469505 1_555
La11 O42 2.539957 1_555
La11 O33 2.539957 1_545
La11 O40 2.542051 1_545
La11 O43 2.542059 1_555
La11 O44 2.614689 1_555
La11 O22 2.614689 1_555
Nb0 O6 2.046861 1_565
Nb0 O44 2.046861 1_465
Nb0 O42 2.046861 1_465
Nb0 O5 2.061402 1_555
Nb0 O3 2.061402 1_555
Nb0 O41 2.061409 1_455
Nb1 O4 2.072635 1_555
Nb1 O0 2.072635 1_555
Nb1 O37 2.072635 1_455
Nb1 O47 2.084774 1_455
Nb1 O12 2.084777 1_555
Nb1 O43 2.084779 1_455
Nb2 O34 2.072635 1_444
Nb2 O45 2.072635 1_444
Nb2 O46 2.072635 1_444
Nb2 O13 2.084779 1_555
Nb2 O1 2.084779 1_555
Nb2 O2 2.084779 1_555
Nb3 O11 2.046861 1_654
Nb3 O23 2.046861 1_655
Nb3 O17 2.046861 1_654
Nb3 O35 2.061402 1_555
Nb3 O30 2.061402 1_555
Nb3 O24 2.061409 1_554
Nb4 O31 2.072635 1_555
Nb4 O26 2.072635 1_555
Nb4 O18 2.072635 1_554
Nb4 O21 2.084774 1_554
Nb4 O29 2.084777 1_555
Nb4 O16 2.084779 1_554
Nb5 O10 2.046861 1_546
Nb5 O22 2.046861 1_556
Nb5 O33 2.046861 1_546
Nb5 O36 2.061402 1_555
Nb5 O14 2.061402 1_555
Nb5 O25 2.061409 1_545
Nb6 O8 2.046861 1_555
Nb6 O27 2.046861 1_555
Nb6 O9 2.046861 1_555
Nb6 O39 2.061411 1_555
Nb6 O38 2.061411 1_555
Nb6 O20 2.061411 1_555
Nb7 O32 2.072635 1_555
Nb7 O7 2.072635 1_555
Nb7 O19 2.072635 1_545
Nb7 O40 2.084774 1_545
Nb7 O28 2.084777 1_555
Nb7 O15 2.084779 1_545
