# generated using pymatgen
data_GeWO4
_symmetry_space_group_name_H-M   'P 1'
_cell_length_a   7.40712100
_cell_length_b   7.40712100
_cell_length_c   7.40712100
_cell_angle_alpha   90.00000000
_cell_angle_beta   90.00000000
_cell_angle_gamma   90.00000000
_symmetry_Int_Tables_number   1
_chemical_formula_structural   GeWO4
_chemical_formula_sum   'Ge4 W4 O16'
_cell_volume   406.39496397
_cell_formula_units_Z   4
loop_
 _symmetry_equiv_pos_site_id
 _symmetry_equiv_pos_as_xyz
  1  'x, y, z'
loop_
 _atom_site_type_symbol
 _atom_site_label
 _atom_site_symmetry_multiplicity
 _atom_site_fract_x
 _atom_site_fract_y
 _atom_site_fract_z
 _atom_site_occupancy
  Ge  Ge0  1  0.18127100  0.31872900  0.68127100  1
  Ge  Ge1  1  0.31872900  0.68127100  0.18127100  1
  Ge  Ge2  1  0.68127100  0.18127100  0.31872900  1
  Ge  Ge3  1  0.81872900  0.81872900  0.81872900  1
  W  W0  1  0.16433400  0.16433400  0.16433400  1
  W  W1  1  0.33566600  0.83566600  0.66433400  1
  W  W2  1  0.66433400  0.33566600  0.83566600  1
  W  W3  1  0.83566600  0.66433400  0.33566600  1
  O  O0  1  0.05604300  0.63860500  0.22655300  1
  O  O1  1  0.13860500  0.27344700  0.94395700  1
  O  O2  1  0.19764800  0.69764800  0.80235200  1
  O  O3  1  0.22655300  0.05604300  0.63860500  1
  O  O4  1  0.27344700  0.94395700  0.13860500  1
  O  O5  1  0.30235200  0.30235200  0.30235200  1
  O  O6  1  0.36139500  0.72655300  0.44395700  1
  O  O7  1  0.44395700  0.36139500  0.72655300  1
  O  O8  1  0.55604300  0.86139500  0.77344700  1
  O  O9  1  0.63860500  0.22655300  0.05604300  1
  O  O10  1  0.69764800  0.80235200  0.19764800  1
  O  O11  1  0.72655300  0.44395700  0.36139500  1
  O  O12  1  0.77344700  0.55604300  0.86139500  1
  O  O13  1  0.80235200  0.19764800  0.69764800  1
  O  O14  1  0.86139500  0.77344700  0.55604300  1
  O  O15  1  0.94395700  0.13860500  0.27344700  1
loop_
_geom_bond_atom_site_label_1
_geom_bond_atom_site_label_2
_geom_bond_distance
_geom_bond_site_symmetry_2
Ge0 O3 1.999577 1_555
Ge0 O7 1.999577 1_555
Ge0 O1 1.999577 1_555
Ge1 O0 1.999577 1_555
Ge1 O6 1.999577 1_555
Ge1 O4 1.999577 1_555
Ge2 O9 1.999577 1_555
Ge2 O11 1.999577 1_555
Ge2 O15 1.999577 1_555
Ge3 O12 1.999577 1_555
Ge3 O8 1.999577 1_555
Ge3 O14 1.999577 1_555
O0 W3 1.831427 1_455
O1 W0 1.831427 1_556
O2 W1 1.770703 1_555
O3 W1 1.831427 1_545
O4 W0 1.831427 1_565
O5 W0 1.770703 1_555
O6 W1 1.831427 1_555
O7 W2 1.831427 1_555
O8 W1 1.831427 1_555
O9 W2 1.831427 1_554
O10 W3 1.770703 1_555
O11 W3 1.831427 1_555
O12 W2 1.831427 1_555
O13 W2 1.770703 1_555
O14 W3 1.831427 1_555
O15 W0 1.831427 1_655
