# generated using pymatgen
data_CdRe2H16C4S4(NO)8
_symmetry_space_group_name_H-M   'P 1'
_cell_length_a   13.79018200
_cell_length_b   7.07435400
_cell_length_c   11.67441988
_cell_angle_alpha   73.21396722
_cell_angle_beta   90.00000000
_cell_angle_gamma   90.00000000
_symmetry_Int_Tables_number   1
_chemical_formula_structural   CdRe2H16C4S4(NO)8
_chemical_formula_sum   'Cd2 Re4 H32 C8 S8 N16 O16'
_cell_volume   1090.38771290
_cell_formula_units_Z   2
loop_
 _symmetry_equiv_pos_site_id
 _symmetry_equiv_pos_as_xyz
  1  'x, y, z'
loop_
 _atom_site_type_symbol
 _atom_site_label
 _atom_site_symmetry_multiplicity
 _atom_site_fract_x
 _atom_site_fract_y
 _atom_site_fract_z
 _atom_site_occupancy
  Cd  Cd0  1  0.50000000  0.00000000  0.50000000  1
  Cd  Cd1  1  0.00000000  0.00000000  0.00000000  1
  Re  Re0  1  0.47768800  0.41949500  0.18850300  1
  Re  Re1  1  0.97768800  0.58050500  0.31149700  1
  Re  Re2  1  0.52231200  0.58050500  0.81149700  1
  Re  Re3  1  0.02231200  0.41949500  0.68850300  1
  H  H0  1  0.32100600  0.24073800  0.38315900  1
  H  H1  1  0.82100600  0.75926200  0.11684100  1
  H  H2  1  0.67899400  0.75926200  0.61684100  1
  H  H3  1  0.17899400  0.24073800  0.88315900  1
  H  H4  1  0.19515900  0.25194100  0.35530500  1
  H  H5  1  0.69515900  0.74805900  0.14469500  1
  H  H6  1  0.80484100  0.74805900  0.64469500  1
  H  H7  1  0.30484100  0.25194100  0.85530500  1
  H  H8  1  0.08867600  0.09190200  0.50137000  1
  H  H9  1  0.58867600  0.90809800  0.99863000  1
  H  H10  1  0.91132400  0.90809800  0.49863000  1
  H  H11  1  0.41132400  0.09190200  0.00137000  1
  H  H12  1  0.13037500  0.95344800  0.64245600  1
  H  H13  1  0.63037500  0.04655200  0.85754400  1
  H  H14  1  0.86962500  0.04655200  0.35754400  1
  H  H15  1  0.36962500  0.95344800  0.14245600  1
  H  H16  1  0.41955700  0.48929400  0.57623400  1
  H  H17  1  0.91955700  0.51070600  0.92376600  1
  H  H18  1  0.58044300  0.51070600  0.42376600  1
  H  H19  1  0.08044300  0.48929400  0.07623400  1
  H  H20  1  0.29396000  0.45567700  0.59649400  1
  H  H21  1  0.79396000  0.54432300  0.90350600  1
  H  H22  1  0.70604000  0.54432300  0.40350600  1
  H  H23  1  0.20604000  0.45567700  0.09649400  1
  H  H24  1  0.18742500  0.63905000  0.45692400  1
  H  H25  1  0.68742500  0.36095000  0.04307600  1
  H  H26  1  0.81257500  0.36095000  0.54307600  1
  H  H27  1  0.31257500  0.63905000  0.95692400  1
  H  H28  1  0.23099300  0.81489700  0.32811900  1
  H  H29  1  0.73099300  0.18510300  0.17188100  1
  H  H30  1  0.76900700  0.18510300  0.67188100  1
  H  H31  1  0.26900700  0.81489700  0.82811900  1
  C  C0  1  0.23668300  0.08419500  0.52261000  1
  C  C1  1  0.73668300  0.91580500  0.97739000  1
  C  C2  1  0.76331700  0.91580500  0.47739000  1
  C  C3  1  0.26331700  0.08419500  0.02261000  1
  C  C4  1  0.33539900  0.66833500  0.44479200  1
  C  C5  1  0.83539900  0.33166500  0.05520800  1
  C  C6  1  0.66460100  0.33166500  0.55520800  1
  C  C7  1  0.16460100  0.66833500  0.94479200  1
  S  S0  1  0.32965000  0.99713300  0.62193200  1
  S  S1  1  0.82965000  0.00286700  0.87806800  1
  S  S2  1  0.67035000  0.00286700  0.37806800  1
  S  S3  1  0.17035000  0.99713300  0.12193200  1
  S  S4  1  0.43156800  0.79140800  0.35980800  1
  S  S5  1  0.93156800  0.20859200  0.14019200  1
  S  S6  1  0.56843200  0.20859200  0.64019200  1
  S  S7  1  0.06843200  0.79140800  0.85980800  1
  N  N0  1  0.25219500  0.19979600  0.41113600  1
  N  N1  1  0.75219500  0.80020400  0.08886400  1
  N  N2  1  0.74780500  0.80020400  0.58886400  1
  N  N3  1  0.24780500  0.19979600  0.91113600  1
  N  N4  1  0.14498000  0.03803500  0.55758100  1
  N  N5  1  0.64498000  0.96196500  0.94241900  1
  N  N6  1  0.85502000  0.96196500  0.44241900  1
  N  N7  1  0.35502000  0.03803500  0.05758100  1
  N  N8  1  0.35082200  0.52752700  0.54700800  1
  N  N9  1  0.85082200  0.47247300  0.95299200  1
  N  N10  1  0.64917800  0.47247300  0.45299200  1
  N  N11  1  0.14917800  0.52752700  0.04700800  1
  N  N12  1  0.24451600  0.70974900  0.40688000  1
  N  N13  1  0.74451600  0.29025100  0.09312000  1
  N  N14  1  0.75548400  0.29025100  0.59312000  1
  N  N15  1  0.25548400  0.70974900  0.90688000  1
  O  O0  1  0.46431400  0.30384600  0.34402000  1
  O  O1  1  0.96431400  0.69615400  0.15598000  1
  O  O2  1  0.53568600  0.69615400  0.65598000  1
  O  O3  1  0.03568600  0.30384600  0.84402000  1
  O  O4  1  0.55607300  0.62279400  0.16241800  1
  O  O5  1  0.05607300  0.37720600  0.33758200  1
  O  O6  1  0.44392700  0.37720600  0.83758200  1
  O  O7  1  0.94392700  0.62279400  0.66241800  1
  O  O8  1  0.52805200  0.25149600  0.12143400  1
  O  O9  1  0.02805200  0.74850400  0.37856600  1
  O  O10  1  0.47194800  0.74850400  0.87856600  1
  O  O11  1  0.97194800  0.25149600  0.62143400  1
  O  O12  1  0.36228000  0.48900100  0.12757700  1
  O  O13  1  0.86228000  0.51099900  0.37242300  1
  O  O14  1  0.63772000  0.51099900  0.87242300  1
  O  O15  1  0.13772000  0.48900100  0.62757700  1
loop_
_geom_bond_atom_site_label_1
_geom_bond_atom_site_label_2
_geom_bond_distance
_geom_bond_site_symmetry_2
Cd0 O2 2.432634 1_545
Cd0 O0 2.432634 1_555
Cd0 S4 2.672403 1_545
Cd0 S6 2.672403 1_555
Cd0 S2 2.743827 1_555
Cd0 S0 2.743827 1_545
Cd1 O1 2.432634 1_445
Cd1 O3 2.432634 1_554
Cd1 S7 2.672403 1_544
Cd1 S5 2.672403 1_455
Cd1 S3 2.743827 1_545
Cd1 S1 2.743827 1_454
H0 N0 1.018022 1_555
H1 N1 1.018022 1_555
H2 N2 1.018022 1_555
H3 N3 1.018022 1_555
H4 N0 1.020137 1_555
H5 N1 1.020137 1_555
H6 N2 1.020137 1_555
H7 N3 1.020137 1_555
H8 N4 1.016995 1_555
H9 N5 1.016995 1_555
H10 N6 1.016995 1_555
H11 N7 1.016995 1_555
H12 N4 1.018815 1_565
H13 N5 1.018815 1_545
H14 N6 1.018815 1_545
H15 N7 1.018815 1_565
H16 N8 1.017213 1_555
H17 N9 1.017213 1_555
H18 N10 1.017213 1_555
H19 N11 1.017213 1_555
H20 N8 1.018519 1_555
H21 N9 1.018519 1_555
H22 N10 1.018519 1_555
H23 N11 1.018519 1_555
H24 N12 1.021047 1_555
H25 N13 1.021047 1_555
H26 N14 1.021047 1_555
H27 N15 1.021047 1_555
H28 N12 1.019068 1_555
H29 N13 1.019068 1_555
H30 N14 1.019068 1_555
H31 N15 1.019068 1_555
C0 N0 1.339201 1_555
C0 N4 1.339973 1_555
C0 S0 1.718998 1_545
C1 N1 1.339201 1_556
C1 N5 1.339973 1_555
C1 S1 1.718998 1_565
C2 N2 1.339201 1_555
C2 N6 1.339973 1_555
C2 S2 1.718998 1_565
C3 N3 1.339201 1_554
C3 N7 1.339973 1_555
C3 S3 1.718998 1_545
C4 N8 1.332259 1_555
C4 N12 1.333258 1_555
C4 S4 1.732694 1_555
C5 N9 1.332259 1_554
C5 N13 1.333258 1_555
C5 S5 1.732694 1_555
C6 N10 1.332259 1_555
C6 N14 1.333258 1_555
C6 S6 1.732694 1_555
C7 N11 1.332259 1_556
C7 N15 1.333258 1_555
C7 S7 1.732694 1_555
O0 Re0 1.772487 1_555
O1 Re1 1.772487 1_555
O2 Re2 1.772487 1_555
O3 Re3 1.772487 1_555
O4 Re0 1.754038 1_555
O5 Re1 1.754038 1_455
O6 Re2 1.754038 1_555
O7 Re3 1.754038 1_655
O8 Re0 1.745118 1_555
O9 Re1 1.745118 1_455
O10 Re2 1.745118 1_555
O11 Re3 1.745118 1_655
O12 Re0 1.754579 1_555
O13 Re1 1.754579 1_555
O14 Re2 1.754579 1_555
O15 Re3 1.754579 1_555
