# generated using pymatgen
data_TiO2
_symmetry_space_group_name_H-M   'P 1'
_cell_length_a   18.75729937
_cell_length_b   4.68152415
_cell_length_c   2.96561103
_cell_angle_alpha   90.00000000
_cell_angle_beta   90.00000000
_cell_angle_gamma   90.00000000
_symmetry_Int_Tables_number   1
_chemical_formula_structural   TiO2
_chemical_formula_sum   'Ti8 O16'
_cell_volume   260.41845994
_cell_formula_units_Z   8
loop_
 _symmetry_equiv_pos_site_id
 _symmetry_equiv_pos_as_xyz
  1  'x, y, z'
loop_
 _atom_site_type_symbol
 _atom_site_label
 _atom_site_symmetry_multiplicity
 _atom_site_fract_x
 _atom_site_fract_y
 _atom_site_fract_z
 _atom_site_occupancy
  Ti  Ti0  1  0.06954483  0.45225143  0.25000000  1
  Ti  Ti1  1  0.18883400  0.95371187  0.75000000  1
  Ti  Ti2  1  0.31116600  0.45371187  0.25000000  1
  Ti  Ti3  1  0.43045517  0.95225143  0.75000000  1
  Ti  Ti4  1  0.56954483  0.04774857  0.25000000  1
  Ti  Ti5  1  0.68883400  0.54628813  0.75000000  1
  Ti  Ti6  1  0.81116600  0.04628813  0.25000000  1
  Ti  Ti7  1  0.93045517  0.54774857  0.75000000  1
  O  O0  1  0.01761517  0.29073283  0.75000000  1
  O  O1  1  0.14076952  0.15805693  0.25000000  1
  O  O2  1  0.11550882  0.66730497  0.75000000  1
  O  O3  1  0.26231389  0.27548342  0.75000000  1
  O  O4  1  0.23768611  0.77548342  0.25000000  1
  O  O5  1  0.38449118  0.16730497  0.25000000  1
  O  O6  1  0.35923048  0.65805693  0.75000000  1
  O  O7  1  0.48238483  0.79073283  0.25000000  1
  O  O8  1  0.51761517  0.20926717  0.75000000  1
  O  O9  1  0.64076952  0.34194307  0.25000000  1
  O  O10  1  0.61550882  0.83269503  0.75000000  1
  O  O11  1  0.76231389  0.22451658  0.75000000  1
  O  O12  1  0.73768611  0.72451658  0.25000000  1
  O  O13  1  0.88449118  0.33269503  0.25000000  1
  O  O14  1  0.85923048  0.84194307  0.75000000  1
  O  O15  1  0.98238483  0.70926717  0.25000000  1
loop_
_geom_bond_atom_site_label_1
_geom_bond_atom_site_label_2
_geom_bond_distance
_geom_bond_site_symmetry_2
O0 Ti0 1.928542 1_555
O0 Ti0 1.928542 1_556
O0 Ti7 2.029927 1_455
O1 Ti0 1.918788 1_555
O1 Ti1 1.981589 1_545
O1 Ti1 1.981589 1_544
O2 Ti1 1.920801 1_555
O2 Ti0 1.988878 1_556
O2 Ti0 1.988878 1_555
O3 Ti2 1.932504 1_555
O3 Ti2 1.932504 1_556
O3 Ti1 2.041777 1_545
O4 Ti1 1.932504 1_554
O4 Ti1 1.932504 1_555
O4 Ti2 2.041777 1_555
O5 Ti2 1.920801 1_555
O5 Ti3 1.988878 1_545
O5 Ti3 1.988878 1_544
O6 Ti3 1.918788 1_555
O6 Ti2 1.981589 1_555
O6 Ti2 1.981589 1_556
O7 Ti3 1.928542 1_555
O7 Ti3 1.928542 1_554
O7 Ti4 2.029927 1_565
O8 Ti4 1.928542 1_556
O8 Ti4 1.928542 1_555
O8 Ti3 2.029927 1_545
O9 Ti4 1.918788 1_555
O9 Ti5 1.981589 1_555
O9 Ti5 1.981589 1_554
O10 Ti5 1.920801 1_555
O10 Ti4 1.988878 1_565
O10 Ti4 1.988878 1_566
O11 Ti6 1.932504 1_556
O11 Ti6 1.932504 1_555
O11 Ti5 2.041777 1_555
O12 Ti5 1.932504 1_555
O12 Ti5 1.932504 1_554
O12 Ti6 2.041777 1_565
O13 Ti6 1.920801 1_555
O13 Ti7 1.988878 1_554
O13 Ti7 1.988878 1_555
O14 Ti7 1.918788 1_555
O14 Ti6 1.981589 1_566
O14 Ti6 1.981589 1_565
O15 Ti7 1.928542 1_554
O15 Ti7 1.928542 1_555
O15 Ti0 2.029927 1_655
