# generated using pymatgen
data_Li4MnV3(P2O7)4
_symmetry_space_group_name_H-M   'P 1'
_cell_length_a   8.27904900
_cell_length_b   4.87265700
_cell_length_c   26.71461865
_cell_angle_alpha   88.70705684
_cell_angle_beta   90.00000000
_cell_angle_gamma   90.00000000
_symmetry_Int_Tables_number   1
_chemical_formula_structural   Li4MnV3(P2O7)4
_chemical_formula_sum   'Li8 Mn2 V6 P16 O56'
_cell_volume   1077.41913922
_cell_formula_units_Z   2
loop_
 _symmetry_equiv_pos_site_id
 _symmetry_equiv_pos_as_xyz
  1  'x, y, z'
loop_
 _atom_site_type_symbol
 _atom_site_label
 _atom_site_symmetry_multiplicity
 _atom_site_fract_x
 _atom_site_fract_y
 _atom_site_fract_z
 _atom_site_occupancy
  Li  Li0  1  0.36261600  0.16198100  0.08092100  1
  Li  Li1  1  0.36269300  0.16190300  0.58054200  1
  Li  Li2  1  0.86276800  0.33803000  0.16934500  1
  Li  Li3  1  0.86249400  0.33678200  0.66871600  1
  Li  Li4  1  0.36276800  0.66197000  0.83065500  1
  Li  Li5  1  0.36249400  0.66321800  0.33128400  1
  Li  Li6  1  0.86261600  0.83801900  0.91907900  1
  Li  Li7  1  0.86269300  0.83809700  0.41945800  1
  Mn  Mn0  1  0.99921200  0.14932100  0.56744600  1
  Mn  Mn1  1  0.49921200  0.85067900  0.43255400  1
  V  V0  1  0.99974100  0.14869100  0.06782900  1
  V  V1  1  0.49976000  0.35123400  0.18222100  1
  V  V2  1  0.49938800  0.35165400  0.68209100  1
  V  V3  1  0.99976000  0.64876600  0.81777900  1
  V  V4  1  0.99938800  0.64834600  0.31790900  1
  V  V5  1  0.49974100  0.85130900  0.93217100  1
  P  P0  1  0.18029200  0.13939300  0.88053100  1
  P  P1  1  0.78336700  0.16976700  0.77142200  1
  P  P2  1  0.18003600  0.13888600  0.37977000  1
  P  P3  1  0.78414600  0.16937600  0.27154200  1
  P  P4  1  0.28385600  0.33042000  0.97853000  1
  P  P5  1  0.68037300  0.36075300  0.86948800  1
  P  P6  1  0.28574900  0.33220300  0.47790800  1
  P  P7  1  0.67869500  0.35951600  0.36967500  1
  P  P8  1  0.18037300  0.63924700  0.13051200  1
  P  P9  1  0.78385600  0.66958000  0.02147000  1
  P  P10  1  0.17869500  0.64048400  0.63032500  1
  P  P11  1  0.78575000  0.66779700  0.52209200  1
  P  P12  1  0.28336700  0.83023300  0.22857800  1
  P  P13  1  0.68029200  0.86060700  0.11946900  1
  P  P14  1  0.28414600  0.83062400  0.72845800  1
  P  P15  1  0.68003600  0.86111400  0.62023000  1
  O  O0  1  0.84384900  0.00503300  0.12345100  1
  O  O1  1  0.53829500  0.05428000  0.12943500  1
  O  O2  1  0.67777000  0.09437400  0.90141200  1
  O  O3  1  0.84235500  0.00232700  0.62564700  1
  O  O4  1  0.53618100  0.05305500  0.62941500  1
  O  O5  1  0.43364500  0.14375000  0.97933800  1
  O  O6  1  0.67716800  0.09320100  0.40191600  1
  O  O7  1  0.32374900  0.12456300  0.21269600  1
  O  O8  1  0.15280100  0.21886500  0.93828900  1
  O  O9  1  0.43545400  0.14357600  0.47881100  1
  O  O10  1  0.69633700  0.18822000  0.22130100  1
  O  O11  1  0.32440600  0.12451300  0.71296400  1
  O  O12  1  0.65261200  0.28120200  0.81191200  1
  O  O13  1  0.15451300  0.21984900  0.43791500  1
  O  O14  1  0.69535900  0.18866800  0.72157000  1
  O  O15  1  0.19622000  0.31196600  0.02862800  1
  O  O16  1  0.93355000  0.35566200  0.77074500  1
  O  O17  1  0.65234400  0.28066800  0.31169600  1
  O  O18  1  0.82410200  0.37538600  0.03713500  1
  O  O19  1  0.20092200  0.31814600  0.52833200  1
  O  O20  1  0.17810600  0.40557500  0.84873900  1
  O  O21  1  0.93332600  0.35668200  0.27065000  1
  O  O22  1  0.82600600  0.36974000  0.53722200  1
  O  O23  1  0.17542200  0.40824000  0.34860600  1
  O  O24  1  0.03811500  0.44571100  0.12045700  1
  O  O25  1  0.84381300  0.50494700  0.87356700  1
  O  O26  1  0.34381300  0.49505300  0.12643300  1
  O  O27  1  0.03678000  0.44600300  0.62039700  1
  O  O28  1  0.53811500  0.55428900  0.87954300  1
  O  O29  1  0.84277100  0.50336700  0.37349800  1
  O  O30  1  0.34277100  0.49663300  0.62650200  1
  O  O31  1  0.53678000  0.55399700  0.37960300  1
  O  O32  1  0.67810600  0.59442500  0.15126100  1
  O  O33  1  0.32410200  0.62461400  0.96286500  1
  O  O34  1  0.43355000  0.64433800  0.22925500  1
  O  O35  1  0.67542200  0.59176000  0.65139400  1
  O  O36  1  0.69622000  0.68803400  0.97137200  1
  O  O37  1  0.32600600  0.63026000  0.46277800  1
  O  O38  1  0.15261200  0.71879800  0.18808800  1
  O  O39  1  0.43332600  0.64331800  0.72935000  1
  O  O40  1  0.70092200  0.68185400  0.47166800  1
  O  O41  1  0.19633700  0.81178000  0.77869900  1
  O  O42  1  0.65280100  0.78113500  0.06171100  1
  O  O43  1  0.15234400  0.71933200  0.68830400  1
  O  O44  1  0.82374900  0.87543700  0.78730400  1
  O  O45  1  0.19535900  0.81133200  0.27843000  1
  O  O46  1  0.93364500  0.85625000  0.02066200  1
  O  O47  1  0.65451300  0.78015100  0.56208500  1
  O  O48  1  0.82440600  0.87548700  0.28703600  1
  O  O49  1  0.17777000  0.90562600  0.09858800  1
  O  O50  1  0.93545400  0.85642400  0.52118900  1
  O  O51  1  0.03829500  0.94572000  0.87056500  1
  O  O52  1  0.34384900  0.99496700  0.87654900  1
  O  O53  1  0.17716800  0.90679900  0.59808400  1
  O  O54  1  0.03618100  0.94694500  0.37058500  1
  O  O55  1  0.34235500  0.99767300  0.37435300  1
loop_
_geom_bond_atom_site_label_1
_geom_bond_atom_site_label_2
_geom_bond_distance
_geom_bond_site_symmetry_2
Li0 O1 2.009938 1_555
Li0 O49 2.024461 1_545
Li0 O26 2.055600 1_555
Li0 O15 2.082640 1_555
Li1 O4 2.004422 1_555
Li1 O53 2.024269 1_545
Li1 O19 2.066596 1_555
Li1 O30 2.070101 1_555
Li2 O24 2.014331 1_655
Li2 O32 2.025901 1_555
Li2 O0 2.061614 1_555
Li2 O10 2.076589 1_555
Li3 O27 2.000120 1_655
Li3 O3 2.022895 1_555
Li3 O35 2.032367 1_555
Li3 O14 2.093615 1_555
Li4 O28 2.014331 1_555
Li4 O20 2.025901 1_555
Li4 O52 2.061614 1_555
Li4 O41 2.076589 1_555
Li5 O31 2.000120 1_555
Li5 O55 2.022895 1_555
Li5 O23 2.032367 1_555
Li5 O45 2.093615 1_555
Li6 O51 2.009938 1_655
Li6 O2 2.024461 1_565
Li6 O25 2.055600 1_555
Li6 O36 2.082640 1_555
Li7 O54 2.004422 1_655
Li7 O6 2.024269 1_565
Li7 O40 2.066596 1_555
Li7 O29 2.070101 1_555
Mn0 O22 1.955155 1_555
Mn0 O50 1.980437 1_545
Mn0 O53 2.047773 1_645
Mn0 O27 2.068783 1_655
Mn0 O19 2.125691 1_655
Mn0 O3 2.136972 1_555
Mn1 O37 1.955155 1_555
Mn1 O9 1.980437 1_565
Mn1 O6 2.047773 1_565
Mn1 O31 2.068783 1_555
Mn1 O40 2.125691 1_555
Mn1 O55 2.136972 1_555
O0 P13 1.530856 1_545
O0 V0 2.077681 1_555
O1 P13 1.534546 1_545
O1 V1 2.067870 1_555
O2 P5 1.537067 1_555
O2 V5 2.050962 1_545
O3 P15 1.518163 1_545
O4 P15 1.537440 1_545
O4 V2 2.069394 1_555
O5 P4 1.537787 1_555
O5 V5 1.999679 1_545
O6 P7 1.541264 1_555
O7 P12 1.523538 1_545
O7 V1 1.991373 1_555
O8 P0 1.615400 1_555
O8 P4 1.629344 1_555
O9 P6 1.542888 1_555
O10 P3 1.527344 1_555
O10 V1 2.081374 1_555
O11 P14 1.518670 1_545
O11 V2 1.990649 1_555
O12 P5 1.611148 1_555
O12 P1 1.631938 1_555
O13 P2 1.625037 1_555
O13 P6 1.627294 1_555
O14 P1 1.519035 1_555
O14 V2 2.082688 1_555
O15 P4 1.523235 1_554
O15 V0 2.082807 1_455
O16 P1 1.538194 1_555
O16 V3 1.999995 1_555
O17 P7 1.618984 1_555
O17 P3 1.631477 1_555
O18 P9 1.521190 1_555
O18 V0 1.991513 1_555
O19 P6 1.519309 1_555
O20 P0 1.534337 1_555
O20 V3 2.055283 1_455
O21 P3 1.535566 1_555
O21 V4 1.998443 1_555
O22 P11 1.535323 1_555
O23 P2 1.538778 1_555
O23 V4 2.030268 1_455
O24 P8 1.536236 1_555
O24 V0 2.064952 1_455
O25 P5 1.529687 1_555
O25 V3 2.081355 1_555
O26 P8 1.529687 1_555
O26 V1 2.081355 1_555
O27 P10 1.536276 1_555
O28 P5 1.536236 1_555
O28 V5 2.064952 1_555
O29 P7 1.533038 1_555
O29 V4 2.082863 1_555
O30 P10 1.533038 1_555
O30 V2 2.082863 1_555
O31 P7 1.536276 1_555
O32 P13 1.534337 1_555
O32 V1 2.055283 1_555
O33 P4 1.521190 1_555
O33 V5 1.991513 1_555
O34 P12 1.538194 1_555
O34 V1 1.999995 1_555
O35 P15 1.538778 1_555
O35 V2 2.030268 1_555
O36 P9 1.523235 1_556
O36 V5 2.082807 1_555
O37 P6 1.535325 1_555
O38 P8 1.611148 1_555
O38 P12 1.631938 1_555
O39 P14 1.535566 1_555
O39 V2 1.998443 1_555
O40 P11 1.519313 1_555
O41 P14 1.527344 1_555
O41 V3 2.081374 1_455
O42 P13 1.615400 1_555
O42 P9 1.629344 1_555
O43 P10 1.618984 1_555
O43 P14 1.631477 1_555
O44 P1 1.523538 1_565
O44 V3 1.991373 1_555
O45 P12 1.519035 1_555
O45 V4 2.082688 1_455
O46 P9 1.537787 1_555
O46 V0 1.999679 1_565
O47 P15 1.625037 1_555
O47 P11 1.627300 1_555
O48 P3 1.518670 1_565
O48 V4 1.990649 1_555
O49 P8 1.537067 1_555
O49 V0 2.050962 1_465
O50 P11 1.542881 1_555
O51 P0 1.534546 1_565
O51 V3 2.067870 1_455
O52 P0 1.530856 1_565
O52 V5 2.077681 1_555
O53 P10 1.541264 1_555
O54 P2 1.537440 1_565
O54 V4 2.069394 1_455
O55 P2 1.518163 1_565
