# generated using pymatgen
data_Li2(NiO2)3
_symmetry_space_group_name_H-M   'P 1'
_cell_length_a   5.75331319
_cell_length_b   5.85285151
_cell_length_c   6.56716798
_cell_angle_alpha   104.86016806
_cell_angle_beta   76.70126353
_cell_angle_gamma   87.48056686
_symmetry_Int_Tables_number   1
_chemical_formula_structural   Li2(NiO2)3
_chemical_formula_sum   'Li4 Ni6 O12'
_cell_volume   206.76072787
_cell_formula_units_Z   2
loop_
 _symmetry_equiv_pos_site_id
 _symmetry_equiv_pos_as_xyz
  1  'x, y, z'
loop_
 _atom_site_type_symbol
 _atom_site_label
 _atom_site_symmetry_multiplicity
 _atom_site_fract_x
 _atom_site_fract_y
 _atom_site_fract_z
 _atom_site_occupancy
  Li  Li0  1  0.17582400  0.80752500  0.31001900  1
  Li  Li1  1  0.67582200  0.80752500  0.31002000  1
  Li  Li2  1  0.82417900  0.19245100  0.68994300  1
  Li  Li3  1  0.32418100  0.19245100  0.68994200  1
  Ni  Ni0  1  0.50000000  0.99999500  0.00000300  1
  Ni  Ni1  1  0.16392700  0.33208900  0.33097600  1
  Ni  Ni2  1  0.83607500  0.66791800  0.66903300  1
  Ni  Ni3  1  0.00000000  0.99999500  0.00000300  1
  Ni  Ni4  1  0.66392500  0.33208900  0.33097700  1
  Ni  Ni5  1  0.33607500  0.66791800  0.66903200  1
  O  O0  1  0.23689200  0.21519000  0.01730100  1
  O  O1  1  0.73689800  0.21518700  0.01730300  1
  O  O2  1  0.76310600  0.78481400  0.98270500  1
  O  O3  1  0.26310000  0.78481700  0.98270300  1
  O  O4  1  0.90455300  0.08434800  0.30610100  1
  O  O5  1  0.40454600  0.08434700  0.30611000  1
  O  O6  1  0.09544200  0.91565800  0.69391100  1
  O  O7  1  0.59545000  0.91566000  0.69390200  1
  O  O8  1  0.07770900  0.42363600  0.64019900  1
  O  O9  1  0.57772000  0.42364200  0.64018800  1
  O  O10  1  0.92229300  0.57637500  0.35980900  1
  O  O11  1  0.42228200  0.57636800  0.35982000  1
loop_
_geom_bond_atom_site_label_1
_geom_bond_atom_site_label_2
_geom_bond_distance
_geom_bond_site_symmetry_2
Li0 O11 2.054168 1_555
Li0 O3 2.059455 1_554
Li0 O10 2.060541 1_455
Li0 O5 2.133202 1_565
Li0 O4 2.208863 1_465
Li0 O6 2.364268 1_555
Li1 O10 2.054154 1_555
Li1 O2 2.059445 1_554
Li1 O11 2.060617 1_555
Li1 O4 2.133245 1_565
Li1 O5 2.208859 1_565
Li1 O7 2.364209 1_555
Li2 O9 2.054158 1_555
Li2 O1 2.059700 1_556
Li2 O8 2.060636 1_655
Li2 O7 2.133106 1_545
Li2 O6 2.208827 1_645
Li2 O4 2.363961 1_555
Li3 O8 2.054148 1_555
Li3 O0 2.059690 1_556
Li3 O9 2.060709 1_555
Li3 O6 2.133157 1_545
Li3 O7 2.208823 1_545
Li3 O5 2.363902 1_555
Ni0 O7 1.882961 1_554
Ni0 O5 1.882996 1_565
Ni0 O2 1.889532 1_554
Ni0 O0 1.889591 1_565
Ni0 O3 1.898796 1_554
Ni0 O1 1.898843 1_565
Ni1 O10 1.891567 1_455
Ni1 O8 1.900547 1_555
Ni1 O5 1.908840 1_555
Ni1 O0 1.934364 1_555
Ni1 O11 2.113490 1_555
Ni1 O4 2.129997 1_455
Ni2 O8 1.891549 1_655
Ni2 O10 1.900553 1_555
Ni2 O7 1.908858 1_555
Ni2 O2 1.934343 1_555
Ni2 O9 2.113478 1_555
Ni2 O6 2.129964 1_655
Ni3 O6 1.882904 1_554
Ni3 O4 1.882940 1_465
Ni3 O3 1.889491 1_554
Ni3 O1 1.889550 1_465
Ni3 O2 1.898781 1_454
Ni3 O0 1.898828 1_565
Ni4 O11 1.891557 1_555
Ni4 O9 1.900473 1_555
Ni4 O4 1.908853 1_555
Ni4 O1 1.934357 1_555
Ni4 O10 2.113568 1_555
Ni4 O5 2.130019 1_555
Ni5 O9 1.891550 1_555
Ni5 O11 1.900479 1_555
Ni5 O6 1.908863 1_555
Ni5 O3 1.934337 1_555
Ni5 O8 2.113544 1_555
Ni5 O7 2.130003 1_555
