# generated using pymatgen
data_LiV(CO3)2
_symmetry_space_group_name_H-M   'P 1'
_cell_length_a   4.62562100
_cell_length_b   12.36724167
_cell_length_c   7.22449454
_cell_angle_alpha   101.39673173
_cell_angle_beta   90.00048472
_cell_angle_gamma   90.00010543
_symmetry_Int_Tables_number   1
_chemical_formula_structural   LiV(CO3)2
_chemical_formula_sum   'Li4 V4 C8 O24'
_cell_volume   405.13670088
_cell_formula_units_Z   4
loop_
 _symmetry_equiv_pos_site_id
 _symmetry_equiv_pos_as_xyz
  1  'x, y, z'
loop_
 _atom_site_type_symbol
 _atom_site_label
 _atom_site_symmetry_multiplicity
 _atom_site_fract_x
 _atom_site_fract_y
 _atom_site_fract_z
 _atom_site_occupancy
  Li  Li0  1  0.70622600  0.41452200  0.44079800  1
  Li  Li1  1  0.70623300  0.91454600  0.44091700  1
  Li  Li2  1  0.20623700  0.08545100  0.55907300  1
  Li  Li3  1  0.20622700  0.58547400  0.55921400  1
  V  V0  1  0.23771900  0.63448900  0.09078300  1
  V  V1  1  0.73771000  0.36551100  0.90922800  1
  V  V2  1  0.23818100  0.13466600  0.09089300  1
  V  V3  1  0.73811600  0.86538700  0.90908300  1
  C  C0  1  0.21726300  0.38487800  0.11903400  1
  C  C1  1  0.21739800  0.88484500  0.11902700  1
  C  C2  1  0.71739800  0.11515400  0.88096600  1
  C  C3  1  0.71726300  0.61511900  0.88097600  1
  C  C4  1  0.73597400  0.13112000  0.36305500  1
  C  C5  1  0.73590300  0.63107800  0.36316800  1
  C  C6  1  0.23590000  0.36892000  0.63684200  1
  C  C7  1  0.23598000  0.86887600  0.63693500  1
  O  O0  1  0.07083000  0.46659600  0.07355200  1
  O  O1  1  0.07098900  0.96654500  0.07341800  1
  O  O2  1  0.57099700  0.03345200  0.92656700  1
  O  O3  1  0.57082900  0.53340200  0.92646600  1
  O  O4  1  0.48601900  0.39289800  0.15856400  1
  O  O5  1  0.48599800  0.89282500  0.15856300  1
  O  O6  1  0.98599600  0.10717500  0.84143000  1
  O  O7  1  0.98602300  0.60709800  0.84144700  1
  O  O8  1  0.06517900  0.29552700  0.10763400  1
  O  O9  1  0.06508300  0.79549000  0.10766600  1
  O  O10  1  0.56508900  0.20451000  0.89233200  1
  O  O11  1  0.56518600  0.70446800  0.89236600  1
  O  O12  1  0.57645300  0.18137300  0.25981000  1
  O  O13  1  0.57634100  0.68122600  0.25978600  1
  O  O14  1  0.07633400  0.31877300  0.74022500  1
  O  O15  1  0.07645200  0.81861800  0.74017600  1
  O  O16  1  0.01914100  0.13783400  0.34413100  1
  O  O17  1  0.01902800  0.63784200  0.34429100  1
  O  O18  1  0.51902400  0.36215800  0.65572300  1
  O  O19  1  0.51913400  0.86216100  0.65585500  1
  O  O20  1  0.63207000  0.07811500  0.48234000  1
  O  O21  1  0.63201000  0.57811700  0.48252000  1
  O  O22  1  0.13201000  0.42188000  0.51748500  1
  O  O23  1  0.13205800  0.92188400  0.51765700  1
loop_
_geom_bond_atom_site_label_1
_geom_bond_atom_site_label_2
_geom_bond_distance
_geom_bond_site_symmetry_2
Li0 O18 1.994386 1_555
Li0 O21 2.015221 1_555
Li0 O22 2.043103 1_655
Li0 O4 2.247450 1_555
Li1 O19 1.994383 1_555
Li1 O20 2.014972 1_565
Li1 O23 2.043389 1_655
Li1 O5 2.248202 1_555
Li2 O16 1.994379 1_555
Li2 O23 2.014961 1_545
Li2 O20 2.043421 1_555
Li2 O6 2.248248 1_455
Li3 O17 1.994382 1_555
Li3 O22 2.015205 1_555
Li3 O21 2.043122 1_555
Li3 O7 2.247453 1_455
C0 O4 1.275010 1_555
C0 O8 1.298762 1_555
C0 O0 1.311245 1_555
C1 O5 1.274299 1_555
C1 O9 1.299412 1_555
C1 O1 1.311375 1_555
C2 O6 1.274295 1_555
C2 O10 1.299406 1_555
C2 O2 1.311354 1_555
C3 O7 1.275032 1_555
C3 O11 1.298734 1_555
C3 O3 1.311262 1_555
C4 O20 1.275392 1_555
C4 O12 1.292391 1_555
C4 O16 1.321254 1_655
C5 O21 1.275397 1_555
C5 O13 1.292393 1_555
C5 O17 1.321074 1_655
C6 O22 1.275408 1_555
C6 O14 1.292407 1_555
C6 O18 1.321068 1_555
C7 O23 1.275404 1_555
C7 O15 1.292433 1_555
C7 O19 1.321190 1_555
O0 V1 2.181735 1_454
O0 V0 2.195585 1_555
O1 V3 2.181383 1_454
O1 V2 2.198484 1_565
O2 V2 2.181509 1_556
O2 V3 2.197713 1_545
O3 V0 2.181709 1_556
O3 V1 2.195546 1_555
O4 V1 2.115145 1_554
O5 V3 2.117081 1_554
O6 V2 2.117128 1_656
O7 V0 2.115140 1_656
O8 V2 2.125482 1_555
O8 V1 2.363982 1_454
O9 V0 2.126315 1_555
O9 V3 2.362841 1_454
O10 V1 2.126274 1_555
O10 V2 2.362253 1_556
O11 V3 2.126038 1_555
O11 V0 2.364014 1_556
O12 V2 1.998153 1_555
O13 V0 1.999828 1_555
O14 V1 1.999855 1_455
O15 V3 1.998492 1_455
O16 V2 2.084931 1_555
O17 V0 2.085499 1_555
O18 V1 2.085454 1_555
O19 V3 2.084611 1_555
