# generated using pymatgen
data_KSb5O13
_symmetry_space_group_name_H-M   'P 1'
_cell_length_a   5.64315466
_cell_length_b   5.64315466
_cell_length_c   17.06160600
_cell_angle_alpha   90.00000000
_cell_angle_beta   90.00000000
_cell_angle_gamma   107.27815232
_symmetry_Int_Tables_number   1
_chemical_formula_structural   KSb5O13
_chemical_formula_sum   'K2 Sb10 O26'
_cell_volume   518.81191122
_cell_formula_units_Z   2
loop_
 _symmetry_equiv_pos_site_id
 _symmetry_equiv_pos_as_xyz
  1  'x, y, z'
loop_
 _atom_site_type_symbol
 _atom_site_label
 _atom_site_symmetry_multiplicity
 _atom_site_fract_x
 _atom_site_fract_y
 _atom_site_fract_z
 _atom_site_occupancy
  K  K0  1  0.90289500  0.15444600  0.75000000  1
  K  K1  1  0.15444600  0.90289500  0.25000000  1
  Sb  Sb0  1  0.00011500  0.00011500  0.00000000  1
  Sb  Sb1  1  0.00011500  0.00011500  0.50000000  1
  Sb  Sb2  1  0.23367800  0.77028800  0.63814800  1
  Sb  Sb3  1  0.77028800  0.23367800  0.36185200  1
  Sb  Sb4  1  0.23367800  0.77028800  0.86185200  1
  Sb  Sb5  1  0.77028800  0.23367800  0.13814800  1
  Sb  Sb6  1  0.61421700  0.38641900  0.92235000  1
  Sb  Sb7  1  0.61421700  0.38641900  0.57765000  1
  Sb  Sb8  1  0.38641900  0.61421700  0.42235000  1
  Sb  Sb9  1  0.38641900  0.61421700  0.07765000  1
  O  O0  1  0.52813600  0.07107900  0.86601500  1
  O  O1  1  0.52813600  0.07107900  0.63398500  1
  O  O2  1  0.07107900  0.52813600  0.36601500  1
  O  O3  1  0.07107900  0.52813600  0.13398500  1
  O  O4  1  0.31098400  0.31098400  0.00000000  1
  O  O5  1  0.31098400  0.31098400  0.50000000  1
  O  O6  1  0.44454200  0.55190400  0.65121100  1
  O  O7  1  0.01635200  0.98571700  0.88698400  1
  O  O8  1  0.98571700  0.01635200  0.38698400  1
  O  O9  1  0.18041700  0.81567300  0.75000000  1
  O  O10  1  0.77536000  0.22589700  0.49010100  1
  O  O11  1  0.55190400  0.44454200  0.34878900  1
  O  O12  1  0.22589700  0.77536000  0.99010100  1
  O  O13  1  0.98571700  0.01635200  0.11301600  1
  O  O14  1  0.44454200  0.55190400  0.84878900  1
  O  O15  1  0.55190400  0.44454200  0.15121100  1
  O  O16  1  0.81567300  0.18041700  0.25000000  1
  O  O17  1  0.77536000  0.22589700  0.00989900  1
  O  O18  1  0.01635200  0.98571700  0.61301600  1
  O  O19  1  0.22589700  0.77536000  0.50989900  1
  O  O20  1  0.68932500  0.68932500  0.00000000  1
  O  O21  1  0.68932500  0.68932500  0.50000000  1
  O  O22  1  0.93145800  0.47747500  0.86764500  1
  O  O23  1  0.93145800  0.47747500  0.63235500  1
  O  O24  1  0.47747500  0.93145800  0.36764500  1
  O  O25  1  0.47747500  0.93145800  0.13235500  1
loop_
_geom_bond_atom_site_label_1
_geom_bond_atom_site_label_2
_geom_bond_distance
_geom_bond_site_symmetry_2
K0 O7 2.672270 1_645
K0 O18 2.672270 1_645
K0 O23 2.683900 1_555
K0 O22 2.683900 1_555
K0 O9 2.808192 1_645
K0 O0 2.832107 1_555
K0 O1 2.832107 1_555
K1 O8 2.672270 1_465
K1 O13 2.672270 1_465
K1 O24 2.683900 1_555
K1 O25 2.683900 1_555
K1 O16 2.808192 1_465
K1 O2 2.832107 1_555
K1 O3 2.832107 1_555
O0 Sb6 1.952686 1_555
O0 Sb4 1.992972 1_545
O1 Sb7 1.952686 1_555
O1 Sb2 1.992972 1_545
O2 Sb8 1.952686 1_555
O2 Sb3 1.992972 1_455
O3 Sb9 1.952686 1_555
O3 Sb5 1.992972 1_455
O4 Sb0 2.080121 1_555
O4 Sb6 2.105199 1_554
O4 Sb9 2.105199 1_555
O5 Sb1 2.080121 1_555
O5 Sb8 2.105199 1_555
O5 Sb7 2.105199 1_555
O6 Sb2 1.963537 1_555
O6 Sb7 1.973640 1_555
O7 Sb0 1.933264 1_566
O7 Sb4 2.012835 1_555
O8 Sb1 1.933264 1_655
O8 Sb3 2.012835 1_555
O9 Sb4 1.960498 1_555
O9 Sb2 1.960498 1_555
O10 Sb1 2.054388 1_655
O10 Sb7 2.089983 1_555
O10 Sb3 2.188932 1_555
O11 Sb3 1.963537 1_555
O11 Sb8 1.973640 1_555
O12 Sb0 2.054388 1_566
O12 Sb9 2.089983 1_556
O12 Sb4 2.188932 1_555
O13 Sb0 1.933264 1_655
O13 Sb5 2.012835 1_555
O14 Sb4 1.963537 1_555
O14 Sb6 1.973640 1_555
O15 Sb5 1.963537 1_555
O15 Sb9 1.973640 1_555
O16 Sb5 1.960498 1_555
O16 Sb3 1.960498 1_555
O17 Sb0 2.054388 1_655
O17 Sb6 2.089983 1_554
O17 Sb5 2.188932 1_555
O18 Sb1 1.933264 1_565
O18 Sb2 2.012835 1_555
O19 Sb1 2.054388 1_565
O19 Sb8 2.089983 1_555
O19 Sb2 2.188932 1_555
O20 Sb0 2.079593 1_665
O20 Sb6 2.103883 1_554
O20 Sb9 2.103883 1_555
O21 Sb1 2.079593 1_665
O21 Sb8 2.103883 1_555
O21 Sb7 2.103883 1_555
O22 Sb6 1.947743 1_555
O22 Sb4 1.993686 1_655
O23 Sb7 1.947743 1_555
O23 Sb2 1.993686 1_655
O24 Sb8 1.947743 1_555
O24 Sb3 1.993686 1_565
O25 Sb9 1.947743 1_555
O25 Sb5 1.993686 1_565
