# generated using pymatgen
data_CdCoO3
_symmetry_space_group_name_H-M   'P 1'
_cell_length_a   5.31471800
_cell_length_b   5.38902400
_cell_length_c   7.58912100
_cell_angle_alpha   90.00000000
_cell_angle_beta   90.00000000
_cell_angle_gamma   90.00000000
_symmetry_Int_Tables_number   1
_chemical_formula_structural   CdCoO3
_chemical_formula_sum   'Cd4 Co4 O12'
_cell_volume   217.36109871
_cell_formula_units_Z   4
loop_
 _symmetry_equiv_pos_site_id
 _symmetry_equiv_pos_as_xyz
  1  'x, y, z'
loop_
 _atom_site_type_symbol
 _atom_site_label
 _atom_site_symmetry_multiplicity
 _atom_site_fract_x
 _atom_site_fract_y
 _atom_site_fract_z
 _atom_site_occupancy
  Cd  Cd0  1  0.53962600  0.99370600  0.75000000  1
  Cd  Cd1  1  0.03962600  0.50629400  0.75000000  1
  Cd  Cd2  1  0.96037400  0.49370600  0.25000000  1
  Cd  Cd3  1  0.46037400  0.00629400  0.25000000  1
  Co  Co0  1  0.00000000  0.00000000  0.00000000  1
  Co  Co1  1  0.00000000  0.00000000  0.50000000  1
  Co  Co2  1  0.50000000  0.50000000  0.00000000  1
  Co  Co3  1  0.50000000  0.50000000  0.50000000  1
  O  O0  1  0.03444600  0.90444700  0.25000000  1
  O  O1  1  0.27153400  0.81366000  0.55037800  1
  O  O2  1  0.27153400  0.81366000  0.94962200  1
  O  O3  1  0.77153400  0.68634000  0.94962200  1
  O  O4  1  0.77153400  0.68634000  0.55037800  1
  O  O5  1  0.53444600  0.59555300  0.25000000  1
  O  O6  1  0.46555400  0.40444700  0.75000000  1
  O  O7  1  0.22846600  0.31366000  0.44962200  1
  O  O8  1  0.22846600  0.31366000  0.05037800  1
  O  O9  1  0.72846600  0.18634000  0.05037800  1
  O  O10  1  0.72846600  0.18634000  0.44962200  1
  O  O11  1  0.96555400  0.09555300  0.75000000  1
loop_
_geom_bond_atom_site_label_1
_geom_bond_atom_site_label_2
_geom_bond_distance
_geom_bond_site_symmetry_2
Cd0 O6 2.248228 1_565
Cd0 O1 2.294922 1_555
Cd0 O2 2.294922 1_555
Cd0 O11 2.329275 1_565
Cd0 O3 2.560836 1_555
Cd0 O4 2.560836 1_555
Cd0 O10 2.698434 1_565
Cd0 O9 2.698434 1_566
Cd1 O11 2.248228 1_455
Cd1 O3 2.294922 1_455
Cd1 O4 2.294922 1_455
Cd1 O6 2.329275 1_555
Cd1 O2 2.560836 1_555
Cd1 O1 2.560836 1_555
Cd1 O7 2.698434 1_555
Cd1 O8 2.698434 1_556
Cd2 O0 2.248228 1_655
Cd2 O8 2.294922 1_655
Cd2 O7 2.294922 1_655
Cd2 O5 2.329275 1_555
Cd2 O10 2.560836 1_555
Cd2 O9 2.560836 1_555
Cd2 O3 2.698434 1_554
Cd2 O4 2.698434 1_555
Cd3 O5 2.248228 1_545
Cd3 O9 2.294922 1_555
Cd3 O10 2.294922 1_555
Cd3 O0 2.329275 1_545
Cd3 O7 2.560836 1_555
Cd3 O8 2.560836 1_555
Cd3 O2 2.698434 1_544
Cd3 O1 2.698434 1_545
Co0 O2 1.799218 1_544
Co0 O9 1.799218 1_455
Co0 O0 1.974423 1_545
Co0 O11 1.974423 1_454
Co0 O8 2.116062 1_555
Co0 O3 2.116062 1_444
Co1 O1 1.799218 1_545
Co1 O10 1.799218 1_455
Co1 O0 1.974423 1_545
Co1 O11 1.974423 1_455
Co1 O7 2.116062 1_555
Co1 O4 2.116062 1_445
Co2 O8 1.799218 1_555
Co2 O3 1.799218 1_554
Co2 O5 1.974423 1_555
Co2 O6 1.974423 1_554
Co2 O9 2.116062 1_555
Co2 O2 2.116062 1_554
Co3 O7 1.799218 1_555
Co3 O4 1.799218 1_555
Co3 O5 1.974423 1_555
Co3 O6 1.974423 1_555
Co3 O10 2.116062 1_555
Co3 O1 2.116062 1_555
