# generated using pymatgen
data_Y2V2O7
_symmetry_space_group_name_H-M   'P 1'
_cell_length_a   5.83473566
_cell_length_b   5.83473566
_cell_length_c   5.24306017
_cell_angle_alpha   83.86845588
_cell_angle_beta   83.86845588
_cell_angle_gamma   109.67985114
_symmetry_Int_Tables_number   1
_chemical_formula_structural   Y2V2O7
_chemical_formula_sum   'Y2 V2 O7'
_cell_volume   165.15302320
_cell_formula_units_Z   1
loop_
 _symmetry_equiv_pos_site_id
 _symmetry_equiv_pos_as_xyz
  1  'x, y, z'
loop_
 _atom_site_type_symbol
 _atom_site_label
 _atom_site_symmetry_multiplicity
 _atom_site_fract_x
 _atom_site_fract_y
 _atom_site_fract_z
 _atom_site_occupancy
  Y  Y0  1  0.68797200  0.31202800  0.50000000  1
  Y  Y1  1  0.31202800  0.68797200  0.50000000  1
  V  V0  1  0.75672600  0.75672600  0.90112300  1
  V  V1  1  0.24327400  0.24327400  0.09887700  1
  O  O0  1  0.93219800  0.60957400  0.70724400  1
  O  O1  1  0.60957400  0.93219800  0.70724400  1
  O  O2  1  0.58083600  0.58083600  0.22107400  1
  O  O3  1  0.41916400  0.41916400  0.77892600  1
  O  O4  1  0.00000000  0.00000000  0.00000000  1
  O  O5  1  0.39042600  0.06780200  0.29275600  1
  O  O6  1  0.06780200  0.39042600  0.29275600  1
loop_
_geom_bond_atom_site_label_1
_geom_bond_atom_site_label_2
_geom_bond_distance
_geom_bond_site_symmetry_2
O0 V0 1.837094 1_555
O0 Y1 2.235642 1_655
O0 Y0 2.300616 1_555
O1 V0 1.837094 1_555
O1 Y0 2.235642 1_565
O1 Y1 2.300616 1_555
O2 V0 1.864302 1_554
O2 Y0 2.314100 1_555
O2 Y1 2.314100 1_555
O2 V1 2.468876 1_555
O3 V1 1.864302 1_556
O3 Y0 2.314100 1_555
O3 Y1 2.314100 1_555
O3 V0 2.468876 1_555
O4 V1 1.804366 1_555
O4 V0 1.804366 1_444
O5 V1 1.837094 1_555
O5 Y1 2.235642 1_545
O5 Y0 2.300616 1_555
O6 V1 1.837094 1_555
O6 Y0 2.235642 1_455
O6 Y1 2.300616 1_555
