# generated using pymatgen
data_Na5CuO4
_symmetry_space_group_name_H-M   'P 1'
_cell_length_a   5.98734000
_cell_length_b   10.48581700
_cell_length_c   17.96321900
_cell_angle_alpha   90.00000000
_cell_angle_beta   90.00000000
_cell_angle_gamma   90.00000000
_symmetry_Int_Tables_number   1
_chemical_formula_structural   Na5CuO4
_chemical_formula_sum   'Na40 Cu8 O32'
_cell_volume   1127.76953771
_cell_formula_units_Z   8
loop_
 _symmetry_equiv_pos_site_id
 _symmetry_equiv_pos_as_xyz
  1  'x, y, z'
loop_
 _atom_site_type_symbol
 _atom_site_label
 _atom_site_symmetry_multiplicity
 _atom_site_fract_x
 _atom_site_fract_y
 _atom_site_fract_z
 _atom_site_occupancy
  Na  Na0  1  0.92437900  0.93585600  0.43414000  1
  Na  Na1  1  0.57562100  0.93585600  0.93414000  1
  Na  Na2  1  0.39726400  0.92090600  0.75151700  1
  Na  Na3  1  0.10273600  0.92090600  0.25151700  1
  Na  Na4  1  0.08547100  0.84241400  0.00163000  1
  Na  Na5  1  0.41452900  0.84241400  0.50163000  1
  Na  Na6  1  0.89829200  0.82912900  0.82876500  1
  Na  Na7  1  0.60170800  0.82912900  0.32876500  1
  Na  Na8  1  0.42152700  0.79600700  0.13841500  1
  Na  Na9  1  0.07847300  0.79600700  0.63841500  1
  Na  Na10  1  0.92152700  0.70399300  0.13841500  1
  Na  Na11  1  0.57847300  0.70399300  0.63841500  1
  Na  Na12  1  0.39829200  0.67087100  0.82876500  1
  Na  Na13  1  0.10170800  0.67087100  0.32876500  1
  Na  Na14  1  0.58547100  0.65758600  0.00163000  1
  Na  Na15  1  0.91452900  0.65758600  0.50163000  1
  Na  Na16  1  0.60273600  0.57909400  0.25151700  1
  Na  Na17  1  0.89726400  0.57909400  0.75151700  1
  Na  Na18  1  0.07562100  0.56414400  0.93414000  1
  Na  Na19  1  0.42437900  0.56414400  0.43414000  1
  Na  Na20  1  0.92437900  0.43585600  0.06586000  1
  Na  Na21  1  0.57562100  0.43585600  0.56586000  1
  Na  Na22  1  0.10273600  0.42090600  0.24848300  1
  Na  Na23  1  0.39726400  0.42090600  0.74848300  1
  Na  Na24  1  0.41452900  0.34241400  0.99837000  1
  Na  Na25  1  0.08547100  0.34241400  0.49837000  1
  Na  Na26  1  0.60170800  0.32912900  0.17123500  1
  Na  Na27  1  0.89829200  0.32912900  0.67123500  1
  Na  Na28  1  0.42152700  0.29600700  0.36158500  1
  Na  Na29  1  0.07847300  0.29600700  0.86158500  1
  Na  Na30  1  0.92152700  0.20399300  0.36158500  1
  Na  Na31  1  0.57847300  0.20399300  0.86158500  1
  Na  Na32  1  0.39829200  0.17087100  0.67123500  1
  Na  Na33  1  0.10170800  0.17087100  0.17123500  1
  Na  Na34  1  0.58547100  0.15758600  0.49837000  1
  Na  Na35  1  0.91452900  0.15758600  0.99837000  1
  Na  Na36  1  0.89726400  0.07909400  0.74848300  1
  Na  Na37  1  0.60273600  0.07909400  0.24848300  1
  Na  Na38  1  0.07562100  0.06414400  0.56586000  1
  Na  Na39  1  0.42437900  0.06414400  0.06586000  1
  Cu  Cu0  1  0.82262400  0.96135600  0.12256900  1
  Cu  Cu1  1  0.67737600  0.96135600  0.62256900  1
  Cu  Cu2  1  0.32262400  0.53864400  0.12256900  1
  Cu  Cu3  1  0.17737600  0.53864400  0.62256900  1
  Cu  Cu4  1  0.82262400  0.46135600  0.37743100  1
  Cu  Cu5  1  0.67737600  0.46135600  0.87743100  1
  Cu  Cu6  1  0.32262400  0.03864400  0.37743100  1
  Cu  Cu7  1  0.17737600  0.03864400  0.87743100  1
  O  O0  1  0.14186800  0.95784100  0.12123200  1
  O  O1  1  0.35813200  0.95784100  0.62123200  1
  O  O2  1  0.73159500  0.86880400  0.21114000  1
  O  O3  1  0.76840500  0.86880400  0.71114000  1
  O  O4  1  0.68885500  0.86145900  0.04603700  1
  O  O5  1  0.81114500  0.86145900  0.54603700  1
  O  O6  1  0.24284400  0.85949200  0.37475600  1
  O  O7  1  0.25715600  0.85949200  0.87475600  1
  O  O8  1  0.74284400  0.64050800  0.37475600  1
  O  O9  1  0.75715600  0.64050800  0.87475600  1
  O  O10  1  0.18885500  0.63854100  0.04603700  1
  O  O11  1  0.31114500  0.63854100  0.54603700  1
  O  O12  1  0.26840500  0.63119600  0.71114000  1
  O  O13  1  0.23159500  0.63119600  0.21114000  1
  O  O14  1  0.64186800  0.54215900  0.12123200  1
  O  O15  1  0.85813200  0.54215900  0.62123200  1
  O  O16  1  0.14186800  0.45784100  0.37876800  1
  O  O17  1  0.35813200  0.45784100  0.87876800  1
  O  O18  1  0.76840500  0.36880400  0.78886000  1
  O  O19  1  0.73159500  0.36880400  0.28886000  1
  O  O20  1  0.81114500  0.36145900  0.95396300  1
  O  O21  1  0.68885500  0.36145900  0.45396300  1
  O  O22  1  0.24284400  0.35949200  0.12524400  1
  O  O23  1  0.25715600  0.35949200  0.62524400  1
  O  O24  1  0.75715600  0.14050800  0.62524400  1
  O  O25  1  0.74284400  0.14050800  0.12524400  1
  O  O26  1  0.18885500  0.13854100  0.45396300  1
  O  O27  1  0.31114500  0.13854100  0.95396300  1
  O  O28  1  0.26840500  0.13119600  0.78886000  1
  O  O29  1  0.23159500  0.13119600  0.28886000  1
  O  O30  1  0.64186800  0.04215900  0.37876800  1
  O  O31  1  0.85813200  0.04215900  0.87876800  1
loop_
_geom_bond_atom_site_label_1
_geom_bond_atom_site_label_2
_geom_bond_distance
_geom_bond_site_symmetry_2
Na0 O30 2.256763 1_565
Na0 O5 2.260186 1_555
Na0 O6 2.326976 1_655
Na0 O26 2.674186 1_665
Na1 O31 2.256763 1_565
Na1 O4 2.260186 1_556
Na1 O7 2.326976 1_555
Na1 O27 2.674186 1_565
Na2 O1 2.383710 1_555
Na2 O3 2.400516 1_555
Na2 O28 2.430539 1_565
Na2 O7 2.453404 1_555
Na3 O0 2.383710 1_555
Na3 O2 2.400516 1_455
Na3 O29 2.430539 1_565
Na3 O6 2.453404 1_555
Na4 O10 2.364223 1_555
Na4 O0 2.488923 1_555
Na4 O7 2.506564 1_554
Na4 O4 2.513021 1_455
Na5 O11 2.364223 1_555
Na5 O1 2.488923 1_555
Na5 O6 2.506564 1_555
Na5 O5 2.513021 1_555
Na6 O3 2.289608 1_555
Na6 O9 2.304010 1_555
Na6 O7 2.323907 1_655
Na6 O31 2.419595 1_565
Na7 O2 2.289608 1_555
Na7 O8 2.304010 1_555
Na7 O6 2.323907 1_555
Na7 O30 2.419595 1_565
Na8 O2 2.394958 1_555
Na8 O0 2.403874 1_555
Na8 O4 2.405521 1_555
Na8 O13 2.446714 1_555
Na8 O10 2.724086 1_555
Na9 O3 2.394958 1_455
Na9 O1 2.403874 1_555
Na9 O5 2.405521 1_455
Na9 O12 2.446714 1_555
Na9 O11 2.724086 1_555
Na10 O13 2.394958 1_655
Na10 O14 2.403874 1_555
Na10 O10 2.405521 1_655
Na10 O2 2.446714 1_555
Na10 O4 2.724086 1_555
Na11 O12 2.394958 1_555
Na11 O15 2.403874 1_555
Na11 O11 2.405521 1_555
Na11 O3 2.446714 1_555
Na11 O5 2.724086 1_555
Na12 O12 2.289608 1_555
Na12 O7 2.304010 1_555
Na12 O9 2.323907 1_555
Na12 O17 2.419595 1_555
Na13 O13 2.289608 1_555
Na13 O6 2.304010 1_555
Na13 O8 2.323907 1_455
Na13 O16 2.419595 1_555
Na14 O4 2.364223 1_555
Na14 O14 2.488923 1_555
Na14 O9 2.506564 1_554
Na14 O10 2.513021 1_555
Na15 O5 2.364223 1_555
Na15 O15 2.488923 1_555
Na15 O8 2.506564 1_555
Na15 O11 2.513021 1_655
Na16 O14 2.383710 1_555
Na16 O13 2.400516 1_555
Na16 O19 2.430539 1_555
Na16 O8 2.453404 1_555
Na17 O15 2.383710 1_555
Na17 O12 2.400516 1_655
Na17 O18 2.430539 1_555
Na17 O9 2.453404 1_555
Na18 O17 2.256763 1_555
Na18 O10 2.260186 1_556
Na18 O9 2.326976 1_455
Na18 O20 2.674186 1_455
Na19 O16 2.256763 1_555
Na19 O11 2.260186 1_555
Na19 O8 2.326976 1_555
Na19 O21 2.674186 1_555
Na20 O14 2.256763 1_555
Na20 O20 2.260186 1_554
Na20 O22 2.326976 1_655
Na20 O10 2.674186 1_655
Na21 O15 2.256763 1_555
Na21 O21 2.260186 1_555
Na21 O23 2.326976 1_555
Na21 O11 2.674186 1_555
Na22 O16 2.383710 1_555
Na22 O19 2.400516 1_455
Na22 O13 2.430539 1_555
Na22 O22 2.453404 1_555
Na23 O17 2.383710 1_555
Na23 O18 2.400516 1_555
Na23 O12 2.430539 1_555
Na23 O23 2.453404 1_555
Na24 O27 2.364223 1_555
Na24 O17 2.488923 1_555
Na24 O22 2.506564 1_556
Na24 O20 2.513021 1_555
Na25 O26 2.364223 1_555
Na25 O16 2.488923 1_555
Na25 O23 2.506564 1_555
Na25 O21 2.513021 1_455
Na26 O19 2.289608 1_555
Na26 O25 2.304010 1_555
Na26 O22 2.323907 1_555
Na26 O14 2.419595 1_555
Na27 O18 2.289608 1_555
Na27 O24 2.304010 1_555
Na27 O23 2.323907 1_655
Na27 O15 2.419595 1_555
Na28 O19 2.394958 1_555
Na28 O16 2.403874 1_555
Na28 O21 2.405521 1_555
Na28 O29 2.446714 1_555
Na28 O26 2.724086 1_555
Na29 O18 2.394958 1_455
Na29 O17 2.403874 1_555
Na29 O20 2.405521 1_455
Na29 O28 2.446714 1_555
Na29 O27 2.724086 1_555
Na30 O29 2.394958 1_655
Na30 O30 2.403874 1_555
Na30 O26 2.405521 1_655
Na30 O19 2.446714 1_555
Na30 O21 2.724086 1_555
Na31 O28 2.394958 1_555
Na31 O31 2.403874 1_555
Na31 O27 2.405521 1_555
Na31 O18 2.446714 1_555
Na31 O20 2.724086 1_555
Na32 O28 2.289608 1_555
Na32 O23 2.304010 1_555
Na32 O24 2.323907 1_555
Na32 O1 2.419595 1_545
Na33 O29 2.289608 1_555
Na33 O22 2.304010 1_555
Na33 O25 2.323907 1_455
Na33 O0 2.419595 1_545
Na34 O21 2.364223 1_555
Na34 O30 2.488923 1_555
Na34 O24 2.506564 1_555
Na34 O26 2.513021 1_555
Na35 O20 2.364223 1_555
Na35 O31 2.488923 1_555
Na35 O25 2.506564 1_556
Na35 O27 2.513021 1_655
Na36 O31 2.383710 1_555
Na36 O28 2.400516 1_655
Na36 O3 2.430539 1_545
Na36 O24 2.453404 1_555
Na37 O30 2.383710 1_555
Na37 O29 2.400516 1_555
Na37 O2 2.430539 1_545
Na37 O25 2.453404 1_555
Na38 O1 2.256763 1_545
Na38 O26 2.260186 1_555
Na38 O24 2.326976 1_455
Na38 O5 2.674186 1_445
Na39 O0 2.256763 1_545
Na39 O27 2.260186 1_554
Na39 O25 2.326976 1_555
Na39 O4 2.674186 1_545
Cu0 O4 1.904915 1_555
Cu0 O0 1.911929 1_655
Cu0 O25 1.938929 1_565
Cu0 O2 1.941709 1_555
Cu1 O5 1.904915 1_555
Cu1 O1 1.911929 1_555
Cu1 O24 1.938929 1_565
Cu1 O3 1.941709 1_555
Cu2 O10 1.904915 1_555
Cu2 O14 1.911929 1_555
Cu2 O22 1.938929 1_555
Cu2 O13 1.941709 1_555
Cu3 O11 1.904915 1_555
Cu3 O15 1.911929 1_455
Cu3 O23 1.938929 1_555
Cu3 O12 1.941709 1_555
Cu4 O21 1.904915 1_555
Cu4 O16 1.911929 1_655
Cu4 O8 1.938929 1_555
Cu4 O19 1.941709 1_555
Cu5 O20 1.904915 1_555
Cu5 O17 1.911929 1_555
Cu5 O9 1.938929 1_555
Cu5 O18 1.941709 1_555
Cu6 O26 1.904915 1_555
Cu6 O30 1.911929 1_555
Cu6 O6 1.938929 1_545
Cu6 O29 1.941709 1_555
Cu7 O27 1.904915 1_555
Cu7 O31 1.911929 1_455
Cu7 O7 1.938929 1_545
Cu7 O28 1.941709 1_555
