# generated using pymatgen
data_Li3FeBO5
_symmetry_space_group_name_H-M   'P 1'
_cell_length_a   4.78895100
_cell_length_b   4.81128100
_cell_length_c   16.33509300
_cell_angle_alpha   90.00000000
_cell_angle_beta   90.00000000
_cell_angle_gamma   90.00000000
_symmetry_Int_Tables_number   1
_chemical_formula_structural   Li3FeBO5
_chemical_formula_sum   'Li12 Fe4 B4 O20'
_cell_volume   376.37669741
_cell_formula_units_Z   4
loop_
 _symmetry_equiv_pos_site_id
 _symmetry_equiv_pos_as_xyz
  1  'x, y, z'
loop_
 _atom_site_type_symbol
 _atom_site_label
 _atom_site_symmetry_multiplicity
 _atom_site_fract_x
 _atom_site_fract_y
 _atom_site_fract_z
 _atom_site_occupancy
  Li  Li0  1  0.31377000  0.99192800  0.61155200  1
  Li  Li1  1  0.81377000  0.99192800  0.88844800  1
  Li  Li2  1  0.68373000  0.49664400  0.00790200  1
  Li  Li3  1  0.18373000  0.49664400  0.49209800  1
  Li  Li4  1  0.66989400  0.50476100  0.79312800  1
  Li  Li5  1  0.16989400  0.50476100  0.70687200  1
  Li  Li6  1  0.68623000  0.49192800  0.38844800  1
  Li  Li7  1  0.18623000  0.49192800  0.11155200  1
  Li  Li8  1  0.31627000  0.99664400  0.99209800  1
  Li  Li9  1  0.81627000  0.99664400  0.50790200  1
  Li  Li10  1  0.83010600  0.00476100  0.29312800  1
  Li  Li11  1  0.33010600  0.00476100  0.20687200  1
  Fe  Fe0  1  0.81856700  0.98984300  0.10463700  1
  Fe  Fe1  1  0.31856700  0.98984300  0.39536300  1
  Fe  Fe2  1  0.68143300  0.48984300  0.60463700  1
  Fe  Fe3  1  0.18143300  0.48984300  0.89536300  1
  B  B0  1  0.81961300  0.00399500  0.70738100  1
  B  B1  1  0.31961300  0.00399500  0.79261900  1
  B  B2  1  0.68038700  0.50399500  0.20738100  1
  B  B3  1  0.18038700  0.50399500  0.29261900  1
  O  O0  1  0.61995000  0.91087100  0.77458700  1
  O  O1  1  0.11995000  0.91087100  0.72541300  1
  O  O2  1  0.67515200  0.90556200  0.39774300  1
  O  O3  1  0.17515200  0.90556200  0.10225700  1
  O  O4  1  0.71675200  0.91176100  0.00343900  1
  O  O5  1  0.21675200  0.91176100  0.49656100  1
  O  O6  1  0.68261500  0.81116800  0.19947900  1
  O  O7  1  0.18261500  0.81116800  0.30052100  1
  O  O8  1  0.73756400  0.87846600  0.62745400  1
  O  O9  1  0.23756400  0.87846600  0.87254600  1
  O  O10  1  0.38005000  0.41087100  0.22541300  1
  O  O11  1  0.88005000  0.41087100  0.27458700  1
  O  O12  1  0.82484800  0.40556200  0.89774300  1
  O  O13  1  0.32484800  0.40556200  0.60225700  1
  O  O14  1  0.78324800  0.41176100  0.50343900  1
  O  O15  1  0.28324800  0.41176100  0.99656100  1
  O  O16  1  0.81738500  0.31116800  0.69947900  1
  O  O17  1  0.31738500  0.31116800  0.80052100  1
  O  O18  1  0.76243600  0.37846600  0.12745400  1
  O  O19  1  0.26243600  0.37846600  0.37254600  1
loop_
_geom_bond_atom_site_label_1
_geom_bond_atom_site_label_2
_geom_bond_distance
_geom_bond_site_symmetry_2
Li0 O5 1.973064 1_555
Li0 O13 1.996598 1_565
Li0 O1 2.114941 1_555
Li0 O8 2.117656 1_555
Li1 O4 1.973064 1_556
Li1 O12 1.996598 1_565
Li1 O0 2.114941 1_555
Li1 O9 2.117656 1_655
Li2 O15 1.969620 1_554
Li2 O12 1.971497 1_554
Li2 O4 2.004821 1_555
Li2 O18 2.068611 1_555
Li3 O14 1.969620 1_455
Li3 O13 1.971497 1_555
Li3 O5 2.004821 1_555
Li3 O19 2.068611 1_555
Li4 O12 1.923221 1_555
Li4 O16 1.925264 1_555
Li4 O17 1.931836 1_555
Li4 O0 1.991657 1_555
Li5 O13 1.923221 1_555
Li5 O17 1.925264 1_555
Li5 O16 1.931836 1_455
Li5 O1 1.991657 1_555
Li6 O14 1.973064 1_555
Li6 O2 1.996598 1_555
Li6 O11 2.114941 1_555
Li6 O19 2.117656 1_555
Li7 O15 1.973064 1_554
Li7 O3 1.996598 1_555
Li7 O10 2.114941 1_555
Li7 O18 2.117656 1_455
Li8 O4 1.969620 1_556
Li8 O3 1.971497 1_556
Li8 O15 2.004821 1_565
Li8 O9 2.068611 1_555
Li9 O5 1.969620 1_655
Li9 O2 1.971497 1_555
Li9 O14 2.004821 1_565
Li9 O8 2.068611 1_555
Li10 O2 1.923221 1_545
Li10 O6 1.925264 1_545
Li10 O7 1.931836 1_645
Li10 O11 1.991657 1_555
Li11 O3 1.923221 1_545
Li11 O7 1.925264 1_545
Li11 O6 1.931836 1_545
Li11 O10 1.991657 1_555
Fe0 O3 1.755583 1_655
Fe0 O4 1.763956 1_555
Fe0 O6 1.887613 1_555
Fe0 O18 1.925418 1_565
Fe1 O2 1.755583 1_555
Fe1 O5 1.763956 1_555
Fe1 O7 1.887613 1_555
Fe1 O19 1.925418 1_565
Fe2 O13 1.755583 1_555
Fe2 O14 1.763956 1_555
Fe2 O16 1.887613 1_555
Fe2 O8 1.925418 1_555
Fe3 O12 1.755583 1_455
Fe3 O15 1.763956 1_555
Fe3 O17 1.887613 1_555
Fe3 O9 1.925418 1_555
B0 O16 1.483560 1_555
B0 O8 1.491236 1_545
B0 O0 1.523226 1_545
B0 O1 1.534996 1_645
B1 O17 1.483560 1_555
B1 O9 1.491236 1_545
B1 O1 1.523226 1_545
B1 O0 1.534996 1_545
B2 O6 1.483560 1_555
B2 O18 1.491236 1_555
B2 O11 1.523226 1_555
B2 O10 1.534996 1_555
B3 O7 1.483560 1_555
B3 O19 1.491236 1_555
B3 O10 1.523226 1_555
B3 O11 1.534996 1_455
