# generated using pymatgen
data_Li5Mn7Fe3O20
_symmetry_space_group_name_H-M   'P 1'
_cell_length_a   5.79025087
_cell_length_b   5.76801845
_cell_length_c   24.05949842
_cell_angle_alpha   89.74308635
_cell_angle_beta   96.94174013
_cell_angle_gamma   120.13425243
_symmetry_Int_Tables_number   1
_chemical_formula_structural   Li5Mn7Fe3O20
_chemical_formula_sum   'Li10 Mn14 Fe6 O40'
_cell_volume   688.37417878
_cell_formula_units_Z   2
loop_
 _symmetry_equiv_pos_site_id
 _symmetry_equiv_pos_as_xyz
  1  'x, y, z'
loop_
 _atom_site_type_symbol
 _atom_site_label
 _atom_site_symmetry_multiplicity
 _atom_site_fract_x
 _atom_site_fract_y
 _atom_site_fract_z
 _atom_site_occupancy
  Li  Li0  1  0.85219500  0.67835600  0.02683600  1
  Li  Li1  1  0.95427200  0.72538100  0.17367100  1
  Li  Li2  1  0.65475000  0.08027600  0.22628200  1
  Li  Li3  1  0.25443500  0.87886500  0.62620800  1
  Li  Li4  1  0.45556600  0.48226100  0.42786600  1
  Li  Li5  1  0.74405100  0.11821700  0.37385500  1
  Li  Li6  1  0.55204700  0.52504500  0.57536300  1
  Li  Li7  1  0.35071300  0.92128200  0.77510500  1
  Li  Li8  1  0.04883400  0.27395700  0.82457600  1
  Li  Li9  1  0.15058700  0.32465400  0.97327500  1
  Mn  Mn0  1  0.40448600  0.70281700  0.10127200  1
  Mn  Mn1  1  0.40437800  0.20271200  0.10160800  1
  Mn  Mn2  1  0.19891200  0.60128500  0.29853600  1
  Mn  Mn3  1  0.69750800  0.60023500  0.29813600  1
  Mn  Mn4  1  0.90532300  0.20263700  0.10140200  1
  Mn  Mn5  1  0.19761500  0.10110000  0.29857600  1
  Mn  Mn6  1  0.00265400  0.00397200  0.50169500  1
  Mn  Mn7  1  0.09995900  0.79691300  0.89879900  1
  Mn  Mn8  1  0.49919100  0.00101600  0.50214500  1
  Mn  Mn9  1  0.29823400  0.39850900  0.69995100  1
  Mn  Mn10  1  0.59980300  0.79969400  0.89852600  1
  Mn  Mn11  1  0.79905000  0.39973500  0.70009000  1
  Mn  Mn12  1  0.69830200  0.59818800  0.79920900  1
  Mn  Mn13  1  0.90018800  0.19988700  0.60101500  1
  Fe  Fe0  1  0.09731100  0.79094000  0.40160800  1
  Fe  Fe1  1  0.50816200  0.01063800  0.99845000  1
  Fe  Fe2  1  0.30108100  0.40194600  0.19983100  1
  Fe  Fe3  1  0.00044300  0.50311900  0.50209500  1
  Fe  Fe4  1  0.79874200  0.89872900  0.70001900  1
  Fe  Fe5  1  0.59717900  0.29764100  0.89848000  1
  O  O0  1  0.23499600  0.86721600  0.05710500  1
  O  O1  1  0.69343700  0.86845200  0.05677600  1
  O  O2  1  0.00359700  0.75451600  0.25624800  1
  O  O3  1  0.21017000  0.35528100  0.05868000  1
  O  O4  1  0.11993500  0.53343300  0.14740800  1
  O  O5  1  0.56556600  0.53300600  0.14782900  1
  O  O6  1  0.36543300  0.93463800  0.34332600  1
  O  O7  1  0.11934900  0.08663900  0.14786100  1
  O  O8  1  0.48274400  0.71750500  0.25201600  1
  O  O9  1  0.69470300  0.32825800  0.05705400  1
  O  O10  1  0.03789100  0.27134300  0.25201000  1
  O  O11  1  0.48194600  0.26981200  0.25206800  1
  O  O12  1  0.29374000  0.66800200  0.45834500  1
  O  O13  1  0.19605100  0.85179600  0.54418300  1
  O  O14  1  0.60003700  0.05009300  0.14356800  1
  O  O15  1  0.39354800  0.44866700  0.34119000  1
  O  O16  1  0.90860500  0.93356900  0.34304000  1
  O  O17  1  0.90537200  0.47199700  0.34265800  1
  O  O18  1  0.71703600  0.88556600  0.54946700  1
  O  O19  1  0.16245800  0.33324200  0.54961400  1
  O  O20  1  0.83216400  0.67124700  0.45781200  1
  O  O21  1  0.08483900  0.51742300  0.65308200  1
  O  O22  1  0.29332400  0.13013300  0.45784500  1
  O  O23  1  0.08435500  0.06926100  0.65305900  1
  O  O24  1  0.51249600  0.72739300  0.74680500  1
  O  O25  1  0.80417300  0.15264000  0.46002000  1
  O  O26  1  0.71654300  0.33030800  0.54963000  1
  O  O27  1  0.60280200  0.54930600  0.65855000  1
  O  O28  1  0.40249500  0.94891600  0.85665600  1
  O  O29  1  0.31095600  0.67341200  0.94296200  1
  O  O30  1  0.51311800  0.28012600  0.74679200  1
  O  O31  1  0.96100300  0.72872500  0.74711700  1
  O  O32  1  0.63851700  0.07070700  0.65312700  1
  O  O33  1  0.88356500  0.91308100  0.85086900  1
  O  O34  1  0.43613700  0.46919900  0.85094800  1
  O  O35  1  0.88078100  0.46751100  0.85086100  1
  O  O36  1  0.99421900  0.24942300  0.74158000  1
  O  O37  1  0.79448900  0.64836900  0.94060900  1
  O  O38  1  0.30454500  0.13046100  0.94284200  1
  O  O39  1  0.77259900  0.13431900  0.94197900  1
loop_
_geom_bond_atom_site_label_1
_geom_bond_atom_site_label_2
_geom_bond_distance
_geom_bond_site_symmetry_2
Li0 O9 1.932913 1_555
Li0 O1 1.935288 1_555
Li0 O0 1.955136 1_655
Li0 O37 2.055011 1_554
Li1 O4 1.940181 1_655
Li1 O7 1.942496 1_665
Li1 O5 1.960580 1_555
Li1 O2 1.968420 1_655
Li2 O10 1.933578 1_655
Li2 O8 1.949020 1_545
Li2 O11 1.958491 1_555
Li2 O14 1.971380 1_555
Li3 O32 1.943496 1_565
Li3 O21 1.953100 1_555
Li3 O13 1.954940 1_555
Li3 O23 1.959413 1_565
Li4 O20 1.924316 1_555
Li4 O12 1.935104 1_555
Li4 O22 1.939823 1_555
Li4 O15 2.065928 1_555
Li5 O6 1.937482 1_545
Li5 O16 1.946430 1_545
Li5 O17 1.960072 1_555
Li5 O25 2.053812 1_555
Li6 O18 1.939774 1_555
Li6 O26 1.942982 1_555
Li6 O19 1.964437 1_555
Li6 O27 1.982611 1_555
Li7 O28 1.943622 1_555
Li7 O24 1.950574 1_555
Li7 O30 1.954579 1_565
Li7 O31 1.975324 1_455
Li8 O33 1.945058 1_445
Li8 O34 1.956197 1_555
Li8 O35 1.959347 1_455
Li8 O36 1.977971 1_455
Li9 O29 1.927657 1_555
Li9 O38 1.937309 1_555
Li9 O39 1.938792 1_455
Li9 O3 2.035472 1_556
Mn0 O0 1.914361 1_555
Mn0 O1 1.917536 1_555
Mn0 O4 1.928057 1_555
Mn0 O5 1.933616 1_555
Mn0 O14 1.947433 1_565
Mn0 O3 1.951810 1_555
Mn1 O9 1.925033 1_555
Mn1 O0 1.926722 1_545
Mn1 O5 1.928760 1_555
Mn1 O7 1.933451 1_555
Mn1 O14 1.947956 1_555
Mn1 O3 1.952028 1_555
Mn2 O6 1.921983 1_555
Mn2 O17 1.930877 1_455
Mn2 O10 1.931170 1_555
Mn2 O8 1.932557 1_555
Mn2 O15 1.951065 1_555
Mn2 O2 1.952621 1_555
Mn3 O16 1.922943 1_555
Mn3 O11 1.927392 1_555
Mn3 O17 1.928288 1_555
Mn3 O8 1.933773 1_555
Mn3 O2 1.946501 1_655
Mn3 O15 1.955139 1_555
Mn4 O1 1.923342 1_545
Mn4 O4 1.927640 1_655
Mn4 O9 1.927836 1_555
Mn4 O7 1.929730 1_655
Mn4 O14 1.947281 1_555
Mn4 O3 1.953831 1_655
Mn5 O16 1.917924 1_445
Mn5 O6 1.923522 1_545
Mn5 O10 1.930363 1_555
Mn5 O11 1.932986 1_555
Mn5 O2 1.944833 1_545
Mn5 O15 1.952183 1_555
Mn6 O20 1.906941 1_445
Mn6 O22 1.915164 1_555
Mn6 O25 1.940295 1_455
Mn6 O13 1.942055 1_545
Mn6 O19 1.946728 1_555
Mn6 O18 1.959823 1_445
Mn7 O38 1.911577 1_565
Mn7 O29 1.918936 1_555
Mn7 O28 1.935124 1_555
Mn7 O37 1.942988 1_455
Mn7 O35 1.948236 1_455
Mn7 O33 1.958447 1_455
Mn8 O12 1.906854 1_545
Mn8 O22 1.920601 1_555
Mn8 O13 1.936266 1_545
Mn8 O26 1.941265 1_555
Mn8 O25 1.945389 1_555
Mn8 O18 1.954543 1_545
Mn9 O24 1.930457 1_555
Mn9 O23 1.932144 1_555
Mn9 O27 1.932736 1_555
Mn9 O36 1.933888 1_455
Mn9 O21 1.943188 1_555
Mn9 O30 1.947216 1_555
Mn10 O39 1.909370 1_565
Mn10 O29 1.916467 1_555
Mn10 O37 1.939558 1_555
Mn10 O28 1.939640 1_555
Mn10 O34 1.945736 1_555
Mn10 O33 1.952377 1_555
Mn11 O36 1.930943 1_555
Mn11 O27 1.932994 1_555
Mn11 O31 1.933025 1_555
Mn11 O32 1.933032 1_555
Mn11 O30 1.943050 1_555
Mn11 O21 1.948308 1_655
Mn12 O35 1.924250 1_555
Mn12 O34 1.929225 1_555
Mn12 O33 1.932927 1_555
Mn12 O31 1.937490 1_555
Mn12 O24 1.941978 1_555
Mn12 O30 1.955669 1_555
Mn13 O19 1.923487 1_655
Mn13 O26 1.924089 1_555
Mn13 O18 1.929133 1_545
Mn13 O32 1.933936 1_555
Mn13 O23 1.936035 1_655
Mn13 O21 1.948750 1_655
Fe0 O12 2.021305 1_555
Fe0 O20 2.022735 1_455
Fe0 O17 2.054425 1_455
Fe0 O6 2.070576 1_555
Fe0 O22 2.090368 1_565
Fe0 O16 2.091963 1_455
Fe1 O38 2.021450 1_555
Fe1 O39 2.024044 1_555
Fe1 O9 2.044325 1_556
Fe1 O29 2.072284 1_545
Fe1 O1 2.074104 1_546
Fe1 O0 2.095934 1_546
Fe2 O11 1.931791 1_555
Fe2 O4 1.933008 1_555
Fe2 O7 1.938864 1_555
Fe2 O10 1.940928 1_555
Fe2 O5 1.942779 1_555
Fe2 O8 1.942860 1_555
Fe3 O12 1.923019 1_555
Fe3 O20 1.927054 1_455
Fe3 O19 1.949588 1_555
Fe3 O26 1.950079 1_455
Fe3 O13 1.951139 1_555
Fe3 O25 1.958714 1_455
Fe4 O32 1.943845 1_565
Fe4 O31 1.945772 1_555
Fe4 O24 1.946077 1_555
Fe4 O23 1.946124 1_665
Fe4 O27 1.947636 1_555
Fe4 O36 1.954093 1_565
Fe5 O39 1.925977 1_555
Fe5 O38 1.930673 1_555
Fe5 O28 1.948477 1_545
Fe5 O35 1.948952 1_555
Fe5 O34 1.953225 1_555
Fe5 O37 1.960372 1_555
