# generated using pymatgen
data_TaCN(ClO)2
_symmetry_space_group_name_H-M   'P 1'
_cell_length_a   14.10152648
_cell_length_b   14.10152648
_cell_length_c   14.10152648
_cell_angle_alpha   60.00000000
_cell_angle_beta   60.00000000
_cell_angle_gamma   60.00000000
_symmetry_Int_Tables_number   1
_chemical_formula_structural   TaCN(ClO)2
_chemical_formula_sum   'Ta12 C12 N12 Cl24 O24'
_cell_volume   1982.82042572
_cell_formula_units_Z   12
loop_
 _symmetry_equiv_pos_site_id
 _symmetry_equiv_pos_as_xyz
  1  'x, y, z'
loop_
 _atom_site_type_symbol
 _atom_site_label
 _atom_site_symmetry_multiplicity
 _atom_site_fract_x
 _atom_site_fract_y
 _atom_site_fract_z
 _atom_site_occupancy
  Ta  Ta0  1  0.35785000  0.35785000  0.14215000  1
  Ta  Ta1  1  0.14215000  0.35785000  0.14215000  1
  Ta  Ta2  1  0.14215000  0.35785000  0.35785000  1
  Ta  Ta3  1  0.89215000  0.89215000  0.10785000  1
  Ta  Ta4  1  0.10785000  0.89215000  0.10785000  1
  Ta  Ta5  1  0.10785000  0.89215000  0.89215000  1
  Ta  Ta6  1  0.14215000  0.14215000  0.35785000  1
  Ta  Ta7  1  0.35785000  0.14215000  0.14215000  1
  Ta  Ta8  1  0.10785000  0.10785000  0.89215000  1
  Ta  Ta9  1  0.89215000  0.10785000  0.10785000  1
  Ta  Ta10  1  0.35785000  0.14215000  0.35785000  1
  Ta  Ta11  1  0.89215000  0.10785000  0.89215000  1
  C  C0  1  0.46757500  0.46757500  0.03242500  1
  C  C1  1  0.03242500  0.46757500  0.03242500  1
  C  C2  1  0.03242500  0.46757500  0.46757500  1
  C  C3  1  0.78242500  0.78242500  0.21757500  1
  C  C4  1  0.21757500  0.78242500  0.21757500  1
  C  C5  1  0.21757500  0.78242500  0.78242500  1
  C  C6  1  0.03242500  0.03242500  0.46757500  1
  C  C7  1  0.46757500  0.03242500  0.03242500  1
  C  C8  1  0.21757500  0.21757500  0.78242500  1
  C  C9  1  0.78242500  0.21757500  0.21757500  1
  C  C10  1  0.46757500  0.03242500  0.46757500  1
  C  C11  1  0.78242500  0.21757500  0.78242500  1
  N  N0  1  0.52641000  0.52641000  0.97359000  1
  N  N1  1  0.97359000  0.52641000  0.97359000  1
  N  N2  1  0.97359000  0.52641000  0.52641000  1
  N  N3  1  0.72359000  0.72359000  0.27641000  1
  N  N4  1  0.27641000  0.72359000  0.27641000  1
  N  N5  1  0.27641000  0.72359000  0.72359000  1
  N  N6  1  0.97359000  0.97359000  0.52641000  1
  N  N7  1  0.52641000  0.97359000  0.97359000  1
  N  N8  1  0.27641000  0.27641000  0.72359000  1
  N  N9  1  0.72359000  0.27641000  0.27641000  1
  N  N10  1  0.52641000  0.97359000  0.52641000  1
  N  N11  1  0.72359000  0.27641000  0.72359000  1
  Cl  Cl0  1  0.25067000  0.49151700  0.00442100  1
  Cl  Cl1  1  0.00442100  0.49151700  0.25339200  1
  Cl  Cl2  1  0.25339200  0.49151700  0.25067000  1
  Cl  Cl3  1  0.99933000  0.75848300  0.99660800  1
  Cl  Cl4  1  0.99660800  0.75848300  0.24557900  1
  Cl  Cl5  1  0.24557900  0.75848300  0.99933000  1
  Cl  Cl6  1  0.00442100  0.25339200  0.25067000  1
  Cl  Cl7  1  0.25339200  0.25067000  0.00442100  1
  Cl  Cl8  1  0.25067000  0.00442100  0.25339200  1
  Cl  Cl9  1  0.99660800  0.24557900  0.99933000  1
  Cl  Cl10  1  0.24557900  0.99933000  0.99660800  1
  Cl  Cl11  1  0.99933000  0.99660800  0.24557900  1
  Cl  Cl12  1  0.25339200  0.00442100  0.49151700  1
  Cl  Cl13  1  0.25067000  0.25339200  0.49151700  1
  Cl  Cl14  1  0.00442100  0.25067000  0.49151700  1
  Cl  Cl15  1  0.24557900  0.99660800  0.75848300  1
  Cl  Cl16  1  0.99933000  0.24557900  0.75848300  1
  Cl  Cl17  1  0.99660800  0.99933000  0.75848300  1
  Cl  Cl18  1  0.49151700  0.25067000  0.25339200  1
  Cl  Cl19  1  0.49151700  0.00442100  0.25067000  1
  Cl  Cl20  1  0.49151700  0.25339200  0.00442100  1
  Cl  Cl21  1  0.75848300  0.99933000  0.24557900  1
  Cl  Cl22  1  0.75848300  0.99660800  0.99933000  1
  Cl  Cl23  1  0.75848300  0.24557900  0.99660800  1
  O  O0  1  0.52682900  0.81564400  0.76970800  1
  O  O1  1  0.76970800  0.81564400  0.88781900  1
  O  O2  1  0.88781900  0.81564400  0.52682900  1
  O  O3  1  0.72317100  0.43435600  0.36218100  1
  O  O4  1  0.36218100  0.43435600  0.48029200  1
  O  O5  1  0.48029200  0.43435600  0.72317100  1
  O  O6  1  0.76970800  0.88781900  0.52682900  1
  O  O7  1  0.88781900  0.52682900  0.76970800  1
  O  O8  1  0.52682900  0.76970800  0.88781900  1
  O  O9  1  0.36218100  0.48029200  0.72317100  1
  O  O10  1  0.48029200  0.72317100  0.36218100  1
  O  O11  1  0.72317100  0.36218100  0.48029200  1
  O  O12  1  0.88781900  0.76970800  0.81564400  1
  O  O13  1  0.52682900  0.88781900  0.81564400  1
  O  O14  1  0.76970800  0.52682900  0.81564400  1
  O  O15  1  0.48029200  0.36218100  0.43435600  1
  O  O16  1  0.72317100  0.48029200  0.43435600  1
  O  O17  1  0.36218100  0.72317100  0.43435600  1
  O  O18  1  0.81564400  0.52682900  0.88781900  1
  O  O19  1  0.81564400  0.76970800  0.52682900  1
  O  O20  1  0.81564400  0.88781900  0.76970800  1
  O  O21  1  0.43435600  0.72317100  0.48029200  1
  O  O22  1  0.43435600  0.36218100  0.72317100  1
  O  O23  1  0.43435600  0.48029200  0.36218100  1
loop_
_geom_bond_atom_site_label_1
_geom_bond_atom_site_label_2
_geom_bond_distance
_geom_bond_site_symmetry_2
C0 N0 1.173321 1_554
C0 Ta0 2.188198 1_555
C1 N1 1.173321 1_454
C1 Ta1 2.188198 1_555
C2 N2 1.173321 1_455
C2 Ta2 2.188198 1_555
C3 N3 1.173321 1_555
C3 Ta3 2.188198 1_555
C4 N4 1.173321 1_555
C4 Ta4 2.188198 1_555
C5 N5 1.173321 1_555
C5 Ta5 2.188198 1_555
C6 N6 1.173321 1_445
C6 Ta6 2.188198 1_555
C7 N7 1.173321 1_544
C7 Ta7 2.188198 1_555
C8 N8 1.173321 1_555
C8 Ta8 2.188198 1_555
C9 N9 1.173321 1_555
C9 Ta9 2.188198 1_555
C10 N10 1.173321 1_545
C10 Ta10 2.188198 1_555
C11 N11 1.173321 1_555
C11 Ta11 2.188198 1_555
Cl0 Ta1 2.432753 1_555
Cl0 Ta0 2.456632 1_555
Cl1 Ta2 2.432753 1_555
Cl1 Ta1 2.456632 1_555
Cl2 Ta0 2.432753 1_555
Cl2 Ta2 2.456632 1_555
Cl3 Ta5 2.432753 1_655
Cl3 Ta3 2.456632 1_556
Cl4 Ta3 2.432753 1_555
Cl4 Ta4 2.456632 1_655
Cl5 Ta4 2.432753 1_556
Cl5 Ta5 2.456632 1_555
Cl6 Ta1 2.432753 1_555
Cl6 Ta6 2.456632 1_555
Cl7 Ta7 2.432753 1_555
Cl7 Ta1 2.456632 1_555
Cl8 Ta6 2.432753 1_555
Cl8 Ta7 2.456632 1_555
Cl9 Ta9 2.432753 1_556
Cl9 Ta8 2.456632 1_655
Cl10 Ta8 2.432753 1_565
Cl10 Ta4 2.456632 1_556
Cl11 Ta4 2.432753 1_655
Cl11 Ta9 2.456632 1_565
Cl12 Ta10 2.432753 1_555
Cl12 Ta6 2.456632 1_555
Cl13 Ta2 2.432753 1_555
Cl13 Ta10 2.456632 1_555
Cl14 Ta6 2.432753 1_555
Cl14 Ta2 2.456632 1_555
Cl15 Ta5 2.432753 1_555
Cl15 Ta8 2.456632 1_565
Cl16 Ta8 2.432753 1_655
Cl16 Ta11 2.456632 1_555
Cl17 Ta11 2.432753 1_565
Cl17 Ta5 2.456632 1_655
Cl18 Ta10 2.432753 1_555
Cl18 Ta0 2.456632 1_555
Cl19 Ta7 2.432753 1_555
Cl19 Ta10 2.456632 1_555
Cl20 Ta0 2.432753 1_555
Cl20 Ta7 2.456632 1_555
Cl21 Ta9 2.432753 1_565
Cl21 Ta3 2.456632 1_555
Cl22 Ta3 2.432753 1_556
Cl22 Ta11 2.456632 1_565
Cl23 Ta11 2.432753 1_555
Cl23 Ta9 2.456632 1_556
O0 O8 1.454221 1_555
O0 O13 1.454221 1_555
O1 O12 1.454221 1_555
O1 O20 1.454221 1_555
O2 O6 1.454221 1_555
O5 O9 1.454221 1_555
O10 O17 1.454221 1_555
O10 O21 1.454221 1_555
O11 O3 1.454221 1_555
O11 O16 1.454221 1_555
O12 O20 1.454221 1_555
O13 O8 1.454221 1_555
O14 O18 1.454221 1_555
O14 O7 1.454221 1_555
O15 O4 1.454221 1_555
O15 O23 1.454221 1_555
O16 O3 1.454221 1_555
O17 O21 1.454221 1_555
O18 O7 1.454221 1_555
O19 O6 1.454221 1_555
O19 O2 1.454221 1_555
O22 O9 1.454221 1_555
O22 O5 1.454221 1_555
O23 O4 1.454221 1_555
