# generated using pymatgen
data_Li6V3P8O29
_symmetry_space_group_name_H-M   'P 1'
_cell_length_a   9.78940700
_cell_length_b   9.80183175
_cell_length_c   13.96457984
_cell_angle_alpha   89.66119209
_cell_angle_beta   89.56121131
_cell_angle_gamma   60.24224136
_symmetry_Int_Tables_number   1
_chemical_formula_structural   Li6V3P8O29
_chemical_formula_sum   'Li12 V6 P16 O58'
_cell_volume   1163.22318957
_cell_formula_units_Z   2
loop_
 _symmetry_equiv_pos_site_id
 _symmetry_equiv_pos_as_xyz
  1  'x, y, z'
loop_
 _atom_site_type_symbol
 _atom_site_label
 _atom_site_symmetry_multiplicity
 _atom_site_fract_x
 _atom_site_fract_y
 _atom_site_fract_z
 _atom_site_occupancy
  Li  Li0  1  0.09796100  0.66625900  0.55845400  1
  Li  Li1  1  0.32818600  0.32948200  0.88947300  1
  Li  Li2  1  0.22487300  0.69140000  0.06342400  1
  Li  Li3  1  0.69001300  0.08736800  0.06327900  1
  Li  Li4  1  0.33864000  0.76573600  0.43794200  1
  Li  Li5  1  0.66813300  0.23683500  0.55915500  1
  Li  Li6  1  0.31402400  0.91177000  0.93859600  1
  Li  Li7  1  0.77690000  0.31673900  0.94525600  1
  Li  Li8  1  0.90305000  0.33630900  0.43684600  1
  Li  Li9  1  0.76536100  0.90210400  0.43917900  1
  Li  Li10  1  0.90769700  0.77532300  0.94364700  1
  Li  Li11  1  0.03149500  0.02053600  0.50055700  1
  V  V0  1  0.43388500  0.56677200  0.25061300  1
  V  V1  1  0.56459300  0.43379300  0.75088100  1
  V  V2  1  0.42873900  0.00134400  0.74523700  1
  V  V3  1  0.56229100  0.99861300  0.25159000  1
  V  V4  1  0.00045500  0.43099600  0.24722100  1
  V  V5  1  0.99839600  0.56310500  0.74813900  1
  P  P0  1  0.08760500  0.22670600  0.83799000  1
  P  P1  1  0.22002300  0.08377600  0.33866200  1
  P  P2  1  0.08624500  0.68346300  0.34186700  1
  P  P3  1  0.33609400  0.33171900  0.13009600  1
  P  P4  1  0.33248700  0.33643600  0.62993100  1
  P  P5  1  0.22797400  0.67871200  0.84333800  1
  P  P6  1  0.31502400  0.77036700  0.65848900  1
  P  P7  1  0.67799300  0.08946900  0.84334000  1
  P  P8  1  0.31854000  0.91290800  0.15441000  1
  P  P9  1  0.68538300  0.22620600  0.34320800  1
  P  P10  1  0.76921900  0.32073300  0.15974100  1
  P  P11  1  0.66686200  0.66718400  0.37243000  1
  P  P12  1  0.66431300  0.66747100  0.87021600  1
  P  P13  1  0.91509200  0.31044600  0.65303900  1
  P  P14  1  0.77218700  0.91539000  0.65762500  1
  P  P15  1  0.91181800  0.76916600  0.15873200  1
  O  O0  1  0.98814500  0.22595400  0.56100500  1
  O  O1  1  0.07858900  0.25335400  0.33978800  1
  O  O2  1  0.24963400  0.99099100  0.06202900  1
  O  O3  1  0.25482300  0.07909300  0.84037100  1
  O  O4  1  0.11166900  0.37216100  0.82441500  1
  O  O5  1  0.19084100  0.32891600  0.17358300  1
  O  O6  1  0.08587800  0.52824100  0.33028500  1
  O  O7  1  0.00393400  0.75421100  0.06860800  1
  O  O8  1  0.07628400  0.66828300  0.84581400  1
  O  O9  1  0.32217200  0.19592000  0.67341000  1
  O  O10  1  0.37724600  0.08364700  0.33260600  1
  O  O11  1  0.18618000  0.49315400  0.67108100  1
  O  O12  1  0.34133900  0.33074000  0.02267300  1
  O  O13  1  0.33656200  0.34605200  0.52353300  1
  O  O14  1  0.33189800  0.48490700  0.16738700  1
  O  O15  1  0.51256100  0.10983900  0.82572300  1
  O  O16  1  0.48866500  0.18301400  0.17029700  1
  O  O17  1  0.25613100  0.65731700  0.34120100  1
  O  O18  1  0.20863800  0.78847400  0.75186800  1
  O  O19  1  0.22328300  0.77795400  0.56978200  1
  O  O20  1  0.25104900  0.75178900  0.93168900  1
  O  O21  1  0.36890000  0.51103900  0.82511800  1
  O  O22  1  0.48785700  0.32729700  0.67252300  1
  O  O23  1  0.33435400  0.74649300  0.16192100  1
  O  O24  1  0.52900300  0.37860200  0.33035200  1
  O  O25  1  0.66456000  0.08085600  0.34342300  1
  O  O26  1  0.20017400  0.00942800  0.24062700  1
  O  O27  1  0.20684900  0.98954100  0.41994600  1
  O  O28  1  0.77125200  0.00477600  0.56870400  1
  O  O29  1  0.34162300  0.91253800  0.66224400  1
  O  O30  1  0.47059700  0.61559400  0.66828500  1
  O  O31  1  0.66296000  0.25361800  0.84684200  1
  O  O32  1  0.51083100  0.67897100  0.33416900  1
  O  O33  1  0.61903300  0.48093800  0.17920800  1
  O  O34  1  0.75299400  0.24588900  0.07050700  1
  O  O35  1  0.77694700  0.22501200  0.43083000  1
  O  O36  1  0.79174500  0.20691200  0.24919800  1
  O  O37  1  0.74778100  0.33297600  0.66252000  1
  O  O38  1  0.51583800  0.81439900  0.83025100  1
  O  O39  1  0.48015500  0.89792900  0.17623300  1
  O  O40  1  0.66259200  0.51726900  0.82913300  1
  O  O41  1  0.67404500  0.66229700  0.97657700  1
  O  O42  1  0.66757700  0.67436300  0.47937000  1
  O  O43  1  0.81064200  0.51190400  0.33284100  1
  O  O44  1  0.61919300  0.91088100  0.67272800  1
  O  O45  1  0.67751500  0.81271900  0.32946400  1
  O  O46  1  0.91300300  0.34381300  0.16036700  1
  O  O47  1  0.01420600  0.20029400  0.74129300  1
  O  O48  1  0.98869800  0.23965600  0.92186700  1
  O  O49  1  0.91397700  0.46727100  0.66563600  1
  O  O50  1  0.81644200  0.66272500  0.82450100  1
  O  O51  1  0.89583100  0.62349500  0.17841400  1
  O  O52  1  0.75002300  0.91903800  0.15888200  1
  O  O53  1  0.75447200  0.99504000  0.93205100  1
  O  O54  1  0.78860800  0.00345900  0.75143500  1
  O  O55  1  0.91745300  0.74997200  0.65767900  1
  O  O56  1  0.00029100  0.77422300  0.43067700  1
  O  O57  1  0.00470000  0.78962100  0.24848000  1
loop_
_geom_bond_atom_site_label_1
_geom_bond_atom_site_label_2
_geom_bond_distance
_geom_bond_site_symmetry_2
Li0 O19 2.016699 1_555
Li0 O56 2.053626 1_555
Li0 O55 2.062140 1_455
Li0 O11 2.152462 1_555
Li1 O12 1.866053 1_556
Li1 O4 2.153553 1_555
Li1 O21 2.193884 1_555
Li1 O15 2.196814 1_555
Li2 O7 1.933533 1_555
Li2 O20 1.982604 1_554
Li2 O23 1.984456 1_555
Li2 O14 2.277181 1_555
Li3 O34 1.938652 1_555
Li3 O52 1.968142 1_545
Li3 O53 2.002604 1_544
Li3 O16 2.265962 1_555
Li4 O27 1.931050 1_555
Li4 O32 2.053975 1_555
Li4 O17 2.119567 1_555
Li4 O19 2.125026 1_555
Li5 O28 1.982371 1_555
Li5 O35 2.051851 1_555
Li5 O37 2.083801 1_555
Li5 O22 2.197157 1_555
Li6 O2 1.866739 1_556
Li6 O20 1.952089 1_555
Li6 O3 1.987268 1_565
Li6 O38 2.280953 1_555
Li7 O48 1.847678 1_555
Li7 O34 1.933135 1_556
Li7 O31 2.057723 1_555
Li7 O40 2.356262 1_555
Li8 O0 1.993893 1_555
Li8 O1 2.010349 1_655
Li8 O35 2.015088 1_555
Li8 O43 2.082094 1_555
Li9 O56 2.002606 1_655
Li9 O25 2.026797 1_565
Li9 O28 2.090089 1_565
Li9 O45 2.153724 1_555
Li10 O53 1.925399 1_555
Li10 O7 1.950099 1_656
Li10 O8 1.988609 1_655
Li10 O50 2.409902 1_555
Li11 O27 1.939846 1_545
Li11 O0 2.028088 1_455
Li11 O19 2.383759 1_545
Li11 O35 2.496179 1_455
O0 P13 1.503222 1_555
O1 P1 1.547754 1_555
O1 V4 1.988545 1_555
O2 P8 1.481287 1_555
O3 P0 1.556714 1_555
O3 V2 1.983354 1_555
O4 P0 1.566411 1_555
O4 V5 1.949724 1_455
O5 P3 1.554611 1_555
O5 V4 1.914124 1_555
O6 P2 1.532761 1_555
O6 V4 1.942297 1_555
O7 P15 1.507374 1_455
O8 P5 1.538373 1_555
O8 V5 2.077868 1_455
O9 P4 1.550184 1_555
O9 V2 1.936534 1_555
O10 P1 1.540169 1_555
O10 V3 1.933161 1_545
O11 P4 1.598466 1_555
O11 V5 1.932521 1_455
O12 P3 1.500527 1_555
O13 P4 1.489716 1_555
O14 P3 1.573257 1_555
O14 V0 1.953327 1_555
O15 P7 1.551660 1_555
O15 V2 1.990483 1_555
O16 P3 1.585117 1_555
O16 V3 1.941709 1_545
O17 P2 1.551874 1_555
O17 V0 1.965312 1_555
O18 P5 1.615616 1_555
O18 P6 1.617094 1_555
O19 P6 1.515343 1_555
O20 P5 1.503881 1_555
O21 P5 1.554970 1_555
O21 V1 1.963922 1_555
O22 P4 1.597856 1_555
O22 V1 1.912010 1_555
O23 P8 1.563088 1_555
O23 V0 1.968610 1_555
O24 P9 1.529104 1_555
O24 V0 1.948225 1_555
O25 P9 1.536082 1_555
O25 V3 2.032182 1_545
O26 P8 1.609717 1_545
O26 P1 1.612289 1_555
O27 P1 1.503948 1_565
O28 P14 1.512942 1_545
O29 P6 1.540704 1_555
O29 V2 1.895299 1_565
O30 P6 1.531945 1_555
O30 V1 1.927898 1_555
O31 P7 1.542264 1_555
O31 V1 2.036067 1_555
O32 P11 1.571153 1_555
O32 V0 1.997323 1_555
O33 P10 1.551927 1_555
O33 V0 1.858968 1_555
O34 P10 1.498573 1_555
O35 P9 1.518887 1_555
O36 P10 1.611647 1_555
O36 P9 1.621699 1_555
O37 P13 1.544963 1_555
O37 V1 1.984041 1_555
O38 P12 1.556652 1_555
O38 V2 1.983168 1_565
O39 P8 1.547187 1_555
O39 V3 1.881702 1_555
O40 P12 1.591137 1_555
O40 V1 1.894674 1_555
O41 P12 1.488021 1_555
O42 P11 1.495678 1_555
O43 P11 1.573142 1_555
O43 V4 2.006396 1_655
O44 P14 1.533089 1_555
O44 V2 1.904796 1_565
O45 P11 1.594491 1_555
O45 V3 1.931354 1_555
O46 P10 1.532574 1_555
O46 V4 1.920582 1_655
O47 P13 1.608946 1_455
O47 P0 1.615661 1_555
O48 P0 1.479172 1_655
O49 P13 1.542879 1_555
O49 V5 1.921117 1_555
O50 P12 1.595180 1_555
O50 V5 1.876176 1_555
O51 P15 1.534697 1_555
O51 V4 1.899398 1_655
O52 P15 1.535249 1_555
O52 V3 2.052915 1_555
O53 P7 1.504871 1_565
O54 P7 1.617334 1_555
O54 P14 1.625274 1_545
O55 P14 1.537004 1_555
O55 V5 2.031203 1_555
O56 P2 1.513774 1_555
O57 P2 1.611218 1_555
O57 P15 1.624527 1_455
