# generated using pymatgen
data_Ce2SeO2
_symmetry_space_group_name_H-M   'P 1'
_cell_length_a   6.84241906
_cell_length_b   6.84241906
_cell_length_c   6.84241906
_cell_angle_alpha   146.46364920
_cell_angle_beta   146.46364920
_cell_angle_gamma   48.15859897
_symmetry_Int_Tables_number   1
_chemical_formula_structural   Ce2SeO2
_chemical_formula_sum   'Ce2 Se1 O2'
_cell_volume   97.37393549
_cell_formula_units_Z   1
loop_
 _symmetry_equiv_pos_site_id
 _symmetry_equiv_pos_as_xyz
  1  'x, y, z'
loop_
 _atom_site_type_symbol
 _atom_site_label
 _atom_site_symmetry_multiplicity
 _atom_site_fract_x
 _atom_site_fract_y
 _atom_site_fract_z
 _atom_site_occupancy
  Ce  Ce0  1  0.34979100  0.34979100  0.00000000  1
  Ce  Ce1  1  0.65020900  0.65020900  0.00000000  1
  Se  Se0  1  0.00000000  0.00000000  0.00000000  1
  O  O0  1  0.75000000  0.25000000  0.50000000  1
  O  O1  1  0.25000000  0.75000000  0.50000000  1
loop_
_geom_bond_atom_site_label_1
_geom_bond_atom_site_label_2
_geom_bond_distance
_geom_bond_site_symmetry_2
Ce0 O1 2.334804 1_544
Ce0 O0 2.334804 1_454
Ce0 O1 2.334804 1_555
Ce0 O0 2.334804 1_555
Ce0 Se0 3.363882 1_554
Ce0 Se0 3.363882 1_565
Ce0 Se0 3.363882 1_655
Ce0 Se0 3.363882 1_666
Ce1 O1 2.334804 1_655
Ce1 O0 2.334804 1_554
Ce1 O1 2.334804 1_554
Ce1 O0 2.334804 1_565
Ce1 Se0 3.363882 1_655
Ce1 Se0 3.363882 1_666
Ce1 Se0 3.363882 1_565
Ce1 Se0 3.363882 1_554
