# generated using pymatgen
data_Ca2SiO4
_symmetry_space_group_name_H-M   'P 1'
_cell_length_a   5.39297600
_cell_length_b   6.97692500
_cell_length_c   9.90511532
_cell_angle_alpha   87.90363601
_cell_angle_beta   90.00000000
_cell_angle_gamma   90.00000000
_symmetry_Int_Tables_number   1
_chemical_formula_structural   Ca2SiO4
_chemical_formula_sum   'Ca8 Si4 O16'
_cell_volume   372.44428553
_cell_formula_units_Z   4
loop_
 _symmetry_equiv_pos_site_id
 _symmetry_equiv_pos_as_xyz
  1  'x, y, z'
loop_
 _atom_site_type_symbol
 _atom_site_label
 _atom_site_symmetry_multiplicity
 _atom_site_fract_x
 _atom_site_fract_y
 _atom_site_fract_z
 _atom_site_occupancy
  Ca  Ca0  1  0.00239600  0.79165700  0.15765600  1
  Ca  Ca1  1  0.99760400  0.20834300  0.84234400  1
  Ca  Ca2  1  0.00000000  0.50000000  0.50000000  1
  Ca  Ca3  1  0.00000000  0.00000000  0.50000000  1
  Ca  Ca4  1  0.50239600  0.20834300  0.34234400  1
  Ca  Ca5  1  0.49760400  0.79165700  0.65765600  1
  Ca  Ca6  1  0.50000000  0.50000000  0.00000000  1
  Ca  Ca7  1  0.50000000  0.00000000  0.00000000  1
  Si  Si0  1  0.00043300  0.27946400  0.17167300  1
  Si  Si1  1  0.99956700  0.72053600  0.82832700  1
  Si  Si2  1  0.49956700  0.27946400  0.67167300  1
  Si  Si3  1  0.50043300  0.72053600  0.32832700  1
  O  O0  1  0.95201700  0.23896700  0.33663100  1
  O  O1  1  0.04798300  0.76103300  0.66336900  1
  O  O2  1  0.11850700  0.51235400  0.87183700  1
  O  O3  1  0.14948400  0.89000400  0.90765800  1
  O  O4  1  0.29761500  0.24821100  0.13235800  1
  O  O5  1  0.35051600  0.89000400  0.40765800  1
  O  O6  1  0.20238500  0.24821100  0.63235800  1
  O  O7  1  0.38149300  0.51235400  0.37183700  1
  O  O8  1  0.45201700  0.76103300  0.16336900  1
  O  O9  1  0.54798300  0.23896700  0.83663100  1
  O  O10  1  0.61850700  0.48764600  0.62816300  1
  O  O11  1  0.79761500  0.75178900  0.36764200  1
  O  O12  1  0.64948400  0.10999600  0.59234200  1
  O  O13  1  0.70238500  0.75178900  0.86764200  1
  O  O14  1  0.85051600  0.10999600  0.09234200  1
  O  O15  1  0.88149300  0.48764600  0.12816300  1
loop_
_geom_bond_atom_site_label_1
_geom_bond_atom_site_label_2
_geom_bond_distance
_geom_bond_site_symmetry_2
Ca0 O15 2.248270 1_455
Ca0 O11 2.362378 1_455
Ca0 O14 2.432545 1_465
Ca0 O8 2.434666 1_555
Ca0 O3 2.666008 1_554
Ca1 O2 2.248270 1_655
Ca1 O6 2.362378 1_655
Ca1 O3 2.432545 1_645
Ca1 O9 2.434666 1_555
Ca1 O14 2.666008 1_556
Ca2 O6 2.414043 1_555
Ca2 O11 2.414043 1_455
Ca2 O7 2.417395 1_555
Ca2 O10 2.417395 1_455
Ca2 O1 2.493572 1_555
Ca2 O0 2.493572 1_455
Ca3 O12 2.247273 1_455
Ca3 O5 2.247273 1_545
Ca3 O1 2.295181 1_545
Ca3 O0 2.295181 1_455
Ca3 O6 2.464775 1_555
Ca3 O11 2.464775 1_445
Ca4 O7 2.248270 1_555
Ca4 O4 2.362378 1_555
Ca4 O5 2.432545 1_545
Ca4 O0 2.434666 1_555
Ca4 O12 2.666008 1_555
Ca5 O10 2.248270 1_555
Ca5 O13 2.362378 1_555
Ca5 O12 2.432545 1_565
Ca5 O1 2.434666 1_555
Ca5 O5 2.666008 1_555
Ca6 O13 2.414043 1_554
Ca6 O4 2.414043 1_555
Ca6 O2 2.417395 1_554
Ca6 O15 2.417395 1_555
Ca6 O8 2.493572 1_555
Ca6 O9 2.493572 1_554
Ca7 O14 2.247273 1_555
Ca7 O3 2.247273 1_544
Ca7 O9 2.295181 1_554
Ca7 O8 2.295181 1_545
Ca7 O4 2.464775 1_555
Ca7 O13 2.464775 1_544
O0 Si0 1.668518 1_655
O1 Si1 1.668518 1_455
O2 Si1 1.631274 1_455
O3 Si1 1.654414 1_455
O4 Si0 1.665544 1_555
O5 Si3 1.654414 1_555
O6 Si2 1.665544 1_555
O7 Si3 1.631274 1_555
O8 Si3 1.668518 1_555
O9 Si2 1.668518 1_555
O10 Si2 1.631274 1_555
O11 Si3 1.665544 1_555
O12 Si2 1.654414 1_555
O13 Si1 1.665544 1_555
O14 Si0 1.654414 1_655
O15 Si0 1.631274 1_655
