# generated using pymatgen
data_Li2Mn3OF6
_symmetry_space_group_name_H-M   'P 1'
_cell_length_a   6.17951281
_cell_length_b   8.29503871
_cell_length_c   6.70494658
_cell_angle_alpha   67.90589874
_cell_angle_beta   97.74358707
_cell_angle_gamma   108.76209932
_symmetry_Int_Tables_number   1
_chemical_formula_structural   Li2Mn3OF6
_chemical_formula_sum   'Li4 Mn6 O2 F12'
_cell_volume   301.49375966
_cell_formula_units_Z   2
loop_
 _symmetry_equiv_pos_site_id
 _symmetry_equiv_pos_as_xyz
  1  'x, y, z'
loop_
 _atom_site_type_symbol
 _atom_site_label
 _atom_site_symmetry_multiplicity
 _atom_site_fract_x
 _atom_site_fract_y
 _atom_site_fract_z
 _atom_site_occupancy
  Li  Li0  1  0.69467900  0.48196000  0.85844600  1
  Li  Li1  1  0.30602500  0.51821200  0.14267100  1
  Li  Li2  1  0.89204200  0.06614500  0.31389500  1
  Li  Li3  1  0.10752800  0.93445100  0.68569400  1
  Mn  Mn0  1  0.23006100  0.66028800  0.56842100  1
  Mn  Mn1  1  0.77028800  0.33891800  0.43324500  1
  Mn  Mn2  1  0.36032300  0.06765400  0.25584100  1
  Mn  Mn3  1  0.09008700  0.22759100  0.82027400  1
  Mn  Mn4  1  0.91088300  0.77220800  0.18060900  1
  Mn  Mn5  1  0.63834100  0.93236500  0.74237300  1
  O  O0  1  0.07722600  0.86706400  0.41841500  1
  O  O1  1  0.92261300  0.13300100  0.58130500  1
  F  F0  1  0.90837700  0.44194500  0.70625300  1
  F  F1  1  0.09172000  0.55754000  0.29578500  1
  F  F2  1  0.55230700  0.87354800  0.43569700  1
  F  F3  1  0.44570500  0.12683900  0.56201900  1
  F  F4  1  0.39167400  0.45243400  0.72179900  1
  F  F5  1  0.60932500  0.54769700  0.27970100  1
  F  F6  1  0.22007800  0.99666900  0.96988200  1
  F  F7  1  0.78124700  0.00336500  0.02724600  1
  F  F8  1  0.83049500  0.73127400  0.87253000  1
  F  F9  1  0.16901800  0.26895300  0.12747100  1
  F  F10  1  0.66769200  0.27759300  0.13983900  1
  F  F11  1  0.33226500  0.72228800  0.86058800  1
loop_
_geom_bond_atom_site_label_1
_geom_bond_atom_site_label_2
_geom_bond_distance
_geom_bond_site_symmetry_2
Li2 O1 2.036493 1_555
Li2 O0 2.157932 1_645
Li3 O0 2.038361 1_555
Li3 O1 2.153161 1_465
Mn0 O0 2.081797 1_555
Mn1 O1 2.072678 1_555
Mn2 O0 2.072243 1_545
Mn3 O1 2.056813 1_455
Mn4 O0 2.049364 1_655
Mn5 O1 2.073761 1_565
F0 Li0 1.948137 1_555
F0 Mn0 2.237375 1_655
F0 Mn3 2.244395 1_655
F0 Mn1 2.257439 1_555
F1 Li1 1.952017 1_555
F1 Mn1 2.236598 1_455
F1 Mn4 2.242544 1_455
F1 Mn0 2.254119 1_555
F2 Mn2 2.199273 1_565
F2 Mn0 2.216737 1_555
F2 Li2 2.224801 1_565
F2 Mn5 2.245454 1_555
F3 Mn5 2.204902 1_545
F3 Mn1 2.217568 1_555
F3 Li3 2.219844 1_545
F3 Mn2 2.243543 1_555
F4 Li0 1.953688 1_555
F4 Mn0 2.127145 1_555
F4 Mn3 2.134709 1_555
F5 Li1 1.956243 1_555
F5 Mn1 2.130594 1_555
F5 Mn4 2.133698 1_555
F6 Li3 2.128997 1_555
F6 Mn3 2.155896 1_565
F6 Mn2 2.201638 1_566
F6 Mn4 2.360882 1_456
F7 Li2 2.145429 1_555
F7 Mn4 2.158392 1_545
F7 Mn5 2.198215 1_544
F7 Mn3 2.348649 1_654
F8 Li0 1.999810 1_555
F8 Li3 2.115218 1_655
F8 Mn4 2.184396 1_556
F8 Mn5 2.203132 1_555
F9 Li1 2.002847 1_555
F9 Li2 2.112927 1_455
F9 Mn3 2.179766 1_554
F9 Mn2 2.200227 1_555
F10 Li0 1.989531 1_554
F10 Mn2 2.120545 1_555
F10 Mn1 2.177181 1_555
F10 Li2 2.439019 1_555
F11 Li1 1.991656 1_556
F11 Mn5 2.118263 1_555
F11 Mn0 2.171739 1_555
F11 Li3 2.445799 1_555
