# generated using pymatgen
data_Fe4O5F3
_symmetry_space_group_name_H-M   'P 1'
_cell_length_a   4.74062800
_cell_length_b   6.07287976
_cell_length_c   9.94229011
_cell_angle_alpha   107.70065134
_cell_angle_beta   92.17541088
_cell_angle_gamma   90.10271560
_symmetry_Int_Tables_number   1
_chemical_formula_structural   Fe4O5F3
_chemical_formula_sum   'Fe8 O10 F6'
_cell_volume   272.45721089
_cell_formula_units_Z   2
loop_
 _symmetry_equiv_pos_site_id
 _symmetry_equiv_pos_as_xyz
  1  'x, y, z'
loop_
 _atom_site_type_symbol
 _atom_site_label
 _atom_site_symmetry_multiplicity
 _atom_site_fract_x
 _atom_site_fract_y
 _atom_site_fract_z
 _atom_site_occupancy
  Fe  Fe0  1  0.49077900  0.62746700  0.75447000  1
  Fe  Fe1  1  0.48961900  0.87139200  0.25677000  1
  Fe  Fe2  1  0.54223400  0.37109200  0.23098000  1
  Fe  Fe3  1  0.52069200  0.11625500  0.73638300  1
  Fe  Fe4  1  0.00354500  0.49731200  0.99112100  1
  Fe  Fe5  1  0.97812300  0.75412800  0.51704300  1
  Fe  Fe6  1  0.03916700  0.00372300  0.00959900  1
  Fe  Fe7  1  0.93843600  0.26024300  0.50269400  1
  O  O0  1  0.78141600  0.55320300  0.60335900  1
  O  O1  1  0.79411400  0.04662300  0.59325800  1
  O  O2  1  0.84051900  0.29396600  0.08803600  1
  O  O3  1  0.69743900  0.41907500  0.84372300  1
  O  O4  1  0.67716900  0.17064300  0.34288200  1
  O  O5  1  0.68525000  0.67354100  0.34719400  1
  O  O6  1  0.32657100  0.07613800  0.15498300  1
  O  O7  1  0.31866900  0.57581800  0.14851900  1
  O  O8  1  0.30010700  0.83030800  0.65946400  1
  O  O9  1  0.19860400  0.70484300  0.90788100  1
  F  F0  1  0.81506400  0.80236200  0.10015400  1
  F  F1  1  0.71135300  0.92941300  0.85450800  1
  F  F2  1  0.28523100  0.32129900  0.64766200  1
  F  F3  1  0.18018300  0.95312600  0.40449200  1
  F  F4  1  0.21698800  0.19630600  0.89541100  1
  F  F5  1  0.16873000  0.45172300  0.40941600  1
loop_
_geom_bond_atom_site_label_1
_geom_bond_atom_site_label_2
_geom_bond_distance
_geom_bond_site_symmetry_2
Fe0 O8 1.968093 1_555
Fe0 O3 1.992530 1_555
Fe0 O0 2.026392 1_555
Fe0 O9 2.047581 1_555
Fe1 O5 1.926020 1_555
Fe1 O7 1.947022 1_555
Fe1 O4 1.953569 1_565
Fe1 O6 1.968972 1_565
Fe2 O5 1.952909 1_555
Fe2 O7 1.974774 1_555
Fe2 O4 1.975125 1_555
Fe2 O6 1.984043 1_555
Fe2 O2 1.997220 1_555
Fe3 O1 1.913091 1_555
Fe3 O8 1.954251 1_545
Fe3 O3 1.988980 1_555
Fe4 O9 1.953598 1_555
Fe4 O2 1.956367 1_456
Fe4 O3 1.972772 1_455
Fe4 O7 2.067409 1_556
Fe5 O1 1.930695 1_565
Fe5 O0 1.946370 1_555
Fe5 O8 1.995998 1_655
Fe5 O5 2.082272 1_555
Fe6 O6 1.897594 1_555
Fe6 O2 1.956434 1_455
Fe6 O9 1.958374 1_544
Fe7 O4 1.917596 1_555
Fe7 O0 1.923422 1_555
Fe7 O1 1.927613 1_555
F0 Fe6 2.042554 1_665
F0 Fe4 2.064870 1_654
F0 Fe1 2.183667 1_555
F1 Fe3 2.053567 1_565
F1 Fe0 2.061596 1_555
F1 Fe6 2.094939 1_666
F2 Fe3 2.042731 1_555
F2 Fe0 2.061204 1_555
F2 Fe7 2.100152 1_455
F3 Fe1 2.068374 1_555
F3 Fe5 2.128322 1_455
F3 Fe7 2.174969 1_465
F4 Fe6 2.060055 1_556
F4 Fe4 2.071912 1_555
F4 Fe3 2.125328 1_555
F5 Fe7 2.032787 1_455
F5 Fe5 2.053903 1_455
F5 Fe2 2.497116 1_555
