# generated using pymatgen
data_Mn6O7F5
_symmetry_space_group_name_H-M   'P 1'
_cell_length_a   4.60828700
_cell_length_b   5.63867772
_cell_length_c   15.30231976
_cell_angle_alpha   89.75537470
_cell_angle_beta   89.56759067
_cell_angle_gamma   88.87044755
_symmetry_Int_Tables_number   1
_chemical_formula_structural   Mn6O7F5
_chemical_formula_sum   'Mn12 O14 F10'
_cell_volume   397.53338459
_cell_formula_units_Z   2
loop_
 _symmetry_equiv_pos_site_id
 _symmetry_equiv_pos_as_xyz
  1  'x, y, z'
loop_
 _atom_site_type_symbol
 _atom_site_label
 _atom_site_symmetry_multiplicity
 _atom_site_fract_x
 _atom_site_fract_y
 _atom_site_fract_z
 _atom_site_occupancy
  Mn  Mn0  1  0.02695900  0.16727200  0.41282000  1
  Mn  Mn1  1  0.99692500  0.84516100  0.24153900  1
  Mn  Mn2  1  0.00628300  0.15588400  0.07456200  1
  Mn  Mn3  1  0.01624800  0.16551000  0.74866500  1
  Mn  Mn4  1  0.03934700  0.85135700  0.58264700  1
  Mn  Mn5  1  0.04847300  0.84449900  0.91171300  1
  Mn  Mn6  1  0.48525100  0.34814200  0.58978200  1
  Mn  Mn7  1  0.48538600  0.35518400  0.92423100  1
  Mn  Mn8  1  0.50781400  0.34622800  0.25778700  1
  Mn  Mn9  1  0.50043300  0.65162400  0.08653800  1
  Mn  Mn10  1  0.49418500  0.64414100  0.42208300  1
  Mn  Mn11  1  0.48572000  0.63030200  0.75051500  1
  O  O0  1  0.21862800  0.10968200  0.30176200  1
  O  O1  1  0.22128800  0.11413000  0.63818300  1
  O  O2  1  0.23452200  0.11720600  0.96788000  1
  O  O3  1  0.21735300  0.88699500  0.13228000  1
  O  O4  1  0.23151000  0.89256700  0.47117600  1
  O  O5  1  0.23839800  0.88186400  0.80275600  1
  O  O6  1  0.28323300  0.39872800  0.48230700  1
  O  O7  1  0.27705200  0.60902500  0.64474200  1
  O  O8  1  0.27909500  0.39556900  0.81329400  1
  O  O9  1  0.27641700  0.61119100  0.97694600  1
  O  O10  1  0.72004600  0.38160100  0.02696300  1
  O  O11  1  0.71413400  0.61623300  0.19607600  1
  O  O12  1  0.72687600  0.38594500  0.36408400  1
  O  O13  1  0.71866000  0.37966900  0.69486500  1
  F  F0  1  0.25536700  0.38005500  0.15169200  1
  F  F1  1  0.23684000  0.61041500  0.31208800  1
  F  F2  1  0.76034700  0.62045600  0.53466900  1
  F  F3  1  0.74030400  0.62011900  0.85758600  1
  F  F4  1  0.75100300  0.11570000  0.17989700  1
  F  F5  1  0.76023500  0.12282400  0.52652400  1
  F  F6  1  0.74914400  0.87717700  0.35733100  1
  F  F7  1  0.77400100  0.87314500  0.01168700  1
  F  F8  1  0.76450000  0.12337900  0.86000900  1
  F  F9  1  0.75802600  0.87102200  0.69232100  1
loop_
_geom_bond_atom_site_label_1
_geom_bond_atom_site_label_2
_geom_bond_distance
_geom_bond_site_symmetry_2
Mn0 O0 1.935063 1_555
Mn0 O12 1.982258 1_455
Mn0 O4 2.007140 1_545
Mn0 O6 2.078516 1_555
Mn1 O3 1.965511 1_655
Mn1 O11 1.983996 1_555
Mn1 O0 2.050321 1_665
Mn2 O2 1.945997 1_554
Mn2 O10 1.957226 1_455
Mn2 O3 1.992072 1_545
Mn3 O1 1.950449 1_555
Mn3 O13 1.989954 1_455
Mn3 O8 2.054031 1_555
Mn3 O5 2.056238 1_545
Mn4 O1 1.921219 1_565
Mn4 O4 1.931254 1_555
Mn4 O7 1.978775 1_555
Mn5 O5 1.890114 1_555
Mn5 O9 1.944387 1_555
Mn5 O2 1.978060 1_565
Mn6 O6 1.913489 1_555
Mn6 O7 1.932490 1_555
Mn6 O13 1.952011 1_555
Mn6 O1 1.952101 1_555
Mn7 O9 1.898756 1_555
Mn7 O2 1.903967 1_555
Mn7 O10 1.922728 1_556
Mn7 O8 1.962125 1_555
Mn8 O12 1.936970 1_555
Mn8 O0 2.014126 1_555
Mn8 O11 2.035900 1_555
Mn9 O11 1.957946 1_555
Mn9 O3 1.969518 1_555
Mn9 O9 1.992167 1_554
Mn9 O10 2.027488 1_555
Mn10 O6 1.933354 1_555
Mn10 O4 1.979963 1_555
Mn10 O12 1.998061 1_555
Mn11 O7 1.894346 1_555
Mn11 O8 1.899062 1_555
Mn11 O13 1.952279 1_555
Mn11 O5 1.970357 1_555
F0 Mn8 2.010628 1_555
F0 Mn2 2.097320 1_555
F0 Mn9 2.156947 1_555
F1 Mn1 2.021877 1_455
F1 Mn10 2.077839 1_555
F1 Mn8 2.095336 1_555
F2 Mn4 1.993895 1_655
F2 Mn10 2.124587 1_555
F2 Mn6 2.173856 1_555
F3 Mn11 2.022303 1_555
F3 Mn5 2.097878 1_655
F3 Mn7 2.165601 1_555
F4 Mn2 2.003038 1_655
F4 Mn8 2.074092 1_555
F4 Mn1 2.106384 1_545
F5 Mn6 2.021260 1_555
F5 Mn0 2.139420 1_655
F5 Mn4 2.159364 1_645
F6 Mn10 2.030039 1_555
F6 Mn1 2.107142 1_555
F6 Mn0 2.268601 1_665
F7 Mn5 1.982717 1_654
F7 Mn9 2.118851 1_555
F7 Mn2 2.170055 1_665
F8 Mn7 2.062582 1_555
F8 Mn3 2.069520 1_655
F8 Mn5 2.176044 1_645
F9 Mn11 2.061559 1_555
F9 Mn4 2.114859 1_655
F9 Mn3 2.241057 1_665
