# generated using pymatgen
data_Li2CuSiO4
_symmetry_space_group_name_H-M   'P 1'
_cell_length_a   5.28802889
_cell_length_b   5.28802889
_cell_length_c   5.28802889
_cell_angle_alpha   130.67837009
_cell_angle_beta   130.67837009
_cell_angle_gamma   72.32458216
_symmetry_Int_Tables_number   1
_chemical_formula_structural   Li2CuSiO4
_chemical_formula_sum   'Li2 Cu1 Si1 O4'
_cell_volume   83.13545738
_cell_formula_units_Z   1
loop_
 _symmetry_equiv_pos_site_id
 _symmetry_equiv_pos_as_xyz
  1  'x, y, z'
loop_
 _atom_site_type_symbol
 _atom_site_label
 _atom_site_symmetry_multiplicity
 _atom_site_fract_x
 _atom_site_fract_y
 _atom_site_fract_z
 _atom_site_occupancy
  Li  Li0  1  0.75000000  0.25000000  0.50000000  1
  Li  Li1  1  0.25000000  0.75000000  0.50000000  1
  Cu  Cu0  1  0.00000000  0.00000000  0.00000000  1
  Si  Si0  1  0.50000000  0.50000000  0.00000000  1
  O  O0  1  0.60722400  0.17244100  0.00000000  1
  O  O1  1  0.17244100  0.60722400  0.00000000  1
  O  O2  1  0.39277600  0.39277600  0.56521600  1
  O  O3  1  0.82755900  0.82755900  0.43478400  1
loop_
_geom_bond_atom_site_label_1
_geom_bond_atom_site_label_2
_geom_bond_distance
_geom_bond_site_symmetry_2
Li0 O2 1.975115 1_555
Li0 O1 1.975118 1_656
Li0 O0 1.975118 1_555
Li0 O3 1.975120 1_545
Li1 O2 1.975115 1_555
Li1 O0 1.975118 1_566
Li1 O1 1.975118 1_555
Li1 O3 1.975120 1_455
Cu0 O3 1.998839 1_444
Cu0 O2 1.998843 1_555
Cu0 O1 1.998844 1_545
Cu0 O0 1.998844 1_455
O0 Si0 1.650882 1_555
O1 Si0 1.650882 1_555
O2 Si0 1.650887 1_556
O3 Si0 1.650882 1_555
