# generated using pymatgen
data_MgTi5O10
_symmetry_space_group_name_H-M   'P 1'
_cell_length_a   9.99059244
_cell_length_b   5.22559240
_cell_length_c   7.49752864
_cell_angle_alpha   70.57525965
_cell_angle_beta   90.00000000
_cell_angle_gamma   90.00000000
_symmetry_Int_Tables_number   1
_chemical_formula_structural   MgTi5O10
_chemical_formula_sum   'Mg2 Ti10 O20'
_cell_volume   369.14164863
_cell_formula_units_Z   2
loop_
 _symmetry_equiv_pos_site_id
 _symmetry_equiv_pos_as_xyz
  1  'x, y, z'
loop_
 _atom_site_type_symbol
 _atom_site_label
 _atom_site_symmetry_multiplicity
 _atom_site_fract_x
 _atom_site_fract_y
 _atom_site_fract_z
 _atom_site_occupancy
  Mg  Mg0  1  0.75000000  0.96004051  0.65185571  1
  Mg  Mg1  1  0.25000000  0.03995949  0.34814429  1
  Ti  Ti0  1  0.43827574  0.04567755  0.67900303  1
  Ti  Ti1  1  0.06172426  0.04567755  0.67900303  1
  Ti  Ti2  1  0.93827574  0.95432245  0.32099697  1
  Ti  Ti3  1  0.56172426  0.95432245  0.32099697  1
  Ti  Ti4  1  0.43508920  0.54538778  0.18317608  1
  Ti  Ti5  1  0.06491080  0.54538778  0.18317608  1
  Ti  Ti6  1  0.75000000  0.45684813  0.15398384  1
  Ti  Ti7  1  0.25000000  0.54315187  0.84601616  1
  Ti  Ti8  1  0.56491080  0.45461222  0.81682392  1
  Ti  Ti9  1  0.93508920  0.45461222  0.81682392  1
  O  O0  1  0.61216228  0.18267320  0.72744079  1
  O  O1  1  0.88783772  0.18267320  0.72744079  1
  O  O2  1  0.06712265  0.21839926  0.40437992  1
  O  O3  1  0.43287735  0.21839926  0.40437992  1
  O  O4  1  0.25000000  0.90845554  0.64312553  1
  O  O5  1  0.75000000  0.09154446  0.35687447  1
  O  O6  1  0.56712265  0.78160074  0.59562008  1
  O  O7  1  0.93287735  0.78160074  0.59562008  1
  O  O8  1  0.38783772  0.81732680  0.27255921  1
  O  O9  1  0.11216228  0.81732680  0.27255921  1
  O  O10  1  0.61798620  0.67725641  0.22625192  1
  O  O11  1  0.88201380  0.67725641  0.22625192  1
  O  O12  1  0.06869031  0.71485650  0.90607148  1
  O  O13  1  0.43130969  0.71485650  0.90607148  1
  O  O14  1  0.25000000  0.41580750  0.13043502  1
  O  O15  1  0.75000000  0.58419250  0.86956498  1
  O  O16  1  0.93130969  0.28514350  0.09392852  1
  O  O17  1  0.56869031  0.28514350  0.09392852  1
  O  O18  1  0.38201380  0.32274359  0.77374808  1
  O  O19  1  0.11798620  0.32274359  0.77374808  1
loop_
_geom_bond_atom_site_label_1
_geom_bond_atom_site_label_2
_geom_bond_distance
_geom_bond_site_symmetry_2
Mg0 O0 2.002372 1_565
Mg0 O1 2.002372 1_565
Mg0 O5 2.086302 1_565
Mg0 O15 2.095095 1_555
Mg0 O6 2.155658 1_555
Mg0 O7 2.155658 1_555
Mg1 O8 2.002372 1_545
Mg1 O9 2.002372 1_545
Mg1 O4 2.086302 1_545
Mg1 O14 2.095095 1_555
Mg1 O3 2.155658 1_555
Mg1 O2 2.155658 1_555
O0 Ti8 1.823386 1_555
O0 Ti0 1.958384 1_555
O1 Ti9 1.823386 1_555
O1 Ti1 1.958384 1_655
O2 Ti5 1.945721 1_555
O2 Ti1 1.954717 1_555
O2 Ti2 2.127431 1_445
O3 Ti4 1.945721 1_555
O3 Ti0 1.954717 1_555
O3 Ti3 2.127431 1_545
O4 Ti7 2.006627 1_555
O4 Ti1 2.062267 1_565
O4 Ti0 2.062267 1_565
O5 Ti6 2.006627 1_555
O5 Ti3 2.062267 1_545
O5 Ti2 2.062267 1_545
O6 Ti8 1.945721 1_555
O6 Ti3 1.954717 1_555
O6 Ti0 2.127431 1_565
O7 Ti9 1.945721 1_555
O7 Ti2 1.954717 1_555
O7 Ti1 2.127431 1_665
O8 Ti4 1.823386 1_555
O8 Ti3 1.958384 1_555
O9 Ti5 1.823386 1_555
O9 Ti2 1.958384 1_455
O10 Ti3 1.897590 1_555
O10 Ti6 1.942863 1_555
O10 Ti4 2.016437 1_555
O11 Ti2 1.897590 1_555
O11 Ti6 1.942863 1_555
O11 Ti5 2.016437 1_655
O12 Ti5 1.969346 1_556
O12 Ti1 1.983471 1_565
O12 Ti7 2.134870 1_555
O12 Ti9 2.164251 1_455
O13 Ti4 1.969346 1_556
O13 Ti0 1.983471 1_565
O13 Ti7 2.134870 1_555
O13 Ti8 2.164251 1_555
O14 Ti7 2.011534 1_554
O14 Ti5 2.052395 1_555
O14 Ti4 2.052395 1_555
O15 Ti6 2.011534 1_556
O15 Ti8 2.052395 1_555
O15 Ti9 2.052395 1_555
O16 Ti9 1.969346 1_554
O16 Ti2 1.983471 1_545
O16 Ti6 2.134870 1_555
O16 Ti5 2.164251 1_655
O17 Ti8 1.969346 1_554
O17 Ti3 1.983471 1_545
O17 Ti6 2.134870 1_555
O17 Ti4 2.164251 1_555
O18 Ti0 1.897590 1_555
O18 Ti7 1.942863 1_555
O18 Ti8 2.016437 1_555
O19 Ti1 1.897590 1_555
O19 Ti7 1.942863 1_555
O19 Ti9 2.016437 1_455
