# generated using pymatgen
data_Li3Co3NiO8
_symmetry_space_group_name_H-M   'P 1'
_cell_length_a   5.64224805
_cell_length_b   5.64220134
_cell_length_c   9.24581547
_cell_angle_alpha   89.99477316
_cell_angle_beta   90.00479923
_cell_angle_gamma   60.00104293
_symmetry_Int_Tables_number   1
_chemical_formula_structural   Li3Co3NiO8
_chemical_formula_sum   'Li6 Co6 Ni2 O16'
_cell_volume   254.90664999
_cell_formula_units_Z   2
loop_
 _symmetry_equiv_pos_site_id
 _symmetry_equiv_pos_as_xyz
  1  'x, y, z'
loop_
 _atom_site_type_symbol
 _atom_site_label
 _atom_site_symmetry_multiplicity
 _atom_site_fract_x
 _atom_site_fract_y
 _atom_site_fract_z
 _atom_site_occupancy
  Li  Li0  1  0.16931000  0.16989000  0.44740600  1
  Li  Li1  1  0.16953300  0.66048300  0.44736100  1
  Li  Li2  1  0.66005900  0.17002900  0.44724800  1
  Li  Li3  1  0.33992000  0.83009400  0.94724800  1
  Li  Li4  1  0.83068000  0.33916700  0.94739400  1
  Li  Li5  1  0.83041100  0.83000500  0.94733600  1
  Co  Co0  1  0.16739500  0.16750200  0.71446000  1
  Co  Co1  1  0.16739800  0.66517200  0.71445100  1
  Co  Co2  1  0.66504600  0.16751300  0.71444600  1
  Co  Co3  1  0.33490800  0.83259100  0.21444300  1
  Co  Co4  1  0.83255500  0.33494000  0.21446800  1
  Co  Co5  1  0.83255200  0.83259200  0.21445700  1
  Ni  Ni0  1  0.33362600  0.33322100  0.99227900  1
  Ni  Ni1  1  0.66634800  0.66684200  0.49230300  1
  O  O0  1  0.00004000  0.99996500  0.32196500  1
  O  O1  1  0.15404400  0.15373800  0.10124200  1
  O  O2  1  0.03208700  0.48400100  0.83278600  1
  O  O3  1  0.15404500  0.69223200  0.10133900  1
  O  O4  1  0.00003100  0.99995700  0.82196200  1
  O  O5  1  0.33318800  0.33346600  0.60348400  1
  O  O6  1  0.48409600  0.03189200  0.83264800  1
  O  O7  1  0.48410100  0.48410100  0.83261800  1
  O  O8  1  0.30738600  0.84630300  0.60113600  1
  O  O9  1  0.69257400  0.15372300  0.10111600  1
  O  O10  1  0.51581500  0.51607000  0.33263300  1
  O  O11  1  0.66666400  0.66673200  0.10347000  1
  O  O12  1  0.51581900  0.96821300  0.33260500  1
  O  O13  1  0.84595000  0.30780800  0.60121500  1
  O  O14  1  0.96788600  0.51611100  0.33279100  1
  O  O15  1  0.84595400  0.84623500  0.60132200  1
loop_
_geom_bond_atom_site_label_1
_geom_bond_atom_site_label_2
_geom_bond_distance
_geom_bond_site_symmetry_2
Li0 O14 2.002491 1_455
Li0 O12 2.004935 1_545
Li0 O0 2.022907 1_545
Li0 O13 2.130149 1_455
Li0 O8 2.130154 1_545
Li0 O5 2.154663 1_555
Li1 O14 2.001699 1_455
Li1 O10 2.003761 1_555
Li1 O0 2.023683 1_555
Li1 O8 2.131001 1_555
Li1 O15 2.131972 1_455
Li1 O5 2.153201 1_555
Li2 O10 2.001966 1_555
Li2 O12 2.002305 1_545
Li2 O0 2.025383 1_645
Li2 O13 2.132171 1_555
Li2 O15 2.133117 1_545
Li2 O5 2.153707 1_555
Li3 O6 2.001729 1_565
Li3 O7 2.002120 1_555
Li3 O4 2.024746 1_555
Li3 O1 2.132439 1_566
Li3 O3 2.133185 1_556
Li3 O11 2.152840 1_556
Li4 O2 2.002664 1_655
Li4 O7 2.004800 1_555
Li4 O4 2.023076 1_645
Li4 O9 2.130076 1_556
Li4 O1 2.130086 1_656
Li4 O11 2.155228 1_556
Li5 O2 2.001730 1_655
Li5 O6 2.003438 1_565
Li5 O4 2.024052 1_655
Li5 O9 2.131356 1_566
Li5 O3 2.132142 1_656
Li5 O11 2.153427 1_556
Co0 O8 1.890798 1_545
Co0 O13 1.891085 1_455
Co0 O6 1.898655 1_555
Co0 O2 1.898908 1_555
Co0 O4 1.914657 1_545
Co0 O5 1.918495 1_555
Co1 O8 1.890258 1_555
Co1 O15 1.890452 1_455
Co1 O7 1.898533 1_555
Co1 O2 1.898724 1_555
Co1 O4 1.914333 1_555
Co1 O5 1.918393 1_555
Co2 O15 1.889993 1_545
Co2 O13 1.890084 1_555
Co2 O6 1.898296 1_555
Co2 O7 1.898349 1_555
Co2 O4 1.914947 1_645
Co2 O5 1.918745 1_555
Co3 O3 1.889495 1_555
Co3 O1 1.889585 1_565
Co3 O10 1.897890 1_555
Co3 O12 1.897906 1_555
Co3 O0 1.914741 1_555
Co3 O11 1.918637 1_555
Co4 O9 1.890814 1_555
Co4 O1 1.891442 1_655
Co4 O14 1.898769 1_555
Co4 O10 1.898965 1_555
Co4 O0 1.914798 1_645
Co4 O11 1.918635 1_555
Co5 O9 1.890346 1_565
Co5 O3 1.890867 1_655
Co5 O14 1.898605 1_555
Co5 O12 1.898824 1_555
Co5 O0 1.914493 1_655
Co5 O11 1.918520 1_555
Ni0 O9 2.021992 1_556
Ni0 O1 2.023164 1_556
Ni0 O3 2.023538 1_556
Ni0 O2 2.084450 1_555
Ni0 O6 2.084935 1_555
Ni0 O7 2.085045 1_555
Ni1 O8 2.022293 1_555
Ni1 O13 2.022685 1_555
Ni1 O15 2.023150 1_555
Ni1 O14 2.084882 1_555
Ni1 O10 2.084940 1_555
Ni1 O12 2.085199 1_555
