# generated using pymatgen
data_Li2P5WO15
_symmetry_space_group_name_H-M   'P 1'
_cell_length_a   6.87444030
_cell_length_b   6.87444030
_cell_length_c   13.92492318
_cell_angle_alpha   83.15575700
_cell_angle_beta   83.15575700
_cell_angle_gamma   112.71184372
_symmetry_Int_Tables_number   1
_chemical_formula_structural   Li2P5WO15
_chemical_formula_sum   'Li4 P10 W2 O30'
_cell_volume   592.82662791
_cell_formula_units_Z   2
loop_
 _symmetry_equiv_pos_site_id
 _symmetry_equiv_pos_as_xyz
  1  'x, y, z'
loop_
 _atom_site_type_symbol
 _atom_site_label
 _atom_site_symmetry_multiplicity
 _atom_site_fract_x
 _atom_site_fract_y
 _atom_site_fract_z
 _atom_site_occupancy
  Li  Li0  1  0.76629400  0.24770700  0.70499400  1
  Li  Li1  1  0.24770700  0.76629400  0.20499400  1
  Li  Li2  1  0.20070000  0.46086900  0.56573800  1
  Li  Li3  1  0.46086900  0.20070000  0.06573800  1
  P  P0  1  0.34903200  0.95400400  0.52786100  1
  P  P1  1  0.71097900  0.57775200  0.55736400  1
  P  P2  1  0.61291600  0.82090200  0.83601300  1
  P  P3  1  0.95400400  0.34903200  0.02786100  1
  P  P4  1  0.57775200  0.71097900  0.05736400  1
  P  P5  1  0.82090200  0.61291600  0.33601300  1
  P  P6  1  0.82445000  0.07464400  0.52989100  1
  P  P7  1  0.07464400  0.82445000  0.02989100  1
  P  P8  1  0.22729200  0.43722600  0.82804800  1
  P  P9  1  0.43722600  0.22729200  0.32804800  1
  W  W0  1  0.18182300  0.92728700  0.77562500  1
  W  W1  1  0.92728700  0.18182300  0.27562500  1
  O  O0  1  0.84295500  0.87042000  0.79990800  1
  O  O1  1  0.87042000  0.84295500  0.29990800  1
  O  O2  1  0.82286100  0.51784300  0.63343200  1
  O  O3  1  0.51784300  0.82286100  0.13343200  1
  O  O4  1  0.78302100  0.83220300  0.54413600  1
  O  O5  1  0.83220300  0.78302100  0.04413600  1
  O  O6  1  0.56462500  0.83317100  0.94897400  1
  O  O7  1  0.83317100  0.56462500  0.44897400  1
  O  O8  1  0.52655300  0.96571700  0.77848400  1
  O  O9  1  0.96571700  0.52655300  0.27848400  1
  O  O10  1  0.75250300  0.31087900  0.99009500  1
  O  O11  1  0.31087900  0.75250300  0.49009500  1
  O  O12  1  0.18031900  0.93017900  0.92574200  1
  O  O13  1  0.47643500  0.46504000  0.56579000  1
  O  O14  1  0.93017900  0.18031900  0.42574200  1
  O  O15  1  0.47889600  0.57429500  0.82774300  1
  O  O16  1  0.46504000  0.47643500  0.06579000  1
  O  O17  1  0.57429500  0.47889600  0.32774300  1
  O  O18  1  0.94157200  0.18507000  0.60471500  1
  O  O19  1  0.18507000  0.94157200  0.10471500  1
  O  O20  1  0.58904000  0.07392600  0.55000500  1
  O  O21  1  0.07392600  0.58904000  0.05000500  1
  O  O22  1  0.13094100  0.58686600  0.78777900  1
  O  O23  1  0.58686600  0.13094100  0.28777900  1
  O  O24  1  0.13121200  0.33794500  0.94194800  1
  O  O25  1  0.33794500  0.13121200  0.44194800  1
  O  O26  1  0.21583000  0.26074700  0.77239700  1
  O  O27  1  0.26074700  0.21583000  0.27239700  1
  O  O28  1  0.20749500  0.95235000  0.61911800  1
  O  O29  1  0.95235000  0.20749500  0.11911800  1
loop_
_geom_bond_atom_site_label_1
_geom_bond_atom_site_label_2
_geom_bond_distance
_geom_bond_site_symmetry_2
Li0 O2 1.871296 1_555
Li0 O18 1.931344 1_555
Li0 O8 2.044371 1_545
Li1 O3 1.871296 1_555
Li1 O19 1.931344 1_555
Li1 O9 2.044371 1_455
Li2 O13 1.884727 1_555
Li2 O11 1.958686 1_555
Li2 O18 1.994693 1_455
Li3 O16 1.884727 1_555
Li3 O10 1.958686 1_554
Li3 O19 1.994693 1_545
O0 P2 1.491129 1_555
O0 W0 2.184352 1_655
O1 P5 1.491129 1_555
O1 W1 2.184352 1_565
O2 P1 1.489281 1_555
O3 P4 1.489281 1_555
O4 P6 1.561851 1_565
O4 P1 1.603573 1_555
O5 P7 1.561851 1_655
O5 P4 1.603573 1_555
O6 P2 1.587560 1_555
O6 P4 1.667519 1_556
O7 P5 1.587560 1_555
O7 P1 1.667519 1_555
O8 P2 1.537841 1_555
O8 W0 2.286700 1_555
O9 P5 1.537841 1_555
O9 W1 2.286700 1_555
O10 P3 1.479898 1_556
O11 P0 1.479898 1_555
O12 P7 1.499742 1_556
O12 W0 2.091662 1_555
O13 P1 1.477284 1_555
O14 P6 1.499742 1_555
O14 W1 2.091662 1_555
O15 P2 1.613012 1_555
O15 P8 1.618123 1_555
O16 P4 1.477284 1_555
O17 P5 1.613012 1_555
O17 P9 1.618123 1_555
O18 P6 1.492182 1_555
O19 P7 1.492182 1_555
O20 P6 1.607133 1_555
O20 P0 1.621255 1_545
O21 P7 1.607133 1_555
O21 P3 1.621255 1_455
O22 P8 1.512793 1_555
O22 W0 2.210644 1_555
O23 P9 1.512793 1_555
O23 W1 2.210644 1_555
O24 P8 1.600574 1_555
O24 P3 1.633132 1_456
O25 P9 1.600574 1_555
O25 P0 1.633132 1_545
O26 P8 1.497794 1_555
O26 W0 2.206957 1_545
O27 P9 1.497794 1_555
O27 W1 2.206957 1_455
O28 P0 1.501651 1_555
O28 W0 2.146100 1_555
O29 P3 1.501651 1_555
O29 W1 2.146100 1_555
