# generated using pymatgen
data_Li6V3P8O29
_symmetry_space_group_name_H-M   'P 1'
_cell_length_a   9.81010000
_cell_length_b   9.81972598
_cell_length_c   13.92662847
_cell_angle_alpha   90.12707154
_cell_angle_beta   89.94533983
_cell_angle_gamma   119.93587395
_symmetry_Int_Tables_number   1
_chemical_formula_structural   Li6V3P8O29
_chemical_formula_sum   'Li12 V6 P16 O58'
_cell_volume   1162.59544825
_cell_formula_units_Z   2
loop_
 _symmetry_equiv_pos_site_id
 _symmetry_equiv_pos_as_xyz
  1  'x, y, z'
loop_
 _atom_site_type_symbol
 _atom_site_label
 _atom_site_symmetry_multiplicity
 _atom_site_fract_x
 _atom_site_fract_y
 _atom_site_fract_z
 _atom_site_occupancy
  Li  Li0  1  0.23351700  0.91008800  0.06024900  1
  Li  Li1  1  0.68041200  0.90618600  0.56167900  1
  Li  Li2  1  0.33289600  0.66386000  0.88442500  1
  Li  Li3  1  0.67382400  0.77141300  0.06029000  1
  Li  Li4  1  0.09322300  0.32816300  0.06127300  1
  Li  Li5  1  0.77687800  0.68978300  0.44169200  1
  Li  Li6  1  0.22776000  0.31729800  0.56277500  1
  Li  Li7  1  0.90126000  0.66692100  0.93777600  1
  Li  Li8  1  0.66483200  0.33490000  0.61421200  1
  Li  Li9  1  0.30318500  0.07920600  0.44004200  1
  Li  Li10  1  0.91158000  0.22400900  0.43951700  1
  Li  Li11  1  0.01402000  0.04146200  0.99236500  1
  V  V0  1  0.56596500  0.56653600  0.24860000  1
  V  V1  1  0.43555900  0.43062900  0.75410800  1
  V  V2  1  0.00214600  0.56785700  0.74524000  1
  V  V3  1  0.00036300  0.43341000  0.25035800  1
  V  V4  1  0.43284600  0.99902500  0.24848800  1
  V  V5  1  0.56700700  0.00415300  0.75471800  1
  P  P0  1  0.22398700  0.91048300  0.84291200  1
  P  P1  1  0.08571000  0.76919000  0.34044100  1
  P  P2  1  0.67876400  0.91265700  0.34350200  1
  P  P3  1  0.33310500  0.66659900  0.12520500  1
  P  P4  1  0.33857000  0.66643700  0.62850800  1
  P  P5  1  0.68305400  0.77366300  0.84217700  1
  P  P6  1  0.76894400  0.67731100  0.65662300  1
  P  P7  1  0.08995000  0.31678000  0.84469700  1
  P  P8  1  0.91318100  0.68319600  0.15574400  1
  P  P9  1  0.23451400  0.32092900  0.34382800  1
  P  P10  1  0.30932500  0.22470000  0.15829000  1
  P  P11  1  0.66551400  0.33240400  0.37148700  1
  P  P12  1  0.67143900  0.33773100  0.87326500  1
  P  P13  1  0.31927600  0.08892900  0.65641200  1
  P  P14  1  0.90870000  0.22926900  0.65893600  1
  P  P15  1  0.77543600  0.08507000  0.15854900  1
  O  O0  1  0.24466600  0.00109900  0.56678200  1
  O  O1  1  0.25283900  0.91421200  0.34074100  1
  O  O2  1  0.99446600  0.76876700  0.06469200  1
  O  O3  1  0.07714500  0.74454300  0.83862500  1
  O  O4  1  0.37276600  0.89236300  0.83154500  1
  O  O5  1  0.31974900  0.80987900  0.16368200  1
  O  O6  1  0.51842100  0.90027100  0.32171100  1
  O  O7  1  0.79366500  0.99602400  0.07663400  1
  O  O8  1  0.66315700  0.91792100  0.84029100  1
  O  O9  1  0.18533800  0.65520100  0.67478600  1
  O  O10  1  0.09531100  0.61758400  0.32136700  1
  O  O11  1  0.48198300  0.81998300  0.67147500  1
  O  O12  1  0.33398500  0.66717500  0.01671600  1
  O  O13  1  0.33880700  0.66310500  0.52187400  1
  O  O14  1  0.48974900  0.67994100  0.16384200  1
  O  O15  1  0.10047100  0.47906600  0.83437400  1
  O  O16  1  0.18936300  0.51074300  0.16329300  1
  O  O17  1  0.66279200  0.74808600  0.34200100  1
  O  O18  1  0.78463800  0.78443500  0.74884700  1
  O  O19  1  0.75202700  0.75665000  0.56895600  1
  O  O20  1  0.77121800  0.76963100  0.93028900  1
  O  O21  1  0.51802800  0.62467400  0.83239600  1
  O  O22  1  0.34407400  0.52087300  0.67148200  1
  O  O23  1  0.74490500  0.66245100  0.16127200  1
  O  O24  1  0.38163200  0.48159200  0.32130500  1
  O  O25  1  0.08529000  0.33606500  0.34236900  1
  O  O26  1  0.00733700  0.79550700  0.24444700  1
  O  O27  1  0.98984400  0.75808900  0.42569800  1
  O  O28  1  0.00440500  0.24779400  0.57005100  1
  O  O29  1  0.91549400  0.66052000  0.65755800  1
  O  O30  1  0.62415500  0.51124200  0.67106000  1
  O  O31  1  0.25570200  0.34014000  0.83747900  1
  O  O32  1  0.67105200  0.48527800  0.33217800  1
  O  O33  1  0.46446000  0.37968500  0.16694900  1
  O  O34  1  0.20095800  0.20744100  0.07740400  1
  O  O35  1  0.25072300  0.24988500  0.43557400  1
  O  O36  1  0.21375300  0.20379000  0.25785400  1
  O  O37  1  0.33203700  0.25269600  0.65969500  1
  O  O38  1  0.82089500  0.48498300  0.83000600  1
  O  O39  1  0.90562300  0.52580000  0.17044800  1
  O  O40  1  0.52562700  0.34076100  0.82743100  1
  O  O41  1  0.67356900  0.34545200  0.97960300  1
  O  O42  1  0.66404300  0.33272900  0.47976700  1
  O  O43  1  0.51281300  0.18504400  0.33215700  1
  O  O44  1  0.88138200  0.37077200  0.67332600  1
  O  O45  1  0.81410600  0.32621100  0.33459400  1
  O  O46  1  0.33849500  0.08250100  0.16029800  1
  O  O47  1  0.21385800  0.99980100  0.74946900  1
  O  O48  1  0.22026800  0.99245600  0.93299400  1
  O  O49  1  0.48727700  0.11377700  0.67416000  1
  O  O50  1  0.66408900  0.18579900  0.82902800  1
  O  O51  1  0.62015300  0.08505200  0.16725600  1
  O  O52  1  0.91766000  0.25633000  0.16207200  1
  O  O53  1  0.00872800  0.22758700  0.93385600  1
  O  O54  1  0.99643500  0.21335500  0.75137400  1
  O  O55  1  0.74692100  0.07824000  0.65706700  1
  O  O56  1  0.75072500  0.00021700  0.43558200  1
  O  O57  1  0.79590000  0.00911800  0.25772600  1
loop_
_geom_bond_atom_site_label_1
_geom_bond_atom_site_label_2
_geom_bond_distance
_geom_bond_site_symmetry_2
Li0 O48 1.980816 1_554
Li0 O46 2.029897 1_565
Li0 O2 2.044802 1_455
Li0 O5 2.144369 1_555
Li1 O19 1.921061 1_555
Li1 O56 1.944607 1_565
Li1 O55 1.984041 1_565
Li1 O11 2.280222 1_555
Li2 O12 1.842530 1_556
Li2 O21 2.159929 1_555
Li2 O15 2.201259 1_555
Li2 O4 2.204764 1_555
Li3 O7 1.925874 1_555
Li3 O20 2.050426 1_554
Li3 O23 2.088562 1_555
Li3 O14 2.128228 1_555
Li4 O34 1.955735 1_555
Li4 O53 1.997317 1_554
Li4 O52 2.054687 1_455
Li4 O16 2.103855 1_555
Li5 O27 1.861586 1_555
Li5 O19 1.945665 1_555
Li5 O17 2.038119 1_555
Li5 O32 2.312002 1_555
Li6 O35 1.941643 1_555
Li6 O28 1.945372 1_555
Li6 O37 1.981133 1_555
Li6 O22 2.302919 1_555
Li7 O20 1.985067 1_555
Li7 O2 2.010701 1_556
Li7 O3 2.037737 1_655
Li7 O38 2.156530 1_555
Li8 O42 1.872419 1_555
Li8 O30 2.113657 1_555
Li8 O44 2.137755 1_555
Li8 O49 2.162469 1_555
Li9 O0 1.896811 1_555
Li9 O35 1.984746 1_555
Li9 O1 1.993531 1_545
Li9 O43 2.331209 1_555
Li10 O56 1.964946 1_555
Li10 O28 1.994377 1_655
Li10 O25 2.018899 1_655
Li10 O45 2.241368 1_555
Li11 O53 2.026946 1_555
Li11 O34 2.105841 1_556
Li11 O7 2.298733 1_446
Li11 O48 2.444558 1_545
O0 P13 1.484793 1_555
O1 P1 1.544606 1_555
O1 V4 1.998797 1_555
O2 P8 1.511268 1_555
O3 P0 1.546248 1_555
O3 V2 1.990161 1_555
O4 P0 1.563841 1_555
O4 V5 1.973433 1_565
O5 P3 1.569836 1_555
O5 V4 2.002925 1_555
O6 P2 1.546273 1_555
O6 V4 1.871783 1_555
O7 P15 1.499748 1_565
O8 P5 1.523684 1_555
O8 V5 1.957235 1_565
O9 P4 1.587500 1_555
O9 V2 1.841200 1_555
O10 P1 1.560094 1_555
O10 V3 1.851727 1_555
O11 P4 1.578369 1_555
O11 V5 1.948681 1_565
O12 P3 1.510909 1_555
O13 P4 1.485365 1_555
O14 P3 1.571130 1_555
O14 V0 2.007738 1_555
O15 P7 1.551684 1_555
O15 V2 2.019410 1_555
O16 P3 1.568549 1_555
O16 V3 2.019687 1_555
O17 P2 1.543928 1_555
O17 V0 2.018530 1_555
O18 P5 1.608303 1_555
O18 P6 1.616356 1_555
O19 P6 1.502924 1_555
O20 P5 1.513874 1_555
O21 P5 1.554194 1_555
O21 V1 1.981904 1_555
O22 P4 1.576440 1_555
O22 V1 1.927472 1_555
O23 P8 1.561017 1_555
O23 V0 1.948989 1_555
O24 P9 1.548922 1_555
O24 V0 1.867041 1_555
O25 P9 1.543614 1_555
O25 V3 2.013006 1_555
O26 P8 1.604668 1_455
O26 P1 1.626941 1_555
O27 P1 1.483996 1_655
O28 P14 1.508383 1_455
O29 P6 1.526723 1_555
O29 V2 1.954635 1_655
O30 P6 1.551253 1_555
O30 V1 1.981309 1_555
O31 P7 1.527828 1_555
O31 V1 1.920083 1_555
O32 P11 1.574286 1_555
O32 V0 1.970201 1_555
O33 P10 1.527989 1_555
O33 V0 1.954630 1_555
O34 P10 1.499812 1_555
O35 P9 1.503191 1_555
O36 P9 1.599606 1_555
O36 P10 1.628029 1_555
O37 P13 1.550050 1_555
O37 V1 2.008596 1_555
O38 P12 1.577879 1_555
O38 V2 1.942555 1_655
O39 P8 1.524226 1_555
O39 V3 1.942526 1_655
O40 P12 1.580748 1_555
O40 V1 1.840150 1_555
O41 P12 1.482335 1_555
O42 P11 1.508042 1_555
O43 P11 1.572431 1_555
O43 V4 1.967724 1_545
O44 P14 1.553406 1_555
O44 V2 1.964017 1_655
O45 P11 1.574639 1_555
O45 V3 1.976024 1_655
O46 P10 1.559318 1_555
O46 V4 1.949610 1_545
O47 P0 1.601541 1_555
O47 P13 1.616831 1_565
O48 P0 1.499297 1_555
O49 P13 1.560780 1_555
O49 V5 1.968912 1_555
O50 P12 1.580899 1_555
O50 V5 1.859535 1_555
O51 P15 1.527957 1_555
O51 V4 1.954706 1_545
O52 P15 1.560512 1_555
O52 V3 1.943718 1_655
O53 P7 1.500064 1_555
O54 P14 1.599913 1_555
O54 P7 1.621337 1_655
O55 P14 1.539379 1_555
O55 V5 2.052347 1_555
O56 P2 1.507690 1_545
O57 P2 1.600230 1_545
O57 P15 1.630587 1_555
