# generated using pymatgen
data_H8C2S3(NO3)2
_symmetry_space_group_name_H-M   'P 1'
_cell_length_a   10.05487400
_cell_length_b   9.99816800
_cell_length_c   11.93760292
_cell_angle_alpha   58.55843664
_cell_angle_beta   90.00000000
_cell_angle_gamma   90.00000000
_symmetry_Int_Tables_number   1
_chemical_formula_structural   H8C2S3(NO3)2
_chemical_formula_sum   'H32 C8 S12 N8 O24'
_cell_volume   1023.88481684
_cell_formula_units_Z   4
loop_
 _symmetry_equiv_pos_site_id
 _symmetry_equiv_pos_as_xyz
  1  'x, y, z'
loop_
 _atom_site_type_symbol
 _atom_site_label
 _atom_site_symmetry_multiplicity
 _atom_site_fract_x
 _atom_site_fract_y
 _atom_site_fract_z
 _atom_site_occupancy
  H  H0  1  0.36295700  0.94891700  0.60666800  1
  H  H1  1  0.63704300  0.05108300  0.39333200  1
  H  H2  1  0.36295700  0.05108300  0.89333200  1
  H  H3  1  0.63704300  0.94891700  0.10666800  1
  H  H4  1  0.29080000  0.44646600  0.38207100  1
  H  H5  1  0.70920000  0.55353400  0.61792900  1
  H  H6  1  0.29080000  0.55353400  0.11792900  1
  H  H7  1  0.70920000  0.44646600  0.88207100  1
  H  H8  1  0.40304500  0.31707300  0.36298900  1
  H  H9  1  0.59695500  0.68292700  0.63701100  1
  H  H10  1  0.40304500  0.68292700  0.13701100  1
  H  H11  1  0.59695500  0.31707300  0.86298900  1
  H  H12  1  0.43786300  0.37081700  0.48272200  1
  H  H13  1  0.56213700  0.62918300  0.51727800  1
  H  H14  1  0.43786300  0.62918300  0.01727800  1
  H  H15  1  0.56213700  0.37081700  0.98272200  1
  H  H16  1  0.84271200  0.29813400  0.26629300  1
  H  H17  1  0.15728800  0.70186600  0.73370700  1
  H  H18  1  0.84271200  0.70186600  0.23370700  1
  H  H19  1  0.15728800  0.29813400  0.76629300  1
  H  H20  1  0.94458500  0.27585300  0.58371100  1
  H  H21  1  0.05541500  0.72414700  0.41628900  1
  H  H22  1  0.94458500  0.72414700  0.91628900  1
  H  H23  1  0.05541500  0.27585300  0.08371100  1
  H  H24  1  0.90696000  0.09133100  0.59604000  1
  H  H25  1  0.09304000  0.90866900  0.40396000  1
  H  H26  1  0.90696000  0.90866900  0.90396000  1
  H  H27  1  0.09304000  0.09133100  0.09604000  1
  H  H28  1  0.79922900  0.16587000  0.67339500  1
  H  H29  1  0.20077100  0.83413000  0.32660500  1
  H  H30  1  0.79922900  0.83413000  0.82660500  1
  H  H31  1  0.20077100  0.16587000  0.17339500  1
  C  C0  1  0.35994400  0.34725700  0.43125300  1
  C  C1  1  0.64005600  0.65274300  0.56874700  1
  C  C2  1  0.35994400  0.65274300  0.06874700  1
  C  C3  1  0.64005600  0.34725700  0.93125300  1
  C  C4  1  0.86597000  0.19598300  0.59072200  1
  C  C5  1  0.13403000  0.80401700  0.40927800  1
  C  C6  1  0.86597000  0.80401700  0.90927800  1
  C  C7  1  0.13403000  0.19598300  0.09072200  1
  S  S0  1  0.26373300  0.18534200  0.54738900  1
  S  S1  1  0.73626700  0.81465800  0.45261100  1
  S  S2  1  0.26373300  0.81465800  0.95261100  1
  S  S3  1  0.73626700  0.18534200  0.04738900  1
  S  S4  1  0.47159000  0.00000000  0.75000000  1
  S  S5  1  0.52841000  0.00000000  0.25000000  1
  S  S6  1  0.76531500  0.29649400  0.44918500  1
  S  S7  1  0.23468500  0.70350600  0.55081500  1
  S  S8  1  0.76531500  0.70350600  0.05081500  1
  S  S9  1  0.23468500  0.29649400  0.94918500  1
  S  S10  1  0.96705900  0.50000000  0.25000000  1
  S  S11  1  0.03294100  0.50000000  0.75000000  1
  N  N0  1  0.37568400  0.03923900  0.62374800  1
  N  N1  1  0.62431600  0.96076100  0.37625200  1
  N  N2  1  0.37568400  0.96076100  0.87625200  1
  N  N3  1  0.62431600  0.03923900  0.12374800  1
  N  N4  1  0.87192200  0.34027800  0.32477500  1
  N  N5  1  0.12807800  0.65972200  0.67522500  1
  N  N6  1  0.87192200  0.65972200  0.17522500  1
  N  N7  1  0.12807800  0.34027800  0.82477500  1
  O  O0  1  0.17785100  0.13462200  0.47994000  1
  O  O1  1  0.82214900  0.86537800  0.52006000  1
  O  O2  1  0.17785100  0.86537800  0.02006000  1
  O  O3  1  0.82214900  0.13462200  0.97994000  1
  O  O4  1  0.20912300  0.21762600  0.64283300  1
  O  O5  1  0.79087700  0.78237400  0.35716700  1
  O  O6  1  0.20912300  0.78237400  0.85716700  1
  O  O7  1  0.79087700  0.21762600  0.14283300  1
  O  O8  1  0.53979700  0.14096300  0.72046700  1
  O  O9  1  0.46020300  0.85903700  0.27953300  1
  O  O10  1  0.53979700  0.85903700  0.77953300  1
  O  O11  1  0.46020300  0.14096300  0.22046700  1
  O  O12  1  0.67214700  0.18845200  0.44568100  1
  O  O13  1  0.32785300  0.81154800  0.55431900  1
  O  O14  1  0.67214700  0.81154800  0.05431900  1
  O  O15  1  0.32785300  0.18845200  0.94568100  1
  O  O16  1  0.71717800  0.43953500  0.43590100  1
  O  O17  1  0.28282200  0.56046500  0.56409900  1
  O  O18  1  0.71717800  0.56046500  0.06409900  1
  O  O19  1  0.28282200  0.43953500  0.93590100  1
  O  O20  1  0.03488300  0.51248100  0.34978600  1
  O  O21  1  0.96511700  0.48751900  0.65021400  1
  O  O22  1  0.03488300  0.48751900  0.15021400  1
  O  O23  1  0.96511700  0.51248100  0.84978600  1
loop_
_geom_bond_atom_site_label_1
_geom_bond_atom_site_label_2
_geom_bond_distance
_geom_bond_site_symmetry_2
H0 N0 1.032254 1_565
H1 N1 1.032254 1_545
H2 N2 1.032254 1_545
H3 N3 1.032254 1_565
H16 N4 1.028637 1_555
H17 N5 1.028637 1_555
H18 N6 1.028637 1_555
H19 N7 1.028637 1_555
C0 H12 1.094442 1_555
C0 H8 1.095230 1_555
C0 H4 1.097443 1_555
C0 S0 1.771201 1_555
C1 H13 1.094442 1_555
C1 H9 1.095230 1_555
C1 H5 1.097443 1_555
C1 S1 1.771201 1_555
C2 H14 1.094442 1_555
C2 H10 1.095230 1_555
C2 H6 1.097443 1_555
C2 S2 1.771201 1_554
C3 H15 1.094442 1_555
C3 H11 1.095230 1_555
C3 H7 1.097443 1_555
C3 S3 1.771201 1_556
C4 H24 1.095172 1_555
C4 H20 1.095354 1_555
C4 H28 1.097725 1_555
C4 S6 1.765666 1_555
C5 H25 1.095172 1_555
C5 H21 1.095354 1_555
C5 H29 1.097725 1_555
C5 S7 1.765666 1_555
C6 H26 1.095172 1_555
C6 H22 1.095354 1_555
C6 H30 1.097725 1_555
C6 S8 1.765666 1_556
C7 H27 1.095172 1_555
C7 H23 1.095354 1_555
C7 H31 1.097725 1_555
C7 S9 1.765666 1_554
N0 S4 1.654830 1_555
N0 S0 1.686027 1_555
N1 S5 1.654830 1_565
N1 S1 1.686027 1_555
N2 S4 1.654830 1_565
N2 S2 1.686027 1_555
N3 S5 1.654830 1_555
N3 S3 1.686027 1_555
N4 S10 1.665804 1_555
N4 S6 1.693538 1_555
N5 S11 1.665804 1_555
N5 S7 1.693538 1_555
N6 S10 1.665804 1_555
N6 S8 1.693538 1_555
N7 S11 1.665804 1_555
N7 S9 1.693538 1_555
O0 S0 1.441227 1_555
O1 S1 1.441227 1_555
O2 S2 1.441227 1_554
O3 S3 1.441227 1_556
O4 S0 1.444832 1_555
O5 S1 1.444832 1_555
O6 S2 1.444832 1_555
O7 S3 1.444832 1_555
O8 S4 1.436172 1_555
O9 S5 1.436172 1_565
O10 S4 1.436172 1_565
O11 S5 1.436172 1_555
O12 S6 1.446841 1_555
O13 S7 1.446841 1_555
O14 S8 1.446841 1_555
O15 S9 1.446841 1_555
O16 S6 1.438101 1_555
O17 S7 1.438101 1_555
O18 S8 1.438101 1_555
O19 S9 1.438101 1_555
O20 S10 1.433420 1_455
O21 S11 1.433420 1_655
O22 S10 1.433420 1_455
O23 S11 1.433420 1_655
