# generated using pymatgen
data_Li14Mn9(P2O7)8
_symmetry_space_group_name_H-M   'P 1'
_cell_length_a   10.90907266
_cell_length_b   9.80556530
_cell_length_c   13.06488591
_cell_angle_alpha   69.23538144
_cell_angle_beta   116.71550553
_cell_angle_gamma   107.24390614
_symmetry_Int_Tables_number   1
_chemical_formula_structural   Li14Mn9(P2O7)8
_chemical_formula_sum   'Li14 Mn9 P16 O56'
_cell_volume   1151.44722040
_cell_formula_units_Z   1
loop_
 _symmetry_equiv_pos_site_id
 _symmetry_equiv_pos_as_xyz
  1  'x, y, z'
loop_
 _atom_site_type_symbol
 _atom_site_label
 _atom_site_symmetry_multiplicity
 _atom_site_fract_x
 _atom_site_fract_y
 _atom_site_fract_z
 _atom_site_occupancy
  Li  Li0  1  0.37918600  0.54800500  0.41031500  1
  Li  Li1  1  0.62400900  0.95499900  0.08768800  1
  Li  Li2  1  0.37599100  0.04500100  0.91231200  1
  Li  Li3  1  0.86165300  0.06403500  0.40430400  1
  Li  Li4  1  0.13834700  0.93596500  0.59569600  1
  Li  Li5  1  0.49964500  0.63704300  0.18436800  1
  Li  Li6  1  0.51178700  0.13753800  0.67790800  1
  Li  Li7  1  0.98090800  0.85016800  0.10953300  1
  Li  Li8  1  0.48821300  0.86246200  0.32209200  1
  Li  Li9  1  0.14555100  0.43108600  0.10208400  1
  Li  Li10  1  0.50035500  0.36295700  0.81563200  1
  Li  Li11  1  0.85444900  0.56891400  0.89791600  1
  Li  Li12  1  0.62081400  0.45199500  0.58968500  1
  Li  Li13  1  0.01909200  0.14983200  0.89046700  1
  Mn  Mn0  1  0.78767900  0.30532400  0.08261700  1
  Mn  Mn1  1  0.72515000  0.43079300  0.28901100  1
  Mn  Mn2  1  0.21232100  0.69467600  0.91738300  1
  Mn  Mn3  1  0.74190200  0.93833400  0.79917400  1
  Mn  Mn4  1  0.27485000  0.56920700  0.71098900  1
  Mn  Mn5  1  0.25809800  0.06166600  0.20082600  1
  Mn  Mn6  1  0.21172900  0.19372100  0.41746400  1
  Mn  Mn7  1  0.78827100  0.80627900  0.58253600  1
  Mn  Mn8  1  0.00000000  0.50000000  0.50000000  1
  P  P0  1  0.69857900  0.64226000  0.00955200  1
  P  P1  1  0.30142100  0.35774000  0.99044800  1
  P  P2  1  0.05503900  0.47335800  0.27590100  1
  P  P3  1  0.05657300  0.97549300  0.77396300  1
  P  P4  1  0.20678000  0.23391400  0.66121500  1
  P  P5  1  0.29780700  0.85120500  0.49101800  1
  P  P6  1  0.94496100  0.52664300  0.72409900  1
  P  P7  1  0.53371800  0.18148500  0.13399500  1
  P  P8  1  0.53843700  0.68792800  0.63442300  1
  P  P9  1  0.79322000  0.76608600  0.33878500  1
  P  P10  1  0.94342700  0.02450700  0.22603700  1
  P  P11  1  0.79145300  0.27154100  0.83678200  1
  P  P12  1  0.46628200  0.81851500  0.86600500  1
  P  P13  1  0.46156300  0.31207200  0.36557700  1
  P  P14  1  0.70219300  0.14879500  0.50898200  1
  P  P15  1  0.20854700  0.72845900  0.16321800  1
  O  O0  1  0.00499300  0.09149100  0.33238700  1
  O  O1  1  0.54732200  0.68241400  0.91012700  1
  O  O2  1  0.90223900  0.84600700  0.27221600  1
  O  O3  1  0.27596500  0.97823600  0.52147300  1
  O  O4  1  0.69302500  0.10545400  0.62958400  1
  O  O5  1  0.99353600  0.40525400  0.17009300  1
  O  O6  1  0.20102500  0.70622700  0.52087400  1
  O  O7  1  0.95610300  0.96481200  0.82903600  1
  O  O8  1  0.54528900  0.17836300  0.41052600  1
  O  O9  1  0.71597300  0.51563800  0.97596200  1
  O  O10  1  0.90811200  0.34857100  0.77519600  1
  O  O11  1  0.09188800  0.65142900  0.22480400  1
  O  O12  1  0.31162600  0.24828100  0.28984600  1
  O  O13  1  0.72403500  0.02176400  0.47852700  1
  O  O14  1  0.80637300  0.57619300  0.63472200  1
  O  O15  1  0.30697500  0.89454600  0.37041600  1
  O  O16  1  0.68790200  0.59733400  0.12938100  1
  O  O17  1  0.45267800  0.31758600  0.08987300  1
  O  O18  1  0.04715200  0.54562900  0.66752900  1
  O  O19  1  0.19342800  0.92150100  0.86407900  1
  O  O20  1  0.83904000  0.84583100  0.43524300  1
  O  O21  1  0.19579100  0.21749100  0.01133600  1
  O  O22  1  0.46938300  0.55410500  0.70543700  1
  O  O23  1  0.46610000  0.84989900  0.97366400  1
  O  O24  1  0.31627000  0.75401200  0.79130400  1
  O  O25  1  0.45471100  0.82163700  0.58947400  1
  O  O26  1  0.09776100  0.15399300  0.72778400  1
  O  O27  1  0.35367000  0.70334300  0.25730800  1
  O  O28  1  0.46245500  0.05006700  0.20460300  1
  O  O29  1  0.64668000  0.78888000  0.24691500  1
  O  O30  1  0.17872100  0.88610200  0.11219200  1
  O  O31  1  0.28402700  0.48436200  0.02403800  1
  O  O32  1  0.53754500  0.94993300  0.79539700  1
  O  O33  1  0.31209800  0.40266600  0.87061900  1
  O  O34  1  0.81933800  0.60583500  0.38952900  1
  O  O35  1  0.95284800  0.45437100  0.33247100  1
  O  O36  1  0.68373000  0.24598800  0.20869600  1
  O  O37  1  0.46089400  0.34327000  0.47350500  1
  O  O38  1  0.82127900  0.11389800  0.88780800  1
  O  O39  1  0.18066200  0.39416500  0.61047100  1
  O  O40  1  0.00646400  0.59474600  0.82990700  1
  O  O41  1  0.80657200  0.07849900  0.13592100  1
  O  O42  1  0.19362700  0.42380700  0.36527800  1
  O  O43  1  0.35332000  0.21112000  0.75308500  1
  O  O44  1  0.99500700  0.90850900  0.66761300  1
  O  O45  1  0.16651000  0.64694000  0.06884000  1
  O  O46  1  0.68837400  0.75171900  0.71015400  1
  O  O47  1  0.53390000  0.15010100  0.02633600  1
  O  O48  1  0.83349000  0.35306000  0.93116000  1
  O  O49  1  0.04389700  0.03518800  0.17096400  1
  O  O50  1  0.53061700  0.44589500  0.29456300  1
  O  O51  1  0.79897500  0.29377300  0.47912600  1
  O  O52  1  0.53910600  0.65673000  0.52649500  1
  O  O53  1  0.16096000  0.15416900  0.56475700  1
  O  O54  1  0.64633000  0.29665700  0.74269200  1
  O  O55  1  0.80420900  0.78250900  0.98866400  1
loop_
_geom_bond_atom_site_label_1
_geom_bond_atom_site_label_2
_geom_bond_distance
_geom_bond_site_symmetry_2
Li0 O42 1.975501 1_555
Li0 O27 1.996424 1_555
Li0 O52 2.036636 1_555
Li0 O37 2.174953 1_555
Li1 O41 1.952641 1_565
Li1 O23 1.994361 1_554
Li1 O29 2.101332 1_555
Li1 O47 2.141936 1_565
Li2 O19 1.952641 1_545
Li2 O47 1.994361 1_556
Li2 O43 2.101332 1_555
Li2 O23 2.141936 1_545
Li3 O20 1.991400 1_545
Li3 O13 2.005252 1_555
Li3 O0 2.071848 1_655
Li4 O53 1.991400 1_565
Li4 O3 2.005252 1_555
Li4 O44 2.071848 1_455
Li5 O50 1.929939 1_555
Li5 O29 1.930173 1_555
Li5 O27 2.506826 1_555
Li6 O32 1.932778 1_545
Li6 O54 1.940803 1_555
Li6 O4 2.457357 1_555
Li7 O55 1.974155 1_554
Li7 O49 2.050660 1_665
Li7 O30 2.067029 1_655
Li7 O11 2.282520 1_655
Li7 O2 2.610260 1_555
Li8 O28 1.932778 1_565
Li8 O27 1.940803 1_555
Li8 O15 2.457357 1_555
Li9 O45 1.967570 1_555
Li9 O31 2.033235 1_555
Li9 O5 2.126021 1_455
Li10 O22 1.929939 1_555
Li10 O43 1.930173 1_555
Li10 O54 2.506826 1_555
Li11 O48 1.967570 1_555
Li11 O9 2.033235 1_555
Li11 O40 2.126021 1_655
Li12 O14 1.975501 1_555
Li12 O54 1.996424 1_555
Li12 O37 2.036636 1_555
Li12 O52 2.174953 1_555
Li13 O21 1.974155 1_556
Li13 O7 2.050660 1_445
Li13 O38 2.067029 1_455
Li13 O10 2.282520 1_455
Li13 O26 2.610260 1_555
Mn0 O48 2.116149 1_554
Mn0 O5 2.119262 1_555
Mn0 O41 2.125735 1_555
Mn0 O9 2.178360 1_554
Mn0 O36 2.224072 1_555
Mn0 O47 2.643260 1_555
Mn1 O16 2.097136 1_555
Mn1 O50 2.205256 1_555
Mn1 O36 2.241758 1_555
Mn1 O35 2.242867 1_555
Mn1 O34 2.250732 1_555
Mn1 O51 2.258287 1_555
Mn2 O45 2.116149 1_556
Mn2 O40 2.119262 1_555
Mn2 O19 2.125735 1_555
Mn2 O31 2.178360 1_556
Mn2 O24 2.224072 1_555
Mn2 O23 2.643260 1_555
Mn3 O7 2.138313 1_555
Mn3 O38 2.163901 1_565
Mn3 O4 2.181790 1_565
Mn3 O32 2.243387 1_555
Mn3 O46 2.303676 1_555
Mn3 O55 2.312178 1_555
Mn4 O33 2.097136 1_555
Mn4 O22 2.205256 1_555
Mn4 O24 2.241758 1_555
Mn4 O18 2.242867 1_555
Mn4 O39 2.250732 1_555
Mn4 O6 2.258287 1_555
Mn5 O49 2.138313 1_555
Mn5 O30 2.163901 1_545
Mn5 O15 2.181790 1_545
Mn5 O28 2.243387 1_555
Mn5 O12 2.303676 1_555
Mn5 O21 2.312178 1_555
Mn6 O53 2.112364 1_555
Mn6 O0 2.126607 1_555
Mn6 O42 2.155536 1_555
Mn6 O3 2.188141 1_545
Mn6 O12 2.215706 1_555
Mn6 O37 2.585255 1_555
Mn7 O20 2.112364 1_555
Mn7 O44 2.126607 1_555
Mn7 O14 2.155536 1_555
Mn7 O13 2.188141 1_565
Mn7 O46 2.215706 1_555
Mn7 O52 2.585255 1_555
Mn8 O39 2.153449 1_555
Mn8 O34 2.153449 1_455
Mn8 O35 2.191125 1_455
Mn8 O18 2.191125 1_555
Mn8 O51 2.489355 1_455
Mn8 O6 2.489355 1_555
O0 P10 1.536088 1_455
O1 P12 1.609566 1_555
O1 P0 1.631093 1_556
O2 P10 1.630376 1_565
O2 P9 1.636805 1_555
O3 P5 1.542489 1_555
O4 P14 1.521505 1_555
O5 P2 1.536899 1_655
O6 P5 1.541113 1_555
O7 P3 1.522350 1_655
O8 P13 1.606193 1_555
O8 P14 1.648833 1_555
O9 P0 1.539827 1_556
O10 P6 1.629333 1_555
O10 P11 1.660538 1_555
O11 P2 1.629325 1_555
O11 P15 1.660538 1_555
O12 P13 1.556523 1_555
O13 P14 1.542489 1_555
O14 P6 1.526840 1_555
O15 P5 1.521505 1_555
O16 P0 1.517598 1_555
O17 P7 1.609566 1_555
O17 P1 1.631093 1_554
O18 P6 1.530982 1_455
O19 P3 1.530231 1_555
O20 P9 1.532983 1_555
O21 P1 1.539695 1_554
O22 P8 1.526195 1_555
O23 P12 1.543660 1_555
O24 P12 1.555196 1_555
O25 P8 1.606193 1_555
O25 P5 1.648833 1_555
O26 P3 1.630376 1_545
O26 P4 1.636805 1_555
O27 P15 1.531288 1_555
O28 P7 1.524430 1_555
O29 P9 1.530551 1_555
O30 P15 1.520594 1_555
O31 P1 1.539827 1_554
O32 P12 1.524430 1_555
O33 P1 1.517598 1_555
O34 P9 1.531923 1_555
O35 P2 1.530979 1_655
O36 P7 1.555196 1_555
O37 P13 1.548664 1_555
O38 P11 1.520594 1_555
O39 P4 1.531923 1_555
O40 P6 1.536893 1_455
O41 P10 1.530231 1_555
O42 P2 1.526844 1_555
O43 P4 1.530551 1_555
O44 P3 1.536088 1_655
O45 P15 1.530604 1_555
O46 P8 1.556523 1_555
O47 P7 1.543660 1_555
O48 P11 1.530604 1_555
O49 P10 1.522350 1_455
O50 P13 1.526195 1_555
O51 P14 1.541113 1_555
O52 P8 1.548664 1_555
O53 P4 1.532983 1_555
O54 P11 1.531288 1_555
O55 P0 1.539695 1_556
