# generated using pymatgen
data_Ti19O30
_symmetry_space_group_name_H-M   'P 1'
_cell_length_a   5.07803155
_cell_length_b   5.46465669
_cell_length_c   21.33538931
_cell_angle_alpha   93.94648441
_cell_angle_beta   96.84467509
_cell_angle_gamma   117.74019169
_symmetry_Int_Tables_number   1
_chemical_formula_structural   Ti19O30
_chemical_formula_sum   'Ti19 O30'
_cell_volume   515.03916108
_cell_formula_units_Z   1
loop_
 _symmetry_equiv_pos_site_id
 _symmetry_equiv_pos_as_xyz
  1  'x, y, z'
loop_
 _atom_site_type_symbol
 _atom_site_label
 _atom_site_symmetry_multiplicity
 _atom_site_fract_x
 _atom_site_fract_y
 _atom_site_fract_z
 _atom_site_occupancy
  Ti  Ti0  1  0.59966859  0.11008131  0.06483530  1
  Ti  Ti1  1  0.97373203  0.79035358  0.16253037  1
  Ti  Ti2  1  0.78498766  0.20215848  0.36811572  1
  Ti  Ti3  1  0.81447380  0.09801799  0.53085400  1
  Ti  Ti4  1  0.98846537  0.30479359  0.66990276  1
  Ti  Ti5  1  0.61289040  0.00030161  0.22845610  1
  Ti  Ti6  1  0.38343433  0.50167728  0.26875822  1
  Ti  Ti7  1  0.21267216  0.30058961  0.13001780  1
  Ti  Ti8  1  0.41390176  0.39738699  0.43035661  1
  Ti  Ti9  1  0.77599439  0.69312612  0.87206610  1
  Ti  Ti10  1  0.58664463  0.60422348  0.56884491  1
  Ti  Ti11  1  0.61977822  0.50239408  0.73148694  1
  Ti  Ti12  1  0.38626062  0.00345364  0.76971934  1
  Ti  Ti13  1  0.18484590  0.90251253  0.46821870  1
  Ti  Ti14  1  0.01321195  0.69919829  0.32868044  1
  Ti  Ti15  1  0.21588883  0.79967787  0.63108598  1
  Ti  Ti16  1  0.01785519  0.20236089  0.83346415  1
  Ti  Ti17  1  0.41703450  0.90064126  0.93216248  1
  Ti  Ti18  1  0.19846631  0.41268709  0.97614350  1
  O  O0  1  0.98485108  0.15030852  0.44971189  1
  O  O1  1  0.96191677  0.47368360  0.11673655  1
  O  O2  1  0.83449075  0.94247977  0.09497979  1
  O  O3  1  0.64767634  0.32389935  0.28677603  1
  O  O4  1  0.83702075  0.57599160  0.41178886  1
  O  O5  1  0.41737799  0.05869087  0.14946228  1
  O  O6  1  0.81747148  0.25301915  0.75060156  1
  O  O7  1  0.36825561  0.32669710  0.05177505  1
  O  O8  1  0.78753649  0.55208074  0.64979506  1
  O  O9  1  0.36175013  0.02458753  0.38641782  1
  O  O10  1  0.56285265  0.62580441  0.18792011  1
  O  O11  1  0.96267899  0.82877885  0.78826503  1
  O  O12  1  0.74833147  0.87682701  0.31191878  1
  O  O13  1  0.55091197  0.27609174  0.51233303  1
  O  O14  1  0.76993158  0.20320545  0.98589917  1
  O  O15  1  0.44858831  0.72485727  0.48693260  1
  O  O16  1  0.25269977  0.12732059  0.68747697  1
  O  O17  1  0.28190309  0.78359544  0.01441785  1
  O  O18  1  0.04378731  0.17220114  0.21407727  1
  O  O19  1  0.63906898  0.97779331  0.61283639  1
  O  O20  1  0.43397963  0.37718904  0.81162548  1
  O  O21  1  0.21376753  0.45206466  0.34997774  1
  O  O22  1  0.57291944  0.62217634  0.94111070  1
  O  O23  1  0.18410835  0.74987435  0.24857570  1
  O  O24  1  0.58645527  0.95181121  0.84987176  1
  O  O25  1  0.16329347  0.42557493  0.58728846  1
  O  O26  1  0.14440318  0.06838058  0.91364416  1
  O  O27  1  0.35384897  0.67864929  0.71265843  1
  O  O28  1  0.03876184  0.52348315  0.88876325  1
  O  O29  1  0.01532419  0.85063532  0.54962878  1
loop_
_geom_bond_atom_site_label_1
_geom_bond_atom_site_label_2
_geom_bond_distance
_geom_bond_site_symmetry_2
O0 Ti3 2.005541 1_555
O0 Ti2 2.013822 1_555
O0 Ti13 2.068621 1_645
O0 Ti8 2.071984 1_655
O1 Ti1 1.899851 1_555
O1 Ti7 1.915352 1_655
O1 Ti0 2.089749 1_555
O2 Ti0 1.894560 1_565
O2 Ti1 1.933228 1_555
O2 Ti7 2.008570 1_665
O3 Ti6 2.008502 1_555
O3 Ti5 2.015054 1_555
O3 Ti2 2.059797 1_555
O3 Ti14 2.063751 1_655
O4 Ti13 2.004132 1_655
O4 Ti8 2.007474 1_555
O4 Ti2 2.070787 1_555
O4 Ti14 2.092739 1_655
O5 Ti5 1.974347 1_555
O5 Ti7 2.062030 1_555
O5 Ti0 2.102838 1_555
O5 Ti1 2.105701 1_445
O6 Ti4 1.998275 1_555
O6 Ti16 2.034294 1_655
O6 Ti11 2.069703 1_555
O6 Ti12 2.080992 1_555
O7 Ti7 1.916626 1_555
O7 Ti18 1.928189 1_554
O7 Ti0 2.030289 1_555
O8 Ti10 2.005777 1_555
O8 Ti11 2.010210 1_555
O8 Ti15 2.064693 1_655
O8 Ti4 2.076115 1_555
O9 Ti2 2.005974 1_555
O9 Ti14 2.015151 1_545
O9 Ti13 2.067365 1_545
O9 Ti8 2.067587 1_555
O10 Ti1 2.011269 1_555
O10 Ti7 2.019616 1_555
O10 Ti5 2.054409 1_565
O10 Ti6 2.055503 1_555
O11 Ti11 1.997314 1_555
O11 Ti12 2.009437 1_665
O11 Ti16 2.075641 1_665
O11 Ti9 2.139423 1_555
O12 Ti2 1.994541 1_565
O12 Ti14 2.006964 1_655
O12 Ti6 2.069137 1_555
O12 Ti5 2.098744 1_565
O13 Ti3 2.008393 1_555
O13 Ti10 2.012291 1_555
O13 Ti8 2.069118 1_555
O13 Ti13 2.072368 1_545
O14 Ti17 1.936653 1_545
O14 Ti0 1.974400 1_556
O14 Ti18 1.977616 1_655
O15 Ti13 2.007965 1_555
O15 Ti8 2.012203 1_555
O15 Ti10 2.068102 1_555
O15 Ti3 2.069642 1_565
O16 Ti4 2.005771 1_455
O16 Ti15 2.006611 1_545
O16 Ti12 2.074669 1_555
O16 Ti11 2.078109 1_555
O17 Ti0 1.893683 1_565
O17 Ti18 1.960831 1_554
O17 Ti17 1.998198 1_554
O18 Ti6 1.979365 1_555
O18 Ti5 2.012597 1_455
O18 Ti7 2.103291 1_555
O18 Ti1 2.142439 1_445
O19 Ti15 2.005320 1_555
O19 Ti4 2.014360 1_565
O19 Ti3 2.066206 1_565
O19 Ti10 2.071236 1_555
O20 Ti16 2.002898 1_555
O20 Ti9 2.007067 1_555
O20 Ti11 2.055789 1_555
O20 Ti12 2.065318 1_555
O21 Ti8 2.000213 1_555
O21 Ti6 2.005407 1_555
O21 Ti2 2.064245 1_455
O21 Ti14 2.078957 1_555
O22 Ti9 1.858021 1_555
O22 Ti18 1.978624 1_555
O22 Ti17 2.025836 1_555
O23 Ti14 1.986365 1_555
O23 Ti6 2.074615 1_555
O23 Ti5 2.080318 1_565
O23 Ti1 2.090172 1_455
O24 Ti12 1.989126 1_565
O24 Ti17 2.025957 1_555
O24 Ti16 2.062213 1_665
O24 Ti9 2.097394 1_555
O25 Ti10 2.007550 1_555
O25 Ti3 2.008658 1_455
O25 Ti15 2.071984 1_555
O25 Ti4 2.078032 1_455
O26 Ti17 2.003450 1_545
O26 Ti16 2.055183 1_555
O26 Ti9 2.067512 1_445
O26 Ti18 2.116622 1_555
O27 Ti12 2.010588 1_565
O27 Ti11 2.011823 1_555
O27 Ti15 2.063080 1_555
O27 Ti4 2.063931 1_455
O28 Ti9 1.962264 1_455
O28 Ti16 1.998598 1_555
O28 Ti17 2.103057 1_555
O28 Ti18 2.179901 1_555
O29 Ti13 2.008798 1_555
O29 Ti15 2.010955 1_555
O29 Ti10 2.068795 1_455
O29 Ti3 2.070977 1_465
