# generated using pymatgen
data_Li3Bi(PO4)2
_symmetry_space_group_name_H-M   'P 1'
_cell_length_a   5.20728077
_cell_length_b   5.20728077
_cell_length_c   6.38103847
_cell_angle_alpha   88.19891517
_cell_angle_beta   88.19891517
_cell_angle_gamma   66.91325619
_symmetry_Int_Tables_number   1
_chemical_formula_structural   Li3Bi(PO4)2
_chemical_formula_sum   'Li3 Bi1 P2 O8'
_cell_volume   159.05648009
_cell_formula_units_Z   1
loop_
 _symmetry_equiv_pos_site_id
 _symmetry_equiv_pos_as_xyz
  1  'x, y, z'
loop_
 _atom_site_type_symbol
 _atom_site_label
 _atom_site_symmetry_multiplicity
 _atom_site_fract_x
 _atom_site_fract_y
 _atom_site_fract_z
 _atom_site_occupancy
  Li  Li0  1  0.65934700  0.65934700  0.20479400  1
  Li  Li1  1  0.00000000  0.00000000  0.00000000  1
  Li  Li2  1  0.34065400  0.34065300  0.79520600  1
  Bi  Bi0  1  0.00000000  0.00000000  0.50000000  1
  P  P0  1  0.64366700  0.64366700  0.74479800  1
  P  P1  1  0.35633300  0.35633300  0.25520200  1
  O  O0  1  0.23617700  0.23617700  0.08699200  1
  O  O1  1  0.27711400  0.27711400  0.48157100  1
  O  O2  1  0.31629100  0.74806300  0.76664400  1
  O  O3  1  0.74806300  0.31629100  0.76664400  1
  O  O4  1  0.25193700  0.68370900  0.23335600  1
  O  O5  1  0.68370900  0.25193700  0.23335600  1
  O  O6  1  0.72288600  0.72288600  0.51842900  1
  O  O7  1  0.76382300  0.76382300  0.91300800  1
loop_
_geom_bond_atom_site_label_1
_geom_bond_atom_site_label_2
_geom_bond_distance
_geom_bond_site_symmetry_2
Li0 O7 2.040438 1_554
Li0 O5 2.077534 1_555
Li0 O4 2.077534 1_555
Li0 O6 2.096023 1_555
Li1 O0 2.145962 1_555
Li1 O7 2.145962 1_444
Li1 O5 2.219262 1_455
Li1 O4 2.219262 1_545
Li1 O3 2.219262 1_454
Li1 O2 2.219262 1_544
Li2 O0 2.040439 1_556
Li2 O3 2.077529 1_555
Li2 O2 2.077532 1_555
Li2 O1 2.096025 1_555
Bi0 O3 2.381184 1_455
Bi0 O2 2.381184 1_545
Bi0 O4 2.381184 1_545
Bi0 O5 2.381184 1_455
Bi0 O1 2.406258 1_555
Bi0 O6 2.406258 1_445
O0 P1 1.525289 1_555
O1 P1 1.576507 1_555
O2 P0 1.576112 1_555
O3 P0 1.576112 1_555
O4 P1 1.576112 1_555
O5 P1 1.576112 1_555
O6 P0 1.576507 1_555
O7 P0 1.525289 1_555
