# generated using pymatgen
data_LiMn3OF5
_symmetry_space_group_name_H-M   'P 1'
_cell_length_a   6.30375700
_cell_length_b   6.35821619
_cell_length_c   6.36016316
_cell_angle_alpha   92.21342179
_cell_angle_beta   92.40817803
_cell_angle_gamma   91.94154928
_symmetry_Int_Tables_number   1
_chemical_formula_structural   LiMn3OF5
_chemical_formula_sum   'Li2 Mn6 O2 F10'
_cell_volume   254.34334077
_cell_formula_units_Z   2
loop_
 _symmetry_equiv_pos_site_id
 _symmetry_equiv_pos_as_xyz
  1  'x, y, z'
loop_
 _atom_site_type_symbol
 _atom_site_label
 _atom_site_symmetry_multiplicity
 _atom_site_fract_x
 _atom_site_fract_y
 _atom_site_fract_z
 _atom_site_occupancy
  Li  Li0  1  0.49169700  0.50254900  0.51735800  1
  Li  Li1  1  0.00341500  0.01503400  0.02390100  1
  Mn  Mn0  1  0.72896200  0.44488100  0.91573400  1
  Mn  Mn1  1  0.06551700  0.24368700  0.54807400  1
  Mn  Mn2  1  0.58736400  0.07607500  0.26128400  1
  Mn  Mn3  1  0.43672100  0.90463600  0.75183900  1
  Mn  Mn4  1  0.92962400  0.76176400  0.42660700  1
  Mn  Mn5  1  0.26193500  0.56416700  0.05726800  1
  O  O0  1  0.90913300  0.06388300  0.31918500  1
  O  O1  1  0.46172700  0.59480900  0.81843600  1
  F  F0  1  0.68298900  0.09639000  0.91241100  1
  F  F1  1  0.06242300  0.31048400  0.90217300  1
  F  F2  1  0.40424700  0.18017300  0.54450900  1
  F  F3  1  0.82103400  0.47542400  0.58594100  1
  F  F4  1  0.18810900  0.53833100  0.39078900  1
  F  F5  1  0.54251200  0.40137200  0.20331300  1
  F  F6  1  0.09113600  0.91689600  0.70283600  1
  F  F7  1  0.58172800  0.79761800  0.45229800  1
  F  F8  1  0.93279500  0.68085300  0.07718900  1
  F  F9  1  0.31693300  0.93097100  0.08885200  1
loop_
_geom_bond_atom_site_label_1
_geom_bond_atom_site_label_2
_geom_bond_distance
_geom_bond_site_symmetry_2
Li0 O1 1.999452 1_555
Li1 O0 2.009487 1_455
Mn0 O1 2.048484 1_555
Mn1 O0 2.018054 1_455
Mn2 O0 2.050836 1_555
Mn3 O1 2.040792 1_555
Mn4 O0 2.069844 1_565
Mn5 O1 2.024486 1_554
F0 Mn3 2.140511 1_545
F0 Li1 2.197523 1_656
F0 Mn0 2.224067 1_555
F0 Mn2 2.330833 1_556
F1 Li1 2.087068 1_556
F1 Mn5 2.189030 1_556
F1 Mn1 2.276665 1_555
F1 Mn0 2.299468 1_455
F2 Li0 2.119884 1_555
F2 Mn1 2.187412 1_555
F2 Mn3 2.242777 1_545
F2 Mn2 2.269328 1_555
F3 Li0 2.117549 1_555
F3 Mn1 2.182164 1_655
F3 Mn0 2.213679 1_555
F3 Mn4 2.219577 1_555
F4 Li0 2.067943 1_555
F4 Mn5 2.201807 1_555
F4 Mn4 2.210923 1_455
F4 Mn1 2.284560 1_555
F5 Li0 2.115288 1_555
F5 Mn2 2.140924 1_555
F5 Mn0 2.236308 1_554
F5 Mn5 2.263343 1_555
F6 Mn4 2.178037 1_455
F6 Mn3 2.192106 1_555
F6 Li1 2.210170 1_566
F6 Mn1 2.340853 1_565
F7 Li0 2.005161 1_555
F7 Mn2 2.185713 1_565
F7 Mn4 2.224693 1_555
F7 Mn3 2.239741 1_555
F8 Mn0 2.143840 1_554
F8 Li1 2.198183 1_665
F8 Mn5 2.233942 1_655
F8 Mn4 2.262751 1_555
F9 Li1 2.093389 1_565
F9 Mn2 2.149001 1_565
F9 Mn3 2.304237 1_554
F9 Mn5 2.345840 1_555
