# generated using pymatgen
data_CrAgO4
_symmetry_space_group_name_H-M   'P 1'
_cell_length_a   5.03599121
_cell_length_b   5.03599121
_cell_length_c   7.04091488
_cell_angle_alpha   90.00000000
_cell_angle_beta   90.00000000
_cell_angle_gamma   69.11863094
_symmetry_Int_Tables_number   1
_chemical_formula_structural   CrAgO4
_chemical_formula_sum   'Cr2 Ag2 O8'
_cell_volume   166.83795717
_cell_formula_units_Z   2
loop_
 _symmetry_equiv_pos_site_id
 _symmetry_equiv_pos_as_xyz
  1  'x, y, z'
loop_
 _atom_site_type_symbol
 _atom_site_label
 _atom_site_symmetry_multiplicity
 _atom_site_fract_x
 _atom_site_fract_y
 _atom_site_fract_z
 _atom_site_occupancy
  Cr  Cr0  1  0.35174289  0.35174289  0.25000000  1
  Cr  Cr1  1  0.64825711  0.64825711  0.75000000  1
  Ag  Ag0  1  -0.00000000  0.00000000  0.00000000  1
  Ag  Ag1  1  -0.00000000  0.00000000  0.50000000  1
  O  O0  1  0.22668458  0.70563943  0.25000000  1
  O  O1  1  0.29436057  0.77331542  0.75000000  1
  O  O2  1  0.75737716  0.75737716  0.55399724  1
  O  O3  1  0.24262284  0.24262284  0.05399724  1
  O  O4  1  0.75737716  0.75737716  0.94600276  1
  O  O5  1  0.24262284  0.24262284  0.44600276  1
  O  O6  1  0.77331542  0.29436057  0.75000000  1
  O  O7  1  0.70563943  0.22668458  0.25000000  1
loop_
_geom_bond_atom_site_label_1
_geom_bond_atom_site_label_2
_geom_bond_distance
_geom_bond_site_symmetry_2
Cr0 O3 1.650376 1_555
Cr0 O5 1.650376 1_555
Cr0 O0 1.665173 1_555
Cr0 O7 1.665173 1_555
Cr1 O2 1.650376 1_555
Cr1 O4 1.650376 1_555
Cr1 O1 1.665173 1_555
Cr1 O6 1.665173 1_555
Ag0 O4 2.048075 1_444
Ag0 O3 2.048075 1_555
Ag0 O1 2.322228 1_544
Ag0 O6 2.322228 1_454
Ag0 O7 2.322228 1_455
Ag0 O0 2.322228 1_545
Ag1 O5 2.048075 1_555
Ag1 O2 2.048075 1_445
Ag1 O6 2.322228 1_455
Ag1 O1 2.322228 1_545
Ag1 O7 2.322228 1_455
Ag1 O0 2.322228 1_545
