# generated using pymatgen
data_Li(FeO2)3
_symmetry_space_group_name_H-M   'P 1'
_cell_length_a   9.58098290
_cell_length_b   8.84635582
_cell_length_c   5.40853934
_cell_angle_alpha   80.54772212
_cell_angle_beta   65.61450714
_cell_angle_gamma   33.83777074
_symmetry_Int_Tables_number   1
_chemical_formula_structural   Li(FeO2)3
_chemical_formula_sum   'Li2 Fe6 O12'
_cell_volume   217.57787660
_cell_formula_units_Z   2
loop_
 _symmetry_equiv_pos_site_id
 _symmetry_equiv_pos_as_xyz
  1  'x, y, z'
loop_
 _atom_site_type_symbol
 _atom_site_label
 _atom_site_symmetry_multiplicity
 _atom_site_fract_x
 _atom_site_fract_y
 _atom_site_fract_z
 _atom_site_occupancy
  Li  Li0  1  0.25000000  0.25000000  0.25000000  1
  Li  Li1  1  0.00000000  0.00000000  0.00000000  1
  Fe  Fe0  1  0.08111200  0.08111200  0.41888800  1
  Fe  Fe1  1  0.16888800  0.16888800  0.83111200  1
  Fe  Fe2  1  0.75000000  0.75000000  0.75000000  1
  Fe  Fe3  1  0.83111200  0.83111200  0.16888800  1
  Fe  Fe4  1  0.41888800  0.41888800  0.08111200  1
  Fe  Fe5  1  0.50000000  0.50000000  0.50000000  1
  O  O0  1  0.27941700  0.88195000  0.63578900  1
  O  O1  1  0.88195000  0.27941700  0.20284400  1
  O  O2  1  0.36805000  0.97058300  0.04715600  1
  O  O3  1  0.96905600  0.53094400  0.96905600  1
  O  O4  1  0.97058300  0.36805000  0.61421100  1
  O  O5  1  0.53094400  0.96905600  0.53094400  1
  O  O6  1  0.61421100  0.04715600  0.97058300  1
  O  O7  1  0.04715600  0.61421100  0.36805000  1
  O  O8  1  0.20284400  0.63578900  0.88195000  1
  O  O9  1  0.63578900  0.20284400  0.27941700  1
  O  O10  1  0.71905600  0.28094400  0.71905600  1
  O  O11  1  0.28094400  0.71905600  0.28094400  1
loop_
_geom_bond_atom_site_label_1
_geom_bond_atom_site_label_2
_geom_bond_distance
_geom_bond_site_symmetry_2
Li0 O7 1.953070 1_555
Li0 O6 1.953070 1_554
Li0 O4 1.953070 1_455
Li0 O2 1.953070 1_545
Li0 O5 2.598983 1_545
Li0 O3 2.598983 1_454
Li1 O1 1.953070 1_455
Li1 O0 1.953070 1_544
Li1 O9 1.953070 1_455
Li1 O8 1.953070 1_544
Li1 O11 2.598983 1_545
Li1 O10 2.598983 1_454
Fe0 O1 1.921170 1_455
Fe0 O0 1.921170 1_545
Fe0 O10 1.974597 1_455
Fe0 O11 1.974597 1_545
Fe0 O2 2.042590 1_545
Fe0 O4 2.042590 1_455
Fe1 O4 1.921170 1_455
Fe1 O2 1.921170 1_546
Fe1 O3 1.974597 1_455
Fe1 O5 1.974597 1_545
Fe1 O0 2.042590 1_545
Fe1 O1 2.042590 1_456
Fe2 O6 2.023178 1_565
Fe2 O7 2.023178 1_655
Fe2 O2 2.023178 1_556
Fe2 O4 2.023178 1_555
Fe2 O3 2.026464 1_555
Fe2 O5 2.026464 1_555
Fe3 O6 1.921170 1_564
Fe3 O7 1.921170 1_655
Fe3 O5 1.974597 1_555
Fe3 O3 1.974597 1_554
Fe3 O9 2.042590 1_565
Fe3 O8 2.042590 1_654
Fe4 O8 1.921170 1_554
Fe4 O9 1.921170 1_555
Fe4 O11 1.974597 1_555
Fe4 O10 1.974597 1_554
Fe4 O6 2.042590 1_554
Fe4 O7 2.042590 1_555
Fe5 O0 2.023178 1_555
Fe5 O1 2.023178 1_555
Fe5 O8 2.023178 1_555
Fe5 O9 2.023178 1_555
Fe5 O10 2.026464 1_555
Fe5 O11 2.026464 1_555
