# generated using pymatgen
data_LiFe4(BO3)4
_symmetry_space_group_name_H-M   'P 1'
_cell_length_a   5.31654600
_cell_length_b   9.01030449
_cell_length_c   11.39895131
_cell_angle_alpha   112.99920612
_cell_angle_beta   102.98083586
_cell_angle_gamma   89.79004716
_symmetry_Int_Tables_number   1
_chemical_formula_structural   LiFe4(BO3)4
_chemical_formula_sum   'Li2 Fe8 B8 O24'
_cell_volume   487.64377619
_cell_formula_units_Z   2
loop_
 _symmetry_equiv_pos_site_id
 _symmetry_equiv_pos_as_xyz
  1  'x, y, z'
loop_
 _atom_site_type_symbol
 _atom_site_label
 _atom_site_symmetry_multiplicity
 _atom_site_fract_x
 _atom_site_fract_y
 _atom_site_fract_z
 _atom_site_occupancy
  Li  Li0  1  0.39853900  0.05580900  0.11194400  1
  Li  Li1  1  0.57674300  0.91654700  0.84646300  1
  Fe  Fe0  1  0.60113500  0.59417500  0.86951200  1
  Fe  Fe1  1  0.90231800  0.88823000  0.12067800  1
  Fe  Fe2  1  0.15271300  0.47699800  0.62148300  1
  Fe  Fe3  1  0.34365500  0.01522300  0.37054200  1
  Fe  Fe4  1  0.66079500  0.98161000  0.62194500  1
  Fe  Fe5  1  0.84841100  0.51841600  0.37116200  1
  Fe  Fe6  1  0.08886900  0.10521800  0.87427700  1
  Fe  Fe7  1  0.39968600  0.40063500  0.12513800  1
  B  B0  1  0.35031800  0.35366900  0.36735700  1
  B  B1  1  0.11050800  0.76835300  0.87156100  1
  B  B2  1  0.85757300  0.85563500  0.37448600  1
  B  B3  1  0.59436100  0.26563000  0.87361400  1
  B  B4  1  0.14735600  0.14059300  0.61992900  1
  B  B5  1  0.40148400  0.72999600  0.11999400  1
  B  B6  1  0.65247500  0.64203700  0.62723600  1
  B  B7  1  0.88727800  0.22973800  0.12366300  1
  O  O0  1  0.86760800  0.76960100  0.90036100  1
  O  O1  1  0.53222900  0.53945500  0.66807200  1
  O  O2  1  0.75308100  0.09090400  0.10354600  1
  O  O3  1  0.42570200  0.20406100  0.34682000  1
  O  O4  1  0.14581300  0.41013300  0.42699900  1
  O  O5  1  0.21565400  0.62053300  0.82006300  1
  O  O6  1  0.69951000  0.39319300  0.86126100  1
  O  O7  1  0.97245600  0.95343300  0.32878600  1
  O  O8  1  0.30818600  0.88372400  0.16870100  1
  O  O9  1  0.36192600  0.08766700  0.56696200  1
  O  O10  1  0.05733500  0.28239100  0.62520000  1
  O  O11  1  0.60432100  0.71841900  0.05876000  1
  O  O12  1  0.39577000  0.27771200  0.93664000  1
  O  O13  1  0.64017200  0.90760800  0.42577100  1
  O  O14  1  0.68585400  0.11182700  0.82092300  1
  O  O15  1  0.03101200  0.04315400  0.66589700  1
  O  O16  1  0.30017800  0.60247700  0.13358100  1
  O  O17  1  0.78664500  0.38048400  0.17427500  1
  O  O18  1  0.85561400  0.58639800  0.56744100  1
  O  O19  1  0.57824800  0.79338500  0.65003200  1
  O  O20  1  0.94810900  0.71470500  0.37108400  1
  O  O21  1  0.24589400  0.91070400  0.89599100  1
  O  O22  1  0.46925500  0.45707900  0.32669600  1
  O  O23  1  0.12836700  0.22669000  0.09122900  1
loop_
_geom_bond_atom_site_label_1
_geom_bond_atom_site_label_2
_geom_bond_distance
_geom_bond_site_symmetry_2
Li0 O2 1.941968 1_555
Li0 O8 1.995612 1_545
Li0 O23 2.145954 1_555
Li0 O21 2.241194 1_544
Li0 O3 2.450787 1_555
Li1 O21 1.971176 1_555
Li1 O14 2.000215 1_565
Li1 O19 2.076399 1_555
Li1 O0 2.171565 1_555
Fe0 O6 1.855760 1_555
Fe0 O0 1.996854 1_555
Fe0 O11 2.000932 1_556
Fe0 O5 2.038712 1_555
Fe0 O1 2.094895 1_555
Fe1 O11 2.005190 1_555
Fe1 O2 2.049622 1_565
Fe1 O8 2.107971 1_655
Fe1 O7 2.150986 1_555
Fe1 O0 2.275782 1_554
Fe2 O10 1.846024 1_555
Fe2 O18 1.967754 1_455
Fe2 O1 1.990801 1_555
Fe2 O4 2.049132 1_555
Fe2 O5 2.069712 1_555
Fe3 O3 1.891142 1_555
Fe3 O7 1.951970 1_445
Fe3 O13 1.960022 1_545
Fe3 O9 2.051646 1_555
Fe3 O8 2.099873 1_545
Fe4 O19 1.914233 1_555
Fe4 O15 1.944352 1_665
Fe4 O9 1.959658 1_565
Fe4 O13 2.045078 1_555
Fe4 O14 2.079583 1_565
Fe5 O20 1.848592 1_555
Fe5 O4 1.969496 1_655
Fe5 O22 1.988982 1_555
Fe5 O17 2.044895 1_555
Fe5 O18 2.067185 1_555
Fe6 O21 2.016273 1_545
Fe6 O12 2.053624 1_555
Fe6 O14 2.099121 1_455
Fe6 O15 2.164366 1_555
Fe6 O23 2.238555 1_556
Fe7 O16 1.864325 1_555
Fe7 O12 1.991072 1_554
Fe7 O23 1.994809 1_555
Fe7 O17 2.034250 1_555
Fe7 O22 2.093013 1_555
B0 O3 1.350616 1_555
B0 O22 1.398677 1_555
B0 O4 1.400326 1_555
B1 O21 1.370537 1_555
B1 O5 1.400733 1_555
B1 O0 1.401091 1_455
B2 O20 1.345758 1_555
B2 O7 1.387989 1_555
B2 O13 1.408060 1_555
B3 O6 1.349061 1_555
B3 O12 1.386202 1_555
B3 O14 1.411990 1_555
B4 O10 1.346659 1_555
B4 O15 1.391778 1_555
B4 O9 1.404903 1_555
B5 O16 1.347334 1_555
B5 O11 1.393362 1_555
B5 O8 1.410896 1_555
B6 O19 1.359459 1_555
B6 O18 1.393563 1_555
B6 O1 1.397830 1_555
B7 O2 1.354747 1_555
B7 O17 1.408891 1_555
B7 O23 1.408919 1_655
