# generated using pymatgen
data_V2Ge2O7
_symmetry_space_group_name_H-M   'P 1'
_cell_length_a   5.59964849
_cell_length_b   5.59913412
_cell_length_c   10.07317835
_cell_angle_alpha   103.12528107
_cell_angle_beta   76.87058151
_cell_angle_gamma   82.68947443
_symmetry_Int_Tables_number   1
_chemical_formula_structural   V2Ge2O7
_chemical_formula_sum   'V4 Ge4 O14'
_cell_volume   294.16247782
_cell_formula_units_Z   2
loop_
 _symmetry_equiv_pos_site_id
 _symmetry_equiv_pos_as_xyz
  1  'x, y, z'
loop_
 _atom_site_type_symbol
 _atom_site_label
 _atom_site_symmetry_multiplicity
 _atom_site_fract_x
 _atom_site_fract_y
 _atom_site_fract_z
 _atom_site_occupancy
  V  V0  1  0.37773100  0.77424600  0.02117400  1
  V  V1  1  0.27422200  0.87774200  0.47894400  1
  V  V2  1  0.72586700  0.12221600  0.52105500  1
  V  V3  1  0.62224400  0.22582200  0.97884500  1
  Ge  Ge0  1  0.80759700  0.69453000  0.70566800  1
  Ge  Ge1  1  0.80532300  0.69221500  0.20580400  1
  Ge  Ge2  1  0.19469400  0.30778500  0.79418700  1
  Ge  Ge3  1  0.19238300  0.30546200  0.29434600  1
  O  O0  1  0.08167700  0.58157600  0.74987200  1
  O  O1  1  0.91825700  0.41839400  0.25012900  1
  O  O2  1  0.67721400  0.46737200  0.61429100  1
  O  O3  1  0.03261600  0.82270600  0.11434300  1
  O  O4  1  0.96730700  0.17733700  0.88562600  1
  O  O5  1  0.32285200  0.53256600  0.38569700  1
  O  O6  1  0.39961400  0.40883500  0.89979100  1
  O  O7  1  0.09140600  0.10028200  0.39973900  1
  O  O8  1  0.90866800  0.89964200  0.60022400  1
  O  O9  1  0.60032800  0.59121700  0.10025600  1
  O  O10  1  0.37670700  0.08451900  0.63459500  1
  O  O11  1  0.41541200  0.12342700  0.13452800  1
  O  O12  1  0.58453200  0.87663700  0.86548000  1
  O  O13  1  0.62334700  0.91547500  0.36540400  1
loop_
_geom_bond_atom_site_label_1
_geom_bond_atom_site_label_2
_geom_bond_distance
_geom_bond_site_symmetry_2
Ge0 O2 1.734334 1_555
Ge0 O0 1.773431 1_655
Ge0 O12 1.791165 1_555
Ge0 O8 1.792692 1_555
Ge1 O3 1.735572 1_655
Ge1 O1 1.772648 1_555
Ge1 O13 1.790110 1_555
Ge1 O9 1.792892 1_555
Ge2 O4 1.735668 1_455
Ge2 O0 1.772589 1_555
Ge2 O10 1.790133 1_555
Ge2 O6 1.793003 1_555
Ge3 O5 1.734318 1_555
Ge3 O1 1.773689 1_455
Ge3 O11 1.791006 1_555
Ge3 O7 1.792522 1_555
O2 V2 1.901729 1_555
O3 V0 1.901579 1_555
O4 V3 1.901423 1_555
O5 V1 1.901867 1_555
O6 V3 1.932565 1_555
O6 V0 2.104298 1_556
O7 V1 1.932630 1_545
O7 V2 2.104685 1_455
O8 V2 1.932466 1_565
O8 V1 2.104667 1_655
O9 V0 1.932681 1_555
O9 V3 2.104285 1_554
O10 V1 1.970159 1_545
O10 V2 2.091434 1_555
O11 V3 1.970176 1_554
O11 V0 2.090773 1_545
O12 V0 1.970168 1_556
O12 V3 2.090890 1_565
O13 V2 1.970176 1_565
O13 V1 2.091342 1_555
