# generated using pymatgen
data_V2P2O7
_symmetry_space_group_name_H-M   'P 1'
_cell_length_a   5.44838220
_cell_length_b   5.44838281
_cell_length_c   9.16677709
_cell_angle_alpha   83.14107822
_cell_angle_beta   96.85892036
_cell_angle_gamma   75.19369273
_symmetry_Int_Tables_number   1
_chemical_formula_structural   V2P2O7
_chemical_formula_sum   'V4 P4 O14'
_cell_volume   257.98973858
_cell_formula_units_Z   2
loop_
 _symmetry_equiv_pos_site_id
 _symmetry_equiv_pos_as_xyz
  1  'x, y, z'
loop_
 _atom_site_type_symbol
 _atom_site_label
 _atom_site_symmetry_multiplicity
 _atom_site_fract_x
 _atom_site_fract_y
 _atom_site_fract_z
 _atom_site_occupancy
  V  V0  1  0.31538000  0.31538000  0.75000000  1
  V  V1  1  0.68462000  0.68462000  0.25000000  1
  V  V2  1  0.31537700  0.31537700  0.25000000  1
  V  V3  1  0.68462300  0.68462300  0.75000000  1
  P  P0  1  0.21755100  0.78244800  0.45435500  1
  P  P1  1  0.21755200  0.78244900  0.95435500  1
  P  P2  1  0.78244800  0.21755100  0.04564500  1
  P  P3  1  0.78244900  0.21755200  0.54564500  1
  O  O0  1  0.00000000  0.00000000  0.00000000  1
  O  O1  1  0.00000000  0.00000000  0.50000000  1
  O  O2  1  0.36910500  0.63089400  0.10417500  1
  O  O3  1  0.36910600  0.63089400  0.60417500  1
  O  O4  1  0.63089400  0.36910500  0.39582500  1
  O  O5  1  0.63089400  0.36910600  0.89582500  1
  O  O6  1  0.37781000  0.91960400  0.36412300  1
  O  O7  1  0.37781400  0.91960600  0.86412600  1
  O  O8  1  0.08039400  0.62218700  0.36412600  1
  O  O9  1  0.08039600  0.62219000  0.86412300  1
  O  O10  1  0.62218700  0.08039400  0.13587400  1
  O  O11  1  0.62219000  0.08039600  0.63587700  1
  O  O12  1  0.91960400  0.37781000  0.13587600  1
  O  O13  1  0.91960600  0.37781300  0.63587400  1
loop_
_geom_bond_atom_site_label_1
_geom_bond_atom_site_label_2
_geom_bond_distance
_geom_bond_site_symmetry_2
O0 P2 1.582342 1_455
O0 P1 1.582342 1_544
O1 P0 1.582342 1_545
O1 P3 1.582342 1_455
O2 P1 1.536090 1_554
O2 V1 2.151623 1_555
O2 V2 2.151636 1_555
O3 P0 1.536092 1_555
O3 V0 2.151619 1_555
O3 V3 2.151638 1_555
O4 P3 1.536090 1_555
O4 V1 2.151623 1_555
O4 V2 2.151636 1_555
O5 P2 1.536092 1_556
O5 V0 2.151619 1_555
O5 V3 2.151638 1_555
O6 P0 1.537313 1_555
O6 V2 2.204803 1_565
O6 V1 2.274115 1_555
O7 P1 1.537314 1_555
O7 V0 2.204816 1_565
O7 V3 2.274126 1_555
O8 P0 1.537310 1_555
O8 V1 2.204817 1_455
O8 V2 2.274129 1_555
O9 P1 1.537313 1_555
O9 V3 2.204803 1_455
O9 V0 2.274115 1_555
O10 P2 1.537310 1_555
O10 V1 2.204817 1_545
O10 V2 2.274129 1_555
O11 P3 1.537313 1_555
O11 V3 2.204803 1_545
O11 V0 2.274115 1_555
O12 P2 1.537308 1_555
O12 V2 2.204806 1_655
O12 V1 2.274120 1_555
O13 P3 1.537310 1_555
O13 V0 2.204817 1_655
O13 V3 2.274129 1_555
