# generated using pymatgen
data_LiMn2F5
_symmetry_space_group_name_H-M   'P 1'
_cell_length_a   6.95128300
_cell_length_b   6.50470700
_cell_length_c   9.12989920
_cell_angle_alpha   83.70484388
_cell_angle_beta   90.00000000
_cell_angle_gamma   90.00000000
_symmetry_Int_Tables_number   1
_chemical_formula_structural   LiMn2F5
_chemical_formula_sum   'Li4 Mn8 F20'
_cell_volume   410.32886430
_cell_formula_units_Z   4
loop_
 _symmetry_equiv_pos_site_id
 _symmetry_equiv_pos_as_xyz
  1  'x, y, z'
loop_
 _atom_site_type_symbol
 _atom_site_label
 _atom_site_symmetry_multiplicity
 _atom_site_fract_x
 _atom_site_fract_y
 _atom_site_fract_z
 _atom_site_occupancy
  Li  Li0  1  0.11135200  0.98346800  0.19722300  1
  Li  Li1  1  0.38864800  0.48346800  0.19722300  1
  Li  Li2  1  0.61135200  0.51653200  0.80277700  1
  Li  Li3  1  0.88864800  0.01653200  0.80277700  1
  Mn  Mn0  1  0.63966000  0.97532200  0.14471600  1
  Mn  Mn1  1  0.86034000  0.47532200  0.14471600  1
  Mn  Mn2  1  0.63099500  0.24734500  0.47368600  1
  Mn  Mn3  1  0.13099500  0.25265500  0.52631400  1
  Mn  Mn4  1  0.86900500  0.74734500  0.47368600  1
  Mn  Mn5  1  0.36900500  0.75265500  0.52631400  1
  Mn  Mn6  1  0.13966000  0.52467800  0.85528400  1
  Mn  Mn7  1  0.36034000  0.02467800  0.85528400  1
  F  F0  1  0.33865400  0.98931300  0.09069300  1
  F  F1  1  0.90005300  0.15235000  0.13623400  1
  F  F2  1  0.16134600  0.48931300  0.09069300  1
  F  F3  1  0.59994700  0.65235000  0.13623400  1
  F  F4  1  0.56761000  0.26000200  0.24914900  1
  F  F5  1  0.93239000  0.76000200  0.24914900  1
  F  F6  1  0.33459500  0.47590500  0.41382100  1
  F  F7  1  0.90469000  0.38045800  0.39213800  1
  F  F8  1  0.16540500  0.97590500  0.41382100  1
  F  F9  1  0.59531000  0.88045800  0.39213800  1
  F  F10  1  0.40469000  0.11954200  0.60786200  1
  F  F11  1  0.83459500  0.02409500  0.58617900  1
  F  F12  1  0.09531000  0.61954200  0.60786200  1
  F  F13  1  0.66540500  0.52409500  0.58617900  1
  F  F14  1  0.06761000  0.23999800  0.75085100  1
  F  F15  1  0.43239000  0.73999800  0.75085100  1
  F  F16  1  0.40005300  0.34765000  0.86376600  1
  F  F17  1  0.83865400  0.51068700  0.90930700  1
  F  F18  1  0.09994700  0.84765000  0.86376600  1
  F  F19  1  0.66134600  0.01068700  0.90930700  1
loop_
_geom_bond_atom_site_label_1
_geom_bond_atom_site_label_2
_geom_bond_distance
_geom_bond_site_symmetry_2
F0 Li0 1.853599 1_555
F0 Mn7 2.141620 1_564
F0 Mn0 2.149361 1_555
F1 Li0 1.881500 1_645
F1 Mn1 2.128709 1_555
F1 Mn0 2.142140 1_545
F2 Li1 1.853599 1_555
F2 Mn6 2.141620 1_554
F2 Mn1 2.149361 1_455
F3 Li1 1.881500 1_555
F3 Mn0 2.128709 1_555
F3 Mn1 2.142140 1_555
F4 Li1 1.932382 1_555
F4 Mn2 2.089593 1_555
F4 Mn0 2.230726 1_545
F4 Mn1 2.592008 1_555
F5 Li0 1.932382 1_655
F5 Mn4 2.089593 1_555
F5 Mn1 2.230726 1_555
F5 Mn0 2.592008 1_555
F6 Li1 2.008194 1_555
F6 Mn5 2.181317 1_555
F6 Mn3 2.199907 1_555
F6 Mn2 2.564359 1_555
F7 Mn3 2.107865 1_655
F7 Mn2 2.186844 1_555
F7 Mn1 2.296285 1_555
F7 Mn4 2.588600 1_555
F8 Li0 2.008194 1_555
F8 Mn3 2.181317 1_565
F8 Mn5 2.199907 1_555
F8 Mn4 2.564359 1_455
F9 Mn5 2.107865 1_555
F9 Mn4 2.186844 1_555
F9 Mn0 2.296285 1_555
F9 Mn2 2.588600 1_565
F10 Mn2 2.107865 1_555
F10 Mn3 2.186844 1_555
F10 Mn7 2.296285 1_555
F10 Mn5 2.588600 1_545
F11 Li3 2.008194 1_555
F11 Mn4 2.181317 1_545
F11 Mn2 2.199907 1_555
F11 Mn3 2.564359 1_655
F12 Mn4 2.107865 1_455
F12 Mn5 2.186844 1_555
F12 Mn6 2.296285 1_555
F12 Mn3 2.588600 1_555
F13 Li2 2.008194 1_555
F13 Mn2 2.181317 1_555
F13 Mn4 2.199907 1_555
F13 Mn5 2.564359 1_555
F14 Li3 1.932382 1_455
F14 Mn3 2.089593 1_555
F14 Mn6 2.230726 1_555
F14 Mn7 2.592008 1_555
F15 Li2 1.932382 1_555
F15 Mn5 2.089593 1_555
F15 Mn7 2.230726 1_565
F15 Mn6 2.592008 1_555
F16 Li2 1.881500 1_555
F16 Mn7 2.128709 1_555
F16 Mn6 2.142140 1_555
F17 Li2 1.853599 1_555
F17 Mn1 2.141620 1_556
F17 Mn6 2.149361 1_655
F18 Li3 1.881500 1_465
F18 Mn6 2.128709 1_555
F18 Mn7 2.142140 1_565
F19 Li3 1.853599 1_555
F19 Mn0 2.141620 1_546
F19 Mn7 2.149361 1_555
