# generated using pymatgen
data_V3(PO4)2
_symmetry_space_group_name_H-M   'P 1'
_cell_length_a   11.61878700
_cell_length_b   6.39548800
_cell_length_c   8.75898326
_cell_angle_alpha   80.59967756
_cell_angle_beta   90.00000000
_cell_angle_gamma   90.00000000
_symmetry_Int_Tables_number   1
_chemical_formula_structural   V3(PO4)2
_chemical_formula_sum   'V12 P8 O32'
_cell_volume   642.12063581
_cell_formula_units_Z   4
loop_
 _symmetry_equiv_pos_site_id
 _symmetry_equiv_pos_as_xyz
  1  'x, y, z'
loop_
 _atom_site_type_symbol
 _atom_site_label
 _atom_site_symmetry_multiplicity
 _atom_site_fract_x
 _atom_site_fract_y
 _atom_site_fract_z
 _atom_site_occupancy
  V  V0  1  0.38498000  0.36315700  0.06963600  1
  V  V1  1  0.11502000  0.86315700  0.06963600  1
  V  V2  1  0.08617300  0.33129600  0.27661400  1
  V  V3  1  0.41382700  0.83129600  0.27661400  1
  V  V4  1  0.68954300  0.38341100  0.36058300  1
  V  V5  1  0.81045700  0.88341100  0.36058300  1
  V  V6  1  0.18954300  0.11658900  0.63941700  1
  V  V7  1  0.31045700  0.61658900  0.63941700  1
  V  V8  1  0.58617300  0.16870400  0.72338600  1
  V  V9  1  0.91382700  0.66870400  0.72338600  1
  V  V10  1  0.88498000  0.13684300  0.93036400  1
  V  V11  1  0.61502000  0.63684300  0.93036400  1
  P  P0  1  0.63297700  0.11252000  0.08988500  1
  P  P1  1  0.86702300  0.61252000  0.08988500  1
  P  P2  1  0.41219900  0.30516800  0.39745600  1
  P  P3  1  0.08780100  0.80516800  0.39745600  1
  P  P4  1  0.91219900  0.19483200  0.60254400  1
  P  P5  1  0.58780100  0.69483200  0.60254400  1
  P  P6  1  0.13297700  0.38748000  0.91011500  1
  P  P7  1  0.36702300  0.88748000  0.91011500  1
  O  O0  1  0.19852600  0.39551700  0.06450300  1
  O  O1  1  0.56660400  0.32823400  0.07424200  1
  O  O2  1  0.30147400  0.89551700  0.06450300  1
  O  O3  1  0.93339600  0.82823400  0.07424200  1
  O  O4  1  0.93872900  0.40872200  0.13162600  1
  O  O5  1  0.56127100  0.90872200  0.13162600  1
  O  O6  1  0.71995900  0.12840600  0.22388300  1
  O  O7  1  0.07915100  0.00788700  0.27233500  1
  O  O8  1  0.78004100  0.62840600  0.22388300  1
  O  O9  1  0.37202800  0.13906500  0.29842900  1
  O  O10  1  0.42084900  0.50788700  0.27233500  1
  O  O11  1  0.12797200  0.63906500  0.29842900  1
  O  O12  1  0.53071700  0.25212500  0.47844300  1
  O  O13  1  0.81869300  0.16610100  0.48070000  1
  O  O14  1  0.96928300  0.75212500  0.47844300  1
  O  O15  1  0.31869300  0.33389900  0.51930000  1
  O  O16  1  0.68130700  0.66610100  0.48070000  1
  O  O17  1  0.03071700  0.24787500  0.52155700  1
  O  O18  1  0.18130700  0.83389900  0.51930000  1
  O  O19  1  0.46928300  0.74787500  0.52155700  1
  O  O20  1  0.87202800  0.36093500  0.70157100  1
  O  O21  1  0.57915100  0.49211300  0.72766500  1
  O  O22  1  0.62797200  0.86093500  0.70157100  1
  O  O23  1  0.21995900  0.37159400  0.77611700  1
  O  O24  1  0.92084900  0.99211300  0.72766500  1
  O  O25  1  0.28004100  0.87159400  0.77611700  1
  O  O26  1  0.43872900  0.09127800  0.86837400  1
  O  O27  1  0.06127100  0.59127800  0.86837400  1
  O  O28  1  0.06660400  0.17176600  0.92575800  1
  O  O29  1  0.69852600  0.10448300  0.93549700  1
  O  O30  1  0.43339600  0.67176600  0.92575800  1
  O  O31  1  0.80147400  0.60448300  0.93549700  1
loop_
_geom_bond_atom_site_label_1
_geom_bond_atom_site_label_2
_geom_bond_distance
_geom_bond_site_symmetry_2
O0 P6 1.560144 1_554
O0 V0 2.175998 1_555
O0 V2 2.252824 1_555
O1 P0 1.566850 1_555
O1 V0 2.121727 1_555
O1 V11 2.233296 1_554
O2 P7 1.560144 1_554
O2 V1 2.175998 1_555
O2 V3 2.252824 1_555
O3 P1 1.566850 1_555
O3 V1 2.121727 1_655
O3 V10 2.233296 1_564
O4 P1 1.539786 1_555
O4 V2 2.141805 1_655
O4 V10 2.742693 1_554
O5 P0 1.539786 1_565
O5 V3 2.141805 1_555
O5 V11 2.742693 1_554
O6 P0 1.564666 1_555
O6 V5 2.093196 1_545
O6 V4 2.203680 1_555
O7 P3 1.558173 1_545
O7 V2 2.076413 1_555
O7 V1 2.172432 1_545
O8 P1 1.564666 1_555
O8 V4 2.093196 1_555
O8 V5 2.203680 1_555
O9 P2 1.549091 1_555
O9 V3 2.066292 1_545
O9 V0 2.270338 1_555
O10 P2 1.558173 1_555
O10 V3 2.076413 1_555
O10 V0 2.172432 1_555
O11 P3 1.549091 1_555
O11 V2 2.066292 1_555
O11 V1 2.270338 1_555
O12 P2 1.560736 1_555
O12 V4 2.211997 1_555
O12 V8 2.220103 1_555
O13 P4 1.554710 1_555
O13 V4 2.193746 1_555
O13 V5 2.237428 1_545
O14 P3 1.560736 1_655
O14 V5 2.211997 1_555
O14 V9 2.220103 1_555
O15 P2 1.554710 1_555
O15 V6 2.193746 1_555
O15 V7 2.237428 1_555
O16 P5 1.554710 1_555
O16 V5 2.193746 1_555
O16 V4 2.237428 1_555
O17 P4 1.560736 1_455
O17 V6 2.211997 1_555
O17 V2 2.220103 1_555
O18 P3 1.554710 1_555
O18 V7 2.193746 1_555
O18 V6 2.237428 1_565
O19 P5 1.560736 1_555
O19 V7 2.211997 1_555
O19 V3 2.220103 1_555
O20 P4 1.549091 1_555
O20 V9 2.066292 1_555
O20 V10 2.270338 1_555
O21 P5 1.558173 1_555
O21 V8 2.076413 1_555
O21 V11 2.172432 1_555
O22 P5 1.549091 1_555
O22 V8 2.066292 1_565
O22 V11 2.270338 1_555
O23 P6 1.564666 1_555
O23 V7 2.093196 1_555
O23 V6 2.203680 1_555
O24 P4 1.558173 1_565
O24 V9 2.076413 1_555
O24 V10 2.172432 1_565
O25 P7 1.564666 1_555
O25 V6 2.093196 1_565
O25 V7 2.203680 1_555
O26 P7 1.539786 1_545
O26 V8 2.141805 1_555
O26 V0 2.742693 1_556
O27 P6 1.539786 1_555
O27 V9 2.141805 1_455
O27 V1 2.742693 1_556
O28 P6 1.566850 1_555
O28 V10 2.121727 1_455
O28 V1 2.233296 1_546
O29 P0 1.560144 1_556
O29 V10 2.175998 1_555
O29 V8 2.252824 1_555
O30 P7 1.566850 1_555
O30 V11 2.121727 1_555
O30 V0 2.233296 1_556
O31 P1 1.560144 1_556
O31 V11 2.175998 1_555
O31 V9 2.252824 1_555
