# generated using pymatgen
data_Ca3MnO4
_symmetry_space_group_name_H-M   'P 1'
_cell_length_a   5.81650266
_cell_length_b   6.74235225
_cell_length_c   11.62703741
_cell_angle_alpha   73.14546665
_cell_angle_beta   99.50178762
_cell_angle_gamma   90.00000000
_symmetry_Int_Tables_number   1
_chemical_formula_structural   Ca3MnO4
_chemical_formula_sum   'Ca12 Mn4 O16'
_cell_volume   429.84878238
_cell_formula_units_Z   4
loop_
 _symmetry_equiv_pos_site_id
 _symmetry_equiv_pos_as_xyz
  1  'x, y, z'
loop_
 _atom_site_type_symbol
 _atom_site_label
 _atom_site_symmetry_multiplicity
 _atom_site_fract_x
 _atom_site_fract_y
 _atom_site_fract_z
 _atom_site_occupancy
  Ca  Ca0  1  0.25000000  0.62500000  0.75000000  1
  Ca  Ca1  1  0.75000000  0.37500000  0.25000000  1
  Ca  Ca2  1  0.25000000  0.12500000  0.75000000  1
  Ca  Ca3  1  0.75000000  0.87500000  0.25000000  1
  Ca  Ca4  1  0.75000000  0.37500000  0.75000000  1
  Ca  Ca5  1  0.25000000  0.12500000  0.25000000  1
  Ca  Ca6  1  0.75000000  0.87500000  0.75000000  1
  Ca  Ca7  1  0.25000000  0.62500000  0.25000000  1
  Ca  Ca8  1  0.00000000  0.50000000  0.50000000  1
  Ca  Ca9  1  0.50000000  0.25000000  0.00000000  1
  Ca  Ca10  1  0.00000000  0.00000000  0.50000000  1
  Ca  Ca11  1  0.50000000  0.75000000  0.00000000  1
  Mn  Mn0  1  0.00000000  0.50000000  0.00000000  1
  Mn  Mn1  1  0.50000000  0.25000000  0.50000000  1
  Mn  Mn2  1  0.50000000  0.75000000  0.50000000  1
  Mn  Mn3  1  0.00000000  0.00000000  0.00000000  1
  O  O0  1  0.62933100  0.56177800  0.87644400  1
  O  O1  1  0.12933100  0.31177800  0.37644400  1
  O  O2  1  0.62933100  0.06177800  0.87644400  1
  O  O3  1  0.12933100  0.81177800  0.37644400  1
  O  O4  1  0.87066900  0.68822200  0.62355600  1
  O  O5  1  0.37066900  0.43822200  0.12355600  1
  O  O6  1  0.87066900  0.18822200  0.62355600  1
  O  O7  1  0.37066900  0.93822200  0.12355600  1
  O  O8  1  0.12152500  0.31076300  0.87847500  1
  O  O9  1  0.62152500  0.06076300  0.37847500  1
  O  O10  1  0.12152500  0.81076300  0.87847500  1
  O  O11  1  0.62152500  0.56076300  0.37847500  1
  O  O12  1  0.37847500  0.43923700  0.62152500  1
  O  O13  1  0.87847500  0.18923700  0.12152500  1
  O  O14  1  0.37847500  0.93923700  0.62152500  1
  O  O15  1  0.87847500  0.68923700  0.12152500  1
loop_
_geom_bond_atom_site_label_1
_geom_bond_atom_site_label_2
_geom_bond_distance
_geom_bond_site_symmetry_2
Ca0 O0 2.403510 1_555
Ca0 O4 2.403510 1_455
Ca0 O8 2.410801 1_555
Ca0 O14 2.410801 1_555
Ca0 O12 2.410806 1_555
Ca0 O10 2.410806 1_555
Ca1 O1 2.403510 1_655
Ca1 O5 2.403510 1_555
Ca1 O15 2.410801 1_555
Ca1 O9 2.410801 1_555
Ca1 O11 2.410806 1_555
Ca1 O13 2.410806 1_555
Ca2 O2 2.403510 1_555
Ca2 O6 2.403510 1_455
Ca2 O10 2.410801 1_545
Ca2 O12 2.410801 1_555
Ca2 O8 2.410806 1_555
Ca2 O14 2.410806 1_545
Ca3 O3 2.403510 1_655
Ca3 O7 2.403510 1_555
Ca3 O13 2.410801 1_565
Ca3 O11 2.410801 1_555
Ca3 O9 2.410806 1_565
Ca3 O15 2.410806 1_555
Ca4 O8 2.376524 1_655
Ca4 O12 2.376524 1_555
Ca4 O4 2.377857 1_555
Ca4 O6 2.377857 1_555
Ca4 O2 2.377857 1_555
Ca4 O0 2.377857 1_555
Ca5 O13 2.376524 1_455
Ca5 O9 2.376524 1_555
Ca5 O5 2.377857 1_555
Ca5 O7 2.377857 1_545
Ca5 O1 2.377857 1_555
Ca5 O3 2.377857 1_545
Ca6 O14 2.376524 1_555
Ca6 O10 2.376524 1_655
Ca6 O4 2.377857 1_555
Ca6 O6 2.377857 1_565
Ca6 O2 2.377857 1_565
Ca6 O0 2.377857 1_555
Ca7 O11 2.376524 1_555
Ca7 O15 2.376524 1_455
Ca7 O5 2.377857 1_555
Ca7 O7 2.377857 1_555
Ca7 O1 2.377857 1_555
Ca7 O3 2.377857 1_555
Ca8 O12 2.376524 1_555
Ca8 O11 2.376524 1_455
Ca8 O3 2.377853 1_555
Ca8 O1 2.377853 1_555
Ca8 O4 2.377853 1_455
Ca8 O6 2.377853 1_455
Ca9 O13 2.376524 1_555
Ca9 O8 2.376524 1_554
Ca9 O0 2.377853 1_554
Ca9 O2 2.377853 1_554
Ca9 O7 2.377853 1_545
Ca9 O5 2.377853 1_555
Ca10 O14 2.376524 1_545
Ca10 O9 2.376524 1_455
Ca10 O1 2.377853 1_555
Ca10 O3 2.377853 1_545
Ca10 O6 2.377853 1_455
Ca10 O4 2.377853 1_445
Ca11 O15 2.376524 1_555
Ca11 O10 2.376524 1_554
Ca11 O2 2.377853 1_564
Ca11 O0 2.377853 1_554
Ca11 O7 2.377853 1_555
Ca11 O5 2.377853 1_555
Mn0 O8 2.345046 1_554
Mn0 O15 2.345046 1_455
Mn0 O13 2.345051 1_455
Mn0 O10 2.345051 1_554
Mn0 O5 2.348623 1_555
Mn0 O0 2.348623 1_454
Mn1 O12 2.345046 1_555
Mn1 O9 2.345046 1_555
Mn1 O14 2.345051 1_545
Mn1 O11 2.345051 1_555
Mn1 O6 2.348623 1_555
Mn1 O1 2.348623 1_555
Mn2 O11 2.345046 1_555
Mn2 O14 2.345046 1_555
Mn2 O9 2.345051 1_565
Mn2 O12 2.345051 1_555
Mn2 O4 2.348623 1_555
Mn2 O3 2.348623 1_555
Mn3 O10 2.345046 1_544
Mn3 O13 2.345046 1_455
Mn3 O15 2.345051 1_445
Mn3 O8 2.345051 1_554
Mn3 O7 2.348623 1_545
Mn3 O2 2.348623 1_454
