# generated using pymatgen
data_Li2Mn(PO4)2
_symmetry_space_group_name_H-M   'P 1'
_cell_length_a   5.03031771
_cell_length_b   5.03031771
_cell_length_c   13.70943524
_cell_angle_alpha   83.63729230
_cell_angle_beta   83.63729230
_cell_angle_gamma   55.02778383
_symmetry_Int_Tables_number   1
_chemical_formula_structural   Li2Mn(PO4)2
_chemical_formula_sum   'Li4 Mn2 P4 O16'
_cell_volume   282.03635409
_cell_formula_units_Z   2
loop_
 _symmetry_equiv_pos_site_id
 _symmetry_equiv_pos_as_xyz
  1  'x, y, z'
loop_
 _atom_site_type_symbol
 _atom_site_label
 _atom_site_symmetry_multiplicity
 _atom_site_fract_x
 _atom_site_fract_y
 _atom_site_fract_z
 _atom_site_occupancy
  Li  Li0  1  0.69415500  0.63770400  0.33950400  1
  Li  Li1  1  0.63770400  0.69415500  0.83950400  1
  Li  Li2  1  0.95166600  0.03765800  0.74342600  1
  Li  Li3  1  0.03765800  0.95166600  0.24342600  1
  Mn  Mn0  1  0.99621100  0.00902200  0.00241700  1
  Mn  Mn1  1  0.00902200  0.99621100  0.50241700  1
  P  P0  1  0.67573600  0.64815200  0.11135500  1
  P  P1  1  0.64815200  0.67573600  0.61135500  1
  P  P2  1  0.34869600  0.33269000  0.38948300  1
  P  P3  1  0.33269000  0.34869600  0.88948300  1
  O  O0  1  0.85214500  0.26625200  0.11865900  1
  O  O1  1  0.77461400  0.51209400  0.71099700  1
  O  O2  1  0.79239300  0.43743000  0.52810700  1
  O  O3  1  0.95364800  0.69820900  0.08133700  1
  O  O4  1  0.69820900  0.95364800  0.58133700  1
  O  O5  1  0.43743000  0.79239300  0.02810700  1
  O  O6  1  0.51209400  0.77461400  0.21099700  1
  O  O7  1  0.26625200  0.85214500  0.61865900  1
  O  O8  1  0.72490100  0.18456600  0.37274200  1
  O  O9  1  0.51376300  0.14942600  0.80072200  1
  O  O10  1  0.55962500  0.22761300  0.97443400  1
  O  O11  1  0.33403500  0.02956100  0.42009500  1
  O  O12  1  0.02956100  0.33403500  0.92009500  1
  O  O13  1  0.22761300  0.55962500  0.47443400  1
  O  O14  1  0.14942600  0.51376300  0.30072200  1
  O  O15  1  0.18456600  0.72490100  0.87274200  1
loop_
_geom_bond_atom_site_label_1
_geom_bond_atom_site_label_2
_geom_bond_distance
_geom_bond_site_symmetry_2
Li0 O6 1.944861 1_555
Li0 O14 2.020643 1_655
Li0 O11 2.081700 1_565
Li0 O8 2.192856 1_555
Li1 O1 1.944861 1_555
Li1 O9 2.020643 1_565
Li1 O12 2.081700 1_655
Li1 O15 2.192856 1_555
Li2 O9 2.019910 1_555
Li2 O1 2.025468 1_555
Li2 O7 2.088487 1_645
Li2 O15 2.172540 1_645
Li3 O14 2.019910 1_555
Li3 O6 2.025468 1_555
Li3 O0 2.088487 1_465
Li3 O8 2.172540 1_465
Mn0 O10 1.871989 1_554
Mn0 O5 1.884992 1_645
Mn0 O3 1.902213 1_545
Mn0 O12 1.959158 1_654
Mn0 O0 1.966009 1_555
Mn0 O15 2.176770 1_644
Mn1 O13 1.871989 1_555
Mn1 O2 1.884992 1_465
Mn1 O4 1.902213 1_455
Mn1 O11 1.959158 1_565
Mn1 O7 1.966009 1_555
Mn1 O8 2.176770 1_465
O0 P0 1.584562 1_555
O1 P1 1.513744 1_555
O2 P1 1.545512 1_555
O3 P0 1.562107 1_555
O4 P1 1.562107 1_555
O5 P0 1.545512 1_555
O6 P0 1.513744 1_555
O7 P1 1.584562 1_555
O8 P2 1.585670 1_555
O9 P3 1.514340 1_555
O10 P3 1.539765 1_555
O11 P2 1.576992 1_555
O12 P3 1.576992 1_555
O13 P2 1.539765 1_555
O14 P2 1.514340 1_555
O15 P3 1.585670 1_555
