# generated using pymatgen
data_Li3V4P2O8F9
_symmetry_space_group_name_H-M   'P 1'
_cell_length_a   14.59025200
_cell_length_b   7.04601600
_cell_length_c   7.42062104
_cell_angle_alpha   75.50275243
_cell_angle_beta   90.00000000
_cell_angle_gamma   90.00000000
_symmetry_Int_Tables_number   1
_chemical_formula_structural   Li3V4P2O8F9
_chemical_formula_sum   'Li6 V8 P4 O16 F18'
_cell_volume   738.57339256
_cell_formula_units_Z   2
loop_
 _symmetry_equiv_pos_site_id
 _symmetry_equiv_pos_as_xyz
  1  'x, y, z'
loop_
 _atom_site_type_symbol
 _atom_site_label
 _atom_site_symmetry_multiplicity
 _atom_site_fract_x
 _atom_site_fract_y
 _atom_site_fract_z
 _atom_site_occupancy
  Li  Li0  1  0.75000000  0.01951500  0.44037800  1
  Li  Li1  1  0.44927400  0.81602700  0.72683400  1
  Li  Li2  1  0.05072600  0.81602700  0.72683400  1
  Li  Li3  1  0.55072600  0.18397300  0.27316600  1
  Li  Li4  1  0.94927400  0.18397300  0.27316600  1
  Li  Li5  1  0.25000000  0.98048500  0.55962200  1
  V  V0  1  0.75000000  0.96354100  0.06066200  1
  V  V1  1  0.25000000  0.51759700  0.94923500  1
  V  V2  1  0.38056800  0.68586600  0.32421800  1
  V  V3  1  0.11943200  0.68586600  0.32421800  1
  V  V4  1  0.61943200  0.31413400  0.67578200  1
  V  V5  1  0.88056800  0.31413400  0.67578200  1
  V  V6  1  0.75000000  0.48240300  0.05076500  1
  V  V7  1  0.25000000  0.03645900  0.93933800  1
  P  P0  1  0.89995800  0.66383900  0.29782100  1
  P  P1  1  0.60004200  0.66383900  0.29782100  1
  P  P2  1  0.39995800  0.33616100  0.70217900  1
  P  P3  1  0.10004200  0.33616100  0.70217900  1
  O  O0  1  0.84435100  0.86042900  0.25638200  1
  O  O1  1  0.65564900  0.86042900  0.25638200  1
  O  O2  1  0.50398300  0.71213000  0.21164500  1
  O  O3  1  0.99601700  0.71213000  0.21164500  1
  O  O4  1  0.35458700  0.49241900  0.78977500  1
  O  O5  1  0.14541300  0.49241900  0.78977500  1
  O  O6  1  0.90404800  0.57885500  0.51027100  1
  O  O7  1  0.59595200  0.57885500  0.51027100  1
  O  O8  1  0.40404800  0.42114500  0.48972900  1
  O  O9  1  0.09595200  0.42114500  0.48972900  1
  O  O10  1  0.85458700  0.50758100  0.21022500  1
  O  O11  1  0.64541300  0.50758100  0.21022500  1
  O  O12  1  0.49601700  0.28787000  0.78835500  1
  O  O13  1  0.00398300  0.28787000  0.78835500  1
  O  O14  1  0.34435100  0.13957100  0.74361800  1
  O  O15  1  0.15564900  0.13957100  0.74361800  1
  F  F0  1  0.25000000  0.80943800  0.81383700  1
  F  F1  1  0.75000000  0.76073000  0.92079400  1
  F  F2  1  0.41183600  0.86271100  0.48812900  1
  F  F3  1  0.08816400  0.86271100  0.48812900  1
  F  F4  1  0.34568500  0.92349900  0.12051100  1
  F  F5  1  0.15431500  0.92349900  0.12051100  1
  F  F6  1  0.25000000  0.71031500  0.42028600  1
  F  F7  1  0.84151100  0.45552000  0.86297400  1
  F  F8  1  0.65848900  0.45552000  0.86297400  1
  F  F9  1  0.34151100  0.54448000  0.13702600  1
  F  F10  1  0.15848900  0.54448000  0.13702600  1
  F  F11  1  0.75000000  0.28968500  0.57971400  1
  F  F12  1  0.84568500  0.07650100  0.87948900  1
  F  F13  1  0.65431500  0.07650100  0.87948900  1
  F  F14  1  0.91183600  0.13728900  0.51187100  1
  F  F15  1  0.58816400  0.13728900  0.51187100  1
  F  F16  1  0.25000000  0.23927000  0.07920600  1
  F  F17  1  0.75000000  0.19056200  0.18616300  1
loop_
_geom_bond_atom_site_label_1
_geom_bond_atom_site_label_2
_geom_bond_distance
_geom_bond_site_symmetry_2
Li0 O0 2.404576 1_545
Li0 O1 2.404576 1_545
Li5 O14 2.404576 1_565
Li5 O15 2.404576 1_565
O0 P0 1.567882 1_555
O0 V0 2.000987 1_555
O1 P1 1.567882 1_555
O1 V0 2.000987 1_555
O2 P1 1.542739 1_555
O2 V2 1.974092 1_555
O3 P0 1.542739 1_555
O3 V3 1.974092 1_655
O4 P2 1.559242 1_555
O4 V1 1.966031 1_555
O5 P3 1.559242 1_555
O5 V1 1.966031 1_555
O6 P0 1.541062 1_555
O6 V5 1.989457 1_555
O7 P1 1.541062 1_555
O7 V4 1.989457 1_555
O8 P2 1.541062 1_555
O8 V2 1.989457 1_555
O9 P3 1.541062 1_555
O9 V3 1.989457 1_555
O10 P0 1.559242 1_555
O10 V6 1.966031 1_555
O11 P1 1.559242 1_555
O11 V6 1.966031 1_555
O12 P2 1.542739 1_555
O12 V4 1.974092 1_555
O13 P3 1.542739 1_555
O13 V5 1.974092 1_455
O14 P2 1.567882 1_555
O14 V7 2.000987 1_555
O15 P3 1.567882 1_555
O15 V7 2.000987 1_555
F0 Li5 1.967957 1_555
F0 V7 2.042511 1_565
F0 V1 2.050250 1_555
F1 V6 1.956815 1_556
F1 V0 1.965172 1_556
F2 Li1 1.803467 1_555
F2 V2 1.999755 1_555
F3 Li2 1.803467 1_555
F3 V3 1.999755 1_555
F4 V7 1.963214 1_564
F4 V2 2.019991 1_555
F5 V7 1.963214 1_564
F5 V3 2.019991 1_555
F6 V2 2.056324 1_555
F6 V3 2.056324 1_555
F6 Li5 2.382918 1_555
F7 V6 1.972973 1_556
F7 V5 1.984827 1_555
F8 V6 1.972973 1_556
F8 V4 1.984827 1_555
F9 V1 1.972973 1_554
F9 V2 1.984827 1_555
F10 V1 1.972973 1_554
F10 V3 1.984827 1_555
F11 V5 2.056324 1_555
F11 V4 2.056324 1_555
F11 Li0 2.382918 1_555
F12 V0 1.963214 1_546
F12 V5 2.019991 1_555
F13 V0 1.963214 1_546
F13 V4 2.019991 1_555
F14 Li4 1.803467 1_555
F14 V5 1.999755 1_555
F15 Li3 1.803467 1_555
F15 V4 1.999755 1_555
F16 V1 1.956815 1_554
F16 V7 1.965172 1_554
F17 Li0 1.967957 1_555
F17 V0 2.042511 1_545
F17 V6 2.050250 1_555
