# generated using pymatgen
data_Li4V2Co3Sb3O16
_symmetry_space_group_name_H-M   'P 1'
_cell_length_a   6.13760491
_cell_length_b   6.13760491
_cell_length_c   9.74016351
_cell_angle_alpha   89.21023163
_cell_angle_beta   89.21023163
_cell_angle_gamma   59.57521946
_symmetry_Int_Tables_number   1
_chemical_formula_structural   Li4V2Co3Sb3O16
_chemical_formula_sum   'Li4 V2 Co3 Sb3 O16'
_cell_volume   316.34797265
_cell_formula_units_Z   1
loop_
 _symmetry_equiv_pos_site_id
 _symmetry_equiv_pos_as_xyz
  1  'x, y, z'
loop_
 _atom_site_type_symbol
 _atom_site_label
 _atom_site_symmetry_multiplicity
 _atom_site_fract_x
 _atom_site_fract_y
 _atom_site_fract_z
 _atom_site_occupancy
  Li  Li0  1  0.66963500  0.66963500  0.11329600  1
  Li  Li1  1  0.97830300  0.97830300  0.01941700  1
  Li  Li2  1  0.99392300  0.99392300  0.49211200  1
  Li  Li3  1  0.32449900  0.32449900  0.59661600  1
  V  V0  1  0.67835300  0.67835300  0.50000200  1
  V  V1  1  0.34729400  0.34729400  0.02438200  1
  Co  Co0  1  0.82911000  0.82911000  0.78453300  1
  Co  Co1  1  0.19264800  0.65825700  0.28338500  1
  Co  Co2  1  0.65825700  0.19264800  0.28338500  1
  Sb  Sb0  1  0.33390800  0.82888200  0.78480400  1
  Sb  Sb1  1  0.82888200  0.33390800  0.78480400  1
  Sb  Sb2  1  0.17662500  0.17662500  0.28664000  1
  O  O0  1  0.34052900  0.84472900  0.40724200  1
  O  O1  1  0.51366700  0.51366700  0.66141400  1
  O  O2  1  0.65633200  0.65633200  0.89710100  1
  O  O3  1  0.00381200  0.00381200  0.67972700  1
  O  O4  1  0.00823000  0.00823000  0.20215600  1
  O  O5  1  0.84472900  0.34052900  0.40724200  1
  O  O6  1  0.50592800  0.95513000  0.66035000  1
  O  O7  1  0.95513000  0.50592800  0.66035000  1
  O  O8  1  0.15656300  0.15656300  0.89666100  1
  O  O9  1  0.82295700  0.82295700  0.41868000  1
  O  O10  1  0.04033200  0.47638300  0.15547000  1
  O  O11  1  0.47638300  0.04033200  0.15547000  1
  O  O12  1  0.33235400  0.33235400  0.39653800  1
  O  O13  1  0.16641200  0.68027400  0.89641900  1
  O  O14  1  0.48660600  0.48660600  0.14718700  1
  O  O15  1  0.68027400  0.16641200  0.89641900  1
loop_
_geom_bond_atom_site_label_1
_geom_bond_atom_site_label_2
_geom_bond_distance
_geom_bond_site_symmetry_2
Li0 O14 1.972436 1_555
Li0 O10 2.007790 1_655
Li0 O11 2.007790 1_565
Li0 O2 2.112783 1_554
Li1 O4 1.813214 1_665
Li1 O15 1.999371 1_564
Li1 O13 1.999371 1_654
Li1 O8 2.227986 1_664
Li2 O3 1.832105 1_665
Li2 O9 1.967304 1_555
Li2 O0 2.011671 1_655
Li2 O5 2.011671 1_565
Li3 O12 1.949260 1_555
Li3 O6 2.046530 1_545
Li3 O7 2.046530 1_455
Li3 O1 2.121331 1_555
Co0 O15 2.104121 1_565
Co0 O13 2.104121 1_655
Co0 O3 2.108470 1_665
Co0 O7 2.117142 1_555
Co0 O6 2.117142 1_555
Co0 O2 2.127459 1_555
Co1 O4 2.009085 1_565
Co1 O14 2.042624 1_555
Co1 O12 2.044294 1_555
Co1 O0 2.170109 1_555
Co1 O10 2.190819 1_555
Co1 O9 2.353318 1_455
Co2 O4 2.009085 1_655
Co2 O14 2.042624 1_555
Co2 O12 2.044294 1_555
Co2 O5 2.170109 1_555
Co2 O11 2.190819 1_555
Co2 O9 2.353318 1_545
O0 V0 2.009966 1_555
O0 Sb2 2.105365 1_565
O1 Sb0 2.066468 1_555
O1 Sb1 2.066468 1_555
O1 V0 2.337143 1_555
O2 Sb0 2.034495 1_555
O2 Sb1 2.034495 1_555
O3 Sb1 2.031912 1_455
O3 Sb0 2.031912 1_545
O4 Sb2 1.985535 1_555
O5 V0 2.009966 1_555
O5 Sb2 2.105365 1_655
O6 Sb0 1.987947 1_555
O6 V0 2.156793 1_555
O7 Sb1 1.987947 1_555
O7 V0 2.156793 1_555
O8 Sb0 2.056010 1_545
O8 Sb1 2.056010 1_455
O8 V1 2.399287 1_556
O9 V0 1.720996 1_555
O10 Sb2 2.030478 1_555
O10 V1 2.063310 1_555
O11 Sb2 2.030478 1_555
O11 V1 2.063310 1_555
O12 Sb2 1.988618 1_555
O13 Sb0 1.990521 1_555
O13 V1 2.152359 1_556
O14 V1 1.920885 1_555
O15 Sb1 1.990521 1_555
O15 V1 2.152359 1_556
