# generated using pymatgen
data_Ba(PdO2)2
_symmetry_space_group_name_H-M   'P 1'
_cell_length_a   6.82685998
_cell_length_b   6.82699343
_cell_length_c   6.82683227
_cell_angle_alpha   124.76103337
_cell_angle_beta   124.77031739
_cell_angle_gamma   81.92584123
_symmetry_Int_Tables_number   1
_chemical_formula_structural   Ba(PdO2)2
_chemical_formula_sum   'Ba2 Pd4 O8'
_cell_volume   206.52297862
_cell_formula_units_Z   2
loop_
 _symmetry_equiv_pos_site_id
 _symmetry_equiv_pos_as_xyz
  1  'x, y, z'
loop_
 _atom_site_type_symbol
 _atom_site_label
 _atom_site_symmetry_multiplicity
 _atom_site_fract_x
 _atom_site_fract_y
 _atom_site_fract_z
 _atom_site_occupancy
  Ba  Ba0  1  0.37504776  0.12507862  0.25003930  1
  Ba  Ba1  1  0.62495224  0.87492138  0.74996070  1
  Pd  Pd0  1  0.50000000  0.50000000  0.00000000  1
  Pd  Pd1  1  -0.00000000  0.00000000  0.50000000  1
  Pd  Pd2  1  -0.00000000  0.50000000  0.00000000  1
  Pd  Pd3  1  -0.00000000  0.50000000  0.50000000  1
  O  O0  1  0.97973891  0.32043959  0.13721204  1
  O  O1  1  0.82040577  0.18328401  0.34069553  1
  O  O2  1  0.34253038  0.47977198  0.15934663  1
  O  O3  1  0.31677846  0.15745332  0.63719891  1
  O  O4  1  0.68322154  0.84254668  0.36280109  1
  O  O5  1  0.65746962  0.52022802  0.84065337  1
  O  O6  1  0.17959423  0.81671599  0.65930447  1
  O  O7  1  0.02026109  0.67956041  0.86278796  1
loop_
_geom_bond_atom_site_label_1
_geom_bond_atom_site_label_2
_geom_bond_distance
_geom_bond_site_symmetry_2
Ba0 O5 2.728205 1_555
Ba0 O0 2.728488 1_455
Ba0 O4 2.728601 1_545
Ba0 O6 2.728819 1_544
Ba0 O1 2.774470 1_555
Ba0 O2 2.774540 1_555
Ba0 O3 2.775121 1_555
Ba0 O7 2.775518 1_544
Ba1 O2 2.728205 1_555
Ba1 O7 2.728488 1_655
Ba1 O3 2.728601 1_565
Ba1 O1 2.728819 1_566
Ba1 O6 2.774470 1_555
Ba1 O5 2.774540 1_555
Ba1 O4 2.775121 1_555
Ba1 O0 2.775518 1_566
O0 Pd3 1.962320 1_655
O0 Pd2 1.975887 1_655
O1 Pd1 1.962561 1_655
O1 Pd3 1.975747 1_655
O2 Pd2 1.962090 1_555
O2 Pd0 1.976101 1_555
O3 Pd0 1.962463 1_556
O3 Pd1 1.975913 1_555
O4 Pd0 1.962463 1_555
O4 Pd1 1.975913 1_665
O5 Pd2 1.962090 1_656
O5 Pd0 1.976101 1_556
O6 Pd1 1.962561 1_565
O6 Pd3 1.975747 1_555
O7 Pd3 1.962320 1_555
O7 Pd2 1.975887 1_556
