# generated using pymatgen
data_CsClO3
_symmetry_space_group_name_H-M   'P 1'
_cell_length_a   4.72617300
_cell_length_b   6.57345200
_cell_length_c   6.81280600
_cell_angle_alpha   90.00000000
_cell_angle_beta   90.00000000
_cell_angle_gamma   90.00000000
_symmetry_Int_Tables_number   1
_chemical_formula_structural   CsClO3
_chemical_formula_sum   'Cs2 Cl2 O6'
_cell_volume   211.65529272
_cell_formula_units_Z   2
loop_
 _symmetry_equiv_pos_site_id
 _symmetry_equiv_pos_as_xyz
  1  'x, y, z'
loop_
 _atom_site_type_symbol
 _atom_site_label
 _atom_site_symmetry_multiplicity
 _atom_site_fract_x
 _atom_site_fract_y
 _atom_site_fract_z
 _atom_site_occupancy
  Cs  Cs0  1  0.00269600  0.00000000  0.48853900  1
  Cs  Cs1  1  0.99730400  0.50000000  0.98853900  1
  Cl  Cl0  1  0.46927100  0.00000000  0.02997600  1
  Cl  Cl1  1  0.53072900  0.50000000  0.52997600  1
  O  O0  1  0.52035600  0.81571600  0.15736700  1
  O  O1  1  0.52035600  0.18428400  0.15736700  1
  O  O2  1  0.84328800  0.50000000  0.47975400  1
  O  O3  1  0.47964400  0.68428400  0.65736700  1
  O  O4  1  0.47964400  0.31571600  0.65736700  1
  O  O5  1  0.15671200  0.00000000  0.97975400  1
loop_
_geom_bond_atom_site_label_1
_geom_bond_atom_site_label_2
_geom_bond_distance
_geom_bond_site_symmetry_2
Cs0 O4 3.272787 1_555
Cs0 O3 3.272787 1_545
Cs0 O2 3.372498 1_445
Cs0 O2 3.372498 1_455
Cs0 O5 3.424801 1_555
Cs0 O3 3.426507 1_445
Cs0 O4 3.426507 1_455
Cs0 O0 3.428500 1_445
Cs0 O1 3.428500 1_455
Cs0 O1 3.541686 1_555
Cs0 O0 3.541686 1_545
Cs0 O5 3.541858 1_554
Cs1 O0 3.272787 1_556
Cs1 O1 3.272787 1_556
Cs1 O5 3.372498 1_655
Cs1 O5 3.372498 1_665
Cs1 O2 3.424801 1_556
Cs1 O0 3.426507 1_656
Cs1 O1 3.426507 1_656
Cs1 O4 3.428500 1_655
Cs1 O3 3.428500 1_655
Cs1 O3 3.541686 1_555
Cs1 O4 3.541686 1_555
Cs1 O2 3.541858 1_555
Cl0 O1 1.509626 1_555
Cl0 O0 1.509626 1_545
Cl0 O5 1.516315 1_554
Cl1 O3 1.509626 1_555
Cl1 O4 1.509626 1_555
Cl1 O2 1.516315 1_555
