# generated using pymatgen
data_Ba4Sn3O10
_symmetry_space_group_name_H-M   'P 1'
_cell_length_a   15.42004479
_cell_length_b   15.42004479
_cell_length_c   5.93575700
_cell_angle_alpha   90.00000000
_cell_angle_beta   90.00000000
_cell_angle_gamma   157.74164210
_symmetry_Int_Tables_number   1
_chemical_formula_structural   Ba4Sn3O10
_chemical_formula_sum   'Ba8 Sn6 O20'
_cell_volume   534.61184761
_cell_formula_units_Z   2
loop_
 _symmetry_equiv_pos_site_id
 _symmetry_equiv_pos_as_xyz
  1  'x, y, z'
loop_
 _atom_site_type_symbol
 _atom_site_label
 _atom_site_symmetry_multiplicity
 _atom_site_fract_x
 _atom_site_fract_y
 _atom_site_fract_z
 _atom_site_occupancy
  Ba  Ba0  1  0.93066800  0.06933200  0.00000000  1
  Ba  Ba1  1  0.20320800  0.79679200  0.00000000  1
  Ba  Ba2  1  0.79679200  0.20320800  0.00000000  1
  Ba  Ba3  1  0.06933200  0.93066800  0.00000000  1
  Ba  Ba4  1  0.43066800  0.56933200  0.50000000  1
  Ba  Ba5  1  0.29679200  0.70320800  0.50000000  1
  Ba  Ba6  1  0.70320800  0.29679200  0.50000000  1
  Ba  Ba7  1  0.56933200  0.43066800  0.50000000  1
  Sn  Sn0  1  0.50000000  0.50000000  0.00000000  1
  Sn  Sn1  1  0.36075500  0.63924500  0.00000000  1
  Sn  Sn2  1  0.63924500  0.36075500  0.00000000  1
  Sn  Sn3  1  0.00000000  0.00000000  0.50000000  1
  Sn  Sn4  1  0.13924500  0.86075500  0.50000000  1
  Sn  Sn5  1  0.86075500  0.13924500  0.50000000  1
  O  O0  1  0.43060700  0.56939300  0.00000000  1
  O  O1  1  0.29185100  0.70814900  0.00000000  1
  O  O2  1  0.70814900  0.29185100  0.00000000  1
  O  O3  1  0.56939300  0.43060700  0.00000000  1
  O  O4  1  0.22230000  0.22230000  0.22194500  1
  O  O5  1  0.90156900  0.62459700  0.23668400  1
  O  O6  1  0.62459700  0.90156900  0.23668400  1
  O  O7  1  0.12459700  0.40156900  0.26331600  1
  O  O8  1  0.40156900  0.12459700  0.26331600  1
  O  O9  1  0.72230000  0.72230000  0.27805500  1
  O  O10  1  0.93060700  0.06939300  0.50000000  1
  O  O11  1  0.20814900  0.79185100  0.50000000  1
  O  O12  1  0.79185100  0.20814900  0.50000000  1
  O  O13  1  0.06939300  0.93060700  0.50000000  1
  O  O14  1  0.27770000  0.27770000  0.72194500  1
  O  O15  1  0.87540300  0.59843100  0.73668400  1
  O  O16  1  0.59843100  0.87540300  0.73668400  1
  O  O17  1  0.09843100  0.37540300  0.76331600  1
  O  O18  1  0.37540300  0.09843100  0.76331600  1
  O  O19  1  0.77770000  0.77770000  0.77805500  1
loop_
_geom_bond_atom_site_label_1
_geom_bond_atom_site_label_2
_geom_bond_distance
_geom_bond_site_symmetry_2
Ba0 O19 2.808612 1_544
Ba0 O4 2.808612 1_655
Ba0 O6 2.888210 1_545
Ba0 O17 2.888210 1_654
Ba0 O10 2.967879 1_554
Ba0 O10 2.967879 1_555
Ba0 O0 2.976404 1_545
Ba0 O0 2.976404 1_655
Ba0 O16 3.045411 1_544
Ba0 O7 3.045411 1_655
Ba0 O9 3.139800 1_545
Ba0 O14 3.139800 1_654
Ba1 O1 2.682348 1_555
Ba1 O18 2.792571 1_564
Ba1 O5 2.792571 1_455
Ba1 O8 2.954865 1_565
Ba1 O15 2.954865 1_454
Ba1 O11 2.971642 1_555
Ba1 O11 2.971642 1_554
Ba1 O2 2.980156 1_565
Ba1 O2 2.980156 1_455
Ba2 O2 2.682348 1_555
Ba2 O17 2.792571 1_654
Ba2 O6 2.792571 1_545
Ba2 O7 2.954865 1_655
Ba2 O16 2.954865 1_544
Ba2 O12 2.971642 1_555
Ba2 O12 2.971642 1_554
Ba2 O1 2.980156 1_655
Ba2 O1 2.980156 1_545
Ba3 O19 2.808612 1_454
Ba3 O4 2.808612 1_565
Ba3 O5 2.888210 1_455
Ba3 O18 2.888210 1_564
Ba3 O13 2.967879 1_554
Ba3 O13 2.967879 1_555
Ba3 O3 2.976404 1_565
Ba3 O3 2.976404 1_455
Ba3 O15 3.045411 1_454
Ba3 O8 3.045411 1_565
Ba3 O9 3.139800 1_455
Ba3 O14 3.139800 1_564
Ba4 O9 2.808612 1_555
Ba4 O14 2.808612 1_555
Ba4 O16 2.888210 1_555
Ba4 O7 2.888210 1_555
Ba4 O0 2.967879 1_556
Ba4 O0 2.967879 1_555
Ba4 O10 2.976404 1_455
Ba4 O10 2.976404 1_565
Ba4 O6 3.045411 1_555
Ba4 O17 3.045411 1_555
Ba4 O19 3.139800 1_555
Ba4 O4 3.139800 1_555
Ba5 O11 2.682348 1_555
Ba5 O16 2.792571 1_555
Ba5 O7 2.792571 1_555
Ba5 O17 2.954865 1_555
Ba5 O6 2.954865 1_555
Ba5 O1 2.971642 1_555
Ba5 O1 2.971642 1_556
Ba5 O12 2.980156 1_455
Ba5 O12 2.980156 1_565
Ba6 O12 2.682348 1_555
Ba6 O8 2.792571 1_555
Ba6 O15 2.792571 1_555
Ba6 O18 2.954865 1_555
Ba6 O5 2.954865 1_555
Ba6 O2 2.971642 1_555
Ba6 O2 2.971642 1_556
Ba6 O11 2.980156 1_545
Ba6 O11 2.980156 1_655
Ba7 O14 2.808612 1_555
Ba7 O9 2.808612 1_555
Ba7 O15 2.888210 1_555
Ba7 O8 2.888210 1_555
Ba7 O3 2.967879 1_555
Ba7 O3 2.967879 1_556
Ba7 O13 2.976404 1_655
Ba7 O13 2.976404 1_545
Ba7 O5 3.045411 1_555
Ba7 O18 3.045411 1_555
Ba7 O19 3.139800 1_555
Ba7 O4 3.139800 1_555
O0 Sn0 2.099841 1_555
O0 Sn1 2.113730 1_555
O1 Sn1 2.085044 1_555
O2 Sn2 2.085044 1_555
O3 Sn0 2.099841 1_555
O3 Sn2 2.113730 1_555
O4 Sn0 2.113834 1_555
O4 Sn3 2.115464 1_555
O5 Sn2 2.104015 1_555
O5 Sn4 2.105336 1_655
O6 Sn1 2.104015 1_555
O6 Sn5 2.105336 1_565
O7 Sn5 2.104015 1_455
O7 Sn1 2.105336 1_555
O8 Sn4 2.104015 1_545
O8 Sn2 2.105336 1_555
O9 Sn3 2.113834 1_665
O9 Sn0 2.115464 1_555
O10 Sn3 2.099841 1_655
O10 Sn5 2.113730 1_555
O11 Sn4 2.085044 1_555
O12 Sn5 2.085044 1_555
O13 Sn3 2.099841 1_565
O13 Sn4 2.113730 1_555
O14 Sn3 2.113834 1_555
O14 Sn0 2.115464 1_556
O15 Sn4 2.104015 1_655
O15 Sn2 2.105336 1_556
O16 Sn5 2.104015 1_565
O16 Sn1 2.105336 1_556
O17 Sn1 2.104015 1_556
O17 Sn5 2.105336 1_455
O18 Sn2 2.104015 1_556
O18 Sn4 2.105336 1_545
O19 Sn0 2.113834 1_556
O19 Sn3 2.115464 1_665
