# generated using pymatgen
data_Li2VPHO5
_symmetry_space_group_name_H-M   'P 1'
_cell_length_a   5.39541700
_cell_length_b   5.59800283
_cell_length_c   7.72747880
_cell_angle_alpha   108.39463079
_cell_angle_beta   108.84468729
_cell_angle_gamma   94.12203239
_symmetry_Int_Tables_number   1
_chemical_formula_structural   Li2VPHO5
_chemical_formula_sum   'Li4 V2 P2 H2 O10'
_cell_volume   205.63753754
_cell_formula_units_Z   2
loop_
 _symmetry_equiv_pos_site_id
 _symmetry_equiv_pos_as_xyz
  1  'x, y, z'
loop_
 _atom_site_type_symbol
 _atom_site_label
 _atom_site_symmetry_multiplicity
 _atom_site_fract_x
 _atom_site_fract_y
 _atom_site_fract_z
 _atom_site_occupancy
  Li  Li0  1  0.46587400  0.13039300  0.83238600  1
  Li  Li1  1  0.79365500  0.42582300  0.80088300  1
  Li  Li2  1  0.20634500  0.57417700  0.19911700  1
  Li  Li3  1  0.53412600  0.86960700  0.16761400  1
  V  V0  1  0.00000000  0.00000000  0.50000000  1
  V  V1  1  0.00000000  0.00000000  0.00000000  1
  P  P0  1  0.66893100  0.37479700  0.22883800  1
  P  P1  1  0.33106900  0.62520300  0.77116200  1
  H  H0  1  0.33949100  0.07687600  0.35870800  1
  H  H1  1  0.66050900  0.92312400  0.64129200  1
  O  O0  1  0.81627500  0.06141100  0.72415000  1
  O  O1  1  0.73025400  0.22161800  0.36751700  1
  O  O2  1  0.33289600  0.33805700  0.66877100  1
  O  O3  1  0.37939100  0.25314600  0.07276400  1
  O  O4  1  0.86154800  0.35115900  0.11350900  1
  O  O5  1  0.13845200  0.64884100  0.88649100  1
  O  O6  1  0.62060900  0.74685400  0.92723600  1
  O  O7  1  0.66710400  0.66194300  0.33122900  1
  O  O8  1  0.26974600  0.77838200  0.63248300  1
  O  O9  1  0.18372500  0.93858900  0.27585000  1
loop_
_geom_bond_atom_site_label_1
_geom_bond_atom_site_label_2
_geom_bond_distance
_geom_bond_site_symmetry_2
Li0 O2 1.981471 1_555
Li0 O3 1.985127 1_556
Li0 O8 2.027858 1_545
Li0 O4 2.394657 1_556
Li1 O5 1.951133 1_655
Li1 O0 1.961411 1_555
Li1 O6 2.185734 1_555
Li1 O2 2.309129 1_555
Li1 O4 2.496522 1_556
Li2 O4 1.951133 1_455
Li2 O9 1.961411 1_555
Li2 O3 2.185734 1_555
Li2 O7 2.309129 1_555
Li2 O5 2.496522 1_554
Li3 O7 1.981471 1_555
Li3 O6 1.985127 1_554
Li3 O1 2.027858 1_565
Li3 O5 2.394657 1_554
H0 O9 0.980599 1_545
H1 O0 0.980599 1_565
O0 V1 2.188854 1_656
O0 V0 2.209842 1_655
O1 P0 1.544302 1_555
O1 V0 2.191805 1_655
O2 P1 1.553910 1_555
O2 V0 2.224566 1_555
O3 P0 1.571731 1_555
O3 V1 2.202502 1_555
O4 P0 1.560594 1_555
O4 V1 2.176669 1_655
O5 P1 1.560594 1_555
O5 V1 2.176669 1_566
O6 P1 1.571731 1_555
O6 V1 2.202502 1_666
O7 P0 1.553910 1_555
O7 V0 2.224566 1_665
O8 P1 1.544302 1_555
O8 V0 2.191805 1_565
O9 V1 2.188854 1_565
O9 V0 2.209842 1_565
