# generated using pymatgen
data_LiFe2OF3
_symmetry_space_group_name_H-M   'P 1'
_cell_length_a   6.21986900
_cell_length_b   6.21986900
_cell_length_c   8.73434300
_cell_angle_alpha   90.00000000
_cell_angle_beta   90.00000000
_cell_angle_gamma   90.00000000
_symmetry_Int_Tables_number   1
_chemical_formula_structural   LiFe2OF3
_chemical_formula_sum   'Li4 Fe8 O4 F12'
_cell_volume   337.90352204
_cell_formula_units_Z   4
loop_
 _symmetry_equiv_pos_site_id
 _symmetry_equiv_pos_as_xyz
  1  'x, y, z'
loop_
 _atom_site_type_symbol
 _atom_site_label
 _atom_site_symmetry_multiplicity
 _atom_site_fract_x
 _atom_site_fract_y
 _atom_site_fract_z
 _atom_site_occupancy
  Li  Li0  1  0.25686600  0.50941000  0.24904900  1
  Li  Li1  1  0.49059000  0.25686600  0.99904900  1
  Li  Li2  1  0.50941000  0.74313400  0.49904900  1
  Li  Li3  1  0.74313400  0.49059000  0.74904900  1
  Fe  Fe0  1  0.00211000  0.24792800  0.98811300  1
  Fe  Fe1  1  0.99789000  0.75207200  0.48811300  1
  Fe  Fe2  1  0.21925500  0.26127900  0.64605600  1
  Fe  Fe3  1  0.26127900  0.78074500  0.89605600  1
  Fe  Fe4  1  0.24792800  0.99789000  0.23811300  1
  Fe  Fe5  1  0.75207200  0.00211000  0.73811300  1
  Fe  Fe6  1  0.73872100  0.21925500  0.39605600  1
  Fe  Fe7  1  0.78074500  0.73872100  0.14605600  1
  O  O0  1  0.04470700  0.75213300  0.25360300  1
  O  O1  1  0.24786700  0.04470700  0.00360300  1
  O  O2  1  0.75213300  0.95529300  0.50360300  1
  O  O3  1  0.95529300  0.24786700  0.75360300  1
  F  F0  1  0.99992400  0.26467400  0.24259900  1
  F  F1  1  0.26467400  0.00007600  0.49259900  1
  F  F2  1  0.25570600  0.52101400  0.49411200  1
  F  F3  1  0.25802900  0.49318300  0.00146900  1
  F  F4  1  0.50681700  0.25802900  0.75146900  1
  F  F5  1  0.52101400  0.74429400  0.74411200  1
  F  F6  1  0.47898600  0.25570600  0.24411200  1
  F  F7  1  0.49318300  0.74197100  0.25146900  1
  F  F8  1  0.74197100  0.50681700  0.50146900  1
  F  F9  1  0.74429400  0.47898600  0.99411200  1
  F  F10  1  0.73532600  0.99992400  0.99259900  1
  F  F11  1  0.00007600  0.73532600  0.74259900  1
loop_
_geom_bond_atom_site_label_1
_geom_bond_atom_site_label_2
_geom_bond_distance
_geom_bond_site_symmetry_2
Li0 O0 2.005527 1_555
Li1 O1 2.005527 1_556
Li2 O2 2.005527 1_555
Li3 O3 2.005527 1_555
Fe0 O1 1.988106 1_556
Fe0 O3 2.068886 1_455
Fe1 O2 1.988106 1_555
Fe1 O0 2.068886 1_655
Fe2 O3 1.893378 1_455
Fe3 O1 1.893378 1_566
Fe4 O0 1.988106 1_555
Fe4 O1 2.068886 1_565
Fe5 O3 1.988106 1_555
Fe5 O2 2.068886 1_545
Fe6 O2 1.893378 1_545
Fe7 O0 1.893378 1_655
F0 Fe6 2.125045 1_555
F0 Li0 2.207808 1_655
F0 Fe0 2.225249 1_654
F0 Fe4 2.265940 1_645
F1 Fe2 2.125045 1_555
F1 Li2 2.207808 1_545
F1 Fe4 2.225249 1_545
F1 Fe1 2.265940 1_445
F2 Li2 2.097775 1_555
F2 Fe2 2.102992 1_555
F2 Li0 2.141693 1_555
F2 Fe1 2.153978 1_455
F3 Fe3 2.011766 1_554
F3 Li1 2.062352 1_554
F3 Li0 2.164815 1_555
F3 Fe0 2.207802 1_554
F4 Fe2 2.011766 1_555
F4 Li3 2.062352 1_555
F4 Li1 2.164815 1_555
F4 Fe5 2.207802 1_555
F5 Li3 2.097775 1_555
F5 Fe3 2.102992 1_555
F5 Li2 2.141693 1_555
F5 Fe5 2.153978 1_565
F6 Li0 2.097775 1_555
F6 Fe6 2.102992 1_555
F6 Li1 2.141693 1_554
F6 Fe4 2.153978 1_545
F7 Fe7 2.011766 1_555
F7 Li0 2.062352 1_555
F7 Li2 2.164815 1_555
F7 Fe4 2.207802 1_555
F8 Fe6 2.011766 1_555
F8 Li2 2.062352 1_555
F8 Li3 2.164815 1_555
F8 Fe1 2.207802 1_555
F9 Li1 2.097775 1_555
F9 Fe7 2.102992 1_556
F9 Li3 2.141693 1_555
F9 Fe0 2.153978 1_655
F10 Fe7 2.125045 1_556
F10 Li1 2.207808 1_565
F10 Fe5 2.225249 1_565
F10 Fe0 2.265940 1_665
F11 Fe3 2.125045 1_555
F11 Li3 2.207808 1_455
F11 Fe1 2.225249 1_455
F11 Fe5 2.265940 1_465
