# generated using pymatgen
data_Li3Mn4(BO3)4
_symmetry_space_group_name_H-M   'P 1'
_cell_length_a   6.17320900
_cell_length_b   9.05168721
_cell_length_c   9.34097088
_cell_angle_alpha   82.15805044
_cell_angle_beta   83.38174453
_cell_angle_gamma   76.99513147
_symmetry_Int_Tables_number   1
_chemical_formula_structural   Li3Mn4(BO3)4
_chemical_formula_sum   'Li6 Mn8 B8 O24'
_cell_volume   501.87417443
_cell_formula_units_Z   2
loop_
 _symmetry_equiv_pos_site_id
 _symmetry_equiv_pos_as_xyz
  1  'x, y, z'
loop_
 _atom_site_type_symbol
 _atom_site_label
 _atom_site_symmetry_multiplicity
 _atom_site_fract_x
 _atom_site_fract_y
 _atom_site_fract_z
 _atom_site_occupancy
  Li  Li0  1  0.83364600  0.28264300  0.00251100  1
  Li  Li1  1  0.16635400  0.71735700  0.99748900  1
  Li  Li2  1  0.58056300  0.77969200  0.23767100  1
  Li  Li3  1  0.67584800  0.71801500  0.50805100  1
  Li  Li4  1  0.32415200  0.28198500  0.49194900  1
  Li  Li5  1  0.41943700  0.22030800  0.76232900  1
  Mn  Mn0  1  0.77348200  0.94902100  0.96616000  1
  Mn  Mn1  1  0.22651800  0.05097900  0.03384000  1
  Mn  Mn2  1  0.98084400  0.53695500  0.27023800  1
  Mn  Mn3  1  0.73500000  0.05467200  0.51763200  1
  Mn  Mn4  1  0.52048400  0.44224400  0.22805700  1
  Mn  Mn5  1  0.26500000  0.94532800  0.48236800  1
  Mn  Mn6  1  0.01915600  0.46304500  0.72976200  1
  Mn  Mn7  1  0.47951600  0.55775600  0.77194300  1
  B  B0  1  0.76979800  0.61524300  0.97855600  1
  B  B1  1  0.23020200  0.38475700  0.02144400  1
  B  B2  1  0.97025600  0.87283300  0.27342700  1
  B  B3  1  0.70149200  0.38929700  0.52407000  1
  B  B4  1  0.53338500  0.11383200  0.22593500  1
  B  B5  1  0.29850800  0.61070300  0.47593000  1
  B  B6  1  0.02974400  0.12716700  0.72657300  1
  B  B7  1  0.46661500  0.88616800  0.77406500  1
  O  O0  1  0.75094000  0.49720200  0.89773600  1
  O  O1  1  0.87935700  0.72562300  0.91683200  1
  O  O2  1  0.60948900  0.23587500  0.15293400  1
  O  O3  1  0.30576400  0.39580500  0.87473500  1
  O  O4  1  0.04719700  0.88527100  0.12650700  1
  O  O5  1  0.69423600  0.60419500  0.12526500  1
  O  O6  1  0.12064300  0.27437700  0.08316800  1
  O  O7  1  0.86387900  0.75759300  0.33395400  1
  O  O8  1  0.24906000  0.50279800  0.10226400  1
  O  O9  1  0.99181300  0.98180600  0.36065300  1
  O  O10  1  0.75859100  0.40609500  0.37541900  1
  O  O11  1  0.52348200  0.99178200  0.15076200  1
  O  O12  1  0.72985100  0.50429900  0.60302300  1
  O  O13  1  0.46619700  0.10523100  0.37590900  1
  O  O14  1  0.27014900  0.49570100  0.39697700  1
  O  O15  1  0.00818700  0.01819400  0.63934700  1
  O  O16  1  0.39112500  0.73000400  0.40959500  1
  O  O17  1  0.13612100  0.24240700  0.66604600  1
  O  O18  1  0.53380300  0.89476900  0.62409100  1
  O  O19  1  0.24140900  0.59390500  0.62458100  1
  O  O20  1  0.95280300  0.11472900  0.87349300  1
  O  O21  1  0.60887500  0.26999600  0.59040500  1
  O  O22  1  0.39051100  0.76412500  0.84706600  1
  O  O23  1  0.47651800  0.00821800  0.84923800  1
loop_
_geom_bond_atom_site_label_1
_geom_bond_atom_site_label_2
_geom_bond_distance
_geom_bond_site_symmetry_2
Li0 O2 1.929110 1_555
Li0 O6 1.986144 1_655
Li0 O20 2.023834 1_554
Li0 O0 2.034843 1_554
Li1 O22 1.929110 1_555
Li1 O1 1.986144 1_455
Li1 O4 2.023834 1_556
Li1 O8 2.034843 1_556
Li2 O16 1.937944 1_555
Li2 O11 1.950623 1_555
Li2 O5 1.975339 1_555
Li2 O7 2.015891 1_555
Li3 O7 1.927016 1_555
Li3 O12 1.987462 1_555
Li3 O18 2.031325 1_555
Li3 O16 2.050964 1_555
Li4 O17 1.927016 1_555
Li4 O14 1.987462 1_555
Li4 O13 2.031325 1_555
Li4 O21 2.050964 1_555
Li5 O21 1.937944 1_555
Li5 O23 1.950623 1_555
Li5 O3 1.975339 1_555
Li5 O17 2.015891 1_555
Mn0 O1 2.078101 1_555
Mn0 O20 2.096812 1_565
Mn0 O23 2.168031 1_565
Mn0 O11 2.192002 1_556
Mn0 O4 2.310877 1_656
Mn1 O6 2.078101 1_555
Mn1 O4 2.096812 1_545
Mn1 O11 2.168031 1_545
Mn1 O23 2.192002 1_554
Mn1 O20 2.310877 1_454
Mn2 O10 2.086600 1_555
Mn2 O7 2.107240 1_555
Mn2 O8 2.145258 1_655
Mn2 O14 2.190237 1_655
Mn2 O5 2.275384 1_555
Mn3 O15 2.081980 1_655
Mn3 O9 2.087099 1_545
Mn3 O21 2.103244 1_555
Mn3 O13 2.171348 1_555
Mn3 O18 2.181306 1_545
Mn4 O2 2.022517 1_555
Mn4 O10 2.071087 1_555
Mn4 O5 2.075465 1_555
Mn4 O8 2.086469 1_555
Mn4 O14 2.102791 1_555
Mn5 O9 2.081980 1_455
Mn5 O15 2.087099 1_565
Mn5 O16 2.103244 1_555
Mn5 O18 2.171348 1_555
Mn5 O13 2.181306 1_565
Mn6 O19 2.086600 1_555
Mn6 O17 2.107240 1_555
Mn6 O0 2.145258 1_455
Mn6 O12 2.190237 1_455
Mn6 O3 2.275384 1_555
Mn7 O22 2.022517 1_555
Mn7 O19 2.071087 1_555
Mn7 O3 2.075465 1_555
Mn7 O0 2.086469 1_555
Mn7 O12 2.102791 1_555
B0 O1 1.358361 1_555
B0 O5 1.393500 1_556
B0 O0 1.421782 1_555
B1 O6 1.358361 1_555
B1 O3 1.393500 1_554
B1 O8 1.421782 1_555
B2 O7 1.378683 1_555
B2 O4 1.397619 1_655
B2 O9 1.399255 1_555
B3 O21 1.374987 1_555
B3 O10 1.388924 1_555
B3 O12 1.406921 1_555
B4 O2 1.363904 1_555
B4 O11 1.403309 1_545
B4 O13 1.411190 1_555
B5 O16 1.374987 1_555
B5 O19 1.388924 1_555
B5 O14 1.406921 1_555
B6 O17 1.378683 1_555
B6 O20 1.397619 1_455
B6 O15 1.399255 1_555
B7 O22 1.363904 1_555
B7 O23 1.403309 1_565
B7 O18 1.411190 1_555
