# generated using pymatgen
data_Li2Mn2Si3O10
_symmetry_space_group_name_H-M   'P 1'
_cell_length_a   5.51338745
_cell_length_b   5.51338745
_cell_length_c   16.20171025
_cell_angle_alpha   85.70502731
_cell_angle_beta   85.70502731
_cell_angle_gamma   61.04611137
_symmetry_Int_Tables_number   1
_chemical_formula_structural   Li2Mn2Si3O10
_chemical_formula_sum   'Li4 Mn4 Si6 O20'
_cell_volume   429.30227869
_cell_formula_units_Z   2
loop_
 _symmetry_equiv_pos_site_id
 _symmetry_equiv_pos_as_xyz
  1  'x, y, z'
loop_
 _atom_site_type_symbol
 _atom_site_label
 _atom_site_symmetry_multiplicity
 _atom_site_fract_x
 _atom_site_fract_y
 _atom_site_fract_z
 _atom_site_occupancy
  Li  Li0  1  0.58933900  0.79366800  0.77428000  1
  Li  Li1  1  0.79366800  0.58933900  0.27428000  1
  Li  Li2  1  0.36279500  0.15314900  0.55068200  1
  Li  Li3  1  0.15314900  0.36279500  0.05068200  1
  Mn  Mn0  1  0.01162400  0.80689000  0.57716100  1
  Mn  Mn1  1  0.80689000  0.01162400  0.07716100  1
  Mn  Mn2  1  0.20660700  0.97137800  0.91967800  1
  Mn  Mn3  1  0.97137800  0.20660700  0.41967800  1
  Si  Si0  1  0.88638900  0.11519600  0.74980600  1
  Si  Si1  1  0.66787400  0.48916800  0.59908500  1
  Si  Si2  1  0.52987300  0.30590300  0.90206800  1
  Si  Si3  1  0.48916800  0.66787400  0.09908500  1
  Si  Si4  1  0.30590300  0.52987300  0.40206800  1
  Si  Si5  1  0.11519600  0.88638900  0.24980600  1
  O  O0  1  0.92960700  0.87287200  0.69066600  1
  O  O1  1  0.87287200  0.92960700  0.19066600  1
  O  O2  1  0.77593600  0.41708900  0.69651100  1
  O  O3  1  0.50712700  0.61158700  0.88966100  1
  O  O4  1  0.91103300  0.22696700  0.54453300  1
  O  O5  1  0.79839000  0.09973900  0.95941600  1
  O  O6  1  0.65662600  0.78206200  0.57059400  1
  O  O7  1  0.78206200  0.65662600  0.07059400  1
  O  O8  1  0.61158700  0.50712700  0.38966100  1
  O  O9  1  0.62618200  0.14447200  0.81316400  1
  O  O10  1  0.41708900  0.77593600  0.19651100  1
  O  O11  1  0.37640800  0.48339000  0.59416700  1
  O  O12  1  0.24934200  0.30341200  0.93628200  1
  O  O13  1  0.30341200  0.24934200  0.43628200  1
  O  O14  1  0.22696700  0.91103300  0.04453300  1
  O  O15  1  0.09973900  0.79839000  0.45941600  1
  O  O16  1  0.48339000  0.37640800  0.09416700  1
  O  O17  1  0.14447200  0.62618200  0.31316400  1
  O  O18  1  0.15476800  0.04525600  0.80224000  1
  O  O19  1  0.04525600  0.15476800  0.30224000  1
loop_
_geom_bond_atom_site_label_1
_geom_bond_atom_site_label_2
_geom_bond_distance
_geom_bond_site_symmetry_2
Li0 O18 2.140942 1_565
Li0 O3 2.177231 1_555
Li0 O9 2.181976 1_565
Li0 O2 2.255278 1_555
Li0 O0 2.422659 1_555
Li1 O19 2.140942 1_655
Li1 O8 2.177231 1_555
Li1 O17 2.181976 1_655
Li1 O10 2.255278 1_555
Li1 O1 2.422659 1_555
Li2 O13 1.897202 1_555
Li2 O6 1.919564 1_545
Li2 O11 2.037028 1_555
Li2 O4 2.330014 1_455
Li3 O12 1.897202 1_554
Li3 O7 1.919564 1_455
Li3 O16 2.037028 1_555
Li3 O14 2.330014 1_545
Mn0 O0 1.880166 1_455
Mn0 O15 1.931308 1_555
Mn0 O11 1.959152 1_555
Mn0 O6 2.038045 1_455
Mn0 O4 2.137286 1_465
Mn1 O1 1.880166 1_545
Mn1 O5 1.931308 1_554
Mn1 O16 1.959152 1_555
Mn1 O7 2.038045 1_545
Mn1 O14 2.137286 1_645
Mn2 O18 1.928861 1_565
Mn2 O3 1.938631 1_555
Mn2 O12 1.994985 1_565
Mn2 O14 2.027886 1_556
Mn2 O5 2.071197 1_465
Mn3 O19 1.928861 1_655
Mn3 O8 1.938631 1_555
Mn3 O13 1.994985 1_655
Mn3 O4 2.027886 1_555
Mn3 O15 2.071197 1_645
O0 Si0 1.615286 1_565
O1 Si5 1.615286 1_655
O2 Si0 1.664013 1_555
O2 Si1 1.679915 1_555
O3 Si2 1.626330 1_555
O4 Si1 1.675031 1_555
O5 Si2 1.663000 1_555
O6 Si1 1.618735 1_555
O7 Si3 1.618735 1_555
O8 Si4 1.626330 1_555
O9 Si0 1.648621 1_555
O9 Si2 1.663952 1_555
O10 Si5 1.664013 1_555
O10 Si3 1.679915 1_555
O11 Si1 1.630590 1_555
O12 Si2 1.609559 1_555
O13 Si4 1.609559 1_555
O14 Si3 1.675031 1_555
O15 Si4 1.663000 1_555
O16 Si3 1.630590 1_555
O17 Si5 1.648621 1_555
O17 Si4 1.663952 1_555
O18 Si0 1.626838 1_455
O19 Si5 1.626838 1_545
