# generated using pymatgen
data_Li20Co21O40
_symmetry_space_group_name_H-M   'P 1'
_cell_length_a   28.82117330
_cell_length_b   15.23983801
_cell_length_c   9.96820508
_cell_angle_alpha   29.23866350
_cell_angle_beta   30.05788217
_cell_angle_gamma   19.18949310
_symmetry_Int_Tables_number   1
_chemical_formula_structural   Li20Co21O40
_chemical_formula_sum   'Li20 Co21 O40'
_cell_volume   679.15522899
_cell_formula_units_Z   1
loop_
 _symmetry_equiv_pos_site_id
 _symmetry_equiv_pos_as_xyz
  1  'x, y, z'
loop_
 _atom_site_type_symbol
 _atom_site_label
 _atom_site_symmetry_multiplicity
 _atom_site_fract_x
 _atom_site_fract_y
 _atom_site_fract_z
 _atom_site_occupancy
  Li  Li0  1  0.99770800  0.00546100  0.00111100  1
  Li  Li1  1  0.09696200  0.00338500  0.00208900  1
  Li  Li2  1  0.19800100  0.99816800  0.99899500  1
  Li  Li3  1  0.24865000  0.04319100  0.04048000  1
  Li  Li4  1  0.37984900  0.04887100  0.04518200  1
  Li  Li5  1  0.19320400  0.51874100  0.99560800  1
  Li  Li6  1  0.50541000  0.99637500  0.99663400  1
  Li  Li7  1  0.60398300  0.99433500  0.98901500  1
  Li  Li8  1  0.39551500  0.51608300  0.98916000  1
  Li  Li9  1  0.70593500  0.99632900  0.99144000  1
  Li  Li10  1  0.09217300  0.00199700  0.51848300  1
  Li  Li11  1  0.80304600  0.98909000  0.99929600  1
  Li  Li12  1  0.65769100  0.36960400  0.03121300  1
  Li  Li13  1  0.90792100  0.98926500  0.99707100  1
  Li  Li14  1  0.29595400  0.00031100  0.51742700  1
  Li  Li15  1  0.79993800  0.49789900  0.00355600  1
  Li  Li16  1  0.51894800  0.04196900  0.36635700  1
  Li  Li17  1  0.99064900  0.51662500  0.99897700  1
  Li  Li18  1  0.70066500  0.98823800  0.51551500  1
  Li  Li19  1  0.89852200  0.00408800  0.49990000  1
  Co  Co0  1  0.09747200  0.50313400  0.00286800  1
  Co  Co1  1  0.19694800  0.00461400  0.50295200  1
  Co  Co2  1  0.09882200  0.50301400  0.49753300  1
  Co  Co3  1  0.39632200  0.00642600  0.49810200  1
  Co  Co4  1  0.29874800  0.50283100  0.99827000  1
  Co  Co5  1  0.19905700  0.50189000  0.49790600  1
  Co  Co6  1  0.29824900  0.50329000  0.50040200  1
  Co  Co7  1  0.60004500  0.00129300  0.49823200  1
  Co  Co8  1  0.49670900  0.50383700  0.00257700  1
  Co  Co9  1  0.39757400  0.50451400  0.50004800  1
  Co  Co10  1  0.49990400  0.49968600  0.50206800  1
  Co  Co11  1  0.70163200  0.49431600  0.00565200  1
  Co  Co12  1  0.80001400  0.99918100  0.50238800  1
  Co  Co13  1  0.59875900  0.50101600  0.50274400  1
  Co  Co14  1  0.70245000  0.49656000  0.49705200  1
  Co  Co15  1  0.90272600  0.49704700  0.99718800  1
  Co  Co16  1  0.44998100  0.87412800  0.87670200  1
  Co  Co17  1  0.00300400  0.99646400  0.49650500  1
  Co  Co18  1  0.80463200  0.49250000  0.49755500  1
  Co  Co19  1  0.89932200  0.49933200  0.50318200  1
  Co  Co20  1  0.99814600  0.50273800  0.50166300  1
  O  O0  1  0.09413000  0.26235700  0.26343700  1
  O  O1  1  0.00415300  0.26111800  0.71850900  1
  O  O2  1  0.18330400  0.26574100  0.26504500  1
  O  O3  1  0.08790300  0.28347700  0.73464200  1
  O  O4  1  0.29393000  0.26460300  0.25790400  1
  O  O5  1  0.20021400  0.26777600  0.71616900  1
  O  O6  1  0.11330100  0.71735000  0.25962000  1
  O  O7  1  0.38512200  0.26468600  0.25768000  1
  O  O8  1  0.01441800  0.73687900  0.73831500  1
  O  O9  1  0.28391100  0.28690700  0.74148700  1
  O  O10  1  0.19741400  0.73553900  0.28163400  1
  O  O11  1  0.10446100  0.73690200  0.74285900  1
  O  O12  1  0.48679600  0.28183100  0.24668700  1
  O  O13  1  0.39150100  0.28152500  0.72844200  1
  O  O14  1  0.30875100  0.72105700  0.26606800  1
  O  O15  1  0.58214200  0.28146000  0.24967900  1
  O  O16  1  0.21015900  0.74527100  0.73931100  1
  O  O17  1  0.39137300  0.74448200  0.28943200  1
  O  O18  1  0.48565400  0.28632700  0.73738400  1
  O  O19  1  0.30333200  0.74134300  0.73936100  1
  O  O20  1  0.69597500  0.25643200  0.26866800  1
  O  O21  1  0.60340000  0.26123000  0.71850900  1
  O  O22  1  0.51277900  0.71654400  0.26381500  1
  O  O23  1  0.78636300  0.25990600  0.26545500  1
  O  O24  1  0.41032500  0.74429600  0.73768400  1
  O  O25  1  0.58692900  0.75594300  0.27538600  1
  O  O26  1  0.68329800  0.27540000  0.75475600  1
  O  O27  1  0.48822800  0.76032300  0.75112400  1
  O  O28  1  0.91073400  0.24337700  0.24340300  1
  O  O29  1  0.81677700  0.23739500  0.72416600  1
  O  O30  1  0.71813700  0.72439000  0.24212800  1
  O  O31  1  0.99072000  0.25620500  0.25786800  1
  O  O32  1  0.61906700  0.71224500  0.75617000  1
  O  O33  1  0.88789200  0.27914600  0.74323300  1
  O  O34  1  0.80636000  0.72236200  0.27499900  1
  O  O35  1  0.71020800  0.72192600  0.75534200  1
  O  O36  1  0.91161100  0.71930000  0.26196700  1
  O  O37  1  0.81321000  0.73949700  0.73886100  1
  O  O38  1  0.99440700  0.74190900  0.28166700  1
  O  O39  1  0.90580100  0.73988800  0.73425300  1
loop_
_geom_bond_atom_site_label_1
_geom_bond_atom_site_label_2
_geom_bond_distance
_geom_bond_site_symmetry_2
Li0 O1 2.111164 1_654
Li0 O33 2.111644 1_554
Li0 O6 2.121991 1_645
Li0 O23 2.125037 1_555
Li0 O16 2.136173 1_644
Li0 O38 2.149545 1_545
Li1 O28 1.973838 1_455
Li1 O1 2.107142 1_554
Li1 O6 2.121261 1_545
Li1 O10 2.145022 1_545
Li1 O19 2.146104 1_544
Li1 O3 2.153138 1_554
Li2 O10 2.079267 1_556
Li2 O3 2.082327 1_565
Li2 O31 2.112247 1_466
Li2 O24 2.115605 1_555
Li2 O14 2.176616 1_556
Li2 O5 2.191429 1_565
Li3 O14 1.890045 1_545
Li3 O5 1.895095 1_554
Li3 O0 1.911441 1_555
Li3 O27 2.362285 1_544
Li3 O9 2.505708 1_554
Li4 O13 1.878763 1_554
Li4 O2 1.897917 1_555
Li4 O22 1.902092 1_545
Li4 O9 2.519448 1_554
Li4 O32 2.598725 1_544
Li5 O13 2.062409 1_555
Li5 O16 2.077764 1_555
Li5 O38 2.088538 1_456
Li5 O11 2.101702 1_555
Li5 O4 2.119710 1_556
Li5 O2 2.200055 1_556
Li6 O25 1.984545 1_556
Li6 O18 2.096264 1_565
Li6 O35 2.113776 1_555
Li6 O4 2.163772 1_566
Li6 O22 2.184415 1_556
Li6 O13 2.186241 1_565
Li7 O37 2.073542 1_555
Li7 O18 2.094558 1_565
Li7 O25 2.105806 1_556
Li7 O21 2.150331 1_565
Li7 O30 2.191732 1_556
Li7 O7 2.204643 1_566
Li8 O12 2.052483 1_556
Li8 O24 2.073355 1_555
Li8 O19 2.085668 1_555
Li8 O10 2.101758 1_556
Li8 O21 2.147557 1_555
Li8 O7 2.194472 1_556
Li9 O26 1.997978 1_565
Li9 O30 2.058697 1_556
Li9 O39 2.103989 1_555
Li9 O34 2.130493 1_556
Li9 O21 2.155827 1_565
Li9 O12 2.211521 1_566
Li10 O33 2.057233 1_455
Li10 O11 2.085354 1_545
Li10 O31 2.120248 1_455
Li10 O16 2.124489 1_545
Li10 O14 2.181216 1_545
Li10 O0 2.186366 1_555
Li11 O34 2.076126 1_556
Li11 O8 2.107471 1_655
Li11 O26 2.109116 1_565
Li11 O36 2.155244 1_556
Li11 O29 2.199067 1_565
Li11 O15 2.221404 1_566
Li12 O29 1.862860 1_554
Li12 O15 1.870660 1_555
Li12 O20 1.896482 1_555
Li12 O32 2.311194 1_554
Li12 O27 2.600846 1_554
Li13 O29 2.062723 1_565
Li13 O38 2.073769 1_556
Li13 O11 2.076099 1_655
Li13 O33 2.110798 1_565
Li13 O36 2.147311 1_556
Li13 O20 2.202829 1_566
Li14 O24 2.048013 1_545
Li14 O3 2.054562 1_555
Li14 O19 2.122998 1_545
Li14 O4 2.133496 1_555
Li14 O2 2.192070 1_555
Li14 O22 2.197868 1_545
Li15 O35 2.030468 1_554
Li15 O23 2.123921 1_555
Li15 O1 2.136314 1_654
Li15 O28 2.143358 1_555
Li15 O37 2.150258 1_554
Li15 O25 2.166755 1_555
Li16 O12 1.883947 1_555
Li16 O30 1.893756 1_545
Li16 O7 1.912736 1_555
Li16 O27 2.547042 1_545
Li16 O9 2.559986 1_555
Li16 O32 2.573075 1_545
Li17 O34 1.978409 1_556
Li17 O39 2.074892 1_555
Li17 O8 2.128119 1_655
Li17 O31 2.128475 1_556
Li17 O5 2.174283 1_655
Li17 O0 2.193831 1_656
Li18 O35 2.087973 1_555
Li18 O37 2.096322 1_555
Li18 O36 2.135592 1_555
Li18 O18 2.136654 1_565
Li18 O20 2.181522 1_565
Li18 O15 2.197775 1_565
Li19 O23 2.117132 1_555
Li19 O8 2.132435 1_645
Li19 O39 2.133234 1_545
Li19 O28 2.134081 1_555
Li19 O26 2.152888 1_555
Li19 O6 2.158038 1_645
Co0 O36 1.945463 1_455
Co0 O11 1.946167 1_554
Co0 O8 1.949429 1_554
Co0 O0 1.954891 1_555
Co0 O9 1.955394 1_554
Co0 O2 1.955519 1_555
Co1 O1 1.932861 1_555
Co1 O17 1.940540 1_545
Co1 O16 1.943261 1_545
Co1 O2 1.950284 1_555
Co1 O0 1.950627 1_555
Co1 O19 1.955102 1_545
Co2 O5 1.934527 1_555
Co2 O39 1.938303 1_455
Co2 O3 1.944195 1_555
Co2 O38 1.945210 1_455
Co2 O6 1.952042 1_555
Co2 O4 1.957208 1_555
Co3 O27 1.932674 1_545
Co3 O25 1.935704 1_545
Co3 O4 1.944439 1_555
Co3 O24 1.948913 1_545
Co3 O7 1.953576 1_555
Co3 O5 1.963317 1_555
Co4 O7 1.937740 1_556
Co4 O16 1.943991 1_555
Co4 O6 1.948609 1_556
Co4 O18 1.954457 1_555
Co4 O4 1.957158 1_556
Co4 O19 1.958500 1_555
Co5 O6 1.937570 1_555
Co5 O10 1.946887 1_555
Co5 O8 1.947153 1_555
Co5 O5 1.954001 1_555
Co5 O7 1.954702 1_555
Co5 O9 1.967716 1_555
Co6 O14 1.925222 1_555
Co6 O12 1.944313 1_555
Co6 O10 1.949353 1_555
Co6 O11 1.949692 1_555
Co6 O13 1.955443 1_555
Co6 O9 1.960893 1_555
Co7 O15 2.055478 1_555
Co7 O34 2.058676 1_545
Co7 O35 2.070198 1_545
Co7 O12 2.078313 1_555
Co7 O13 2.091161 1_555
Co7 O32 2.104318 1_545
Co8 O12 1.924672 1_555
Co8 O27 1.943846 1_554
Co8 O15 1.945214 1_555
Co8 O26 1.947190 1_554
Co8 O24 1.964556 1_554
Co8 O14 1.968317 1_555
Co9 O13 1.921951 1_555
Co9 O15 1.936401 1_555
Co9 O18 1.954808 1_555
Co9 O17 1.956908 1_555
Co9 O14 1.956914 1_555
Co9 O16 1.965545 1_555
Co10 O21 1.934091 1_555
Co10 O18 1.946173 1_555
Co10 O22 1.947658 1_555
Co10 O20 1.952657 1_555
Co10 O17 1.956937 1_555
Co10 O19 1.962065 1_555
Co11 O23 1.938012 1_555
Co11 O35 1.940694 1_554
Co11 O32 1.944014 1_554
Co11 O33 1.955711 1_554
Co11 O20 1.957579 1_555
Co11 O22 1.965317 1_555
Co12 O20 1.933093 1_565
Co12 O39 1.937771 1_555
Co12 O37 1.947218 1_555
Co12 O23 1.949108 1_565
Co12 O38 1.956285 1_555
Co12 O21 1.958973 1_565
Co13 O26 1.940774 1_555
Co13 O22 1.947187 1_555
Co13 O25 1.953357 1_555
Co13 O24 1.956669 1_555
Co13 O23 1.957926 1_555
Co13 O21 1.963647 1_555
Co14 O26 2.052567 1_555
Co14 O25 2.055550 1_555
Co14 O30 2.072607 1_555
Co14 O29 2.075632 1_555
Co14 O28 2.077911 1_555
Co14 O27 2.124281 1_555
Co15 O30 1.931337 1_556
Co15 O28 1.938744 1_556
Co15 O3 1.950032 1_655
Co15 O37 1.956751 1_555
Co15 O31 1.958614 1_556
Co15 O39 1.965472 1_555
Co16 O27 1.891877 1_555
Co16 O32 1.899166 1_555
Co16 O17 1.942008 1_556
Co16 O9 1.948296 1_565
Co17 O29 1.916265 1_465
Co17 O28 1.934235 1_465
Co17 O10 1.949097 1_555
Co17 O31 1.957211 1_465
Co17 O8 1.959957 1_555
Co17 O11 1.964045 1_555
Co18 O34 1.941953 1_555
Co18 O31 1.947714 1_555
Co18 O29 1.952369 1_555
Co18 O30 1.957013 1_555
Co18 O32 1.957929 1_555
Co18 O33 1.966304 1_555
Co19 O34 1.939238 1_555
Co19 O35 1.942715 1_555
Co19 O33 1.950606 1_555
Co19 O0 1.952556 1_655
Co19 O1 1.955491 1_655
Co19 O36 1.961171 1_555
Co20 O2 1.938667 1_655
Co20 O37 1.940548 1_555
Co20 O3 1.944250 1_655
Co20 O1 1.953017 1_655
Co20 O38 1.955440 1_555
Co20 O36 1.956338 1_555
