# generated using pymatgen
data_Li3V3P8O29
_symmetry_space_group_name_H-M   'P 1'
_cell_length_a   9.74868300
_cell_length_b   9.75999927
_cell_length_c   14.11162558
_cell_angle_alpha   89.92892671
_cell_angle_beta   89.87542537
_cell_angle_gamma   60.04368977
_symmetry_Int_Tables_number   1
_chemical_formula_structural   Li3V3P8O29
_chemical_formula_sum   'Li6 V6 P16 O58'
_cell_volume   1163.30449330
_cell_formula_units_Z   2
loop_
 _symmetry_equiv_pos_site_id
 _symmetry_equiv_pos_as_xyz
  1  'x, y, z'
loop_
 _atom_site_type_symbol
 _atom_site_label
 _atom_site_symmetry_multiplicity
 _atom_site_fract_x
 _atom_site_fract_y
 _atom_site_fract_z
 _atom_site_occupancy
  Li  Li0  1  0.22608800  0.08860200  0.55601400  1
  Li  Li1  1  0.08766800  0.68559200  0.55707100  1
  Li  Li2  1  0.23494600  0.66901800  0.06016200  1
  Li  Li3  1  0.66938000  0.09663400  0.06022300  1
  Li  Li4  1  0.68535500  0.22544100  0.55724500  1
  Li  Li5  1  0.01339300  0.03049700  0.00391500  1
  V  V0  1  0.43388700  0.56670700  0.25351900  1
  V  V1  1  0.56688800  0.43608500  0.75205800  1
  V  V2  1  0.43515600  0.99824700  0.75362800  1
  V  V3  1  0.56483700  0.99788800  0.25147700  1
  V  V4  1  0.00395500  0.43032100  0.24585500  1
  V  V5  1  0.99745700  0.56391300  0.75407200  1
  P  P0  1  0.08302200  0.22299000  0.84379900  1
  P  P1  1  0.22650900  0.08796300  0.34142600  1
  P  P2  1  0.08524600  0.68272400  0.34311300  1
  P  P3  1  0.33562800  0.33443900  0.12846400  1
  P  P4  1  0.33359800  0.33289300  0.63050200  1
  P  P5  1  0.22642000  0.68615700  0.84289300  1
  P  P6  1  0.31442600  0.77222500  0.65936600  1
  P  P7  1  0.68706800  0.08699500  0.84314200  1
  P  P8  1  0.30807800  0.91414100  0.15766800  1
  P  P9  1  0.68316100  0.22796100  0.34265200  1
  P  P10  1  0.77500900  0.31027000  0.16005500  1
  P  P11  1  0.67081200  0.66322000  0.36952500  1
  P  P12  1  0.66559400  0.66700200  0.87104200  1
  P  P13  1  0.91494300  0.31377800  0.65772000  1
  P  P14  1  0.77226800  0.91275400  0.65985700  1
  P  P15  1  0.91523700  0.77573000  0.15940300  1
  O  O0  1  0.00659200  0.23186700  0.57228900  1
  O  O1  1  0.08389700  0.25743000  0.33105400  1
  O  O2  1  0.21189800  0.99458200  0.07317800  1
  O  O3  1  0.25735300  0.08659800  0.83100900  1
  O  O4  1  0.08374500  0.38224400  0.82913500  1
  O  O5  1  0.18845700  0.33113600  0.17352700  1
  O  O6  1  0.09479900  0.52230700  0.32102600  1
  O  O7  1  0.00767400  0.78401500  0.07758400  1
  O  O8  1  0.08546100  0.65599500  0.83052700  1
  O  O9  1  0.33467900  0.18209200  0.67237700  1
  O  O10  1  0.38060600  0.09683100  0.31987700  1
  O  O11  1  0.18298100  0.48136800  0.67378700  1
  O  O12  1  0.33479900  0.33936500  0.02308600  1
  O  O13  1  0.33387000  0.33380300  0.52519600  1
  O  O14  1  0.32840400  0.48825600  0.17030400  1
  O  O15  1  0.52654800  0.09086900  0.82637400  1
  O  O16  1  0.48850500  0.18511900  0.16806400  1
  O  O17  1  0.25580300  0.65765000  0.33146500  1
  O  O18  1  0.21144400  0.79765300  0.75560100  1
  O  O19  1  0.22935200  0.76257300  0.57559900  1
  O  O20  1  0.22236500  0.76159900  0.93476300  1
  O  O21  1  0.38291700  0.52633100  0.82540200  1
  O  O22  1  0.48365300  0.33417100  0.67230500  1
  O  O23  1  0.34418000  0.73903000  0.16304900  1
  O  O24  1  0.52123300  0.38083800  0.32168900  1
  O  O25  1  0.65654700  0.08470400  0.33066200  1
  O  O26  1  0.20935800  0.99197200  0.25463100  1
  O  O27  1  0.23933100  0.00985200  0.43315800  1
  O  O28  1  0.76344000  0.00713800  0.57600200  1
  O  O29  1  0.33963400  0.91739800  0.66038100  1
  O  O30  1  0.47593700  0.61907200  0.67793000  1
  O  O31  1  0.65746300  0.25773400  0.82996000  1
  O  O32  1  0.52306500  0.66000500  0.32366000  1
  O  O33  1  0.61670500  0.46705400  0.17192900  1
  O  O34  1  0.78544700  0.20975900  0.07766100  1
  O  O35  1  0.74961900  0.23768700  0.43472300  1
  O  O36  1  0.79784100  0.21012100  0.25662000  1
  O  O37  1  0.74351000  0.34035000  0.65996400  1
  O  O38  1  0.51672000  0.81460700  0.82525500  1
  O  O39  1  0.46578900  0.91596300  0.17153000  1
  O  O40  1  0.66745100  0.51804600  0.82496900  1
  O  O41  1  0.66428000  0.66780800  0.97545800  1
  O  O42  1  0.66610800  0.66827800  0.47398400  1
  O  O43  1  0.81814200  0.52187400  0.32242900  1
  O  O44  1  0.61832900  0.90586400  0.67885600  1
  O  O45  1  0.66091200  0.81680500  0.32229200  1
  O  O46  1  0.91381100  0.34467100  0.16382200  1
  O  O47  1  0.99568100  0.20776200  0.75103300  1
  O  O48  1  0.00635800  0.20909600  0.93030200  1
  O  O49  1  0.90633000  0.47507500  0.67808200  1
  O  O50  1  0.81336800  0.66864600  0.82535400  1
  O  O51  1  0.91494500  0.61781400  0.17042400  1
  O  O52  1  0.74176900  0.91671400  0.15984200  1
  O  O53  1  0.76197900  0.01678700  0.93527800  1
  O  O54  1  0.79830800  0.99030700  0.75584500  1
  O  O55  1  0.91682300  0.74207500  0.66107100  1
  O  O56  1  0.01025100  0.75138500  0.43504800  1
  O  O57  1  0.98858300  0.79899200  0.25718900  1
loop_
_geom_bond_atom_site_label_1
_geom_bond_atom_site_label_2
_geom_bond_distance
_geom_bond_site_symmetry_2
Li0 O27 1.875195 1_555
Li0 O0 1.896637 1_555
Li0 O29 2.083332 1_545
Li0 O9 2.371837 1_555
Li1 O56 1.861704 1_555
Li1 O19 1.891857 1_555
Li1 O55 2.075127 1_455
Li1 O11 2.387048 1_555
Li2 O7 1.934923 1_555
Li2 O20 1.961949 1_554
Li2 O23 2.108272 1_555
Li2 O14 2.180026 1_555
Li3 O34 1.951771 1_555
Li3 O53 1.955744 1_554
Li3 O52 2.078089 1_545
Li3 O16 2.154470 1_555
Li4 O35 1.861644 1_555
Li4 O28 1.889144 1_555
Li4 O37 2.079167 1_555
Li4 O22 2.352748 1_555
Li5 O48 1.999681 1_554
Li5 O2 2.037891 1_545
Li5 O34 2.279000 1_455
O0 P13 1.474843 1_455
O1 P1 1.547195 1_555
O1 V4 1.893666 1_555
O2 P8 1.477995 1_555
O3 P0 1.559752 1_555
O3 V2 1.855226 1_545
O4 P0 1.571278 1_555
O4 V5 1.866323 1_455
O5 P3 1.583044 1_555
O5 V4 1.862689 1_555
O6 P2 1.553258 1_555
O6 V4 1.875118 1_555
O7 P15 1.489867 1_455
O8 P5 1.552612 1_555
O8 V5 1.866604 1_455
O9 P4 1.580484 1_555
O9 V2 1.933454 1_545
O10 P1 1.576228 1_555
O10 V3 1.831000 1_545
O11 P4 1.581879 1_555
O11 V5 1.934402 1_455
O12 P3 1.487681 1_555
O13 P4 1.486059 1_555
O14 P3 1.582329 1_555
O14 V0 1.953586 1_555
O15 P7 1.564833 1_555
O15 V2 1.864257 1_545
O16 P3 1.577916 1_555
O16 V3 1.979656 1_545
O17 P2 1.563345 1_555
O17 V0 1.861963 1_555
O18 P5 1.600531 1_555
O18 P6 1.630895 1_555
O19 P6 1.475334 1_555
O20 P5 1.482411 1_555
O21 P5 1.563460 1_555
O21 V1 1.865523 1_555
O22 P4 1.584310 1_555
O22 V1 1.930604 1_555
O23 P8 1.565146 1_555
O23 V0 1.937532 1_555
O24 P9 1.566657 1_555
O24 V0 1.843353 1_555
O25 P9 1.553684 1_555
O25 V3 1.878611 1_545
O26 P1 1.601887 1_565
O26 P8 1.625500 1_555
O27 P1 1.474994 1_555
O28 P14 1.474730 1_545
O29 P6 1.554338 1_555
O29 V2 1.990744 1_555
O30 P6 1.559637 1_555
O30 V1 1.867621 1_555
O31 P7 1.553701 1_555
O31 V1 1.866204 1_555
O32 P11 1.594900 1_555
O32 V0 1.833372 1_555
O33 P10 1.546734 1_555
O33 V0 1.926319 1_555
O34 P10 1.492387 1_555
O35 P9 1.477244 1_555
O36 P9 1.598228 1_555
O36 P10 1.625613 1_555
O37 P13 1.558288 1_555
O37 V1 1.978202 1_555
O38 P12 1.585226 1_555
O38 V2 1.855283 1_555
O39 P8 1.559176 1_555
O39 V3 1.903293 1_555
O40 P12 1.585124 1_555
O40 V1 1.857213 1_555
O41 P12 1.473504 1_555
O42 P11 1.474821 1_555
O43 P11 1.557898 1_555
O43 V4 1.903890 1_655
O44 P14 1.558044 1_555
O44 V2 1.871164 1_555
O45 P11 1.598084 1_555
O45 V3 1.829208 1_555
O46 P10 1.549391 1_555
O46 V4 1.884573 1_655
O47 P0 1.610116 1_655
O47 P13 1.616135 1_555
O48 P0 1.471018 1_555
O49 P13 1.561062 1_555
O49 V5 1.861883 1_555
O50 P12 1.584390 1_555
O50 V5 1.854744 1_555
O51 P15 1.550311 1_555
O51 V4 1.909990 1_655
O52 P15 1.558622 1_555
O52 V3 1.975619 1_555
O53 P7 1.481726 1_555
O54 P7 1.599746 1_565
O54 P14 1.633431 1_555
O55 P14 1.554604 1_555
O55 V5 1.999422 1_555
O56 P2 1.474942 1_555
O57 P2 1.606102 1_655
O57 P15 1.623015 1_555
