# generated using pymatgen
data_Ti3Mn2Ni(PO4)6
_symmetry_space_group_name_H-M   'P 1'
_cell_length_a   8.63726144
_cell_length_b   8.63726144
_cell_length_c   8.63726076
_cell_angle_alpha   59.94435148
_cell_angle_beta   59.94435148
_cell_angle_gamma   59.94435619
_symmetry_Int_Tables_number   1
_chemical_formula_structural   Ti3Mn2Ni(PO4)6
_chemical_formula_sum   'Ti3 Mn2 Ni1 P6 O24'
_cell_volume   455.05584397
_cell_formula_units_Z   1
loop_
 _symmetry_equiv_pos_site_id
 _symmetry_equiv_pos_as_xyz
  1  'x, y, z'
loop_
 _atom_site_type_symbol
 _atom_site_label
 _atom_site_symmetry_multiplicity
 _atom_site_fract_x
 _atom_site_fract_y
 _atom_site_fract_z
 _atom_site_occupancy
  Ti  Ti0  1  0.85617600  0.85617600  0.85617600  1
  Ti  Ti1  1  0.64593000  0.64593000  0.64593000  1
  Ti  Ti2  1  0.35282100  0.35282100  0.35282100  1
  Mn  Mn0  1  0.00407200  0.00407200  0.00407200  1
  Mn  Mn1  1  0.50063900  0.50063900  0.50063900  1
  Ni  Ni0  1  0.14366000  0.14366000  0.14366000  1
  P  P0  1  0.04402300  0.74937100  0.45710800  1
  P  P1  1  0.74937100  0.45710800  0.04402300  1
  P  P2  1  0.45710800  0.04402300  0.74937100  1
  P  P3  1  0.54124700  0.95550100  0.24801400  1
  P  P4  1  0.24801400  0.54124700  0.95550100  1
  P  P5  1  0.95550100  0.24801400  0.54124700  1
  O  O0  1  0.50893200  0.88247500  0.68286900  1
  O  O1  1  0.88247500  0.68286900  0.50893200  1
  O  O2  1  0.73837900  0.94115000  0.08608400  1
  O  O3  1  0.68286900  0.50893200  0.88247500  1
  O  O4  1  0.38665700  0.98574300  0.19405400  1
  O  O5  1  0.56694500  0.76314400  0.41551200  1
  O  O6  1  0.08608400  0.73837900  0.94115000  1
  O  O7  1  0.41551200  0.56694500  0.76314400  1
  O  O8  1  0.99890100  0.80764100  0.62255700  1
  O  O9  1  0.76314400  0.41551200  0.56694500  1
  O  O10  1  0.05357000  0.90847500  0.26694600  1
  O  O11  1  0.80764100  0.62255700  0.99890100  1
  O  O12  1  0.19405400  0.38665700  0.98574300  1
  O  O13  1  0.94115000  0.08608400  0.73837900  1
  O  O14  1  0.23535400  0.58193200  0.44706400  1
  O  O15  1  0.98574300  0.19405400  0.38665700  1
  O  O16  1  0.58193200  0.44706400  0.23535400  1
  O  O17  1  0.90847500  0.26694600  0.05357000  1
  O  O18  1  0.44706400  0.23535400  0.58193200  1
  O  O19  1  0.62255700  0.99890100  0.80764100  1
  O  O20  1  0.30691800  0.49880700  0.12133100  1
  O  O21  1  0.26694600  0.05357000  0.90847500  1
  O  O22  1  0.12133100  0.30691800  0.49880700  1
  O  O23  1  0.49880700  0.12133100  0.30691800  1
loop_
_geom_bond_atom_site_label_1
_geom_bond_atom_site_label_2
_geom_bond_distance
_geom_bond_site_symmetry_2
Mn0 O10 2.181881 1_545
Mn0 O21 2.181881 1_554
Mn0 O17 2.181882 1_455
Mn0 O13 2.301928 1_454
Mn0 O2 2.301928 1_445
Mn0 O6 2.301928 1_544
Mn1 O16 2.254422 1_555
Mn1 O18 2.254422 1_555
Mn1 O14 2.254422 1_555
Mn1 O7 2.284374 1_555
Mn1 O5 2.284374 1_555
Mn1 O9 2.284374 1_555
Ni0 O15 1.976814 1_455
Ni0 O12 1.976814 1_554
Ni0 O4 1.976815 1_545
Ni0 O21 2.110070 1_554
Ni0 O10 2.110070 1_545
Ni0 O17 2.110071 1_455
O0 P2 1.548191 1_565
O0 Ti1 1.878662 1_555
O1 P0 1.548191 1_655
O1 Ti1 1.878662 1_555
O2 P3 1.564441 1_555
O2 Ti0 2.050671 1_554
O3 P1 1.548191 1_556
O3 Ti1 1.878662 1_555
O4 P3 1.490083 1_555
O5 P3 1.564362 1_555
O5 Ti1 2.025120 1_555
O6 P4 1.564442 1_555
O6 Ti0 2.050671 1_455
O7 P4 1.564362 1_555
O7 Ti1 2.025121 1_555
O8 P0 1.553508 1_655
O8 Ti0 1.898696 1_555
O9 P5 1.564363 1_555
O9 Ti1 2.025121 1_555
O10 P0 1.519848 1_555
O11 P1 1.553508 1_556
O11 Ti0 1.898696 1_555
O12 P4 1.490083 1_555
O13 P5 1.564441 1_555
O13 Ti0 2.050671 1_545
O14 P0 1.555037 1_555
O14 Ti2 2.093591 1_555
O15 P5 1.490083 1_555
O16 P1 1.555036 1_555
O16 Ti2 2.093591 1_555
O17 P1 1.519849 1_555
O18 P2 1.555036 1_555
O18 Ti2 2.093591 1_555
O19 P2 1.553508 1_565
O19 Ti0 1.898696 1_555
O20 P4 1.569064 1_554
O20 Ti2 1.874245 1_555
O21 P2 1.519848 1_555
O22 P5 1.569064 1_455
O22 Ti2 1.874245 1_555
O23 P3 1.569064 1_545
O23 Ti2 1.874246 1_555
