# generated using pymatgen
data_UP3H10BrO8
_symmetry_space_group_name_H-M   'P 1'
_cell_length_a   7.59804100
_cell_length_b   10.37720300
_cell_length_c   15.10987300
_cell_angle_alpha   90.00000000
_cell_angle_beta   90.00000000
_cell_angle_gamma   90.00000000
_symmetry_Int_Tables_number   1
_chemical_formula_structural   UP3H10BrO8
_chemical_formula_sum   'U4 P12 H40 Br4 O32'
_cell_volume   1191.35929992
_cell_formula_units_Z   4
loop_
 _symmetry_equiv_pos_site_id
 _symmetry_equiv_pos_as_xyz
  1  'x, y, z'
loop_
 _atom_site_type_symbol
 _atom_site_label
 _atom_site_symmetry_multiplicity
 _atom_site_fract_x
 _atom_site_fract_y
 _atom_site_fract_z
 _atom_site_occupancy
  U  U0  1  0.69823300  0.92898900  0.75000000  1
  U  U1  1  0.30176700  0.07101100  0.25000000  1
  U  U2  1  0.69823300  0.57101100  0.25000000  1
  U  U3  1  0.30176700  0.42898900  0.75000000  1
  P  P0  1  0.37455500  0.12647300  0.61434800  1
  P  P1  1  0.62544500  0.87352700  0.11434800  1
  P  P2  1  0.37455500  0.37352700  0.38565200  1
  P  P3  1  0.62544500  0.62647300  0.88565200  1
  P  P4  1  0.62544500  0.87352700  0.38565200  1
  P  P5  1  0.37455500  0.12647300  0.88565200  1
  P  P6  1  0.62544500  0.62647300  0.61434800  1
  P  P7  1  0.37455500  0.37352700  0.11434800  1
  P  P8  1  0.15502000  0.77893900  0.75000000  1
  P  P9  1  0.84498000  0.22106100  0.25000000  1
  P  P10  1  0.15502000  0.72106100  0.25000000  1
  P  P11  1  0.84498000  0.27893900  0.75000000  1
  H  H0  1  0.85542700  0.04697100  0.57126200  1
  H  H1  1  0.14457300  0.95302900  0.07126200  1
  H  H2  1  0.85542700  0.45302900  0.42873800  1
  H  H3  1  0.14457300  0.54697100  0.92873800  1
  H  H4  1  0.14457300  0.95302900  0.42873800  1
  H  H5  1  0.85542700  0.04697100  0.92873800  1
  H  H6  1  0.14457300  0.54697100  0.57126200  1
  H  H7  1  0.85542700  0.45302900  0.07126200  1
  H  H8  1  0.92585800  0.90111200  0.57353500  1
  H  H9  1  0.07414200  0.09888800  0.07353500  1
  H  H10  1  0.92585800  0.59888800  0.42646500  1
  H  H11  1  0.07414200  0.40111200  0.92646500  1
  H  H12  1  0.07414200  0.09888800  0.42646500  1
  H  H13  1  0.92585800  0.90111200  0.92646500  1
  H  H14  1  0.07414200  0.40111200  0.57353500  1
  H  H15  1  0.92585800  0.59888800  0.07353500  1
  H  H16  1  0.23723200  0.83425800  0.67526900  1
  H  H17  1  0.76276800  0.16574200  0.17526900  1
  H  H18  1  0.23723200  0.66574200  0.32473100  1
  H  H19  1  0.76276800  0.33425800  0.82473100  1
  H  H20  1  0.76276800  0.16574200  0.32473100  1
  H  H21  1  0.23723200  0.83425800  0.82473100  1
  H  H22  1  0.76276800  0.33425800  0.67526900  1
  H  H23  1  0.23723200  0.66574200  0.17526900  1
  H  H24  1  0.19673300  0.08494500  0.61720100  1
  H  H25  1  0.80326700  0.91505500  0.11720100  1
  H  H26  1  0.19673300  0.41505500  0.38279900  1
  H  H27  1  0.80326700  0.58494500  0.88279900  1
  H  H28  1  0.80326700  0.91505500  0.38279900  1
  H  H29  1  0.19673300  0.08494500  0.88279900  1
  H  H30  1  0.80326700  0.58494500  0.61720100  1
  H  H31  1  0.19673300  0.41505500  0.11720100  1
  H  H32  1  0.41419400  0.13548900  0.52263200  1
  H  H33  1  0.58580600  0.86451100  0.02263200  1
  H  H34  1  0.41419400  0.36451100  0.47736800  1
  H  H35  1  0.58580600  0.63548900  0.97736800  1
  H  H36  1  0.58580600  0.86451100  0.47736800  1
  H  H37  1  0.41419400  0.13548900  0.97736800  1
  H  H38  1  0.58580600  0.63548900  0.52263200  1
  H  H39  1  0.41419400  0.36451100  0.02263200  1
  Br  Br0  1  0.09157700  0.75000000  0.50000000  1
  Br  Br1  1  0.90842300  0.25000000  0.00000000  1
  Br  Br2  1  0.90842300  0.25000000  0.50000000  1
  Br  Br3  1  0.09157700  0.75000000  0.00000000  1
  O  O0  1  0.38560500  0.26060500  0.65538800  1
  O  O1  1  0.61439500  0.73939500  0.15538800  1
  O  O2  1  0.38560500  0.23939500  0.34461200  1
  O  O3  1  0.61439500  0.76060500  0.84461200  1
  O  O4  1  0.61439500  0.73939500  0.34461200  1
  O  O5  1  0.38560500  0.26060500  0.84461200  1
  O  O6  1  0.61439500  0.76060500  0.65538800  1
  O  O7  1  0.38560500  0.23939500  0.15538800  1
  O  O8  1  0.48911200  0.02158300  0.65504400  1
  O  O9  1  0.51088800  0.97841700  0.15504400  1
  O  O10  1  0.48911200  0.47841700  0.34495600  1
  O  O11  1  0.51088800  0.52158300  0.84495600  1
  O  O12  1  0.51088800  0.97841700  0.34495600  1
  O  O13  1  0.48911200  0.02158300  0.84495600  1
  O  O14  1  0.51088800  0.52158300  0.65504400  1
  O  O15  1  0.48911200  0.47841700  0.15504400  1
  O  O16  1  0.95958200  0.81536500  0.75000000  1
  O  O17  1  0.04041800  0.18463500  0.25000000  1
  O  O18  1  0.95958200  0.68463500  0.25000000  1
  O  O19  1  0.04041800  0.31536500  0.75000000  1
  O  O20  1  0.19411800  0.63450300  0.75000000  1
  O  O21  1  0.80588200  0.36549700  0.25000000  1
  O  O22  1  0.19411800  0.86549700  0.25000000  1
  O  O23  1  0.80588200  0.13450300  0.75000000  1
  O  O24  1  0.85381000  0.96615600  0.60519800  1
  O  O25  1  0.14619000  0.03384400  0.10519800  1
  O  O26  1  0.85381000  0.53384400  0.39480200  1
  O  O27  1  0.14619000  0.46615600  0.89480200  1
  O  O28  1  0.14619000  0.03384400  0.39480200  1
  O  O29  1  0.85381000  0.96615600  0.89480200  1
  O  O30  1  0.14619000  0.46615600  0.60519800  1
  O  O31  1  0.85381000  0.53384400  0.10519800  1
loop_
_geom_bond_atom_site_label_1
_geom_bond_atom_site_label_2
_geom_bond_distance
_geom_bond_site_symmetry_2
H0 O24 0.983051 1_545
H1 O25 0.983051 1_565
H2 O26 0.983051 1_555
H3 O27 0.983051 1_555
H4 O28 0.983051 1_565
H5 O29 0.983051 1_545
H6 O30 0.983051 1_555
H7 O31 0.983051 1_555
H8 O24 0.992045 1_555
H9 O25 0.992045 1_555
H10 O26 0.992045 1_555
H11 O27 0.992045 1_555
H12 O28 0.992045 1_555
H13 O29 0.992045 1_555
H14 O30 0.992045 1_555
H15 O31 0.992045 1_555
H16 P8 1.412362 1_555
H17 P9 1.412362 1_555
H18 P10 1.412362 1_555
H19 P11 1.412362 1_555
H20 P9 1.412362 1_555
H21 P8 1.412362 1_555
H22 P11 1.412362 1_555
H23 P10 1.412362 1_555
H24 P0 1.418816 1_555
H25 P1 1.418816 1_555
H26 P2 1.418816 1_555
H27 P3 1.418816 1_555
H28 P4 1.418816 1_555
H29 P5 1.418816 1_555
H30 P6 1.418816 1_555
H31 P7 1.418816 1_555
H32 P0 1.421250 1_555
H33 P1 1.421250 1_555
H34 P2 1.421250 1_555
H35 P3 1.421250 1_555
H36 P4 1.421250 1_555
H37 P5 1.421250 1_555
H38 P6 1.421250 1_555
H39 P7 1.421250 1_555
O0 P0 1.526110 1_555
O0 U3 2.345786 1_555
O1 P1 1.526110 1_555
O1 U2 2.345786 1_555
O2 P2 1.526110 1_555
O2 U1 2.345786 1_555
O3 P3 1.526110 1_555
O3 U0 2.345786 1_555
O4 P4 1.526110 1_555
O4 U2 2.345786 1_555
O5 P5 1.526110 1_555
O5 U3 2.345786 1_555
O6 P6 1.526110 1_555
O6 U0 2.345786 1_555
O7 P7 1.526110 1_555
O7 U1 2.345786 1_555
O8 P0 1.523313 1_555
O8 U0 2.346588 1_545
O9 P1 1.523313 1_555
O9 U1 2.346588 1_565
O10 P2 1.523313 1_555
O10 U2 2.346588 1_555
O11 P3 1.523313 1_555
O11 U3 2.346588 1_555
O12 P4 1.523313 1_555
O12 U1 2.346588 1_565
O13 P5 1.523313 1_555
O13 U0 2.346588 1_545
O14 P6 1.523313 1_555
O14 U3 2.346588 1_555
O15 P7 1.523313 1_555
O15 U2 2.346588 1_555
O16 P8 1.532302 1_655
O16 U0 2.309424 1_555
O17 P9 1.532302 1_455
O17 U1 2.309424 1_555
O18 P10 1.532302 1_655
O18 U2 2.309424 1_555
O19 P11 1.532302 1_455
O19 U3 2.309424 1_555
O20 P8 1.527997 1_555
O20 U3 2.284127 1_555
O21 P9 1.527997 1_555
O21 U2 2.284127 1_555
O22 P10 1.527997 1_555
O22 U1 2.284127 1_565
O23 P11 1.527997 1_555
O23 U0 2.284127 1_545
O24 U0 2.516575 1_555
O25 U1 2.516575 1_555
O26 U2 2.516575 1_555
O27 U3 2.516575 1_555
O28 U1 2.516575 1_555
O29 U0 2.516575 1_555
O30 U3 2.516575 1_555
O31 U2 2.516575 1_555
