# generated using pymatgen
data_K4Ti3Co(PO4)6
_symmetry_space_group_name_H-M   'P 1'
_cell_length_a   10.00266300
_cell_length_b   10.01074200
_cell_length_c   10.01531218
_cell_angle_alpha   89.90025176
_cell_angle_beta   90.00000000
_cell_angle_gamma   90.00000000
_symmetry_Int_Tables_number   1
_chemical_formula_structural   K4Ti3Co(PO4)6
_chemical_formula_sum   'K8 Ti6 Co2 P12 O48'
_cell_volume   1002.87253706
_cell_formula_units_Z   2
loop_
 _symmetry_equiv_pos_site_id
 _symmetry_equiv_pos_as_xyz
  1  'x, y, z'
loop_
 _atom_site_type_symbol
 _atom_site_label
 _atom_site_symmetry_multiplicity
 _atom_site_fract_x
 _atom_site_fract_y
 _atom_site_fract_z
 _atom_site_occupancy
  K  K0  1  0.04473500  0.54991600  0.71156200  1
  K  K1  1  0.68151500  0.82069300  0.56982700  1
  K  K2  1  0.18151500  0.17930700  0.43017300  1
  K  K3  1  0.54473500  0.45008400  0.28843800  1
  K  K4  1  0.95490200  0.95979200  0.19717800  1
  K  K5  1  0.31399500  0.68853600  0.06255100  1
  K  K6  1  0.81399500  0.31146400  0.93744900  1
  K  K7  1  0.45490200  0.04020800  0.80282200  1
  Ti  Ti0  1  0.39018500  0.39011900  0.64347100  1
  Ti  Ti1  1  0.83689800  0.16018700  0.58763400  1
  Ti  Ti2  1  0.33689800  0.83981300  0.41236600  1
  Ti  Ti3  1  0.89018500  0.60988100  0.35652900  1
  Ti  Ti4  1  0.16487900  0.33282200  0.08647200  1
  Ti  Ti5  1  0.66487900  0.66717800  0.91352800  1
  Co  Co0  1  0.60531400  0.10511000  0.14437500  1
  Co  Co1  1  0.10531400  0.89489000  0.85562500  1
  P  P0  1  0.37801700  0.70799500  0.72533300  1
  P  P1  1  0.70735700  0.47611300  0.62682800  1
  P  P2  1  0.02130400  0.87287700  0.54310400  1
  P  P3  1  0.52130400  0.12712300  0.45689600  1
  P  P4  1  0.20735700  0.52388700  0.37317200  1
  P  P5  1  0.87801700  0.29200500  0.27466700  1
  P  P6  1  0.62568600  0.79386300  0.22886500  1
  P  P7  1  0.29337400  0.02069400  0.12419700  1
  P  P8  1  0.97644700  0.62055800  0.04197300  1
  P  P9  1  0.47644700  0.37944200  0.95802700  1
  P  P10  1  0.79337400  0.97930600  0.87580300  1
  P  P11  1  0.12568600  0.20613700  0.77113500  1
  O  O0  1  0.77814100  0.04862000  0.73389800  1
  O  O1  1  0.33559200  0.55764600  0.72770500  1
  O  O2  1  0.22598700  0.30534700  0.70162900  1
  O  O3  1  0.99054800  0.22860700  0.69616400  1
  O  O4  1  0.00926100  0.81993700  0.68407800  1
  O  O5  1  0.75185700  0.32945700  0.64692100  1
  O  O6  1  0.39850000  0.75099800  0.57714100  1
  O  O7  1  0.55959400  0.48109500  0.58012200  1
  O  O8  1  0.45130300  0.22769700  0.55478800  1
  O  O9  1  0.94769400  0.00887500  0.51980300  1
  O  O10  1  0.79561100  0.54811300  0.52143800  1
  O  O11  1  0.66856500  0.10579600  0.50317100  1
  O  O12  1  0.16856500  0.89420400  0.49682900  1
  O  O13  1  0.29561100  0.45188700  0.47856200  1
  O  O14  1  0.44769400  0.99112500  0.48019700  1
  O  O15  1  0.95130300  0.77230300  0.44521200  1
  O  O16  1  0.05959400  0.51890500  0.41987800  1
  O  O17  1  0.89850000  0.24900200  0.42285900  1
  O  O18  1  0.25185700  0.67054300  0.35307900  1
  O  O19  1  0.50926100  0.18006300  0.31592200  1
  O  O20  1  0.49054800  0.77139300  0.30383600  1
  O  O21  1  0.72598700  0.69465300  0.29837100  1
  O  O22  1  0.83559200  0.44235400  0.27229500  1
  O  O23  1  0.27814100  0.95138000  0.26610200  1
  O  O24  1  0.22940100  0.44761000  0.24066600  1
  O  O25  1  0.67981700  0.93436200  0.24160000  1
  O  O26  1  0.77752300  0.20775300  0.20127600  1
  O  O27  1  0.01551400  0.27550100  0.20255700  1
  O  O28  1  0.97868200  0.66460200  0.19231200  1
  O  O29  1  0.24872100  0.17072200  0.14660100  1
  O  O30  1  0.60487300  0.74738100  0.08186200  1
  O  O31  1  0.43703400  0.01155200  0.07589600  1
  O  O32  1  0.54898300  0.27961000  0.04372900  1
  O  O33  1  0.04893200  0.48362200  0.02768200  1
  O  O34  1  0.19576900  0.94987000  0.03323400  1
  O  O35  1  0.32748900  0.39966300  0.00001400  1
  O  O36  1  0.82748900  0.60033700  0.99998600  1
  O  O37  1  0.69576900  0.05013000  0.96676600  1
  O  O38  1  0.54893200  0.51637800  0.97231800  1
  O  O39  1  0.04898300  0.72039000  0.95627100  1
  O  O40  1  0.93703400  0.98844800  0.92410400  1
  O  O41  1  0.10487300  0.25261900  0.91813800  1
  O  O42  1  0.74872100  0.82927800  0.85339900  1
  O  O43  1  0.47868200  0.33539800  0.80768800  1
  O  O44  1  0.51551400  0.72449900  0.79744300  1
  O  O45  1  0.27752300  0.79224700  0.79872400  1
  O  O46  1  0.17981700  0.06563800  0.75840000  1
  O  O47  1  0.72940100  0.55239000  0.75933400  1
loop_
_geom_bond_atom_site_label_1
_geom_bond_atom_site_label_2
_geom_bond_distance
_geom_bond_site_symmetry_2
K0 O4 2.739688 1_555
K0 O1 2.914868 1_555
K0 O16 2.942049 1_555
K0 O39 2.989207 1_555
K0 O2 3.048275 1_555
K0 O10 3.136211 1_455
K0 O47 3.190364 1_455
K0 O33 3.233990 1_556
K0 O3 3.265797 1_455
K1 O6 2.916503 1_555
K1 O42 2.919948 1_555
K1 O11 2.932858 1_565
K1 O0 2.975505 1_565
K1 O44 2.978852 1_555
K1 O10 2.997985 1_555
K1 O15 3.012781 1_555
K1 O14 3.030111 1_555
K1 O21 3.032040 1_555
K2 O17 2.916503 1_455
K2 O29 2.919948 1_555
K2 O12 2.932858 1_545
K2 O23 2.975505 1_545
K2 O27 2.978852 1_555
K2 O13 2.997985 1_555
K2 O8 3.012781 1_555
K2 O9 3.030111 1_455
K2 O2 3.032040 1_555
K3 O19 2.739688 1_555
K3 O22 2.914868 1_555
K3 O7 2.942049 1_555
K3 O32 2.989207 1_555
K3 O21 3.048275 1_555
K3 O13 3.136211 1_555
K3 O24 3.190364 1_555
K3 O38 3.233990 1_554
K3 O20 3.265797 1_555
K4 O40 2.755231 1_554
K4 O25 2.798849 1_555
K4 O34 2.917399 1_655
K4 O28 2.965114 1_555
K4 O26 3.051512 1_565
K4 O15 3.111072 1_555
K4 O27 3.218651 1_665
K4 O9 3.269977 1_565
K4 O23 3.307160 1_655
K5 O45 2.860638 1_554
K5 O39 2.874089 1_554
K5 O34 2.885524 1_555
K5 O35 2.963024 1_555
K5 O30 2.974950 1_555
K5 O18 2.980513 1_555
K5 O38 3.052017 1_554
K5 O20 3.106997 1_555
K5 O24 3.114522 1_555
K6 O26 2.860638 1_556
K6 O32 2.874089 1_556
K6 O37 2.885524 1_555
K6 O36 2.963024 1_555
K6 O41 2.974950 1_655
K6 O5 2.980513 1_555
K6 O33 3.052017 1_656
K6 O3 3.106997 1_555
K6 O47 3.114522 1_555
K7 O31 2.755231 1_556
K7 O46 2.798849 1_555
K7 O37 2.917399 1_555
K7 O43 2.965114 1_555
K7 O45 3.051512 1_545
K7 O8 3.111072 1_555
K7 O44 3.218651 1_545
K7 O14 3.269977 1_545
K7 O0 3.307160 1_555
Co0 O31 2.045269 1_555
Co0 O37 2.071026 1_554
Co0 O26 2.085618 1_555
Co0 O32 2.092604 1_555
Co0 O25 2.102259 1_545
Co0 O19 2.107714 1_555
Co1 O40 2.045269 1_455
Co1 O34 2.071026 1_556
Co1 O45 2.085618 1_555
Co1 O39 2.092604 1_555
Co1 O46 2.102259 1_565
Co1 O4 2.107714 1_555
O0 P10 1.587808 1_545
O0 Ti1 1.932096 1_555
O1 P0 1.563926 1_555
O1 Ti0 1.956374 1_555
O2 P11 1.573253 1_555
O2 Ti0 1.937849 1_555
O3 P11 1.562370 1_655
O3 Ti1 2.003822 1_555
O4 P2 1.512029 1_555
O5 P1 1.546939 1_555
O5 Ti1 1.987725 1_555
O6 P0 1.558170 1_555
O6 Ti2 1.971923 1_555
O7 P1 1.551056 1_555
O7 Ti0 2.025201 1_555
O8 P3 1.571184 1_555
O8 Ti0 1.952283 1_555
O9 P2 1.564930 1_645
O9 Ti1 1.996943 1_555
O10 P1 1.552503 1_555
O10 Ti3 2.000381 1_555
O11 P3 1.558771 1_555
O11 Ti1 1.961829 1_555
O12 P2 1.558771 1_555
O12 Ti2 1.961829 1_555
O13 P4 1.552503 1_555
O13 Ti0 2.000381 1_555
O14 P3 1.564930 1_565
O14 Ti2 1.996943 1_555
O15 P2 1.571184 1_655
O15 Ti3 1.952283 1_555
O16 P4 1.551056 1_555
O16 Ti3 2.025201 1_455
O17 P5 1.558170 1_555
O17 Ti1 1.971923 1_555
O18 P4 1.546939 1_555
O18 Ti2 1.987725 1_555
O19 P3 1.512029 1_555
O20 P6 1.562370 1_555
O20 Ti2 2.003822 1_555
O21 P6 1.573253 1_555
O21 Ti3 1.937849 1_555
O22 P5 1.563926 1_555
O22 Ti3 1.956374 1_555
O23 P7 1.587808 1_565
O23 Ti2 1.932096 1_555
O24 P4 1.548025 1_555
O24 Ti4 2.031757 1_555
O25 P6 1.512714 1_555
O26 P5 1.504740 1_555
O27 P5 1.562319 1_455
O27 Ti4 1.977583 1_555
O28 P8 1.569817 1_555
O28 Ti3 1.945642 1_555
O29 P7 1.583254 1_555
O29 Ti4 1.922464 1_555
O30 P6 1.558801 1_555
O30 Ti5 1.962633 1_554
O31 P7 1.519033 1_555
O32 P9 1.502984 1_554
O33 P8 1.557573 1_455
O33 Ti4 1.991891 1_555
O34 P7 1.512638 1_565
O35 P9 1.561453 1_554
O35 Ti4 1.959876 1_555
O36 P8 1.561453 1_556
O36 Ti5 1.959876 1_555
O37 P10 1.512638 1_545
O38 P9 1.557573 1_555
O38 Ti5 1.991891 1_555
O39 P8 1.502984 1_456
O40 P10 1.519033 1_555
O41 P11 1.558801 1_555
O41 Ti4 1.962633 1_556
O42 P10 1.583254 1_555
O42 Ti5 1.922464 1_555
O43 P9 1.569817 1_555
O43 Ti0 1.945642 1_555
O44 P0 1.562319 1_555
O44 Ti5 1.977583 1_555
O45 P0 1.504740 1_555
O46 P11 1.512714 1_555
O47 P1 1.548025 1_555
O47 Ti5 2.031757 1_555
