# generated using pymatgen
data_Li2V2CrO6
_symmetry_space_group_name_H-M   'P 1'
_cell_length_a   7.86487778
_cell_length_b   7.86487778
_cell_length_c   6.06224153
_cell_angle_alpha   78.38560373
_cell_angle_beta   78.38560373
_cell_angle_gamma   69.21926555
_symmetry_Int_Tables_number   1
_chemical_formula_structural   Li2V2CrO6
_chemical_formula_sum   'Li6 V6 Cr3 O18'
_cell_volume   339.94254758
_cell_formula_units_Z   3
loop_
 _symmetry_equiv_pos_site_id
 _symmetry_equiv_pos_as_xyz
  1  'x, y, z'
loop_
 _atom_site_type_symbol
 _atom_site_label
 _atom_site_symmetry_multiplicity
 _atom_site_fract_x
 _atom_site_fract_y
 _atom_site_fract_z
 _atom_site_occupancy
  Li  Li0  1  0.66681800  0.00278500  0.33868600  1
  Li  Li1  1  0.00278500  0.66681800  0.33868600  1
  Li  Li2  1  0.67094000  0.32906000  0.00000000  1
  Li  Li3  1  0.32906000  0.67094000  0.00000000  1
  Li  Li4  1  0.99721500  0.33318200  0.66131400  1
  Li  Li5  1  0.33318200  0.99721500  0.66131400  1
  V  V0  1  0.33402300  0.33402300  0.82851600  1
  V  V1  1  0.66597700  0.66597700  0.17148400  1
  V  V2  1  0.67074300  0.99379700  0.83565900  1
  V  V3  1  0.99379700  0.67074300  0.83565900  1
  V  V4  1  0.00620300  0.32925700  0.16434100  1
  V  V5  1  0.32925700  0.00620300  0.16434100  1
  Cr  Cr0  1  0.66643500  0.33356500  0.50000000  1
  Cr  Cr1  1  0.00000000  0.00000000  0.50000000  1
  Cr  Cr2  1  0.33356500  0.66643500  0.50000000  1
  O  O0  1  0.51559200  0.51559200  0.25824500  1
  O  O1  1  0.50038100  0.83992100  0.94575500  1
  O  O2  1  0.83992100  0.50038100  0.94575500  1
  O  O3  1  0.48440800  0.48440800  0.74175500  1
  O  O4  1  0.49183600  0.83290200  0.38981400  1
  O  O5  1  0.83290200  0.49183600  0.38981400  1
  O  O6  1  0.49961900  0.16007900  0.05424500  1
  O  O7  1  0.81817800  0.81817800  0.08763200  1
  O  O8  1  0.16007900  0.49961900  0.05424500  1
  O  O9  1  0.50816400  0.16709800  0.61018600  1
  O  O10  1  0.84140100  0.84140100  0.60289200  1
  O  O11  1  0.16709800  0.50816400  0.61018600  1
  O  O12  1  0.83485500  0.17767800  0.27390900  1
  O  O13  1  0.17767800  0.83485500  0.27390900  1
  O  O14  1  0.18182200  0.18182200  0.91236800  1
  O  O15  1  0.82232200  0.16514500  0.72609100  1
  O  O16  1  0.16514500  0.82232200  0.72609100  1
  O  O17  1  0.15859900  0.15859900  0.39710800  1
loop_
_geom_bond_atom_site_label_1
_geom_bond_atom_site_label_2
_geom_bond_distance
_geom_bond_site_symmetry_2
Li0 O12 2.157849 1_555
Li0 O4 2.177494 1_545
Li0 O7 2.185244 1_545
Li0 O9 2.195743 1_555
Li0 O10 2.211794 1_545
Li0 O6 2.265561 1_555
Li1 O13 2.157849 1_555
Li1 O5 2.177494 1_455
Li1 O7 2.185244 1_455
Li1 O11 2.195743 1_555
Li1 O10 2.211794 1_455
Li1 O8 2.265561 1_555
Li2 O2 2.146219 1_554
Li2 O6 2.146219 1_555
Li2 O12 2.193976 1_555
Li2 O15 2.193976 1_554
Li2 O0 2.231292 1_555
Li2 O3 2.231292 1_554
Li3 O1 2.146219 1_554
Li3 O8 2.146219 1_555
Li3 O13 2.193976 1_555
Li3 O16 2.193976 1_554
Li3 O0 2.231292 1_555
Li3 O3 2.231292 1_554
Li4 O15 2.157849 1_555
Li4 O11 2.177494 1_655
Li4 O14 2.185244 1_655
Li4 O5 2.195743 1_555
Li4 O17 2.211794 1_655
Li4 O2 2.265561 1_555
Li5 O16 2.157849 1_555
Li5 O9 2.177494 1_565
Li5 O14 2.185244 1_565
Li5 O4 2.195743 1_555
Li5 O17 2.211794 1_565
Li5 O1 2.265561 1_555
Cr0 O15 1.982310 1_555
Cr0 O12 1.982310 1_555
Cr0 O5 2.044331 1_555
Cr0 O9 2.044331 1_555
Cr0 O3 2.062766 1_555
Cr0 O0 2.062766 1_555
Cr1 O17 1.994589 1_555
Cr1 O10 1.994589 1_445
Cr1 O16 2.043538 1_545
Cr1 O15 2.043538 1_455
Cr1 O13 2.043538 1_545
Cr1 O12 2.043538 1_455
Cr2 O16 1.982310 1_555
Cr2 O13 1.982310 1_555
Cr2 O4 2.044331 1_555
Cr2 O11 2.044331 1_555
Cr2 O3 2.062766 1_555
Cr2 O0 2.062766 1_555
O0 V1 1.888430 1_555
O1 V5 2.002087 1_566
O1 V1 2.034673 1_556
O1 V2 2.042220 1_555
O2 V4 2.002087 1_656
O2 V1 2.034673 1_556
O2 V3 2.042220 1_555
O3 V0 1.888430 1_555
O4 V1 2.011235 1_555
O4 V5 2.019402 1_565
O5 V1 2.011235 1_555
O5 V4 2.019402 1_655
O6 V2 2.002087 1_544
O6 V0 2.034673 1_554
O6 V5 2.042220 1_555
O7 V1 1.910752 1_555
O7 V3 2.076742 1_554
O7 V2 2.076742 1_554
O8 V3 2.002087 1_454
O8 V0 2.034673 1_554
O8 V4 2.042220 1_555
O9 V0 2.011235 1_555
O9 V2 2.019402 1_545
O10 V2 2.001532 1_555
O10 V3 2.001532 1_555
O11 V0 2.011235 1_555
O11 V3 2.019402 1_455
O12 V4 2.034520 1_655
O13 V5 2.034520 1_565
O14 V0 1.910752 1_555
O14 V4 2.076742 1_556
O14 V5 2.076742 1_556
O15 V2 2.034520 1_545
O16 V3 2.034520 1_455
O17 V5 2.001532 1_555
O17 V4 2.001532 1_555
