# generated using pymatgen
data_Al9Fe2Si4HO24
_symmetry_space_group_name_H-M   'P 1'
_cell_length_a   9.26884599
_cell_length_b   9.26884599
_cell_length_c   5.78210245
_cell_angle_alpha   89.56265045
_cell_angle_beta   89.56265045
_cell_angle_gamma   130.23250715
_symmetry_Int_Tables_number   1
_chemical_formula_structural   Al9Fe2Si4HO24
_chemical_formula_sum   'Al9 Fe2 Si4 H1 O24'
_cell_volume   379.17063645
_cell_formula_units_Z   1
loop_
 _symmetry_equiv_pos_site_id
 _symmetry_equiv_pos_as_xyz
  1  'x, y, z'
loop_
 _atom_site_type_symbol
 _atom_site_label
 _atom_site_symmetry_multiplicity
 _atom_site_fract_x
 _atom_site_fract_y
 _atom_site_fract_z
 _atom_site_occupancy
  Al  Al0  1  0.67201300  0.32798700  0.00000000  1
  Al  Al1  1  0.32798700  0.67201300  0.00000000  1
  Al  Al2  1  0.67454300  0.32545700  0.50000000  1
  Al  Al3  1  0.32545700  0.67454300  0.50000000  1
  Al  Al4  1  0.85561300  0.68168400  0.73530800  1
  Al  Al5  1  0.68168400  0.85561300  0.73530800  1
  Al  Al6  1  0.14438700  0.31831600  0.26469200  1
  Al  Al7  1  0.31831600  0.14438700  0.26469200  1
  Al  Al8  1  0.00000000  0.00000000  0.00000000  1
  Fe  Fe0  1  0.36128400  0.36128400  0.73429000  1
  Fe  Fe1  1  0.63871600  0.63871600  0.26571000  1
  Si  Si0  1  0.96759700  0.30336300  0.76093000  1
  Si  Si1  1  0.30336300  0.96759700  0.76093000  1
  Si  Si2  1  0.03240300  0.69663700  0.23907000  1
  Si  Si3  1  0.69663700  0.03240300  0.23907000  1
  H  H0  1  0.00000000  0.00000000  0.50000000  1
  O  O0  1  0.23041300  0.23041300  0.04560200  1
  O  O1  1  0.76958700  0.76958700  0.95439800  1
  O  O2  1  0.17883200  0.17883200  0.47245300  1
  O  O3  1  0.82116800  0.82116800  0.52754700  1
  O  O4  1  0.09874900  0.42197200  0.98663600  1
  O  O5  1  0.42197200  0.09874900  0.98663600  1
  O  O6  1  0.90125100  0.57802800  0.01336400  1
  O  O7  1  0.57802800  0.90125100  0.01336400  1
  O  O8  1  0.58670400  0.90702800  0.47840200  1
  O  O9  1  0.90702800  0.58670400  0.47840200  1
  O  O10  1  0.41329600  0.09297200  0.52159800  1
  O  O11  1  0.09297200  0.41329600  0.52159800  1
  O  O12  1  0.91072600  0.09492300  0.77961800  1
  O  O13  1  0.09492300  0.91072600  0.77961800  1
  O  O14  1  0.08927400  0.90507700  0.22038200  1
  O  O15  1  0.90507700  0.08927400  0.22038200  1
  O  O16  1  0.77138400  0.27387200  0.75091400  1
  O  O17  1  0.27387200  0.77138400  0.75091400  1
  O  O18  1  0.22861600  0.72612800  0.24908600  1
  O  O19  1  0.72612800  0.22861600  0.24908600  1
  O  O20  1  0.62526300  0.43038000  0.74251400  1
  O  O21  1  0.43038000  0.62526300  0.74251400  1
  O  O22  1  0.37473700  0.56962000  0.25748600  1
  O  O23  1  0.56962000  0.37473700  0.25748600  1
loop_
_geom_bond_atom_site_label_1
_geom_bond_atom_site_label_2
_geom_bond_distance
_geom_bond_site_symmetry_2
Al0 O5 1.880401 1_554
Al0 O6 1.880401 1_555
Al0 O16 1.939532 1_554
Al0 O19 1.939532 1_555
Al0 O23 1.955650 1_555
Al0 O20 1.955650 1_554
Al1 O4 1.880401 1_554
Al1 O7 1.880401 1_555
Al1 O17 1.939532 1_554
Al1 O18 1.939532 1_555
Al1 O22 1.955650 1_555
Al1 O21 1.955650 1_554
Al2 O16 1.924278 1_555
Al2 O19 1.924278 1_555
Al2 O20 1.924986 1_555
Al2 O23 1.924986 1_555
Al2 O9 1.942516 1_555
Al2 O10 1.942516 1_555
Al3 O17 1.924278 1_555
Al3 O18 1.924278 1_555
Al3 O21 1.924986 1_555
Al3 O22 1.924986 1_555
Al3 O8 1.942516 1_555
Al3 O11 1.942516 1_555
Al4 O13 1.851126 1_655
Al4 O20 1.886466 1_555
Al4 O3 1.931803 1_555
Al4 O1 1.934930 1_555
Al4 O9 1.939027 1_555
Al4 O6 2.049068 1_556
Al5 O12 1.851126 1_565
Al5 O21 1.886466 1_555
Al5 O3 1.931803 1_555
Al5 O1 1.934930 1_555
Al5 O8 1.939027 1_555
Al5 O7 2.049068 1_556
Al6 O15 1.851126 1_455
Al6 O22 1.886466 1_555
Al6 O2 1.931803 1_555
Al6 O0 1.934930 1_555
Al6 O11 1.939027 1_555
Al6 O4 2.049068 1_554
Al7 O14 1.851126 1_545
Al7 O23 1.886466 1_555
Al7 O2 1.931803 1_555
Al7 O0 1.934930 1_555
Al7 O10 1.939027 1_555
Al7 O5 2.049068 1_554
Al8 O1 1.821247 1_444
Al8 O0 1.821247 1_555
Al8 O13 2.005492 1_544
Al8 O12 2.005492 1_454
Al8 O15 2.005492 1_455
Al8 O14 2.005492 1_545
Fe0 O0 2.053183 1_556
Fe0 O20 2.092166 1_555
Fe0 O21 2.092166 1_555
Fe0 O2 2.096591 1_555
Fe1 O1 2.053183 1_554
Fe1 O23 2.092166 1_555
Fe1 O22 2.092166 1_555
Fe1 O3 2.096591 1_555
H0 O2 1.401127 1_555
H0 O3 1.401127 1_445
O4 Si0 1.645991 1_455
O5 Si1 1.645991 1_545
O6 Si2 1.645991 1_655
O7 Si3 1.645991 1_565
O8 Si3 1.651676 1_565
O9 Si2 1.651676 1_655
O10 Si1 1.651676 1_545
O11 Si0 1.651676 1_455
O12 Si0 1.643939 1_555
O13 Si1 1.643939 1_555
O14 Si2 1.643939 1_555
O15 Si3 1.643939 1_555
O16 Si0 1.656893 1_555
O17 Si1 1.656893 1_555
O18 Si2 1.656893 1_555
O19 Si3 1.656893 1_555
