# generated using pymatgen
data_Y2Hf2O7
_symmetry_space_group_name_H-M   'P 1'
_cell_length_a   7.31417100
_cell_length_b   7.31417100
_cell_length_c   12.52360600
_cell_angle_alpha   90.00000000
_cell_angle_beta   90.00000000
_cell_angle_gamma   90.00000000
_symmetry_Int_Tables_number   1
_chemical_formula_structural   Y2Hf2O7
_chemical_formula_sum   'Y8 Hf8 O28'
_cell_volume   669.97657020
_cell_formula_units_Z   4
loop_
 _symmetry_equiv_pos_site_id
 _symmetry_equiv_pos_as_xyz
  1  'x, y, z'
loop_
 _atom_site_type_symbol
 _atom_site_label
 _atom_site_symmetry_multiplicity
 _atom_site_fract_x
 _atom_site_fract_y
 _atom_site_fract_z
 _atom_site_occupancy
  Y  Y0  1  0.13698300  0.62534200  0.13405800  1
  Y  Y1  1  0.12534200  0.36301700  0.88405800  1
  Y  Y2  1  0.37465800  0.86301700  0.36594200  1
  Y  Y3  1  0.36301700  0.12534200  0.11594200  1
  Y  Y4  1  0.63698300  0.87465800  0.61594200  1
  Y  Y5  1  0.62534200  0.13698300  0.86594200  1
  Y  Y6  1  0.87465800  0.63698300  0.38405800  1
  Y  Y7  1  0.86301700  0.37465800  0.63405800  1
  Hf  Hf0  1  0.09897500  0.87160700  0.59465200  1
  Hf  Hf1  1  0.12839300  0.90102500  0.90534800  1
  Hf  Hf2  1  0.37160700  0.40102500  0.34465200  1
  Hf  Hf3  1  0.40102500  0.37160700  0.65534800  1
  Hf  Hf4  1  0.59897500  0.62839300  0.15534800  1
  Hf  Hf5  1  0.62839300  0.59897500  0.84465200  1
  Hf  Hf6  1  0.87160700  0.09897500  0.40534800  1
  Hf  Hf7  1  0.90102500  0.12839300  0.09465200  1
  O  O0  1  0.06971500  0.90893100  0.41532800  1
  O  O1  1  0.08177000  0.32593500  0.07379900  1
  O  O2  1  0.09106900  0.93028500  0.08467200  1
  O  O3  1  0.15290900  0.64028300  0.95306500  1
  O  O4  1  0.17406500  0.58177000  0.32379900  1
  O  O5  1  0.14028300  0.34709100  0.70306500  1
  O  O6  1  0.14318800  0.85681200  0.75000000  1
  O  O7  1  0.35681200  0.35681200  0.50000000  1
  O  O8  1  0.35971700  0.84709100  0.54693500  1
  O  O9  1  0.32593500  0.08177000  0.92620100  1
  O  O10  1  0.34709100  0.14028300  0.29693500  1
  O  O11  1  0.40893100  0.43028500  0.16532800  1
  O  O12  1  0.41823000  0.82593500  0.17620100  1
  O  O13  1  0.43028500  0.40893100  0.83467200  1
  O  O14  1  0.56971500  0.59106900  0.33467200  1
  O  O15  1  0.58177000  0.17406500  0.67620100  1
  O  O16  1  0.59106900  0.56971500  0.66532800  1
  O  O17  1  0.65290900  0.85971700  0.79693500  1
  O  O18  1  0.67406500  0.91823000  0.42620100  1
  O  O19  1  0.64028300  0.15290900  0.04693500  1
  O  O20  1  0.64318800  0.64318800  0.00000000  1
  O  O21  1  0.85681200  0.14318800  0.25000000  1
  O  O22  1  0.85971700  0.65290900  0.20306500  1
  O  O23  1  0.82593500  0.41823000  0.82379900  1
  O  O24  1  0.84709100  0.35971700  0.45306500  1
  O  O25  1  0.90893100  0.06971500  0.58467200  1
  O  O26  1  0.91823000  0.67406500  0.57379900  1
  O  O27  1  0.93028500  0.09106900  0.91532800  1
loop_
_geom_bond_atom_site_label_1
_geom_bond_atom_site_label_2
_geom_bond_distance
_geom_bond_site_symmetry_2
Hf0 O6 1.975177 1_555
Hf0 O26 1.975726 1_455
Hf0 O8 2.006574 1_555
Hf0 O25 2.011803 1_465
Hf0 O0 2.272415 1_555
Hf1 O6 1.975177 1_555
Hf1 O9 1.975726 1_565
Hf1 O3 2.006574 1_555
Hf1 O27 2.011803 1_465
Hf1 O2 2.272415 1_556
Hf2 O7 1.975177 1_555
Hf2 O4 1.975726 1_555
Hf2 O10 2.006574 1_555
Hf2 O14 2.011803 1_555
Hf2 O11 2.272415 1_555
Hf3 O7 1.975177 1_555
Hf3 O15 1.975726 1_555
Hf3 O5 2.006574 1_555
Hf3 O16 2.011803 1_555
Hf3 O13 2.272415 1_555
Hf4 O20 1.975177 1_555
Hf4 O12 1.975726 1_555
Hf4 O22 2.006574 1_555
Hf4 O11 2.011803 1_555
Hf4 O14 2.272415 1_555
Hf5 O20 1.975177 1_556
Hf5 O23 1.975726 1_555
Hf5 O17 2.006574 1_555
Hf5 O13 2.011803 1_555
Hf5 O16 2.272415 1_555
Hf6 O21 1.975177 1_555
Hf6 O18 1.975726 1_545
Hf6 O24 2.006574 1_555
Hf6 O0 2.011803 1_645
Hf6 O25 2.272415 1_555
Hf7 O21 1.975177 1_555
Hf7 O1 1.975726 1_655
Hf7 O19 2.006574 1_555
Hf7 O2 2.011803 1_645
Hf7 O27 2.272415 1_554
O0 Y2 2.338806 1_555
O0 Y6 2.478950 1_455
O1 Y0 2.351238 1_555
O1 Y1 2.412810 1_554
O1 Y3 2.581232 1_555
O2 Y0 2.338806 1_555
O2 Y3 2.478950 1_565
O3 Y1 2.213637 1_555
O3 Y0 2.272305 1_556
O4 Y6 2.351238 1_455
O4 Y0 2.412810 1_555
O4 Y2 2.581232 1_555
O5 Y7 2.213637 1_455
O5 Y1 2.272305 1_555
O8 Y4 2.213637 1_555
O8 Y2 2.272305 1_555
O9 Y5 2.351238 1_555
O9 Y3 2.412810 1_556
O9 Y1 2.581232 1_555
O10 Y2 2.213637 1_545
O10 Y3 2.272305 1_555
O11 Y3 2.338806 1_555
O11 Y0 2.478950 1_555
O12 Y3 2.351238 1_565
O12 Y2 2.412810 1_555
O12 Y0 2.581232 1_555
O13 Y1 2.338806 1_555
O13 Y5 2.478950 1_555
O14 Y6 2.338806 1_555
O14 Y2 2.478950 1_555
O15 Y4 2.351238 1_545
O15 Y5 2.412810 1_555
O15 Y7 2.581232 1_555
O16 Y4 2.338806 1_555
O16 Y7 2.478950 1_555
O17 Y5 2.213637 1_565
O17 Y4 2.272305 1_555
O18 Y2 2.351238 1_555
O18 Y4 2.412810 1_555
O18 Y6 2.581232 1_555
O19 Y3 2.213637 1_555
O19 Y5 2.272305 1_554
O22 Y0 2.213637 1_655
O22 Y6 2.272305 1_555
O23 Y1 2.351238 1_655
O23 Y7 2.412810 1_555
O23 Y5 2.581232 1_555
O24 Y6 2.213637 1_555
O24 Y7 2.272305 1_555
O25 Y7 2.338806 1_555
O25 Y4 2.478950 1_545
O26 Y7 2.351238 1_555
O26 Y6 2.412810 1_555
O26 Y4 2.581232 1_555
O27 Y5 2.338806 1_555
O27 Y1 2.478950 1_655
