# generated using pymatgen
data_LiCuHCO4
_symmetry_space_group_name_H-M   'P 1'
_cell_length_a   10.67406436
_cell_length_b   10.67406436
_cell_length_c   5.94376300
_cell_angle_alpha   90.00000000
_cell_angle_beta   90.00000000
_cell_angle_gamma   120.00000222
_symmetry_Int_Tables_number   1
_chemical_formula_structural   LiCuHCO4
_chemical_formula_sum   'Li6 Cu6 H6 C6 O24'
_cell_volume   586.47801988
_cell_formula_units_Z   6
loop_
 _symmetry_equiv_pos_site_id
 _symmetry_equiv_pos_as_xyz
  1  'x, y, z'
loop_
 _atom_site_type_symbol
 _atom_site_label
 _atom_site_symmetry_multiplicity
 _atom_site_fract_x
 _atom_site_fract_y
 _atom_site_fract_z
 _atom_site_occupancy
  Li  Li0  1  0.16132800  0.79563100  0.75000000  1
  Li  Li1  1  0.20436900  0.36569700  0.75000000  1
  Li  Li2  1  0.36569700  0.16132800  0.25000000  1
  Li  Li3  1  0.63430300  0.83867200  0.75000000  1
  Li  Li4  1  0.79563100  0.63430300  0.25000000  1
  Li  Li5  1  0.83867200  0.20436900  0.25000000  1
  Cu  Cu0  1  0.00000000  0.50000000  0.50000000  1
  Cu  Cu1  1  0.00000000  0.50000000  0.00000000  1
  Cu  Cu2  1  0.50000000  0.50000000  0.50000000  1
  Cu  Cu3  1  0.50000000  0.50000000  0.00000000  1
  Cu  Cu4  1  0.50000000  0.00000000  0.50000000  1
  Cu  Cu5  1  0.50000000  0.00000000  0.00000000  1
  H  H0  1  0.20387600  0.59159600  0.75000000  1
  H  H1  1  0.38772000  0.79612400  0.75000000  1
  H  H2  1  0.40840400  0.61228000  0.75000000  1
  H  H3  1  0.59159600  0.38772000  0.25000000  1
  H  H4  1  0.61228000  0.20387600  0.25000000  1
  H  H5  1  0.79612400  0.40840400  0.25000000  1
  C  C0  1  0.19105600  0.77861300  0.25000000  1
  C  C1  1  0.22138700  0.41244300  0.25000000  1
  C  C2  1  0.58755700  0.80894400  0.25000000  1
  C  C3  1  0.41244300  0.19105600  0.75000000  1
  C  C4  1  0.77861300  0.58755700  0.75000000  1
  C  C5  1  0.80894400  0.22138700  0.75000000  1
  O  O0  1  0.14811800  0.70858500  0.44143000  1
  O  O1  1  0.14811800  0.70858500  0.05857000  1
  O  O2  1  0.27459000  0.91545800  0.25000000  1
  O  O3  1  0.11680000  0.49690100  0.75000000  1
  O  O4  1  0.08454200  0.35913200  0.25000000  1
  O  O5  1  0.38010100  0.88320000  0.75000000  1
  O  O6  1  0.29141500  0.43953300  0.44143000  1
  O  O7  1  0.29141500  0.43953300  0.05857000  1
  O  O8  1  0.56046700  0.85188200  0.05857000  1
  O  O9  1  0.56046700  0.85188200  0.44143000  1
  O  O10  1  0.50309900  0.61989900  0.75000000  1
  O  O11  1  0.64086800  0.72541000  0.25000000  1
  O  O12  1  0.35913200  0.27459000  0.75000000  1
  O  O13  1  0.49690100  0.38010100  0.25000000  1
  O  O14  1  0.43953300  0.14811800  0.55857000  1
  O  O15  1  0.43953300  0.14811800  0.94143000  1
  O  O16  1  0.70858500  0.56046700  0.94143000  1
  O  O17  1  0.70858500  0.56046700  0.55857000  1
  O  O18  1  0.61989900  0.11680000  0.25000000  1
  O  O19  1  0.91545800  0.64086800  0.75000000  1
  O  O20  1  0.88320000  0.50309900  0.25000000  1
  O  O21  1  0.72541000  0.08454200  0.75000000  1
  O  O22  1  0.85188200  0.29141500  0.94143000  1
  O  O23  1  0.85188200  0.29141500  0.55857000  1
loop_
_geom_bond_atom_site_label_1
_geom_bond_atom_site_label_2
_geom_bond_distance
_geom_bond_site_symmetry_2
Li0 O0 2.028784 1_555
Li0 O1 2.028784 1_556
Li0 O5 2.035704 1_555
Li0 O19 2.298076 1_455
Li1 O6 2.028784 1_555
Li1 O7 2.028784 1_556
Li1 O3 2.035705 1_555
Li1 O12 2.298076 1_555
Li2 O14 2.028784 1_555
Li2 O15 2.028784 1_554
Li2 O13 2.035704 1_555
Li2 O2 2.298076 1_545
Li3 O9 2.028784 1_555
Li3 O8 2.028784 1_556
Li3 O10 2.035704 1_555
Li3 O21 2.298076 1_565
Li4 O16 2.028784 1_554
Li4 O17 2.028784 1_555
Li4 O20 2.035705 1_555
Li4 O11 2.298076 1_555
Li5 O22 2.028784 1_554
Li5 O23 2.028784 1_555
Li5 O18 2.035704 1_555
Li5 O4 2.298076 1_655
Cu0 O3 1.950562 1_555
Cu0 O20 1.950562 1_455
Cu0 O0 2.014407 1_555
Cu0 O23 2.014407 1_455
Cu0 O4 2.576851 1_555
Cu0 O19 2.576851 1_455
Cu1 O20 1.950562 1_455
Cu1 O3 1.950562 1_554
Cu1 O1 2.014407 1_555
Cu1 O22 2.014407 1_454
Cu1 O19 2.576851 1_454
Cu1 O4 2.576851 1_555
Cu2 O13 1.950562 1_555
Cu2 O10 1.950562 1_555
Cu2 O6 2.014407 1_555
Cu2 O17 2.014407 1_555
Cu2 O11 2.576851 1_555
Cu2 O12 2.576851 1_555
Cu3 O13 1.950562 1_555
Cu3 O10 1.950562 1_554
Cu3 O16 2.014407 1_554
Cu3 O7 2.014407 1_555
Cu3 O12 2.576851 1_554
Cu3 O11 2.576851 1_555
Cu4 O18 1.950562 1_555
Cu4 O5 1.950562 1_545
Cu4 O9 2.014407 1_545
Cu4 O14 2.014407 1_555
Cu4 O21 2.576851 1_555
Cu4 O2 2.576851 1_545
Cu5 O5 1.950562 1_544
Cu5 O18 1.950562 1_555
Cu5 O15 2.014407 1_554
Cu5 O8 2.014407 1_545
Cu5 O21 2.576851 1_554
Cu5 O2 2.576851 1_545
H0 O3 0.972671 1_555
H1 O5 0.972671 1_555
H2 O10 0.972671 1_555
H3 O13 0.972671 1_555
H4 O18 0.972671 1_555
H5 O20 0.972671 1_555
C0 O2 1.275239 1_555
C0 O1 1.311802 1_555
C0 O0 1.311802 1_555
C1 O4 1.275239 1_555
C1 O7 1.311802 1_555
C1 O6 1.311802 1_555
C2 O11 1.275239 1_555
C2 O9 1.311802 1_555
C2 O8 1.311802 1_555
C3 O12 1.275239 1_555
C3 O15 1.311802 1_555
C3 O14 1.311802 1_555
C4 O19 1.275239 1_555
C4 O17 1.311802 1_555
C4 O16 1.311802 1_555
C5 O21 1.275239 1_555
C5 O23 1.311802 1_555
C5 O22 1.311802 1_555
