# generated using pymatgen
data_Li4Co2C4SO16
_symmetry_space_group_name_H-M   'P 1'
_cell_length_a   9.62914468
_cell_length_b   9.56484306
_cell_length_c   9.22603930
_cell_angle_alpha   61.62136892
_cell_angle_beta   60.92102035
_cell_angle_gamma   57.45761073
_symmetry_Int_Tables_number   1
_chemical_formula_structural   Li4Co2C4SO16
_chemical_formula_sum   'Li8 Co4 C8 S2 O32'
_cell_volume   599.07052724
_cell_formula_units_Z   2
loop_
 _symmetry_equiv_pos_site_id
 _symmetry_equiv_pos_as_xyz
  1  'x, y, z'
loop_
 _atom_site_type_symbol
 _atom_site_label
 _atom_site_symmetry_multiplicity
 _atom_site_fract_x
 _atom_site_fract_y
 _atom_site_fract_z
 _atom_site_occupancy
  Li  Li0  1  0.95502400  0.54497600  0.95502400  1
  Li  Li1  1  0.95568500  0.54431500  0.54431500  1
  Li  Li2  1  0.70568500  0.29431500  0.29431500  1
  Li  Li3  1  0.70502400  0.29497600  0.70502400  1
  Li  Li4  1  0.54497600  0.95502400  0.54497600  1
  Li  Li5  1  0.54431500  0.95568500  0.95568500  1
  Li  Li6  1  0.29431500  0.70568500  0.70568500  1
  Li  Li7  1  0.29497600  0.70502400  0.29497600  1
  Co  Co0  1  0.12500000  0.62500000  0.12500000  1
  Co  Co1  1  0.62500000  0.12500000  0.12500000  1
  Co  Co2  1  0.12500000  0.12500000  0.12500000  1
  Co  Co3  1  0.12500000  0.12500000  0.62500000  1
  C  C0  1  0.89477500  0.27892500  0.91658200  1
  C  C1  1  0.97107500  0.35522500  0.34028300  1
  C  C2  1  0.91658200  0.90971700  0.89477500  1
  C  C3  1  0.90971700  0.91658200  0.27892500  1
  C  C4  1  0.34028300  0.33341800  0.97107500  1
  C  C5  1  0.33341800  0.34028300  0.35522500  1
  C  C6  1  0.27892500  0.89477500  0.90971700  1
  C  C7  1  0.35522500  0.97107500  0.33341800  1
  S  S0  1  0.50000000  0.50000000  0.50000000  1
  S  S1  1  0.75000000  0.75000000  0.75000000  1
  O  O0  1  0.01582800  0.28562800  0.93501000  1
  O  O1  1  0.55795900  0.55683000  0.30631700  1
  O  O2  1  0.75871400  0.26828100  0.04585800  1
  O  O3  1  0.98171900  0.49128600  0.32285300  1
  O  O4  1  0.04585800  0.92714700  0.75871400  1
  O  O5  1  0.96322100  0.33954700  0.21253500  1
  O  O6  1  0.30631700  0.57889300  0.55795900  1
  O  O7  1  0.55683000  0.55795900  0.57889300  1
  O  O8  1  0.48469600  0.21253500  0.33954700  1
  O  O9  1  0.92714700  0.04585800  0.26828100  1
  O  O10  1  0.96437200  0.23417200  0.48646600  1
  O  O11  1  0.57889300  0.30631700  0.55683000  1
  O  O12  1  0.93501000  0.76353400  0.01582800  1
  O  O13  1  0.76353400  0.93501000  0.28562800  1
  O  O14  1  0.91045300  0.28677900  0.76530400  1
  O  O15  1  0.21253500  0.48469600  0.96322100  1
  O  O16  1  0.03746500  0.76530400  0.28677900  1
  O  O17  1  0.33954700  0.96322100  0.48469600  1
  O  O18  1  0.48646600  0.31499000  0.96437200  1
  O  O19  1  0.31499000  0.48646600  0.23417200  1
  O  O20  1  0.67110700  0.94368300  0.69317000  1
  O  O21  1  0.28562800  0.01582800  0.76353400  1
  O  O22  1  0.32285300  0.20414200  0.98171900  1
  O  O23  1  0.76530400  0.03746500  0.91045300  1
  O  O24  1  0.69317000  0.69204100  0.67110700  1
  O  O25  1  0.94368300  0.67110700  0.69204100  1
  O  O26  1  0.28677900  0.91045300  0.03746500  1
  O  O27  1  0.20414200  0.32285300  0.49128600  1
  O  O28  1  0.26828100  0.75871400  0.92714700  1
  O  O29  1  0.49128600  0.98171900  0.20414200  1
  O  O30  1  0.69204100  0.69317000  0.94368300  1
  O  O31  1  0.23417200  0.96437200  0.31499000  1
loop_
_geom_bond_atom_site_label_1
_geom_bond_atom_site_label_2
_geom_bond_distance
_geom_bond_site_symmetry_2
Li0 O25 2.165080 1_555
Li0 O30 2.165080 1_555
Li0 O15 2.255958 1_655
Li0 O5 2.255961 1_556
Li0 O12 2.301776 1_556
Li0 O0 2.301776 1_655
Li1 O24 2.146853 1_555
Li1 O25 2.146858 1_555
Li1 O3 2.201208 1_555
Li1 O27 2.201208 1_655
Li1 O14 2.435437 1_555
Li1 O16 2.435440 1_655
Li2 O11 2.146850 1_555
Li2 O1 2.146850 1_555
Li2 O2 2.201208 1_555
Li2 O9 2.201208 1_555
Li2 O5 2.435434 1_555
Li2 O8 2.435444 1_555
Li3 O7 2.165083 1_555
Li3 O11 2.165088 1_555
Li3 O23 2.255962 1_555
Li3 O14 2.255967 1_555
Li3 O10 2.301776 1_555
Li3 O18 2.301776 1_555
Li4 O24 2.165083 1_555
Li4 O20 2.165088 1_555
Li4 O8 2.255962 1_565
Li4 O17 2.255967 1_555
Li4 O21 2.301776 1_565
Li4 O13 2.301776 1_555
Li5 O20 2.146850 1_555
Li5 O30 2.146850 1_555
Li5 O29 2.201208 1_556
Li5 O22 2.201208 1_565
Li5 O26 2.435434 1_556
Li5 O23 2.435444 1_565
Li6 O7 2.146853 1_555
Li6 O6 2.146858 1_555
Li6 O4 2.201208 1_555
Li6 O28 2.201208 1_555
Li6 O17 2.435437 1_555
Li6 O15 2.435440 1_555
Li7 O6 2.165080 1_555
Li7 O1 2.165080 1_555
Li7 O16 2.255958 1_555
Li7 O26 2.255961 1_555
Li7 O19 2.301776 1_555
Li7 O31 2.301776 1_555
Co0 O19 2.007882 1_555
Co0 O12 2.007882 1_455
Co0 O3 2.025441 1_455
Co0 O28 2.025441 1_554
Co0 O15 2.050222 1_554
Co0 O16 2.050222 1_555
Co1 O18 2.007882 1_554
Co1 O13 2.007882 1_545
Co1 O2 2.025441 1_555
Co1 O29 2.025441 1_545
Co1 O8 2.050214 1_555
Co1 O23 2.050214 1_554
Co2 O0 2.007882 1_554
Co2 O31 2.007882 1_545
Co2 O9 2.025441 1_455
Co2 O22 2.025441 1_554
Co2 O5 2.050214 1_455
Co2 O26 2.050214 1_545
Co3 O21 2.007882 1_555
Co3 O10 2.007882 1_455
Co3 O27 2.025441 1_555
Co3 O4 2.025441 1_545
Co3 O14 2.050219 1_455
Co3 O17 2.050219 1_545
C0 O2 1.287852 1_556
C0 O0 1.294266 1_655
C0 O14 1.297740 1_555
C1 O3 1.287848 1_555
C1 O10 1.294260 1_555
C1 O5 1.297758 1_555
C2 O4 1.287854 1_655
C2 O12 1.294260 1_556
C2 O23 1.297747 1_565
C3 O9 1.287858 1_565
C3 O13 1.294256 1_555
C3 O16 1.297747 1_655
C4 O22 1.287858 1_555
C4 O18 1.294256 1_555
C4 O15 1.297747 1_555
C5 O27 1.287854 1_555
C5 O19 1.294260 1_555
C5 O8 1.297747 1_555
C6 O28 1.287848 1_555
C6 O21 1.294260 1_565
C6 O26 1.297758 1_556
C7 O29 1.287852 1_555
C7 O31 1.294266 1_555
C7 O17 1.297740 1_555
O1 S0 1.494560 1_555
O6 S0 1.494560 1_555
O7 S0 1.494552 1_555
O11 S0 1.494560 1_555
O20 S1 1.494560 1_555
O24 S1 1.494552 1_555
O25 S1 1.494560 1_555
O30 S1 1.494560 1_555
