# generated using pymatgen
data_Na2FePCO7
_symmetry_space_group_name_H-M   'P 1'
_cell_length_a   8.39787049
_cell_length_b   8.46491210
_cell_length_c   8.91046485
_cell_angle_alpha   93.24238515
_cell_angle_beta   91.48884358
_cell_angle_gamma   77.95625570
_symmetry_Int_Tables_number   1
_chemical_formula_structural   Na2FePCO7
_chemical_formula_sum   'Na8 Fe4 P4 C4 O28'
_cell_volume   618.42094185
_cell_formula_units_Z   4
loop_
 _symmetry_equiv_pos_site_id
 _symmetry_equiv_pos_as_xyz
  1  'x, y, z'
loop_
 _atom_site_type_symbol
 _atom_site_label
 _atom_site_symmetry_multiplicity
 _atom_site_fract_x
 _atom_site_fract_y
 _atom_site_fract_z
 _atom_site_occupancy
  Na  Na0  1  0.52707000  0.75718800  0.08358100  1
  Na  Na1  1  0.02707500  0.25718700  0.08358300  1
  Na  Na2  1  0.47292400  0.24281300  0.91641600  1
  Na  Na3  1  0.97292800  0.74281200  0.91642000  1
  Na  Na4  1  0.13028700  0.87895000  0.26409900  1
  Na  Na5  1  0.63028900  0.37894300  0.26409800  1
  Na  Na6  1  0.86971000  0.12105500  0.73590100  1
  Na  Na7  1  0.36971500  0.62105100  0.73590200  1
  Fe  Fe0  1  0.25663700  0.47743200  0.34463500  1
  Fe  Fe1  1  0.24336300  0.02256900  0.65536200  1
  Fe  Fe2  1  0.75663400  0.97742900  0.34461200  1
  Fe  Fe3  1  0.74336600  0.52257100  0.65538700  1
  P  P0  1  0.48188100  0.75957600  0.42682900  1
  P  P1  1  0.98190000  0.25958000  0.42683400  1
  P  P2  1  0.51810000  0.24042000  0.57316600  1
  P  P3  1  0.01811900  0.74042300  0.57317100  1
  C  C0  1  0.73563700  0.02219700  0.06659700  1
  C  C1  1  0.23563600  0.52220200  0.06659500  1
  C  C2  1  0.26436400  0.97779800  0.93340500  1
  C  C3  1  0.76436200  0.47780300  0.93340400  1
  O  O0  1  0.26787500  0.94469500  0.07021300  1
  O  O1  1  0.76787300  0.44469500  0.07021300  1
  O  O2  1  0.73212700  0.05530500  0.92978700  1
  O  O3  1  0.23212500  0.55530500  0.92978700  1
  O  O4  1  0.83758700  0.89793200  0.12117000  1
  O  O5  1  0.33758700  0.39793600  0.12117100  1
  O  O6  1  0.16241300  0.10206400  0.87883000  1
  O  O7  1  0.66241400  0.60206800  0.87883100  1
  O  O8  1  0.63518600  0.10751600  0.16599400  1
  O  O9  1  0.13518500  0.60752200  0.16599400  1
  O  O10  1  0.36481500  0.89247800  0.83400600  1
  O  O11  1  0.86481400  0.39248300  0.83400600  1
  O  O12  1  0.42344100  0.63251100  0.31730500  1
  O  O13  1  0.92343900  0.13251000  0.31730100  1
  O  O14  1  0.57656100  0.36749100  0.68269800  1
  O  O15  1  0.07655900  0.86748900  0.68269600  1
  O  O16  1  0.60038200  0.83158900  0.33435000  1
  O  O17  1  0.10037800  0.33158900  0.33436000  1
  O  O18  1  0.39962300  0.16841100  0.66564100  1
  O  O19  1  0.89961700  0.66841100  0.66565000  1
  O  O20  1  0.43770900  0.31953900  0.43057800  1
  O  O21  1  0.93770600  0.81954000  0.43056700  1
  O  O22  1  0.56229400  0.68046100  0.56943400  1
  O  O23  1  0.06229000  0.18046100  0.56942200  1
  O  O24  1  0.33140400  0.89318100  0.47400900  1
  O  O25  1  0.83139800  0.39319200  0.47402100  1
  O  O26  1  0.66860200  0.10680800  0.52597900  1
  O  O27  1  0.16859600  0.60681800  0.52599100  1
loop_
_geom_bond_atom_site_label_1
_geom_bond_atom_site_label_2
_geom_bond_distance
_geom_bond_site_symmetry_2
Na0 O7 2.357642 1_554
Na0 O16 2.387399 1_555
Na0 O0 2.416107 1_555
Na0 O12 2.633337 1_555
Na0 O10 2.755545 1_554
Na1 O6 2.357653 1_554
Na1 O17 2.387444 1_555
Na1 O1 2.416157 1_455
Na1 O13 2.633318 1_455
Na1 O11 2.755597 1_454
Na2 O5 2.357664 1_556
Na2 O18 2.387423 1_555
Na2 O2 2.416164 1_555
Na2 O14 2.633326 1_555
Na2 O8 2.755611 1_556
Na3 O4 2.357632 1_556
Na3 O19 2.387404 1_555
Na3 O3 2.416120 1_655
Na3 O15 2.633344 1_655
Na3 O9 2.755544 1_656
Na4 O0 2.260590 1_555
Na4 O21 2.370048 1_455
Na4 O9 2.404186 1_555
Na4 O13 2.494158 1_465
Na4 O24 2.502143 1_555
Na4 O4 2.717623 1_455
Na4 O12 2.923240 1_555
Na5 O1 2.260587 1_555
Na5 O20 2.370092 1_555
Na5 O8 2.404177 1_555
Na5 O12 2.494213 1_555
Na5 O25 2.502205 1_555
Na5 O5 2.717620 1_555
Na5 O13 2.923185 1_555
Na6 O2 2.260583 1_555
Na6 O23 2.370093 1_655
Na6 O11 2.404189 1_555
Na6 O15 2.494202 1_645
Na6 O26 2.502191 1_555
Na6 O6 2.717637 1_655
Na6 O14 2.923193 1_555
Na7 O3 2.260596 1_555
Na7 O22 2.370036 1_555
Na7 O10 2.404172 1_555
Na7 O14 2.494152 1_555
Na7 O27 2.502163 1_555
Na7 O7 2.717615 1_555
Na7 O15 2.923247 1_555
Fe0 O27 1.970151 1_555
Fe0 O20 1.972868 1_555
Fe0 O17 1.977753 1_555
Fe0 O9 2.105200 1_555
Fe0 O12 2.136839 1_555
Fe0 O5 2.146528 1_555
Fe1 O24 1.970137 1_545
Fe1 O23 1.972858 1_555
Fe1 O18 1.977753 1_555
Fe1 O10 2.105225 1_545
Fe1 O15 2.136851 1_545
Fe1 O6 2.146559 1_555
Fe2 O26 1.970182 1_565
Fe2 O21 1.972893 1_555
Fe2 O16 1.977688 1_555
Fe2 O8 2.105018 1_565
Fe2 O13 2.136830 1_565
Fe2 O4 2.146357 1_555
Fe3 O25 1.970175 1_555
Fe3 O22 1.972891 1_555
Fe3 O19 1.977681 1_555
Fe3 O11 2.105029 1_555
Fe3 O14 2.136824 1_555
Fe3 O7 2.146371 1_555
C0 O2 1.264439 1_554
C0 O8 1.315239 1_555
C0 O4 1.317705 1_545
C1 O3 1.264409 1_554
C1 O9 1.315254 1_555
C1 O5 1.317726 1_555
C2 O0 1.264409 1_556
C2 O10 1.315254 1_555
C2 O6 1.317722 1_565
C3 O1 1.264429 1_556
C3 O11 1.315252 1_555
C3 O7 1.317697 1_555
O12 P0 1.557825 1_555
O13 P1 1.557980 1_555
O14 P2 1.557981 1_555
O15 P3 1.557837 1_555
O16 P0 1.547109 1_555
O17 P1 1.546922 1_455
O18 P2 1.546921 1_555
O19 P3 1.547111 1_655
O20 P2 1.543228 1_555
O21 P3 1.543401 1_655
O22 P0 1.543402 1_555
O23 P1 1.543225 1_455
O24 P0 1.558878 1_555
O25 P1 1.559065 1_555
O26 P2 1.559065 1_555
O27 P3 1.558878 1_555
