# generated using pymatgen
data_Li3MnV(PO4)3
_symmetry_space_group_name_H-M   'P 1'
_cell_length_a   10.28342120
_cell_length_b   10.28342120
_cell_length_c   10.28342120
_cell_angle_alpha   109.47122063
_cell_angle_beta   109.47122063
_cell_angle_gamma   109.47122063
_symmetry_Int_Tables_number   1
_chemical_formula_structural   Li3MnV(PO4)3
_chemical_formula_sum   'Li12 Mn4 V4 P12 O48'
_cell_volume   837.12629382
_cell_formula_units_Z   4
loop_
 _symmetry_equiv_pos_site_id
 _symmetry_equiv_pos_as_xyz
  1  'x, y, z'
loop_
 _atom_site_type_symbol
 _atom_site_label
 _atom_site_symmetry_multiplicity
 _atom_site_fract_x
 _atom_site_fract_y
 _atom_site_fract_z
 _atom_site_occupancy
  Li  Li0  1  0.25000000  0.87223300  0.62223300  1
  Li  Li1  1  0.12223300  0.25000000  0.37223300  1
  Li  Li2  1  0.12776700  0.37776700  0.75000000  1
  Li  Li3  1  0.62223300  0.25000000  0.87223300  1
  Li  Li4  1  0.37223300  0.12223300  0.25000000  1
  Li  Li5  1  0.25000000  0.37223300  0.12223300  1
  Li  Li6  1  0.75000000  0.62776700  0.87776700  1
  Li  Li7  1  0.62776700  0.87776700  0.75000000  1
  Li  Li8  1  0.37776700  0.75000000  0.12776700  1
  Li  Li9  1  0.87223300  0.62223300  0.25000000  1
  Li  Li10  1  0.87776700  0.75000000  0.62776700  1
  Li  Li11  1  0.75000000  0.12776700  0.37776700  1
  Mn  Mn0  1  0.00000000  0.50000000  0.50000000  1
  Mn  Mn1  1  0.00000000  0.00000000  0.00000000  1
  Mn  Mn2  1  0.50000000  0.50000000  0.00000000  1
  Mn  Mn3  1  0.50000000  0.00000000  0.50000000  1
  V  V0  1  0.00000000  0.00000000  0.50000000  1
  V  V1  1  0.00000000  0.50000000  0.00000000  1
  V  V2  1  0.50000000  0.00000000  0.00000000  1
  V  V3  1  0.50000000  0.50000000  0.50000000  1
  P  P0  1  0.12395500  0.87395500  0.25000000  1
  P  P1  1  0.12604500  0.75000000  0.87604500  1
  P  P2  1  0.37395500  0.25000000  0.62395500  1
  P  P3  1  0.25000000  0.12395500  0.87395500  1
  P  P4  1  0.25000000  0.62395500  0.37395500  1
  P  P5  1  0.37604500  0.62604500  0.75000000  1
  P  P6  1  0.62395500  0.37395500  0.25000000  1
  P  P7  1  0.75000000  0.87604500  0.12604500  1
  P  P8  1  0.75000000  0.37604500  0.62604500  1
  P  P9  1  0.62604500  0.75000000  0.37604500  1
  P  P10  1  0.87395500  0.25000000  0.12395500  1
  P  P11  1  0.87604500  0.12604500  0.75000000  1
  O  O0  1  0.10936200  0.61375200  0.39951700  1
  O  O1  1  0.11375200  0.00439000  0.21423500  1
  O  O2  1  0.00439000  0.21423500  0.11375200  1
  O  O3  1  0.08256500  0.88004200  0.38758500  1
  O  O4  1  0.10048300  0.71423500  0.70984500  1
  O  O5  1  0.11241500  0.99245700  0.69498000  1
  O  O6  1  0.19498000  0.20252300  0.58256500  1
  O  O7  1  0.39951700  0.10936200  0.61375200  1
  O  O8  1  0.38004200  0.29747700  0.49245700  1
  O  O9  1  0.29747700  0.49245700  0.38004200  1
  O  O10  1  0.30502000  0.88758500  0.00754300  1
  O  O11  1  0.00754300  0.30502000  0.88758500  1
  O  O12  1  0.20984500  0.49561000  0.60936200  1
  O  O13  1  0.21423500  0.11375200  0.00439000  1
  O  O14  1  0.38758500  0.08256500  0.88004200  1
  O  O15  1  0.28576500  0.29015500  0.89951700  1
  O  O16  1  0.29015500  0.89951700  0.28576500  1
  O  O17  1  0.11995800  0.61241500  0.91743500  1
  O  O18  1  0.50439000  0.39063800  0.79015500  1
  O  O19  1  0.39063800  0.79015500  0.50439000  1
  O  O20  1  0.50754300  0.61995800  0.70252300  1
  O  O21  1  0.38624800  0.60048300  0.89063800  1
  O  O22  1  0.58256500  0.19498000  0.20252300  1
  O  O23  1  0.20252300  0.58256500  0.19498000  1
  O  O24  1  0.79747700  0.41743500  0.80502000  1
  O  O25  1  0.41743500  0.80502000  0.79747700  1
  O  O26  1  0.61375200  0.39951700  0.10936200  1
  O  O27  1  0.49245700  0.38004200  0.29747700  1
  O  O28  1  0.60936200  0.20984500  0.49561000  1
  O  O29  1  0.49561000  0.60936200  0.20984500  1
  O  O30  1  0.88004200  0.38758500  0.08256500  1
  O  O31  1  0.70984500  0.10048300  0.71423500  1
  O  O32  1  0.71423500  0.70984500  0.10048300  1
  O  O33  1  0.61241500  0.91743500  0.11995800  1
  O  O34  1  0.78576500  0.88624800  0.99561000  1
  O  O35  1  0.79015500  0.50439000  0.39063800  1
  O  O36  1  0.99245700  0.69498000  0.11241500  1
  O  O37  1  0.69498000  0.11241500  0.99245700  1
  O  O38  1  0.70252300  0.50754300  0.61995800  1
  O  O39  1  0.61995800  0.70252300  0.50754300  1
  O  O40  1  0.60048300  0.89063800  0.38624800  1
  O  O41  1  0.80502000  0.79747700  0.41743500  1
  O  O42  1  0.88758500  0.00754300  0.30502000  1
  O  O43  1  0.89951700  0.28576500  0.29015500  1
  O  O44  1  0.91743500  0.11995800  0.61241500  1
  O  O45  1  0.99561000  0.78576500  0.88624800  1
  O  O46  1  0.88624800  0.99561000  0.78576500  1
  O  O47  1  0.89063800  0.38624800  0.60048300  1
loop_
_geom_bond_atom_site_label_1
_geom_bond_atom_site_label_2
_geom_bond_distance
_geom_bond_site_symmetry_2
Li0 O14 2.311938 1_565
Li0 O5 2.311938 1_555
Li0 O19 2.360688 1_555
Li0 O0 2.360688 1_555
Li0 O4 2.459587 1_555
Li0 O7 2.459587 1_565
Li0 O25 2.499024 1_555
Li0 O3 2.499024 1_555
Li1 O8 2.311938 1_555
Li1 O6 2.311938 1_555
Li1 O2 2.360688 1_555
Li1 O43 2.360688 1_455
Li1 O1 2.459587 1_555
Li1 O12 2.459587 1_555
Li1 O9 2.499024 1_555
Li1 O42 2.499024 1_455
Li2 O11 2.311938 1_555
Li2 O44 2.311938 1_455
Li2 O21 2.360688 1_555
Li2 O12 2.360688 1_555
Li2 O47 2.459587 1_455
Li2 O15 2.459587 1_555
Li2 O6 2.499024 1_555
Li2 O17 2.499024 1_555
Li3 O30 2.311938 1_556
Li3 O37 2.311938 1_555
Li3 O18 2.360688 1_555
Li3 O7 2.360688 1_555
Li3 O31 2.459587 1_555
Li3 O26 2.459587 1_556
Li3 O14 2.499024 1_555
Li3 O24 2.499024 1_555
Li4 O27 2.311938 1_555
Li4 O22 2.311938 1_555
Li4 O16 2.360688 1_545
Li4 O1 2.360688 1_555
Li4 O13 2.459587 1_555
Li4 O28 2.459587 1_555
Li4 O8 2.499024 1_555
Li4 O10 2.499024 1_545
Li5 O9 2.311938 1_555
Li5 O23 2.311938 1_555
Li5 O13 2.360688 1_555
Li5 O15 2.360688 1_554
Li5 O29 2.459587 1_555
Li5 O2 2.459587 1_555
Li5 O27 2.499024 1_555
Li5 O11 2.499024 1_554
Li6 O24 2.311938 1_555
Li6 O38 2.311938 1_555
Li6 O34 2.360688 1_555
Li6 O32 2.360688 1_556
Li6 O45 2.459587 1_555
Li6 O18 2.459587 1_555
Li6 O36 2.499024 1_556
Li6 O20 2.499024 1_555
Li7 O25 2.311938 1_555
Li7 O20 2.311938 1_555
Li7 O46 2.360688 1_555
Li7 O31 2.360688 1_565
Li7 O34 2.459587 1_555
Li7 O19 2.459587 1_555
Li7 O37 2.499024 1_565
Li7 O39 2.499024 1_555
Li8 O10 2.311938 1_555
Li8 O17 2.311938 1_554
Li8 O40 2.360688 1_555
Li8 O29 2.360688 1_555
Li8 O21 2.459587 1_554
Li8 O16 2.459587 1_555
Li8 O23 2.499024 1_555
Li8 O33 2.499024 1_555
Li9 O3 2.311938 1_655
Li9 O36 2.311938 1_555
Li9 O35 2.360688 1_555
Li9 O26 2.360688 1_555
Li9 O32 2.459587 1_555
Li9 O0 2.459587 1_655
Li9 O30 2.499024 1_555
Li9 O41 2.499024 1_555
Li10 O41 2.311938 1_555
Li10 O39 2.311938 1_555
Li10 O45 2.360688 1_555
Li10 O4 2.360688 1_655
Li10 O46 2.459587 1_555
Li10 O35 2.459587 1_555
Li10 O5 2.499024 1_655
Li10 O38 2.499024 1_555
Li11 O42 2.311938 1_555
Li11 O33 2.311938 1_545
Li11 O47 2.360688 1_555
Li11 O28 2.360688 1_555
Li11 O40 2.459587 1_545
Li11 O43 2.459587 1_555
Li11 O44 2.499024 1_555
Li11 O22 2.499024 1_555
Mn0 O4 2.098651 1_555
Mn0 O47 2.098651 1_455
Mn0 O35 2.098651 1_455
Mn0 O0 2.098651 1_555
Mn0 O12 2.098651 1_555
Mn0 O43 2.098651 1_455
Mn1 O45 2.098651 1_444
Mn1 O46 2.098651 1_444
Mn1 O34 2.098651 1_444
Mn1 O13 2.098651 1_555
Mn1 O1 2.098651 1_555
Mn1 O2 2.098651 1_555
Mn2 O26 2.098651 1_555
Mn2 O32 2.098651 1_555
Mn2 O21 2.098651 1_554
Mn2 O18 2.098651 1_554
Mn2 O15 2.098651 1_554
Mn2 O29 2.098651 1_555
Mn3 O7 2.098651 1_555
Mn3 O40 2.098651 1_545
Mn3 O19 2.098651 1_545
Mn3 O31 2.098651 1_555
Mn3 O16 2.098651 1_545
Mn3 O28 2.098651 1_555
O0 P4 1.530485 1_555
O1 P0 1.530485 1_545
O2 P10 1.530485 1_455
O3 P0 1.595949 1_555
O3 V0 1.995211 1_565
O4 P1 1.530485 1_555
O5 P3 1.595949 1_565
O5 V0 1.995211 1_565
O6 P2 1.595949 1_555
O6 V0 1.995211 1_555
O7 P2 1.530485 1_555
O8 P2 1.595949 1_555
O8 V3 1.995211 1_555
O9 P4 1.595949 1_555
O9 V3 1.995211 1_555
O10 P1 1.595949 1_554
O10 V2 1.995211 1_565
O11 P11 1.595949 1_455
O11 V1 1.995211 1_556
O12 P5 1.530485 1_555
O13 P3 1.530485 1_554
O14 P3 1.595949 1_555
O14 V2 1.995211 1_556
O15 P3 1.530485 1_555
O16 P0 1.530485 1_555
O17 P1 1.595949 1_555
O17 V1 1.995211 1_556
O18 P2 1.530485 1_555
O19 P4 1.530485 1_555
O20 P5 1.595949 1_555
O20 V3 1.995211 1_555
O21 P5 1.530485 1_555
O22 P6 1.595949 1_555
O22 V2 1.995211 1_555
O23 P4 1.595949 1_555
O23 V1 1.995211 1_555
O24 P8 1.595949 1_555
O24 V1 1.995211 1_656
O25 P5 1.595949 1_555
O25 V2 1.995211 1_566
O26 P6 1.530485 1_555
O27 P6 1.595949 1_555
O27 V3 1.995211 1_555
O28 P8 1.530485 1_555
O29 P9 1.530485 1_555
O30 P10 1.595949 1_555
O30 V1 1.995211 1_655
O31 P11 1.530485 1_555
O32 P7 1.530485 1_555
O33 P7 1.595949 1_555
O33 V2 1.995211 1_565
O34 P7 1.530485 1_556
O35 P6 1.530485 1_555
O36 P0 1.595949 1_655
O36 V1 1.995211 1_655
O37 P10 1.595949 1_556
O37 V2 1.995211 1_556
O38 P8 1.595949 1_555
O38 V3 1.995211 1_555
O39 P9 1.595949 1_555
O39 V3 1.995211 1_555
O40 P9 1.530485 1_555
O41 P9 1.595949 1_555
O41 V0 1.995211 1_665
O42 P7 1.595949 1_545
O42 V0 1.995211 1_655
O43 P10 1.530485 1_555
O44 P11 1.595949 1_555
O44 V0 1.995211 1_655
O45 P1 1.530485 1_655
O46 P11 1.530485 1_565
O47 P8 1.530485 1_555
