# generated using pymatgen
data_Li2Ti3O6
_symmetry_space_group_name_H-M   'P 1'
_cell_length_a   9.58952773
_cell_length_b   9.02317543
_cell_length_c   5.18007067
_cell_angle_alpha   79.96333122
_cell_angle_beta   67.90185076
_cell_angle_gamma   32.13481802
_symmetry_Int_Tables_number   1
_chemical_formula_structural   Li2Ti3O6
_chemical_formula_sum   'Li4 Ti6 O12'
_cell_volume   211.22258242
_cell_formula_units_Z   2
loop_
 _symmetry_equiv_pos_site_id
 _symmetry_equiv_pos_as_xyz
  1  'x, y, z'
loop_
 _atom_site_type_symbol
 _atom_site_label
 _atom_site_symmetry_multiplicity
 _atom_site_fract_x
 _atom_site_fract_y
 _atom_site_fract_z
 _atom_site_occupancy
  Li  Li0  1  0.83099900  0.83099900  0.16900100  1
  Li  Li1  1  0.08099900  0.08099900  0.41900100  1
  Li  Li2  1  0.16900100  0.16900100  0.83099900  1
  Li  Li3  1  0.41900100  0.41900100  0.08099900  1
  Ti  Ti0  1  0.25000000  0.25000000  0.25000000  1
  Ti  Ti1  1  0.33510300  0.33510300  0.66489700  1
  Ti  Ti2  1  0.66489700  0.66489700  0.33510300  1
  Ti  Ti3  1  0.58510300  0.58510300  0.91489700  1
  Ti  Ti4  1  0.00000000  0.00000000  0.00000000  1
  Ti  Ti5  1  0.91489700  0.91489700  0.58510300  1
  O  O0  1  0.10103400  0.57051400  0.41717100  1
  O  O1  1  0.57051400  0.10103400  0.91128100  1
  O  O2  1  0.48637800  0.01362200  0.48637800  1
  O  O3  1  0.91128100  0.41717100  0.57051400  1
  O  O4  1  0.01362200  0.48637800  0.01362200  1
  O  O5  1  0.33871900  0.83282900  0.67948600  1
  O  O6  1  0.76362200  0.23637800  0.76362200  1
  O  O7  1  0.41717100  0.91128100  0.10103400  1
  O  O8  1  0.83282900  0.33871900  0.14896600  1
  O  O9  1  0.14896600  0.67948600  0.83282900  1
  O  O10  1  0.23637800  0.76362200  0.23637800  1
  O  O11  1  0.67948600  0.14896600  0.33871900  1
loop_
_geom_bond_atom_site_label_1
_geom_bond_atom_site_label_2
_geom_bond_distance
_geom_bond_site_symmetry_2
Li0 O2 1.993299 1_565
Li0 O4 1.993299 1_655
Li0 O11 1.993420 1_565
Li0 O9 1.993420 1_654
Li0 O0 2.241902 1_655
Li0 O1 2.241902 1_564
Li1 O10 1.993299 1_545
Li1 O6 1.993299 1_455
Li1 O7 1.993420 1_545
Li1 O3 1.993420 1_455
Li1 O5 2.241902 1_545
Li1 O8 2.241902 1_455
Li2 O4 1.993299 1_556
Li2 O2 1.993299 1_555
Li2 O8 1.993420 1_456
Li2 O5 1.993420 1_545
Li2 O3 2.241902 1_455
Li2 O7 2.241902 1_546
Li3 O10 1.993299 1_555
Li3 O6 1.993299 1_554
Li3 O0 1.993420 1_555
Li3 O1 1.993420 1_554
Li3 O9 2.241902 1_554
Li3 O11 2.241902 1_555
O0 Ti5 1.994762 1_455
O0 Ti0 2.024816 1_555
O0 Ti1 2.083067 1_555
O1 Ti5 1.994762 1_545
O1 Ti0 2.024816 1_556
O1 Ti1 2.083067 1_555
O2 Ti1 2.042800 1_555
O2 Ti2 2.042800 1_545
O2 Ti0 2.043665 1_555
O3 Ti3 1.994762 1_555
O3 Ti0 2.024816 1_655
O3 Ti2 2.083067 1_555
O4 Ti1 2.042800 1_554
O4 Ti2 2.042800 1_455
O4 Ti0 2.043665 1_555
O5 Ti2 1.994762 1_555
O5 Ti4 2.024816 1_566
O5 Ti3 2.083067 1_555
O6 Ti5 2.042800 1_545
O6 Ti3 2.042800 1_555
O6 Ti4 2.043665 1_656
O7 Ti3 1.994762 1_554
O7 Ti0 2.024816 1_565
O7 Ti2 2.083067 1_555
O8 Ti2 1.994762 1_555
O8 Ti4 2.024816 1_655
O8 Ti3 2.083067 1_554
O9 Ti1 1.994762 1_555
O9 Ti4 2.024816 1_566
O9 Ti5 2.083067 1_455
O10 Ti5 2.042800 1_455
O10 Ti3 2.042800 1_554
O10 Ti4 2.043665 1_565
O11 Ti1 1.994762 1_555
O11 Ti4 2.024816 1_655
O11 Ti5 2.083067 1_545
