# generated using pymatgen
data_ZnMo(NO2)4
_symmetry_space_group_name_H-M   'P 1'
_cell_length_a   7.05344337
_cell_length_b   7.05344337
_cell_length_c   7.05344337
_cell_angle_alpha   104.08391392
_cell_angle_beta   104.08391392
_cell_angle_gamma   120.88486615
_symmetry_Int_Tables_number   1
_chemical_formula_structural   ZnMo(NO2)4
_chemical_formula_sum   'Zn1 Mo1 N4 O8'
_cell_volume   261.96419562
_cell_formula_units_Z   1
loop_
 _symmetry_equiv_pos_site_id
 _symmetry_equiv_pos_as_xyz
  1  'x, y, z'
loop_
 _atom_site_type_symbol
 _atom_site_label
 _atom_site_symmetry_multiplicity
 _atom_site_fract_x
 _atom_site_fract_y
 _atom_site_fract_z
 _atom_site_occupancy
  Zn  Zn0  1  0.75000000  0.25000000  0.50000000  1
  Mo  Mo0  1  0.00000000  0.00000000  0.00000000  1
  N  N0  1  0.52215900  0.25986700  0.62243400  1
  N  N1  1  0.63743300  0.89972500  0.37756600  1
  N  N2  1  0.74013300  0.36256700  0.26229200  1
  N  N3  1  0.10027500  0.47784100  0.73770800  1
  O  O0  1  0.92262600  0.79627800  0.69663600  1
  O  O1  1  0.09964200  0.22599100  0.30336400  1
  O  O2  1  0.20372200  0.90035800  0.12634800  1
  O  O3  1  0.77400900  0.07737400  0.87365200  1
  O  O4  1  0.14105000  0.04147100  0.78729700  1
  O  O5  1  0.25417500  0.35375400  0.21270300  1
  O  O6  1  0.95852900  0.74582500  0.09957900  1
  O  O7  1  0.64624600  0.85895000  0.90042100  1
loop_
_geom_bond_atom_site_label_1
_geom_bond_atom_site_label_2
_geom_bond_distance
_geom_bond_site_symmetry_2
Mo0 O4 1.991855 1_554
Mo0 O5 1.991859 1_555
Mo0 O7 1.991861 1_444
Mo0 O6 1.991861 1_445
Mo0 O2 2.017763 1_545
Mo0 O0 2.017763 1_444
Mo0 O1 2.017765 1_555
Mo0 O3 2.017768 1_454
N0 Zn0 2.023433 1_555
N1 Zn0 2.023433 1_565
N2 Zn0 2.023433 1_555
N3 Zn0 2.023433 1_455
O0 O4 1.421396 1_665
O1 O5 1.421400 1_555
O2 O6 1.421397 1_455
O3 O7 1.421396 1_545
