# generated using pymatgen
data_Li4Mn3Cr3(FeO8)2
_symmetry_space_group_name_H-M   'P 1'
_cell_length_a   5.86174100
_cell_length_b   5.86671070
_cell_length_c   9.51301648
_cell_angle_alpha   90.21955144
_cell_angle_beta   90.29096670
_cell_angle_gamma   119.94580182
_symmetry_Int_Tables_number   1
_chemical_formula_structural   Li4Mn3Cr3(FeO8)2
_chemical_formula_sum   'Li4 Mn3 Cr3 Fe2 O16'
_cell_volume   283.45869258
_cell_formula_units_Z   1
loop_
 _symmetry_equiv_pos_site_id
 _symmetry_equiv_pos_as_xyz
  1  'x, y, z'
loop_
 _atom_site_type_symbol
 _atom_site_label
 _atom_site_symmetry_multiplicity
 _atom_site_fract_x
 _atom_site_fract_y
 _atom_site_fract_z
 _atom_site_occupancy
  Li  Li0  1  0.67039500  0.34173300  0.10721600  1
  Li  Li1  1  0.99769200  0.99381800  0.00274600  1
  Li  Li2  1  0.99817100  0.99777300  0.50367300  1
  Li  Li3  1  0.33848100  0.67084400  0.60714600  1
  Mn  Mn0  1  0.83213600  0.65997900  0.78434400  1
  Mn  Mn1  1  0.66149300  0.83145500  0.28509200  1
  Mn  Mn2  1  0.16891900  0.83130400  0.28519100  1
  Cr  Cr0  1  0.83052100  0.16595500  0.78767900  1
  Cr  Cr1  1  0.33895500  0.16916100  0.78584400  1
  Cr  Cr2  1  0.16877700  0.33866500  0.28591200  1
  Fe  Fe0  1  0.66167600  0.32524700  0.50902500  1
  Fe  Fe1  1  0.32609500  0.66311100  0.01024300  1
  O  O0  1  0.83153400  0.15529400  0.39996100  1
  O  O1  1  0.52941700  0.03878900  0.66549600  1
  O  O2  1  0.67515500  0.34471000  0.89407700  1
  O  O3  1  0.99310300  0.98935800  0.68923600  1
  O  O4  1  0.99411900  0.99069600  0.18968000  1
  O  O5  1  0.32274600  0.15405100  0.40038900  1
  O  O6  1  0.96420000  0.48062600  0.66634400  1
  O  O7  1  0.52678000  0.48678800  0.66091400  1
  O  O8  1  0.15135000  0.32300200  0.89852300  1
  O  O9  1  0.83851700  0.67572800  0.39556000  1
  O  O10  1  0.48814100  0.52795200  0.16239900  1
  O  O11  1  0.03770800  0.52768500  0.16329500  1
  O  O12  1  0.33956400  0.67871100  0.39146300  1
  O  O13  1  0.67498000  0.84046600  0.89517600  1
  O  O14  1  0.48195800  0.96560600  0.16583500  1
  O  O15  1  0.15771900  0.83148900  0.89970200  1
loop_
_geom_bond_atom_site_label_1
_geom_bond_atom_site_label_2
_geom_bond_distance
_geom_bond_site_symmetry_2
Li0 O11 1.936334 1_655
Li0 O10 1.943442 1_555
Li0 O14 1.995634 1_545
Li0 O2 2.027951 1_554
Li1 O4 1.778593 1_555
Li1 O15 1.908354 1_654
Li1 O13 1.925914 1_554
Li1 O8 1.952194 1_664
Li2 O3 1.766129 1_555
Li2 O0 1.918313 1_565
Li2 O5 1.926180 1_665
Li2 O9 1.926992 1_555
Li3 O1 1.947545 1_565
Li3 O7 1.958131 1_555
Li3 O6 1.987184 1_455
Li3 O12 2.052463 1_555
Mn0 O3 1.909113 1_555
Mn0 O2 1.919067 1_555
Mn0 O7 1.941324 1_555
Mn0 O6 1.944091 1_555
Mn0 O15 1.977912 1_655
Mn0 O13 2.014103 1_555
Mn1 O4 1.924616 1_555
Mn1 O12 1.930307 1_555
Mn1 O10 1.931567 1_555
Mn1 O14 1.958474 1_555
Mn1 O0 1.969658 1_565
Mn1 O9 1.989607 1_555
Mn2 O4 1.924441 1_455
Mn2 O12 1.927353 1_555
Mn2 O11 1.927800 1_555
Mn2 O14 1.965115 1_555
Mn2 O5 1.966912 1_565
Mn2 O9 1.987351 1_455
Cr0 O1 1.918516 1_555
Cr0 O8 1.933918 1_655
Cr0 O13 1.951840 1_545
Cr0 O3 1.961124 1_545
Cr0 O2 1.976966 1_555
Cr0 O6 1.983853 1_555
Cr1 O3 1.976339 1_445
Cr1 O2 1.987333 1_555
Cr1 O1 2.000239 1_555
Cr1 O7 2.019649 1_555
Cr1 O15 2.037955 1_545
Cr1 O8 2.041655 1_555
Cr2 O4 1.985760 1_445
Cr2 O12 1.992695 1_555
Cr2 O11 2.007986 1_555
Cr2 O10 2.018698 1_555
Cr2 O5 2.036796 1_555
Cr2 O0 2.037120 1_455
Fe0 O5 2.000726 1_555
Fe0 O0 2.013859 1_555
Fe0 O7 2.088175 1_555
Fe0 O9 2.089954 1_555
Fe0 O1 2.090729 1_555
Fe0 O6 2.136375 1_555
Fe1 O15 2.006619 1_554
Fe1 O8 2.022934 1_554
Fe1 O11 2.074066 1_555
Fe1 O13 2.090513 1_554
Fe1 O10 2.091158 1_555
Fe1 O14 2.126585 1_555
