# generated using pymatgen
data_Li5Fe5(SbO6)2
_symmetry_space_group_name_H-M   'P 1'
_cell_length_a   5.35545878
_cell_length_b   5.35545878
_cell_length_c   10.26561375
_cell_angle_alpha   84.24270518
_cell_angle_beta   84.24270518
_cell_angle_gamma   119.75488517
_symmetry_Int_Tables_number   1
_chemical_formula_structural   Li5Fe5(SbO6)2
_chemical_formula_sum   'Li5 Fe5 Sb2 O12'
_cell_volume   250.45051408
_cell_formula_units_Z   1
loop_
 _symmetry_equiv_pos_site_id
 _symmetry_equiv_pos_as_xyz
  1  'x, y, z'
loop_
 _atom_site_type_symbol
 _atom_site_label
 _atom_site_symmetry_multiplicity
 _atom_site_fract_x
 _atom_site_fract_y
 _atom_site_fract_z
 _atom_site_occupancy
  Li  Li0  1  0.84196600  0.67473200  0.25626400  1
  Li  Li1  1  0.67146600  0.83027700  0.74458600  1
  Li  Li2  1  0.32526800  0.15803400  0.74373600  1
  Li  Li3  1  0.16972300  0.32853400  0.25541400  1
  Li  Li4  1  0.08147200  0.91852800  0.50000000  1
  Fe  Fe0  1  0.91760600  0.08239400  0.00000000  1
  Fe  Fe1  1  0.99441300  0.49728500  0.74641700  1
  Fe  Fe2  1  0.50271500  0.00558700  0.25358300  1
  Fe  Fe3  1  0.58265000  0.41735000  0.00000000  1
  Fe  Fe4  1  0.41430600  0.58569400  0.50000000  1
  Sb  Sb0  1  0.75028900  0.24971100  0.50000000  1
  Sb  Sb1  1  0.24927100  0.75072900  0.00000000  1
  O  O0  1  0.01668900  0.20944500  0.61602500  1
  O  O1  1  0.79055500  0.98331100  0.38397500  1
  O  O2  1  0.88594100  0.38541000  0.12237800  1
  O  O3  1  0.61459000  0.11405900  0.87762200  1
  O  O4  1  0.70781500  0.51390700  0.61788800  1
  O  O5  1  0.48609300  0.29218500  0.38211200  1
  O  O6  1  0.54607600  0.73174800  0.12528000  1
  O  O7  1  0.26825200  0.45392400  0.87472000  1
  O  O8  1  0.39903500  0.89180300  0.61503400  1
  O  O9  1  0.10819700  0.60096500  0.38496600  1
  O  O10  1  0.22612800  0.05051600  0.12263900  1
  O  O11  1  0.94948400  0.77387200  0.87736100  1
loop_
_geom_bond_atom_site_label_1
_geom_bond_atom_site_label_2
_geom_bond_distance
_geom_bond_site_symmetry_2
Li0 O5 2.144286 1_555
Li0 O9 2.183308 1_655
Li0 O10 2.221434 1_665
Li0 O2 2.251626 1_555
Li0 O6 2.288602 1_555
Li0 O1 2.310742 1_555
Li1 O0 2.128313 1_665
Li1 O8 2.187348 1_555
Li1 O11 2.221916 1_555
Li1 O3 2.249465 1_565
Li1 O7 2.251890 1_555
Li1 O4 2.306277 1_555
Li2 O4 2.144286 1_555
Li2 O8 2.183308 1_545
Li2 O11 2.221434 1_445
Li2 O3 2.251626 1_555
Li2 O7 2.288602 1_555
Li2 O0 2.310742 1_555
Li3 O1 2.128313 1_445
Li3 O9 2.187348 1_555
Li3 O10 2.221916 1_555
Li3 O2 2.249465 1_455
Li3 O6 2.251890 1_555
Li3 O5 2.306277 1_555
Li4 O0 2.189127 1_565
Li4 O1 2.189127 1_455
Li4 O5 2.201929 1_565
Li4 O4 2.201929 1_455
Li4 O8 2.217654 1_555
Li4 O9 2.217654 1_555
Fe0 O6 2.105401 1_545
Fe0 O7 2.105401 1_654
Fe0 O3 2.209047 1_554
Fe0 O2 2.209047 1_555
Fe0 O11 2.235702 1_544
Fe0 O10 2.235702 1_655
Fe1 O7 2.145605 1_655
Fe1 O4 2.150112 1_555
Fe1 O0 2.178693 1_655
Fe1 O11 2.178826 1_555
Fe1 O3 2.217184 1_555
Fe1 O8 2.297006 1_655
Fe2 O6 2.145605 1_545
Fe2 O5 2.150112 1_555
Fe2 O1 2.178693 1_545
Fe2 O10 2.178826 1_555
Fe2 O2 2.217184 1_555
Fe2 O9 2.297006 1_545
Fe3 O10 2.094850 1_555
Fe3 O11 2.094850 1_554
Fe3 O2 2.210835 1_555
Fe3 O3 2.210835 1_554
Fe3 O7 2.288802 1_554
Fe3 O6 2.288802 1_555
Fe4 O9 2.142611 1_555
Fe4 O8 2.142611 1_555
Fe4 O0 2.182651 1_555
Fe4 O1 2.182651 1_555
Fe4 O5 2.229640 1_555
Fe4 O4 2.229640 1_555
O0 Sb0 2.023702 1_455
O1 Sb0 2.023702 1_565
O2 Sb1 2.104736 1_655
O3 Sb1 2.104736 1_546
O4 Sb0 2.031252 1_555
O5 Sb0 2.031252 1_555
O6 Sb1 2.176054 1_555
O7 Sb1 2.176054 1_556
O8 Sb0 2.031846 1_565
O9 Sb0 2.031846 1_455
O10 Sb1 2.179382 1_545
O11 Sb1 2.179382 1_656
