# generated using pymatgen
data_La5Ta22O62
_symmetry_space_group_name_H-M   'P 1'
_cell_length_a   12.97897467
_cell_length_b   12.97897467
_cell_length_c   12.37672758
_cell_angle_alpha   88.24330077
_cell_angle_beta   88.24330077
_cell_angle_gamma   35.03568974
_symmetry_Int_Tables_number   1
_chemical_formula_structural   La5Ta22O62
_chemical_formula_sum   'La5 Ta22 O62'
_cell_volume   1196.29829436
_cell_formula_units_Z   1
loop_
 _symmetry_equiv_pos_site_id
 _symmetry_equiv_pos_as_xyz
  1  'x, y, z'
loop_
 _atom_site_type_symbol
 _atom_site_label
 _atom_site_symmetry_multiplicity
 _atom_site_fract_x
 _atom_site_fract_y
 _atom_site_fract_z
 _atom_site_occupancy
  La  La0  1  0.16511300  0.16511300  0.16984500  1
  La  La1  1  0.50485700  0.50485700  0.49033800  1
  La  La2  1  0.00431500  0.00431500  0.49137700  1
  La  La3  1  0.83206500  0.83206500  0.83580600  1
  La  La4  1  0.33236500  0.33236500  0.83528700  1
  Ta  Ta0  1  0.78752100  0.29261200  0.21297300  1
  Ta  Ta1  1  0.29261200  0.78752100  0.21297300  1
  Ta  Ta2  1  0.89100300  0.39609000  0.41985800  1
  Ta  Ta3  1  0.39609000  0.89100300  0.41985800  1
  Ta  Ta4  1  0.15006200  0.64980100  0.06786500  1
  Ta  Ta5  1  0.46581200  0.96626300  0.70017500  1
  Ta  Ta6  1  0.96626300  0.46581200  0.70017500  1
  Ta  Ta7  1  0.64980100  0.15006200  0.06786500  1
  Ta  Ta8  1  0.16639000  0.66660000  0.33165000  1
  Ta  Ta9  1  0.33392700  0.83442000  0.66697100  1
  Ta  Ta10  1  0.83442000  0.33392700  0.66697100  1
  Ta  Ta11  1  0.66660000  0.16639000  0.33165000  1
  Ta  Ta12  1  0.53507200  0.03271200  0.29796000  1
  Ta  Ta13  1  0.03271200  0.53507200  0.29796000  1
  Ta  Ta14  1  0.84982600  0.35219700  0.93226900  1
  Ta  Ta15  1  0.35219700  0.84982600  0.93226900  1
  Ta  Ta16  1  0.60738800  0.10752900  0.57528500  1
  Ta  Ta17  1  0.10752900  0.60738800  0.57528500  1
  Ta  Ta18  1  0.21233300  0.71244700  0.78505400  1
  Ta  Ta19  1  0.71244700  0.21233300  0.78505400  1
  Ta  Ta20  1  0.99658500  0.50050400  0.00292000  1
  Ta  Ta21  1  0.50050400  0.99658500  0.00292000  1
  O  O0  1  0.00804800  0.48230500  0.15941400  1
  O  O1  1  0.40759900  0.93294700  0.00965200  1
  O  O2  1  0.48230500  0.00804800  0.15941400  1
  O  O3  1  0.93294700  0.40759900  0.00965200  1
  O  O4  1  0.80492900  0.30639600  0.06080600  1
  O  O5  1  0.96884800  0.47038200  0.38863600  1
  O  O6  1  0.30639600  0.80492900  0.06080600  1
  O  O7  1  0.47038200  0.96884800  0.38863600  1
  O  O8  1  0.35587200  0.87630100  0.26781600  1
  O  O9  1  0.87630100  0.35587200  0.26781600  1
  O  O10  1  0.54218500  0.54218500  0.22792200  1
  O  O11  1  0.14052200  0.14052200  0.40854200  1
  O  O12  1  0.63604000  0.63604000  0.41555100  1
  O  O13  1  0.04565700  0.04565700  0.21903700  1
  O  O14  1  0.70835900  0.20734700  0.17903700  1
  O  O15  1  0.91094400  0.41009500  0.58427300  1
  O  O16  1  0.20734700  0.70835900  0.17903700  1
  O  O17  1  0.41009500  0.91094400  0.58427300  1
  O  O18  1  0.71874200  0.71874200  0.71007800  1
  O  O19  1  0.39532800  0.39532800  0.06271700  1
  O  O20  1  0.89489000  0.89489000  0.06246600  1
  O  O21  1  0.21869300  0.21869300  0.70944400  1
  O  O22  1  0.24680400  0.75209100  0.35715600  1
  O  O23  1  0.75209100  0.24680400  0.35715600  1
  O  O24  1  0.31882900  0.82409100  0.50113000  1
  O  O25  1  0.82409100  0.31882900  0.50113000  1
  O  O26  1  0.89254300  0.39098600  0.78269800  1
  O  O27  1  0.60781200  0.10948100  0.21649600  1
  O  O28  1  0.10948100  0.60781200  0.21649600  1
  O  O29  1  0.92192900  0.92192900  0.34273700  1
  O  O30  1  0.57860500  0.57860500  0.65532900  1
  O  O31  1  0.39098600  0.89254300  0.78269800  1
  O  O32  1  0.42244300  0.42244300  0.34275500  1
  O  O33  1  0.07860800  0.07860800  0.65602000  1
  O  O34  1  0.67855300  0.17922600  0.49826700  1
  O  O35  1  0.17922600  0.67855300  0.49826700  1
  O  O36  1  0.75055600  0.25111400  0.64215400  1
  O  O37  1  0.25111400  0.75055600  0.64215400  1
  O  O38  1  0.10230600  0.10230600  0.93540500  1
  O  O39  1  0.60352800  0.60352800  0.93009900  1
  O  O40  1  0.28227600  0.28227600  0.29536100  1
  O  O41  1  0.78491500  0.78491500  0.29277600  1
  O  O42  1  0.79243000  0.29124200  0.82008000  1
  O  O43  1  0.09054200  0.58930100  0.41633600  1
  O  O44  1  0.58930100  0.09054200  0.41633600  1
  O  O45  1  0.29124200  0.79243000  0.82008000  1
  O  O46  1  0.95146600  0.95146600  0.78040800  1
  O  O47  1  0.85983000  0.85983000  0.59698900  1
  O  O48  1  0.35977600  0.35977600  0.59729800  1
  O  O49  1  0.45145200  0.45145200  0.78056400  1
  O  O50  1  0.62999000  0.13019600  0.73983300  1
  O  O51  1  0.13019600  0.62999000  0.73983300  1
  O  O52  1  0.53109000  0.03091300  0.61142400  1
  O  O53  1  0.19437000  0.69428200  0.93804600  1
  O  O54  1  0.03091300  0.53109000  0.61142400  1
  O  O55  1  0.69428200  0.19437000  0.93804600  1
  O  O56  1  0.58072000  0.08335900  0.97883500  1
  O  O57  1  0.01190300  0.50926300  0.83594500  1
  O  O58  1  0.08335900  0.58072000  0.97883500  1
  O  O59  1  0.50926300  0.01190300  0.83594500  1
  O  O60  1  0.75456000  0.75456000  0.99079600  1
  O  O61  1  0.25207300  0.25207300  0.99570300  1
loop_
_geom_bond_atom_site_label_1
_geom_bond_atom_site_label_2
_geom_bond_distance
_geom_bond_site_symmetry_2
La0 O9 2.521646 1_455
La0 O8 2.521646 1_545
La0 O2 2.713108 1_555
La0 O0 2.713108 1_555
La0 O1 2.714686 1_545
La0 O3 2.714686 1_455
La1 O22 2.577967 1_555
La1 O23 2.577967 1_555
La1 O24 2.578086 1_555
La1 O25 2.578086 1_555
La1 O36 2.708422 1_555
La1 O37 2.708422 1_555
La1 O34 2.709133 1_555
La1 O35 2.709133 1_555
La1 O32 2.781721 1_555
La1 O30 2.782504 1_555
La2 O22 2.553890 1_545
La2 O23 2.553890 1_455
La2 O25 2.554564 1_455
La2 O24 2.554564 1_545
La2 O36 2.702522 1_455
La2 O37 2.702522 1_545
La2 O34 2.703504 1_455
La2 O35 2.703504 1_545
La2 O33 2.788451 1_555
La2 O29 2.790115 1_445
La3 O50 2.559755 1_565
La3 O51 2.559755 1_655
La3 O59 2.643262 1_565
La3 O57 2.643262 1_655
La3 O58 2.643789 1_655
La3 O56 2.643789 1_565
La3 O60 2.669089 1_555
La3 O46 3.012602 1_555
La3 O47 3.013032 1_555
La3 O20 3.250973 1_556
La3 O18 3.251353 1_555
La4 O50 2.552311 1_555
La4 O51 2.552311 1_555
La4 O58 2.632692 1_555
La4 O56 2.632692 1_555
La4 O59 2.632852 1_555
La4 O57 2.632852 1_555
La4 O61 2.763799 1_555
La4 O48 3.001338 1_555
La4 O49 3.003402 1_555
La4 O21 3.259662 1_555
La4 O19 3.261072 1_556
O0 Ta20 1.939463 1_455
O0 Ta13 1.994124 1_555
O1 Ta21 1.940026 1_555
O1 Ta15 1.993518 1_554
O2 Ta21 1.939463 1_545
O2 Ta12 1.994124 1_555
O3 Ta20 1.940026 1_555
O3 Ta14 1.993518 1_554
O4 Ta0 1.910348 1_555
O4 Ta14 1.917349 1_554
O5 Ta2 1.910093 1_555
O5 Ta13 1.917384 1_655
O6 Ta1 1.910348 1_555
O6 Ta15 1.917349 1_554
O7 Ta3 1.910093 1_555
O7 Ta12 1.917384 1_565
O8 Ta1 2.023363 1_555
O8 Ta3 2.023694 1_555
O9 Ta0 2.023363 1_555
O9 Ta2 2.023694 1_555
O10 Ta0 1.943166 1_555
O10 Ta1 1.943166 1_555
O11 Ta3 1.979778 1_545
O11 Ta2 1.979778 1_455
O12 Ta2 1.943284 1_555
O12 Ta3 1.943284 1_555
O13 Ta0 1.979682 1_455
O13 Ta1 1.979682 1_545
O14 Ta7 2.018875 1_555
O14 Ta0 2.091329 1_555
O14 Ta11 2.119330 1_555
O15 Ta6 2.018217 1_555
O15 Ta2 2.091156 1_555
O15 Ta10 2.120115 1_555
O16 Ta4 2.018875 1_555
O16 Ta1 2.091329 1_555
O16 Ta8 2.119330 1_555
O17 Ta5 2.018217 1_555
O17 Ta3 2.091156 1_555
O17 Ta9 2.120115 1_555
O18 Ta5 1.960232 1_555
O18 Ta6 1.960232 1_555
O19 Ta4 1.956814 1_555
O19 Ta7 1.956814 1_555
O20 Ta7 1.959631 1_565
O20 Ta4 1.959631 1_655
O21 Ta6 1.956190 1_455
O21 Ta5 1.956190 1_545
O22 Ta1 2.020341 1_555
O22 Ta8 2.087639 1_555
O23 Ta0 2.020341 1_555
O23 Ta11 2.087639 1_555
O24 Ta3 2.020457 1_555
O24 Ta9 2.086615 1_555
O25 Ta2 2.020457 1_555
O25 Ta10 2.086615 1_555
O26 Ta10 2.053100 1_555
O26 Ta6 2.074315 1_555
O26 Ta14 2.079614 1_555
O27 Ta11 2.052593 1_555
O27 Ta7 2.075474 1_555
O27 Ta12 2.078739 1_555
O28 Ta8 2.052593 1_555
O28 Ta4 2.075474 1_555
O28 Ta13 2.078739 1_555
O29 Ta8 1.962268 1_655
O29 Ta11 1.962268 1_565
O30 Ta9 1.965747 1_555
O30 Ta10 1.965747 1_555
O31 Ta9 2.053100 1_555
O31 Ta5 2.074315 1_555
O31 Ta15 2.079614 1_555
O32 Ta8 1.964858 1_555
O32 Ta11 1.964858 1_555
O33 Ta10 1.961281 1_455
O33 Ta9 1.961281 1_545
O34 Ta16 1.981630 1_555
O34 Ta11 2.094608 1_555
O35 Ta17 1.981630 1_555
O35 Ta8 2.094608 1_555
O36 Ta19 1.981297 1_555
O36 Ta10 2.095458 1_555
O37 Ta18 1.981297 1_555
O37 Ta9 2.095458 1_555
O38 Ta14 1.963282 1_455
O38 Ta15 1.963282 1_545
O39 Ta15 1.945247 1_555
O39 Ta14 1.945247 1_555
O40 Ta12 1.963266 1_555
O40 Ta13 1.963266 1_555
O41 Ta12 1.945331 1_565
O41 Ta13 1.945331 1_655
O42 Ta19 2.027395 1_555
O42 Ta14 2.050544 1_555
O42 Ta10 2.135805 1_555
O43 Ta17 2.028183 1_555
O43 Ta13 2.049644 1_555
O43 Ta8 2.136314 1_555
O44 Ta16 2.028183 1_555
O44 Ta12 2.049644 1_555
O44 Ta11 2.136314 1_555
O45 Ta18 2.027395 1_555
O45 Ta15 2.050544 1_555
O45 Ta9 2.135805 1_555
O46 Ta18 1.972633 1_655
O46 Ta19 1.972633 1_565
O47 Ta17 1.973414 1_655
O47 Ta16 1.973414 1_565
O48 Ta16 1.972806 1_555
O48 Ta17 1.972806 1_555
O49 Ta19 1.973499 1_555
O49 Ta18 1.973499 1_555
O50 Ta16 2.129529 1_555
O50 Ta19 2.129952 1_555
O51 Ta17 2.129529 1_555
O51 Ta18 2.129952 1_555
O52 Ta5 1.918096 1_545
O52 Ta16 1.930716 1_555
O53 Ta4 1.917226 1_556
O53 Ta18 1.931582 1_555
O54 Ta6 1.918096 1_455
O54 Ta17 1.930716 1_555
O55 Ta7 1.917226 1_556
O55 Ta19 1.931582 1_555
O56 Ta7 2.039060 1_556
O56 Ta21 2.078882 1_546
O57 Ta6 2.039318 1_455
O57 Ta20 2.078634 1_456
O58 Ta4 2.039060 1_556
O58 Ta20 2.078882 1_456
O59 Ta5 2.039318 1_545
O59 Ta21 2.078634 1_546
O60 Ta21 1.949171 1_556
O60 Ta20 1.949171 1_556
O61 Ta20 1.972497 1_456
O61 Ta21 1.972497 1_546
