# generated using pymatgen
data_BaNa6O4
_symmetry_space_group_name_H-M   'P 1'
_cell_length_a   9.97717210
_cell_length_b   9.97717210
_cell_length_c   9.97717210
_cell_angle_alpha   109.47122063
_cell_angle_beta   109.47122063
_cell_angle_gamma   109.47122063
_symmetry_Int_Tables_number   1
_chemical_formula_structural   BaNa6O4
_chemical_formula_sum   'Ba4 Na24 O16'
_cell_volume   764.54050759
_cell_formula_units_Z   4
loop_
 _symmetry_equiv_pos_site_id
 _symmetry_equiv_pos_as_xyz
  1  'x, y, z'
loop_
 _atom_site_type_symbol
 _atom_site_label
 _atom_site_symmetry_multiplicity
 _atom_site_fract_x
 _atom_site_fract_y
 _atom_site_fract_z
 _atom_site_occupancy
  Ba  Ba0  1  0.74877300  0.00000000  0.00000000  1
  Ba  Ba1  1  0.25122700  0.25122700  0.25122700  1
  Ba  Ba2  1  0.00000000  0.74877300  0.00000000  1
  Ba  Ba3  1  0.00000000  0.00000000  0.74877300  1
  Na  Na0  1  0.71991600  0.47242900  0.00000000  1
  Na  Na1  1  0.71991600  0.00000000  0.47242900  1
  Na  Na2  1  0.47306100  0.22062500  0.00000000  1
  Na  Na3  1  0.47306100  0.00000000  0.22062500  1
  Na  Na4  1  0.75251300  0.28008400  0.28008400  1
  Na  Na5  1  0.77937500  0.25243600  0.77937500  1
  Na  Na6  1  0.77937500  0.77937500  0.25243600  1
  Na  Na7  1  0.22062500  0.47306100  0.00000000  1
  Na  Na8  1  0.22062500  0.00000000  0.47306100  1
  Na  Na9  1  0.52757100  0.24748700  0.52757100  1
  Na  Na10  1  0.52757100  0.52757100  0.24748700  1
  Na  Na11  1  0.47242900  0.71991600  0.00000000  1
  Na  Na12  1  0.47242900  0.00000000  0.71991600  1
  Na  Na13  1  0.74756400  0.52693900  0.52693900  1
  Na  Na14  1  0.00000000  0.47306100  0.22062500  1
  Na  Na15  1  0.00000000  0.22062500  0.47306100  1
  Na  Na16  1  0.28008400  0.75251300  0.28008400  1
  Na  Na17  1  0.28008400  0.28008400  0.75251300  1
  Na  Na18  1  0.52693900  0.74756400  0.52693900  1
  Na  Na19  1  0.52693900  0.52693900  0.74756400  1
  Na  Na20  1  0.24748700  0.52757100  0.52757100  1
  Na  Na21  1  0.00000000  0.71991600  0.47242900  1
  Na  Na22  1  0.00000000  0.47242900  0.71991600  1
  Na  Na23  1  0.25243600  0.77937500  0.77937500  1
  O  O0  1  0.72350300  0.24509400  0.00000000  1
  O  O1  1  0.72350300  0.00000000  0.24509400  1
  O  O2  1  0.00000000  0.00000000  0.00000000  1
  O  O3  1  0.50000000  0.50000000  0.00000000  1
  O  O4  1  0.50000000  0.00000000  0.50000000  1
  O  O5  1  0.52159200  0.27649700  0.27649700  1
  O  O6  1  0.75490600  0.47840800  0.75490600  1
  O  O7  1  0.75490600  0.75490600  0.47840800  1
  O  O8  1  0.24509400  0.72350300  0.00000000  1
  O  O9  1  0.24509400  0.00000000  0.72350300  1
  O  O10  1  0.27649700  0.52159200  0.27649700  1
  O  O11  1  0.27649700  0.27649700  0.52159200  1
  O  O12  1  0.00000000  0.72350300  0.24509400  1
  O  O13  1  0.00000000  0.24509400  0.72350300  1
  O  O14  1  0.00000000  0.50000000  0.50000000  1
  O  O15  1  0.47840800  0.75490600  0.75490600  1
loop_
_geom_bond_atom_site_label_1
_geom_bond_atom_site_label_2
_geom_bond_distance
_geom_bond_site_symmetry_2
Ba0 O2 2.506535 1_655
Ba0 O0 2.540531 1_555
Ba0 O1 2.540531 1_555
Ba0 O15 2.540535 1_544
Ba1 O2 2.506535 1_555
Ba1 O11 2.540541 1_555
Ba1 O5 2.540541 1_555
Ba1 O10 2.540541 1_555
Ba2 O2 2.506535 1_565
Ba2 O8 2.540531 1_555
Ba2 O12 2.540531 1_555
Ba2 O6 2.540535 1_454
Ba3 O2 2.506535 1_556
Ba3 O13 2.540531 1_555
Ba3 O9 2.540531 1_555
Ba3 O7 2.540535 1_445
Na0 O0 2.280339 1_555
Na0 O3 2.300499 1_555
Na0 O6 2.599543 1_554
Na0 O12 2.599546 1_655
Na1 O1 2.280339 1_555
Na1 O4 2.300499 1_555
Na1 O7 2.599543 1_545
Na1 O13 2.599546 1_655
Na2 O0 2.428259 1_555
Na2 O5 2.461656 1_555
Na2 O9 2.461658 1_554
Na2 O3 2.709656 1_555
Na3 O1 2.428259 1_555
Na3 O5 2.461656 1_555
Na3 O8 2.461658 1_545
Na3 O4 2.709656 1_555
Na4 O5 2.280329 1_555
Na4 O14 2.300499 1_655
Na4 O1 2.599546 1_555
Na4 O0 2.599546 1_555
Na5 O6 2.428249 1_555
Na5 O0 2.461658 1_556
Na5 O13 2.461658 1_655
Na5 O4 2.709656 1_555
Na6 O7 2.428249 1_555
Na6 O1 2.461658 1_565
Na6 O12 2.461658 1_655
Na6 O3 2.709656 1_555
Na7 O8 2.428259 1_555
Na7 O10 2.461656 1_555
Na7 O13 2.461658 1_554
Na7 O3 2.709656 1_555
Na8 O9 2.428259 1_555
Na8 O11 2.461656 1_555
Na8 O12 2.461658 1_545
Na8 O4 2.709656 1_555
Na9 O6 2.280336 1_555
Na9 O4 2.300499 1_555
Na9 O5 2.599548 1_555
Na9 O11 2.599548 1_555
Na10 O7 2.280336 1_555
Na10 O3 2.300499 1_555
Na10 O10 2.599548 1_555
Na10 O5 2.599548 1_555
Na11 O8 2.280339 1_555
Na11 O3 2.300499 1_555
Na11 O15 2.599543 1_554
Na11 O1 2.599546 1_565
Na12 O9 2.280339 1_555
Na12 O4 2.300499 1_555
Na12 O15 2.599543 1_545
Na12 O0 2.599546 1_556
Na13 O5 2.428257 1_555
Na13 O6 2.461663 1_555
Na13 O7 2.461663 1_555
Na13 O14 2.709656 1_655
Na14 O12 2.428259 1_555
Na14 O10 2.461656 1_555
Na14 O0 2.461658 1_455
Na14 O14 2.709656 1_555
Na15 O13 2.428259 1_555
Na15 O11 2.461656 1_555
Na15 O1 2.461658 1_455
Na15 O14 2.709656 1_555
Na16 O10 2.280329 1_555
Na16 O4 2.300499 1_565
Na16 O8 2.599546 1_555
Na16 O12 2.599546 1_555
Na17 O11 2.280329 1_555
Na17 O3 2.300499 1_556
Na17 O13 2.599546 1_555
Na17 O9 2.599546 1_555
Na18 O10 2.428257 1_555
Na18 O15 2.461663 1_555
Na18 O7 2.461663 1_555
Na18 O4 2.709656 1_565
Na19 O11 2.428257 1_555
Na19 O15 2.461663 1_555
Na19 O6 2.461663 1_555
Na19 O3 2.709656 1_556
Na20 O15 2.280336 1_555
Na20 O14 2.300499 1_555
Na20 O11 2.599548 1_555
Na20 O10 2.599548 1_555
Na21 O12 2.280339 1_555
Na21 O14 2.300499 1_555
Na21 O7 2.599543 1_455
Na21 O9 2.599546 1_565
Na22 O13 2.280339 1_555
Na22 O14 2.300499 1_555
Na22 O6 2.599543 1_455
Na22 O8 2.599546 1_556
Na23 O15 2.428249 1_555
Na23 O9 2.461658 1_565
Na23 O8 2.461658 1_556
Na23 O14 2.709656 1_555
