# generated using pymatgen
data_CaP2(HO2)4
_symmetry_space_group_name_H-M   'P 1'
_cell_length_a   7.90824200
_cell_length_b   8.17311129
_cell_length_c   5.64891142
_cell_angle_alpha   107.05331038
_cell_angle_beta   96.03920479
_cell_angle_gamma   108.20828697
_symmetry_Int_Tables_number   1
_chemical_formula_structural   CaP2(HO2)4
_chemical_formula_sum   'Ca2 P4 H8 O16'
_cell_volume   323.70217823
_cell_formula_units_Z   2
loop_
 _symmetry_equiv_pos_site_id
 _symmetry_equiv_pos_as_xyz
  1  'x, y, z'
loop_
 _atom_site_type_symbol
 _atom_site_label
 _atom_site_symmetry_multiplicity
 _atom_site_fract_x
 _atom_site_fract_y
 _atom_site_fract_z
 _atom_site_occupancy
  Ca  Ca0  1  0.54951900  0.79678800  0.68100900  1
  Ca  Ca1  1  0.45048100  0.20321200  0.31899100  1
  P  P0  1  0.85734800  0.53385500  0.73719400  1
  P  P1  1  0.14265200  0.46614500  0.26280600  1
  P  P2  1  0.68854000  0.80555900  0.27677200  1
  P  P3  1  0.31146000  0.19444100  0.72322800  1
  H  H0  1  0.06294300  0.40350400  0.66238100  1
  H  H1  1  0.93705700  0.59649600  0.33761900  1
  H  H2  1  0.94768300  0.82598400  0.98499600  1
  H  H3  1  0.05231700  0.17401600  0.01500400  1
  H  H4  1  0.75936800  0.12273900  0.14740500  1
  H  H5  1  0.24063200  0.87726100  0.85259500  1
  H  H6  1  0.00000000  0.50000000  0.00000000  1
  H  H7  1  0.00000000  0.00000000  0.50000000  1
  O  O0  1  0.68247000  0.48276700  0.58101700  1
  O  O1  1  0.31753000  0.51723300  0.41898300  1
  O  O2  1  0.86065900  0.35694200  0.87442300  1
  O  O3  1  0.13934100  0.64305800  0.12557700  1
  O  O4  1  0.03353700  0.57157900  0.68810900  1
  O  O5  1  0.96646300  0.42842100  0.31189100  1
  O  O6  1  0.88806100  0.80817700  0.85299900  1
  O  O7  1  0.11193900  0.19182300  0.14700100  1
  O  O8  1  0.63306500  0.95543700  0.40903200  1
  O  O9  1  0.36693500  0.04456300  0.59096800  1
  O  O10  1  0.67655400  0.94393400  0.10418100  1
  O  O11  1  0.32344600  0.05606600  0.89581900  1
  O  O12  1  0.57318400  0.53011300  0.20016800  1
  O  O13  1  0.42681600  0.46988700  0.79983200  1
  O  O14  1  0.89742100  0.83342400  0.36728600  1
  O  O15  1  0.10257900  0.16657600  0.63271400  1
loop_
_geom_bond_atom_site_label_1
_geom_bond_atom_site_label_2
_geom_bond_distance
_geom_bond_site_symmetry_2
Ca0 O10 2.285468 1_556
Ca0 O8 2.307581 1_555
Ca0 O1 2.366975 1_555
Ca1 O11 2.285468 1_554
Ca1 O9 2.307581 1_555
Ca1 O0 2.366975 1_555
H0 O4 1.432444 1_555
H1 O5 1.432444 1_555
H2 O6 0.786744 1_555
H3 O7 0.786744 1_555
H4 O10 1.335342 1_545
H5 O11 1.335342 1_565
H6 O3 1.276102 1_555
H6 O2 1.276102 1_454
H7 O15 1.287177 1_555
H7 O14 1.287177 1_445
O0 P0 1.425353 1_555
O1 P1 1.425353 1_555
O2 P0 1.835520 1_555
O3 P1 1.835520 1_555
O4 P0 1.405815 1_455
O5 P1 1.405815 1_655
O8 P2 1.455762 1_555
O9 P3 1.455762 1_555
O10 P2 1.712553 1_555
O11 P3 1.712553 1_555
O12 P2 2.037080 1_555
O13 P3 2.037080 1_555
O14 P2 1.600276 1_555
O15 P3 1.600276 1_555
