# generated using pymatgen
data_Hf3N2O3
_symmetry_space_group_name_H-M   'P 1'
_cell_length_a   5.66902251
_cell_length_b   5.66902251
_cell_length_c   10.64915256
_cell_angle_alpha   89.47922551
_cell_angle_beta   89.47922551
_cell_angle_gamma   41.35916579
_symmetry_Int_Tables_number   1
_chemical_formula_structural   Hf3N2O3
_chemical_formula_sum   'Hf6 N4 O6'
_cell_volume   226.13401815
_cell_formula_units_Z   2
loop_
 _symmetry_equiv_pos_site_id
 _symmetry_equiv_pos_as_xyz
  1  'x, y, z'
loop_
 _atom_site_type_symbol
 _atom_site_label
 _atom_site_symmetry_multiplicity
 _atom_site_fract_x
 _atom_site_fract_y
 _atom_site_fract_z
 _atom_site_occupancy
  Hf  Hf0  1  0.81554500  0.81554500  0.24874200  1
  Hf  Hf1  1  0.85494500  0.85494500  0.94181100  1
  Hf  Hf2  1  0.86340100  0.86340100  0.55546600  1
  Hf  Hf3  1  0.19207500  0.19207500  0.74961200  1
  Hf  Hf4  1  0.14264200  0.14264200  0.05501500  1
  Hf  Hf5  1  0.13683100  0.13683100  0.44031000  1
  N  N0  1  0.69997100  0.69997100  0.07899600  1
  N  N1  1  0.95328700  0.95328700  0.38484100  1
  N  N2  1  0.29552500  0.29552500  0.57476900  1
  N  N3  1  0.29852900  0.29852900  0.92000500  1
  O  O0  1  0.68940400  0.68940400  0.41907900  1
  O  O1  1  0.75238000  0.75238000  0.75188200  1
  O  O2  1  0.95426700  0.95426700  0.11288600  1
  O  O3  1  0.24513100  0.24513100  0.25737300  1
  O  O4  1  0.04363400  0.04363400  0.88470900  1
  O  O5  1  0.04244300  0.04244300  0.62015900  1
loop_
_geom_bond_atom_site_label_1
_geom_bond_atom_site_label_2
_geom_bond_distance
_geom_bond_site_symmetry_2
Hf0 O2 2.053541 1_555
Hf0 N1 2.067982 1_555
Hf0 O3 2.138428 1_565
Hf0 O3 2.138428 1_655
Hf0 N0 2.193998 1_555
Hf0 O0 2.243569 1_555
Hf1 O4 2.086199 1_665
Hf1 N3 2.103003 1_565
Hf1 N3 2.103003 1_655
Hf1 O2 2.113352 1_556
Hf1 N0 2.188597 1_556
Hf1 O1 2.305918 1_555
Hf2 O5 2.026568 1_665
Hf2 N1 2.043764 1_555
Hf2 N2 2.136737 1_655
Hf2 N2 2.136737 1_565
Hf2 O0 2.359682 1_555
Hf2 O1 2.390414 1_555
Hf3 O1 2.101894 1_455
Hf3 O1 2.101894 1_545
Hf3 O5 2.112402 1_555
Hf3 O4 2.122521 1_555
Hf3 N3 2.146508 1_555
Hf3 N2 2.152036 1_555
Hf4 O2 2.085342 1_445
Hf4 O4 2.104564 1_554
Hf4 N0 2.108534 1_545
Hf4 N0 2.108534 1_455
Hf4 N3 2.180648 1_554
Hf4 O3 2.423056 1_555
Hf5 N1 2.040069 1_445
Hf5 O0 2.089865 1_455
Hf5 O0 2.089865 1_545
Hf5 O5 2.152518 1_555
Hf5 N2 2.220534 1_555
Hf5 O3 2.251985 1_555
