# generated using pymatgen
data_VRhO4
_symmetry_space_group_name_H-M   'P 1'
_cell_length_a   5.50387972
_cell_length_b   5.50387972
_cell_length_c   5.50387972
_cell_angle_alpha   106.68346109
_cell_angle_beta   106.68346109
_cell_angle_gamma   115.20333459
_symmetry_Int_Tables_number   1
_chemical_formula_structural   VRhO4
_chemical_formula_sum   'V2 Rh2 O8'
_cell_volume   127.37366889
_cell_formula_units_Z   2
loop_
 _symmetry_equiv_pos_site_id
 _symmetry_equiv_pos_as_xyz
  1  'x, y, z'
loop_
 _atom_site_type_symbol
 _atom_site_label
 _atom_site_symmetry_multiplicity
 _atom_site_fract_x
 _atom_site_fract_y
 _atom_site_fract_z
 _atom_site_occupancy
  V  V0  1  0.25893400  0.75893400  0.50000000  1
  V  V1  1  0.00893400  0.00893400  0.00000000  1
  Rh  Rh0  1  0.74661900  0.24661900  0.50000000  1
  Rh  Rh1  1  0.49661900  0.49661900  0.00000000  1
  O  O0  1  0.95918300  0.76695600  0.19222700  1
  O  O1  1  0.42982100  0.23026800  0.19955300  1
  O  O2  1  0.01695600  0.32472800  0.30777300  1
  O  O3  1  0.48026800  0.78071500  0.30044700  1
  O  O4  1  0.01695600  0.70918300  0.69222700  1
  O  O5  1  0.48026800  0.17982100  0.69955300  1
  O  O6  1  0.57472800  0.76695600  0.80777300  1
  O  O7  1  0.03071500  0.23026800  0.80044700  1
loop_
_geom_bond_atom_site_label_1
_geom_bond_atom_site_label_2
_geom_bond_distance
_geom_bond_site_symmetry_2
O0 V1 1.906005 1_665
O0 V0 2.023263 1_655
O0 Rh1 2.034270 1_555
O1 V1 1.850435 1_555
O1 Rh0 1.976917 1_555
O1 Rh1 2.046414 1_555
O2 V0 1.906010 1_555
O2 V1 2.023260 1_555
O2 Rh0 2.034270 1_455
O3 V0 1.850435 1_555
O3 Rh1 1.976917 1_555
O3 Rh0 2.046414 1_565
O4 V0 1.906005 1_555
O4 V1 2.023263 1_566
O4 Rh0 2.034270 1_455
O5 V0 1.850435 1_545
O5 Rh1 1.976917 1_556
O5 Rh0 2.046414 1_555
O6 V1 1.906010 1_666
O6 V0 2.023260 1_555
O6 Rh1 2.034270 1_556
O7 V1 1.850435 1_556
O7 Rh0 1.976917 1_455
O7 Rh1 2.046414 1_556
