# generated using pymatgen
data_Ti5Nb2O14
_symmetry_space_group_name_H-M   'P 1'
_cell_length_a   4.73160816
_cell_length_b   4.73160816
_cell_length_c   21.06625400
_cell_angle_alpha   90.00000000
_cell_angle_beta   90.00000000
_cell_angle_gamma   90.56534768
_symmetry_Int_Tables_number   1
_chemical_formula_structural   Ti5Nb2O14
_chemical_formula_sum   'Ti10 Nb4 O28'
_cell_volume   471.61077504
_cell_formula_units_Z   2
loop_
 _symmetry_equiv_pos_site_id
 _symmetry_equiv_pos_as_xyz
  1  'x, y, z'
loop_
 _atom_site_type_symbol
 _atom_site_label
 _atom_site_symmetry_multiplicity
 _atom_site_fract_x
 _atom_site_fract_y
 _atom_site_fract_z
 _atom_site_occupancy
  Ti  Ti0  1  0.00000000  0.00000000  0.93028700  1
  Ti  Ti1  1  0.00000000  0.00000000  0.78460900  1
  Ti  Ti2  1  0.00000000  0.00000000  0.64550100  1
  Ti  Ti3  1  0.00000000  0.00000000  0.06971300  1
  Ti  Ti4  1  0.00000000  0.00000000  0.21539100  1
  Ti  Ti5  1  0.00000000  0.00000000  0.35449900  1
  Ti  Ti6  1  0.00000000  0.00000000  0.50000000  1
  Ti  Ti7  1  0.50000000  0.50000000  0.00000000  1
  Ti  Ti8  1  0.50000000  0.50000000  0.71552400  1
  Ti  Ti9  1  0.50000000  0.50000000  0.28447600  1
  Nb  Nb0  1  0.50000000  0.50000000  0.14261700  1
  Nb  Nb1  1  0.50000000  0.50000000  0.42612100  1
  Nb  Nb2  1  0.50000000  0.50000000  0.85738300  1
  Nb  Nb3  1  0.50000000  0.50000000  0.57387900  1
  O  O0  1  0.19491800  0.19491800  0.00000000  1
  O  O1  1  0.19530000  0.19530000  0.71419900  1
  O  O2  1  0.19308400  0.19308400  0.85715600  1
  O  O3  1  0.19308400  0.19308400  0.14284400  1
  O  O4  1  0.19530000  0.19530000  0.28580100  1
  O  O5  1  0.19366400  0.19366400  0.42869100  1
  O  O6  1  0.19366400  0.19366400  0.57130900  1
  O  O7  1  0.69935900  0.30064100  0.64397200  1
  O  O8  1  0.69861900  0.30138100  0.78481300  1
  O  O9  1  0.69809700  0.30190300  0.07040000  1
  O  O10  1  0.69861900  0.30138100  0.21518700  1
  O  O11  1  0.69935900  0.30064100  0.35602800  1
  O  O12  1  0.69809700  0.30190300  0.92960000  1
  O  O13  1  0.70069300  0.29930700  0.50000000  1
  O  O14  1  0.30064100  0.69935900  0.64397200  1
  O  O15  1  0.30138100  0.69861900  0.78481300  1
  O  O16  1  0.30190300  0.69809700  0.92960000  1
  O  O17  1  0.30190300  0.69809700  0.07040000  1
  O  O18  1  0.30064100  0.69935900  0.35602800  1
  O  O19  1  0.29930700  0.70069300  0.50000000  1
  O  O20  1  0.30138100  0.69861900  0.21518700  1
  O  O21  1  0.80470000  0.80470000  0.71419900  1
  O  O22  1  0.80691600  0.80691600  0.85715600  1
  O  O23  1  0.80508200  0.80508200  0.00000000  1
  O  O24  1  0.80691600  0.80691600  0.14284400  1
  O  O25  1  0.80470000  0.80470000  0.28580100  1
  O  O26  1  0.80633600  0.80633600  0.42869100  1
  O  O27  1  0.80633600  0.80633600  0.57130900  1
loop_
_geom_bond_atom_site_label_1
_geom_bond_atom_site_label_2
_geom_bond_distance
_geom_bond_site_symmetry_2
Nb0 O17 2.022114 1_555
Nb0 O9 2.022114 1_555
Nb0 O10 2.030023 1_555
Nb0 O20 2.030023 1_555
Nb0 O24 2.043578 1_555
Nb0 O3 2.043578 1_555
Nb1 O18 1.994363 1_555
Nb1 O11 1.994363 1_555
Nb1 O26 2.040429 1_555
Nb1 O5 2.040429 1_555
Nb1 O19 2.059979 1_555
Nb1 O13 2.059979 1_555
Nb2 O12 2.022114 1_555
Nb2 O16 2.022114 1_555
Nb2 O8 2.030023 1_555
Nb2 O15 2.030023 1_555
Nb2 O22 2.043578 1_555
Nb2 O2 2.043578 1_555
Nb3 O7 1.994363 1_555
Nb3 O14 1.994363 1_555
Nb3 O27 2.040429 1_555
Nb3 O6 2.040429 1_555
Nb3 O19 2.059979 1_555
Nb3 O13 2.059979 1_555
O0 Ti3 1.959888 1_555
O0 Ti0 1.959888 1_554
O0 Ti7 2.031361 1_555
O1 Ti2 1.945616 1_555
O1 Ti1 1.972590 1_555
O1 Ti8 2.029010 1_555
O2 Ti1 1.997131 1_555
O2 Ti0 2.006561 1_555
O3 Ti4 1.997131 1_555
O3 Ti3 2.006561 1_555
O4 Ti5 1.945616 1_555
O4 Ti4 1.972590 1_555
O4 Ti9 2.029010 1_555
O5 Ti6 1.979758 1_555
O5 Ti5 2.026228 1_555
O6 Ti6 1.979758 1_555
O6 Ti2 2.026228 1_555
O7 Ti8 2.017225 1_555
O7 Ti2 2.021898 1_655
O8 Ti8 1.978493 1_555
O8 Ti1 2.026622 1_655
O9 Ti7 1.993476 1_555
O9 Ti3 2.030179 1_655
O10 Ti9 1.978493 1_555
O10 Ti4 2.026622 1_655
O11 Ti9 2.017225 1_555
O11 Ti5 2.021898 1_655
O12 Ti7 1.993476 1_556
O12 Ti0 2.030179 1_655
O13 Ti6 2.012671 1_655
O14 Ti8 2.017225 1_555
O14 Ti2 2.021898 1_565
O15 Ti8 1.978493 1_555
O15 Ti1 2.026622 1_565
O16 Ti7 1.993476 1_556
O16 Ti0 2.030179 1_565
O17 Ti7 1.993476 1_555
O17 Ti3 2.030179 1_565
O18 Ti9 2.017225 1_555
O18 Ti5 2.021898 1_565
O19 Ti6 2.012671 1_565
O20 Ti9 1.978493 1_555
O20 Ti4 2.026622 1_565
O21 Ti2 1.945616 1_665
O21 Ti1 1.972590 1_665
O21 Ti8 2.029010 1_555
O22 Ti1 1.997131 1_665
O22 Ti0 2.006561 1_665
O23 Ti3 1.959888 1_665
O23 Ti0 1.959888 1_664
O23 Ti7 2.031361 1_555
O24 Ti4 1.997131 1_665
O24 Ti3 2.006561 1_665
O25 Ti5 1.945616 1_665
O25 Ti4 1.972590 1_665
O25 Ti9 2.029010 1_555
O26 Ti6 1.979758 1_665
O26 Ti5 2.026228 1_665
O27 Ti6 1.979758 1_665
O27 Ti2 2.026228 1_665
