# generated using pymatgen
data_Na6Sn2O7
_symmetry_space_group_name_H-M   'P 1'
_cell_length_a   6.26980091
_cell_length_b   6.26980091
_cell_length_c   12.33010895
_cell_angle_alpha   77.95345924
_cell_angle_beta   77.95345924
_cell_angle_gamma   90.50020996
_symmetry_Int_Tables_number   1
_chemical_formula_structural   Na6Sn2O7
_chemical_formula_sum   'Na12 Sn4 O14'
_cell_volume   462.89549782
_cell_formula_units_Z   2
loop_
 _symmetry_equiv_pos_site_id
 _symmetry_equiv_pos_as_xyz
  1  'x, y, z'
loop_
 _atom_site_type_symbol
 _atom_site_label
 _atom_site_symmetry_multiplicity
 _atom_site_fract_x
 _atom_site_fract_y
 _atom_site_fract_z
 _atom_site_occupancy
  Na  Na0  1  0.79418400  0.08038900  0.58838200  1
  Na  Na1  1  0.47415600  0.01430400  0.87091100  1
  Na  Na2  1  0.50000000  0.50000000  0.50000000  1
  Na  Na3  1  0.45508000  0.54492000  0.75000000  1
  Na  Na4  1  0.08038900  0.79418400  0.08838200  1
  Na  Na5  1  0.01430400  0.47415600  0.37091100  1
  Na  Na6  1  0.98569600  0.52584400  0.62908900  1
  Na  Na7  1  0.91961100  0.20581600  0.91161800  1
  Na  Na8  1  0.54492000  0.45508000  0.25000000  1
  Na  Na9  1  0.52584400  0.98569600  0.12908900  1
  Na  Na10  1  0.20581600  0.91961100  0.41161800  1
  Na  Na11  1  0.50000000  0.50000000  0.00000000  1
  Sn  Sn0  1  0.94049700  0.73909700  0.86788900  1
  Sn  Sn1  1  0.26090300  0.05950300  0.63211100  1
  Sn  Sn2  1  0.73909700  0.94049700  0.36788900  1
  Sn  Sn3  1  0.05950300  0.26090300  0.13211100  1
  O  O0  1  0.23469100  0.69432700  0.89978200  1
  O  O1  1  0.69432700  0.23469100  0.39978200  1
  O  O2  1  0.48291800  0.21311400  0.68423400  1
  O  O3  1  0.73770100  0.84404300  0.98901700  1
  O  O4  1  0.97311500  0.02688500  0.75000000  1
  O  O5  1  0.15595700  0.26229900  0.51098300  1
  O  O6  1  0.21311400  0.48291800  0.18423400  1
  O  O7  1  0.78688600  0.51708200  0.81576600  1
  O  O8  1  0.84404300  0.73770100  0.48901700  1
  O  O9  1  0.02688500  0.97311500  0.25000000  1
  O  O10  1  0.26229900  0.15595700  0.01098300  1
  O  O11  1  0.51708200  0.78688600  0.31576600  1
  O  O12  1  0.30567300  0.76530900  0.60021800  1
  O  O13  1  0.76530900  0.30567300  0.10021800  1
loop_
_geom_bond_atom_site_label_1
_geom_bond_atom_site_label_2
_geom_bond_distance
_geom_bond_site_symmetry_2
Na0 O2 2.318203 1_555
Na0 O5 2.439971 1_655
Na0 O4 2.450089 1_555
Na0 O1 2.532767 1_555
Na0 O8 2.676914 1_545
Na1 O10 2.288959 1_556
Na1 O2 2.367115 1_555
Na1 O0 2.414940 1_545
Na1 O3 2.525256 1_545
Na2 O12 2.458329 1_555
Na2 O1 2.458329 1_555
Na2 O2 2.568398 1_555
Na2 O11 2.568398 1_555
Na2 O8 2.574905 1_555
Na2 O5 2.574905 1_555
Na3 O7 2.380617 1_555
Na3 O2 2.380617 1_555
Na3 O0 2.424285 1_555
Na3 O12 2.424285 1_555
Na4 O6 2.318203 1_555
Na4 O10 2.439971 1_565
Na4 O9 2.450089 1_555
Na4 O0 2.532767 1_554
Na4 O3 2.676914 1_454
Na5 O5 2.288959 1_555
Na5 O6 2.367115 1_555
Na5 O1 2.414940 1_455
Na5 O8 2.525256 1_455
Na6 O8 2.288959 1_555
Na6 O7 2.367115 1_555
Na6 O12 2.414940 1_655
Na6 O5 2.525256 1_655
Na7 O7 2.318203 1_555
Na7 O3 2.439971 1_545
Na7 O4 2.450089 1_555
Na7 O13 2.532767 1_556
Na7 O10 2.676914 1_656
Na8 O11 2.380617 1_555
Na8 O6 2.380617 1_555
Na8 O1 2.424285 1_555
Na8 O13 2.424285 1_555
Na9 O3 2.288959 1_554
Na9 O11 2.367115 1_555
Na9 O13 2.414940 1_565
Na9 O10 2.525256 1_565
Na10 O11 2.318203 1_555
Na10 O8 2.439971 1_455
Na10 O9 2.450089 1_555
Na10 O12 2.532767 1_555
Na10 O5 2.676914 1_565
Na11 O13 2.458329 1_555
Na11 O0 2.458329 1_554
Na11 O6 2.568398 1_555
Na11 O7 2.568398 1_554
Na11 O3 2.574905 1_554
Na11 O10 2.574905 1_555
O0 Sn0 1.975219 1_455
O1 Sn2 1.975219 1_545
O2 Sn1 1.971456 1_555
O3 Sn0 1.977976 1_555
O4 Sn0 2.045770 1_545
O4 Sn1 2.045770 1_655
O5 Sn1 1.977976 1_555
O6 Sn3 1.971456 1_555
O7 Sn0 1.971456 1_555
O8 Sn2 1.977976 1_555
O9 Sn2 2.045770 1_455
O9 Sn3 2.045770 1_565
O10 Sn3 1.977976 1_555
O11 Sn2 1.971456 1_555
O12 Sn1 1.975219 1_565
O13 Sn3 1.975219 1_655
