# generated using pymatgen
data_V2O3F
_symmetry_space_group_name_H-M   'P 1'
_cell_length_a   4.70156108
_cell_length_b   4.70156108
_cell_length_c   2.98941400
_cell_angle_alpha   90.00000000
_cell_angle_beta   90.00000000
_cell_angle_gamma   92.55869010
_symmetry_Int_Tables_number   1
_chemical_formula_structural   V2O3F
_chemical_formula_sum   'V2 O3 F1'
_cell_volume   66.01414900
_cell_formula_units_Z   1
loop_
 _symmetry_equiv_pos_site_id
 _symmetry_equiv_pos_as_xyz
  1  'x, y, z'
loop_
 _atom_site_type_symbol
 _atom_site_label
 _atom_site_symmetry_multiplicity
 _atom_site_fract_x
 _atom_site_fract_y
 _atom_site_fract_z
 _atom_site_occupancy
  V  V0  1  0.98195200  0.01804800  0.00000000  1
  V  V1  1  0.52090600  0.47909400  0.50000000  1
  O  O0  1  0.79712500  0.20287500  0.50000000  1
  O  O1  1  0.30481600  0.30264600  0.00000000  1
  O  O2  1  0.69735400  0.69518400  0.00000000  1
  F  F0  1  0.19784700  0.80215300  0.50000000  1
loop_
_geom_bond_atom_site_label_1
_geom_bond_atom_site_label_2
_geom_bond_distance
_geom_bond_site_symmetry_2
O0 V1 1.877131 1_555
O0 V0 1.952385 1_555
O0 V0 1.952385 1_556
O1 V1 1.969588 1_554
O1 V1 1.969588 1_555
O1 V0 1.978196 1_455
O2 V1 1.969588 1_555
O2 V1 1.969588 1_554
O2 V0 1.978196 1_565
F0 V0 2.094461 1_465
F0 V0 2.094461 1_466
F0 V1 2.195446 1_555
