# generated using pymatgen
data_MnCu(PO4)2
_symmetry_space_group_name_H-M   'P 1'
_cell_length_a   5.16024965
_cell_length_b   10.10387707
_cell_length_c   6.04858905
_cell_angle_alpha   89.98532385
_cell_angle_beta   90.00072196
_cell_angle_gamma   94.20642319
_symmetry_Int_Tables_number   1
_chemical_formula_structural   MnCu(PO4)2
_chemical_formula_sum   'Mn2 Cu2 P4 O16'
_cell_volume   314.51501021
_cell_formula_units_Z   2
loop_
 _symmetry_equiv_pos_site_id
 _symmetry_equiv_pos_as_xyz
  1  'x, y, z'
loop_
 _atom_site_type_symbol
 _atom_site_label
 _atom_site_symmetry_multiplicity
 _atom_site_fract_x
 _atom_site_fract_y
 _atom_site_fract_z
 _atom_site_occupancy
  Mn  Mn0  1  0.58952600  0.80276300  0.25014000  1
  Mn  Mn1  1  0.41071900  0.19734600  0.74990100  1
  Cu  Cu0  1  0.84994300  0.31334900  0.24994900  1
  Cu  Cu1  1  0.15003400  0.68654600  0.75002700  1
  P  P0  1  0.41393000  0.10350600  0.24997900  1
  P  P1  1  0.58610100  0.89648600  0.75002400  1
  P  P2  1  0.94456300  0.38721000  0.74989100  1
  P  P3  1  0.05529500  0.61274300  0.25005400  1
  O  O0  1  0.62049200  0.04965700  0.74974900  1
  O  O1  1  0.37910300  0.95038700  0.25028100  1
  O  O2  1  0.71287300  0.13932100  0.24999500  1
  O  O3  1  0.28722000  0.86056100  0.75001600  1
  O  O4  1  0.23202000  0.35928600  0.74985200  1
  O  O5  1  0.76807700  0.64084100  0.25009800  1
  O  O6  1  0.08129100  0.46111900  0.25017500  1
  O  O7  1  0.91840100  0.53882100  0.74994000  1
  O  O8  1  0.28053100  0.16187000  0.04665500  1
  O  O9  1  0.28035400  0.16199000  0.45307700  1
  O  O10  1  0.71971800  0.83816400  0.54682900  1
  O  O11  1  0.71958700  0.83831200  0.95345900  1
  O  O12  1  0.77962200  0.32091500  0.94412300  1
  O  O13  1  0.77930700  0.32103800  0.55577800  1
  O  O14  1  0.22051200  0.67887200  0.05585300  1
  O  O15  1  0.22078200  0.67889700  0.44415500  1
loop_
_geom_bond_atom_site_label_1
_geom_bond_atom_site_label_2
_geom_bond_distance
_geom_bond_site_symmetry_2
Mn0 O1 1.908253 1_555
Mn0 O5 1.935634 1_555
Mn0 O11 1.940109 1_554
Mn0 O10 1.940294 1_555
Mn0 O15 2.492810 1_555
Mn0 O14 2.494989 1_555
Mn1 O0 1.906696 1_555
Mn1 O4 1.936205 1_555
Mn1 O8 1.940618 1_556
Mn1 O9 1.941274 1_555
Mn1 O13 2.491749 1_555
Mn1 O12 2.492938 1_555
Cu0 O6 1.841985 1_655
Cu0 O2 1.846527 1_555
Cu0 O12 1.887676 1_554
Cu0 O13 1.888128 1_555
Cu1 O7 1.842504 1_455
Cu1 O3 1.846594 1_555
Cu1 O14 1.887894 1_556
Cu1 O15 1.888473 1_555
O0 P1 1.544777 1_545
O1 P0 1.544350 1_565
O2 P0 1.558440 1_555
O3 P1 1.558307 1_555
O4 P2 1.530139 1_455
O5 P3 1.529377 1_655
O6 P3 1.547623 1_555
O7 P2 1.547629 1_555
O8 P0 1.547006 1_555
O9 P0 1.547109 1_555
O10 P1 1.546997 1_555
O11 P1 1.546960 1_555
O12 P2 1.571408 1_555
O13 P2 1.571461 1_555
O14 P3 1.571349 1_555
O15 P3 1.571947 1_555
