# generated using pymatgen
data_NaCa2Al2P2H5O11F4
_symmetry_space_group_name_H-M   'P 1'
_cell_length_a   10.78899100
_cell_length_b   5.53061400
_cell_length_c   9.58467900
_cell_angle_alpha   74.44926832
_cell_angle_beta   90.00000000
_cell_angle_gamma   90.00000000
_symmetry_Int_Tables_number   1
_chemical_formula_structural   NaCa2Al2P2H5O11F4
_chemical_formula_sum   'Na2 Ca4 Al4 P4 H10 O22 F8'
_cell_volume   550.97950272
_cell_formula_units_Z   2
loop_
 _symmetry_equiv_pos_site_id
 _symmetry_equiv_pos_as_xyz
  1  'x, y, z'
loop_
 _atom_site_type_symbol
 _atom_site_label
 _atom_site_symmetry_multiplicity
 _atom_site_fract_x
 _atom_site_fract_y
 _atom_site_fract_z
 _atom_site_occupancy
  Na  Na0  1  0.25000000  0.79301300  0.68647900  1
  Na  Na1  1  0.75000000  0.20698700  0.31352100  1
  Ca  Ca0  1  0.91592400  0.76160300  0.14342900  1
  Ca  Ca1  1  0.41592400  0.23839700  0.85657100  1
  Ca  Ca2  1  0.08407600  0.23839700  0.85657100  1
  Ca  Ca3  1  0.58407600  0.76160300  0.14342900  1
  Al  Al0  1  0.09460700  0.22846300  0.25806400  1
  Al  Al1  1  0.59460700  0.77153700  0.74193600  1
  Al  Al2  1  0.90539300  0.77153700  0.74193600  1
  Al  Al3  1  0.40539300  0.22846300  0.25806400  1
  P  P0  1  0.25000000  0.62760700  0.04395000  1
  P  P1  1  0.75000000  0.37239300  0.95605000  1
  P  P2  1  0.25000000  0.35833000  0.50863200  1
  P  P3  1  0.75000000  0.64167000  0.49136800  1
  H  H0  1  0.25000000  0.01854500  0.15200300  1
  H  H1  1  0.75000000  0.98145500  0.84799700  1
  H  H2  1  0.51880300  0.82724600  0.43692000  1
  H  H3  1  0.01880300  0.17275400  0.56308000  1
  H  H4  1  0.48119700  0.17275400  0.56308000  1
  H  H5  1  0.98119700  0.82724600  0.43692000  1
  H  H6  1  0.37836500  0.77387600  0.39141000  1
  H  H7  1  0.87836500  0.22612400  0.60859000  1
  H  H8  1  0.62163500  0.22612400  0.60859000  1
  H  H9  1  0.12163500  0.77387600  0.39141000  1
  O  O0  1  0.25000000  0.91271800  0.97208800  1
  O  O1  1  0.75000000  0.08728200  0.02791200  1
  O  O2  1  0.25000000  0.10158300  0.23136200  1
  O  O3  1  0.75000000  0.89841700  0.76863800  1
  O  O4  1  0.25000000  0.23788200  0.67496200  1
  O  O5  1  0.75000000  0.76211800  0.32503800  1
  O  O6  1  0.25000000  0.64587700  0.47036900  1
  O  O7  1  0.75000000  0.35412300  0.52963100  1
  O  O8  1  0.25000000  0.47600900  0.92899200  1
  O  O9  1  0.75000000  0.52399100  0.07100800  1
  O  O10  1  0.45783100  0.86979100  0.35433300  1
  O  O11  1  0.95783100  0.13020900  0.64566700  1
  O  O12  1  0.54216900  0.13020900  0.64566700  1
  O  O13  1  0.04216900  0.86979100  0.35433300  1
  O  O14  1  0.36670100  0.26106700  0.44404200  1
  O  O15  1  0.86670100  0.73893300  0.55595800  1
  O  O16  1  0.63329900  0.73893300  0.55595800  1
  O  O17  1  0.13329900  0.26106700  0.44404200  1
  O  O18  1  0.36768800  0.55726500  0.14365900  1
  O  O19  1  0.86768800  0.44273500  0.85634100  1
  O  O20  1  0.63231200  0.44273500  0.85634100  1
  O  O21  1  0.13231200  0.55726500  0.14365900  1
  F  F0  1  0.46661000  0.14227800  0.09615900  1
  F  F1  1  0.96661000  0.85772200  0.90384100  1
  F  F2  1  0.53339000  0.85772200  0.90384100  1
  F  F3  1  0.03339000  0.14227800  0.09615900  1
  F  F4  1  0.44206100  0.65558100  0.71680800  1
  F  F5  1  0.94206100  0.34441900  0.28319200  1
  F  F6  1  0.55793900  0.34441900  0.28319200  1
  F  F7  1  0.05793900  0.65558100  0.71680800  1
loop_
_geom_bond_atom_site_label_1
_geom_bond_atom_site_label_2
_geom_bond_distance
_geom_bond_site_symmetry_2
Na0 O6 2.420007 1_555
Na0 O4 2.433130 1_565
Na0 O8 2.508310 1_555
Na1 O7 2.420007 1_555
Na1 O5 2.433130 1_545
Na1 O9 2.508310 1_555
Ca0 F1 2.280446 1_554
Ca0 F5 2.353790 1_555
Ca0 F3 2.394272 1_665
Ca0 O9 2.429512 1_555
Ca0 O5 2.497443 1_555
Ca0 O1 2.570129 1_565
Ca0 O21 2.593496 1_655
Ca0 O13 2.635904 1_655
Ca1 F0 2.280446 1_556
Ca1 F4 2.353790 1_555
Ca1 F2 2.394272 1_545
Ca1 O8 2.429512 1_555
Ca1 O4 2.497443 1_555
Ca1 O0 2.570129 1_545
Ca1 O20 2.593496 1_555
Ca1 O12 2.635904 1_555
Ca2 F3 2.280446 1_556
Ca2 F7 2.353790 1_555
Ca2 F1 2.394272 1_445
Ca2 O8 2.429512 1_555
Ca2 O4 2.497443 1_555
Ca2 O0 2.570129 1_545
Ca2 O19 2.593496 1_455
Ca2 O11 2.635904 1_455
Ca3 F2 2.280446 1_554
Ca3 F6 2.353790 1_555
Ca3 F0 2.394272 1_565
Ca3 O9 2.429512 1_555
Ca3 O5 2.497443 1_555
Ca3 O1 2.570129 1_565
Ca3 O18 2.593496 1_555
Ca3 O10 2.635904 1_555
Al0 F5 1.805772 1_455
Al0 O2 1.861445 1_555
Al0 F3 1.862292 1_555
Al0 O17 1.885887 1_555
Al0 O21 1.898834 1_555
Al0 O13 2.031018 1_545
Al1 F4 1.805772 1_555
Al1 O3 1.861445 1_555
Al1 F2 1.862292 1_555
Al1 O16 1.885887 1_555
Al1 O20 1.898834 1_555
Al1 O12 2.031018 1_565
Al2 F7 1.805772 1_655
Al2 O3 1.861445 1_555
Al2 F1 1.862292 1_555
Al2 O15 1.885887 1_555
Al2 O19 1.898834 1_555
Al2 O11 2.031018 1_565
Al3 F6 1.805772 1_555
Al3 O2 1.861445 1_555
Al3 F0 1.862292 1_555
Al3 O14 1.885887 1_555
Al3 O18 1.898834 1_555
Al3 O10 2.031018 1_545
H0 O2 0.988317 1_555
H1 O3 0.988317 1_555
H2 O10 1.007381 1_555
H2 O16 1.663571 1_555
H3 O11 1.007381 1_455
H3 O17 1.663571 1_555
H4 O12 1.007381 1_555
H4 O14 1.663571 1_555
H5 O13 1.007381 1_655
H5 O15 1.663571 1_555
H6 O10 1.020623 1_555
H6 O6 1.644583 1_555
H7 O11 1.020623 1_555
H7 O7 1.644583 1_555
H8 O12 1.020623 1_555
H8 O7 1.644583 1_555
H9 O13 1.020623 1_555
H9 O6 1.644583 1_555
O0 P0 1.542235 1_556
O1 P1 1.542235 1_554
O4 P2 1.554308 1_555
O5 P3 1.554308 1_555
O6 P2 1.533255 1_555
O7 P3 1.533255 1_555
O8 P0 1.553171 1_556
O9 P1 1.553171 1_554
O14 P2 1.560920 1_555
O15 P3 1.560920 1_555
O16 P3 1.560920 1_555
O17 P2 1.560920 1_555
O18 P0 1.574023 1_555
O19 P1 1.574023 1_555
O20 P1 1.574023 1_555
O21 P0 1.574023 1_555
F4 Na0 2.199441 1_555
F5 Na1 2.199441 1_555
F6 Na1 2.199441 1_555
F7 Na0 2.199441 1_555
