# generated using pymatgen
data_Li3CoOF3
_symmetry_space_group_name_H-M   'P 1'
_cell_length_a   5.16465122
_cell_length_b   5.16465122
_cell_length_c   10.08181230
_cell_angle_alpha   80.05110718
_cell_angle_beta   80.05110718
_cell_angle_gamma   33.31953754
_symmetry_Int_Tables_number   1
_chemical_formula_structural   Li3CoOF3
_chemical_formula_sum   'Li6 Co2 O2 F6'
_cell_volume   145.29706088
_cell_formula_units_Z   2
loop_
 _symmetry_equiv_pos_site_id
 _symmetry_equiv_pos_as_xyz
  1  'x, y, z'
loop_
 _atom_site_type_symbol
 _atom_site_label
 _atom_site_symmetry_multiplicity
 _atom_site_fract_x
 _atom_site_fract_y
 _atom_site_fract_z
 _atom_site_occupancy
  Li  Li0  1  0.24775500  0.24775500  0.37850900  1
  Li  Li1  1  0.50000000  0.50000000  0.50000000  1
  Li  Li2  1  0.50000000  0.50000000  0.00000000  1
  Li  Li3  1  0.99796000  0.99796000  0.74875500  1
  Li  Li4  1  0.75224500  0.75224500  0.62149100  1
  Li  Li5  1  0.00204000  0.00204000  0.25124500  1
  Co  Co0  1  0.25482600  0.25482600  0.89860200  1
  Co  Co1  1  0.74517400  0.74517400  0.10139800  1
  O  O0  1  0.11639000  0.11639000  0.06711700  1
  O  O1  1  0.88361000  0.88361000  0.93288300  1
  F  F0  1  0.12248200  0.12248200  0.56063900  1
  F  F1  1  0.37274200  0.37274200  0.68232500  1
  F  F2  1  0.37008400  0.37008400  0.19728100  1
  F  F3  1  0.87751800  0.87751800  0.43936100  1
  F  F4  1  0.62725800  0.62725800  0.31767500  1
  F  F5  1  0.62991600  0.62991600  0.80271900  1
loop_
_geom_bond_atom_site_label_1
_geom_bond_atom_site_label_2
_geom_bond_distance
_geom_bond_site_symmetry_2
Li2 O0 2.063450 1_565
Li2 O1 2.063450 1_544
Li2 O1 2.063450 1_454
Li2 O0 2.063450 1_655
Li3 O1 1.992194 1_555
Li5 O0 1.992194 1_555
Co0 O0 1.980815 1_556
Co0 O1 2.023546 1_455
Co0 O1 2.023546 1_545
Co0 F5 2.255130 1_455
Co0 F5 2.255130 1_545
Co0 F1 2.279982 1_555
Co1 O1 1.980815 1_554
Co1 O0 2.023546 1_655
Co1 O0 2.023546 1_565
Co1 F2 2.255130 1_565
Co1 F2 2.255130 1_655
Co1 F4 2.279982 1_555
F0 Li0 2.021732 1_555
F0 Li3 2.066978 1_445
F0 Li1 2.074216 1_455
F0 Li1 2.074216 1_545
F0 Li4 2.121729 1_545
F0 Li4 2.121729 1_455
F1 Li1 2.032193 1_555
F1 Li4 2.062538 1_455
F1 Li4 2.062538 1_545
F1 Li3 2.115560 1_455
F1 Li3 2.115560 1_545
F2 Li0 2.001492 1_555
F2 Li5 2.109419 1_565
F2 Li5 2.109419 1_655
F2 Li2 2.164823 1_555
F3 Li4 2.021732 1_555
F3 Li5 2.066978 1_665
F3 Li1 2.074216 1_565
F3 Li1 2.074216 1_655
F3 Li0 2.121729 1_565
F3 Li0 2.121729 1_655
F4 Li1 2.032193 1_555
F4 Li0 2.062538 1_565
F4 Li0 2.062538 1_655
F4 Li5 2.115560 1_655
F4 Li5 2.115560 1_565
F5 Li4 2.001492 1_555
F5 Li3 2.109419 1_455
F5 Li3 2.109419 1_545
F5 Li2 2.164823 1_556
