# generated using pymatgen
data_Sr2CaI6
_symmetry_space_group_name_H-M   'P 1'
_cell_length_a   9.52114800
_cell_length_b   10.42542700
_cell_length_c   17.72852887
_cell_angle_alpha   56.68118586
_cell_angle_beta   90.00000000
_cell_angle_gamma   90.00000000
_symmetry_Int_Tables_number   1
_chemical_formula_structural   Sr2CaI6
_chemical_formula_sum   'Sr8 Ca4 I24'
_cell_volume   1470.51124001
_cell_formula_units_Z   4
loop_
 _symmetry_equiv_pos_site_id
 _symmetry_equiv_pos_as_xyz
  1  'x, y, z'
loop_
 _atom_site_type_symbol
 _atom_site_label
 _atom_site_symmetry_multiplicity
 _atom_site_fract_x
 _atom_site_fract_y
 _atom_site_fract_z
 _atom_site_occupancy
  Sr  Sr0  1  0.70127300  0.29642500  0.09355500  1
  Sr  Sr1  1  0.90602900  0.63755200  0.71263100  1
  Sr  Sr2  1  0.40602900  0.36244800  0.78736900  1
  Sr  Sr3  1  0.20127300  0.70357500  0.40644500  1
  Sr  Sr4  1  0.79872700  0.29642500  0.59355500  1
  Sr  Sr5  1  0.59397100  0.63755200  0.21263100  1
  Sr  Sr6  1  0.09397100  0.36244800  0.28736900  1
  Sr  Sr7  1  0.29872700  0.70357500  0.90644500  1
  Ca  Ca0  1  0.64583000  0.92664700  0.43024900  1
  Ca  Ca1  1  0.14583000  0.07335300  0.06975100  1
  Ca  Ca2  1  0.85417000  0.92664700  0.93024900  1
  Ca  Ca3  1  0.35417000  0.07335300  0.56975100  1
  I  I0  1  0.33143700  0.02337100  0.41141900  1
  I  I1  1  0.26476100  0.72391800  0.70508800  1
  I  I2  1  0.61283300  0.57214800  0.86512800  1
  I  I3  1  0.94891800  0.82688900  0.48592100  1
  I  I4  1  0.06196700  0.41805700  0.92346100  1
  I  I5  1  0.05206800  0.10785800  0.22353500  1
  I  I6  1  0.55206800  0.89214200  0.27646500  1
  I  I7  1  0.44891800  0.17311100  0.01407900  1
  I  I8  1  0.56196700  0.58194300  0.57653900  1
  I  I9  1  0.11283300  0.42785200  0.63487200  1
  I  I10  1  0.76476100  0.27608200  0.79491200  1
  I  I11  1  0.83143700  0.97662900  0.08858100  1
  I  I12  1  0.16856300  0.02337100  0.91141900  1
  I  I13  1  0.23523900  0.72391800  0.20508800  1
  I  I14  1  0.88716700  0.57214800  0.36512800  1
  I  I15  1  0.43803300  0.41805700  0.42346100  1
  I  I16  1  0.55108200  0.82688900  0.98592100  1
  I  I17  1  0.44793200  0.10785800  0.72353500  1
  I  I18  1  0.94793200  0.89214200  0.77646500  1
  I  I19  1  0.93803300  0.58194300  0.07653900  1
  I  I20  1  0.05108200  0.17311100  0.51407900  1
  I  I21  1  0.38716700  0.42785200  0.13487200  1
  I  I22  1  0.73523900  0.27608200  0.29491200  1
  I  I23  1  0.66856300  0.97662900  0.58858100  1
loop_
_geom_bond_atom_site_label_1
_geom_bond_atom_site_label_2
_geom_bond_distance
_geom_bond_site_symmetry_2
Ca0 I3 3.042305 1_555
Ca0 I6 3.071949 1_555
Ca0 I0 3.117500 1_565
Ca0 I23 3.131210 1_555
Ca0 I8 3.168476 1_555
Ca0 I22 3.185968 1_565
Ca1 I7 3.042305 1_555
Ca1 I5 3.071949 1_555
Ca1 I11 3.117500 1_445
Ca1 I12 3.131210 1_554
Ca1 I4 3.168476 1_554
Ca1 I13 3.185968 1_545
Ca2 I16 3.042305 1_555
Ca2 I18 3.071949 1_555
Ca2 I12 3.117500 1_665
Ca2 I11 3.131210 1_556
Ca2 I19 3.168476 1_556
Ca2 I10 3.185968 1_565
Ca3 I20 3.042305 1_555
Ca3 I17 3.071949 1_555
Ca3 I23 3.117500 1_545
Ca3 I0 3.131210 1_555
Ca3 I15 3.168476 1_555
Ca3 I1 3.185968 1_545
I0 Sr3 3.603092 1_545
I0 Sr6 3.728814 1_555
I1 Sr7 3.472901 1_555
I1 Sr2 3.478400 1_555
I1 Sr1 3.515998 1_455
I2 Sr7 3.529947 1_555
I2 Sr0 3.547280 1_556
I2 Sr1 3.679908 1_555
I2 Sr2 3.723962 1_555
I3 Sr3 3.376542 1_655
I3 Sr1 3.391386 1_555
I4 Sr1 3.466247 1_455
I4 Sr7 3.611991 1_555
I5 Sr6 3.432868 1_555
I5 Sr3 3.909355 1_545
I5 Sr0 3.918345 1_455
I6 Sr5 3.432868 1_555
I6 Sr0 3.909355 1_565
I6 Sr3 3.918345 1_555
I7 Sr0 3.376542 1_555
I7 Sr2 3.391386 1_554
I8 Sr2 3.466247 1_555
I8 Sr4 3.611991 1_555
I9 Sr4 3.529947 1_455
I9 Sr3 3.547280 1_555
I9 Sr2 3.679908 1_555
I9 Sr1 3.723962 1_455
I10 Sr4 3.472901 1_555
I10 Sr1 3.478400 1_555
I10 Sr2 3.515998 1_555
I11 Sr0 3.603092 1_565
I11 Sr5 3.728814 1_555
I12 Sr7 3.603092 1_545
I12 Sr2 3.728814 1_555
I13 Sr3 3.472901 1_555
I13 Sr6 3.478400 1_555
I13 Sr5 3.515998 1_555
I14 Sr3 3.529947 1_655
I14 Sr4 3.547280 1_555
I14 Sr5 3.679908 1_555
I14 Sr6 3.723962 1_655
I15 Sr5 3.466247 1_555
I15 Sr3 3.611991 1_555
I16 Sr7 3.376542 1_555
I16 Sr5 3.391386 1_556
I17 Sr2 3.432868 1_555
I17 Sr7 3.909355 1_545
I17 Sr4 3.918345 1_555
I18 Sr1 3.432868 1_555
I18 Sr4 3.909355 1_565
I18 Sr7 3.918345 1_655
I19 Sr6 3.466247 1_655
I19 Sr0 3.611991 1_555
I20 Sr4 3.376542 1_455
I20 Sr6 3.391386 1_555
I21 Sr0 3.529947 1_555
I21 Sr7 3.547280 1_554
I21 Sr6 3.679908 1_555
I21 Sr5 3.723962 1_555
I22 Sr0 3.472901 1_555
I22 Sr5 3.478400 1_555
I22 Sr6 3.515998 1_655
I23 Sr4 3.603092 1_565
I23 Sr1 3.728814 1_555
