# generated using pymatgen
data_Li2VCO5
_symmetry_space_group_name_H-M   'P 1'
_cell_length_a   2.93970400
_cell_length_b   9.42613900
_cell_length_c   12.01767500
_cell_angle_alpha   90.00000000
_cell_angle_beta   90.00000000
_cell_angle_gamma   90.00000000
_symmetry_Int_Tables_number   1
_chemical_formula_structural   Li2VCO5
_chemical_formula_sum   'Li8 V4 C4 O20'
_cell_volume   333.01047756
_cell_formula_units_Z   4
loop_
 _symmetry_equiv_pos_site_id
 _symmetry_equiv_pos_as_xyz
  1  'x, y, z'
loop_
 _atom_site_type_symbol
 _atom_site_label
 _atom_site_symmetry_multiplicity
 _atom_site_fract_x
 _atom_site_fract_y
 _atom_site_fract_z
 _atom_site_occupancy
  Li  Li0  1  0.50000000  0.00483100  0.28179400  1
  Li  Li1  1  0.50000000  0.00000000  0.00000000  1
  Li  Li2  1  0.00000000  0.00000000  0.50000000  1
  Li  Li3  1  0.50000000  0.99516900  0.71820600  1
  Li  Li4  1  0.50000000  0.50483100  0.21820600  1
  Li  Li5  1  0.50000000  0.50000000  0.50000000  1
  Li  Li6  1  0.00000000  0.50000000  0.00000000  1
  Li  Li7  1  0.50000000  0.49516900  0.78179400  1
  V  V0  1  0.00000000  0.24319000  0.11278800  1
  V  V1  1  0.00000000  0.25681000  0.61278800  1
  V  V2  1  0.00000000  0.74319000  0.38721200  1
  V  V3  1  0.00000000  0.75681000  0.88721200  1
  C  C0  1  0.00000000  0.23281800  0.86111400  1
  C  C1  1  0.00000000  0.26718200  0.36111400  1
  C  C2  1  0.00000000  0.73281800  0.63888600  1
  C  C3  1  0.00000000  0.76718200  0.13888600  1
  O  O0  1  0.50000000  0.11780000  0.14282200  1
  O  O1  1  0.50000000  0.12774800  0.57906000  1
  O  O2  1  0.00000000  0.13265800  0.36196200  1
  O  O3  1  0.00000000  0.16070000  0.76750800  1
  O  O4  1  0.00000000  0.15699900  0.95329800  1
  O  O5  1  0.00000000  0.34300100  0.45329800  1
  O  O6  1  0.00000000  0.33930000  0.26750800  1
  O  O7  1  0.00000000  0.36734200  0.86196200  1
  O  O8  1  0.50000000  0.37225200  0.07906000  1
  O  O9  1  0.50000000  0.38220000  0.64282200  1
  O  O10  1  0.50000000  0.61780000  0.35717800  1
  O  O11  1  0.50000000  0.62774800  0.92094000  1
  O  O12  1  0.00000000  0.63265800  0.13803800  1
  O  O13  1  0.00000000  0.66070000  0.73249200  1
  O  O14  1  0.00000000  0.65699900  0.54670200  1
  O  O15  1  0.00000000  0.84300100  0.04670200  1
  O  O16  1  0.00000000  0.83930000  0.23249200  1
  O  O17  1  0.00000000  0.86734200  0.63803800  1
  O  O18  1  0.50000000  0.87225200  0.42094000  1
  O  O19  1  0.50000000  0.88220000  0.85717800  1
loop_
_geom_bond_atom_site_label_1
_geom_bond_atom_site_label_2
_geom_bond_distance
_geom_bond_site_symmetry_2
Li0 O0 1.980715 1_555
Li0 O18 2.087597 1_545
Li0 O2 2.130842 1_655
Li0 O2 2.130842 1_555
Li0 O16 2.223985 1_545
Li0 O16 2.223985 1_645
Li1 O19 2.044254 1_544
Li1 O0 2.044254 1_555
Li1 O15 2.159989 1_545
Li1 O15 2.159989 1_645
Li1 O4 2.159989 1_654
Li1 O4 2.159989 1_554
Li2 O2 2.077394 1_555
Li2 O17 2.077394 1_545
Li2 O1 2.124433 1_555
Li2 O1 2.124433 1_455
Li2 O18 2.124433 1_445
Li2 O18 2.124433 1_545
Li3 O19 1.980715 1_555
Li3 O1 2.087597 1_565
Li3 O17 2.130842 1_655
Li3 O17 2.130842 1_555
Li3 O3 2.223985 1_565
Li3 O3 2.223985 1_665
Li4 O10 1.980715 1_555
Li4 O8 2.087597 1_555
Li4 O12 2.130842 1_655
Li4 O12 2.130842 1_555
Li4 O6 2.223985 1_555
Li4 O6 2.223985 1_655
Li5 O9 2.044254 1_555
Li5 O10 2.044254 1_555
Li5 O14 2.159989 1_555
Li5 O5 2.159989 1_555
Li5 O5 2.159989 1_655
Li5 O14 2.159989 1_655
Li6 O12 2.077394 1_555
Li6 O7 2.077394 1_554
Li6 O11 2.124433 1_454
Li6 O11 2.124433 1_554
Li6 O8 2.124433 1_455
Li6 O8 2.124433 1_555
Li7 O9 1.980715 1_555
Li7 O11 2.087597 1_555
Li7 O7 2.130842 1_655
Li7 O7 2.130842 1_555
Li7 O13 2.223985 1_555
Li7 O13 2.223985 1_655
C0 O7 1.268083 1_555
C0 O3 1.314374 1_555
C0 O4 1.318359 1_555
C1 O2 1.268083 1_555
C1 O6 1.314374 1_555
C1 O5 1.318359 1_555
C2 O17 1.268083 1_555
C2 O13 1.314374 1_555
C2 O14 1.318359 1_555
C3 O12 1.268083 1_555
C3 O16 1.314374 1_555
C3 O15 1.318359 1_555
O0 V0 1.920347 1_655
O0 V0 1.920347 1_555
O1 V1 1.950582 1_555
O1 V1 1.950582 1_655
O3 V1 2.068336 1_555
O4 V0 2.081780 1_556
O5 V1 2.081780 1_555
O6 V0 2.068336 1_555
O8 V0 1.950582 1_655
O8 V0 1.950582 1_555
O9 V1 1.920347 1_555
O9 V1 1.920347 1_655
O10 V2 1.920347 1_555
O10 V2 1.920347 1_655
O11 V3 1.950582 1_555
O11 V3 1.950582 1_655
O13 V3 2.068336 1_555
O14 V2 2.081780 1_555
O15 V3 2.081780 1_554
O16 V2 2.068336 1_555
O18 V2 1.950582 1_655
O18 V2 1.950582 1_555
O19 V3 1.920347 1_655
O19 V3 1.920347 1_555
