# generated using pymatgen
data_La5Cu5O13
_symmetry_space_group_name_H-M   'P 1'
_cell_length_a   3.88753500
_cell_length_b   8.55194100
_cell_length_c   8.56540956
_cell_angle_alpha   89.78276755
_cell_angle_beta   90.00000000
_cell_angle_gamma   90.00000000
_symmetry_Int_Tables_number   1
_chemical_formula_structural   La5Cu5O13
_chemical_formula_sum   'La5 Cu5 O13'
_cell_volume   284.76330227
_cell_formula_units_Z   1
loop_
 _symmetry_equiv_pos_site_id
 _symmetry_equiv_pos_as_xyz
  1  'x, y, z'
loop_
 _atom_site_type_symbol
 _atom_site_label
 _atom_site_symmetry_multiplicity
 _atom_site_fract_x
 _atom_site_fract_y
 _atom_site_fract_z
 _atom_site_occupancy
  La  La0  1  0.50000000  0.72619400  0.13995400  1
  La  La1  1  0.50000000  0.13872900  0.27407600  1
  La  La2  1  0.50000000  0.50000000  0.50000000  1
  La  La3  1  0.50000000  0.86127100  0.72592400  1
  La  La4  1  0.50000000  0.27380600  0.86004600  1
  Cu  Cu0  1  0.00000000  0.00000000  0.00000000  1
  Cu  Cu1  1  0.00000000  0.42656600  0.16852200  1
  Cu  Cu2  1  0.00000000  0.83404500  0.42514200  1
  Cu  Cu3  1  0.00000000  0.16595500  0.57485800  1
  Cu  Cu4  1  0.00000000  0.57343400  0.83147800  1
  O  O0  1  0.50000000  0.00000000  0.00000000  1
  O  O1  1  0.00000000  0.24274800  0.04251000  1
  O  O2  1  0.50000000  0.42907700  0.18017400  1
  O  O3  1  0.00000000  0.95327900  0.23573500  1
  O  O4  1  0.00000000  0.60607700  0.29961600  1
  O  O5  1  0.00000000  0.28873100  0.38942600  1
  O  O6  1  0.50000000  0.82325400  0.42664500  1
  O  O7  1  0.50000000  0.17674600  0.57335500  1
  O  O8  1  0.00000000  0.71126900  0.61057400  1
  O  O9  1  0.00000000  0.39392300  0.70038400  1
  O  O10  1  0.00000000  0.04672100  0.76426500  1
  O  O11  1  0.50000000  0.57092300  0.81982600  1
  O  O12  1  0.00000000  0.75725200  0.95749000  1
loop_
_geom_bond_atom_site_label_1
_geom_bond_atom_site_label_2
_geom_bond_distance
_geom_bond_site_symmetry_2
La0 O12 2.507633 1_554
La0 O12 2.507633 1_654
La0 O2 2.562880 1_555
La0 O4 2.587090 1_655
La0 O4 2.587090 1_555
La0 O6 2.595099 1_555
La0 O0 2.626540 1_565
La0 O3 2.869635 1_655
La0 O3 2.869635 1_555
La0 O11 3.051157 1_554
La1 O3 2.530868 1_545
La1 O3 2.530868 1_645
La1 O5 2.531723 1_655
La1 O5 2.531723 1_555
La1 O7 2.585205 1_555
La1 O2 2.607154 1_555
La1 O0 2.634344 1_555
La1 O1 2.913809 1_655
La1 O1 2.913809 1_555
La1 O6 2.993297 1_545
La2 O4 2.745050 1_555
La2 O4 2.745050 1_655
La2 O9 2.745050 1_555
La2 O9 2.745050 1_655
La2 O11 2.808026 1_555
La2 O2 2.808026 1_555
La2 O8 2.820037 1_655
La2 O8 2.820037 1_555
La2 O5 2.820037 1_555
La2 O5 2.820037 1_655
La2 O6 2.832629 1_555
La2 O7 2.832629 1_555
La3 O10 2.530868 1_665
La3 O10 2.530868 1_565
La3 O8 2.531723 1_655
La3 O8 2.531723 1_555
La3 O6 2.585205 1_555
La3 O11 2.607154 1_555
La3 O0 2.634344 1_566
La3 O12 2.913809 1_655
La3 O12 2.913809 1_555
La3 O7 2.993297 1_565
La4 O1 2.507633 1_556
La4 O1 2.507633 1_656
La4 O11 2.562880 1_555
La4 O9 2.587090 1_555
La4 O9 2.587090 1_655
La4 O7 2.595099 1_555
La4 O0 2.626540 1_556
La4 O10 2.869635 1_555
La4 O10 2.869635 1_655
La4 O2 3.051157 1_556
Cu0 O0 1.943767 1_555
Cu0 O0 1.943767 1_455
Cu0 O3 2.056833 1_545
Cu0 O10 2.056833 1_554
Cu0 O1 2.109016 1_555
Cu0 O12 2.109016 1_544
Cu1 O4 1.905428 1_555
Cu1 O1 1.910245 1_555
Cu1 O2 1.946451 1_555
Cu1 O2 1.946451 1_455
Cu1 O5 2.225471 1_555
Cu2 O8 1.900657 1_555
Cu2 O3 1.912909 1_555
Cu2 O6 1.945997 1_555
Cu2 O6 1.945997 1_455
Cu2 O4 2.229962 1_555
Cu3 O5 1.900657 1_555
Cu3 O10 1.912909 1_555
Cu3 O7 1.945997 1_555
Cu3 O7 1.945997 1_455
Cu3 O9 2.229962 1_555
Cu4 O9 1.905428 1_555
Cu4 O12 1.910245 1_555
Cu4 O11 1.946451 1_555
Cu4 O11 1.946451 1_455
Cu4 O8 2.225471 1_555
