# generated using pymatgen
data_CsLiF2
_symmetry_space_group_name_H-M   'P 1'
_cell_length_a   5.98429726
_cell_length_b   6.53698572
_cell_length_c   8.09453345
_cell_angle_alpha   88.21946554
_cell_angle_beta   86.10767709
_cell_angle_gamma   62.75951452
_symmetry_Int_Tables_number   1
_chemical_formula_structural   CsLiF2
_chemical_formula_sum   'Cs4 Li4 F8'
_cell_volume   280.88392147
_cell_formula_units_Z   4
loop_
 _symmetry_equiv_pos_site_id
 _symmetry_equiv_pos_as_xyz
  1  'x, y, z'
loop_
 _atom_site_type_symbol
 _atom_site_label
 _atom_site_symmetry_multiplicity
 _atom_site_fract_x
 _atom_site_fract_y
 _atom_site_fract_z
 _atom_site_occupancy
  Cs  Cs0  1  0.32979239  0.81681463  0.56887980  1
  Cs  Cs1  1  0.85339199  0.81681463  0.93112020  1
  Cs  Cs2  1  0.67020761  0.18318537  0.43112020  1
  Cs  Cs3  1  0.14660801  0.18318537  0.06887980  1
  Li  Li0  1  0.44618686  0.59979488  0.13840587  1
  Li  Li1  1  0.55381314  0.40020512  0.86159413  1
  Li  Li2  1  0.04598274  0.40020512  0.63840587  1
  Li  Li3  1  0.95401726  0.59979488  0.36159413  1
  F  F0  1  0.13390225  0.73219551  0.25000000  1
  F  F1  1  0.32087300  0.35825601  0.75000000  1
  F  F2  1  0.86609775  0.26780449  0.75000000  1
  F  F3  1  0.67912700  0.64174399  0.25000000  1
  F  F4  1  0.13094807  0.28931625  0.42282652  1
  F  F5  1  0.57973568  0.28931625  0.07717348  1
  F  F6  1  0.86905193  0.71068375  0.57717348  1
  F  F7  1  0.42026432  0.71068375  0.92282652  1
loop_
_geom_bond_atom_site_label_1
_geom_bond_atom_site_label_2
_geom_bond_distance
_geom_bond_site_symmetry_2
Cs0 F7 2.953994 1_555
Cs0 F6 2.979408 1_555
Cs0 F4 2.992212 1_565
Cs0 F0 3.071780 1_555
Cs0 F3 3.098922 1_555
Cs0 F6 3.132277 1_455
Cs0 F2 3.281467 1_465
Cs0 F1 3.316708 1_555
Cs1 F6 2.953993 1_555
Cs1 F7 2.979402 1_555
Cs1 F5 2.992211 1_566
Cs1 F0 3.071783 1_656
Cs1 F3 3.098925 1_556
Cs1 F7 3.132282 1_655
Cs1 F2 3.281470 1_565
Cs1 F1 3.316715 1_655
Cs2 F5 2.953994 1_555
Cs2 F4 2.979408 1_555
Cs2 F6 2.992212 1_545
Cs2 F2 3.071780 1_555
Cs2 F1 3.098922 1_555
Cs2 F4 3.132277 1_655
Cs2 F0 3.281467 1_645
Cs2 F3 3.316708 1_555
Cs3 F4 2.953993 1_555
Cs3 F5 2.979402 1_555
Cs3 F7 2.992211 1_544
Cs3 F2 3.071783 1_454
Cs3 F1 3.098925 1_554
Cs3 F5 3.132282 1_455
Cs3 F0 3.281470 1_545
Cs3 F3 3.316715 1_455
F0 Li0 1.842872 1_555
F0 Li3 1.842877 1_455
F1 Li1 1.835926 1_555
F1 Li2 1.835931 1_555
F2 Li1 1.842872 1_555
F2 Li2 1.842877 1_655
F3 Li0 1.835926 1_555
F3 Li3 1.835931 1_555
F4 Li2 1.857362 1_555
F4 Li3 1.878155 1_455
F5 Li1 1.857362 1_554
F5 Li0 1.878155 1_555
F6 Li3 1.857362 1_555
F6 Li2 1.878155 1_655
F7 Li0 1.857362 1_556
F7 Li1 1.878155 1_555
