# generated using pymatgen
data_Li13Ni15O28
_symmetry_space_group_name_H-M   'P 1'
_cell_length_a   7.66995500
_cell_length_b   8.15507783
_cell_length_c   8.76603250
_cell_angle_alpha   103.33173826
_cell_angle_beta   105.16129647
_cell_angle_gamma   105.13737420
_symmetry_Int_Tables_number   1
_chemical_formula_structural   Li13Ni15O28
_chemical_formula_sum   'Li13 Ni15 O28'
_cell_volume   483.86035267
_cell_formula_units_Z   1
loop_
 _symmetry_equiv_pos_site_id
 _symmetry_equiv_pos_as_xyz
  1  'x, y, z'
loop_
 _atom_site_type_symbol
 _atom_site_label
 _atom_site_symmetry_multiplicity
 _atom_site_fract_x
 _atom_site_fract_y
 _atom_site_fract_z
 _atom_site_occupancy
  Li  Li0  1  0.85728900  0.07358700  0.92736700  1
  Li  Li1  1  0.78847900  0.85547200  0.14226300  1
  Li  Li2  1  0.57019900  0.21581600  0.78383000  1
  Li  Li3  1  0.71182300  0.64323600  0.35656600  1
  Li  Li4  1  0.42980100  0.78418400  0.21617000  1
  Li  Li5  1  0.64574400  0.42847800  0.57362100  1
  Li  Li6  1  0.21152100  0.14452800  0.85773700  1
  Li  Li7  1  0.92823200  0.28713700  0.71535500  1
  Li  Li8  1  0.14271100  0.92641300  0.07263300  1
  Li  Li9  1  0.35425600  0.57152200  0.42637900  1
  Li  Li10  1  0.28817700  0.35676400  0.64343400  1
  Li  Li11  1  0.07176800  0.71286300  0.28464500  1
  Li  Li12  1  0.00000000  0.50000000  0.50000000  1
  Ni  Ni0  1  0.85377500  0.56916500  0.92558700  1
  Ni  Ni1  1  0.78706100  0.35720200  0.14221300  1
  Ni  Ni2  1  0.56827500  0.71503800  0.78302500  1
  Ni  Ni3  1  0.50000000  0.00000000  0.00000000  1
  Ni  Ni4  1  0.71880900  0.14155400  0.35547500  1
  Ni  Ni5  1  0.50000000  0.50000000  0.00000000  1
  Ni  Ni6  1  0.63800500  0.92896800  0.57212200  1
  Ni  Ni7  1  0.43172500  0.28496200  0.21697500  1
  Ni  Ni8  1  0.21293900  0.64279800  0.85778700  1
  Ni  Ni9  1  0.36199500  0.07103200  0.42787800  1
  Ni  Ni10  1  0.14622500  0.43083500  0.07441300  1
  Ni  Ni11  1  0.92476000  0.78352900  0.71388400  1
  Ni  Ni12  1  0.07524000  0.21647100  0.28611600  1
  Ni  Ni13  1  0.28119100  0.85844600  0.64452500  1
  Ni  Ni14  1  0.00000000  0.00000000  0.50000000  1
  O  O0  1  0.84348500  0.80525600  0.90788800  1
  O  O1  1  0.86522500  0.33562100  0.94411700  1
  O  O2  1  0.57237800  0.46741500  0.80356900  1
  O  O3  1  0.77106900  0.58587300  0.13632100  1
  O  O4  1  0.54881700  0.96256400  0.77835800  1
  O  O5  1  0.78866800  0.12383700  0.13941500  1
  O  O6  1  0.70534400  0.37221700  0.34158100  1
  O  O7  1  0.73571300  0.91142300  0.36376700  1
  O  O8  1  0.91001400  0.01757000  0.70402400  1
  O  O9  1  0.50779100  0.75055300  0.98308400  1
  O  O10  1  0.49220900  0.24944700  0.01691600  1
  O  O11  1  0.45118300  0.03743600  0.22164200  1
  O  O12  1  0.22893100  0.41412700  0.86367900  1
  O  O13  1  0.42762200  0.53258500  0.19643100  1
  O  O14  1  0.21133200  0.87616300  0.86058500  1
  O  O15  1  0.63187000  0.15909000  0.56216800  1
  O  O16  1  0.63056500  0.69460300  0.58063000  1
  O  O17  1  0.36943500  0.30539700  0.41937000  1
  O  O18  1  0.36813000  0.84091000  0.43783200  1
  O  O19  1  0.13477500  0.66437900  0.05588300  1
  O  O20  1  0.92782400  0.54786900  0.71501000  1
  O  O21  1  0.15651500  0.19474400  0.09211200  1
  O  O22  1  0.29465600  0.62778300  0.65841900  1
  O  O23  1  0.08998600  0.98243000  0.29597600  1
  O  O24  1  0.26428700  0.08857700  0.63623300  1
  O  O25  1  0.07217600  0.45213100  0.28499000  1
  O  O26  1  0.99460500  0.23818000  0.48076500  1
  O  O27  1  0.00539500  0.76182000  0.51923500  1
loop_
_geom_bond_atom_site_label_1
_geom_bond_atom_site_label_2
_geom_bond_distance
_geom_bond_site_symmetry_2
Li0 O5 2.042852 1_556
Li0 O8 2.074485 1_555
Li0 O1 2.091490 1_555
Li0 O0 2.127456 1_545
Li0 O21 2.180147 1_656
Li0 O4 2.200686 1_545
Li1 O9 2.056694 1_554
Li1 O7 2.059402 1_555
Li1 O3 2.155135 1_555
Li1 O23 2.170639 1_655
Li1 O0 2.173118 1_554
Li1 O5 2.194056 1_565
Li2 O2 2.014197 1_555
Li2 O4 2.016909 1_545
Li2 O15 2.096156 1_555
Li2 O1 2.144388 1_555
Li2 O24 2.185718 1_555
Li2 O10 2.252649 1_556
Li3 O3 2.075148 1_555
Li3 O13 2.079499 1_555
Li3 O7 2.131170 1_555
Li3 O27 2.141483 1_655
Li3 O6 2.170243 1_555
Li3 O16 2.195229 1_555
Li4 O13 2.014197 1_555
Li4 O11 2.016909 1_565
Li4 O18 2.096156 1_555
Li4 O19 2.144388 1_555
Li4 O7 2.185718 1_555
Li4 O9 2.252649 1_554
Li5 O17 2.022712 1_555
Li5 O20 2.026256 1_555
Li5 O15 2.149020 1_555
Li5 O6 2.173116 1_555
Li5 O16 2.191257 1_555
Li5 O2 2.207283 1_555
Li6 O10 2.056694 1_556
Li6 O24 2.059402 1_555
Li6 O12 2.155135 1_555
Li6 O8 2.170639 1_455
Li6 O21 2.173118 1_556
Li6 O14 2.194056 1_545
Li7 O20 2.127807 1_555
Li7 O15 2.139527 1_555
Li7 O8 2.143292 1_555
Li7 O12 2.155298 1_655
Li7 O1 2.156916 1_555
Li7 O26 2.218681 1_555
Li8 O14 2.042852 1_554
Li8 O23 2.074485 1_555
Li8 O19 2.091490 1_555
Li8 O21 2.127456 1_565
Li8 O0 2.180147 1_454
Li8 O11 2.200686 1_565
Li9 O16 2.022712 1_555
Li9 O25 2.026256 1_555
Li9 O18 2.149020 1_555
Li9 O22 2.173116 1_555
Li9 O17 2.191257 1_555
Li9 O13 2.207283 1_555
Li10 O12 2.075148 1_555
Li10 O2 2.079499 1_555
Li10 O24 2.131170 1_555
Li10 O26 2.141483 1_455
Li10 O22 2.170243 1_555
Li10 O17 2.195229 1_555
Li11 O25 2.127807 1_555
Li11 O18 2.139527 1_555
Li11 O23 2.143292 1_555
Li11 O3 2.155298 1_455
Li11 O19 2.156916 1_555
Li11 O27 2.218681 1_555
Li12 O25 2.081004 1_555
Li12 O20 2.081004 1_455
Li12 O26 2.091228 1_455
Li12 O27 2.091228 1_555
Li12 O22 2.140792 1_555
Li12 O6 2.140792 1_455
Ni0 O1 1.970799 1_555
Ni0 O2 1.984611 1_555
Ni0 O0 1.986946 1_555
Ni0 O19 1.995482 1_656
Ni0 O20 2.052372 1_555
Ni0 O3 2.091772 1_556
Ni1 O5 1.900911 1_555
Ni1 O3 1.912033 1_555
Ni1 O1 1.965858 1_554
Ni1 O6 1.994122 1_555
Ni1 O25 2.045801 1_655
Ni1 O10 2.076216 1_555
Ni2 O9 1.906863 1_555
Ni2 O16 1.937118 1_555
Ni2 O22 1.940702 1_555
Ni2 O0 1.950390 1_555
Ni2 O4 2.071448 1_555
Ni2 O2 2.075880 1_555
Ni3 O10 2.023062 1_555
Ni3 O9 2.023062 1_544
Ni3 O11 2.043284 1_555
Ni3 O4 2.043284 1_544
Ni3 O5 2.064760 1_555
Ni3 O14 2.064760 1_544
Ni4 O11 1.918721 1_555
Ni4 O7 1.931138 1_545
Ni4 O6 1.940227 1_555
Ni4 O26 1.953698 1_555
Ni4 O15 2.076121 1_555
Ni4 O5 2.083322 1_555
Ni5 O2 1.926092 1_554
Ni5 O13 1.926092 1_555
Ni5 O12 1.948103 1_554
Ni5 O3 1.948103 1_555
Ni5 O9 2.069094 1_554
Ni5 O10 2.069094 1_555
Ni6 O15 1.910807 1_565
Ni6 O16 1.916443 1_555
Ni6 O18 1.935281 1_555
Ni6 O8 1.943513 1_565
Ni6 O4 2.080326 1_555
Ni6 O7 2.137628 1_555
Ni7 O10 1.906863 1_555
Ni7 O17 1.937118 1_555
Ni7 O6 1.940702 1_555
Ni7 O21 1.950390 1_555
Ni7 O11 2.071448 1_555
Ni7 O13 2.075880 1_555
Ni8 O14 1.900911 1_555
Ni8 O12 1.912033 1_555
Ni8 O19 1.965858 1_556
Ni8 O22 1.994122 1_555
Ni8 O20 2.045801 1_455
Ni8 O9 2.076216 1_555
Ni9 O18 1.910807 1_545
Ni9 O17 1.916443 1_555
Ni9 O15 1.935281 1_555
Ni9 O23 1.943513 1_545
Ni9 O11 2.080326 1_555
Ni9 O24 2.137628 1_555
Ni10 O19 1.970799 1_555
Ni10 O13 1.984611 1_555
Ni10 O21 1.986946 1_555
Ni10 O1 1.995482 1_454
Ni10 O25 2.052372 1_555
Ni10 O12 2.091772 1_554
Ni11 O20 1.930357 1_555
Ni11 O0 1.945620 1_555
Ni11 O27 1.948119 1_655
Ni11 O8 1.961329 1_565
Ni11 O14 2.064433 1_655
Ni11 O16 2.087582 1_555
Ni12 O25 1.930357 1_555
Ni12 O21 1.945620 1_555
Ni12 O26 1.948119 1_455
Ni12 O23 1.961329 1_545
Ni12 O5 2.064433 1_455
Ni12 O17 2.087582 1_555
Ni13 O4 1.918721 1_555
Ni13 O24 1.931138 1_565
Ni13 O22 1.940227 1_555
Ni13 O27 1.953698 1_555
Ni13 O18 2.076121 1_555
Ni13 O14 2.083322 1_555
Ni14 O24 1.904772 1_555
Ni14 O7 1.904772 1_445
Ni14 O27 1.998084 1_545
Ni14 O26 1.998084 1_455
Ni14 O8 2.067535 1_455
Ni14 O23 2.067535 1_545
