# generated using pymatgen
data_Mn7V(PO4)12
_symmetry_space_group_name_H-M   'P 1'
_cell_length_a   8.45042600
_cell_length_b   8.47939307
_cell_length_c   11.78100089
_cell_angle_alpha   90.05504852
_cell_angle_beta   90.02836824
_cell_angle_gamma   90.04000856
_symmetry_Int_Tables_number   1
_chemical_formula_structural   Mn7V(PO4)12
_chemical_formula_sum   'Mn7 V1 P12 O48'
_cell_volume   844.16083603
_cell_formula_units_Z   1
loop_
 _symmetry_equiv_pos_site_id
 _symmetry_equiv_pos_as_xyz
  1  'x, y, z'
loop_
 _atom_site_type_symbol
 _atom_site_label
 _atom_site_symmetry_multiplicity
 _atom_site_fract_x
 _atom_site_fract_y
 _atom_site_fract_z
 _atom_site_occupancy
  Mn  Mn0  1  0.96621800  0.25003800  0.38086000  1
  Mn  Mn1  1  0.53437500  0.25059500  0.61858100  1
  Mn  Mn2  1  0.03491800  0.24981800  0.88178100  1
  Mn  Mn3  1  0.46621100  0.24974700  0.11847100  1
  Mn  Mn4  1  0.53458000  0.75017700  0.88086800  1
  Mn  Mn5  1  0.96629200  0.75038800  0.11795300  1
  Mn  Mn6  1  0.03400700  0.74973300  0.61831200  1
  V  V0  1  0.46927700  0.74971500  0.37794000  1
  P  P0  1  0.24790800  0.03744200  0.50067900  1
  P  P1  1  0.39134700  0.10618500  0.85472700  1
  P  P2  1  0.10869500  0.10651700  0.14502600  1
  P  P3  1  0.60858400  0.38937600  0.35451300  1
  P  P4  1  0.89156600  0.39327800  0.64484300  1
  P  P5  1  0.75015800  0.46381300  0.99983200  1
  P  P6  1  0.25041400  0.53666800  0.99985400  1
  P  P7  1  0.39212400  0.60585800  0.64562400  1
  P  P8  1  0.10520900  0.60509700  0.35472200  1
  P  P9  1  0.61059100  0.89648800  0.14241200  1
  P  P10  1  0.89164300  0.89353200  0.85457900  1
  P  P11  1  0.75267800  0.96547800  0.50135400  1
  O  O0  1  0.64361100  0.06204300  0.57808400  1
  O  O1  1  0.85771700  0.05930000  0.42022200  1
  O  O2  1  0.90085400  0.07525000  0.83984200  1
  O  O3  1  0.60139400  0.07625400  0.15762100  1
  O  O4  1  0.15937300  0.14494400  0.41680600  1
  O  O5  1  0.34120400  0.14572500  0.58140700  1
  O  O6  1  0.43858600  0.15884200  0.97343600  1
  O  O7  1  0.06148200  0.15865500  0.02604300  1
  O  O8  1  0.22094800  0.15109500  0.82368700  1
  O  O9  1  0.27935900  0.15073000  0.17597200  1
  O  O10  1  0.51358700  0.17929700  0.77237600  1
  O  O11  1  0.98599300  0.17959500  0.22680000  1
  O  O12  1  0.01405600  0.32060700  0.72746500  1
  O  O13  1  0.48622400  0.31785800  0.27276900  1
  O  O14  1  0.78054500  0.35163900  0.32405400  1
  O  O15  1  0.72103600  0.34930500  0.67633600  1
  O  O16  1  0.56311500  0.33999300  0.47417800  1
  O  O17  1  0.93923100  0.33989800  0.52629700  1
  O  O18  1  0.84065600  0.35334000  0.91814600  1
  O  O19  1  0.65907600  0.35488700  0.08154700  1
  O  O20  1  0.10126800  0.42428300  0.34017200  1
  O  O21  1  0.39946200  0.42450000  0.65758100  1
  O  O22  1  0.14065200  0.44064200  0.92260800  1
  O  O23  1  0.35893800  0.44050900  0.07741400  1
  O  O24  1  0.64135000  0.55971900  0.92206500  1
  O  O25  1  0.85967700  0.55997800  0.07708000  1
  O  O26  1  0.59095900  0.57251700  0.34400900  1
  O  O27  1  0.90086800  0.57481500  0.65977600  1
  O  O28  1  0.34050700  0.64626500  0.91749200  1
  O  O29  1  0.16029900  0.64653000  0.08228200  1
  O  O30  1  0.05874400  0.65742600  0.47380400  1
  O  O31  1  0.43899900  0.66287200  0.52621800  1
  O  O32  1  0.22166400  0.65176900  0.67496700  1
  O  O33  1  0.27906900  0.65304700  0.32965000  1
  O  O34  1  0.51447700  0.67972500  0.72694500  1
  O  O35  1  0.98682100  0.68215800  0.27261700  1
  O  O36  1  0.01424300  0.82015800  0.77264100  1
  O  O37  1  0.49302200  0.82221100  0.23056900  1
  O  O38  1  0.72105100  0.84920600  0.82375100  1
  O  O39  1  0.77923500  0.84831400  0.17518600  1
  O  O40  1  0.55891200  0.83915700  0.02613400  1
  O  O41  1  0.93888800  0.84171200  0.97351800  1
  O  O42  1  0.65169900  0.85564600  0.42324900  1
  O  O43  1  0.84115800  0.85336300  0.58156100  1
  O  O44  1  0.10038600  0.92505200  0.15911300  1
  O  O45  1  0.40020600  0.92463300  0.84009200  1
  O  O46  1  0.13856800  0.94184400  0.57811900  1
  O  O47  1  0.35404100  0.93274900  0.42536700  1
loop_
_geom_bond_atom_site_label_1
_geom_bond_atom_site_label_2
_geom_bond_distance
_geom_bond_site_symmetry_2
Mn0 O17 1.888498 1_555
Mn0 O4 1.907810 1_655
Mn0 O14 1.911503 1_555
Mn0 O1 1.916063 1_555
Mn0 O11 1.917608 1_555
Mn0 O20 1.927358 1_655
Mn1 O16 1.878926 1_555
Mn1 O0 1.907074 1_555
Mn1 O5 1.908850 1_555
Mn1 O15 1.909872 1_555
Mn1 O10 1.918713 1_555
Mn1 O21 1.920131 1_555
Mn2 O7 1.881168 1_556
Mn2 O8 1.908469 1_555
Mn2 O22 1.908900 1_555
Mn2 O18 1.910734 1_455
Mn2 O12 1.923127 1_555
Mn2 O2 1.927267 1_455
Mn3 O6 1.888118 1_554
Mn3 O19 1.907794 1_555
Mn3 O9 1.912409 1_555
Mn3 O13 1.914167 1_555
Mn3 O23 1.917101 1_555
Mn3 O3 1.919638 1_555
Mn4 O40 1.880775 1_556
Mn4 O38 1.908193 1_555
Mn4 O28 1.910898 1_555
Mn4 O24 1.913334 1_555
Mn4 O34 1.916117 1_555
Mn4 O45 1.926554 1_555
Mn5 O41 1.884430 1_554
Mn5 O29 1.908378 1_655
Mn5 O39 1.909077 1_555
Mn5 O25 1.909559 1_555
Mn5 O35 1.920079 1_555
Mn5 O44 1.925718 1_655
Mn6 O30 1.884856 1_555
Mn6 O43 1.901951 1_455
Mn6 O32 1.911040 1_555
Mn6 O46 1.912698 1_555
Mn6 O36 1.920552 1_555
Mn6 O27 1.924555 1_455
O0 P11 1.528892 1_545
O1 P11 1.528294 1_545
O2 P10 1.552677 1_545
O3 P9 1.536655 1_545
O4 P0 1.539148 1_555
O5 P0 1.538077 1_555
O6 P1 1.520705 1_555
O7 P2 1.523280 1_555
O8 P1 1.533848 1_555
O9 P2 1.533564 1_555
O10 P1 1.547216 1_555
O11 P2 1.545297 1_655
O12 P4 1.549071 1_455
O13 P3 1.536664 1_555
O14 P3 1.530924 1_555
O15 P4 1.534065 1_555
O16 P3 1.520488 1_555
O17 P4 1.522227 1_555
O18 P5 1.545454 1_555
O19 P5 1.540684 1_554
O20 P8 1.542916 1_555
O21 P7 1.545663 1_555
O22 P6 1.532371 1_555
O23 P6 1.530493 1_554
O24 P5 1.532247 1_555
O25 P5 1.531771 1_554
O26 P3 1.565166 1_555
O26 V0 1.864439 1_555
O27 P4 1.551110 1_555
O28 P6 1.544738 1_555
O29 P6 1.546188 1_554
O30 P8 1.522759 1_555
O31 P7 1.539832 1_555
O31 V0 1.913608 1_555
O32 P7 1.531991 1_555
O33 P8 1.552710 1_555
O33 V0 1.890882 1_555
O34 P7 1.541473 1_555
O35 P8 1.537735 1_655
O36 P10 1.546931 1_455
O37 P9 1.569645 1_555
O37 V0 1.853290 1_555
O38 P10 1.532897 1_555
O39 P9 1.532143 1_555
O40 P9 1.517043 1_555
O41 P10 1.522091 1_555
O42 P11 1.561613 1_555
O42 V0 1.861298 1_555
O43 P11 1.535482 1_555
O44 P2 1.549342 1_565
O45 P1 1.550775 1_565
O46 P0 1.531128 1_565
O47 P0 1.542739 1_565
O47 V0 1.915777 1_555
