# generated using pymatgen
data_Mn6OF11
_symmetry_space_group_name_H-M   'P 1'
_cell_length_a   5.90234500
_cell_length_b   4.94857100
_cell_length_c   16.23636364
_cell_angle_alpha   89.41591844
_cell_angle_beta   90.00000000
_cell_angle_gamma   90.00000000
_symmetry_Int_Tables_number   1
_chemical_formula_structural   Mn6OF11
_chemical_formula_sum   'Mn12 O2 F22'
_cell_volume   474.20988176
_cell_formula_units_Z   2
loop_
 _symmetry_equiv_pos_site_id
 _symmetry_equiv_pos_as_xyz
  1  'x, y, z'
loop_
 _atom_site_type_symbol
 _atom_site_label
 _atom_site_symmetry_multiplicity
 _atom_site_fract_x
 _atom_site_fract_y
 _atom_site_fract_z
 _atom_site_occupancy
  Mn  Mn0  1  0.18479000  0.02600800  0.17115200  1
  Mn  Mn1  1  0.83261700  0.00000000  0.00000000  1
  Mn  Mn2  1  0.18479000  0.97399200  0.82884800  1
  Mn  Mn3  1  0.17112500  0.00000000  0.50000000  1
  Mn  Mn4  1  0.83232200  0.00362000  0.33302400  1
  Mn  Mn5  1  0.83232200  0.99638000  0.66697600  1
  Mn  Mn6  1  0.33344900  0.48351300  0.32714600  1
  Mn  Mn7  1  0.33344900  0.51648700  0.67285400  1
  Mn  Mn8  1  0.32841400  0.50000000  0.00000000  1
  Mn  Mn9  1  0.64519700  0.50483800  0.83159900  1
  Mn  Mn10  1  0.64519700  0.49516200  0.16840100  1
  Mn  Mn11  1  0.66032600  0.50000000  0.50000000  1
  O  O0  1  0.41029100  0.29587400  0.21680800  1
  O  O1  1  0.41029100  0.70412600  0.78319200  1
  F  F0  1  0.10588100  0.22080200  0.05559100  1
  F  F1  1  0.10480400  0.23256100  0.38981500  1
  F  F2  1  0.11710500  0.21124800  0.72319100  1
  F  F3  1  0.87299900  0.24402800  0.88493700  1
  F  F4  1  0.89278900  0.24259300  0.22109400  1
  F  F5  1  0.88963900  0.22646000  0.55635500  1
  F  F6  1  0.39144500  0.25933500  0.89314800  1
  F  F7  1  0.61368900  0.28009700  0.05785200  1
  F  F8  1  0.60390900  0.26306900  0.39233900  1
  F  F9  1  0.38486300  0.27828500  0.56242800  1
  F  F10  1  0.62058700  0.27164100  0.72697400  1
  F  F11  1  0.61368900  0.71990300  0.94214800  1
  F  F12  1  0.39144500  0.74066500  0.10685200  1
  F  F13  1  0.62058700  0.72835900  0.27302600  1
  F  F14  1  0.60390900  0.73693100  0.60766100  1
  F  F15  1  0.38486300  0.72171500  0.43757200  1
  F  F16  1  0.10588100  0.77919800  0.94440900  1
  F  F17  1  0.11710500  0.78875200  0.27680900  1
  F  F18  1  0.87299900  0.75597200  0.11506300  1
  F  F19  1  0.89278900  0.75740700  0.77890600  1
  F  F20  1  0.10480400  0.76743900  0.61018500  1
  F  F21  1  0.88963900  0.77354000  0.44364500  1
loop_
_geom_bond_atom_site_label_1
_geom_bond_atom_site_label_2
_geom_bond_distance
_geom_bond_site_symmetry_2
Mn0 O0 2.030921 1_555
Mn2 O1 2.030921 1_555
Mn6 O0 2.076354 1_555
Mn7 O1 2.076354 1_555
Mn9 O1 1.869991 1_555
Mn10 O0 1.869991 1_555
F0 Mn8 2.103177 1_555
F0 Mn0 2.151677 1_555
F0 Mn1 2.151772 1_455
F1 Mn6 2.091182 1_555
F1 Mn3 2.153192 1_555
F1 Mn4 2.177529 1_455
F2 Mn2 2.107104 1_545
F2 Mn7 2.134236 1_555
F2 Mn5 2.192903 1_445
F3 Mn9 2.049584 1_555
F3 Mn1 2.226943 1_556
F3 Mn2 2.454898 1_645
F4 Mn10 2.099501 1_555
F4 Mn4 2.187408 1_555
F4 Mn0 2.189608 1_655
F5 Mn11 2.115706 1_555
F5 Mn5 2.143597 1_545
F5 Mn3 2.207790 1_655
F6 Mn2 2.145142 1_545
F6 Mn8 2.146794 1_556
F6 Mn9 2.166349 1_555
F7 Mn10 2.104259 1_555
F7 Mn1 2.121275 1_555
F7 Mn8 2.209254 1_555
F8 Mn4 2.102062 1_555
F8 Mn11 2.140780 1_555
F8 Mn6 2.198915 1_555
F9 Mn3 2.131622 1_555
F9 Mn7 2.176971 1_555
F9 Mn11 2.202722 1_555
F10 Mn9 2.068440 1_555
F10 Mn5 2.096020 1_545
F10 Mn7 2.256280 1_555
F11 Mn9 2.104259 1_555
F11 Mn1 2.121275 1_566
F11 Mn8 2.209254 1_556
F12 Mn0 2.145142 1_565
F12 Mn8 2.146794 1_555
F12 Mn10 2.166349 1_555
F13 Mn10 2.068440 1_555
F13 Mn4 2.096020 1_565
F13 Mn6 2.256280 1_555
F14 Mn5 2.102062 1_555
F14 Mn11 2.140780 1_555
F14 Mn7 2.198915 1_555
F15 Mn3 2.131622 1_565
F15 Mn6 2.176971 1_555
F15 Mn11 2.202722 1_555
F16 Mn8 2.103177 1_556
F16 Mn2 2.151677 1_555
F16 Mn1 2.151772 1_466
F17 Mn0 2.107104 1_565
F17 Mn6 2.134236 1_555
F17 Mn4 2.192903 1_465
F18 Mn10 2.049584 1_555
F18 Mn1 2.226943 1_565
F18 Mn0 2.454898 1_665
F19 Mn9 2.099501 1_555
F19 Mn5 2.187408 1_555
F19 Mn2 2.189608 1_655
F20 Mn7 2.091182 1_555
F20 Mn3 2.153192 1_565
F20 Mn5 2.177529 1_455
F21 Mn11 2.115706 1_555
F21 Mn4 2.143597 1_565
F21 Mn3 2.207790 1_665
