# generated using pymatgen
data_BaTeO4
_symmetry_space_group_name_H-M   'P 1'
_cell_length_a   5.06221521
_cell_length_b   5.99995237
_cell_length_c   13.69017125
_cell_angle_alpha   90.00000000
_cell_angle_beta   90.00000000
_cell_angle_gamma   90.00000000
_symmetry_Int_Tables_number   1
_chemical_formula_structural   BaTeO4
_chemical_formula_sum   'Ba4 Te4 O16'
_cell_volume   415.81225789
_cell_formula_units_Z   4
loop_
 _symmetry_equiv_pos_site_id
 _symmetry_equiv_pos_as_xyz
  1  'x, y, z'
loop_
 _atom_site_type_symbol
 _atom_site_label
 _atom_site_symmetry_multiplicity
 _atom_site_fract_x
 _atom_site_fract_y
 _atom_site_fract_z
 _atom_site_occupancy
  Ba  Ba0  1  0.25000000  0.00000000  0.16360909  1
  Ba  Ba1  1  0.75000000  0.00000000  0.83639091  1
  Ba  Ba2  1  0.25000000  0.50000000  0.66360909  1
  Ba  Ba3  1  0.75000000  0.50000000  0.33639091  1
  Te  Te0  1  0.25000000  0.00000000  0.43330291  1
  Te  Te1  1  0.75000000  0.00000000  0.56669709  1
  Te  Te2  1  0.75000000  0.50000000  0.06669709  1
  Te  Te3  1  0.25000000  0.50000000  0.93330291  1
  O  O0  1  0.35263546  0.20732991  0.34031566  1
  O  O1  1  0.85263546  0.20732991  0.65968434  1
  O  O2  1  0.92663076  0.17320797  0.45977222  1
  O  O3  1  0.42663076  0.17320797  0.54022778  1
  O  O4  1  0.42663076  0.32679203  0.04022778  1
  O  O5  1  0.92663076  0.32679203  0.95977222  1
  O  O6  1  0.85263546  0.29267009  0.15968434  1
  O  O7  1  0.35263546  0.29267009  0.84031566  1
  O  O8  1  0.64736454  0.70732991  0.15968434  1
  O  O9  1  0.14736454  0.70732991  0.84031566  1
  O  O10  1  0.07336924  0.67320797  0.04022778  1
  O  O11  1  0.57336924  0.67320797  0.95977222  1
  O  O12  1  0.57336924  0.82679203  0.45977222  1
  O  O13  1  0.07336924  0.82679203  0.54022778  1
  O  O14  1  0.14736454  0.79267009  0.34031566  1
  O  O15  1  0.64736454  0.79267009  0.65968434  1
loop_
_geom_bond_atom_site_label_1
_geom_bond_atom_site_label_2
_geom_bond_distance
_geom_bond_site_symmetry_2
Ba0 O6 2.670723 1_455
Ba0 O8 2.670723 1_545
Ba0 O4 2.738079 1_555
Ba0 O10 2.738079 1_545
Ba0 O0 2.769415 1_555
Ba0 O14 2.769415 1_545
Ba1 O7 2.670723 1_555
Ba1 O9 2.670723 1_645
Ba1 O5 2.738079 1_555
Ba1 O11 2.738079 1_545
Ba1 O1 2.769415 1_555
Ba1 O15 2.769415 1_545
Ba2 O15 2.670723 1_555
Ba2 O1 2.670723 1_455
Ba2 O13 2.738079 1_555
Ba2 O3 2.738079 1_555
Ba2 O9 2.769415 1_555
Ba2 O7 2.769415 1_555
Ba3 O0 2.670723 1_555
Ba3 O14 2.670723 1_655
Ba3 O12 2.738079 1_555
Ba3 O2 2.738079 1_555
Ba3 O6 2.769415 1_555
Ba3 O8 2.769415 1_555
O0 Te0 1.854175 1_555
O1 Te1 1.854175 1_555
O2 Te0 1.972558 1_655
O2 Te1 2.005562 1_555
O3 Te1 1.972558 1_555
O3 Te0 2.005562 1_555
O4 Te2 1.972558 1_555
O4 Te3 2.005562 1_554
O5 Te3 1.972558 1_655
O5 Te2 2.005562 1_556
O6 Te2 1.854175 1_555
O7 Te3 1.854175 1_555
O8 Te2 1.854175 1_555
O9 Te3 1.854175 1_555
O10 Te2 1.972558 1_455
O10 Te3 2.005562 1_554
O11 Te3 1.972558 1_555
O11 Te2 2.005562 1_556
O12 Te0 1.972558 1_565
O12 Te1 2.005562 1_565
O13 Te1 1.972558 1_465
O13 Te0 2.005562 1_565
O14 Te0 1.854175 1_565
O15 Te1 1.854175 1_565
