# generated using pymatgen
data_Li4Co7O16
_symmetry_space_group_name_H-M   'P 1'
_cell_length_a   8.10579500
_cell_length_b   8.04508700
_cell_length_c   8.09718468
_cell_angle_alpha   89.63792511
_cell_angle_beta   90.00000000
_cell_angle_gamma   90.00000000
_symmetry_Int_Tables_number   1
_chemical_formula_structural   Li4Co7O16
_chemical_formula_sum   'Li8 Co14 O32'
_cell_volume   528.02165483
_cell_formula_units_Z   2
loop_
 _symmetry_equiv_pos_site_id
 _symmetry_equiv_pos_as_xyz
  1  'x, y, z'
loop_
 _atom_site_type_symbol
 _atom_site_label
 _atom_site_symmetry_multiplicity
 _atom_site_fract_x
 _atom_site_fract_y
 _atom_site_fract_z
 _atom_site_occupancy
  Li  Li0  1  0.49812100  0.25447200  0.50087800  1
  Li  Li1  1  0.25199900  0.00047600  0.25059800  1
  Li  Li2  1  0.75199900  0.99952400  0.74940200  1
  Li  Li3  1  0.99812100  0.74552800  0.49912200  1
  Li  Li4  1  0.37263000  0.62098700  0.37621300  1
  Li  Li5  1  0.74807500  0.49666800  0.25503800  1
  Li  Li6  1  0.24807500  0.50333200  0.74496200  1
  Li  Li7  1  0.87263000  0.37901300  0.62378700  1
  Co  Co0  1  0.87673400  0.12302000  0.37500900  1
  Co  Co1  1  0.12694300  0.12739300  0.61958700  1
  Co  Co2  1  0.37904800  0.12943900  0.87635800  1
  Co  Co3  1  0.87904800  0.87056100  0.12364200  1
  Co  Co4  1  0.62694300  0.87260700  0.38041300  1
  Co  Co5  1  0.37673400  0.87698000  0.62499100  1
  Co  Co6  1  0.49935300  0.75467800  0.00732400  1
  Co  Co7  1  0.11808600  0.62744500  0.12050100  1
  Co  Co8  1  0.87465600  0.62747600  0.88266500  1
  Co  Co9  1  0.63025500  0.62769200  0.63198600  1
  Co  Co10  1  0.13025500  0.37230800  0.36801400  1
  Co  Co11  1  0.37465600  0.37252400  0.11733500  1
  Co  Co12  1  0.61808600  0.37255500  0.87949900  1
  Co  Co13  1  0.99935300  0.24532200  0.99267600  1
  O  O0  1  0.36246500  0.14909600  0.09558300  1
  O  O1  1  0.59958400  0.15148400  0.86358300  1
  O  O2  1  0.11308600  0.13602100  0.38583400  1
  O  O3  1  0.90382000  0.11274600  0.60088200  1
  O  O4  1  0.14068000  0.13751500  0.85501100  1
  O  O5  1  0.36123100  0.11170600  0.64237800  1
  O  O6  1  0.89060000  0.10508800  0.14074300  1
  O  O7  1  0.65655200  0.10098500  0.38631400  1
  O  O8  1  0.15655200  0.89901500  0.61368600  1
  O  O9  1  0.39060000  0.89491200  0.85925700  1
  O  O10  1  0.86123100  0.88829400  0.35762200  1
  O  O11  1  0.64068000  0.86248500  0.14498900  1
  O  O12  1  0.40382000  0.88725400  0.39911800  1
  O  O13  1  0.61308600  0.86397900  0.61416600  1
  O  O14  1  0.09958400  0.84851600  0.13641700  1
  O  O15  1  0.86246500  0.85090400  0.90441700  1
  O  O16  1  0.63061500  0.64879500  0.40101400  1
  O  O17  1  0.39574800  0.65414100  0.62972700  1
  O  O18  1  0.88684600  0.63519600  0.11617200  1
  O  O19  1  0.09392800  0.61528100  0.89749700  1
  O  O20  1  0.85363800  0.63273300  0.65190400  1
  O  O21  1  0.63603000  0.61249700  0.87045500  1
  O  O22  1  0.12002800  0.59545000  0.35143800  1
  O  O23  1  0.35409000  0.61342800  0.11731200  1
  O  O24  1  0.85409000  0.38657200  0.88268800  1
  O  O25  1  0.62002800  0.40455000  0.64856200  1
  O  O26  1  0.13603000  0.38750300  0.12954500  1
  O  O27  1  0.35363800  0.36726700  0.34809600  1
  O  O28  1  0.59392800  0.38471900  0.10250300  1
  O  O29  1  0.38684600  0.36480400  0.88382800  1
  O  O30  1  0.89574800  0.34585900  0.37027300  1
  O  O31  1  0.13061500  0.35120500  0.59898600  1
loop_
_geom_bond_atom_site_label_1
_geom_bond_atom_site_label_2
_geom_bond_distance
_geom_bond_site_symmetry_2
Li0 O27 1.926470 1_555
Li0 O5 1.961258 1_555
Li0 O25 1.970402 1_555
Li0 O7 2.012205 1_555
Li1 O2 1.916035 1_555
Li1 O12 1.943332 1_545
Li1 O0 1.946251 1_555
Li1 O14 1.972302 1_545
Li2 O13 1.916035 1_555
Li2 O3 1.943332 1_565
Li2 O15 1.946251 1_555
Li2 O1 1.972302 1_565
Li3 O20 1.926470 1_555
Li3 O10 1.961258 1_555
Li3 O22 1.970402 1_655
Li3 O8 2.012205 1_655
Li4 O27 2.061044 1_555
Li4 O22 2.067702 1_555
Li4 O17 2.080134 1_555
Li4 O23 2.103012 1_555
Li4 O16 2.112807 1_555
Li4 O12 2.166127 1_555
Li5 O18 1.937994 1_555
Li5 O30 1.939377 1_555
Li5 O16 1.954424 1_555
Li5 O28 1.977853 1_555
Li6 O29 1.937994 1_555
Li6 O17 1.939377 1_555
Li6 O31 1.954424 1_555
Li6 O19 1.977853 1_555
Li7 O20 2.061044 1_555
Li7 O25 2.067702 1_555
Li7 O30 2.080134 1_555
Li7 O24 2.103012 1_555
Li7 O31 2.112807 1_655
Li7 O3 2.166127 1_555
Co0 O7 1.795810 1_555
Co0 O30 1.799539 1_555
Co0 O3 1.843402 1_555
Co0 O10 1.898682 1_545
Co0 O6 1.906598 1_555
Co0 O2 1.920705 1_655
Co1 O31 1.807492 1_555
Co1 O3 1.818803 1_455
Co1 O8 1.853845 1_545
Co1 O2 1.896904 1_555
Co1 O4 1.911770 1_555
Co1 O5 1.912128 1_555
Co2 O0 1.788190 1_556
Co2 O1 1.799307 1_555
Co2 O9 1.895052 1_545
Co2 O29 1.895934 1_555
Co2 O5 1.906320 1_555
Co2 O4 1.940929 1_555
Co3 O15 1.788190 1_554
Co3 O14 1.799307 1_655
Co3 O6 1.895052 1_565
Co3 O18 1.895934 1_555
Co3 O10 1.906320 1_555
Co3 O11 1.940929 1_555
Co4 O16 1.807492 1_555
Co4 O12 1.818803 1_555
Co4 O7 1.853845 1_565
Co4 O13 1.896904 1_555
Co4 O11 1.911770 1_555
Co4 O10 1.912128 1_555
Co5 O8 1.795810 1_555
Co5 O17 1.799539 1_555
Co5 O12 1.843402 1_555
Co5 O5 1.898682 1_565
Co5 O9 1.906598 1_555
Co5 O13 1.920705 1_555
Co6 O11 1.821905 1_555
Co6 O23 1.859607 1_555
Co6 O9 1.862859 1_554
Co6 O21 1.944235 1_554
Co7 O14 1.790303 1_555
Co7 O19 1.819540 1_554
Co7 O18 1.875741 1_455
Co7 O22 1.886026 1_555
Co7 O23 1.916504 1_555
Co7 O26 1.936750 1_555
Co8 O19 1.784085 1_655
Co8 O15 1.809913 1_555
Co8 O20 1.876476 1_555
Co8 O18 1.894740 1_556
Co8 O21 1.940563 1_555
Co8 O24 1.945249 1_555
Co9 O25 1.801270 1_555
Co9 O20 1.818340 1_555
Co9 O16 1.876847 1_555
Co9 O13 1.910584 1_555
Co9 O17 1.912813 1_555
Co9 O21 1.934589 1_555
Co10 O22 1.801270 1_555
Co10 O27 1.818340 1_555
Co10 O31 1.876847 1_555
Co10 O2 1.910584 1_555
Co10 O30 1.912813 1_455
Co10 O26 1.934589 1_555
Co11 O28 1.784085 1_555
Co11 O0 1.809913 1_555
Co11 O27 1.876476 1_555
Co11 O29 1.894740 1_554
Co11 O26 1.940563 1_555
Co11 O23 1.945249 1_555
Co12 O1 1.790303 1_555
Co12 O28 1.819540 1_556
Co12 O29 1.875741 1_555
Co12 O25 1.886026 1_555
Co12 O24 1.916504 1_555
Co12 O21 1.936750 1_555
Co13 O4 1.821905 1_655
Co13 O24 1.859607 1_555
Co13 O6 1.862859 1_556
Co13 O26 1.944235 1_656
