# generated using pymatgen
data_MnCr2Fe3(PO4)6
_symmetry_space_group_name_H-M   'P 1'
_cell_length_a   8.42393028
_cell_length_b   8.42393028
_cell_length_c   8.42393082
_cell_angle_alpha   61.67823164
_cell_angle_beta   61.67823164
_cell_angle_gamma   61.67822719
_symmetry_Int_Tables_number   1
_chemical_formula_structural   MnCr2Fe3(PO4)6
_chemical_formula_sum   'Mn1 Cr2 Fe3 P6 O24'
_cell_volume   438.60098482
_cell_formula_units_Z   1
loop_
 _symmetry_equiv_pos_site_id
 _symmetry_equiv_pos_as_xyz
  1  'x, y, z'
loop_
 _atom_site_type_symbol
 _atom_site_label
 _atom_site_symmetry_multiplicity
 _atom_site_fract_x
 _atom_site_fract_y
 _atom_site_fract_z
 _atom_site_occupancy
  Mn  Mn0  1  0.14510900  0.14510900  0.14510900  1
  Cr  Cr0  1  0.99951200  0.99951200  0.99951200  1
  Cr  Cr1  1  0.50048400  0.50048400  0.50048400  1
  Fe  Fe0  1  0.85368000  0.85368000  0.85368000  1
  Fe  Fe1  1  0.64686100  0.64686100  0.64686100  1
  Fe  Fe2  1  0.35343900  0.35343900  0.35343900  1
  P  P0  1  0.04963600  0.75012400  0.45177000  1
  P  P1  1  0.75012400  0.45177000  0.04963600  1
  P  P2  1  0.45177000  0.04963600  0.75012400  1
  P  P3  1  0.54807100  0.95073500  0.25052900  1
  P  P4  1  0.25052900  0.54807100  0.95073500  1
  P  P5  1  0.95073500  0.25052900  0.54807100  1
  O  O0  1  0.49555000  0.89514800  0.67590500  1
  O  O1  1  0.89514800  0.67590500  0.49555000  1
  O  O2  1  0.75135200  0.93765500  0.09549400  1
  O  O3  1  0.67590500  0.49555000  0.89514800  1
  O  O4  1  0.39540700  0.98881100  0.17776400  1
  O  O5  1  0.56486500  0.74704600  0.40544100  1
  O  O6  1  0.09549400  0.75135200  0.93765500  1
  O  O7  1  0.40544100  0.56486500  0.74704600  1
  O  O8  1  0.00560700  0.82494700  0.60557700  1
  O  O9  1  0.74704600  0.40544100  0.56486500  1
  O  O10  1  0.06151700  0.90453600  0.24873400  1
  O  O11  1  0.82494700  0.60557700  0.00560700  1
  O  O12  1  0.17776400  0.39540700  0.98881100  1
  O  O13  1  0.93765500  0.09549400  0.75135200  1
  O  O14  1  0.25268800  0.59567100  0.43698600  1
  O  O15  1  0.98881100  0.17776400  0.39540700  1
  O  O16  1  0.59567100  0.43698600  0.25268800  1
  O  O17  1  0.90453600  0.24873400  0.06151700  1
  O  O18  1  0.43698600  0.25268800  0.59567100  1
  O  O19  1  0.60557700  0.00560700  0.82494700  1
  O  O20  1  0.32519600  0.50288100  0.10527300  1
  O  O21  1  0.24873400  0.06151700  0.90453600  1
  O  O22  1  0.10527300  0.32519600  0.50288100  1
  O  O23  1  0.50288100  0.10527300  0.32519600  1
loop_
_geom_bond_atom_site_label_1
_geom_bond_atom_site_label_2
_geom_bond_distance
_geom_bond_site_symmetry_2
Mn0 O4 1.956406 1_545
Mn0 O12 1.956406 1_554
Mn0 O15 1.956406 1_455
Mn0 O17 2.111185 1_455
Mn0 O10 2.111185 1_545
Mn0 O21 2.111185 1_554
Cr0 O6 2.079764 1_655
Cr0 O2 2.079764 1_556
Cr0 O13 2.079764 1_565
Cr0 O17 2.090632 1_566
Cr0 O21 2.090632 1_665
Cr0 O10 2.090632 1_656
Cr1 O9 2.080414 1_555
Cr1 O5 2.080414 1_555
Cr1 O7 2.080414 1_555
Cr1 O14 2.085832 1_555
Cr1 O18 2.085832 1_555
Cr1 O16 2.085832 1_555
Fe0 O19 1.926839 1_565
Fe0 O11 1.926839 1_556
Fe0 O8 1.926839 1_655
Fe0 O6 2.124976 1_655
Fe0 O13 2.124976 1_565
Fe0 O2 2.124976 1_556
Fe1 O0 1.928523 1_555
Fe1 O1 1.928524 1_555
Fe1 O3 1.928524 1_555
Fe1 O9 2.115780 1_555
Fe1 O7 2.115780 1_555
Fe1 O5 2.115780 1_555
Fe2 O23 1.924150 1_555
Fe2 O22 1.924150 1_555
Fe2 O20 1.924150 1_555
Fe2 O14 2.128875 1_555
Fe2 O16 2.128875 1_555
Fe2 O18 2.128875 1_555
O0 P2 1.522624 1_565
O1 P0 1.522624 1_655
O2 P3 1.576599 1_555
O3 P1 1.522624 1_556
O4 P3 1.517402 1_555
O5 P3 1.577143 1_555
O6 P4 1.576599 1_555
O7 P4 1.577143 1_555
O8 P0 1.520089 1_555
O9 P5 1.577143 1_555
O10 P0 1.573996 1_555
O11 P1 1.520089 1_555
O12 P4 1.517402 1_555
O13 P5 1.576600 1_555
O14 P0 1.572931 1_555
O15 P5 1.517403 1_555
O16 P1 1.572931 1_555
O17 P1 1.573996 1_555
O18 P2 1.572931 1_555
O19 P2 1.520089 1_555
O20 P4 1.521446 1_554
O21 P2 1.573996 1_555
O22 P5 1.521446 1_455
O23 P3 1.521446 1_545
