# generated using pymatgen
data_Ba(ZnP)2
_symmetry_space_group_name_H-M   'P 1'
_cell_length_a   4.01489741
_cell_length_b   4.01489769
_cell_length_c   7.23079724
_cell_angle_alpha   106.11849161
_cell_angle_beta   106.11849350
_cell_angle_gamma   90.00001135
_symmetry_Int_Tables_number   1
_chemical_formula_structural   Ba(ZnP)2
_chemical_formula_sum   'Ba1 Zn2 P2'
_cell_volume   107.19672921
_cell_formula_units_Z   1
loop_
 _symmetry_equiv_pos_site_id
 _symmetry_equiv_pos_as_xyz
  1  'x, y, z'
loop_
 _atom_site_type_symbol
 _atom_site_label
 _atom_site_symmetry_multiplicity
 _atom_site_fract_x
 _atom_site_fract_y
 _atom_site_fract_z
 _atom_site_occupancy
  Ba  Ba0  1  -0.00000000  -0.00000000  -0.00000000  1
  Zn  Zn0  1  0.25000000  0.75000000  0.50000000  1
  Zn  Zn1  1  0.75000000  0.25000000  0.50000000  1
  P  P0  1  0.64219453  0.64219453  0.28439107  1
  P  P1  1  0.35780547  0.35780547  0.71560893  1
loop_
_geom_bond_atom_site_label_1
_geom_bond_atom_site_label_2
_geom_bond_distance
_geom_bond_site_symmetry_2
Ba0 P1 3.411230 1_444
Ba0 P0 3.411230 1_555
Ba0 P0 3.411235 1_545
Ba0 P1 3.411235 1_454
Ba0 P0 3.411235 1_455
Ba0 P1 3.411235 1_544
Ba0 P1 3.411239 1_554
Ba0 P0 3.411239 1_445
P0 Zn0 2.466925 1_555
P0 Zn1 2.466925 1_555
P0 Zn0 2.466931 1_655
P0 Zn1 2.466932 1_565
P1 Zn1 2.466925 1_555
P1 Zn0 2.466925 1_555
P1 Zn1 2.466931 1_455
P1 Zn0 2.466932 1_545
