# generated using pymatgen
data_SrLaCl5
_symmetry_space_group_name_H-M   'P 1'
_cell_length_a   4.34671700
_cell_length_b   12.80488200
_cell_length_c   14.91181300
_cell_angle_alpha   90.00000000
_cell_angle_beta   90.00000000
_cell_angle_gamma   90.00000000
_symmetry_Int_Tables_number   1
_chemical_formula_structural   SrLaCl5
_chemical_formula_sum   'Sr4 La4 Cl20'
_cell_volume   829.97955637
_cell_formula_units_Z   4
loop_
 _symmetry_equiv_pos_site_id
 _symmetry_equiv_pos_as_xyz
  1  'x, y, z'
loop_
 _atom_site_type_symbol
 _atom_site_label
 _atom_site_symmetry_multiplicity
 _atom_site_fract_x
 _atom_site_fract_y
 _atom_site_fract_z
 _atom_site_occupancy
  Sr  Sr0  1  0.98678300  0.25000000  0.00000000  1
  Sr  Sr1  1  0.98678300  0.25000000  0.50000000  1
  Sr  Sr2  1  0.01321700  0.75000000  0.50000000  1
  Sr  Sr3  1  0.01321700  0.75000000  0.00000000  1
  La  La0  1  0.48320400  0.02489900  0.25000000  1
  La  La1  1  0.48320400  0.47510100  0.75000000  1
  La  La2  1  0.51679600  0.52489900  0.25000000  1
  La  La3  1  0.51679600  0.97510100  0.75000000  1
  Cl  Cl0  1  0.98338700  0.16761600  0.25000000  1
  Cl  Cl1  1  0.98338700  0.33238400  0.75000000  1
  Cl  Cl2  1  0.98663000  0.92391300  0.13958600  1
  Cl  Cl3  1  0.98663000  0.57608700  0.63958600  1
  Cl  Cl4  1  0.98663000  0.57608700  0.86041400  1
  Cl  Cl5  1  0.98663000  0.92391300  0.36041400  1
  Cl  Cl6  1  0.51444200  0.86766100  0.92437000  1
  Cl  Cl7  1  0.51444200  0.86766100  0.57563000  1
  Cl  Cl8  1  0.51444200  0.63233900  0.07563000  1
  Cl  Cl9  1  0.51444200  0.63233900  0.42437000  1
  Cl  Cl10  1  0.48555800  0.13233900  0.07563000  1
  Cl  Cl11  1  0.48555800  0.13233900  0.42437000  1
  Cl  Cl12  1  0.48555800  0.36766100  0.57563000  1
  Cl  Cl13  1  0.48555800  0.36766100  0.92437000  1
  Cl  Cl14  1  0.01337000  0.42391300  0.36041400  1
  Cl  Cl15  1  0.01337000  0.42391300  0.13958600  1
  Cl  Cl16  1  0.01337000  0.07608700  0.63958600  1
  Cl  Cl17  1  0.01337000  0.07608700  0.86041400  1
  Cl  Cl18  1  0.01661300  0.66761600  0.25000000  1
  Cl  Cl19  1  0.01661300  0.83238400  0.75000000  1
loop_
_geom_bond_atom_site_label_1
_geom_bond_atom_site_label_2
_geom_bond_distance
_geom_bond_site_symmetry_2
Cl0 La0 2.838960 1_655
Cl0 La0 2.840177 1_555
Cl1 La1 2.838960 1_655
Cl1 La1 2.840177 1_555
Cl2 La0 3.006991 1_665
Cl2 La0 3.028441 1_565
Cl2 Sr3 3.050436 1_655
Cl3 La1 3.006991 1_655
Cl3 La1 3.028441 1_555
Cl3 Sr2 3.050436 1_655
Cl4 La1 3.006991 1_655
Cl4 La1 3.028441 1_555
Cl4 Sr3 3.050436 1_656
Cl5 La0 3.006991 1_665
Cl5 La0 3.028441 1_565
Cl5 Sr2 3.050436 1_655
Cl6 Sr3 2.870925 1_656
Cl6 Sr3 2.878975 1_556
Cl6 La3 2.941719 1_555
Cl7 Sr2 2.870925 1_655
Cl7 Sr2 2.878975 1_555
Cl7 La3 2.941719 1_555
Cl8 Sr3 2.870925 1_655
Cl8 Sr3 2.878975 1_555
Cl8 La2 2.941719 1_555
Cl9 Sr2 2.870925 1_655
Cl9 Sr2 2.878975 1_555
Cl9 La2 2.941719 1_555
Cl10 Sr0 2.870925 1_455
Cl10 Sr0 2.878975 1_555
Cl10 La0 2.941719 1_555
Cl11 Sr1 2.870925 1_455
Cl11 Sr1 2.878975 1_555
Cl11 La0 2.941719 1_555
Cl12 Sr1 2.870925 1_455
Cl12 Sr1 2.878975 1_555
Cl12 La1 2.941719 1_555
Cl13 Sr0 2.870925 1_456
Cl13 Sr0 2.878975 1_556
Cl13 La1 2.941719 1_555
Cl14 La2 3.006991 1_455
Cl14 La2 3.028441 1_555
Cl14 Sr1 3.050436 1_455
Cl15 La2 3.006991 1_455
Cl15 La2 3.028441 1_555
Cl15 Sr0 3.050436 1_455
Cl16 La3 3.006991 1_445
Cl16 La3 3.028441 1_545
Cl16 Sr1 3.050436 1_455
Cl17 La3 3.006991 1_445
Cl17 La3 3.028441 1_545
Cl17 Sr0 3.050436 1_456
Cl18 La2 2.838960 1_455
Cl18 La2 2.840177 1_555
Cl19 La3 2.838960 1_455
Cl19 La3 2.840177 1_555
