# generated using pymatgen
data_V2O3F
_symmetry_space_group_name_H-M   'P 1'
_cell_length_a   7.29885182
_cell_length_b   7.29885182
_cell_length_c   6.37948800
_cell_angle_alpha   90.00000000
_cell_angle_beta   90.00000000
_cell_angle_gamma   130.01347806
_symmetry_Int_Tables_number   1
_chemical_formula_structural   V2O3F
_chemical_formula_sum   'V8 O12 F4'
_cell_volume   260.29339019
_cell_formula_units_Z   4
loop_
 _symmetry_equiv_pos_site_id
 _symmetry_equiv_pos_as_xyz
  1  'x, y, z'
loop_
 _atom_site_type_symbol
 _atom_site_label
 _atom_site_symmetry_multiplicity
 _atom_site_fract_x
 _atom_site_fract_y
 _atom_site_fract_z
 _atom_site_occupancy
  V  V0  1  0.87986000  0.62746200  0.75000000  1
  V  V1  1  0.37253800  0.12014000  0.75000000  1
  V  V2  1  0.38161100  0.61838900  0.75000000  1
  V  V3  1  0.87306700  0.12693300  0.75000000  1
  V  V4  1  0.12693300  0.87306700  0.25000000  1
  V  V5  1  0.61838900  0.38161100  0.25000000  1
  V  V6  1  0.12014000  0.37253800  0.25000000  1
  V  V7  1  0.62746200  0.87986000  0.25000000  1
  O  O0  1  0.52491100  0.47508900  0.75000000  1
  O  O1  1  0.37531800  0.12636100  0.44949400  1
  O  O2  1  0.87363900  0.62468200  0.44949400  1
  O  O3  1  0.62468200  0.87363900  0.55050600  1
  O  O4  1  0.87363900  0.62468200  0.05050600  1
  O  O5  1  0.37531800  0.12636100  0.05050600  1
  O  O6  1  0.12636100  0.37531800  0.55050600  1
  O  O7  1  0.47508900  0.52491100  0.25000000  1
  O  O8  1  0.22409400  0.77590600  0.75000000  1
  O  O9  1  0.77590600  0.22409400  0.25000000  1
  O  O10  1  0.12636100  0.37531800  0.94949400  1
  O  O11  1  0.62468200  0.87363900  0.94949400  1
  F  F0  1  0.02373500  0.97626500  0.75000000  1
  F  F1  1  0.72413500  0.27586500  0.75000000  1
  F  F2  1  0.97626500  0.02373500  0.25000000  1
  F  F3  1  0.27586500  0.72413500  0.25000000  1
loop_
_geom_bond_atom_site_label_1
_geom_bond_atom_site_label_2
_geom_bond_distance
_geom_bond_site_symmetry_2
O0 V2 1.895965 1_555
O0 V1 2.059996 1_555
O0 V0 2.059996 1_555
O1 V1 1.917410 1_555
O1 V5 1.996940 1_555
O1 V4 2.003564 1_545
O2 V0 1.917410 1_555
O2 V5 1.996940 1_555
O2 V4 2.003564 1_655
O3 V7 1.917410 1_555
O3 V2 1.996940 1_555
O3 V3 2.003564 1_565
O4 V0 1.917410 1_554
O4 V5 1.996940 1_555
O4 V4 2.003564 1_655
O5 V1 1.917410 1_554
O5 V5 1.996940 1_555
O5 V4 2.003564 1_545
O6 V6 1.917410 1_555
O6 V2 1.996940 1_555
O6 V3 2.003564 1_455
O7 V5 1.895965 1_555
O7 V7 2.059996 1_555
O7 V6 2.059996 1_555
O8 V1 1.996500 1_565
O8 V0 1.996500 1_455
O8 V2 2.084066 1_555
O9 V6 1.996500 1_655
O9 V7 1.996500 1_545
O9 V5 2.084066 1_555
O10 V6 1.917410 1_556
O10 V2 1.996940 1_555
O10 V3 2.003564 1_455
O11 V7 1.917410 1_556
O11 V2 1.996940 1_555
O11 V3 2.003564 1_565
F0 V3 1.993449 1_465
F0 V1 2.036237 1_565
F0 V0 2.036237 1_455
F1 V3 1.970480 1_555
F1 V1 2.031424 1_555
F1 V0 2.031424 1_555
F2 V4 1.993449 1_645
F2 V6 2.036237 1_655
F2 V7 2.036237 1_545
F3 V4 1.970480 1_555
F3 V7 2.031424 1_555
F3 V6 2.031424 1_555
