# generated using pymatgen
data_ZnP4O11
_symmetry_space_group_name_H-M   'P 1'
_cell_length_a   9.09739181
_cell_length_b   9.14963138
_cell_length_c   10.58060231
_cell_angle_alpha   70.95460370
_cell_angle_beta   108.21168948
_cell_angle_gamma   89.05878747
_symmetry_Int_Tables_number   1
_chemical_formula_structural   ZnP4O11
_chemical_formula_sum   'Zn4 P16 O44'
_cell_volume   783.88886708
_cell_formula_units_Z   4
loop_
 _symmetry_equiv_pos_site_id
 _symmetry_equiv_pos_as_xyz
  1  'x, y, z'
loop_
 _atom_site_type_symbol
 _atom_site_label
 _atom_site_symmetry_multiplicity
 _atom_site_fract_x
 _atom_site_fract_y
 _atom_site_fract_z
 _atom_site_occupancy
  Zn  Zn0  1  0.25449132  0.71909634  0.02019101  1
  Zn  Zn1  1  0.77185001  0.77093806  0.49760743  1
  Zn  Zn2  1  0.22814999  0.22906194  0.50239257  1
  Zn  Zn3  1  0.74550868  0.28090366  0.97980899  1
  P  P0  1  0.09450354  0.59758455  0.75879232  1
  P  P1  1  0.23872241  0.92583915  0.38784088  1
  P  P2  1  0.56593419  0.74799013  0.92706646  1
  P  P3  1  0.09518947  0.27097371  0.91122302  1
  P  P4  1  0.26248346  0.58433325  0.55612533  1
  P  P5  1  0.44323456  0.91119366  0.22609431  1
  P  P6  1  0.58711478  0.60879908  0.71327848  1
  P  P7  1  0.09152141  0.04967357  0.75319849  1
  P  P8  1  0.90847859  0.95032643  0.24680151  1
  P  P9  1  0.41288522  0.39120092  0.28672152  1
  P  P10  1  0.55676544  0.08880634  0.77390569  1
  P  P11  1  0.73751654  0.41566675  0.44387467  1
  P  P12  1  0.90481053  0.72902629  0.08877798  1
  P  P13  1  0.43406581  0.25200987  0.07293354  1
  P  P14  1  0.76127759  0.07416085  0.61215912  1
  P  P15  1  0.90549646  0.40241545  0.24120768  1
  O  O0  1  0.19170264  0.89917937  0.82130452  1
  O  O1  1  0.24294668  0.98783947  0.49901424  1
  O  O2  1  0.08688587  0.97596520  0.25419803  1
  O  O3  1  0.51686581  0.92682711  0.86511353  1
  O  O4  1  0.20328549  0.58947782  0.89746429  1
  O  O5  1  0.18494517  0.63894704  0.64623475  1
  O  O6  1  0.07584697  0.41593583  0.77599872  1
  O  O7  1  0.37020284  0.97347585  0.32354058  1
  O  O8  1  0.26059832  0.74142506  0.43514383  1
  O  O9  1  0.51430282  0.68957884  0.80004710  1
  O  O10  1  0.03109431  0.74423365  0.03137922  1
  O  O11  1  0.74925416  0.72799524  0.96972192  1
  O  O12  1  0.19326215  0.46706372  0.49993263  1
  O  O13  1  0.13783181  0.13278226  0.87037885  1
  O  O14  1  0.31611228  0.85933843  0.13197873  1
  O  O15  1  0.43729799  0.53180193  0.64829790  1
  O  O16  1  0.61015354  0.73636978  0.59605334  1
  O  O17  1  0.49754694  0.32460101  0.96029003  1
  O  O18  1  0.08057324  0.16242370  0.61306000  1
  O  O19  1  0.05730434  0.30401322  0.30956679  1
  O  O20  1  0.59282694  0.81237207  0.31287367  1
  O  O21  1  0.71061439  0.48035520  0.80938650  1
  O  O22  1  0.28938561  0.51964480  0.19061350  1
  O  O23  1  0.40717306  0.18762793  0.68712633  1
  O  O24  1  0.94269566  0.69598678  0.69043321  1
  O  O25  1  0.91942676  0.83757630  0.38694000  1
  O  O26  1  0.50245306  0.67539899  0.03970997  1
  O  O27  1  0.38984646  0.26363022  0.40394666  1
  O  O28  1  0.56270201  0.46819807  0.35170210  1
  O  O29  1  0.68388772  0.14066157  0.86802127  1
  O  O30  1  0.86216819  0.86721774  0.12962115  1
  O  O31  1  0.80673785  0.53293628  0.50006737  1
  O  O32  1  0.25074584  0.27200476  0.03027808  1
  O  O33  1  0.96890569  0.25576635  0.96862078  1
  O  O34  1  0.48569718  0.31042116  0.19995290  1
  O  O35  1  0.73940168  0.25857494  0.56485617  1
  O  O36  1  0.62979716  0.02652415  0.67645942  1
  O  O37  1  0.92415303  0.58406417  0.22400128  1
  O  O38  1  0.81505483  0.36105296  0.35376525  1
  O  O39  1  0.79671451  0.41052218  0.10253571  1
  O  O40  1  0.48313419  0.07317289  0.13488647  1
  O  O41  1  0.91311413  0.02403480  0.74580197  1
  O  O42  1  0.75705332  0.01216053  0.50098576  1
  O  O43  1  0.80829736  0.10082063  0.17869548  1
loop_
_geom_bond_atom_site_label_1
_geom_bond_atom_site_label_2
_geom_bond_distance
_geom_bond_site_symmetry_2
O0 P7 1.465136 1_565
O0 Zn0 2.103398 1_556
O1 P1 1.454260 1_555
O1 Zn2 2.221578 1_565
O2 P1 1.566177 1_555
O2 P8 1.624965 1_455
O3 P2 1.549031 1_555
O3 P10 1.600852 1_565
O4 P0 1.468541 1_555
O4 Zn0 1.988663 1_556
O5 P4 1.541425 1_555
O5 P0 1.602206 1_555
O6 P3 1.560032 1_555
O6 P0 1.629529 1_555
O7 P1 1.554287 1_555
O7 P5 1.621234 1_555
O8 P4 1.577806 1_555
O8 P1 1.585155 1_555
O9 P2 1.547535 1_555
O9 P6 1.623195 1_555
O10 P12 1.447158 1_455
O10 Zn0 2.085682 1_555
O11 P12 1.575912 1_556
O11 P2 1.576108 1_555
O12 P4 1.451151 1_555
O12 Zn2 2.186005 1_555
O13 P3 1.543129 1_555
O13 P7 1.610047 1_555
O14 P5 1.469937 1_555
O14 Zn0 1.989832 1_555
O15 P4 1.552696 1_555
O15 P6 1.608901 1_555
O16 P6 1.473232 1_555
O16 Zn1 2.026549 1_555
O17 P13 1.456481 1_556
O17 Zn3 2.217305 1_555
O18 P7 1.476053 1_555
O18 Zn2 2.022097 1_555
O19 P15 1.466581 1_455
O19 Zn2 2.029349 1_555
O20 P5 1.466070 1_555
O20 Zn1 2.030514 1_555
O21 P6 1.462891 1_555
O21 Zn3 2.039141 1_555
O22 P9 1.462891 1_555
O22 Zn0 2.039141 1_555
O23 P10 1.466070 1_555
O23 Zn2 2.030514 1_555
O24 P0 1.466581 1_655
O24 Zn1 2.029349 1_555
O25 P8 1.476053 1_555
O25 Zn1 2.022097 1_555
O26 P2 1.456481 1_554
O26 Zn0 2.217305 1_555
O27 P9 1.473232 1_555
O27 Zn2 2.026549 1_555
O28 P11 1.552696 1_555
O28 P9 1.608901 1_555
O29 P10 1.469937 1_555
O29 Zn3 1.989832 1_555
O30 P12 1.543123 1_555
O30 P8 1.610047 1_555
O31 P11 1.451151 1_555
O31 Zn1 2.186005 1_555
O32 P3 1.575907 1_554
O32 P13 1.576108 1_555
O33 P3 1.447151 1_655
O33 Zn3 2.085682 1_555
O34 P13 1.547535 1_555
O34 P9 1.623195 1_555
O35 P11 1.577806 1_555
O35 P14 1.585155 1_555
O36 P14 1.554287 1_555
O36 P10 1.621234 1_555
O37 P12 1.560026 1_555
O37 P15 1.629529 1_555
O38 P11 1.541425 1_555
O38 P15 1.602206 1_555
O39 P15 1.468541 1_555
O39 Zn3 1.988663 1_554
O40 P13 1.549031 1_555
O40 P5 1.600852 1_545
O41 P14 1.566177 1_555
O41 P7 1.624965 1_655
O42 P14 1.454260 1_555
O42 Zn1 2.221578 1_545
O43 P8 1.465136 1_545
O43 Zn3 2.103398 1_554
