# generated using pymatgen
data_LiCuPO4
_symmetry_space_group_name_H-M   'P 1'
_cell_length_a   7.57795000
_cell_length_b   8.57675800
_cell_length_c   17.28716944
_cell_angle_alpha   61.02817113
_cell_angle_beta   90.00000000
_cell_angle_gamma   90.00000000
_symmetry_Int_Tables_number   1
_chemical_formula_structural   LiCuPO4
_chemical_formula_sum   'Li12 Cu12 P12 O48'
_cell_volume   982.96110651
_cell_formula_units_Z   12
loop_
 _symmetry_equiv_pos_site_id
 _symmetry_equiv_pos_as_xyz
  1  'x, y, z'
loop_
 _atom_site_type_symbol
 _atom_site_label
 _atom_site_symmetry_multiplicity
 _atom_site_fract_x
 _atom_site_fract_y
 _atom_site_fract_z
 _atom_site_occupancy
  Li  Li0  1  0.97555700  0.28994200  0.93262700  1
  Li  Li1  1  0.02948200  0.64436400  0.58825000  1
  Li  Li2  1  0.90570800  0.00358800  0.24642200  1
  Li  Li3  1  0.40570800  0.99641200  0.25357800  1
  Li  Li4  1  0.52948200  0.35563600  0.91175000  1
  Li  Li5  1  0.47555700  0.71005800  0.56737300  1
  Li  Li6  1  0.52444300  0.28994200  0.43262700  1
  Li  Li7  1  0.47051800  0.64436400  0.08825000  1
  Li  Li8  1  0.59429200  0.00358800  0.74642200  1
  Li  Li9  1  0.09429200  0.99641200  0.75357800  1
  Li  Li10  1  0.97051800  0.35563600  0.41175000  1
  Li  Li11  1  0.02444300  0.71005800  0.06737300  1
  Cu  Cu0  1  0.67287000  0.65316300  0.40566400  1
  Cu  Cu1  1  0.81807000  0.32054600  0.75961100  1
  Cu  Cu2  1  0.67678400  0.01537200  0.07968100  1
  Cu  Cu3  1  0.17678400  0.98462800  0.42031900  1
  Cu  Cu4  1  0.31807000  0.67945400  0.74038900  1
  Cu  Cu5  1  0.17287000  0.34683700  0.09433600  1
  Cu  Cu6  1  0.82713000  0.65316300  0.90566400  1
  Cu  Cu7  1  0.68193000  0.32054600  0.25961100  1
  Cu  Cu8  1  0.82321600  0.01537200  0.57968100  1
  Cu  Cu9  1  0.32321600  0.98462800  0.92031900  1
  Cu  Cu10  1  0.18193000  0.67945400  0.24038900  1
  Cu  Cu11  1  0.32713000  0.34683700  0.59433600  1
  P  P0  1  0.26805700  0.64428200  0.40987500  1
  P  P1  1  0.22347800  0.31158000  0.77006400  1
  P  P2  1  0.27190100  0.03151600  0.07584400  1
  P  P3  1  0.77190100  0.96848400  0.42415600  1
  P  P4  1  0.72347800  0.68842000  0.72993600  1
  P  P5  1  0.76805700  0.35571800  0.09012500  1
  P  P6  1  0.23194300  0.64428200  0.90987500  1
  P  P7  1  0.27652200  0.31158000  0.27006400  1
  P  P8  1  0.22809900  0.03151600  0.57584400  1
  P  P9  1  0.72809900  0.96848400  0.92415600  1
  P  P10  1  0.77652200  0.68842000  0.22993600  1
  P  P11  1  0.73194300  0.35571800  0.59012500  1
  O  O0  1  0.55933400  0.43794500  0.60468600  1
  O  O1  1  0.88259900  0.41484500  0.63095000  1
  O  O2  1  0.76651400  0.10342900  0.95838200  1
  O  O3  1  0.04702500  0.26181400  0.82325700  1
  O  O4  1  0.37187500  0.24678300  0.84057600  1
  O  O5  1  0.76674100  0.78921400  0.28450200  1
  O  O6  1  0.23517300  0.57936400  0.50974600  1
  O  O7  1  0.28633100  0.92345500  0.17802500  1
  O  O8  1  0.44756200  0.13528300  0.03720600  1
  O  O9  1  0.23237900  0.51327200  0.70263100  1
  O  O10  1  0.28281100  0.85048400  0.36268700  1
  O  O11  1  0.12607200  0.17543100  0.04544000  1
  O  O12  1  0.62607200  0.82456900  0.45456000  1
  O  O13  1  0.78281100  0.14951600  0.13731300  1
  O  O14  1  0.73237900  0.48672800  0.79736900  1
  O  O15  1  0.94756200  0.86471700  0.46279400  1
  O  O16  1  0.78633100  0.07654500  0.32197500  1
  O  O17  1  0.73517300  0.42063600  0.99025400  1
  O  O18  1  0.87187500  0.75321700  0.65942400  1
  O  O19  1  0.26674100  0.21078600  0.21549800  1
  O  O20  1  0.54702500  0.73818600  0.67674300  1
  O  O21  1  0.26651400  0.89657100  0.54161800  1
  O  O22  1  0.38259900  0.58515500  0.86905000  1
  O  O23  1  0.05933400  0.56205500  0.89531400  1
  O  O24  1  0.94066600  0.43794500  0.10468600  1
  O  O25  1  0.61740100  0.41484500  0.13095000  1
  O  O26  1  0.73348600  0.10342900  0.45838200  1
  O  O27  1  0.45297500  0.26181400  0.32325700  1
  O  O28  1  0.73325900  0.78921400  0.78450200  1
  O  O29  1  0.12812500  0.24678300  0.34057600  1
  O  O30  1  0.26482700  0.57936400  0.00974600  1
  O  O31  1  0.21366900  0.92345500  0.67802500  1
  O  O32  1  0.05243800  0.13528300  0.53720600  1
  O  O33  1  0.26762100  0.51327200  0.20263100  1
  O  O34  1  0.21718900  0.85048400  0.86268700  1
  O  O35  1  0.37392800  0.17543100  0.54544000  1
  O  O36  1  0.87392800  0.82456900  0.95456000  1
  O  O37  1  0.71718900  0.14951600  0.63731300  1
  O  O38  1  0.76762100  0.48672800  0.29736900  1
  O  O39  1  0.55243800  0.86471700  0.96279400  1
  O  O40  1  0.71366900  0.07654500  0.82197500  1
  O  O41  1  0.76482700  0.42063600  0.49025400  1
  O  O42  1  0.23325900  0.21078600  0.71549800  1
  O  O43  1  0.62812500  0.75321700  0.15942400  1
  O  O44  1  0.95297500  0.73818600  0.17674300  1
  O  O45  1  0.23348600  0.89657100  0.04161800  1
  O  O46  1  0.11740100  0.58515500  0.36905000  1
  O  O47  1  0.44066600  0.56205500  0.39531400  1
loop_
_geom_bond_atom_site_label_1
_geom_bond_atom_site_label_2
_geom_bond_distance
_geom_bond_site_symmetry_2
Li0 O11 2.052646 1_656
Li0 O3 2.090006 1_655
Li0 O2 2.139311 1_555
Li0 O23 2.192618 1_655
Li0 O17 2.578566 1_555
Li1 O1 2.061849 1_455
Li1 O15 2.165640 1_455
Li1 O18 2.219180 1_455
Li1 O6 2.305446 1_555
Li1 O9 2.320401 1_555
Li2 O13 1.924715 1_555
Li2 O16 1.925496 1_555
Li2 O5 1.936586 1_545
Li3 O10 1.924715 1_555
Li3 O7 1.925496 1_555
Li3 O19 1.936586 1_565
Li4 O22 2.061849 1_555
Li4 O8 2.165640 1_556
Li4 O4 2.219180 1_555
Li4 O17 2.305446 1_555
Li4 O14 2.320401 1_555
Li5 O12 2.052646 1_555
Li5 O20 2.090006 1_555
Li5 O21 2.139311 1_555
Li5 O0 2.192618 1_555
Li5 O6 2.578566 1_555
Li6 O35 2.052646 1_555
Li6 O27 2.090006 1_555
Li6 O26 2.139311 1_555
Li6 O47 2.192618 1_555
Li6 O41 2.578566 1_555
Li7 O25 2.061849 1_555
Li7 O39 2.165640 1_554
Li7 O43 2.219180 1_555
Li7 O30 2.305446 1_555
Li7 O33 2.320401 1_555
Li8 O37 1.924715 1_555
Li8 O40 1.925496 1_555
Li8 O28 1.936586 1_545
Li9 O34 1.924715 1_555
Li9 O31 1.925496 1_555
Li9 O42 1.936586 1_565
Li10 O46 2.061849 1_655
Li10 O32 2.165640 1_655
Li10 O29 2.219180 1_655
Li10 O41 2.305446 1_555
Li10 O38 2.320401 1_555
Li11 O36 2.052646 1_454
Li11 O44 2.090006 1_455
Li11 O45 2.139311 1_555
Li11 O24 2.192618 1_455
Li11 O30 2.578566 1_555
Cu0 O41 1.943214 1_555
Cu0 O47 1.968339 1_555
Cu0 O5 1.971554 1_555
Cu0 O12 2.050680 1_555
Cu1 O14 1.944347 1_555
Cu1 O3 1.984352 1_655
Cu1 O40 1.995511 1_555
Cu1 O1 2.024244 1_555
Cu2 O8 1.970425 1_555
Cu2 O2 1.973728 1_554
Cu2 O13 2.017996 1_555
Cu2 O43 2.022148 1_545
Cu3 O15 1.970425 1_455
Cu3 O21 1.973728 1_555
Cu3 O10 2.017996 1_555
Cu3 O29 2.022148 1_565
Cu4 O9 1.944347 1_555
Cu4 O20 1.984352 1_555
Cu4 O31 1.995511 1_555
Cu4 O22 2.024244 1_555
Cu5 O30 1.943214 1_555
Cu5 O24 1.968339 1_455
Cu5 O19 1.971554 1_555
Cu5 O11 2.050680 1_555
Cu6 O17 1.943214 1_555
Cu6 O23 1.968339 1_655
Cu6 O28 1.971554 1_555
Cu6 O36 2.050680 1_555
Cu7 O38 1.944347 1_555
Cu7 O27 1.984352 1_555
Cu7 O16 1.995511 1_555
Cu7 O25 2.024244 1_555
Cu8 O32 1.970425 1_655
Cu8 O26 1.973728 1_555
Cu8 O37 2.017996 1_555
Cu8 O18 2.022148 1_545
Cu9 O39 1.970425 1_555
Cu9 O45 1.973728 1_556
Cu9 O34 2.017996 1_555
Cu9 O4 2.022148 1_565
Cu10 O33 1.944347 1_555
Cu10 O44 1.984352 1_455
Cu10 O7 1.995511 1_555
Cu10 O46 2.024244 1_555
Cu11 O6 1.943214 1_555
Cu11 O0 1.968339 1_555
Cu11 O42 1.971554 1_555
Cu11 O35 2.050680 1_555
O0 P11 1.563210 1_555
O1 P11 1.550923 1_555
O2 P9 1.561336 1_545
O3 P1 1.560612 1_555
O4 P1 1.550173 1_555
O5 P10 1.559684 1_555
O6 P0 1.556153 1_555
O7 P2 1.550866 1_565
O8 P2 1.560222 1_555
O9 P1 1.549950 1_555
O10 P0 1.551799 1_555
O11 P2 1.546781 1_555
O12 P3 1.546781 1_555
O13 P5 1.551799 1_555
O14 P4 1.549950 1_555
O15 P3 1.560222 1_555
O16 P3 1.550866 1_545
O17 P5 1.556153 1_556
O18 P4 1.550173 1_555
O19 P7 1.559684 1_555
O20 P4 1.560612 1_555
O21 P8 1.561336 1_565
O22 P6 1.550923 1_555
O23 P6 1.563210 1_555
O24 P5 1.563210 1_555
O25 P5 1.550923 1_555
O26 P3 1.561336 1_545
O27 P7 1.560612 1_555
O28 P4 1.559684 1_555
O29 P7 1.550173 1_555
O30 P6 1.556153 1_554
O31 P8 1.550866 1_565
O32 P8 1.560222 1_555
O33 P7 1.549950 1_555
O34 P6 1.551799 1_555
O35 P8 1.546781 1_555
O36 P9 1.546781 1_555
O37 P11 1.551799 1_555
O38 P10 1.549950 1_555
O39 P9 1.560222 1_555
O40 P9 1.550866 1_545
O41 P11 1.556153 1_555
O42 P1 1.559684 1_555
O43 P10 1.550173 1_555
O44 P10 1.560612 1_555
O45 P2 1.561336 1_565
O46 P0 1.550923 1_555
O47 P0 1.563210 1_555
