# generated using pymatgen
data_Si6O13
_symmetry_space_group_name_H-M   'P 1'
_cell_length_a   13.20199554
_cell_length_b   13.20199554
_cell_length_c   10.23269804
_cell_angle_alpha   76.42410284
_cell_angle_beta   76.42410284
_cell_angle_gamma   33.14135309
_symmetry_Int_Tables_number   1
_chemical_formula_structural   Si6O13
_chemical_formula_sum   'Si12 O26'
_cell_volume   945.34967740
_cell_formula_units_Z   2
loop_
 _symmetry_equiv_pos_site_id
 _symmetry_equiv_pos_as_xyz
  1  'x, y, z'
loop_
 _atom_site_type_symbol
 _atom_site_label
 _atom_site_symmetry_multiplicity
 _atom_site_fract_x
 _atom_site_fract_y
 _atom_site_fract_z
 _atom_site_occupancy
  Si  Si0  1  0.51894600  0.91729900  0.15224100  1
  Si  Si1  1  0.91729900  0.51894600  0.15224100  1
  Si  Si2  1  0.48105400  0.08270100  0.84775900  1
  Si  Si3  1  0.08270100  0.48105400  0.84775900  1
  Si  Si4  1  0.49625800  0.92104700  0.64459500  1
  Si  Si5  1  0.92104700  0.49625800  0.64459500  1
  Si  Si6  1  0.50374200  0.07895300  0.35540500  1
  Si  Si7  1  0.07895300  0.50374200  0.35540500  1
  Si  Si8  1  0.13276000  0.13276000  0.28270800  1
  Si  Si9  1  0.86724000  0.86724000  0.71729200  1
  Si  Si10  1  0.12395100  0.12395100  0.60756200  1
  Si  Si11  1  0.87604900  0.87604900  0.39243800  1
  O  O0  1  0.34144600  0.99062600  0.21590500  1
  O  O1  1  0.99062600  0.34144600  0.21590500  1
  O  O2  1  0.65855400  0.00937400  0.78409500  1
  O  O3  1  0.00937400  0.65855400  0.78409500  1
  O  O4  1  0.33128800  0.97418600  0.65008800  1
  O  O5  1  0.97418600  0.33128800  0.65008800  1
  O  O6  1  0.66871200  0.02581400  0.34991200  1
  O  O7  1  0.02581400  0.66871200  0.34991200  1
  O  O8  1  0.55182800  0.97431300  0.24073200  1
  O  O9  1  0.97431300  0.55182800  0.24073200  1
  O  O10  1  0.44817200  0.02568700  0.75926800  1
  O  O11  1  0.02568700  0.44817200  0.75926800  1
  O  O12  1  0.12641300  0.12641300  0.44601700  1
  O  O13  1  0.87358700  0.87358700  0.55398300  1
  O  O14  1  0.69670700  0.69670700  0.66692900  1
  O  O15  1  0.30329300  0.30329300  0.33307100  1
  O  O16  1  0.69363300  0.69363300  0.15370600  1
  O  O17  1  0.30636700  0.30636700  0.84629400  1
  O  O18  1  0.50000000  0.00000000  0.00000000  1
  O  O19  1  0.00000000  0.50000000  0.00000000  1
  O  O20  1  0.50000000  0.00000000  0.50000000  1
  O  O21  1  0.00000000  0.50000000  0.50000000  1
  O  O22  1  0.07343800  0.07343800  0.24116800  1
  O  O23  1  0.92656200  0.92656200  0.75883200  1
  O  O24  1  0.05854300  0.05854300  0.68538700  1
  O  O25  1  0.94145700  0.94145700  0.31461300  1
loop_
_geom_bond_atom_site_label_1
_geom_bond_atom_site_label_2
_geom_bond_distance
_geom_bond_site_symmetry_2
O0 Si0 1.622735 1_555
O0 Si8 1.624584 1_565
O1 Si1 1.622735 1_555
O1 Si8 1.624584 1_655
O2 Si2 1.622735 1_555
O2 Si9 1.624584 1_545
O3 Si3 1.622735 1_555
O3 Si9 1.624584 1_455
O4 Si4 1.625128 1_555
O4 Si10 1.638038 1_565
O5 Si5 1.625128 1_555
O5 Si10 1.638038 1_655
O6 Si6 1.625128 1_555
O6 Si11 1.638038 1_545
O7 Si7 1.625128 1_555
O7 Si11 1.638038 1_455
O8 Si0 1.620694 1_555
O8 Si6 1.622030 1_565
O9 Si1 1.620694 1_555
O9 Si7 1.622030 1_655
O10 Si2 1.620694 1_555
O10 Si4 1.622030 1_545
O11 Si3 1.620694 1_555
O11 Si5 1.622030 1_455
O12 Si10 1.638896 1_555
O12 Si8 1.639168 1_555
O13 Si11 1.638896 1_555
O13 Si9 1.639168 1_555
O14 Si4 1.633366 1_555
O14 Si5 1.633366 1_555
O15 Si7 1.633366 1_555
O15 Si6 1.633366 1_555
O16 Si0 1.621541 1_555
O16 Si1 1.621541 1_555
O17 Si2 1.621541 1_555
O17 Si3 1.621541 1_555
O18 Si0 1.615109 1_545
O18 Si2 1.615109 1_554
O19 Si1 1.615109 1_455
O19 Si3 1.615109 1_554
O20 Si4 1.614312 1_545
O20 Si6 1.614312 1_555
O21 Si5 1.614312 1_455
O21 Si7 1.614312 1_555
O22 Si8 1.657440 1_555
O23 Si9 1.657440 1_555
O24 Si10 1.651833 1_555
O25 Si11 1.651833 1_555
