# generated using pymatgen
data_Li3Sn(BO3)2
_symmetry_space_group_name_H-M   'P 1'
_cell_length_a   6.45529300
_cell_length_b   8.84904300
_cell_length_c   10.10635597
_cell_angle_alpha   63.13974563
_cell_angle_beta   90.00000000
_cell_angle_gamma   90.00000000
_symmetry_Int_Tables_number   1
_chemical_formula_structural   Li3Sn(BO3)2
_chemical_formula_sum   'Li12 Sn4 B8 O24'
_cell_volume   515.02205879
_cell_formula_units_Z   4
loop_
 _symmetry_equiv_pos_site_id
 _symmetry_equiv_pos_as_xyz
  1  'x, y, z'
loop_
 _atom_site_type_symbol
 _atom_site_label
 _atom_site_symmetry_multiplicity
 _atom_site_fract_x
 _atom_site_fract_y
 _atom_site_fract_z
 _atom_site_occupancy
  Li  Li0  1  0.24409100  0.39420100  0.97928600  1
  Li  Li1  1  0.93779300  0.29090800  0.16881700  1
  Li  Li2  1  0.74409100  0.60579900  0.52071400  1
  Li  Li3  1  0.72164900  0.15927900  0.04407900  1
  Li  Li4  1  0.56220700  0.29090800  0.66881700  1
  Li  Li5  1  0.22164900  0.84072100  0.45592100  1
  Li  Li6  1  0.77835100  0.15927900  0.54407900  1
  Li  Li7  1  0.43779300  0.70909200  0.33118300  1
  Li  Li8  1  0.27835100  0.84072100  0.95592100  1
  Li  Li9  1  0.25590900  0.39420100  0.47928600  1
  Li  Li10  1  0.06220700  0.70909200  0.83118300  1
  Li  Li11  1  0.75590900  0.60579900  0.02071400  1
  Sn  Sn0  1  0.46830100  0.19098700  0.30009600  1
  Sn  Sn1  1  0.03169900  0.19098700  0.80009600  1
  Sn  Sn2  1  0.96830100  0.80901300  0.19990400  1
  Sn  Sn3  1  0.53169900  0.80901300  0.69990400  1
  B  B0  1  0.33649900  0.53966000  0.67755200  1
  B  B1  1  0.83649900  0.46034000  0.82244800  1
  B  B2  1  0.82697900  0.94788400  0.38823100  1
  B  B3  1  0.32697900  0.05211600  0.11176900  1
  B  B4  1  0.67302100  0.94788400  0.88823100  1
  B  B5  1  0.17302100  0.05211600  0.61176900  1
  B  B6  1  0.16350100  0.53966000  0.17755200  1
  B  B7  1  0.66350100  0.46034000  0.32244800  1
  O  O0  1  0.78701900  0.61762600  0.81415100  1
  O  O1  1  0.29433800  0.58704200  0.78867500  1
  O  O2  1  0.44052900  0.65820500  0.55255000  1
  O  O3  1  0.94052900  0.34179500  0.94745000  1
  O  O4  1  0.79433800  0.41295800  0.71132500  1
  O  O5  1  0.70840600  0.99038600  0.48193900  1
  O  O6  1  0.43240900  0.20450800  0.06086200  1
  O  O7  1  0.28701900  0.38237400  0.68584900  1
  O  O8  1  0.83027100  0.05864500  0.23944400  1
  O  O9  1  0.33027100  0.94135500  0.26055600  1
  O  O10  1  0.93240900  0.79549200  0.43913800  1
  O  O11  1  0.20840600  0.00961400  0.01806100  1
  O  O12  1  0.79159400  0.99038600  0.98193900  1
  O  O13  1  0.06759100  0.20450800  0.56086200  1
  O  O14  1  0.66972900  0.05864500  0.73944400  1
  O  O15  1  0.16972900  0.94135500  0.76055600  1
  O  O16  1  0.71298100  0.61762600  0.31415100  1
  O  O17  1  0.56759100  0.79549200  0.93913800  1
  O  O18  1  0.29159400  0.00961400  0.51806100  1
  O  O19  1  0.20566200  0.58704200  0.28867500  1
  O  O20  1  0.05947100  0.65820500  0.05255000  1
  O  O21  1  0.55947100  0.34179500  0.44745000  1
  O  O22  1  0.70566200  0.41295800  0.21132500  1
  O  O23  1  0.21298100  0.38237400  0.18584900  1
loop_
_geom_bond_atom_site_label_1
_geom_bond_atom_site_label_2
_geom_bond_distance
_geom_bond_site_symmetry_2
Li0 O6 1.929938 1_556
Li0 O1 1.938468 1_555
Li0 O23 2.052298 1_556
Li0 O3 2.072044 1_455
Li1 O8 1.972272 1_555
Li1 O23 1.991556 1_655
Li1 O22 2.003922 1_555
Li1 O3 2.073131 1_554
Li2 O10 1.929938 1_555
Li2 O4 1.938468 1_555
Li2 O16 2.052298 1_555
Li2 O2 2.072044 1_555
Li3 O8 1.895845 1_555
Li3 O12 1.918346 1_544
Li3 O6 1.932995 1_555
Li3 O3 2.033062 1_554
Li4 O14 1.972272 1_555
Li4 O7 1.991556 1_555
Li4 O4 2.003922 1_555
Li4 O21 2.073131 1_555
Li5 O9 1.895845 1_555
Li5 O18 1.918346 1_565
Li5 O10 1.932995 1_455
Li5 O2 2.033062 1_555
Li6 O14 1.895845 1_555
Li6 O5 1.918346 1_545
Li6 O13 1.932995 1_655
Li6 O21 2.033062 1_555
Li7 O9 1.972272 1_555
Li7 O16 1.991556 1_555
Li7 O19 2.003922 1_555
Li7 O2 2.073131 1_555
Li8 O15 1.895845 1_555
Li8 O11 1.918346 1_566
Li8 O17 1.932995 1_555
Li8 O20 2.033062 1_556
Li9 O13 1.929938 1_555
Li9 O19 1.938468 1_555
Li9 O7 2.052298 1_555
Li9 O21 2.072044 1_555
Li10 O15 1.972272 1_555
Li10 O0 1.991556 1_455
Li10 O1 2.003922 1_555
Li10 O20 2.073131 1_556
Li11 O17 1.929938 1_554
Li11 O22 1.938468 1_555
Li11 O0 2.052298 1_554
Li11 O20 2.072044 1_655
B0 O1 1.391622 1_555
B0 O7 1.393120 1_555
B0 O2 1.396366 1_555
B1 O4 1.391622 1_555
B1 O0 1.393120 1_555
B1 O3 1.396366 1_555
B2 O8 1.374924 1_565
B2 O10 1.385448 1_555
B2 O5 1.395021 1_555
B3 O9 1.374924 1_545
B3 O6 1.385448 1_555
B3 O11 1.395021 1_555
B4 O14 1.374924 1_565
B4 O17 1.385448 1_555
B4 O12 1.395021 1_555
B5 O15 1.374924 1_545
B5 O13 1.385448 1_555
B5 O18 1.395021 1_555
B6 O19 1.391622 1_555
B6 O23 1.393120 1_555
B6 O20 1.396366 1_555
B7 O22 1.391622 1_555
B7 O16 1.393120 1_555
B7 O21 1.396366 1_555
O0 Sn3 2.269546 1_555
O1 Sn3 2.327753 1_555
O2 Sn3 2.478078 1_555
O3 Sn1 2.478078 1_655
O4 Sn1 2.327753 1_655
O5 Sn3 2.352620 1_555
O5 Sn0 2.446000 1_565
O6 Sn0 2.377451 1_555
O7 Sn1 2.269546 1_555
O8 Sn2 2.575067 1_545
O9 Sn0 2.575067 1_565
O10 Sn2 2.377451 1_555
O11 Sn1 2.352620 1_554
O11 Sn2 2.446000 1_445
O12 Sn2 2.352620 1_556
O12 Sn1 2.446000 1_665
O13 Sn1 2.377451 1_555
O14 Sn3 2.575067 1_545
O15 Sn1 2.575067 1_565
O16 Sn2 2.269546 1_555
O17 Sn3 2.377451 1_555
O18 Sn0 2.352620 1_555
O18 Sn3 2.446000 1_545
O19 Sn2 2.327753 1_455
O20 Sn2 2.478078 1_455
O21 Sn0 2.478078 1_555
O22 Sn0 2.327753 1_555
O23 Sn0 2.269546 1_555
