# generated using pymatgen
data_LiFeSiO4
_symmetry_space_group_name_H-M   'P 1'
_cell_length_a   8.97302756
_cell_length_b   8.97302756
_cell_length_c   8.97302732
_cell_angle_alpha   90.57230997
_cell_angle_beta   90.57230997
_cell_angle_gamma   90.57231102
_symmetry_Int_Tables_number   1
_chemical_formula_structural   LiFeSiO4
_chemical_formula_sum   'Li6 Fe6 Si6 O24'
_cell_volume   722.35645083
_cell_formula_units_Z   6
loop_
 _symmetry_equiv_pos_site_id
 _symmetry_equiv_pos_as_xyz
  1  'x, y, z'
loop_
 _atom_site_type_symbol
 _atom_site_label
 _atom_site_symmetry_multiplicity
 _atom_site_fract_x
 _atom_site_fract_y
 _atom_site_fract_z
 _atom_site_occupancy
  Li  Li0  1  0.78150300  0.76871600  0.22622200  1
  Li  Li1  1  0.28150300  0.72622200  0.26871600  1
  Li  Li2  1  0.72622200  0.26871600  0.28150300  1
  Li  Li3  1  0.26871600  0.28150300  0.72622200  1
  Li  Li4  1  0.22622200  0.78150300  0.76871600  1
  Li  Li5  1  0.76871600  0.22622200  0.78150300  1
  Fe  Fe0  1  0.50387900  0.75254300  0.99087900  1
  Fe  Fe1  1  0.49087900  0.25254300  0.00387900  1
  Fe  Fe2  1  0.00387900  0.49087900  0.25254300  1
  Fe  Fe3  1  0.25254300  0.00387900  0.49087900  1
  Fe  Fe4  1  0.75254300  0.99087900  0.50387900  1
  Fe  Fe5  1  0.99087900  0.50387900  0.75254300  1
  Si  Si0  1  0.74667100  0.49287500  0.00913900  1
  Si  Si1  1  0.24667100  0.50913900  0.99287500  1
  Si  Si2  1  0.50913900  0.99287500  0.24667100  1
  Si  Si3  1  0.99287500  0.24667100  0.50913900  1
  Si  Si4  1  0.00913900  0.74667100  0.49287500  1
  Si  Si5  1  0.49287500  0.00913900  0.74667100  1
  O  O0  1  0.34517100  0.64129000  0.07943300  1
  O  O1  1  0.65358500  0.35876600  0.09513900  1
  O  O2  1  0.84517100  0.57943300  0.14129000  1
  O  O3  1  0.14134400  0.42783600  0.11483400  1
  O  O4  1  0.59513900  0.85876600  0.15358500  1
  O  O5  1  0.42783600  0.11483400  0.14134400  1
  O  O6  1  0.37774200  0.91102100  0.34631200  1
  O  O7  1  0.64129000  0.07943300  0.34517100  1
  O  O8  1  0.09513900  0.65358500  0.35876600  1
  O  O9  1  0.91102100  0.34631200  0.37774200  1
  O  O10  1  0.87774200  0.84631200  0.41102100  1
  O  O11  1  0.11483400  0.14134400  0.42783600  1
  O  O12  1  0.14129000  0.84517100  0.57943300  1
  O  O13  1  0.85876600  0.15358500  0.59513900  1
  O  O14  1  0.92783600  0.64134400  0.61483400  1
  O  O15  1  0.07943300  0.34517100  0.64129000  1
  O  O16  1  0.61483400  0.92783600  0.64134400  1
  O  O17  1  0.35876600  0.09513900  0.65358500  1
  O  O18  1  0.41102100  0.87774200  0.84631200  1
  O  O19  1  0.57943300  0.14129000  0.84517100  1
  O  O20  1  0.84631200  0.41102100  0.87774200  1
  O  O21  1  0.15358500  0.59513900  0.85876600  1
  O  O22  1  0.64134400  0.61483400  0.92783600  1
  O  O23  1  0.34631200  0.37774200  0.91102100  1
loop_
_geom_bond_atom_site_label_1
_geom_bond_atom_site_label_2
_geom_bond_distance
_geom_bond_site_symmetry_2
Li0 O2 1.947844 1_555
Li0 O4 1.972274 1_555
Li0 O10 1.979012 1_555
Li1 O0 1.947844 1_555
Li1 O8 1.972274 1_555
Li1 O6 1.979012 1_555
Li2 O7 1.947844 1_555
Li2 O1 1.972274 1_555
Li2 O9 1.979012 1_555
Li3 O15 1.947844 1_555
Li3 O17 1.972274 1_555
Li3 O23 1.979012 1_555
Li4 O12 1.947844 1_555
Li4 O21 1.972274 1_555
Li4 O18 1.979012 1_555
Li5 O19 1.947844 1_555
Li5 O13 1.972274 1_555
Li5 O20 1.979012 1_555
Fe0 O22 1.843573 1_555
Fe0 O4 1.908734 1_556
Fe0 O18 1.914489 1_555
Fe0 O0 1.914688 1_556
Fe1 O5 1.843573 1_555
Fe1 O1 1.908734 1_555
Fe1 O23 1.914489 1_554
Fe1 O19 1.914688 1_554
Fe2 O3 1.843573 1_555
Fe2 O8 1.908734 1_555
Fe2 O9 1.914489 1_455
Fe2 O2 1.914688 1_455
Fe3 O11 1.843573 1_555
Fe3 O17 1.908734 1_555
Fe3 O6 1.914489 1_545
Fe3 O12 1.914688 1_545
Fe4 O16 1.843573 1_555
Fe4 O13 1.908734 1_565
Fe4 O10 1.914489 1_555
Fe4 O7 1.914688 1_565
Fe5 O14 1.843573 1_555
Fe5 O21 1.908734 1_655
Fe5 O20 1.914489 1_555
Fe5 O15 1.914688 1_655
O0 Si1 1.654534 1_554
O1 Si0 1.659092 1_555
O2 Si0 1.654534 1_555
O3 Si1 1.626609 1_554
O4 Si2 1.659092 1_555
O5 Si2 1.626609 1_545
O6 Si2 1.657054 1_555
O7 Si2 1.654534 1_545
O8 Si4 1.659092 1_555
O9 Si3 1.657054 1_555
O10 Si4 1.657054 1_655
O11 Si3 1.626609 1_455
O12 Si4 1.654534 1_555
O13 Si3 1.659092 1_555
O14 Si4 1.626609 1_655
O15 Si3 1.654534 1_455
O16 Si5 1.626609 1_565
O17 Si5 1.659092 1_555
O18 Si5 1.657054 1_565
O19 Si5 1.654534 1_555
O20 Si0 1.657054 1_556
O21 Si1 1.659092 1_555
O22 Si0 1.626609 1_556
O23 Si1 1.657054 1_555
