# generated using pymatgen
data_Hf2N2O
_symmetry_space_group_name_H-M   'P 1'
_cell_length_a   8.66060395
_cell_length_b   8.66933358
_cell_length_c   8.67487070
_cell_angle_alpha   109.37394175
_cell_angle_beta   109.43813028
_cell_angle_gamma   109.48382413
_symmetry_Int_Tables_number   1
_chemical_formula_structural   Hf2N2O
_chemical_formula_sum   'Hf16 N16 O8'
_cell_volume   502.11628422
_cell_formula_units_Z   8
loop_
 _symmetry_equiv_pos_site_id
 _symmetry_equiv_pos_as_xyz
  1  'x, y, z'
loop_
 _atom_site_type_symbol
 _atom_site_label
 _atom_site_symmetry_multiplicity
 _atom_site_fract_x
 _atom_site_fract_y
 _atom_site_fract_z
 _atom_site_occupancy
  Hf  Hf0  1  0.51245185  0.50004387  0.50111851  1
  Hf  Hf1  1  0.20688100  0.74942706  0.46571542  1
  Hf  Hf2  1  0.96423532  0.21553626  0.24954927  1
  Hf  Hf3  1  0.47597179  0.71972066  0.25097136  1
  Hf  Hf4  1  0.29361869  0.24624149  0.03461444  1
  Hf  Hf5  1  0.74832058  0.96583751  0.71544415  1
  Hf  Hf6  1  0.25294444  0.03504422  0.28580429  1
  Hf  Hf7  1  0.24137602  0.53071926  0.78476580  1
  Hf  Hf8  1  0.98354897  0.49346310  0.99525898  1
  Hf  Hf9  1  0.75224397  0.47135071  0.21330543  1
  Hf  Hf10  1  0.00046403  0.99876933  0.48930707  1
  Hf  Hf11  1  0.50166002  0.00001707  0.00073587  1
  Hf  Hf12  1  0.71887466  0.75874177  0.96980474  1
  Hf  Hf13  1  0.53515273  0.28167489  0.74802509  1
  Hf  Hf14  1  0.02648889  0.78016528  0.75168484  1
  Hf  Hf15  1  0.78762725  0.24981132  0.54187634  1
  N  N0  1  0.76902751  0.72850210  0.73488436  1
  N  N1  1  0.53979387  0.51150049  0.27183175  1
  N  N2  1  0.95601181  0.72808906  0.47324492  1
  N  N3  1  0.50439584  0.76625771  0.04000733  1
  N  N4  1  0.73693725  0.01568080  0.96689886  1
  N  N5  1  0.01398884  0.46617857  0.23864286  1
  N  N6  1  0.04828037  0.27428547  0.53411420  1
  N  N7  1  0.76233632  0.22943792  0.77376381  1
  N  N8  1  0.72610559  0.96333456  0.45655733  1
  N  N9  1  0.99681206  0.53908278  0.76758736  1
  N  N10  1  0.96931612  0.95574751  0.22635844  1
  N  N11  1  0.25861795  0.98726736  0.03274558  1
  N  N12  1  0.48704589  0.22537877  0.95443648  1
  N  N13  1  0.77153333  0.54704316  0.01073003  1
  N  N14  1  0.27380753  0.02994055  0.54322578  1
  N  N15  1  0.53634566  0.26616622  0.48524764  1
  O  O0  1  0.22830216  0.27361652  0.26494164  1
  O  O1  1  0.46134258  0.73876215  0.51510935  1
  O  O2  1  0.27977985  0.76057377  0.72548615  1
  O  O3  1  0.45118946  0.48859019  0.72156537  1
  O  O4  1  0.24528882  0.77184994  0.23052499  1
  O  O5  1  0.72512622  0.23381456  0.27079312  1
  O  O6  1  0.03456411  0.05514631  0.77923465  1
  O  O7  1  0.22219666  0.44718570  0.98408740  1
loop_
_geom_bond_atom_site_label_1
_geom_bond_atom_site_label_2
_geom_bond_distance
_geom_bond_site_symmetry_2
Hf0 N15 2.070371 1_555
Hf0 N0 2.091163 1_555
Hf0 N1 2.109753 1_555
Hf0 O3 2.171312 1_555
Hf0 O0 2.204629 1_555
Hf0 O1 2.230201 1_555
Hf1 O2 2.086621 1_555
Hf1 N14 2.101778 1_565
Hf1 N5 2.136564 1_555
Hf1 O1 2.140689 1_555
Hf1 N2 2.143217 1_455
Hf1 O4 2.232205 1_555
Hf2 N5 2.110704 1_655
Hf2 O0 2.117925 1_655
Hf2 N4 2.140742 1_554
Hf2 N6 2.146075 1_655
Hf2 O5 2.191103 1_555
Hf2 N10 2.210472 1_545
Hf3 N8 2.052198 1_555
Hf3 N3 2.072689 1_555
Hf3 N1 2.100596 1_555
Hf3 O4 2.155630 1_555
Hf3 O1 2.291259 1_555
Hf3 O7 2.300642 1_554
Hf4 N12 2.053513 1_554
Hf4 O6 2.112690 1_554
Hf4 N11 2.156702 1_545
Hf4 O7 2.157417 1_554
Hf4 N1 2.176710 1_555
Hf4 O0 2.212642 1_555
Hf5 N7 2.121328 1_565
Hf5 N4 2.121522 1_565
Hf5 O6 2.138601 1_665
Hf5 O1 2.159692 1_555
Hf5 N0 2.179518 1_555
Hf5 N8 2.181386 1_555
Hf6 N11 2.115469 1_545
Hf6 N10 2.137197 1_445
Hf6 O4 2.143028 1_545
Hf6 N15 2.150655 1_555
Hf6 N14 2.196284 1_555
Hf6 O0 2.207510 1_555
Hf7 N6 2.087922 1_555
Hf7 N9 2.100768 1_455
Hf7 O7 2.117420 1_555
Hf7 O2 2.167360 1_555
Hf7 O3 2.169980 1_555
Hf7 N3 2.191243 1_556
Hf8 N13 2.072913 1_556
Hf8 N7 2.075622 1_555
Hf8 N5 2.141405 1_656
Hf8 N9 2.170080 1_555
Hf8 O7 2.258941 1_655
Hf8 O4 2.265344 1_656
Hf9 N13 2.105710 1_555
Hf9 N2 2.134094 1_555
Hf9 N1 2.167037 1_555
Hf9 N5 2.220750 1_655
Hf9 O5 2.231854 1_555
Hf9 N12 2.233424 1_554
Hf10 N10 2.091393 1_455
Hf10 N6 2.155172 1_565
Hf10 N14 2.156017 1_565
Hf10 N2 2.195212 1_455
Hf10 N8 2.197010 1_455
Hf10 O6 2.290310 1_565
Hf11 N4 2.120506 1_554
Hf11 O5 2.134768 1_555
Hf11 N12 2.155495 1_554
Hf11 O2 2.167872 1_544
Hf11 N3 2.169835 1_545
Hf11 N11 2.184965 1_545
Hf12 N10 2.090136 1_556
Hf12 N13 2.141301 1_556
Hf12 N3 2.152399 1_556
Hf12 N0 2.172808 1_555
Hf12 N4 2.189578 1_565
Hf12 O3 2.281692 1_555
Hf13 N7 2.120201 1_555
Hf13 N14 2.120889 1_555
Hf13 N12 2.135109 1_555
Hf13 O3 2.198064 1_555
Hf13 N13 2.225254 1_556
Hf13 N15 2.242284 1_555
Hf14 N0 2.065894 1_455
Hf14 N9 2.076016 1_455
Hf14 N2 2.126520 1_455
Hf14 N11 2.152963 1_556
Hf14 O6 2.290122 1_565
Hf14 O2 2.333960 1_555
Hf15 N15 2.130255 1_555
Hf15 N7 2.151479 1_555
Hf15 N8 2.152907 1_545
Hf15 O5 2.174543 1_555
Hf15 N9 2.180699 1_555
Hf15 N6 2.221848 1_655
