# generated using pymatgen
data_Li6W2O9
_symmetry_space_group_name_H-M   'P 1'
_cell_length_a   6.66817173
_cell_length_b   6.66817173
_cell_length_c   8.32740693
_cell_angle_alpha   71.85428243
_cell_angle_beta   71.85428243
_cell_angle_gamma   83.87383061
_symmetry_Int_Tables_number   1
_chemical_formula_structural   Li6W2O9
_chemical_formula_sum   'Li12 W4 O18'
_cell_volume   334.34122374
_cell_formula_units_Z   2
loop_
 _symmetry_equiv_pos_site_id
 _symmetry_equiv_pos_as_xyz
  1  'x, y, z'
loop_
 _atom_site_type_symbol
 _atom_site_label
 _atom_site_symmetry_multiplicity
 _atom_site_fract_x
 _atom_site_fract_y
 _atom_site_fract_z
 _atom_site_occupancy
  Li  Li0  1  0.34531600  0.98386400  0.41607700  1
  Li  Li1  1  0.66029600  0.66436600  0.41869000  1
  Li  Li2  1  0.00147100  0.35718100  0.41123000  1
  Li  Li3  1  0.35718100  0.00147100  0.91123000  1
  Li  Li4  1  0.98386400  0.34531600  0.91607700  1
  Li  Li5  1  0.66436600  0.66029600  0.91869000  1
  Li  Li6  1  0.65468400  0.01613600  0.58392300  1
  Li  Li7  1  0.33970400  0.33563400  0.58131000  1
  Li  Li8  1  0.99852900  0.64281900  0.58877000  1
  Li  Li9  1  0.01613600  0.65468400  0.08392300  1
  Li  Li10  1  0.33563400  0.33970400  0.08131000  1
  Li  Li11  1  0.64281900  0.99852900  0.08877000  1
  W  W0  1  0.01014500  0.98985500  0.25000000  1
  W  W1  1  0.98985500  0.01014500  0.75000000  1
  W  W2  1  0.36305300  0.63694700  0.75000000  1
  W  W3  1  0.63694700  0.36305300  0.25000000  1
  O  O0  1  0.67787200  0.65171900  0.16754700  1
  O  O1  1  0.01548400  0.30050100  0.66897600  1
  O  O2  1  0.30050100  0.01548400  0.16897600  1
  O  O3  1  0.30844500  0.98108100  0.67930000  1
  O  O4  1  0.98108100  0.30844500  0.17930000  1
  O  O5  1  0.65171900  0.67787200  0.66754700  1
  O  O6  1  0.33039900  0.66980700  0.52463800  1
  O  O7  1  0.00000000  0.00000000  0.00000000  1
  O  O8  1  0.00000000  0.00000000  0.50000000  1
  O  O9  1  0.33019300  0.66960100  0.97536200  1
  O  O10  1  0.98451600  0.69949900  0.33102400  1
  O  O11  1  0.34828100  0.32212800  0.33245300  1
  O  O12  1  0.01891900  0.69155500  0.82070000  1
  O  O13  1  0.69949900  0.98451600  0.83102400  1
  O  O14  1  0.69155500  0.01891900  0.32070000  1
  O  O15  1  0.32212800  0.34828100  0.83245300  1
  O  O16  1  0.66960100  0.33019300  0.47536200  1
  O  O17  1  0.66980700  0.33039900  0.02463800  1
loop_
_geom_bond_atom_site_label_1
_geom_bond_atom_site_label_2
_geom_bond_distance
_geom_bond_site_symmetry_2
Li0 O6 2.005495 1_555
Li0 O2 2.113588 1_565
Li0 O3 2.122608 1_555
Li0 O11 2.143746 1_565
Li0 O8 2.189451 1_565
Li0 O14 2.207556 1_565
Li1 O10 2.068908 1_555
Li1 O5 2.085012 1_555
Li1 O0 2.085606 1_555
Li1 O6 2.100691 1_555
Li1 O16 2.127370 1_555
Li1 O14 2.257529 1_565
Li2 O1 2.090579 1_555
Li2 O4 2.101964 1_455
Li2 O16 2.122221 1_455
Li2 O10 2.170631 1_455
Li2 O11 2.206409 1_555
Li2 O8 2.263421 1_555
Li3 O2 2.090579 1_556
Li3 O3 2.101964 1_545
Li3 O9 2.122221 1_545
Li3 O13 2.170631 1_545
Li3 O15 2.206409 1_555
Li3 O7 2.263421 1_556
Li4 O17 2.005495 1_556
Li4 O1 2.113588 1_655
Li4 O4 2.122608 1_556
Li4 O15 2.143746 1_655
Li4 O7 2.189451 1_656
Li4 O12 2.207556 1_655
Li5 O13 2.068908 1_555
Li5 O0 2.085012 1_556
Li5 O5 2.085606 1_555
Li5 O17 2.100691 1_556
Li5 O9 2.127370 1_555
Li5 O12 2.257529 1_655
Li6 O16 2.005495 1_555
Li6 O13 2.113588 1_545
Li6 O14 2.122608 1_555
Li6 O5 2.143746 1_545
Li6 O8 2.189451 1_655
Li6 O3 2.207556 1_545
Li7 O1 2.068908 1_555
Li7 O11 2.085012 1_555
Li7 O15 2.085606 1_555
Li7 O16 2.100691 1_555
Li7 O6 2.127370 1_555
Li7 O3 2.257529 1_545
Li8 O10 2.090579 1_555
Li8 O12 2.101964 1_655
Li8 O6 2.122221 1_655
Li8 O1 2.170631 1_655
Li8 O5 2.206409 1_555
Li8 O8 2.263421 1_665
Li9 O9 2.005495 1_554
Li9 O10 2.113588 1_455
Li9 O12 2.122608 1_554
Li9 O0 2.143746 1_455
Li9 O7 2.189451 1_565
Li9 O4 2.207556 1_455
Li10 O2 2.068908 1_555
Li10 O15 2.085012 1_554
Li10 O11 2.085606 1_555
Li10 O9 2.100691 1_554
Li10 O17 2.127370 1_555
Li10 O4 2.257529 1_455
Li11 O13 2.090579 1_554
Li11 O14 2.101964 1_565
Li11 O17 2.122221 1_565
Li11 O2 2.170631 1_565
Li11 O0 2.206409 1_555
Li11 O7 2.263421 1_665
O0 W3 1.850202 1_555
O1 W1 1.848842 1_455
O2 W0 1.848842 1_545
O3 W1 2.025206 1_465
O3 W2 2.204256 1_555
O4 W0 2.025206 1_645
O4 W3 2.204256 1_555
O5 W2 1.850202 1_555
O6 W2 1.898833 1_555
O7 W1 2.083814 1_454
O7 W0 2.083814 1_545
O8 W1 2.083814 1_455
O8 W0 2.083814 1_545
O9 W2 1.898833 1_555
O10 W0 1.848842 1_655
O11 W3 1.850202 1_555
O12 W1 2.025206 1_465
O12 W2 2.204256 1_555
O13 W1 1.848842 1_565
O14 W0 2.025206 1_645
O14 W3 2.204256 1_555
O15 W2 1.850202 1_555
O16 W3 1.898833 1_555
O17 W3 1.898833 1_555
