# generated using pymatgen
data_Mg17(SiO3)16
_symmetry_space_group_name_H-M   'P 1'
_cell_length_a   8.93334100
_cell_length_b   9.48811400
_cell_length_c   10.85969988
_cell_angle_alpha   89.28868192
_cell_angle_beta   90.00000000
_cell_angle_gamma   90.00000000
_symmetry_Int_Tables_number   1
_chemical_formula_structural   Mg17(SiO3)16
_chemical_formula_sum   'Mg17 Si16 O48'
_cell_volume   920.40328505
_cell_formula_units_Z   1
loop_
 _symmetry_equiv_pos_site_id
 _symmetry_equiv_pos_as_xyz
  1  'x, y, z'
loop_
 _atom_site_type_symbol
 _atom_site_label
 _atom_site_symmetry_multiplicity
 _atom_site_fract_x
 _atom_site_fract_y
 _atom_site_fract_z
 _atom_site_occupancy
  Mg  Mg0  1  0.10301800  0.01102000  0.75308100  1
  Mg  Mg1  1  0.73898000  0.00333600  0.75150900  1
  Mg  Mg2  1  0.26191900  0.00000000  0.50000000  1
  Mg  Mg3  1  0.89586200  0.00000000  0.00000000  1
  Mg  Mg4  1  0.26173600  0.00000000  0.00000000  1
  Mg  Mg5  1  0.10301800  0.98898000  0.24691900  1
  Mg  Mg6  1  0.73898000  0.99666400  0.24849100  1
  Mg  Mg7  1  0.89568600  0.00000000  0.50000000  1
  Mg  Mg8  1  0.76466600  0.50000000  0.50000000  1
  Mg  Mg9  1  0.13052000  0.50000000  0.50000000  1
  Mg  Mg10  1  0.44074200  0.50000000  0.50000000  1
  Mg  Mg11  1  0.60987600  0.49938300  0.24835000  1
  Mg  Mg12  1  0.75949200  0.50000000  0.00000000  1
  Mg  Mg13  1  0.25178800  0.49798300  0.24424400  1
  Mg  Mg14  1  0.40274300  0.50000000  0.00000000  1
  Mg  Mg15  1  0.60987600  0.50061700  0.75165000  1
  Mg  Mg16  1  0.25178800  0.50201700  0.75575600  1
  Si  Si0  1  0.58948100  0.20883800  0.90694200  1
  Si  Si1  1  0.40951200  0.20679700  0.15642000  1
  Si  Si2  1  0.41234300  0.21173200  0.65536100  1
  Si  Si3  1  0.59329100  0.20638300  0.40501700  1
  Si  Si4  1  0.09131000  0.29256600  0.90783000  1
  Si  Si5  1  0.08668800  0.26869300  0.39242800  1
  Si  Si6  1  0.91278300  0.29064900  0.65816800  1
  Si  Si7  1  0.90409600  0.28574600  0.15089600  1
  Si  Si8  1  0.09131000  0.70743400  0.09217000  1
  Si  Si9  1  0.90409600  0.71425400  0.84910400  1
  Si  Si10  1  0.08668800  0.73130700  0.60757200  1
  Si  Si11  1  0.91278300  0.70935100  0.34183200  1
  Si  Si12  1  0.41234300  0.78826800  0.34463900  1
  Si  Si13  1  0.40951200  0.79320300  0.84358000  1
  Si  Si14  1  0.58948100  0.79116200  0.09305800  1
  Si  Si15  1  0.59329100  0.79361700  0.59498300  1
  O  O0  1  0.74473700  0.12285000  0.90776700  1
  O  O1  1  0.74763500  0.11864900  0.40443800  1
  O  O2  1  0.25588900  0.12644700  0.65458800  1
  O  O3  1  0.25407300  0.11956800  0.15875200  1
  O  O4  1  0.09693100  0.12002200  0.91451900  1
  O  O5  1  0.90032200  0.11404700  0.15784600  1
  O  O6  1  0.90394300  0.11945700  0.66312000  1
  O  O7  1  0.08825200  0.10042200  0.40707100  1
  O  O8  1  0.48209300  0.15554700  0.52024600  1
  O  O9  1  0.47604900  0.15245600  0.01955700  1
  O  O10  1  0.52332100  0.15315600  0.26961900  1
  O  O11  1  0.52258800  0.15521500  0.76986100  1
  O  O12  1  0.01812200  0.33602500  0.26333000  1
  O  O13  1  0.02252600  0.34583500  0.77087200  1
  O  O14  1  0.97321700  0.34620100  0.01647700  1
  O  O15  1  0.98349600  0.33713700  0.51301600  1
  O  O16  1  0.40928200  0.37970100  0.16054300  1
  O  O17  1  0.41413100  0.38596400  0.66005200  1
  O  O18  1  0.59505300  0.38174100  0.91149700  1
  O  O19  1  0.60208700  0.37985500  0.41114000  1
  O  O20  1  0.24717300  0.37924600  0.90960400  1
  O  O21  1  0.24298800  0.36217500  0.40158100  1
  O  O22  1  0.75057600  0.37502800  0.15459600  1
  O  O23  1  0.76108000  0.38249900  0.65499000  1
  O  O24  1  0.24717300  0.62075400  0.09039600  1
  O  O25  1  0.76108000  0.61750100  0.34501000  1
  O  O26  1  0.75057600  0.62497200  0.84540400  1
  O  O27  1  0.24298800  0.63782500  0.59841900  1
  O  O28  1  0.41413100  0.61403600  0.33994800  1
  O  O29  1  0.40928200  0.62029900  0.83945700  1
  O  O30  1  0.59505300  0.61825900  0.08850300  1
  O  O31  1  0.60208700  0.62014500  0.58886000  1
  O  O32  1  0.02252600  0.65416500  0.22912800  1
  O  O33  1  0.01812200  0.66397500  0.73667000  1
  O  O34  1  0.97321700  0.65379900  0.98352300  1
  O  O35  1  0.98349600  0.66286300  0.48698400  1
  O  O36  1  0.52332100  0.84684400  0.73038100  1
  O  O37  1  0.48209300  0.84445300  0.47975400  1
  O  O38  1  0.47604900  0.84754400  0.98044300  1
  O  O39  1  0.52258800  0.84478500  0.23013900  1
  O  O40  1  0.90032200  0.88595300  0.84215400  1
  O  O41  1  0.09693100  0.87997800  0.08548100  1
  O  O42  1  0.08825200  0.89957800  0.59292900  1
  O  O43  1  0.90394300  0.88054300  0.33688000  1
  O  O44  1  0.25407300  0.88043200  0.84124800  1
  O  O45  1  0.25588900  0.87355300  0.34541200  1
  O  O46  1  0.74473700  0.87715000  0.09223300  1
  O  O47  1  0.74763500  0.88135100  0.59556200  1
loop_
_geom_bond_atom_site_label_1
_geom_bond_atom_site_label_2
_geom_bond_distance
_geom_bond_site_symmetry_2
Mg0 O2 2.044357 1_555
Mg0 O4 2.047240 1_555
Mg0 O42 2.050836 1_545
Mg0 O44 2.059962 1_545
Mg0 O6 2.269528 1_455
Mg0 O40 2.365194 1_445
Mg1 O0 2.053245 1_555
Mg1 O40 2.063883 1_545
Mg1 O47 2.064536 1_545
Mg1 O6 2.068987 1_555
Mg1 O11 2.420816 1_555
Mg1 O36 2.444870 1_545
Mg2 O42 2.075898 1_545
Mg2 O7 2.075898 1_555
Mg2 O2 2.076197 1_555
Mg2 O45 2.076197 1_545
Mg2 O8 2.470461 1_555
Mg2 O37 2.470461 1_545
Mg3 O0 2.038518 1_554
Mg3 O46 2.038518 1_545
Mg3 O5 2.038850 1_555
Mg3 O40 2.038850 1_544
Mg3 O41 2.314890 1_645
Mg3 O4 2.314890 1_654
Mg4 O41 2.073611 1_545
Mg4 O4 2.073611 1_554
Mg4 O3 2.076645 1_555
Mg4 O44 2.076645 1_544
Mg4 O9 2.410515 1_555
Mg4 O38 2.410515 1_544
Mg5 O45 2.044357 1_555
Mg5 O41 2.047240 1_555
Mg5 O7 2.050836 1_565
Mg5 O3 2.059962 1_565
Mg5 O43 2.269528 1_455
Mg5 O5 2.365194 1_465
Mg6 O46 2.053245 1_555
Mg6 O5 2.063883 1_565
Mg6 O1 2.064536 1_565
Mg6 O43 2.068987 1_555
Mg6 O39 2.420816 1_555
Mg6 O10 2.444870 1_565
Mg7 O1 2.016070 1_555
Mg7 O47 2.016070 1_545
Mg7 O6 2.116109 1_555
Mg7 O43 2.116109 1_545
Mg7 O7 2.204930 1_655
Mg7 O42 2.204930 1_645
Mg8 O23 2.007568 1_555
Mg8 O25 2.007568 1_555
Mg8 O31 2.089832 1_555
Mg8 O19 2.089832 1_555
Mg8 O35 2.494787 1_555
Mg8 O15 2.494787 1_555
Mg9 O21 1.973973 1_555
Mg9 O27 1.973973 1_555
Mg9 O15 2.031614 1_455
Mg9 O35 2.031614 1_455
Mg10 O17 2.049772 1_555
Mg10 O28 2.049772 1_555
Mg10 O19 2.082186 1_555
Mg10 O31 2.082186 1_555
Mg10 O21 2.451123 1_555
Mg10 O27 2.451123 1_555
Mg11 O22 2.009587 1_555
Mg11 O25 2.052225 1_555
Mg11 O30 2.062624 1_555
Mg11 O19 2.089624 1_555
Mg11 O28 2.292934 1_555
Mg11 O16 2.331699 1_555
Mg12 O26 2.044874 1_554
Mg12 O22 2.044874 1_555
Mg12 O18 2.089846 1_554
Mg12 O30 2.089846 1_555
Mg12 O34 2.408386 1_554
Mg12 O14 2.408386 1_555
Mg13 O16 2.022511 1_555
Mg13 O24 2.025258 1_555
Mg13 O28 2.103411 1_555
Mg13 O21 2.128692 1_555
Mg13 O32 2.532088 1_555
Mg13 O12 2.598796 1_555
Mg14 O20 2.058090 1_554
Mg14 O24 2.058090 1_555
Mg14 O16 2.072784 1_555
Mg14 O29 2.072784 1_554
Mg14 O30 2.271773 1_555
Mg14 O18 2.271773 1_554
Mg15 O26 2.009587 1_555
Mg15 O23 2.052225 1_555
Mg15 O18 2.062624 1_555
Mg15 O31 2.089624 1_555
Mg15 O17 2.292934 1_555
Mg15 O29 2.331699 1_555
Mg16 O29 2.022511 1_555
Mg16 O20 2.025258 1_555
Mg16 O17 2.103411 1_555
Mg16 O27 2.128692 1_555
Mg16 O13 2.532088 1_555
Mg16 O33 2.598796 1_555
O0 Si0 1.609092 1_555
O1 Si3 1.610658 1_555
O2 Si2 1.615079 1_555
O3 Si1 1.616567 1_555
O4 Si4 1.638596 1_555
O5 Si7 1.630259 1_555
O6 Si6 1.626430 1_555
O7 Si5 1.602569 1_555
O8 Si3 1.664431 1_555
O8 Si2 1.686670 1_555
O9 Si0 1.671051 1_554
O9 Si1 1.687375 1_555
O10 Si1 1.669839 1_555
O10 Si3 1.681135 1_555
O11 Si2 1.669452 1_555
O11 Si0 1.688451 1_555
O12 Si5 1.651238 1_555
O12 Si7 1.664480 1_455
O13 Si6 1.658077 1_455
O13 Si4 1.681217 1_555
O14 Si4 1.667014 1_654
O14 Si7 1.679400 1_555
O15 Si5 1.734234 1_655
O15 Si6 1.749596 1_555
O16 Si1 1.641701 1_555
O17 Si2 1.654627 1_555
O18 Si0 1.642637 1_555
O19 Si3 1.649961 1_555
O20 Si4 1.617365 1_555
O21 Si5 1.657825 1_555
O22 Si7 1.612741 1_555
O23 Si6 1.611376 1_555
O24 Si8 1.617365 1_555
O25 Si11 1.611376 1_555
O26 Si9 1.612741 1_555
O27 Si10 1.657825 1_555
O28 Si12 1.654627 1_555
O29 Si13 1.641701 1_555
O30 Si14 1.642637 1_555
O31 Si15 1.649961 1_555
O32 Si11 1.658077 1_455
O32 Si8 1.681217 1_555
O33 Si10 1.651238 1_555
O33 Si9 1.664480 1_455
O34 Si8 1.667014 1_656
O34 Si9 1.679400 1_555
O35 Si10 1.734234 1_655
O35 Si11 1.749596 1_555
O36 Si13 1.669839 1_555
O36 Si15 1.681135 1_555
O37 Si15 1.664431 1_555
O37 Si12 1.686670 1_555
O38 Si14 1.671051 1_556
O38 Si13 1.687375 1_555
O39 Si12 1.669452 1_555
O39 Si14 1.688451 1_555
O40 Si9 1.630259 1_555
O41 Si8 1.638596 1_555
O42 Si10 1.602569 1_555
O43 Si11 1.626430 1_555
O44 Si13 1.616567 1_555
O45 Si12 1.615079 1_555
O46 Si14 1.609092 1_555
O47 Si15 1.610658 1_555
