# generated using pymatgen
data_SbSeO5
_symmetry_space_group_name_H-M   'P 1'
_cell_length_a   5.25913400
_cell_length_b   9.28539400
_cell_length_c   9.88781200
_cell_angle_alpha   90.00000000
_cell_angle_beta   90.00000000
_cell_angle_gamma   90.00000000
_symmetry_Int_Tables_number   1
_chemical_formula_structural   SbSeO5
_chemical_formula_sum   'Sb4 Se4 O20'
_cell_volume   482.85282155
_cell_formula_units_Z   4
loop_
 _symmetry_equiv_pos_site_id
 _symmetry_equiv_pos_as_xyz
  1  'x, y, z'
loop_
 _atom_site_type_symbol
 _atom_site_label
 _atom_site_symmetry_multiplicity
 _atom_site_fract_x
 _atom_site_fract_y
 _atom_site_fract_z
 _atom_site_occupancy
  Sb  Sb0  1  0.62134000  0.34032500  0.59551800  1
  Sb  Sb1  1  0.12134000  0.15967500  0.40448200  1
  Sb  Sb2  1  0.87866000  0.65967500  0.09551800  1
  Sb  Sb3  1  0.37866000  0.84032500  0.90448200  1
  Se  Se0  1  0.89466900  0.02346600  0.71003300  1
  Se  Se1  1  0.39466900  0.47653400  0.28996700  1
  Se  Se2  1  0.60533100  0.97653400  0.21003300  1
  Se  Se3  1  0.10533100  0.52346600  0.78996700  1
  O  O0  1  0.31735400  0.39440800  0.74726700  1
  O  O1  1  0.22085500  0.69349900  0.75890600  1
  O  O2  1  0.83359100  0.51589200  0.69765500  1
  O  O3  1  0.95496000  0.00423800  0.53966200  1
  O  O4  1  0.41571300  0.17881900  0.52595600  1
  O  O5  1  0.91571300  0.32118100  0.47404400  1
  O  O6  1  0.45496000  0.49576200  0.46033800  1
  O  O7  1  0.33359100  0.98410800  0.30234500  1
  O  O8  1  0.72085500  0.80650100  0.24109400  1
  O  O9  1  0.81735400  0.10559200  0.25273300  1
  O  O10  1  0.18264600  0.60559200  0.24726700  1
  O  O11  1  0.27914500  0.30650100  0.25890600  1
  O  O12  1  0.66640900  0.48410800  0.19765500  1
  O  O13  1  0.54504000  0.99576200  0.03966200  1
  O  O14  1  0.08428700  0.82118100  0.02595600  1
  O  O15  1  0.58428700  0.67881900  0.97404400  1
  O  O16  1  0.04504000  0.50423800  0.96033800  1
  O  O17  1  0.16640900  0.01589200  0.80234500  1
  O  O18  1  0.77914500  0.19349900  0.74109400  1
  O  O19  1  0.68264600  0.89440800  0.75273300  1
loop_
_geom_bond_atom_site_label_1
_geom_bond_atom_site_label_2
_geom_bond_distance
_geom_bond_site_symmetry_2
O0 Se3 1.690464 1_555
O0 Sb0 2.249319 1_555
O1 Se3 1.719341 1_555
O1 Sb3 2.149280 1_555
O2 Se3 1.697192 1_655
O2 Sb0 2.218903 1_555
O3 Se0 1.723450 1_555
O3 Sb1 2.152984 1_655
O4 Sb1 1.967493 1_555
O4 Sb0 1.972689 1_555
O5 Sb0 1.967493 1_555
O5 Sb1 1.972689 1_655
O6 Se1 1.723450 1_555
O6 Sb0 2.152984 1_555
O7 Se2 1.697192 1_555
O7 Sb1 2.218903 1_565
O8 Se2 1.719341 1_555
O8 Sb2 2.149280 1_555
O9 Se2 1.690464 1_545
O9 Sb1 2.249319 1_655
O10 Se1 1.690464 1_555
O10 Sb2 2.249319 1_455
O11 Se1 1.719341 1_555
O11 Sb1 2.149280 1_555
O12 Se1 1.697192 1_555
O12 Sb2 2.218903 1_555
O13 Se2 1.723450 1_555
O13 Sb3 2.152984 1_554
O14 Sb3 1.967493 1_554
O14 Sb2 1.972689 1_455
O15 Sb2 1.967493 1_556
O15 Sb3 1.972689 1_555
O16 Se3 1.723450 1_555
O16 Sb2 2.152984 1_456
O17 Se0 1.697192 1_455
O17 Sb3 2.218903 1_545
O18 Se0 1.719341 1_555
O18 Sb0 2.149280 1_555
O19 Se0 1.690464 1_565
O19 Sb3 2.249319 1_555
