# generated using pymatgen
data_Sr16Mn8O29
_symmetry_space_group_name_H-M   'P 1'
_cell_length_a   6.82312114
_cell_length_b   10.25366767
_cell_length_c   10.82541683
_cell_angle_alpha   90.11233206
_cell_angle_beta   90.04783311
_cell_angle_gamma   104.23951180
_symmetry_Int_Tables_number   1
_chemical_formula_structural   Sr16Mn8O29
_chemical_formula_sum   'Sr16 Mn8 O29'
_cell_volume   734.09649400
_cell_formula_units_Z   1
loop_
 _symmetry_equiv_pos_site_id
 _symmetry_equiv_pos_as_xyz
  1  'x, y, z'
loop_
 _atom_site_type_symbol
 _atom_site_label
 _atom_site_symmetry_multiplicity
 _atom_site_fract_x
 _atom_site_fract_y
 _atom_site_fract_z
 _atom_site_occupancy
  Sr  Sr0  1  0.21330056  0.93203503  0.99946429  1
  Sr  Sr1  1  0.22827924  0.92038626  0.50051488  1
  Sr  Sr2  1  0.02093881  0.31661799  0.25323753  1
  Sr  Sr3  1  0.03923883  0.33182555  0.75647029  1
  Sr  Sr4  1  0.28572022  0.58092333  0.99278755  1
  Sr  Sr5  1  0.28713689  0.56930071  0.49812589  1
  Sr  Sr6  1  0.51939075  0.81350192  0.24315625  1
  Sr  Sr7  1  0.54049634  0.82498772  0.74837708  1
  Sr  Sr8  1  0.46194185  0.16882564  0.25515434  1
  Sr  Sr9  1  0.48046792  0.18515689  0.75728122  1
  Sr  Sr10  1  0.70966852  0.42857062  0.50094866  1
  Sr  Sr11  1  0.72904909  0.43265609  0.99617953  1
  Sr  Sr12  1  0.96119356  0.66683592  0.24164389  1
  Sr  Sr13  1  0.96612101  0.68245152  0.74747705  1
  Sr  Sr14  1  0.76824990  0.07471010  0.50441887  1
  Sr  Sr15  1  0.79013160  0.07284011  0.00254547  1
  Mn  Mn0  1  0.00300936  0.00018659  0.74963512  1
  Mn  Mn1  1  0.24494143  0.24901838  0.49982329  1
  Mn  Mn2  1  0.25463554  0.25250282  -0.00064145  1
  Mn  Mn3  1  0.49856224  0.49884521  0.24761228  1
  Mn  Mn4  1  0.50180422  0.50259553  0.75124818  1
  Mn  Mn5  1  0.74849209  0.75029950  0.99874249  1
  Mn  Mn6  1  0.75342081  0.74933269  0.49968855  1
  Mn  Mn7  1  0.99715886  0.99861741  0.25203862  1
  O  O0  1  0.21736578  0.91174307  0.25769679  1
  O  O1  1  0.00702786  0.31995118  0.50873481  1
  O  O2  1  0.24494784  0.93122553  0.74125157  1
  O  O3  1  0.03169165  0.33808987  0.00868828  1
  O  O4  1  0.25597726  0.56555911  0.23836897  1
  O  O5  1  0.26591592  0.58100447  0.74811099  1
  O  O6  1  0.10171632  0.10318548  0.39626981  1
  O  O7  1  0.13371553  0.13004034  0.86087452  1
  O  O8  1  0.13648726  0.13667098  0.12895422  1
  O  O9  1  0.51332627  0.83147081  0.99900978  1
  O  O10  1  0.53199292  0.83522801  0.48979598  1
  O  O11  1  0.36640370  0.36716020  0.63233282  1
  O  O12  1  0.36754747  0.36958002  0.36234710  1
  O  O13  1  0.38816058  0.38603011  0.88678650  1
  O  O14  1  0.61324155  0.61292526  0.11462571  1
  O  O15  1  0.62013802  0.61965999  0.62509651  1
  O  O16  1  0.62939618  0.63321645  0.86868227  1
  O  O17  1  0.63872330  0.63685758  0.37052391  1
  O  O18  1  0.46655587  0.16551349  0.50983179  1
  O  O19  1  0.49670308  0.18173720  0.01041019  1
  O  O20  1  0.87458200  0.87654563  0.88112029  1
  O  O21  1  0.86401259  0.86700567  0.13434722  1
  O  O22  1  0.89114090  0.88847909  0.61112185  1
  O  O23  1  0.72005845  0.40979894  0.24160214  1
  O  O24  1  0.73708216  0.42557831  0.75046392  1
  O  O25  1  0.98348811  0.67513561  0.99736502  1
  O  O26  1  0.75653164  0.06553654  0.26037931  1
  O  O27  1  0.99444056  0.67840139  0.49027244  1
  O  O28  1  0.78067657  0.08815214  0.74260342  1
loop_
_geom_bond_atom_site_label_1
_geom_bond_atom_site_label_2
_geom_bond_distance
_geom_bond_site_symmetry_2
Mn0 O7 1.850963 1_555
Mn0 O22 1.924636 1_445
Mn0 O28 1.947781 1_455
Mn0 O2 1.951290 1_545
Mn0 O20 1.965646 1_445
Mn1 O18 1.915293 1_555
Mn1 O11 1.925956 1_555
Mn1 O6 1.928825 1_555
Mn1 O1 1.937593 1_555
Mn1 O12 1.985801 1_555
Mn2 O8 1.888412 1_555
Mn2 O13 1.893255 1_554
Mn2 O3 1.936739 1_555
Mn2 O19 1.964276 1_555
Mn2 O7 1.996446 1_554
Mn3 O12 1.877237 1_555
Mn3 O14 1.900344 1_555
Mn3 O4 1.942833 1_555
Mn3 O23 1.949533 1_555
Mn3 O17 2.003075 1_555
Mn4 O15 1.867938 1_555
Mn4 O16 1.893604 1_555
Mn4 O13 1.932745 1_555
Mn4 O11 1.949110 1_555
Mn4 O24 1.955623 1_555
Mn4 O5 1.968403 1_555
Mn5 O20 1.870184 1_555
Mn5 O16 1.896174 1_555
Mn5 O21 1.932719 1_556
Mn5 O25 1.942433 1_555
Mn5 O14 1.943927 1_556
Mn5 O9 1.980999 1_555
Mn6 O17 1.856202 1_555
Mn6 O22 1.925002 1_555
Mn6 O10 1.929895 1_555
Mn6 O27 1.957590 1_555
Mn6 O15 1.962717 1_555
Mn7 O21 1.912565 1_555
Mn7 O6 1.926578 1_665
Mn7 O0 1.926974 1_655
Mn7 O26 1.931010 1_565
Mn7 O8 2.007592 1_665
O0 Sr6 2.511442 1_555
O0 Sr1 2.630302 1_555
O0 Sr12 2.688847 1_455
O0 Sr8 2.751464 1_565
O0 Sr0 2.804234 1_554
O1 Sr10 2.544759 1_455
O1 Sr14 2.638899 1_455
O1 Sr3 2.690718 1_555
O1 Sr2 2.768004 1_555
O1 Sr5 2.792937 1_555
O2 Sr7 2.517906 1_555
O2 Sr1 2.609419 1_555
O2 Sr9 2.707631 1_565
O2 Sr13 2.782847 1_455
O2 Sr0 2.803921 1_555
O3 Sr11 2.491531 1_454
O3 Sr2 2.656495 1_555
O3 Sr4 2.666959 1_554
O3 Sr3 2.731821 1_554
O3 Sr15 2.812829 1_455
O4 Sr12 2.480459 1_455
O4 Sr2 2.664870 1_555
O4 Sr4 2.668436 1_554
O4 Sr6 2.729071 1_555
O4 Sr5 2.819300 1_555
O5 Sr13 2.512581 1_455
O5 Sr3 2.642995 1_555
O5 Sr4 2.652070 1_555
O5 Sr5 2.714180 1_555
O5 Sr7 2.731815 1_555
O6 Sr14 2.512330 1_455
O6 Sr1 2.517024 1_545
O6 Sr8 2.832708 1_555
O6 Sr2 2.845329 1_555
O7 Sr9 2.554171 1_555
O7 Sr3 2.576423 1_555
O7 Sr0 2.687142 1_545
O7 Sr15 2.743172 1_456
O8 Sr8 2.557195 1_555
O8 Sr2 2.558097 1_555
O8 Sr15 2.667579 1_455
O8 Sr0 2.678267 1_544
O9 Sr0 2.508469 1_555
O9 Sr6 2.650758 1_556
O9 Sr4 2.655681 1_555
O9 Sr15 2.719147 1_566
O9 Sr7 2.721480 1_555
O10 Sr1 2.441397 1_555
O10 Sr14 2.589240 1_565
O10 Sr6 2.678370 1_555
O10 Sr7 2.802510 1_555
O10 Sr5 2.827454 1_555
O11 Sr3 2.555252 1_555
O11 Sr9 2.576947 1_555
O11 Sr10 2.681148 1_555
O11 Sr5 2.694673 1_555
O12 Sr8 2.577355 1_555
O12 Sr2 2.577605 1_555
O12 Sr5 2.682828 1_555
O12 Sr10 2.713340 1_555
O13 Sr4 2.545251 1_555
O13 Sr11 2.546961 1_555
O13 Sr9 2.689383 1_555
O13 Sr3 2.703207 1_555
O14 Sr11 2.529044 1_554
O14 Sr4 2.544386 1_554
O14 Sr12 2.679300 1_555
O14 Sr6 2.685888 1_555
O15 Sr10 2.568730 1_555
O15 Sr5 2.594842 1_555
O15 Sr13 2.643146 1_555
O15 Sr7 2.657427 1_555
O16 Sr7 2.554627 1_555
O16 Sr13 2.586902 1_555
O16 Sr4 2.642113 1_555
O16 Sr11 2.700716 1_555
O17 Sr12 2.560511 1_555
O17 Sr6 2.564786 1_555
O17 Sr10 2.703387 1_555
O17 Sr5 2.708236 1_555
O18 Sr14 2.459793 1_555
O18 Sr1 2.638041 1_545
O18 Sr9 2.685758 1_555
O18 Sr8 2.757514 1_555
O18 Sr10 2.799361 1_555
O19 Sr15 2.522323 1_555
O19 Sr8 2.660899 1_555
O19 Sr11 2.674301 1_554
O19 Sr9 2.743014 1_554
O19 Sr0 2.805612 1_544
O20 Sr0 2.579064 1_655
O20 Sr15 2.583106 1_566
O20 Sr7 2.634258 1_555
O20 Sr13 2.654374 1_555
O21 Sr6 2.567106 1_555
O21 Sr12 2.584388 1_555
O21 Sr15 2.697844 1_565
O21 Sr0 2.735754 1_654
O22 Sr1 2.543259 1_655
O22 Sr14 2.545281 1_565
O22 Sr13 2.728751 1_555
O22 Sr7 2.756639 1_555
O23 Sr2 2.471500 1_655
O23 Sr8 2.662601 1_555
O23 Sr11 2.667008 1_554
O23 Sr12 2.742258 1_555
O23 Sr10 2.815892 1_555
O24 Sr3 2.480678 1_655
O24 Sr9 2.650631 1_555
O24 Sr11 2.661799 1_555
O24 Sr10 2.708175 1_555
O24 Sr13 2.712218 1_555
O25 Sr4 2.483582 1_655
O25 Sr12 2.649250 1_556
O25 Sr11 2.659358 1_555
O25 Sr13 2.709630 1_555
O25 Sr0 2.713997 1_655
O26 Sr8 2.492463 1_555
O26 Sr14 2.643762 1_555
O26 Sr6 2.696636 1_545
O26 Sr2 2.757690 1_655
O26 Sr15 2.800389 1_555
O27 Sr5 2.519180 1_655
O27 Sr1 2.601064 1_655
O27 Sr12 2.700784 1_555
O27 Sr13 2.792140 1_555
O27 Sr10 2.811375 1_555
O28 Sr9 2.492508 1_555
O28 Sr14 2.582067 1_555
O28 Sr3 2.684636 1_655
O28 Sr7 2.792176 1_545
O28 Sr15 2.820233 1_556
