# generated using pymatgen
data_Mn2PO5
_symmetry_space_group_name_H-M   'P 1'
_cell_length_a   6.42874100
_cell_length_b   6.45080500
_cell_length_c   8.70570448
_cell_angle_alpha   76.91127290
_cell_angle_beta   90.00000000
_cell_angle_gamma   90.00000000
_symmetry_Int_Tables_number   1
_chemical_formula_structural   Mn2PO5
_chemical_formula_sum   'Mn8 P4 O20'
_cell_volume   351.65101909
_cell_formula_units_Z   4
loop_
 _symmetry_equiv_pos_site_id
 _symmetry_equiv_pos_as_xyz
  1  'x, y, z'
loop_
 _atom_site_type_symbol
 _atom_site_label
 _atom_site_symmetry_multiplicity
 _atom_site_fract_x
 _atom_site_fract_y
 _atom_site_fract_z
 _atom_site_occupancy
  Mn  Mn0  1  0.61835200  0.00982700  0.15460200  1
  Mn  Mn1  1  0.88164800  0.50982700  0.15460200  1
  Mn  Mn2  1  0.64680100  0.22047700  0.49106400  1
  Mn  Mn3  1  0.14680100  0.27952300  0.50893600  1
  Mn  Mn4  1  0.85319900  0.72047700  0.49106400  1
  Mn  Mn5  1  0.35319900  0.77952300  0.50893600  1
  Mn  Mn6  1  0.11835200  0.49017300  0.84539800  1
  Mn  Mn7  1  0.38164800  0.99017300  0.84539800  1
  P  P0  1  0.08883300  0.00571600  0.20903800  1
  P  P1  1  0.41116700  0.50571600  0.20903800  1
  P  P2  1  0.58883300  0.49428400  0.79096200  1
  P  P3  1  0.91116700  0.99428400  0.79096200  1
  O  O0  1  0.27884800  0.99481100  0.10518200  1
  O  O1  1  0.92619400  0.17477000  0.13482400  1
  O  O2  1  0.22115200  0.49481100  0.10518200  1
  O  O3  1  0.53670000  0.29042400  0.25370500  1
  O  O4  1  0.57380600  0.67477000  0.13482400  1
  O  O5  1  0.96330000  0.79042400  0.25370500  1
  O  O6  1  0.89138900  0.37918100  0.40362900  1
  O  O7  1  0.33620200  0.53553400  0.37517800  1
  O  O8  1  0.60861100  0.87918100  0.40362900  1
  O  O9  1  0.16379800  0.03553400  0.37517800  1
  O  O10  1  0.83620200  0.96446600  0.62482200  1
  O  O11  1  0.39138900  0.12081900  0.59637100  1
  O  O12  1  0.66379800  0.46446600  0.62482200  1
  O  O13  1  0.10861100  0.62081900  0.59637100  1
  O  O14  1  0.03670000  0.20957600  0.74629500  1
  O  O15  1  0.42619400  0.32523000  0.86517600  1
  O  O16  1  0.46330000  0.70957600  0.74629500  1
  O  O17  1  0.77884800  0.50518900  0.89481800  1
  O  O18  1  0.07380600  0.82523000  0.86517600  1
  O  O19  1  0.72115200  0.00518900  0.89481800  1
loop_
_geom_bond_atom_site_label_1
_geom_bond_atom_site_label_2
_geom_bond_distance
_geom_bond_site_symmetry_2
Mn0 O8 2.141656 1_545
Mn0 O4 2.225266 1_545
Mn0 O0 2.230926 1_545
Mn0 O1 2.235035 1_555
Mn0 O3 2.236869 1_555
Mn0 O19 2.362868 1_554
Mn0 O5 2.666855 1_545
Mn1 O6 2.141656 1_555
Mn1 O1 2.225266 1_555
Mn1 O2 2.230926 1_655
Mn1 O4 2.235035 1_555
Mn1 O5 2.236869 1_555
Mn1 O17 2.362868 1_554
Mn1 O3 2.666855 1_555
Mn2 O11 1.919091 1_555
Mn2 O6 1.935710 1_555
Mn2 O3 2.133592 1_555
Mn2 O12 2.162230 1_555
Mn2 O10 2.166775 1_545
Mn2 O8 2.499178 1_545
Mn3 O6 1.919091 1_455
Mn3 O11 1.935710 1_555
Mn3 O14 2.133592 1_555
Mn3 O9 2.162230 1_555
Mn3 O7 2.166775 1_555
Mn3 O13 2.499178 1_555
Mn4 O13 1.919091 1_655
Mn4 O8 1.935710 1_555
Mn4 O5 2.133592 1_555
Mn4 O10 2.162230 1_555
Mn4 O12 2.166775 1_555
Mn4 O6 2.499178 1_555
Mn5 O8 1.919091 1_555
Mn5 O13 1.935710 1_555
Mn5 O16 2.133592 1_555
Mn5 O7 2.162230 1_555
Mn5 O9 2.166775 1_565
Mn5 O11 2.499178 1_565
Mn6 O13 2.141656 1_555
Mn6 O18 2.225266 1_555
Mn6 O17 2.230926 1_455
Mn6 O15 2.235035 1_555
Mn6 O14 2.236869 1_555
Mn6 O2 2.362868 1_556
Mn6 O16 2.666855 1_555
Mn7 O11 2.141656 1_565
Mn7 O15 2.225266 1_565
Mn7 O19 2.230926 1_565
Mn7 O18 2.235035 1_555
Mn7 O16 2.236869 1_555
Mn7 O0 2.362868 1_556
Mn7 O14 2.666855 1_565
O0 P0 1.530825 1_565
O1 P0 1.542977 1_655
O2 P1 1.530825 1_555
O3 P1 1.576920 1_555
O4 P1 1.542977 1_555
O5 P0 1.576920 1_665
O7 P1 1.577097 1_555
O9 P0 1.577097 1_555
O10 P3 1.577097 1_555
O12 P2 1.577097 1_555
O14 P3 1.576920 1_445
O15 P2 1.542977 1_555
O16 P2 1.576920 1_555
O17 P2 1.530825 1_555
O18 P3 1.542977 1_455
O19 P3 1.530825 1_545
