# generated using pymatgen
data_LiBeH4NF4
_symmetry_space_group_name_H-M   'P 1'
_cell_length_a   5.08642800
_cell_length_b   9.07660200
_cell_length_c   9.57171000
_cell_angle_alpha   90.00000000
_cell_angle_beta   90.00000000
_cell_angle_gamma   90.00000000
_symmetry_Int_Tables_number   1
_chemical_formula_structural   LiBeH4NF4
_chemical_formula_sum   'Li4 Be4 H16 N4 F16'
_cell_volume   441.90175447
_cell_formula_units_Z   4
loop_
 _symmetry_equiv_pos_site_id
 _symmetry_equiv_pos_as_xyz
  1  'x, y, z'
loop_
 _atom_site_type_symbol
 _atom_site_label
 _atom_site_symmetry_multiplicity
 _atom_site_fract_x
 _atom_site_fract_y
 _atom_site_fract_z
 _atom_site_occupancy
  Li  Li0  1  0.04728700  0.32910800  0.89203200  1
  Li  Li1  1  0.95271300  0.82910800  0.10796800  1
  Li  Li2  1  0.04728700  0.82910800  0.60796800  1
  Li  Li3  1  0.95271300  0.32910800  0.39203200  1
  Be  Be0  1  0.05594700  0.19329200  0.59988500  1
  Be  Be1  1  0.94405300  0.69329200  0.40011500  1
  Be  Be2  1  0.05594700  0.69329200  0.90011500  1
  Be  Be3  1  0.94405300  0.19329200  0.09988500  1
  H  H0  1  0.63351700  0.52211100  0.80502200  1
  H  H1  1  0.36648300  0.02211100  0.19497800  1
  H  H2  1  0.63351700  0.02211100  0.69497800  1
  H  H3  1  0.36648300  0.52211100  0.30502200  1
  H  H4  1  0.33279000  0.49852200  0.73182600  1
  H  H5  1  0.66721000  0.99852200  0.26817400  1
  H  H6  1  0.33279000  0.99852200  0.76817400  1
  H  H7  1  0.66721000  0.49852200  0.23182600  1
  H  H8  1  0.60010000  0.41121400  0.66407400  1
  H  H9  1  0.39990000  0.91121400  0.33592600  1
  H  H10  1  0.60010000  0.91121400  0.83592600  1
  H  H11  1  0.39990000  0.41121400  0.16407400  1
  H  H12  1  0.57362400  0.59631600  0.64923900  1
  H  H13  1  0.42637600  0.09631600  0.35076100  1
  H  H14  1  0.57362400  0.09631600  0.85076100  1
  H  H15  1  0.42637600  0.59631600  0.14923900  1
  N  N0  1  0.53141400  0.50692200  0.71287100  1
  N  N1  1  0.46858600  0.00692200  0.28712900  1
  N  N2  1  0.53141400  0.00692200  0.78712900  1
  N  N3  1  0.46858600  0.50692200  0.21287100  1
  F  F0  1  0.98779100  0.02696700  0.62226400  1
  F  F1  1  0.01220900  0.52696700  0.37773600  1
  F  F2  1  0.98779100  0.52696700  0.87773600  1
  F  F3  1  0.01220900  0.02696700  0.12226400  1
  F  F4  1  0.76993900  0.21266900  0.96509400  1
  F  F5  1  0.23006100  0.71266900  0.03490600  1
  F  F6  1  0.76993900  0.71266900  0.53490600  1
  F  F7  1  0.23006100  0.21266900  0.46509400  1
  F  F8  1  0.79564500  0.28156900  0.56820900  1
  F  F9  1  0.20435500  0.78156900  0.43179100  1
  F  F10  1  0.79564500  0.78156900  0.93179100  1
  F  F11  1  0.20435500  0.28156900  0.06820900  1
  F  F12  1  0.19356200  0.25531000  0.73160100  1
  F  F13  1  0.80643800  0.75531000  0.26839900  1
  F  F14  1  0.19356200  0.75531000  0.76839900  1
  F  F15  1  0.80643800  0.25531000  0.23160100  1
loop_
_geom_bond_atom_site_label_1
_geom_bond_atom_site_label_2
_geom_bond_distance
_geom_bond_site_symmetry_2
Be0 F12 1.548002 1_555
Be0 F0 1.563699 1_455
Be0 F7 1.574744 1_555
Be0 F8 1.577001 1_455
Be1 F13 1.548002 1_555
Be1 F1 1.563699 1_655
Be1 F6 1.574744 1_555
Be1 F9 1.577001 1_655
Be2 F14 1.548002 1_555
Be2 F2 1.563699 1_455
Be2 F5 1.574744 1_556
Be2 F10 1.577001 1_455
Be3 F15 1.548002 1_555
Be3 F3 1.563699 1_655
Be3 F4 1.574744 1_554
Be3 F11 1.577001 1_655
H0 N0 1.032821 1_555
H1 N1 1.032821 1_555
H2 N2 1.032821 1_555
H3 N3 1.032821 1_555
H4 N0 1.029276 1_555
H5 N1 1.029276 1_565
H6 N2 1.029276 1_565
H7 N3 1.029276 1_555
H8 N0 1.046354 1_555
H9 N1 1.046354 1_565
H10 N2 1.046354 1_565
H11 N3 1.046354 1_555
H12 N0 1.037024 1_555
H13 N1 1.037024 1_555
H14 N2 1.037024 1_555
H15 N3 1.037024 1_555
F0 Li2 1.826340 1_645
F1 Li3 1.826340 1_455
F2 Li0 1.826340 1_655
F3 Li1 1.826340 1_445
F4 Li0 1.896349 1_655
F5 Li1 1.896349 1_455
F6 Li2 1.896349 1_655
F7 Li3 1.896349 1_455
F8 Li3 1.915231 1_555
F9 Li2 1.915231 1_555
F10 Li1 1.915231 1_556
F11 Li0 1.915231 1_554
F12 Li0 1.833113 1_555
F13 Li1 1.833113 1_555
F14 Li2 1.833113 1_555
F15 Li3 1.833113 1_555
