# generated using pymatgen
data_Li3Bi2(BO3)3
_symmetry_space_group_name_H-M   'P 1'
_cell_length_a   14.14903700
_cell_length_b   5.88216300
_cell_length_c   9.47604871
_cell_angle_alpha   67.14649256
_cell_angle_beta   90.00000000
_cell_angle_gamma   90.00000000
_symmetry_Int_Tables_number   1
_chemical_formula_structural   Li3Bi2(BO3)3
_chemical_formula_sum   'Li12 Bi8 B12 O36'
_cell_volume   726.75322034
_cell_formula_units_Z   4
loop_
 _symmetry_equiv_pos_site_id
 _symmetry_equiv_pos_as_xyz
  1  'x, y, z'
loop_
 _atom_site_type_symbol
 _atom_site_label
 _atom_site_symmetry_multiplicity
 _atom_site_fract_x
 _atom_site_fract_y
 _atom_site_fract_z
 _atom_site_occupancy
  Li  Li0  1  0.66499700  0.41946000  0.50567400  1
  Li  Li1  1  0.71487500  0.56354600  0.71563300  1
  Li  Li2  1  0.21487500  0.43645400  0.78436700  1
  Li  Li3  1  0.61164600  0.93952000  0.70516000  1
  Li  Li4  1  0.11164600  0.06048000  0.79484000  1
  Li  Li5  1  0.83500300  0.41946000  0.00567400  1
  Li  Li6  1  0.16499700  0.58054000  0.99432600  1
  Li  Li7  1  0.88835400  0.93952000  0.20516000  1
  Li  Li8  1  0.38835400  0.06048000  0.29484000  1
  Li  Li9  1  0.78512500  0.56354600  0.21563300  1
  Li  Li10  1  0.28512500  0.43645400  0.28436700  1
  Li  Li11  1  0.33500300  0.58054000  0.49432600  1
  Bi  Bi0  1  0.99180300  0.65032200  0.65462400  1
  Bi  Bi1  1  0.33864100  0.95004500  0.69063000  1
  Bi  Bi2  1  0.49180300  0.34967800  0.84537600  1
  Bi  Bi3  1  0.83864100  0.04995500  0.80937000  1
  Bi  Bi4  1  0.16135900  0.95004500  0.19063000  1
  Bi  Bi5  1  0.50819700  0.65032200  0.15462400  1
  Bi  Bi6  1  0.66135900  0.04995500  0.30937000  1
  Bi  Bi7  1  0.00819700  0.34967800  0.34537600  1
  B  B0  1  0.17860700  0.88873000  0.51701700  1
  B  B1  1  0.51688400  0.73388800  0.51965600  1
  B  B2  1  0.16412600  0.38738500  0.53007700  1
  B  B3  1  0.01688400  0.26611200  0.98034400  1
  B  B4  1  0.67860700  0.11127000  0.98298300  1
  B  B5  1  0.33587400  0.38738500  0.03007700  1
  B  B6  1  0.66412600  0.61261500  0.96992300  1
  B  B7  1  0.32139300  0.88873000  0.01701700  1
  B  B8  1  0.98311600  0.73388800  0.01965600  1
  B  B9  1  0.83587400  0.61261500  0.46992300  1
  B  B10  1  0.48311600  0.26611200  0.48034400  1
  B  B11  1  0.82139300  0.11127000  0.48298300  1
  O  O0  1  0.60504700  0.68432700  0.58535300  1
  O  O1  1  0.43584100  0.65852400  0.61084900  1
  O  O2  1  0.16905600  0.79723700  0.67449100  1
  O  O3  1  0.07353800  0.33885000  0.59416700  1
  O  O4  1  0.83231400  0.51265100  0.62892400  1
  O  O5  1  0.73494100  0.09358000  0.55395900  1
  O  O6  1  0.90335400  0.04397700  0.57400200  1
  O  O7  1  0.24347000  0.33003600  0.62157500  1
  O  O8  1  0.49253900  0.13978600  0.63761700  1
  O  O9  1  0.33231400  0.48734900  0.87107600  1
  O  O10  1  0.66905600  0.20276300  0.82550900  1
  O  O11  1  0.93584100  0.34147600  0.88915100  1
  O  O12  1  0.10504700  0.31567300  0.91464700  1
  O  O13  1  0.99253900  0.86021400  0.86238300  1
  O  O14  1  0.74347000  0.66996400  0.87842500  1
  O  O15  1  0.40335400  0.95602300  0.92599800  1
  O  O16  1  0.23494100  0.90642000  0.94604100  1
  O  O17  1  0.57353800  0.66115000  0.90583300  1
  O  O18  1  0.42646200  0.33885000  0.09416700  1
  O  O19  1  0.76505900  0.09358000  0.05395900  1
  O  O20  1  0.59664600  0.04397700  0.07400200  1
  O  O21  1  0.25653000  0.33003600  0.12157500  1
  O  O22  1  0.00746100  0.13978600  0.13761700  1
  O  O23  1  0.89495300  0.68432700  0.08535300  1
  O  O24  1  0.06415900  0.65852400  0.11084900  1
  O  O25  1  0.33094400  0.79723700  0.17449100  1
  O  O26  1  0.66768600  0.51265100  0.12892400  1
  O  O27  1  0.50746100  0.86021400  0.36238300  1
  O  O28  1  0.75653000  0.66996400  0.37842500  1
  O  O29  1  0.09664600  0.95602300  0.42599800  1
  O  O30  1  0.26505900  0.90642000  0.44604100  1
  O  O31  1  0.16768600  0.48734900  0.37107600  1
  O  O32  1  0.92646200  0.66115000  0.40583300  1
  O  O33  1  0.83094400  0.20276300  0.32550900  1
  O  O34  1  0.56415900  0.34147600  0.38915100  1
  O  O35  1  0.39495300  0.31567300  0.41464700  1
loop_
_geom_bond_atom_site_label_1
_geom_bond_atom_site_label_2
_geom_bond_distance
_geom_bond_site_symmetry_2
Li0 O34 1.964357 1_555
Li0 O28 1.980503 1_555
Li0 O5 2.044970 1_555
Li0 O0 2.151896 1_555
Li1 O14 1.919709 1_555
Li1 O4 1.927924 1_555
Li1 O0 1.939677 1_555
Li1 O10 2.071646 1_555
Li2 O7 1.919709 1_555
Li2 O9 1.927924 1_555
Li2 O12 1.939677 1_555
Li2 O2 2.071646 1_555
Li3 O8 2.012896 1_565
Li3 O17 2.041893 1_555
Li3 O0 2.207851 1_555
Li3 O5 2.215593 1_565
Li3 O10 2.393686 1_565
Li4 O13 2.012896 1_445
Li4 O3 2.041893 1_555
Li4 O12 2.207851 1_555
Li4 O16 2.215593 1_545
Li4 O2 2.393686 1_545
Li5 O11 1.964357 1_554
Li5 O14 1.980503 1_554
Li5 O19 2.044970 1_555
Li5 O23 2.151896 1_555
Li6 O24 1.964357 1_556
Li6 O21 1.980503 1_556
Li6 O16 2.044970 1_555
Li6 O12 2.151896 1_555
Li7 O22 2.012896 1_665
Li7 O32 2.041893 1_555
Li7 O23 2.207851 1_555
Li7 O19 2.215593 1_565
Li7 O33 2.393686 1_565
Li8 O27 2.012896 1_545
Li8 O18 2.041893 1_555
Li8 O35 2.207851 1_555
Li8 O30 2.215593 1_545
Li8 O25 2.393686 1_545
Li9 O28 1.919709 1_555
Li9 O26 1.927924 1_555
Li9 O23 1.939677 1_555
Li9 O33 2.071646 1_555
Li10 O21 1.919709 1_555
Li10 O31 1.927924 1_555
Li10 O35 1.939677 1_555
Li10 O25 2.071646 1_555
Li11 O1 1.964357 1_555
Li11 O7 1.980503 1_555
Li11 O30 2.044970 1_555
Li11 O35 2.151896 1_555
Bi0 O11 2.393798 1_555
Bi0 O3 2.416117 1_655
Bi0 O4 2.441432 1_555
Bi0 O6 2.477394 1_565
Bi0 O32 2.510022 1_555
Bi0 O29 2.664885 1_655
Bi0 O2 2.682998 1_655
Bi0 O13 2.699687 1_555
Bi1 O8 2.409160 1_565
Bi1 O15 2.423845 1_555
Bi1 O7 2.470092 1_565
Bi1 O1 2.531873 1_555
Bi1 O2 2.587568 1_555
Bi1 O9 2.593139 1_555
Bi1 O30 2.642660 1_555
Bi1 O16 2.755732 1_555
Bi1 O35 2.780435 1_565
Bi2 O1 2.393798 1_555
Bi2 O17 2.416117 1_555
Bi2 O9 2.441432 1_555
Bi2 O15 2.477394 1_545
Bi2 O18 2.510022 1_556
Bi2 O20 2.664885 1_556
Bi2 O10 2.682998 1_555
Bi2 O8 2.699687 1_555
Bi3 O13 2.409160 1_545
Bi3 O6 2.423845 1_555
Bi3 O14 2.470092 1_545
Bi3 O11 2.531873 1_555
Bi3 O10 2.587568 1_555
Bi3 O4 2.593139 1_555
Bi3 O19 2.642660 1_556
Bi3 O5 2.755732 1_555
Bi3 O23 2.780435 1_546
Bi4 O22 2.409160 1_565
Bi4 O29 2.423845 1_555
Bi4 O21 2.470092 1_565
Bi4 O24 2.531873 1_555
Bi4 O25 2.587568 1_555
Bi4 O31 2.593139 1_555
Bi4 O16 2.642660 1_554
Bi4 O30 2.755732 1_555
Bi4 O12 2.780435 1_564
Bi5 O34 2.393798 1_555
Bi5 O18 2.416117 1_555
Bi5 O26 2.441432 1_555
Bi5 O20 2.477394 1_565
Bi5 O17 2.510022 1_554
Bi5 O15 2.664885 1_554
Bi5 O25 2.682998 1_555
Bi5 O27 2.699687 1_555
Bi6 O27 2.409160 1_545
Bi6 O20 2.423845 1_555
Bi6 O28 2.470092 1_545
Bi6 O34 2.531873 1_555
Bi6 O33 2.587568 1_555
Bi6 O26 2.593139 1_555
Bi6 O5 2.642660 1_555
Bi6 O19 2.755732 1_555
Bi6 O0 2.780435 1_545
Bi7 O24 2.393798 1_555
Bi7 O32 2.416117 1_455
Bi7 O31 2.441432 1_555
Bi7 O29 2.477394 1_545
Bi7 O3 2.510022 1_555
Bi7 O6 2.664885 1_455
Bi7 O33 2.682998 1_455
Bi7 O22 2.699687 1_555
B0 O30 1.380242 1_555
B0 O2 1.382336 1_555
B0 O29 1.407208 1_555
B1 O0 1.373915 1_555
B1 O27 1.389537 1_555
B1 O1 1.400210 1_555
B2 O7 1.377929 1_555
B2 O31 1.389343 1_555
B2 O3 1.399466 1_555
B3 O12 1.373915 1_555
B3 O22 1.389537 1_556
B3 O11 1.400210 1_455
B4 O19 1.380242 1_556
B4 O10 1.382336 1_555
B4 O20 1.407208 1_556
B5 O21 1.377929 1_555
B5 O9 1.389343 1_554
B5 O18 1.399466 1_555
B6 O14 1.377929 1_555
B6 O26 1.389343 1_556
B6 O17 1.399466 1_555
B7 O16 1.380242 1_554
B7 O25 1.382336 1_555
B7 O15 1.407208 1_554
B8 O23 1.373915 1_555
B8 O13 1.389537 1_554
B8 O24 1.400210 1_655
B9 O28 1.377929 1_555
B9 O4 1.389343 1_555
B9 O32 1.399466 1_555
B10 O35 1.373915 1_555
B10 O8 1.389537 1_555
B10 O34 1.400210 1_555
B11 O5 1.380242 1_555
B11 O33 1.382336 1_555
B11 O6 1.407208 1_555
