# generated using pymatgen
data_Li2Cr3FeO8
_symmetry_space_group_name_H-M   'P 1'
_cell_length_a   8.38049600
_cell_length_b   8.39961597
_cell_length_c   8.41706984
_cell_angle_alpha   90.26249893
_cell_angle_beta   90.08946566
_cell_angle_gamma   90.23218193
_symmetry_Int_Tables_number   1
_chemical_formula_structural   Li2Cr3FeO8
_chemical_formula_sum   'Li8 Cr12 Fe4 O32'
_cell_volume   592.49053721
_cell_formula_units_Z   4
loop_
 _symmetry_equiv_pos_site_id
 _symmetry_equiv_pos_as_xyz
  1  'x, y, z'
loop_
 _atom_site_type_symbol
 _atom_site_label
 _atom_site_symmetry_multiplicity
 _atom_site_fract_x
 _atom_site_fract_y
 _atom_site_fract_z
 _atom_site_occupancy
  Li  Li0  1  0.00131800  0.00363300  0.99976300  1
  Li  Li1  1  0.74792400  0.75078200  0.25371900  1
  Li  Li2  1  0.75245500  0.25128900  0.75259300  1
  Li  Li3  1  0.49864400  0.99674800  0.49775300  1
  Li  Li4  1  0.49931400  0.49759700  0.00109200  1
  Li  Li5  1  0.25090800  0.75291500  0.75031700  1
  Li  Li6  1  0.25098600  0.24818800  0.24927500  1
  Li  Li7  1  0.99751900  0.49911100  0.49940400  1
  Cr  Cr0  1  0.87537700  0.87712900  0.62506300  1
  Cr  Cr1  1  0.87401200  0.62776900  0.87461800  1
  Cr  Cr2  1  0.87805400  0.37081700  0.12345700  1
  Cr  Cr3  1  0.62539500  0.62137000  0.62393400  1
  Cr  Cr4  1  0.62314700  0.37207800  0.37596400  1
  Cr  Cr5  1  0.62506400  0.12495900  0.12745100  1
  Cr  Cr6  1  0.37621400  0.62433300  0.37299100  1
  Cr  Cr7  1  0.37267900  0.87754300  0.12545600  1
  Cr  Cr8  1  0.37241700  0.12510200  0.87836800  1
  Cr  Cr9  1  0.12678100  0.87937200  0.36962100  1
  Cr  Cr10  1  0.12369700  0.12556200  0.62456100  1
  Cr  Cr11  1  0.12544000  0.37424500  0.87637900  1
  Fe  Fe0  1  0.87689800  0.12504300  0.37341500  1
  Fe  Fe1  1  0.62501700  0.87465300  0.87706400  1
  Fe  Fe2  1  0.37258900  0.37658600  0.62168400  1
  Fe  Fe3  1  0.12513200  0.62553300  0.12432100  1
  O  O0  1  0.88669100  0.89679000  0.38630600  1
  O  O1  1  0.89324400  0.11770100  0.61660400  1
  O  O2  1  0.89328700  0.39471000  0.88467500  1
  O  O3  1  0.86946400  0.85382700  0.86410900  1
  O  O4  1  0.89244900  0.61068800  0.11432400  1
  O  O5  1  0.85780200  0.63664800  0.63808600  1
  O  O6  1  0.86490300  0.35291500  0.36226100  1
  O  O7  1  0.86041600  0.13346600  0.13360500  1
  O  O8  1  0.63401500  0.85525100  0.63932800  1
  O  O9  1  0.64696500  0.62942300  0.86521600  1
  O  O10  1  0.63898000  0.35310900  0.13517800  1
  O  O11  1  0.61720600  0.39418400  0.61569000  1
  O  O12  1  0.63616800  0.12908400  0.35646800  1
  O  O13  1  0.61529000  0.60976900  0.38932000  1
  O  O14  1  0.60666900  0.89115100  0.11990100  1
  O  O15  1  0.61474700  0.11434200  0.89794900  1
  O  O16  1  0.39460800  0.61801900  0.61352800  1
  O  O17  1  0.38543400  0.38536600  0.38884300  1
  O  O18  1  0.38874100  0.11210400  0.11559700  1
  O  O19  1  0.35646900  0.63918200  0.13211700  1
  O  O20  1  0.38522700  0.88613700  0.89692000  1
  O  O21  1  0.36581500  0.86318800  0.35254000  1
  O  O22  1  0.35270700  0.13547000  0.63695600  1
  O  O23  1  0.35281200  0.36487500  0.86367700  1
  O  O24  1  0.13212700  0.64269900  0.35642500  1
  O  O25  1  0.14315100  0.87086200  0.13163400  1
  O  O26  1  0.13364100  0.13953600  0.86060200  1
  O  O27  1  0.11449400  0.11704800  0.38958200  1
  O  O28  1  0.12700600  0.35915800  0.64403100  1
  O  O29  1  0.11572700  0.89632800  0.60849800  1
  O  O30  1  0.10902400  0.61320500  0.88847300  1
  O  O31  1  0.11773800  0.38127300  0.10343300  1
loop_
_geom_bond_atom_site_label_1
_geom_bond_atom_site_label_2
_geom_bond_distance
_geom_bond_site_symmetry_2
Li0 O7 1.963699 1_456
Li0 O25 1.976503 1_546
Li0 O26 1.977596 1_555
Li0 O3 2.019835 1_445
Li1 O13 1.986666 1_555
Li1 O0 2.018364 1_555
Li1 O14 2.019776 1_555
Li1 O4 2.057099 1_555
Li2 O1 1.991119 1_555
Li2 O2 2.013035 1_555
Li2 O11 2.018122 1_555
Li2 O15 2.039236 1_555
Li3 O21 1.991158 1_555
Li3 O12 1.996024 1_565
Li3 O8 2.034532 1_555
Li3 O22 2.056662 1_565
Li4 O23 2.015107 1_554
Li4 O19 2.016762 1_555
Li4 O9 2.017457 1_554
Li4 O10 2.033872 1_555
Li5 O20 2.003691 1_555
Li5 O16 2.015741 1_555
Li5 O30 2.036851 1_555
Li5 O29 2.044371 1_555
Li6 O18 1.976949 1_555
Li6 O27 1.980511 1_555
Li6 O17 1.987510 1_555
Li6 O31 2.005473 1_555
Li7 O6 2.011863 1_555
Li7 O28 2.015127 1_655
Li7 O5 2.017691 1_555
Li7 O24 2.045005 1_655
Cr0 O0 2.019505 1_555
Cr0 O3 2.023121 1_555
Cr0 O29 2.025119 1_655
Cr0 O1 2.027232 1_565
Cr0 O5 2.028193 1_555
Cr0 O8 2.034105 1_555
Cr1 O3 1.901798 1_555
Cr1 O9 1.904398 1_555
Cr1 O2 1.967109 1_555
Cr1 O30 1.977101 1_655
Cr1 O5 1.997079 1_555
Cr1 O4 2.029068 1_556
Cr2 O7 2.000756 1_555
Cr2 O10 2.011080 1_555
Cr2 O31 2.017583 1_655
Cr2 O6 2.019481 1_555
Cr2 O4 2.019767 1_555
Cr2 O2 2.024930 1_554
Cr3 O11 1.910170 1_555
Cr3 O16 1.936040 1_555
Cr3 O5 1.954801 1_555
Cr3 O8 1.969212 1_555
Cr3 O13 1.978383 1_555
Cr3 O9 2.039424 1_555
Cr4 O17 1.998812 1_555
Cr4 O13 2.000517 1_555
Cr4 O11 2.026176 1_555
Cr4 O6 2.036476 1_555
Cr4 O10 2.036813 1_555
Cr4 O12 2.050253 1_555
Cr5 O10 1.920244 1_555
Cr5 O12 1.929897 1_555
Cr5 O15 1.935165 1_554
Cr5 O14 1.970043 1_545
Cr5 O7 1.973961 1_555
Cr5 O18 1.985337 1_555
Cr6 O13 2.012325 1_555
Cr6 O17 2.014058 1_555
Cr6 O21 2.016671 1_555
Cr6 O16 2.031188 1_555
Cr6 O19 2.038367 1_555
Cr6 O24 2.056566 1_555
Cr7 O21 1.916671 1_555
Cr7 O25 1.924940 1_555
Cr7 O20 1.928305 1_554
Cr7 O14 1.964460 1_555
Cr7 O18 1.976402 1_565
Cr7 O19 2.007240 1_555
Cr8 O18 2.004745 1_556
Cr8 O26 2.010598 1_555
Cr8 O20 2.017271 1_545
Cr8 O23 2.025682 1_555
Cr8 O15 2.039668 1_555
Cr8 O22 2.040713 1_555
Cr9 O24 1.991244 1_555
Cr9 O27 2.005752 1_565
Cr9 O25 2.009024 1_555
Cr9 O21 2.013698 1_555
Cr9 O29 2.017330 1_555
Cr9 O0 2.023029 1_455
Cr10 O22 1.923332 1_555
Cr10 O29 1.930479 1_545
Cr10 O1 1.933217 1_455
Cr10 O28 1.968280 1_555
Cr10 O27 1.980171 1_555
Cr10 O26 1.991296 1_555
Cr11 O23 1.910574 1_555
Cr11 O31 1.912969 1_556
Cr11 O2 1.955158 1_455
Cr11 O28 1.959279 1_555
Cr11 O26 1.976806 1_555
Cr11 O30 2.014557 1_555
Fe0 O6 1.919801 1_555
Fe0 O0 1.922879 1_545
Fe0 O27 1.997027 1_655
Fe0 O12 2.022684 1_555
Fe0 O7 2.024582 1_555
Fe0 O1 2.052529 1_555
Fe1 O8 2.008480 1_555
Fe1 O20 2.019415 1_555
Fe1 O15 2.022345 1_565
Fe1 O14 2.054080 1_556
Fe1 O3 2.059764 1_555
Fe1 O9 2.070738 1_555
Fe2 O17 1.964667 1_555
Fe2 O22 2.036116 1_555
Fe2 O16 2.037058 1_555
Fe2 O23 2.046644 1_555
Fe2 O11 2.055451 1_555
Fe2 O28 2.071626 1_555
Fe3 O19 1.942630 1_555
Fe3 O4 1.955133 1_455
Fe3 O24 1.959059 1_555
Fe3 O30 1.991715 1_554
Fe3 O31 2.059081 1_555
Fe3 O25 2.066213 1_555
