# generated using pymatgen
data_Li2CoSnO4
_symmetry_space_group_name_H-M   'P 1'
_cell_length_a   5.96131296
_cell_length_b   8.06893522
_cell_length_c   8.06876536
_cell_angle_alpha   111.35697518
_cell_angle_beta   68.32025619
_cell_angle_gamma   111.68295944
_symmetry_Int_Tables_number   1
_chemical_formula_structural   Li2CoSnO4
_chemical_formula_sum   'Li8 Co4 Sn4 O16'
_cell_volume   323.28474671
_cell_formula_units_Z   4
loop_
 _symmetry_equiv_pos_site_id
 _symmetry_equiv_pos_as_xyz
  1  'x, y, z'
loop_
 _atom_site_type_symbol
 _atom_site_label
 _atom_site_symmetry_multiplicity
 _atom_site_fract_x
 _atom_site_fract_y
 _atom_site_fract_z
 _atom_site_occupancy
  Li  Li0  1  0.37480700  0.37481800  0.12518500  1
  Li  Li1  1  0.62519200  0.12518300  0.37482000  1
  Li  Li2  1  0.87464000  0.87465600  0.62536100  1
  Li  Li3  1  0.12536000  0.62535800  0.87465500  1
  Li  Li4  1  0.25009500  0.24999900  0.74999600  1
  Li  Li5  1  0.50000300  0.99982500  0.99982300  1
  Li  Li6  1  0.74990800  0.74999700  0.24999300  1
  Li  Li7  1  0.00000100  0.50017700  0.50017600  1
  Co  Co0  1  0.87560500  0.37561700  0.12436000  1
  Co  Co1  1  0.12438100  0.12434700  0.37563100  1
  Co  Co2  1  0.37556200  0.87557900  0.62441700  1
  Co  Co3  1  0.62441600  0.62439700  0.87560000  1
  Sn  Sn0  1  0.24984700  0.75000400  0.25000000  1
  Sn  Sn1  1  0.49999800  0.50007800  0.50008600  1
  Sn  Sn2  1  0.75014500  0.24997500  0.75000300  1
  Sn  Sn3  1  0.99999400  0.99992100  0.99993000  1
  O  O0  1  0.87525500  0.61818400  0.36787400  1
  O  O1  1  0.12475100  0.36786500  0.61818700  1
  O  O2  1  0.37528500  0.11770300  0.86751700  1
  O  O3  1  0.62471500  0.86752000  0.11771900  1
  O  O4  1  0.87501500  0.13211800  0.88182600  1
  O  O5  1  0.12496900  0.88182300  0.13212800  1
  O  O6  1  0.37488700  0.63247700  0.38229800  1
  O  O7  1  0.62509900  0.38228100  0.63247300  1
  O  O8  1  0.25034900  0.52328600  0.02324500  1
  O  O9  1  0.50000600  0.27406300  0.27403900  1
  O  O10  1  0.74965200  0.02326200  0.52326400  1
  O  O11  1  0.00000600  0.77396200  0.77394600  1
  O  O12  1  0.00001400  0.22593100  0.22591100  1
  O  O13  1  0.25029900  0.97674600  0.47678100  1
  O  O14  1  0.50001300  0.72605100  0.72603200  1
  O  O15  1  0.74973600  0.47679500  0.97672200  1
loop_
_geom_bond_atom_site_label_1
_geom_bond_atom_site_label_2
_geom_bond_distance
_geom_bond_site_symmetry_2
Li0 O12 2.117031 1_555
Li0 O9 2.117174 1_555
Li0 O8 2.118382 1_555
Li0 O15 2.118577 1_554
Li0 O6 2.341963 1_555
Li0 O2 2.342013 1_554
Li1 O12 2.117261 1_655
Li1 O9 2.117463 1_555
Li1 O10 2.118102 1_555
Li1 O13 2.118317 1_545
Li1 O7 2.341867 1_555
Li1 O3 2.341926 1_545
Li2 O14 2.115524 1_555
Li2 O11 2.115703 1_655
Li2 O13 2.122121 1_655
Li2 O10 2.122451 1_565
Li2 O4 2.338124 1_565
Li2 O0 2.338269 1_555
Li3 O14 2.115731 1_555
Li3 O11 2.115884 1_555
Li3 O15 2.121877 1_455
Li3 O8 2.122186 1_556
Li3 O5 2.338174 1_556
Li3 O1 2.338279 1_555
Li4 O1 2.107824 1_555
Li4 O7 2.108031 1_555
Li4 O4 2.108045 1_455
Li4 O2 2.108194 1_555
Li4 O13 2.486162 1_545
Li4 O8 2.486471 1_556
Li5 O2 2.108470 1_565
Li5 O3 2.108554 1_556
Li5 O4 2.109020 1_565
Li5 O5 2.109154 1_556
Li5 O14 2.491152 1_555
Li5 O9 2.495197 1_566
Li6 O5 2.107919 1_655
Li6 O0 2.107960 1_555
Li6 O3 2.108072 1_555
Li6 O6 2.108153 1_555
Li6 O15 2.486184 1_554
Li6 O10 2.486471 1_565
Li7 O6 2.108271 1_555
Li7 O7 2.108372 1_455
Li7 O0 2.109359 1_455
Li7 O1 2.109470 1_555
Li7 O11 2.491107 1_555
Li7 O12 2.495456 1_555
Co0 O15 2.114247 1_554
Co0 O8 2.114354 1_655
Co0 O9 2.123810 1_555
Co0 O12 2.124137 1_655
Co0 O4 2.211219 1_554
Co0 O0 2.211438 1_555
Co1 O13 2.114056 1_545
Co1 O10 2.114167 1_455
Co1 O9 2.124060 1_555
Co1 O12 2.124367 1_555
Co1 O5 2.211192 1_545
Co1 O1 2.211406 1_555
Co2 O13 2.111622 1_555
Co2 O10 2.111702 1_565
Co2 O11 2.123347 1_555
Co2 O14 2.123617 1_555
Co2 O6 2.207526 1_555
Co2 O2 2.207539 1_565
Co3 O15 2.111385 1_555
Co3 O8 2.111456 1_556
Co3 O11 2.123626 1_655
Co3 O14 2.123898 1_555
Co3 O3 2.207622 1_556
Co3 O7 2.207626 1_555
O0 Sn0 2.105946 1_655
O0 Sn1 2.110089 1_555
O1 Sn2 2.106033 1_455
O1 Sn1 2.110034 1_555
O2 Sn2 2.107384 1_555
O2 Sn3 2.110047 1_445
O3 Sn0 2.107447 1_555
O3 Sn3 2.109978 1_554
O4 Sn2 2.105861 1_555
O4 Sn3 2.110266 1_545
O5 Sn0 2.105966 1_555
O5 Sn3 2.110214 1_454
O6 Sn0 2.107607 1_555
O6 Sn1 2.110175 1_555
O7 Sn2 2.107707 1_555
O7 Sn1 2.110106 1_555
O8 Sn0 2.063082 1_555
O9 Sn1 2.056660 1_555
O10 Sn2 2.062986 1_555
O11 Sn3 2.056119 1_455
O12 Sn3 2.056337 1_444
O13 Sn0 2.063309 1_555
O14 Sn1 2.056010 1_555
O15 Sn2 2.063382 1_555
