# generated using pymatgen
data_V4(OF3)3
_symmetry_space_group_name_H-M   'P 1'
_cell_length_a   5.09555291
_cell_length_b   5.27806315
_cell_length_c   16.97643336
_cell_angle_alpha   89.05152072
_cell_angle_beta   98.06766103
_cell_angle_gamma   118.70784450
_symmetry_Int_Tables_number   1
_chemical_formula_structural   V4(OF3)3
_chemical_formula_sum   'V8 O6 F18'
_cell_volume   395.80934365
_cell_formula_units_Z   2
loop_
 _symmetry_equiv_pos_site_id
 _symmetry_equiv_pos_as_xyz
  1  'x, y, z'
loop_
 _atom_site_type_symbol
 _atom_site_label
 _atom_site_symmetry_multiplicity
 _atom_site_fract_x
 _atom_site_fract_y
 _atom_site_fract_z
 _atom_site_occupancy
  V  V0  1  0.75556188  0.37933652  0.12520517  1
  V  V1  1  0.73663026  0.89213734  0.62955088  1
  V  V2  1  0.52764112  0.73206889  0.25141004  1
  V  V3  1  0.49700227  0.23159548  0.74909267  1
  V  V4  1  0.21573341  0.09601442  0.37460727  1
  V  V5  1  0.24565670  0.65133723  0.86907104  1
  V  V6  1  0.98781239  0.02548367  -0.00023772  1
  V  V7  1  0.96672541  0.46987795  0.50558683  1
  O  O0  1  0.78487279  0.19225407  0.56075636  1
  O  O1  1  0.85213302  0.21185871  0.04069778  1
  O  O2  1  0.84973404  0.90878041  0.33556125  1
  O  O3  1  0.65526087  0.54199257  0.20731730  1
  O  O4  1  0.67128020  0.05090914  0.70746902  1
  O  O5  1  0.28517481  0.92564305  0.81227363  1
  F  F0  1  0.33560455  0.15501604  0.08390322  1
  F  F1  1  0.77598619  0.68256454  0.05911097  1
  F  F2  1  0.73109961  0.07115982  0.18906114  1
  F  F3  1  0.35196464  0.96322326  0.29228147  1
  F  F4  1  0.31824389  0.65920867  0.58941114  1
  F  F5  1  0.32040982  0.45283973  0.78542130  1
  F  F6  1  0.17385281  0.60503449  0.16559947  1
  F  F7  1  0.17500924  0.09418278  0.66016683  1
  F  F8  1  0.17989535  0.29120227  0.46404679  1
  F  F9  1  0.27491815  0.43698568  0.31516810  1
  F  F10  1  0.73231602  0.57213477  0.68841925  1
  F  F11  1  0.81920875  0.71637371  0.54002470  1
  F  F12  1  0.81424560  0.40574582  0.83890224  1
  F  F13  1  0.17223622  0.79019803  0.96214051  1
  F  F14  1  0.66566663  0.33790054  0.41248826  1
  F  F15  1  0.22628880  0.31751502  0.93213910  1
  F  F16  1  0.22351861  0.80601741  0.44396568  1
  F  F17  1  0.67831097  0.83340796  0.90938229  1
loop_
_geom_bond_atom_site_label_1
_geom_bond_atom_site_label_2
_geom_bond_distance
_geom_bond_site_symmetry_2
O0 V7 1.666350 1_555
O0 V1 1.891773 1_545
O1 V6 1.655122 1_555
O1 V0 1.933836 1_555
O2 V4 1.672791 1_665
O2 V2 1.876129 1_555
O3 V2 1.666706 1_555
O3 V0 1.898031 1_555
O4 V1 1.729533 1_545
O4 V3 1.791502 1_555
O5 V5 1.671706 1_555
O5 V3 1.875184 1_565
F0 V0 1.909187 1_555
F0 V6 1.950966 1_455
F1 V0 1.909079 1_555
F1 V6 1.955541 1_565
F2 V0 1.902949 1_555
F2 V2 1.964965 1_545
F3 V4 1.923159 1_565
F3 V2 2.005704 1_555
F4 V1 1.903380 1_555
F4 V7 1.960623 1_455
F5 V3 1.934621 1_555
F5 V5 1.960563 1_555
F6 V0 1.899959 1_455
F6 V2 1.988869 1_555
F7 V3 1.922203 1_555
F7 V1 1.949654 1_445
F8 V4 1.926258 1_555
F8 V7 1.946193 1_455
F9 V2 1.914215 1_555
F9 V4 1.962615 1_555
F10 V1 1.940760 1_555
F10 V3 1.986001 1_555
F11 V7 1.920287 1_555
F11 V1 1.987149 1_555
F12 V3 1.926071 1_555
F12 V5 1.934804 1_655
F13 V5 1.908182 1_555
F13 V6 2.036933 1_466
F14 V7 1.914632 1_555
F14 V4 2.025137 1_555
F15 V6 1.924560 1_456
F15 V5 2.015104 1_555
F16 V4 1.927782 1_565
F16 V7 2.011645 1_455
F17 V6 1.924955 1_566
F17 V5 1.953234 1_555
