# generated using pymatgen
data_Li9V12Fe7O48
_symmetry_space_group_name_H-M   'P 1'
_cell_length_a   5.10463900
_cell_length_b   10.18038475
_cell_length_c   17.40312283
_cell_angle_alpha   90.14334621
_cell_angle_beta   90.68676751
_cell_angle_gamma   90.02192128
_symmetry_Int_Tables_number   1
_chemical_formula_structural   Li9V12Fe7O48
_chemical_formula_sum   'Li9 V12 Fe7 O48'
_cell_volume   904.32349885
_cell_formula_units_Z   1
loop_
 _symmetry_equiv_pos_site_id
 _symmetry_equiv_pos_as_xyz
  1  'x, y, z'
loop_
 _atom_site_type_symbol
 _atom_site_label
 _atom_site_symmetry_multiplicity
 _atom_site_fract_x
 _atom_site_fract_y
 _atom_site_fract_z
 _atom_site_occupancy
  Li  Li0  1  0.90372600  0.74868800  0.25150100  1
  Li  Li1  1  0.75102200  0.58410800  0.97115700  1
  Li  Li2  1  0.74590000  0.41869400  0.47212400  1
  Li  Li3  1  0.74339400  0.08132000  0.47289700  1
  Li  Li4  1  0.76517000  0.74864200  0.80231600  1
  Li  Li5  1  0.24113500  0.24835700  0.19063900  1
  Li  Li6  1  0.25037300  0.08200200  0.02826200  1
  Li  Li7  1  0.25671300  0.74971300  0.70106400  1
  Li  Li8  1  0.09589500  0.24868500  0.74814500  1
  V  V0  1  0.78025700  0.25213900  0.94246200  1
  V  V1  1  0.77547100  0.97018400  0.65477600  1
  V  V2  1  0.77932000  0.52976300  0.65348500  1
  V  V3  1  0.71144000  0.47348500  0.15238800  1
  V  V4  1  0.71691200  0.02560200  0.15668700  1
  V  V5  1  0.71129000  0.74915900  0.44308600  1
  V  V6  1  0.28189900  0.25014500  0.55929600  1
  V  V7  1  0.28473600  0.52470300  0.84445100  1
  V  V8  1  0.28716600  0.97383500  0.84792800  1
  V  V9  1  0.22716400  0.46928800  0.34358700  1
  V  V10  1  0.22734200  0.03030700  0.34482300  1
  V  V11  1  0.21990800  0.75180200  0.05709400  1
  Fe  Fe0  1  0.76044300  0.24897000  0.29820000  1
  Fe  Fe1  1  0.76203400  0.93069800  0.97523100  1
  Fe  Fe2  1  0.59621200  0.24949300  0.75029900  1
  Fe  Fe3  1  0.40323300  0.75027500  0.24876000  1
  Fe  Fe4  1  0.24074000  0.92913100  0.52779100  1
  Fe  Fe5  1  0.24398000  0.57052700  0.52671400  1
  Fe  Fe6  1  0.23952300  0.43071700  0.02362300  1
  O  O0  1  0.93853200  0.76258100  0.99487000  1
  O  O1  1  0.93756900  0.38120300  0.36495400  1
  O  O2  1  0.93926700  0.11888800  0.36729200  1
  O  O3  1  0.88950700  0.36594300  0.21120800  1
  O  O4  1  0.91168000  0.12971500  0.21586000  1
  O  O5  1  0.91065200  0.88165800  0.46646600  1
  O  O6  1  0.91191700  0.61635000  0.46525800  1
  O  O7  1  0.91135800  0.99206700  0.07526900  1
  O  O8  1  0.91694500  0.50805900  0.07596000  1
  O  O9  1  0.83733800  0.25255300  0.84376200  1
  O  O10  1  0.83491600  0.38314900  0.70314200  1
  O  O11  1  0.83415400  0.11762400  0.70421600  1
  O  O12  1  0.64704400  0.88182900  0.20745200  1
  O  O13  1  0.64147300  0.61511900  0.20373600  1
  O  O14  1  0.63978800  0.74781300  0.34567300  1
  O  O15  1  0.57165800  0.49988400  0.57361000  1
  O  O16  1  0.56786000  0.99699100  0.57504700  1
  O  O17  1  0.60111600  0.11041700  0.96589700  1
  O  O18  1  0.56696200  0.37890900  0.96405400  1
  O  O19  1  0.60731300  0.86857200  0.71352300  1
  O  O20  1  0.59969300  0.63115700  0.71000700  1
  O  O21  1  0.57590000  0.88645700  0.87919500  1
  O  O22  1  0.55644400  0.61471700  0.87047500  1
  O  O23  1  0.54613100  0.25017600  0.49981200  1
  O  O24  1  0.41960500  0.75014100  0.50708600  1
  O  O25  1  0.42212000  0.38883900  0.12103800  1
  O  O26  1  0.44118700  0.10931400  0.13041200  1
  O  O27  1  0.43640300  0.36939500  0.29087700  1
  O  O28  1  0.44320500  0.13059100  0.29510800  1
  O  O29  1  0.43266800  0.87740400  0.03482100  1
  O  O30  1  0.39768000  0.60926600  0.03331000  1
  O  O31  1  0.39810000  0.98777600  0.42827600  1
  O  O32  1  0.40041500  0.51038900  0.42708600  1
  O  O33  1  0.35836600  0.24869600  0.65752400  1
  O  O34  1  0.35732700  0.38156000  0.79277200  1
  O  O35  1  0.35763300  0.11534000  0.79591300  1
  O  O36  1  0.16655500  0.88554200  0.29381000  1
  O  O37  1  0.16510800  0.61367900  0.29288600  1
  O  O38  1  0.16483800  0.75150700  0.15589500  1
  O  O39  1  0.08604300  0.48951500  0.92652600  1
  O  O40  1  0.07933900  0.00974300  0.92540400  1
  O  O41  1  0.08650100  0.39063100  0.53802700  1
  O  O42  1  0.08679000  0.10982300  0.53767100  1
  O  O43  1  0.11398200  0.86970200  0.78945000  1
  O  O44  1  0.09041900  0.62331500  0.78702800  1
  O  O45  1  0.06702900  0.88746900  0.62505500  1
  O  O46  1  0.06817000  0.61539700  0.62357700  1
  O  O47  1  0.06291000  0.26269900  0.00492800  1
loop_
_geom_bond_atom_site_label_1
_geom_bond_atom_site_label_2
_geom_bond_distance
_geom_bond_site_symmetry_2
Li0 O12 2.030794 1_555
Li0 O37 2.042399 1_655
Li0 O36 2.062281 1_655
Li0 O13 2.073262 1_555
Li0 O14 2.134072 1_555
Li0 O38 2.144562 1_655
Li1 O22 2.028555 1_555
Li1 O0 2.091206 1_555
Li1 O39 2.117701 1_655
Li1 O30 2.129457 1_556
Li1 O8 2.148002 1_556
Li1 O18 2.292687 1_555
Li2 O23 2.056662 1_555
Li2 O41 2.091446 1_655
Li2 O32 2.137226 1_555
Li2 O1 2.149879 1_555
Li2 O15 2.150481 1_555
Li2 O6 2.187188 1_555
Li3 O23 2.048656 1_555
Li3 O42 2.092426 1_655
Li3 O2 2.137987 1_555
Li3 O31 2.139834 1_545
Li3 O16 2.178408 1_545
Li3 O5 2.208071 1_545
Li4 O22 2.106753 1_555
Li4 O44 2.113217 1_655
Li4 O19 2.123256 1_555
Li4 O20 2.163758 1_555
Li4 O21 2.171311 1_555
Li4 O43 2.179148 1_655
Li5 O26 2.040696 1_555
Li5 O25 2.097749 1_555
Li5 O4 2.120981 1_455
Li5 O3 2.190390 1_455
Li5 O27 2.345559 1_555
Li5 O28 2.402850 1_555
Li6 O26 2.035236 1_555
Li6 O47 2.111964 1_555
Li6 O40 2.112611 1_554
Li6 O17 2.124854 1_554
Li6 O7 2.130442 1_445
Li6 O29 2.284184 1_545
Li7 O43 2.099326 1_555
Li7 O20 2.131250 1_555
Li7 O46 2.138504 1_555
Li7 O45 2.152602 1_555
Li7 O44 2.157259 1_555
Li7 O19 2.168385 1_555
Li8 O11 2.029503 1_455
Li8 O34 2.045111 1_555
Li8 O10 2.060044 1_455
Li8 O35 2.073502 1_555
Li8 O33 2.081581 1_555
Li8 O9 2.136563 1_455
Fe0 O1 1.986302 1_555
Fe0 O2 2.003841 1_555
Fe0 O28 2.018358 1_555
Fe0 O4 2.035163 1_555
Fe0 O3 2.043636 1_555
Fe0 O27 2.062184 1_555
Fe1 O0 1.963284 1_555
Fe1 O21 1.963874 1_555
Fe1 O7 1.991159 1_556
Fe1 O17 2.011974 1_565
Fe1 O40 2.014740 1_665
Fe1 O29 2.059249 1_556
Fe2 O34 1.964409 1_555
Fe2 O11 1.984922 1_555
Fe2 O35 2.001471 1_555
Fe2 O33 2.008466 1_555
Fe2 O10 2.009468 1_555
Fe2 O9 2.028145 1_555
Fe3 O12 1.970884 1_555
Fe3 O36 1.997301 1_555
Fe3 O13 2.001218 1_555
Fe3 O37 2.006852 1_555
Fe3 O38 2.011450 1_555
Fe3 O14 2.062704 1_555
Fe4 O45 1.967408 1_555
Fe4 O16 1.976181 1_555
Fe4 O42 2.008411 1_565
Fe4 O31 2.009780 1_555
Fe4 O5 2.040939 1_455
Fe4 O24 2.071165 1_555
Fe5 O46 1.971914 1_555
Fe5 O15 1.988032 1_555
Fe5 O41 2.010848 1_555
Fe5 O32 2.011702 1_555
Fe5 O6 2.048019 1_455
Fe5 O24 2.067164 1_555
Fe6 O39 1.949665 1_554
Fe6 O47 1.957910 1_555
Fe6 O25 1.972492 1_555
Fe6 O30 1.994571 1_555
Fe6 O18 2.046007 1_554
Fe6 O8 2.048012 1_455
O0 V11 1.791968 1_656
O1 V9 1.772443 1_655
O2 V10 1.772453 1_655
O3 V3 1.748364 1_555
O4 V4 1.772442 1_555
O5 V5 1.734068 1_555
O6 V5 1.737802 1_555
O7 V4 1.772286 1_565
O8 V3 1.740398 1_555
O9 V0 1.745682 1_555
O10 V2 1.748163 1_555
O11 V1 1.752154 1_545
O12 V4 1.750330 1_565
O13 V3 1.733998 1_555
O14 V5 1.729874 1_555
O15 V2 1.763754 1_555
O16 V1 1.757761 1_555
O17 V0 1.759277 1_555
O18 V0 1.732251 1_555
O19 V1 1.696415 1_555
O20 V2 1.700327 1_555
O21 V8 1.801085 1_555
O22 V7 1.717686 1_555
O23 V6 1.710092 1_555
O24 V5 1.870113 1_555
O25 V3 1.788507 1_555
O26 V4 1.704055 1_555
O27 V9 1.742448 1_555
O28 V10 1.741110 1_555
O29 V11 1.725197 1_555
O30 V11 1.762790 1_555
O31 V10 1.740589 1_565
O32 V9 1.742041 1_555
O33 V6 1.749004 1_555
O34 V7 1.752601 1_555
O35 V8 1.742989 1_545
O36 V10 1.744398 1_565
O37 V9 1.743506 1_555
O38 V11 1.745606 1_555
O39 V7 1.798407 1_555
O40 V8 1.763293 1_545
O41 V6 1.781082 1_555
O42 V6 1.778064 1_555
O43 V8 1.706869 1_555
O44 V7 1.724074 1_555
O45 V1 1.791336 1_455
O46 V2 1.795741 1_455
O47 V0 1.799122 1_454
