# generated using pymatgen
data_Sr2LaCl7
_symmetry_space_group_name_H-M   'P 1'
_cell_length_a   9.45398900
_cell_length_b   10.53960300
_cell_length_c   13.31078400
_cell_angle_alpha   90.00000000
_cell_angle_beta   90.00000000
_cell_angle_gamma   90.00000000
_symmetry_Int_Tables_number   1
_chemical_formula_structural   Sr2LaCl7
_chemical_formula_sum   'Sr8 La4 Cl28'
_cell_volume   1326.30369967
_cell_formula_units_Z   4
loop_
 _symmetry_equiv_pos_site_id
 _symmetry_equiv_pos_as_xyz
  1  'x, y, z'
loop_
 _atom_site_type_symbol
 _atom_site_label
 _atom_site_symmetry_multiplicity
 _atom_site_fract_x
 _atom_site_fract_y
 _atom_site_fract_z
 _atom_site_occupancy
  Sr  Sr0  1  0.25000000  0.13286100  0.74665900  1
  Sr  Sr1  1  0.75000000  0.18508800  0.91225900  1
  Sr  Sr2  1  0.25000000  0.31491200  0.41225900  1
  Sr  Sr3  1  0.75000000  0.36713900  0.24665900  1
  Sr  Sr4  1  0.25000000  0.63286100  0.75334100  1
  Sr  Sr5  1  0.75000000  0.68508800  0.58774100  1
  Sr  Sr6  1  0.25000000  0.81491200  0.08774100  1
  Sr  Sr7  1  0.75000000  0.86713900  0.25334100  1
  La  La0  1  0.75000000  0.18081500  0.55818200  1
  La  La1  1  0.25000000  0.31918500  0.05818200  1
  La  La2  1  0.75000000  0.68081500  0.94181800  1
  La  La3  1  0.25000000  0.81918500  0.44181800  1
  Cl  Cl0  1  0.25000000  0.06824600  0.52424300  1
  Cl  Cl1  1  0.25000000  0.07807200  0.13009700  1
  Cl  Cl2  1  0.75000000  0.11687200  0.13749500  1
  Cl  Cl3  1  0.55650400  0.11202700  0.70043200  1
  Cl  Cl4  1  0.94349600  0.11202700  0.70043200  1
  Cl  Cl5  1  0.94171400  0.25698400  0.40939700  1
  Cl  Cl6  1  0.55828600  0.25698400  0.40939700  1
  Cl  Cl7  1  0.05828600  0.24301600  0.90939700  1
  Cl  Cl8  1  0.44171400  0.24301600  0.90939700  1
  Cl  Cl9  1  0.05650400  0.38797300  0.20043200  1
  Cl  Cl10  1  0.44349600  0.38797300  0.20043200  1
  Cl  Cl11  1  0.25000000  0.38312800  0.63749500  1
  Cl  Cl12  1  0.75000000  0.42192800  0.63009700  1
  Cl  Cl13  1  0.75000000  0.43175400  0.02424300  1
  Cl  Cl14  1  0.25000000  0.56824600  0.97575700  1
  Cl  Cl15  1  0.25000000  0.57807200  0.36990300  1
  Cl  Cl16  1  0.75000000  0.61687200  0.36250500  1
  Cl  Cl17  1  0.55650400  0.61202700  0.79956800  1
  Cl  Cl18  1  0.94349600  0.61202700  0.79956800  1
  Cl  Cl19  1  0.55828600  0.75698400  0.09060300  1
  Cl  Cl20  1  0.94171400  0.75698400  0.09060300  1
  Cl  Cl21  1  0.05828600  0.74301600  0.59060300  1
  Cl  Cl22  1  0.44171400  0.74301600  0.59060300  1
  Cl  Cl23  1  0.05650400  0.88797300  0.29956800  1
  Cl  Cl24  1  0.44349600  0.88797300  0.29956800  1
  Cl  Cl25  1  0.25000000  0.88312800  0.86250500  1
  Cl  Cl26  1  0.75000000  0.92192800  0.86990300  1
  Cl  Cl27  1  0.75000000  0.93175400  0.47575700  1
loop_
_geom_bond_atom_site_label_1
_geom_bond_atom_site_label_2
_geom_bond_distance
_geom_bond_site_symmetry_2
Cl0 La3 2.845060 1_545
Cl0 Sr2 2.996771 1_555
Cl0 Sr0 3.037849 1_555
Cl1 La1 2.715547 1_555
Cl1 Sr6 2.830323 1_545
Cl2 Sr3 3.011464 1_555
Cl2 Sr7 3.050516 1_545
Cl2 Sr1 3.083071 1_554
Cl3 La0 2.730784 1_555
Cl3 Sr0 2.970423 1_555
Cl3 Sr1 3.448097 1_555
Cl4 La0 2.730784 1_555
Cl4 Sr0 2.970423 1_655
Cl4 Sr1 3.448097 1_555
Cl5 La0 2.802080 1_555
Cl5 Sr2 2.978038 1_655
Cl5 Sr3 3.053721 1_555
Cl6 La0 2.802080 1_555
Cl6 Sr2 2.978038 1_555
Cl6 Sr3 3.053721 1_555
Cl7 La1 2.802080 1_556
Cl7 Sr1 2.978038 1_455
Cl7 Sr0 3.053721 1_555
Cl8 La1 2.802080 1_556
Cl8 Sr1 2.978038 1_555
Cl8 Sr0 3.053721 1_555
Cl9 La1 2.730784 1_555
Cl9 Sr3 2.970423 1_455
Cl9 Sr2 3.448097 1_555
Cl10 La1 2.730784 1_555
Cl10 Sr3 2.970423 1_555
Cl10 Sr2 3.448097 1_555
Cl11 Sr0 3.011464 1_555
Cl11 Sr4 3.050516 1_555
Cl11 Sr2 3.083071 1_555
Cl12 La0 2.715547 1_555
Cl12 Sr5 2.830323 1_555
Cl13 La2 2.845060 1_554
Cl13 Sr1 2.996771 1_554
Cl13 Sr3 3.037849 1_555
Cl14 La1 2.845060 1_556
Cl14 Sr6 2.996771 1_556
Cl14 Sr4 3.037849 1_555
Cl15 La3 2.715547 1_555
Cl15 Sr2 2.830323 1_555
Cl16 Sr7 3.011464 1_555
Cl16 Sr3 3.050516 1_555
Cl16 Sr5 3.083071 1_555
Cl17 La2 2.730784 1_555
Cl17 Sr4 2.970423 1_555
Cl17 Sr5 3.448097 1_555
Cl18 La2 2.730784 1_555
Cl18 Sr4 2.970423 1_655
Cl18 Sr5 3.448097 1_555
Cl19 La2 2.802080 1_554
Cl19 Sr6 2.978038 1_555
Cl19 Sr7 3.053721 1_555
Cl20 La2 2.802080 1_554
Cl20 Sr6 2.978038 1_655
Cl20 Sr7 3.053721 1_555
Cl21 La3 2.802080 1_555
Cl21 Sr5 2.978038 1_455
Cl21 Sr4 3.053721 1_555
Cl22 La3 2.802080 1_555
Cl22 Sr5 2.978038 1_555
Cl22 Sr4 3.053721 1_555
Cl23 La3 2.730784 1_555
Cl23 Sr7 2.970423 1_455
Cl23 Sr6 3.448097 1_555
Cl24 La3 2.730784 1_555
Cl24 Sr7 2.970423 1_555
Cl24 Sr6 3.448097 1_555
Cl25 Sr4 3.011464 1_555
Cl25 Sr0 3.050516 1_565
Cl25 Sr6 3.083071 1_556
Cl26 La2 2.715547 1_555
Cl26 Sr1 2.830323 1_565
Cl27 La0 2.845060 1_565
Cl27 Sr5 2.996771 1_555
Cl27 Sr7 3.037849 1_555
