# generated using pymatgen
data_Li4Ti3Mn3(CuO8)2
_symmetry_space_group_name_H-M   'P 1'
_cell_length_a   5.88646962
_cell_length_b   5.88646962
_cell_length_c   9.70629880
_cell_angle_alpha   89.97972395
_cell_angle_beta   89.97972395
_cell_angle_gamma   59.32963263
_symmetry_Int_Tables_number   1
_chemical_formula_structural   Li4Ti3Mn3(CuO8)2
_chemical_formula_sum   'Li4 Ti3 Mn3 Cu2 O16'
_cell_volume   289.28143571
_cell_formula_units_Z   1
loop_
 _symmetry_equiv_pos_site_id
 _symmetry_equiv_pos_as_xyz
  1  'x, y, z'
loop_
 _atom_site_type_symbol
 _atom_site_label
 _atom_site_symmetry_multiplicity
 _atom_site_fract_x
 _atom_site_fract_y
 _atom_site_fract_z
 _atom_site_occupancy
  Li  Li0  1  0.32402000  0.32402000  0.89062800  1
  Li  Li1  1  0.01243300  0.01243300  0.99604300  1
  Li  Li2  1  0.99925400  0.99925400  0.49828500  1
  Li  Li3  1  0.66971000  0.66971000  0.39384500  1
  Ti  Ti0  1  0.18126100  0.67166400  0.21321600  1
  Ti  Ti1  1  0.67166400  0.18126100  0.21321600  1
  Ti  Ti2  1  0.82103300  0.82103300  0.71312800  1
  Mn  Mn0  1  0.17774500  0.17774500  0.21656600  1
  Mn  Mn1  1  0.32829000  0.82095700  0.71473500  1
  Mn  Mn2  1  0.82095700  0.32829000  0.71473500  1
  Cu  Cu0  1  0.33131800  0.33131800  0.49124900  1
  Cu  Cu1  1  0.66814000  0.66814000  0.99010000  1
  O  O0  1  0.15138900  0.67280700  0.60375400  1
  O  O1  1  0.49563100  0.49563100  0.32031600  1
  O  O2  1  0.33660900  0.33660900  0.10557600  1
  O  O3  1  0.01378200  0.01378200  0.31483500  1
  O  O4  1  0.99199700  0.99199700  0.81230700  1
  O  O5  1  0.67280700  0.15138900  0.60375400  1
  O  O6  1  0.04712000  0.48598300  0.33637400  1
  O  O7  1  0.48598300  0.04712000  0.33637400  1
  O  O8  1  0.85276300  0.85276300  0.10892400  1
  O  O9  1  0.14939500  0.14939500  0.61370500  1
  O  O10  1  0.50974300  0.95019400  0.83476800  1
  O  O11  1  0.95019400  0.50974300  0.83476800  1
  O  O12  1  0.65674600  0.65674600  0.60694700  1
  O  O13  1  0.32786800  0.85212100  0.10479800  1
  O  O14  1  0.50325600  0.50325600  0.82291500  1
  O  O15  1  0.85212100  0.32786800  0.10479800  1
loop_
_geom_bond_atom_site_label_1
_geom_bond_atom_site_label_2
_geom_bond_distance
_geom_bond_site_symmetry_2
Li0 O14 1.947555 1_555
Li0 O10 1.969153 1_545
Li0 O11 1.969153 1_455
Li0 O2 2.090373 1_556
Li1 O4 1.795693 1_445
Li1 O13 1.914579 1_546
Li1 O15 1.914579 1_456
Li1 O8 1.966479 1_446
Li2 O3 1.786752 1_665
Li2 O9 1.901463 1_665
Li2 O0 1.945821 1_655
Li2 O5 1.945821 1_565
Li3 O1 1.918775 1_555
Li3 O6 1.991163 1_655
Li3 O7 1.991163 1_565
Li3 O12 2.072625 1_555
Mn0 O3 1.929228 1_555
Mn0 O2 1.949441 1_555
Mn0 O6 1.952756 1_555
Mn0 O7 1.952756 1_555
Mn0 O15 1.976004 1_455
Mn0 O13 1.976004 1_545
Mn1 O14 1.922262 1_555
Mn1 O9 1.931507 1_565
Mn1 O4 1.948169 1_455
Mn1 O12 1.964633 1_555
Mn1 O10 1.976741 1_555
Mn1 O0 1.983226 1_555
Mn2 O14 1.922262 1_555
Mn2 O9 1.931507 1_655
Mn2 O4 1.948169 1_545
Mn2 O12 1.964633 1_555
Mn2 O11 1.976741 1_555
Mn2 O5 1.983226 1_555
Cu0 O5 2.045412 1_555
Cu0 O0 2.045412 1_555
Cu0 O6 2.081904 1_555
Cu0 O7 2.081904 1_555
Cu0 O9 2.207826 1_555
Cu0 O1 2.361332 1_555
Cu1 O13 2.051959 1_556
Cu1 O15 2.051959 1_556
Cu1 O11 2.078226 1_555
Cu1 O10 2.078226 1_555
Cu1 O8 2.213387 1_556
Cu1 O14 2.341083 1_555
O0 Ti2 1.984466 1_455
O1 Ti1 1.903465 1_555
O1 Ti0 1.903465 1_555
O2 Ti1 1.994624 1_555
O2 Ti0 1.994624 1_555
O3 Ti0 1.993912 1_545
O3 Ti1 1.993912 1_455
O4 Ti2 1.996725 1_555
O5 Ti2 1.984466 1_545
O6 Ti0 2.031268 1_555
O7 Ti1 2.031268 1_555
O8 Ti1 1.948829 1_565
O8 Ti0 1.948829 1_655
O10 Ti2 1.976747 1_555
O11 Ti2 1.976747 1_555
O12 Ti2 1.971842 1_555
O13 Ti0 1.978476 1_555
O15 Ti1 1.978476 1_555
