# generated using pymatgen
data_Hf5N5O2
_symmetry_space_group_name_H-M   'P 1'
_cell_length_a   5.40231317
_cell_length_b   5.40231317
_cell_length_c   9.16992847
_cell_angle_alpha   74.84992115
_cell_angle_beta   74.84992115
_cell_angle_gamma   33.00511397
_symmetry_Int_Tables_number   1
_chemical_formula_structural   Hf5N5O2
_chemical_formula_sum   'Hf5 N5 O2'
_cell_volume   140.25860746
_cell_formula_units_Z   1
loop_
 _symmetry_equiv_pos_site_id
 _symmetry_equiv_pos_as_xyz
  1  'x, y, z'
loop_
 _atom_site_type_symbol
 _atom_site_label
 _atom_site_symmetry_multiplicity
 _atom_site_fract_x
 _atom_site_fract_y
 _atom_site_fract_z
 _atom_site_occupancy
  Hf  Hf0  1  0.10932900  0.10932900  0.07997000  1
  Hf  Hf1  1  0.69848800  0.69848800  0.70042000  1
  Hf  Hf2  1  0.30635300  0.30635300  0.29789400  1
  Hf  Hf3  1  0.88778900  0.88778900  0.91856900  1
  Hf  Hf4  1  0.98944100  0.98944100  0.49374300  1
  N  N0  1  0.50835300  0.50835300  0.98536500  1
  N  N1  1  0.74041600  0.74041600  0.14391000  1
  N  N2  1  0.26604100  0.26604100  0.84798300  1
  N  N3  1  0.33815900  0.33815900  0.55302100  1
  N  N4  1  0.95493900  0.95493900  0.28363500  1
  O  O0  1  0.04564700  0.04564700  0.70538000  1
  O  O1  1  0.65378100  0.65378100  0.44817900  1
loop_
_geom_bond_atom_site_label_1
_geom_bond_atom_site_label_2
_geom_bond_distance
_geom_bond_site_symmetry_2
Hf0 N4 2.101814 1_445
Hf0 N0 2.167135 1_544
Hf0 N0 2.167135 1_454
Hf0 N1 2.230902 1_455
Hf0 N1 2.230902 1_545
Hf0 N2 2.297460 1_554
Hf1 O0 2.196534 1_655
Hf1 O0 2.196534 1_565
Hf1 N2 2.278570 1_565
Hf1 N2 2.278570 1_655
Hf1 N3 2.282382 1_565
Hf1 N3 2.282382 1_655
Hf1 O1 2.479642 1_555
Hf1 N0 2.810943 1_555
Hf2 N4 2.152134 1_545
Hf2 N4 2.152134 1_455
Hf2 N1 2.311087 1_545
Hf2 N1 2.311087 1_455
Hf2 O1 2.358993 1_455
Hf2 O1 2.358993 1_545
Hf2 N3 2.449907 1_555
Hf3 N0 2.169588 1_565
Hf3 N0 2.169588 1_655
Hf3 O0 2.180192 1_665
Hf3 N2 2.193097 1_655
Hf3 N2 2.193097 1_565
Hf3 N1 2.209275 1_556
Hf4 N4 2.053106 1_555
Hf4 N3 2.154559 1_565
Hf4 N3 2.154559 1_655
Hf4 O0 2.172870 1_665
Hf4 O1 2.245031 1_655
Hf4 O1 2.245031 1_565
