# generated using pymatgen
data_YbAgS2
_symmetry_space_group_name_H-M   'P 1'
_cell_length_a   7.00911877
_cell_length_b   7.00911877
_cell_length_c   7.00911877
_cell_angle_alpha   135.13026952
_cell_angle_beta   135.13026952
_cell_angle_gamma   65.32785735
_symmetry_Int_Tables_number   1
_chemical_formula_structural   YbAgS2
_chemical_formula_sum   'Yb2 Ag2 S4'
_cell_volume   168.87951272
_cell_formula_units_Z   2
loop_
 _symmetry_equiv_pos_site_id
 _symmetry_equiv_pos_as_xyz
  1  'x, y, z'
loop_
 _atom_site_type_symbol
 _atom_site_label
 _atom_site_symmetry_multiplicity
 _atom_site_fract_x
 _atom_site_fract_y
 _atom_site_fract_z
 _atom_site_occupancy
  Yb  Yb0  1  0.75000000  0.25000000  0.50000000  1
  Yb  Yb1  1  0.00000000  0.00000000  0.00000000  1
  Ag  Ag0  1  0.50000000  0.50000000  0.00000000  1
  Ag  Ag1  1  0.25000000  0.75000000  0.50000000  1
  S  S0  1  0.77299030  0.77299030  0.00000000  1
  S  S1  1  0.52299030  0.02299030  0.50000000  1
  S  S2  1  0.22700970  0.22700970  0.00000000  1
  S  S3  1  0.97700970  0.47700970  0.50000000  1
loop_
_geom_bond_atom_site_label_1
_geom_bond_atom_site_label_2
_geom_bond_distance
_geom_bond_site_symmetry_2
Ag0 S1 2.688635 1_565
Ag0 S3 2.688635 1_555
Ag0 S3 2.688635 1_454
Ag0 S1 2.688635 1_554
Ag1 S0 2.688635 1_455
Ag1 S2 2.688635 1_566
Ag1 S0 2.688635 1_556
Ag1 S2 2.688635 1_555
S0 Yb1 2.679001 1_665
S0 Yb0 2.688635 1_554
S0 Yb0 2.688635 1_565
S1 Yb0 2.679001 1_555
S1 Yb1 2.688635 1_656
S1 Yb1 2.688635 1_555
S2 Yb1 2.679001 1_555
S2 Yb0 2.688635 1_454
S2 Yb0 2.688635 1_555
S3 Yb0 2.679001 1_555
S3 Yb1 2.688635 1_655
S3 Yb1 2.688635 1_666
