# generated using pymatgen
data_Li2VCo3O8
_symmetry_space_group_name_H-M   'P 1'
_cell_length_a   5.70615012
_cell_length_b   5.70615012
_cell_length_c   9.13963100
_cell_angle_alpha   90.00000000
_cell_angle_beta   90.00000000
_cell_angle_gamma   120.00000143
_symmetry_Int_Tables_number   1
_chemical_formula_structural   Li2VCo3O8
_chemical_formula_sum   'Li4 V2 Co6 O16'
_cell_volume   257.71854700
_cell_formula_units_Z   2
loop_
 _symmetry_equiv_pos_site_id
 _symmetry_equiv_pos_as_xyz
  1  'x, y, z'
loop_
 _atom_site_type_symbol
 _atom_site_label
 _atom_site_symmetry_multiplicity
 _atom_site_fract_x
 _atom_site_fract_y
 _atom_site_fract_z
 _atom_site_occupancy
  Li  Li0  1  0.33333300  0.66666700  0.89417200  1
  Li  Li1  1  0.00000000  0.00000000  0.99839300  1
  Li  Li2  1  0.00000000  0.00000000  0.49839300  1
  Li  Li3  1  0.66666700  0.33333300  0.39417200  1
  V  V0  1  0.33333300  0.66666700  0.49801800  1
  V  V1  1  0.66666700  0.33333300  0.99801800  1
  Co  Co0  1  0.17143000  0.82857000  0.21518900  1
  Co  Co1  1  0.17143000  0.34286000  0.21518900  1
  Co  Co2  1  0.65714000  0.82857000  0.21518900  1
  Co  Co3  1  0.34286000  0.17143000  0.71518900  1
  Co  Co4  1  0.82857000  0.65714000  0.71518900  1
  Co  Co5  1  0.82857000  0.17143000  0.71518900  1
  O  O0  1  0.17139200  0.82860800  0.59520800  1
  O  O1  1  0.04357200  0.52178600  0.33850800  1
  O  O2  1  0.33333300  0.66666700  0.10888200  1
  O  O3  1  0.00000000  0.00000000  0.30773400  1
  O  O4  1  0.00000000  0.00000000  0.80773400  1
  O  O5  1  0.17139200  0.34278300  0.59520800  1
  O  O6  1  0.47821400  0.95642800  0.33850800  1
  O  O7  1  0.47821400  0.52178600  0.33850800  1
  O  O8  1  0.34278300  0.17139200  0.09520800  1
  O  O9  1  0.65721700  0.82860800  0.59520800  1
  O  O10  1  0.52178600  0.47821400  0.83850800  1
  O  O11  1  0.52178600  0.04357200  0.83850800  1
  O  O12  1  0.66666700  0.33333300  0.60888200  1
  O  O13  1  0.82860800  0.65721700  0.09520800  1
  O  O14  1  0.95642800  0.47821400  0.83850800  1
  O  O15  1  0.82860800  0.17139200  0.09520800  1
loop_
_geom_bond_atom_site_label_1
_geom_bond_atom_site_label_2
_geom_bond_distance
_geom_bond_site_symmetry_2
Li0 O11 1.930772 1_565
Li0 O14 1.930772 1_455
Li0 O10 1.930777 1_555
Li0 O2 1.962370 1_556
Li1 O4 1.742553 1_555
Li1 O8 1.911108 1_556
Li1 O13 1.911108 1_446
Li1 O15 1.911112 1_456
Li2 O3 1.742553 1_555
Li2 O5 1.911108 1_555
Li2 O9 1.911108 1_445
Li2 O0 1.911112 1_545
Li3 O1 1.930772 1_655
Li3 O6 1.930772 1_545
Li3 O7 1.930777 1_555
Li3 O12 1.962370 1_555
Co0 O2 1.872025 1_555
Co0 O3 1.893695 1_565
Co0 O6 1.894702 1_555
Co0 O1 1.894702 1_555
Co0 O8 2.018047 1_565
Co0 O13 2.018047 1_455
Co1 O2 1.872029 1_555
Co1 O3 1.893695 1_555
Co1 O7 1.894702 1_555
Co1 O1 1.894702 1_555
Co1 O8 2.018043 1_555
Co1 O15 2.018047 1_455
Co2 O2 1.872029 1_555
Co2 O3 1.893695 1_665
Co2 O7 1.894702 1_555
Co2 O6 1.894702 1_555
Co2 O13 2.018043 1_555
Co2 O15 2.018047 1_565
Co3 O12 1.872029 1_555
Co3 O4 1.893695 1_555
Co3 O10 1.894702 1_555
Co3 O11 1.894702 1_555
Co3 O5 2.018043 1_555
Co3 O0 2.018047 1_545
Co4 O12 1.872029 1_555
Co4 O4 1.893695 1_665
Co4 O10 1.894702 1_555
Co4 O14 1.894702 1_555
Co4 O9 2.018043 1_555
Co4 O0 2.018047 1_655
Co5 O12 1.872025 1_555
Co5 O4 1.893695 1_655
Co5 O14 1.894702 1_555
Co5 O11 1.894702 1_555
Co5 O5 2.018047 1_655
Co5 O9 2.018047 1_545
O0 V0 1.830492 1_555
O1 V0 2.043456 1_555
O5 V0 1.830501 1_555
O6 V0 2.043456 1_555
O7 V0 2.043459 1_555
O8 V1 1.830501 1_554
O9 V0 1.830501 1_555
O10 V1 2.043459 1_555
O11 V1 2.043456 1_555
O13 V1 1.830501 1_554
O14 V1 2.043456 1_555
O15 V1 1.830492 1_554
