# generated using pymatgen
data_Li4Cr3CoO8
_symmetry_space_group_name_H-M   'P 1'
_cell_length_a   5.10246300
_cell_length_b   5.85750986
_cell_length_c   10.55784067
_cell_angle_alpha   74.02828300
_cell_angle_beta   76.20292951
_cell_angle_gamma   73.31669723
_symmetry_Int_Tables_number   1
_chemical_formula_structural   Li4Cr3CoO8
_chemical_formula_sum   'Li8 Cr6 Co2 O16'
_cell_volume   286.20786973
_cell_formula_units_Z   2
loop_
 _symmetry_equiv_pos_site_id
 _symmetry_equiv_pos_as_xyz
  1  'x, y, z'
loop_
 _atom_site_type_symbol
 _atom_site_label
 _atom_site_symmetry_multiplicity
 _atom_site_fract_x
 _atom_site_fract_y
 _atom_site_fract_z
 _atom_site_occupancy
  Li  Li0  1  0.49823200  0.24959200  0.50128300  1
  Li  Li1  1  0.49959500  0.87190400  0.75255900  1
  Li  Li2  1  0.50409800  0.62150600  0.25055000  1
  Li  Li3  1  0.50000000  0.00000000  0.00000000  1
  Li  Li4  1  0.50176800  0.75040800  0.49871700  1
  Li  Li5  1  0.49590200  0.37849400  0.74945000  1
  Li  Li6  1  0.50040500  0.12809600  0.24744100  1
  Li  Li7  1  0.50000000  0.50000000  0.00000000  1
  Cr  Cr0  1  0.99979700  0.06027500  0.62748300  1
  Cr  Cr1  1  0.00005800  0.43690100  0.37340900  1
  Cr  Cr2  1  0.00020400  0.81122800  0.12277100  1
  Cr  Cr3  1  0.99994200  0.56309900  0.62659100  1
  Cr  Cr4  1  0.99979600  0.18877200  0.87722900  1
  Cr  Cr5  1  0.00020300  0.93972500  0.37251700  1
  Co  Co0  1  0.00024900  0.31386800  0.12341500  1
  Co  Co1  1  0.99975100  0.68613200  0.87658500  1
  O  O0  1  0.78131800  0.64392100  0.05746900  1
  O  O1  1  0.22312000  0.47045300  0.18706300  1
  O  O2  1  0.77284100  0.40084700  0.56127200  1
  O  O3  1  0.22751800  0.22363100  0.69093000  1
  O  O4  1  0.22318500  0.84545900  0.93786800  1
  O  O5  1  0.77535500  0.01986500  0.81428800  1
  O  O6  1  0.77248200  0.77636900  0.30907000  1
  O  O7  1  0.22715900  0.59915300  0.43872800  1
  O  O8  1  0.77681500  0.15454100  0.06213200  1
  O  O9  1  0.22464500  0.98013500  0.18571200  1
  O  O10  1  0.77313100  0.90201800  0.56007100  1
  O  O11  1  0.22393900  0.72138500  0.69474600  1
  O  O12  1  0.77688000  0.52954700  0.81293700  1
  O  O13  1  0.77606100  0.27861500  0.30525400  1
  O  O14  1  0.21868200  0.35607900  0.94253100  1
  O  O15  1  0.22686900  0.09798200  0.43992900  1
loop_
_geom_bond_atom_site_label_1
_geom_bond_atom_site_label_2
_geom_bond_distance
_geom_bond_site_symmetry_2
Li0 O3 2.138706 1_555
Li0 O15 2.139110 1_555
Li0 O10 2.139592 1_545
Li0 O2 2.143425 1_555
Li0 O7 2.146437 1_555
Li0 O13 2.206194 1_555
Li1 O4 2.117411 1_555
Li1 O12 2.127725 1_555
Li1 O11 2.132103 1_555
Li1 O5 2.145715 1_565
Li1 O3 2.155497 1_565
Li1 O10 2.168034 1_555
Li2 O13 2.106387 1_555
Li2 O6 2.122526 1_555
Li2 O7 2.141291 1_555
Li2 O0 2.181198 1_555
Li2 O1 2.191038 1_555
Li2 O9 2.206580 1_555
Li3 O9 2.118092 1_545
Li3 O5 2.118092 1_554
Li3 O8 2.178887 1_555
Li3 O4 2.178887 1_544
Li3 O14 2.186054 1_554
Li3 O0 2.186054 1_545
Li4 O6 2.138706 1_555
Li4 O10 2.139110 1_555
Li4 O15 2.139592 1_565
Li4 O7 2.143425 1_555
Li4 O2 2.146437 1_555
Li4 O11 2.206194 1_555
Li5 O11 2.106387 1_555
Li5 O3 2.122526 1_555
Li5 O2 2.141291 1_555
Li5 O14 2.181198 1_555
Li5 O12 2.191038 1_555
Li5 O5 2.206580 1_555
Li6 O8 2.117411 1_555
Li6 O1 2.127725 1_555
Li6 O13 2.132103 1_555
Li6 O9 2.145715 1_545
Li6 O6 2.155497 1_545
Li6 O15 2.168034 1_555
Li7 O0 2.128597 1_555
Li7 O14 2.128597 1_554
Li7 O12 2.132574 1_554
Li7 O1 2.132574 1_555
Li7 O4 2.142515 1_554
Li7 O8 2.142515 1_555
Cr0 O11 2.015153 1_645
Cr0 O10 2.018602 1_545
Cr0 O3 2.019094 1_655
Cr0 O5 2.019593 1_555
Cr0 O2 2.025242 1_555
Cr0 O15 2.030813 1_655
Cr1 O13 2.012851 1_455
Cr1 O1 2.013045 1_555
Cr1 O6 2.017636 1_455
Cr1 O15 2.018644 1_555
Cr1 O7 2.023798 1_555
Cr1 O2 2.033711 1_455
Cr2 O4 2.000464 1_554
Cr2 O0 2.012624 1_455
Cr2 O1 2.014420 1_555
Cr2 O8 2.019042 1_465
Cr2 O6 2.021306 1_455
Cr2 O9 2.026642 1_555
Cr3 O11 2.012851 1_655
Cr3 O12 2.013045 1_555
Cr3 O3 2.017636 1_655
Cr3 O10 2.018644 1_555
Cr3 O2 2.023798 1_555
Cr3 O7 2.033711 1_655
Cr4 O8 2.000464 1_556
Cr4 O14 2.012624 1_655
Cr4 O12 2.014420 1_555
Cr4 O4 2.019042 1_645
Cr4 O3 2.021306 1_655
Cr4 O5 2.026642 1_555
Cr5 O13 2.015153 1_465
Cr5 O15 2.018602 1_565
Cr5 O6 2.019094 1_455
Cr5 O9 2.019593 1_555
Cr5 O7 2.025242 1_555
Cr5 O10 2.030813 1_455
Co0 O14 1.957961 1_554
Co0 O0 1.964806 1_455
Co0 O8 1.970883 1_455
Co0 O1 1.971945 1_555
Co0 O13 1.976586 1_455
Co0 O9 1.982795 1_545
Co1 O0 1.957961 1_556
Co1 O14 1.964806 1_655
Co1 O4 1.970883 1_655
Co1 O12 1.971945 1_555
Co1 O11 1.976586 1_655
Co1 O5 1.982795 1_565
