# generated using pymatgen
data_Ti16CuS32
_symmetry_space_group_name_H-M   'P 1'
_cell_length_a   23.15748871
_cell_length_b   23.15748871
_cell_length_c   23.15748808
_cell_angle_alpha   17.35161477
_cell_angle_beta   17.35161477
_cell_angle_gamma   17.35161529
_symmetry_Int_Tables_number   1
_chemical_formula_structural   Ti16CuS32
_chemical_formula_sum   'Ti16 Cu1 S32'
_cell_volume   963.89091154
_cell_formula_units_Z   1
loop_
 _symmetry_equiv_pos_site_id
 _symmetry_equiv_pos_as_xyz
  1  'x, y, z'
loop_
 _atom_site_type_symbol
 _atom_site_label
 _atom_site_symmetry_multiplicity
 _atom_site_fract_x
 _atom_site_fract_y
 _atom_site_fract_z
 _atom_site_occupancy
  Ti  Ti0  1  0.87247100  0.87247100  0.38245900  1
  Ti  Ti1  1  0.12645100  0.62446600  0.62446600  1
  Ti  Ti2  1  0.38245900  0.87247100  0.87247100  1
  Ti  Ti3  1  0.99844500  0.99844500  0.99844500  1
  Ti  Ti4  1  0.75096500  0.75096500  0.75096500  1
  Ti  Ti5  1  0.87247100  0.38245900  0.87247100  1
  Ti  Ti6  1  0.62446600  0.62446600  0.12645100  1
  Ti  Ti7  1  0.62446600  0.12645100  0.62446600  1
  Ti  Ti8  1  0.50009800  0.50009800  0.50009800  1
  Ti  Ti9  1  0.37528500  0.87425300  0.37528500  1
  Ti  Ti10  1  0.37528500  0.37528500  0.87425300  1
  Ti  Ti11  1  0.12324000  0.62689200  0.12324000  1
  Ti  Ti12  1  0.87425300  0.37528500  0.37528500  1
  Ti  Ti13  1  0.62689200  0.12324000  0.12324000  1
  Ti  Ti14  1  0.24946600  0.24946600  0.24946600  1
  Ti  Ti15  1  0.12324000  0.12324000  0.62689200  1
  Cu  Cu0  1  0.34380400  0.34380400  0.34380400  1
  S  S0  1  0.18080800  0.70199100  0.18080800  1
  S  S1  1  0.70199100  0.18080800  0.18080800  1
  S  S2  1  0.68835700  0.68835700  0.68835700  1
  S  S3  1  0.05517700  0.56569200  0.56569200  1
  S  S4  1  0.56569200  0.56569200  0.05517700  1
  S  S5  1  0.56569200  0.05517700  0.56569200  1
  S  S6  1  0.18080800  0.18080800  0.70199100  1
  S  S7  1  0.93321200  0.93321200  0.44633900  1
  S  S8  1  0.44633900  0.93321200  0.93321200  1
  S  S9  1  0.19613400  0.68358900  0.68358900  1
  S  S10  1  0.81162900  0.81162900  0.81162900  1
  S  S11  1  0.06150800  0.06150800  0.06150800  1
  S  S12  1  0.43830800  0.43830800  0.43830800  1
  S  S13  1  0.31621500  0.31621500  0.80405600  1
  S  S14  1  0.31621500  0.80405700  0.31621500  1
  S  S15  1  0.06668800  0.55369300  0.06668800  1
  S  S16  1  0.93321200  0.44633900  0.93321200  1
  S  S17  1  0.68358900  0.19613400  0.68358900  1
  S  S18  1  0.68358900  0.68358900  0.19613400  1
  S  S19  1  0.56168900  0.56168900  0.56168900  1
  S  S20  1  0.18836400  0.18836400  0.18836400  1
  S  S21  1  0.80405700  0.31621500  0.31621500  1
  S  S22  1  0.55369300  0.06668800  0.06668800  1
  S  S23  1  0.93807100  0.93807100  0.93807100  1
  S  S24  1  0.81656700  0.81656700  0.30378800  1
  S  S25  1  0.06668800  0.06668800  0.55369300  1
  S  S26  1  0.43392100  0.94617000  0.43392100  1
  S  S27  1  0.43392100  0.43392100  0.94617000  1
  S  S28  1  0.94617000  0.43392100  0.43392100  1
  S  S29  1  0.31130300  0.31130300  0.31130300  1
  S  S30  1  0.30378800  0.81656700  0.81656700  1
  S  S31  1  0.81656700  0.30378800  0.81656700  1
loop_
_geom_bond_atom_site_label_1
_geom_bond_atom_site_label_2
_geom_bond_distance
_geom_bond_site_symmetry_2
Cu0 S29 2.223410 1_555
Cu0 S6 2.226725 1_555
Cu0 S0 2.226725 1_555
Cu0 S1 2.226725 1_555
S0 Ti0 2.470810 1_455
S0 Ti2 2.470810 1_554
S0 Ti3 2.480684 1_454
S1 Ti0 2.470810 1_545
S1 Ti5 2.470810 1_554
S1 Ti3 2.480684 1_544
S2 Ti2 2.434484 1_555
S2 Ti5 2.434484 1_555
S2 Ti0 2.434484 1_555
S3 Ti0 2.392123 1_455
S3 Ti5 2.392123 1_455
S3 Ti4 2.487208 1_455
S4 Ti5 2.392123 1_554
S4 Ti2 2.392123 1_554
S4 Ti4 2.487208 1_554
S5 Ti0 2.392123 1_545
S5 Ti2 2.392123 1_545
S5 Ti4 2.487208 1_545
S6 Ti2 2.470810 1_545
S6 Ti5 2.470810 1_455
S6 Ti3 2.480684 1_445
S7 Ti4 2.391732 1_555
S7 Ti1 2.453383 1_655
S7 Ti7 2.453383 1_565
S8 Ti4 2.391732 1_555
S8 Ti6 2.453383 1_556
S8 Ti7 2.453383 1_565
S9 Ti10 2.434496 1_555
S9 Ti9 2.434496 1_555
S9 Ti8 2.435343 1_555
S10 Ti7 2.437399 1_565
S10 Ti1 2.437399 1_655
S10 Ti6 2.437399 1_556
S11 Ti2 2.434806 1_544
S11 Ti5 2.434806 1_454
S11 Ti0 2.434806 1_445
S12 Ti1 2.436369 1_555
S12 Ti7 2.436369 1_555
S12 Ti6 2.436370 1_555
S13 Ti1 2.428138 1_555
S13 Ti7 2.428138 1_555
S13 Ti8 2.447268 1_555
S14 Ti6 2.428153 1_555
S14 Ti1 2.428153 1_555
S14 Ti8 2.447258 1_555
S15 Ti14 2.411338 1_555
S15 Ti10 2.447002 1_554
S15 Ti12 2.447002 1_455
S16 Ti4 2.391732 1_555
S16 Ti6 2.453383 1_556
S16 Ti1 2.453383 1_655
S17 Ti10 2.434496 1_555
S17 Ti12 2.434496 1_555
S17 Ti8 2.435343 1_555
S18 Ti9 2.434496 1_555
S18 Ti12 2.434496 1_555
S18 Ti8 2.435343 1_555
S19 Ti9 2.436772 1_555
S19 Ti12 2.436772 1_555
S19 Ti10 2.436773 1_555
S20 Ti12 2.437096 1_455
S20 Ti9 2.437096 1_545
S20 Ti10 2.437096 1_554
S21 Ti6 2.428153 1_555
S21 Ti7 2.428153 1_555
S21 Ti8 2.447258 1_555
S22 Ti14 2.411338 1_555
S22 Ti10 2.447002 1_554
S22 Ti9 2.447002 1_545
S23 Ti11 2.414139 1_656
S23 Ti13 2.414139 1_566
S23 Ti15 2.414139 1_665
S24 Ti3 2.374112 1_554
S24 Ti13 2.456807 1_565
S24 Ti11 2.456807 1_655
S25 Ti14 2.411338 1_555
S25 Ti9 2.447002 1_545
S25 Ti12 2.447002 1_455
S26 Ti15 2.415182 1_565
S26 Ti13 2.415182 1_565
S26 Ti14 2.471686 1_565
S27 Ti13 2.415182 1_556
S27 Ti11 2.415182 1_556
S27 Ti14 2.471687 1_556
S28 Ti15 2.415182 1_655
S28 Ti11 2.415182 1_655
S28 Ti14 2.471686 1_655
S29 Ti13 2.456149 1_555
S29 Ti11 2.456149 1_555
S29 Ti15 2.456149 1_555
S30 Ti3 2.374112 1_455
S30 Ti15 2.456807 1_565
S30 Ti11 2.456807 1_556
S31 Ti3 2.374112 1_545
S31 Ti15 2.456807 1_655
S31 Ti13 2.456807 1_556
