# generated using pymatgen
data_Fe5(OF4)2
_symmetry_space_group_name_H-M   'P 1'
_cell_length_a   4.86149300
_cell_length_b   7.91669400
_cell_length_c   10.70950876
_cell_angle_alpha   65.20026964
_cell_angle_beta   90.00000000
_cell_angle_gamma   90.00000000
_symmetry_Int_Tables_number   1
_chemical_formula_structural   Fe5(OF4)2
_chemical_formula_sum   'Fe10 O4 F16'
_cell_volume   374.16522553
_cell_formula_units_Z   2
loop_
 _symmetry_equiv_pos_site_id
 _symmetry_equiv_pos_as_xyz
  1  'x, y, z'
loop_
 _atom_site_type_symbol
 _atom_site_label
 _atom_site_symmetry_multiplicity
 _atom_site_fract_x
 _atom_site_fract_y
 _atom_site_fract_z
 _atom_site_occupancy
  Fe  Fe0  1  0.47390500  0.88562200  0.90534800  1
  Fe  Fe1  1  0.50000000  0.50000000  0.50000000  1
  Fe  Fe2  1  0.52609500  0.11437800  0.09465200  1
  Fe  Fe3  1  0.48413900  0.70591200  0.68321800  1
  Fe  Fe4  1  0.51586100  0.29408800  0.31678200  1
  Fe  Fe5  1  0.00000000  0.50000000  0.00000000  1
  Fe  Fe6  1  0.01586100  0.70591200  0.18321800  1
  Fe  Fe7  1  0.02609500  0.88562200  0.40534800  1
  Fe  Fe8  1  0.97390500  0.11437800  0.59465200  1
  Fe  Fe9  1  0.98413900  0.29408800  0.81678200  1
  O  O0  1  0.17457000  0.71333700  0.02471300  1
  O  O1  1  0.32543000  0.71333700  0.52471300  1
  O  O2  1  0.67457000  0.28666300  0.47528700  1
  O  O3  1  0.82543000  0.28666300  0.97528700  1
  F  F0  1  0.21745400  0.51545000  0.81379600  1
  F  F1  1  0.19915800  0.91715300  0.21113500  1
  F  F2  1  0.19832500  0.12455700  0.41814200  1
  F  F3  1  0.18234800  0.31179100  0.64299300  1
  F  F4  1  0.30167500  0.12455700  0.91814200  1
  F  F5  1  0.31765200  0.31179100  0.14299300  1
  F  F6  1  0.30084200  0.91715300  0.71113500  1
  F  F7  1  0.28254600  0.51545000  0.31379600  1
  F  F8  1  0.69832500  0.87544300  0.08185800  1
  F  F9  1  0.69915800  0.08284700  0.28886500  1
  F  F10  1  0.71745400  0.48455000  0.68620400  1
  F  F11  1  0.68234800  0.68820900  0.85700700  1
  F  F12  1  0.78254600  0.48455000  0.18620400  1
  F  F13  1  0.81765200  0.68820900  0.35700700  1
  F  F14  1  0.80084200  0.08284700  0.78886500  1
  F  F15  1  0.80167500  0.87544300  0.58185800  1
loop_
_geom_bond_atom_site_label_1
_geom_bond_atom_site_label_2
_geom_bond_distance
_geom_bond_site_symmetry_2
Fe0 O0 2.037016 1_556
Fe1 O1 2.004429 1_555
Fe1 O2 2.004429 1_555
Fe2 O3 2.037016 1_554
Fe3 O1 1.842987 1_555
Fe4 O2 1.842987 1_555
Fe5 O0 2.004429 1_555
Fe5 O3 2.004429 1_454
Fe6 O0 1.842987 1_555
Fe7 O1 2.037016 1_555
Fe8 O2 2.037016 1_555
Fe9 O3 1.842987 1_555
F0 Fe3 2.034979 1_555
F0 Fe9 2.076452 1_455
F0 Fe5 2.214624 1_556
F1 Fe6 2.024739 1_555
F1 Fe7 2.158869 1_555
F1 Fe2 2.210496 1_565
F2 Fe4 2.034813 1_555
F2 Fe7 2.124928 1_545
F2 Fe8 2.154620 1_455
F3 Fe9 2.047773 1_455
F3 Fe8 2.101468 1_455
F3 Fe1 2.244062 1_555
F4 Fe9 2.034813 1_455
F4 Fe0 2.124928 1_545
F4 Fe2 2.154620 1_556
F5 Fe4 2.047773 1_555
F5 Fe2 2.101468 1_555
F5 Fe5 2.244062 1_555
F6 Fe3 2.024739 1_555
F6 Fe0 2.158869 1_555
F6 Fe8 2.210496 1_465
F7 Fe6 2.034979 1_555
F7 Fe4 2.076452 1_555
F7 Fe1 2.214624 1_555
F8 Fe6 2.034813 1_655
F8 Fe2 2.124928 1_565
F8 Fe0 2.154620 1_554
F9 Fe4 2.024739 1_555
F9 Fe2 2.158869 1_555
F9 Fe7 2.210496 1_645
F10 Fe9 2.034979 1_555
F10 Fe3 2.076452 1_555
F10 Fe1 2.214624 1_555
F11 Fe3 2.047773 1_555
F11 Fe0 2.101468 1_555
F11 Fe5 2.244062 1_656
F12 Fe4 2.034979 1_555
F12 Fe6 2.076452 1_655
F12 Fe5 2.214624 1_655
F13 Fe6 2.047773 1_655
F13 Fe7 2.101468 1_655
F13 Fe1 2.244062 1_555
F14 Fe9 2.024739 1_555
F14 Fe8 2.158869 1_555
F14 Fe0 2.210496 1_545
F15 Fe3 2.034813 1_555
F15 Fe8 2.124928 1_565
F15 Fe7 2.154620 1_655
