# generated using pymatgen
data_NaCa3AlFe3(SiO3)8
_symmetry_space_group_name_H-M   'P 1'
_cell_length_a   17.95311800
_cell_length_b   5.34867000
_cell_length_c   9.80940569
_cell_angle_alpha   74.66747203
_cell_angle_beta   90.00000000
_cell_angle_gamma   90.00000000
_symmetry_Int_Tables_number   1
_chemical_formula_structural   NaCa3AlFe3(SiO3)8
_chemical_formula_sum   'Na2 Ca6 Al2 Fe6 Si16 O48'
_cell_volume   908.42472324
_cell_formula_units_Z   2
loop_
 _symmetry_equiv_pos_site_id
 _symmetry_equiv_pos_as_xyz
  1  'x, y, z'
loop_
 _atom_site_type_symbol
 _atom_site_label
 _atom_site_symmetry_multiplicity
 _atom_site_fract_x
 _atom_site_fract_y
 _atom_site_fract_z
 _atom_site_occupancy
  Na  Na0  1  0.52719600  0.50000000  0.75000000  1
  Na  Na1  1  0.47280400  0.50000000  0.25000000  1
  Ca  Ca0  1  0.27913900  0.00000000  0.25000000  1
  Ca  Ca1  1  0.02340200  0.50000000  0.75000000  1
  Ca  Ca2  1  0.76979500  0.00000000  0.25000000  1
  Ca  Ca3  1  0.23020500  0.00000000  0.75000000  1
  Ca  Ca4  1  0.97659800  0.50000000  0.25000000  1
  Ca  Ca5  1  0.72086100  0.00000000  0.75000000  1
  Al  Al0  1  0.57201000  0.00000000  0.25000000  1
  Al  Al1  1  0.42799000  0.00000000  0.75000000  1
  Fe  Fe0  1  0.33575000  0.50000000  0.75000000  1
  Fe  Fe1  1  0.08004000  0.00000000  0.25000000  1
  Fe  Fe2  1  0.17631500  0.50000000  0.25000000  1
  Fe  Fe3  1  0.82368500  0.50000000  0.75000000  1
  Fe  Fe4  1  0.91996000  0.00000000  0.75000000  1
  Fe  Fe5  1  0.66425000  0.50000000  0.25000000  1
  Si  Si0  1  0.17412000  0.69493400  0.54015400  1
  Si  Si1  1  0.17412000  0.30506600  0.95984600  1
  Si  Si2  1  0.91968200  0.19679500  0.03908200  1
  Si  Si3  1  0.33609900  0.70107000  0.03447600  1
  Si  Si4  1  0.91968200  0.80320500  0.46091800  1
  Si  Si5  1  0.66390100  0.70107000  0.53447600  1
  Si  Si6  1  0.33609900  0.29893000  0.46552400  1
  Si  Si7  1  0.08031800  0.19679500  0.53908200  1
  Si  Si8  1  0.66390100  0.29893000  0.96552400  1
  Si  Si9  1  0.42670600  0.19122500  0.03717900  1
  Si  Si10  1  0.08031800  0.80320500  0.96091800  1
  Si  Si11  1  0.82588000  0.69493400  0.04015400  1
  Si  Si12  1  0.42670600  0.80877500  0.46282100  1
  Si  Si13  1  0.82588000  0.30506600  0.45984600  1
  Si  Si14  1  0.57329400  0.19122500  0.53717900  1
  Si  Si15  1  0.57329400  0.80877500  0.96282100  1
  O  O0  1  0.37148700  0.40259000  0.08995200  1
  O  O1  1  0.11913100  0.90152700  0.60170700  1
  O  O2  1  0.25318100  0.70822200  0.61526700  1
  O  O3  1  0.86501800  0.40061700  0.10298700  1
  O  O4  1  0.17365600  0.78132600  0.36971300  1
  O  O5  1  0.17365600  0.21867400  0.13028700  1
  O  O6  1  0.99921000  0.21068700  0.11183400  1
  O  O7  1  0.61361500  0.90219700  0.60467600  1
  O  O8  1  0.37148700  0.59741000  0.41004800  1
  O  O9  1  0.25318100  0.29177800  0.88473300  1
  O  O10  1  0.91808200  0.28575900  0.86860000  1
  O  O11  1  0.25533700  0.71088900  0.10333700  1
  O  O12  1  0.13498200  0.40061700  0.60298700  1
  O  O13  1  0.34243600  0.80073500  0.86190700  1
  O  O14  1  0.91808200  0.71424100  0.63140000  1
  O  O15  1  0.74466300  0.71088900  0.60333700  1
  O  O16  1  0.11913100  0.09847300  0.89829300  1
  O  O17  1  0.99921000  0.78931300  0.38816600  1
  O  O18  1  0.34243600  0.19926500  0.63809300  1
  O  O19  1  0.65756400  0.80073500  0.36190700  1
  O  O20  1  0.00079000  0.21068700  0.61183400  1
  O  O21  1  0.88086900  0.90152700  0.10170700  1
  O  O22  1  0.25533700  0.28911100  0.39666300  1
  O  O23  1  0.08191800  0.28575900  0.36860000  1
  O  O24  1  0.65756400  0.19926500  0.13809300  1
  O  O25  1  0.50478200  0.19749800  0.11719400  1
  O  O26  1  0.86501800  0.59938300  0.39701300  1
  O  O27  1  0.74466300  0.28911100  0.89666300  1
  O  O28  1  0.08191800  0.71424100  0.13140000  1
  O  O29  1  0.42351100  0.25111500  0.86475000  1
  O  O30  1  0.74681900  0.70822200  0.11526700  1
  O  O31  1  0.62851300  0.40259000  0.58995200  1
  O  O32  1  0.00079000  0.78931300  0.88816600  1
  O  O33  1  0.82634400  0.78132600  0.86971300  1
  O  O34  1  0.42351100  0.74888500  0.63525000  1
  O  O35  1  0.61361500  0.09780300  0.89532400  1
  O  O36  1  0.50478200  0.80250200  0.38280600  1
  O  O37  1  0.82634400  0.21867400  0.63028700  1
  O  O38  1  0.49521800  0.19749800  0.61719400  1
  O  O39  1  0.38638500  0.90219700  0.10467600  1
  O  O40  1  0.13498200  0.59938300  0.89701300  1
  O  O41  1  0.74681900  0.29177800  0.38473300  1
  O  O42  1  0.57648900  0.25111500  0.36475000  1
  O  O43  1  0.57648900  0.74888500  0.13525000  1
  O  O44  1  0.88086900  0.09847300  0.39829300  1
  O  O45  1  0.49521800  0.80250200  0.88280600  1
  O  O46  1  0.62851300  0.59741000  0.91004800  1
  O  O47  1  0.38638500  0.09780300  0.39532400  1
loop_
_geom_bond_atom_site_label_1
_geom_bond_atom_site_label_2
_geom_bond_distance
_geom_bond_site_symmetry_2
Na0 O29 2.389932 1_555
Na0 O34 2.389932 1_555
Na0 O38 2.399859 1_555
Na0 O45 2.399859 1_555
Na0 O46 2.545086 1_555
Na0 O31 2.545086 1_555
Na0 O35 2.728601 1_555
Na0 O7 2.728601 1_555
Na1 O42 2.389932 1_555
Na1 O43 2.389932 1_555
Na1 O25 2.399859 1_555
Na1 O36 2.399859 1_555
Na1 O8 2.545086 1_555
Na1 O0 2.545086 1_555
Na1 O47 2.728601 1_555
Na1 O39 2.728601 1_555
Ca0 O5 2.367897 1_555
Ca0 O4 2.367897 1_545
Ca0 O11 2.412497 1_545
Ca0 O22 2.412497 1_555
Ca0 O47 2.531275 1_555
Ca0 O39 2.531275 1_545
Ca0 O0 2.839459 1_555
Ca0 O8 2.839459 1_545
Ca1 O20 2.346361 1_555
Ca1 O32 2.346361 1_555
Ca1 O10 2.353035 1_455
Ca1 O14 2.353035 1_455
Ca1 O12 2.603937 1_555
Ca1 O40 2.603937 1_555
Ca1 O16 2.833716 1_555
Ca1 O1 2.833716 1_555
Ca2 O41 2.333076 1_555
Ca2 O30 2.333076 1_545
Ca2 O19 2.404589 1_545
Ca2 O24 2.404589 1_555
Ca2 O21 2.602918 1_545
Ca2 O44 2.602918 1_555
Ca2 O3 2.821262 1_555
Ca2 O26 2.821262 1_545
Ca3 O9 2.333076 1_555
Ca3 O2 2.333076 1_545
Ca3 O18 2.404589 1_555
Ca3 O13 2.404589 1_545
Ca3 O1 2.602918 1_545
Ca3 O16 2.602918 1_555
Ca3 O40 2.821262 1_545
Ca3 O12 2.821262 1_555
Ca4 O6 2.346361 1_555
Ca4 O17 2.346361 1_555
Ca4 O28 2.353035 1_655
Ca4 O23 2.353035 1_655
Ca4 O26 2.603937 1_555
Ca4 O3 2.603937 1_555
Ca4 O44 2.833716 1_555
Ca4 O21 2.833716 1_555
Ca5 O33 2.367897 1_545
Ca5 O37 2.367897 1_555
Ca5 O15 2.412497 1_545
Ca5 O27 2.412497 1_555
Ca5 O7 2.531275 1_545
Ca5 O35 2.531275 1_555
Ca5 O46 2.839459 1_545
Ca5 O31 2.839459 1_555
Al0 O36 1.882019 1_545
Al0 O25 1.882019 1_555
Al0 O43 1.969022 1_545
Al0 O42 1.969022 1_555
Al0 O24 2.020252 1_555
Al0 O19 2.020252 1_545
Al1 O45 1.882019 1_545
Al1 O38 1.882019 1_555
Al1 O34 1.969022 1_545
Al1 O29 1.969022 1_555
Al1 O18 2.020252 1_555
Al1 O13 2.020252 1_545
Fe0 O2 2.099075 1_555
Fe0 O9 2.099075 1_555
Fe0 O29 2.174666 1_555
Fe0 O34 2.174666 1_555
Fe0 O18 2.177297 1_555
Fe0 O13 2.177297 1_555
Fe1 O17 2.098794 1_445
Fe1 O6 2.098794 1_455
Fe1 O28 2.151998 1_545
Fe1 O23 2.151998 1_555
Fe1 O5 2.201227 1_555
Fe1 O4 2.201227 1_545
Fe2 O22 2.120520 1_555
Fe2 O11 2.120520 1_555
Fe2 O5 2.140080 1_555
Fe2 O4 2.140080 1_555
Fe2 O23 2.198555 1_555
Fe2 O28 2.198555 1_555
Fe3 O27 2.120520 1_555
Fe3 O15 2.120520 1_555
Fe3 O33 2.140080 1_555
Fe3 O37 2.140080 1_555
Fe3 O10 2.198555 1_555
Fe3 O14 2.198555 1_555
Fe4 O20 2.098794 1_655
Fe4 O32 2.098794 1_645
Fe4 O14 2.151998 1_545
Fe4 O10 2.151998 1_555
Fe4 O37 2.201227 1_555
Fe4 O33 2.201227 1_545
Fe5 O41 2.099075 1_555
Fe5 O30 2.099075 1_555
Fe5 O42 2.174666 1_555
Fe5 O43 2.174666 1_555
Fe5 O19 2.177297 1_555
Fe5 O24 2.177297 1_555
O0 Si3 1.670045 1_555
O0 Si9 1.684738 1_555
O1 Si7 1.686422 1_565
O1 Si0 1.706764 1_555
O2 Si0 1.609445 1_555
O3 Si11 1.684818 1_555
O3 Si2 1.704695 1_555
O4 Si0 1.612562 1_555
O5 Si1 1.612562 1_554
O6 Si2 1.606676 1_555
O7 Si14 1.676589 1_565
O7 Si5 1.684712 1_555
O8 Si6 1.670045 1_555
O8 Si12 1.684738 1_555
O9 Si1 1.609445 1_555
O10 Si2 1.613411 1_556
O11 Si3 1.606268 1_555
O12 Si0 1.684818 1_555
O12 Si7 1.704695 1_555
O13 Si3 1.638738 1_556
O14 Si4 1.613411 1_555
O15 Si5 1.606268 1_555
O16 Si10 1.686422 1_545
O16 Si1 1.706764 1_555
O17 Si4 1.606676 1_555
O18 Si6 1.638738 1_555
O19 Si5 1.638738 1_555
O20 Si7 1.606676 1_555
O21 Si2 1.686422 1_565
O21 Si11 1.706764 1_555
O22 Si6 1.606268 1_555
O23 Si7 1.613411 1_555
O24 Si8 1.638738 1_554
O25 Si9 1.611181 1_555
O26 Si13 1.684818 1_555
O26 Si4 1.704695 1_555
O27 Si8 1.606268 1_555
O28 Si10 1.613411 1_554
O29 Si9 1.637159 1_556
O30 Si11 1.609445 1_555
O31 Si5 1.670045 1_555
O31 Si14 1.684738 1_555
O32 Si10 1.606676 1_555
O33 Si11 1.612562 1_556
O34 Si12 1.637159 1_555
O35 Si15 1.676589 1_545
O35 Si8 1.684712 1_555
O36 Si12 1.611181 1_555
O37 Si13 1.612562 1_555
O38 Si14 1.611181 1_555
O39 Si9 1.676589 1_565
O39 Si3 1.684712 1_555
O40 Si1 1.684818 1_555
O40 Si10 1.704695 1_555
O41 Si13 1.609445 1_555
O42 Si14 1.637159 1_555
O43 Si15 1.637159 1_554
O44 Si4 1.686422 1_545
O44 Si13 1.706764 1_555
O45 Si15 1.611181 1_555
O46 Si8 1.670045 1_555
O46 Si15 1.684738 1_555
O47 Si12 1.676589 1_545
O47 Si6 1.684712 1_555
