# generated using pymatgen
data_Na6Fe2B4SO16
_symmetry_space_group_name_H-M   'P 1'
_cell_length_a   10.00670930
_cell_length_b   10.00670930
_cell_length_c   10.00670930
_cell_angle_alpha   60.00000000
_cell_angle_beta   60.00000000
_cell_angle_gamma   60.00000000
_symmetry_Int_Tables_number   1
_chemical_formula_structural   Na6Fe2B4SO16
_chemical_formula_sum   'Na12 Fe4 B8 S2 O32'
_cell_volume   708.53099275
_cell_formula_units_Z   2
loop_
 _symmetry_equiv_pos_site_id
 _symmetry_equiv_pos_as_xyz
  1  'x, y, z'
loop_
 _atom_site_type_symbol
 _atom_site_label
 _atom_site_symmetry_multiplicity
 _atom_site_fract_x
 _atom_site_fract_y
 _atom_site_fract_z
 _atom_site_occupancy
  Na  Na0  1  0.21799700  0.21799700  0.78200300  1
  Na  Na1  1  0.78200300  0.21799700  0.21799700  1
  Na  Na2  1  0.78200300  0.21799700  0.78200300  1
  Na  Na3  1  0.21799700  0.78200300  0.21799700  1
  Na  Na4  1  0.46799700  0.46799700  0.03200300  1
  Na  Na5  1  0.03200300  0.46799700  0.46799700  1
  Na  Na6  1  0.21799700  0.78200300  0.78200300  1
  Na  Na7  1  0.78200300  0.78200300  0.21799700  1
  Na  Na8  1  0.03200300  0.46799700  0.03200300  1
  Na  Na9  1  0.46799700  0.03200300  0.46799700  1
  Na  Na10  1  0.03200300  0.03200300  0.46799700  1
  Na  Na11  1  0.46799700  0.03200300  0.03200300  1
  Fe  Fe0  1  0.62500000  0.12500000  0.62500000  1
  Fe  Fe1  1  0.62500000  0.62500000  0.12500000  1
  Fe  Fe2  1  0.12500000  0.62500000  0.62500000  1
  Fe  Fe3  1  0.62500000  0.62500000  0.62500000  1
  B  B0  1  0.41237400  0.41237400  0.41237400  1
  B  B1  1  0.76287800  0.41237400  0.41237400  1
  B  B2  1  0.41237400  0.41237400  0.76287800  1
  B  B3  1  0.41237400  0.76287800  0.41237400  1
  B  B4  1  0.83762600  0.48712200  0.83762600  1
  B  B5  1  0.83762600  0.83762600  0.48712200  1
  B  B6  1  0.48712200  0.83762600  0.83762600  1
  B  B7  1  0.83762600  0.83762600  0.83762600  1
  S  S0  1  0.25000000  0.25000000  0.25000000  1
  S  S1  1  0.00000000  0.00000000  0.00000000  1
  O  O0  1  0.18894800  0.18894800  0.18894800  1
  O  O1  1  0.18894800  0.18894800  0.43315600  1
  O  O2  1  0.43315600  0.18894800  0.18894800  1
  O  O3  1  0.18894800  0.43315600  0.18894800  1
  O  O4  1  0.44027800  0.26087500  0.53130500  1
  O  O5  1  0.53130500  0.44027800  0.26087500  1
  O  O6  1  0.76754200  0.26087500  0.44027800  1
  O  O7  1  0.26087500  0.53130500  0.44027800  1
  O  O8  1  0.53130500  0.26087500  0.76754200  1
  O  O9  1  0.26087500  0.44027800  0.76754200  1
  O  O10  1  0.76754200  0.53130500  0.26087500  1
  O  O11  1  0.76754200  0.44027800  0.53130500  1
  O  O12  1  0.44027800  0.76754200  0.26087500  1
  O  O13  1  0.44027800  0.53130500  0.76754200  1
  O  O14  1  0.26087500  0.76754200  0.53130500  1
  O  O15  1  0.71869500  0.48245800  0.80972200  1
  O  O16  1  0.53130500  0.76754200  0.44027800  1
  O  O17  1  0.98912500  0.48245800  0.71869500  1
  O  O18  1  0.80972200  0.71869500  0.48245800  1
  O  O19  1  0.80972200  0.48245800  0.98912500  1
  O  O20  1  0.48245800  0.80972200  0.71869500  1
  O  O21  1  0.48245800  0.71869500  0.98912500  1
  O  O22  1  0.98912500  0.80972200  0.48245800  1
  O  O23  1  0.71869500  0.98912500  0.48245800  1
  O  O24  1  0.98912500  0.71869500  0.80972200  1
  O  O25  1  0.48245800  0.98912500  0.80972200  1
  O  O26  1  0.71869500  0.80972200  0.98912500  1
  O  O27  1  0.80972200  0.98912500  0.71869500  1
  O  O28  1  0.06105200  0.81684400  0.06105200  1
  O  O29  1  0.81684400  0.06105200  0.06105200  1
  O  O30  1  0.06105200  0.06105200  0.81684400  1
  O  O31  1  0.06105200  0.06105200  0.06105200  1
loop_
_geom_bond_atom_site_label_1
_geom_bond_atom_site_label_2
_geom_bond_distance
_geom_bond_site_symmetry_2
Na0 O9 2.392273 1_555
Na0 O4 2.392273 1_555
Na0 O25 2.522587 1_545
Na0 O17 2.522587 1_455
Na0 O31 2.534936 1_556
Na0 O30 2.534936 1_555
Na1 O6 2.392273 1_555
Na1 O5 2.392273 1_555
Na1 O19 2.522587 1_554
Na1 O23 2.522587 1_545
Na1 O31 2.534936 1_655
Na1 O29 2.534936 1_555
Na2 O11 2.392273 1_555
Na2 O8 2.392273 1_555
Na2 O15 2.522587 1_555
Na2 O27 2.522587 1_545
Na2 O30 2.534936 1_655
Na2 O29 2.534936 1_556
Na3 O12 2.392273 1_555
Na3 O7 2.392273 1_555
Na3 O22 2.522587 1_455
Na3 O21 2.522587 1_554
Na3 O31 2.534936 1_565
Na3 O28 2.534936 1_555
Na4 O21 2.392273 1_554
Na4 O15 2.392273 1_554
Na4 O5 2.522587 1_555
Na4 O13 2.522587 1_554
Na4 O3 2.534936 1_555
Na4 O2 2.534936 1_555
Na5 O17 2.392273 1_455
Na5 O18 2.392273 1_455
Na5 O7 2.522587 1_555
Na5 O11 2.522587 1_455
Na5 O1 2.534936 1_555
Na5 O3 2.534936 1_555
Na6 O13 2.392273 1_555
Na6 O14 2.392273 1_555
Na6 O20 2.522587 1_555
Na6 O24 2.522587 1_455
Na6 O30 2.534936 1_565
Na6 O28 2.534936 1_556
Na7 O16 2.392273 1_555
Na7 O10 2.392273 1_555
Na7 O18 2.522587 1_555
Na7 O26 2.522587 1_554
Na7 O28 2.534936 1_655
Na7 O29 2.534936 1_565
Na8 O24 2.392273 1_454
Na8 O19 2.392273 1_454
Na8 O10 2.522587 1_455
Na8 O9 2.522587 1_554
Na8 O3 2.534936 1_555
Na8 O0 2.534936 1_555
Na9 O23 2.392273 1_545
Na9 O20 2.392273 1_545
Na9 O4 2.522587 1_555
Na9 O16 2.522587 1_545
Na9 O1 2.534936 1_555
Na9 O2 2.534936 1_555
Na10 O27 2.392273 1_445
Na10 O22 2.392273 1_445
Na10 O14 2.522587 1_545
Na10 O6 2.522587 1_455
Na10 O0 2.534936 1_555
Na10 O1 2.534936 1_555
Na11 O26 2.392273 1_544
Na11 O25 2.392273 1_544
Na11 O8 2.522587 1_554
Na11 O12 2.522587 1_545
Na11 O2 2.534936 1_555
Na11 O0 2.534936 1_555
Fe0 O8 2.022262 1_555
Fe0 O27 2.022262 1_545
Fe0 O6 2.022262 1_555
Fe0 O4 2.022262 1_555
Fe0 O25 2.022262 1_545
Fe0 O23 2.022262 1_545
Fe1 O10 2.022262 1_555
Fe1 O26 2.022262 1_554
Fe1 O12 2.022262 1_555
Fe1 O5 2.022262 1_555
Fe1 O19 2.022262 1_554
Fe1 O21 2.022262 1_554
Fe2 O24 2.022262 1_455
Fe2 O14 2.022262 1_555
Fe2 O9 2.022262 1_555
Fe2 O7 2.022262 1_555
Fe2 O22 2.022262 1_455
Fe2 O17 2.022262 1_455
Fe3 O15 2.022262 1_555
Fe3 O18 2.022262 1_555
Fe3 O20 2.022262 1_555
Fe3 O11 2.022262 1_555
Fe3 O16 2.022262 1_555
Fe3 O13 2.022262 1_555
B0 O5 1.377458 1_555
B0 O7 1.377458 1_555
B0 O4 1.377458 1_555
B1 O6 1.377458 1_555
B1 O10 1.377458 1_555
B1 O11 1.377458 1_555
B2 O9 1.377458 1_555
B2 O8 1.377458 1_555
B2 O13 1.377458 1_555
B3 O12 1.377458 1_555
B3 O14 1.377458 1_555
B3 O16 1.377458 1_555
B4 O19 1.377458 1_555
B4 O17 1.377458 1_555
B4 O15 1.377458 1_555
B5 O22 1.377458 1_555
B5 O23 1.377458 1_555
B5 O18 1.377458 1_555
B6 O25 1.377458 1_555
B6 O21 1.377458 1_555
B6 O20 1.377458 1_555
B7 O24 1.377458 1_555
B7 O26 1.377458 1_555
B7 O27 1.377458 1_555
O0 S0 1.496466 1_555
O1 S0 1.496466 1_555
O2 S0 1.496466 1_555
O3 S0 1.496466 1_555
O28 S1 1.496466 1_565
O29 S1 1.496466 1_655
O30 S1 1.496466 1_556
O31 S1 1.496466 1_555
