# generated using pymatgen
data_Na2NiPCO7
_symmetry_space_group_name_H-M   'P 1'
_cell_length_a   8.36596600
_cell_length_b   8.39991985
_cell_length_c   8.87409364
_cell_angle_alpha   91.20628091
_cell_angle_beta   90.54003794
_cell_angle_gamma   104.38531659
_symmetry_Int_Tables_number   1
_chemical_formula_structural   Na2NiPCO7
_chemical_formula_sum   'Na8 Ni4 P4 C4 O28'
_cell_volume   603.85786400
_cell_formula_units_Z   4
loop_
 _symmetry_equiv_pos_site_id
 _symmetry_equiv_pos_as_xyz
  1  'x, y, z'
loop_
 _atom_site_type_symbol
 _atom_site_label
 _atom_site_symmetry_multiplicity
 _atom_site_fract_x
 _atom_site_fract_y
 _atom_site_fract_z
 _atom_site_occupancy
  Na  Na0  1  0.13256600  0.11490200  0.73422700  1
  Na  Na1  1  0.62819900  0.61635100  0.74887100  1
  Na  Na2  1  0.86300100  0.38357000  0.73434700  1
  Na  Na3  1  0.36533900  0.87739500  0.74852400  1
  Na  Na4  1  0.13760500  0.62558100  0.25642400  1
  Na  Na5  1  0.38386300  0.38529700  0.24959700  1
  Na  Na6  1  0.85191000  0.88267000  0.26850300  1
  Na  Na7  1  0.96309000  0.22991700  0.08765300  1
  Ni  Ni0  1  0.76231000  0.01436700  0.64925600  1
  Ni  Ni1  1  0.26507500  0.51167700  0.65283800  1
  Ni  Ni2  1  0.23964500  0.98454600  0.34627500  1
  Ni  Ni3  1  0.73636400  0.48275300  0.34681700  1
  P  P0  1  0.48622300  0.23448000  0.57533300  1
  P  P1  1  0.98354500  0.73471800  0.57778800  1
  P  P2  1  0.02189900  0.27096100  0.41868400  1
  P  P3  1  0.51465300  0.76378800  0.42377300  1
  C  C0  1  0.22711100  0.47731700  0.92711500  1
  C  C1  1  0.73459800  0.98183200  0.92462700  1
  C  C2  1  0.26919100  0.01758700  0.07432300  1
  C  C3  1  0.76854100  0.52119500  0.07417100  1
  O  O0  1  0.27699900  0.03453900  0.93422000  1
  O  O1  1  0.78655400  0.53424600  0.93445800  1
  O  O2  1  0.34036500  0.59036100  0.86614400  1
  O  O3  1  0.84486900  0.09773800  0.85823400  1
  O  O4  1  0.12815300  0.37984600  0.83096200  1
  O  O5  1  0.63320200  0.88459300  0.83200300  1
  O  O6  1  0.11186100  0.67483600  0.67205200  1
  O  O7  1  0.61316200  0.17505200  0.67205200  1
  O  O8  1  0.42534400  0.35906100  0.67683300  1
  O  O9  1  0.92402800  0.86262100  0.67490300  1
  O  O10  1  0.94648000  0.19923400  0.56738000  1
  O  O11  1  0.44783100  0.69287700  0.57699400  1
  O  O12  1  0.33448400  0.08583200  0.53901500  1
  O  O13  1  0.83307400  0.58411500  0.54189800  1
  O  O14  1  0.17743100  0.41556200  0.45665000  1
  O  O15  1  0.66525300  0.91176100  0.46081900  1
  O  O16  1  0.05296900  0.80749600  0.42609800  1
  O  O17  1  0.55697400  0.30911500  0.42659100  1
  O  O18  1  0.07551500  0.14157100  0.31702500  1
  O  O19  1  0.38169700  0.81734900  0.33176800  1
  O  O20  1  0.90581700  0.34327900  0.31996500  1
  O  O21  1  0.57548300  0.63792200  0.32504500  1
  O  O22  1  0.36596300  0.11239200  0.17165800  1
  O  O23  1  0.86351300  0.61739000  0.17368100  1
  O  O24  1  0.65660500  0.40634800  0.13454900  1
  O  O25  1  0.15753800  0.90250600  0.13711900  1
  O  O26  1  0.21132400  0.46029800  0.06804600  1
  O  O27  1  0.73489200  0.97310800  0.06502000  1
loop_
_geom_bond_atom_site_label_1
_geom_bond_atom_site_label_2
_geom_bond_distance
_geom_bond_site_symmetry_2
Na0 O0 2.341110 1_555
Na0 O4 2.377424 1_555
Na0 O10 2.380398 1_455
Na0 O9 2.431110 1_445
Na0 O12 2.481216 1_555
Na0 O3 2.628488 1_455
Na0 O8 2.834873 1_555
Na1 O1 2.324596 1_555
Na1 O11 2.344440 1_555
Na1 O5 2.346384 1_555
Na1 O8 2.461408 1_555
Na1 O13 2.579440 1_555
Na1 O2 2.593222 1_555
Na1 O9 2.894681 1_555
Na2 O1 2.343801 1_555
Na2 O10 2.353914 1_555
Na2 O4 2.378332 1_655
Na2 O7 2.420859 1_555
Na2 O13 2.477839 1_555
Na2 O3 2.632415 1_555
Na2 O6 2.858967 1_655
Na3 O0 2.328135 1_565
Na3 O5 2.339598 1_555
Na3 O11 2.376457 1_555
Na3 O6 2.446198 1_555
Na3 O2 2.608850 1_555
Na3 O12 2.634641 1_565
Na3 O7 2.921078 1_565
Na4 O26 2.334440 1_555
Na4 O19 2.346554 1_555
Na4 O16 2.358883 1_555
Na4 O23 2.385305 1_455
Na4 O25 2.544395 1_555
Na4 O14 2.606375 1_555
Na4 O20 2.737408 1_455
Na5 O17 2.331054 1_555
Na5 O22 2.348726 1_555
Na5 O26 2.350929 1_555
Na5 O21 2.398087 1_555
Na5 O24 2.476089 1_555
Na5 O14 2.584868 1_555
Na6 O27 2.278178 1_555
Na6 O15 2.373409 1_555
Na6 O16 2.388404 1_655
Na6 O23 2.390189 1_555
Na6 O18 2.517597 1_665
Na6 O21 2.743959 1_555
Na6 O25 2.788800 1_655
Na7 O20 2.355636 1_555
Na7 O3 2.382646 1_554
Na7 O18 2.439834 1_655
Na7 O26 2.472258 1_655
Na7 O27 2.503324 1_545
Na7 O4 2.828031 1_654
Ni0 O15 1.940210 1_545
Ni0 O3 2.021744 1_555
Ni0 O10 2.047686 1_555
Ni0 O7 2.061490 1_555
Ni0 O9 2.090514 1_545
Ni0 O5 2.123043 1_545
Ni1 O14 1.960385 1_555
Ni1 O11 2.003377 1_555
Ni1 O2 2.033380 1_555
Ni1 O8 2.084877 1_555
Ni1 O6 2.101793 1_555
Ni1 O4 2.124742 1_555
Ni2 O12 1.963809 1_565
Ni2 O16 2.015857 1_555
Ni2 O25 2.019564 1_555
Ni2 O22 2.051394 1_565
Ni2 O19 2.055704 1_555
Ni2 O18 2.144799 1_565
Ni3 O17 1.963841 1_555
Ni3 O13 1.986385 1_555
Ni3 O24 2.029293 1_555
Ni3 O20 2.063716 1_555
Ni3 O23 2.068176 1_555
Ni3 O21 2.103590 1_555
C0 O26 1.266186 1_556
C0 O2 1.294753 1_555
C0 O4 1.305478 1_555
C1 O27 1.249568 1_556
C1 O5 1.294857 1_555
C1 O3 1.316887 1_565
C2 O0 1.254858 1_554
C2 O22 1.293524 1_555
C2 O25 1.304352 1_545
C3 O1 1.254166 1_554
C3 O24 1.294998 1_555
C3 O23 1.304500 1_555
O6 P1 1.540851 1_455
O7 P0 1.542044 1_555
O8 P0 1.549060 1_555
O9 P1 1.542669 1_555
O10 P2 1.537068 1_655
O11 P3 1.548890 1_555
O12 P0 1.569136 1_555
O13 P1 1.571832 1_555
O14 P2 1.571978 1_555
O15 P3 1.561176 1_555
O16 P1 1.547911 1_455
O17 P0 1.533245 1_555
O18 P2 1.550773 1_555
O19 P3 1.534032 1_555
O20 P2 1.542423 1_655
O21 P3 1.543090 1_555
