# generated using pymatgen
data_Li8Mn3V(PO4)6
_symmetry_space_group_name_H-M   'P 1'
_cell_length_a   8.39469100
_cell_length_b   8.50505379
_cell_length_c   9.26895067
_cell_angle_alpha   91.53629079
_cell_angle_beta   116.39693907
_cell_angle_gamma   119.03919805
_symmetry_Int_Tables_number   1
_chemical_formula_structural   Li8Mn3V(PO4)6
_chemical_formula_sum   'Li8 Mn3 V1 P6 O24'
_cell_volume   492.76072340
_cell_formula_units_Z   1
loop_
 _symmetry_equiv_pos_site_id
 _symmetry_equiv_pos_as_xyz
  1  'x, y, z'
loop_
 _atom_site_type_symbol
 _atom_site_label
 _atom_site_symmetry_multiplicity
 _atom_site_fract_x
 _atom_site_fract_y
 _atom_site_fract_z
 _atom_site_occupancy
  Li  Li0  1  0.19660900  0.27084300  0.86442200  1
  Li  Li1  1  0.62671200  0.93901300  0.90047600  1
  Li  Li2  1  0.93078200  0.65775900  0.85000000  1
  Li  Li3  1  0.32158000  0.79847700  0.58815600  1
  Li  Li4  1  0.67127800  0.21351600  0.40931900  1
  Li  Li5  1  0.06671000  0.33436100  0.14599900  1
  Li  Li6  1  0.37120600  0.06314400  0.10046500  1
  Li  Li7  1  0.80904000  0.73371100  0.13605000  1
  Mn  Mn0  1  0.31283700  0.64912400  0.96817600  1
  Mn  Mn1  1  0.28935000  0.15044500  0.43780200  1
  Mn  Mn2  1  0.68817600  0.35074400  0.03377800  1
  V  V0  1  0.70782600  0.85079700  0.55930600  1
  P  P0  1  0.20298400  0.94786200  0.74608800  1
  P  P1  1  0.50010500  0.55385000  0.75309300  1
  P  P2  1  0.80391800  0.24556600  0.75888200  1
  P  P3  1  0.20410900  0.74733300  0.24205700  1
  P  P4  1  0.50786100  0.45890700  0.25052600  1
  P  P5  1  0.78447100  0.04429700  0.25139800  1
  O  O0  1  0.33863300  0.13914500  0.89031100  1
  O  O1  1  0.34064700  0.51245700  0.81601800  1
  O  O2  1  0.30601200  0.83160800  0.80756700  1
  O  O3  1  0.70373600  0.57368400  0.89922200  1
  O  O4  1  0.75174900  0.19892600  0.90031100  1
  O  O5  1  0.57168200  0.75138300  0.71917000  1
  O  O6  1  0.20053100  0.96920600  0.58224700  1
  O  O7  1  0.38233900  0.39523900  0.59455900  1
  O  O8  1  0.98418100  0.45992100  0.81874100  1
  O  O9  1  0.88348100  0.11964800  0.73470100  1
  O  O10  1  0.61242200  0.20231400  0.59010300  1
  O  O11  1  0.97554600  0.84320200  0.72163400  1
  O  O12  1  0.00133300  0.14756200  0.26355900  1
  O  O13  1  0.40661000  0.80814800  0.41429200  1
  O  O14  1  0.12035200  0.87023600  0.25309100  1
  O  O15  1  0.03504200  0.53596800  0.19011600  1
  O  O16  1  0.60183700  0.60985300  0.41260200  1
  O  O17  1  0.79934800  0.01143400  0.41791800  1
  O  O18  1  0.43797000  0.26218100  0.27979600  1
  O  O19  1  0.25644200  0.78890200  0.09551700  1
  O  O20  1  0.30222200  0.43837300  0.10213900  1
  O  O21  1  0.67926700  0.15783600  0.20067800  1
  O  O22  1  0.67156900  0.51295000  0.19674800  1
  O  O23  1  0.64149300  0.85007100  0.10296900  1
loop_
_geom_bond_atom_site_label_1
_geom_bond_atom_site_label_2
_geom_bond_distance
_geom_bond_site_symmetry_2
Li0 O0 1.946829 1_555
Li0 O9 1.958099 1_455
Li0 O1 2.001426 1_555
Li0 O20 2.130593 1_556
Li1 O4 1.933236 1_565
Li1 O5 2.008571 1_555
Li1 O23 2.017558 1_556
Li1 O2 2.081522 1_555
Li2 O3 1.954433 1_555
Li2 O8 1.984367 1_555
Li2 O11 1.991794 1_555
Li2 O19 2.295296 1_656
Li3 O13 2.021452 1_555
Li3 O2 2.115137 1_555
Li3 O6 2.128691 1_555
Li3 O5 2.149087 1_555
Li4 O10 1.939100 1_555
Li4 O21 2.016361 1_555
Li4 O18 2.042405 1_555
Li4 O17 2.416865 1_555
Li5 O15 1.918230 1_555
Li5 O12 1.946980 1_555
Li5 O20 1.972969 1_555
Li5 O4 2.247748 1_454
Li6 O21 2.000308 1_555
Li6 O18 2.010569 1_555
Li6 O0 2.013066 1_554
Li6 O19 2.035684 1_545
Li7 O22 1.924586 1_555
Li7 O14 1.954598 1_655
Li7 O23 2.008930 1_555
Li7 O3 2.097347 1_554
Mn0 O1 1.965441 1_555
Mn0 O19 1.999642 1_556
Mn0 O8 2.071789 1_455
Mn0 O23 2.082457 1_556
Mn0 O2 2.182346 1_555
Mn0 O20 2.196653 1_556
Mn1 O7 2.075245 1_555
Mn1 O6 2.146400 1_545
Mn1 O12 2.218784 1_555
Mn1 O10 2.223437 1_555
Mn1 O14 2.227702 1_545
Mn1 O18 2.269991 1_555
Mn2 O22 2.113449 1_555
Mn2 O4 2.157046 1_554
Mn2 O15 2.175498 1_655
Mn2 O0 2.211954 1_554
Mn2 O3 2.280137 1_554
Mn2 O21 2.282648 1_555
O0 P0 1.569006 1_545
O1 P1 1.582305 1_555
O2 P0 1.572435 1_555
O3 P1 1.560191 1_555
O4 P2 1.561187 1_555
O5 P1 1.580731 1_555
O5 V0 2.202636 1_555
O6 P0 1.526510 1_555
O7 P1 1.504558 1_555
O8 P2 1.562812 1_555
O9 P2 1.567768 1_555
O9 V0 2.107513 1_545
O10 P2 1.525056 1_555
O11 P0 1.563172 1_655
O11 V0 2.111482 1_555
O12 P5 1.535661 1_455
O13 P3 1.547567 1_555
O13 V0 2.096057 1_555
O14 P3 1.539219 1_555
O15 P3 1.531938 1_555
O16 P4 1.544958 1_555
O16 V0 1.960812 1_555
O17 P5 1.536758 1_555
O17 V0 2.036312 1_545
O18 P4 1.558902 1_555
O19 P3 1.602637 1_555
O20 P4 1.576546 1_555
O21 P5 1.554531 1_555
O22 P4 1.535101 1_555
O23 P5 1.595990 1_565
