# generated using pymatgen
data_VCr(P2O7)2
_symmetry_space_group_name_H-M   'P 1'
_cell_length_a   4.86570573
_cell_length_b   16.11274951
_cell_length_c   6.98785999
_cell_angle_alpha   90.53009658
_cell_angle_beta   105.88641430
_cell_angle_gamma   89.25515481
_symmetry_Int_Tables_number   1
_chemical_formula_structural   VCr(P2O7)2
_chemical_formula_sum   'V2 Cr2 P8 O28'
_cell_volume   526.86939624
_cell_formula_units_Z   2
loop_
 _symmetry_equiv_pos_site_id
 _symmetry_equiv_pos_as_xyz
  1  'x, y, z'
loop_
 _atom_site_type_symbol
 _atom_site_label
 _atom_site_symmetry_multiplicity
 _atom_site_fract_x
 _atom_site_fract_y
 _atom_site_fract_z
 _atom_site_occupancy
  V  V0  1  0.21219600  0.75272500  0.72576500  1
  V  V1  1  0.21182500  0.25273800  0.72602400  1
  Cr  Cr0  1  0.78414500  0.00317100  0.26994500  1
  Cr  Cr1  1  0.78422700  0.50310000  0.27031400  1
  P  P0  1  0.39039700  0.09120700  0.50942200  1
  P  P1  1  0.39016300  0.59119900  0.50917000  1
  P  P2  1  0.24045800  0.38679900  0.10441200  1
  P  P3  1  0.24031300  0.88674700  0.10439200  1
  P  P4  1  0.76415700  0.13561700  0.89664000  1
  P  P5  1  0.76428600  0.63540400  0.89603600  1
  P  P6  1  0.60920200  0.34582600  0.48851500  1
  P  P7  1  0.60933400  0.84589900  0.48850700  1
  O  O0  1  0.01874200  0.16839900  0.82962100  1
  O  O1  1  0.01803500  0.66815400  0.82791300  1
  O  O2  1  0.16827700  0.33005300  0.91452700  1
  O  O3  1  0.16840100  0.82978000  0.91481500  1
  O  O4  1  0.15372300  0.02908400  0.47102600  1
  O  O5  1  0.15362000  0.52904200  0.47093800  1
  O  O6  1  0.27220900  0.18115000  0.53223800  1
  O  O7  1  0.27177900  0.68114600  0.53178300  1
  O  O8  1  0.41260300  0.33675500  0.62756400  1
  O  O9  1  0.41263800  0.83676400  0.62756700  1
  O  O10  1  0.55692700  0.21017000  0.90081800  1
  O  O11  1  0.55689000  0.70992100  0.90025300  1
  O  O12  1  0.58979500  0.07197000  0.73221100  1
  O  O13  1  0.58921100  0.57183900  0.73193700  1
  O  O14  1  0.42699000  0.32096200  0.26814100  1
  O  O15  1  0.42699300  0.82098600  0.26819100  1
  O  O16  1  0.42264700  0.45962600  0.08321400  1
  O  O17  1  0.42217100  0.95963400  0.08308400  1
  O  O18  1  0.57599600  0.09495600  0.36872700  1
  O  O19  1  0.57599200  0.59493100  0.36860500  1
  O  O20  1  0.71304500  0.43341000  0.48817800  1
  O  O21  1  0.71301200  0.93350400  0.48813000  1
  O  O22  1  0.85559000  0.28158700  0.54418100  1
  O  O23  1  0.85568600  0.78166600  0.54410100  1
  O  O24  1  0.86529000  0.08886100  0.08722100  1
  O  O25  1  0.86554600  0.58855700  0.08651800  1
  O  O26  1  0.96870600  0.40786800  0.15934600  1
  O  O27  1  0.96854600  0.90787200  0.15926600  1
loop_
_geom_bond_atom_site_label_1
_geom_bond_atom_site_label_2
_geom_bond_distance
_geom_bond_site_symmetry_2
Cr0 O4 2.001947 1_655
Cr0 O18 2.003572 1_555
Cr0 O24 2.003836 1_555
Cr0 O21 2.008749 1_545
Cr0 O17 2.013771 1_545
Cr0 O27 2.020683 1_545
Cr1 O5 1.999960 1_655
Cr1 O19 2.002728 1_555
Cr1 O25 2.006781 1_555
Cr1 O20 2.007232 1_555
Cr1 O16 2.012746 1_555
Cr1 O26 2.021083 1_555
O0 P4 1.540123 1_455
O0 V1 1.917583 1_555
O1 P5 1.540399 1_455
O1 V0 1.918213 1_555
O2 P2 1.565492 1_556
O2 V1 1.856741 1_555
O3 P3 1.565879 1_556
O3 V0 1.857141 1_555
O4 P0 1.501976 1_555
O5 P1 1.501926 1_555
O6 P0 1.575004 1_555
O6 V1 1.852205 1_555
O7 P1 1.575154 1_555
O7 V0 1.851806 1_555
O8 P6 1.547793 1_555
O8 V1 1.918328 1_555
O9 P7 1.548340 1_555
O9 V0 1.916652 1_555
O10 P4 1.563505 1_555
O10 V1 1.909099 1_555
O11 P5 1.563633 1_555
O11 V0 1.908200 1_555
O12 P4 1.599638 1_555
O12 P0 1.623351 1_555
O13 P5 1.598677 1_555
O13 P1 1.623045 1_555
O14 P6 1.602603 1_555
O14 P2 1.639213 1_555
O15 P7 1.602657 1_555
O15 P3 1.638947 1_555
O16 P2 1.512252 1_555
O17 P3 1.512212 1_555
O18 P0 1.508101 1_555
O19 P1 1.508216 1_555
O20 P6 1.505355 1_555
O21 P7 1.505423 1_555
O22 P6 1.542662 1_555
O22 V1 1.902461 1_655
O23 P7 1.542452 1_555
O23 V0 1.903261 1_655
O24 P4 1.494467 1_554
O25 P5 1.494704 1_554
O26 P2 1.508240 1_655
O27 P3 1.508293 1_655
