# generated using pymatgen
data_Li3Co2(SiO4)2
_symmetry_space_group_name_H-M   'P 1'
_cell_length_a   6.33896800
_cell_length_b   5.07078700
_cell_length_c   10.78668621
_cell_angle_alpha   89.91379618
_cell_angle_beta   90.00000000
_cell_angle_gamma   90.00000000
_symmetry_Int_Tables_number   1
_chemical_formula_structural   Li3Co2(SiO4)2
_chemical_formula_sum   'Li6 Co4 Si4 O16'
_cell_volume   346.72206547
_cell_formula_units_Z   2
loop_
 _symmetry_equiv_pos_site_id
 _symmetry_equiv_pos_as_xyz
  1  'x, y, z'
loop_
 _atom_site_type_symbol
 _atom_site_label
 _atom_site_symmetry_multiplicity
 _atom_site_fract_x
 _atom_site_fract_y
 _atom_site_fract_z
 _atom_site_occupancy
  Li  Li0  1  0.23282500  0.23808800  0.83073200  1
  Li  Li1  1  0.76717500  0.23808800  0.33073200  1
  Li  Li2  1  0.75351200  0.74092700  0.66935700  1
  Li  Li3  1  0.50069800  0.74444000  0.90996000  1
  Li  Li4  1  0.49930200  0.74444000  0.40996000  1
  Li  Li5  1  0.24648800  0.74092700  0.16935700  1
  Co  Co0  1  0.01020500  0.74006800  0.41673800  1
  Co  Co1  1  0.98979500  0.74006800  0.91673800  1
  Co  Co2  1  0.51676100  0.23741700  0.08782900  1
  Co  Co3  1  0.48323900  0.23741700  0.58782900  1
  Si  Si0  1  0.24208200  0.73822500  0.66753000  1
  Si  Si1  1  0.75791800  0.73822500  0.16753000  1
  Si  Si2  1  0.74260200  0.23578400  0.83254400  1
  Si  Si3  1  0.25739800  0.23578400  0.33254400  1
  O  O0  1  0.27205100  0.41340100  0.67017600  1
  O  O1  1  0.24322900  0.84402400  0.81265100  1
  O  O2  1  0.04064900  0.35904800  0.38668500  1
  O  O3  1  0.02583600  0.80878000  0.59417200  1
  O  O4  1  0.97416400  0.80878000  0.09417200  1
  O  O5  1  0.95935100  0.35904800  0.88668500  1
  O  O6  1  0.75677100  0.84402400  0.31265100  1
  O  O7  1  0.72794900  0.41340100  0.17017600  1
  O  O8  1  0.74449900  0.91215700  0.83281400  1
  O  O9  1  0.70395900  0.34487300  0.68868100  1
  O  O10  1  0.54170700  0.86168400  0.09545100  1
  O  O11  1  0.53021400  0.33187800  0.91729600  1
  O  O12  1  0.46978600  0.33187800  0.41729600  1
  O  O13  1  0.45829300  0.86168400  0.59545100  1
  O  O14  1  0.29604100  0.34487300  0.18868100  1
  O  O15  1  0.25550100  0.91215700  0.33281400  1
loop_
_geom_bond_atom_site_label_1
_geom_bond_atom_site_label_2
_geom_bond_distance
_geom_bond_site_symmetry_2
Li0 O5 1.935657 1_455
Li0 O0 1.961335 1_555
Li0 O1 2.009085 1_545
Li0 O11 2.157114 1_555
Li1 O2 1.935657 1_655
Li1 O7 1.961335 1_555
Li1 O6 2.009085 1_545
Li1 O12 2.157114 1_555
Li2 O3 1.937836 1_655
Li2 O8 1.967358 1_555
Li2 O9 2.043073 1_555
Li2 O13 2.123933 1_555
Li3 O8 1.949879 1_555
Li3 O1 2.004709 1_555
Li3 O11 2.101736 1_555
Li3 O10 2.104268 1_556
Li4 O15 1.949879 1_555
Li4 O6 2.004709 1_555
Li4 O12 2.101736 1_555
Li4 O13 2.104268 1_555
Li5 O4 1.937836 1_455
Li5 O15 1.967358 1_555
Li5 O14 2.043073 1_555
Li5 O10 2.123933 1_555
Co0 O3 1.948418 1_555
Co0 O2 1.969039 1_555
Co0 O15 1.999096 1_555
Co0 O6 2.029173 1_455
Co1 O4 1.948418 1_556
Co1 O5 1.969039 1_555
Co1 O8 1.999096 1_555
Co1 O1 2.029173 1_655
Co2 O7 1.838442 1_555
Co2 O14 1.854645 1_555
Co2 O11 1.902042 1_554
Co2 O10 1.913457 1_545
Co3 O0 1.838442 1_555
Co3 O9 1.854645 1_555
Co3 O12 1.902042 1_555
Co3 O13 1.913457 1_545
O0 Si0 1.658236 1_555
O1 Si0 1.655534 1_555
O2 Si3 1.618832 1_555
O3 Si0 1.622441 1_555
O4 Si1 1.622441 1_555
O5 Si2 1.618832 1_555
O6 Si1 1.655534 1_555
O7 Si1 1.658236 1_555
O8 Si2 1.641086 1_565
O9 Si2 1.664786 1_555
O10 Si1 1.695102 1_555
O11 Si2 1.699148 1_555
O12 Si3 1.699148 1_555
O13 Si0 1.695102 1_555
O14 Si3 1.664786 1_555
O15 Si3 1.641086 1_565
