# generated using pymatgen
data_Li9Mn12Ni3O32
_symmetry_space_group_name_H-M   'P 1'
_cell_length_a   8.29721717
_cell_length_b   8.29721717
_cell_length_c   8.26364727
_cell_angle_alpha   89.80161724
_cell_angle_beta   89.80161724
_cell_angle_gamma   90.11635882
_symmetry_Int_Tables_number   1
_chemical_formula_structural   Li9Mn12Ni3O32
_chemical_formula_sum   'Li9 Mn12 Ni3 O32'
_cell_volume   568.89297791
_cell_formula_units_Z   1
loop_
 _symmetry_equiv_pos_site_id
 _symmetry_equiv_pos_as_xyz
  1  'x, y, z'
loop_
 _atom_site_type_symbol
 _atom_site_label
 _atom_site_symmetry_multiplicity
 _atom_site_fract_x
 _atom_site_fract_y
 _atom_site_fract_z
 _atom_site_occupancy
  Li  Li0  1  0.00743900  0.24816300  0.87207600  1
  Li  Li1  1  0.24547600  0.00091700  0.62968400  1
  Li  Li2  1  0.74521300  0.49728200  0.62229600  1
  Li  Li3  1  0.50271800  0.25478700  0.37770400  1
  Li  Li4  1  0.99908300  0.75452400  0.37031600  1
  Li  Li5  1  0.75183700  0.99256100  0.12792400  1
  Li  Li6  1  0.25232500  0.50404800  0.11951100  1
  Li  Li7  1  0.12583700  0.87416300  0.00000000  1
  Li  Li8  1  0.49595200  0.74767500  0.88048900  1
  Mn  Mn0  1  0.62320200  0.12230100  0.75215400  1
  Mn  Mn1  1  0.87424500  0.86951000  0.75009800  1
  Mn  Mn2  1  0.12182700  0.62667200  0.74842600  1
  Mn  Mn3  1  0.62123900  0.87501400  0.50245900  1
  Mn  Mn4  1  0.37122600  0.62877400  0.50000000  1
  Mn  Mn5  1  0.12498600  0.37876100  0.49754100  1
  Mn  Mn6  1  0.37332800  0.87817300  0.25157400  1
  Mn  Mn7  1  0.13049000  0.12575500  0.24990200  1
  Mn  Mn8  1  0.87769900  0.37679800  0.24784600  1
  Mn  Mn9  1  0.37680100  0.12330600  0.00401000  1
  Mn  Mn10  1  0.62802800  0.37197200  0.00000000  1
  Mn  Mn11  1  0.87669400  0.62319900  0.99599000  1
  Ni  Ni0  1  0.37434400  0.37578900  0.75076400  1
  Ni  Ni1  1  0.87629100  0.12370900  0.50000000  1
  Ni  Ni2  1  0.62421100  0.62565600  0.24923600  1
  O  O0  1  0.39336800  0.12503900  0.77216500  1
  O  O1  1  0.62452500  0.35171400  0.76616900  1
  O  O2  1  0.88441700  0.63625000  0.75890700  1
  O  O3  1  0.09932400  0.85555500  0.74558000  1
  O  O4  1  0.86138100  0.10561900  0.73253200  1
  O  O5  1  0.63571300  0.88730100  0.73903800  1
  O  O6  1  0.35135500  0.62478800  0.73315100  1
  O  O7  1  0.12552400  0.39214700  0.72692900  1
  O  O8  1  0.62900800  0.10879000  0.51989800  1
  O  O9  1  0.85213700  0.87978300  0.51296100  1
  O  O10  1  0.13573300  0.61356500  0.50872800  1
  O  O11  1  0.35700300  0.39791200  0.49979100  1
  O  O12  1  0.60208800  0.64299700  0.50020900  1
  O  O13  1  0.38643500  0.86426700  0.49127200  1
  O  O14  1  0.12021700  0.14786300  0.48703900  1
  O  O15  1  0.89121000  0.37099200  0.48010200  1
  O  O16  1  0.60785300  0.87447600  0.27307100  1
  O  O17  1  0.37521200  0.64864500  0.26684900  1
  O  O18  1  0.11269900  0.36428700  0.26096200  1
  O  O19  1  0.89438100  0.13861900  0.26746800  1
  O  O20  1  0.14444500  0.90067600  0.25442000  1
  O  O21  1  0.36375000  0.11558300  0.24109300  1
  O  O22  1  0.64828600  0.37547500  0.23383100  1
  O  O23  1  0.87496100  0.60663200  0.22783500  1
  O  O24  1  0.37838400  0.89499600  0.02512100  1
  O  O25  1  0.14914400  0.12839000  0.02060500  1
  O  O26  1  0.86452000  0.38282600  0.01216800  1
  O  O27  1  0.64220300  0.60083800  0.00004900  1
  O  O28  1  0.39916200  0.35779700  0.99995100  1
  O  O29  1  0.61717400  0.13548000  0.98783200  1
  O  O30  1  0.87161000  0.85085600  0.97939500  1
  O  O31  1  0.10500400  0.62161600  0.97487900  1
loop_
_geom_bond_atom_site_label_1
_geom_bond_atom_site_label_2
_geom_bond_distance
_geom_bond_site_symmetry_2
Li0 O7 1.950139 1_555
Li0 O25 1.970480 1_556
Li0 O26 1.999912 1_456
Li0 O4 2.051951 1_455
Li1 O3 1.954600 1_545
Li1 O14 1.989943 1_555
Li1 O0 1.991470 1_555
Li1 O13 1.991677 1_545
Li2 O1 1.962645 1_555
Li2 O12 1.973709 1_555
Li2 O15 1.987451 1_555
Li2 O2 1.987616 1_555
Li3 O22 1.962645 1_555
Li3 O11 1.973709 1_555
Li3 O8 1.987451 1_555
Li3 O21 1.987616 1_555
Li4 O20 1.954600 1_655
Li4 O9 1.989943 1_555
Li4 O23 1.991470 1_555
Li4 O10 1.991677 1_655
Li5 O16 1.950139 1_555
Li5 O30 1.970480 1_554
Li5 O29 1.999912 1_564
Li5 O19 2.051951 1_565
Li6 O31 1.970047 1_554
Li6 O28 1.984689 1_554
Li6 O17 1.993791 1_555
Li6 O18 2.007233 1_555
Li7 O31 2.113201 1_554
Li7 O24 2.113201 1_555
Li7 O3 2.120798 1_554
Li7 O20 2.120798 1_555
Li7 O30 2.125304 1_454
Li7 O25 2.125304 1_565
Li8 O24 1.970047 1_556
Li8 O27 1.984689 1_556
Li8 O6 1.993791 1_555
Li8 O5 2.007233 1_555
Mn0 O1 1.907421 1_555
Mn0 O0 1.913756 1_555
Mn0 O8 1.923383 1_555
Mn0 O29 1.951479 1_555
Mn0 O5 1.956178 1_545
Mn0 O4 1.987449 1_555
Mn1 O3 1.871601 1_655
Mn1 O30 1.900653 1_555
Mn1 O2 1.938546 1_555
Mn1 O4 1.967058 1_565
Mn1 O9 1.970382 1_555
Mn1 O5 1.987343 1_555
Mn2 O31 1.876362 1_555
Mn2 O6 1.908285 1_555
Mn2 O3 1.908698 1_555
Mn2 O7 1.954902 1_555
Mn2 O2 1.973220 1_455
Mn2 O10 1.987105 1_555
Mn3 O16 1.899237 1_555
Mn3 O9 1.918410 1_555
Mn3 O12 1.931480 1_555
Mn3 O8 1.946487 1_565
Mn3 O13 1.952602 1_555
Mn3 O5 1.962095 1_555
Mn4 O11 1.918912 1_555
Mn4 O12 1.918912 1_555
Mn4 O6 1.933313 1_555
Mn4 O17 1.933313 1_555
Mn4 O10 1.958814 1_555
Mn4 O13 1.958814 1_555
Mn5 O7 1.899237 1_555
Mn5 O14 1.918410 1_555
Mn5 O11 1.931480 1_555
Mn5 O15 1.946487 1_455
Mn5 O10 1.952602 1_555
Mn5 O18 1.962095 1_555
Mn6 O24 1.876362 1_555
Mn6 O17 1.908285 1_555
Mn6 O20 1.908698 1_555
Mn6 O16 1.954902 1_555
Mn6 O21 1.973220 1_565
Mn6 O13 1.987105 1_555
Mn7 O20 1.871601 1_545
Mn7 O25 1.900653 1_555
Mn7 O21 1.938546 1_555
Mn7 O19 1.967058 1_455
Mn7 O14 1.970382 1_555
Mn7 O18 1.987343 1_555
Mn8 O22 1.907421 1_555
Mn8 O23 1.913756 1_555
Mn8 O15 1.923383 1_555
Mn8 O26 1.951479 1_555
Mn8 O18 1.956178 1_655
Mn8 O19 1.987449 1_555
Mn9 O25 1.893983 1_555
Mn9 O24 1.901828 1_545
Mn9 O0 1.920337 1_554
Mn9 O28 1.954235 1_554
Mn9 O21 1.962604 1_555
Mn9 O29 2.000764 1_554
Mn10 O28 1.902353 1_554
Mn10 O27 1.902353 1_555
Mn10 O22 1.940486 1_555
Mn10 O1 1.940486 1_554
Mn10 O29 1.967044 1_554
Mn10 O26 1.967044 1_555
Mn11 O30 1.893983 1_555
Mn11 O31 1.901828 1_655
Mn11 O23 1.920337 1_556
Mn11 O27 1.954235 1_556
Mn11 O2 1.962604 1_555
Mn11 O26 2.000764 1_556
Ni0 O28 2.075066 1_555
Ni0 O7 2.079231 1_555
Ni0 O6 2.079815 1_555
Ni0 O11 2.086914 1_555
Ni0 O1 2.090076 1_555
Ni0 O0 2.093744 1_555
Ni1 O4 1.930419 1_555
Ni1 O19 1.930419 1_555
Ni1 O14 2.035814 1_655
Ni1 O9 2.035814 1_545
Ni1 O8 2.061207 1_555
Ni1 O15 2.061207 1_555
Ni2 O27 2.075066 1_555
Ni2 O16 2.079231 1_555
Ni2 O17 2.079815 1_555
Ni2 O12 2.086914 1_555
Ni2 O22 2.090076 1_555
Ni2 O23 2.093744 1_555
