# generated using pymatgen
data_Na2FePCO7
_symmetry_space_group_name_H-M   'P 1'
_cell_length_a   5.24545500
_cell_length_b   6.55081638
_cell_length_c   17.90402385
_cell_angle_alpha   90.71157534
_cell_angle_beta   90.46350694
_cell_angle_gamma   90.16565623
_symmetry_Int_Tables_number   1
_chemical_formula_structural   Na2FePCO7
_chemical_formula_sum   'Na8 Fe4 P4 C4 O28'
_cell_volume   615.14796412
_cell_formula_units_Z   4
loop_
 _symmetry_equiv_pos_site_id
 _symmetry_equiv_pos_as_xyz
  1  'x, y, z'
loop_
 _atom_site_type_symbol
 _atom_site_label
 _atom_site_symmetry_multiplicity
 _atom_site_fract_x
 _atom_site_fract_y
 _atom_site_fract_z
 _atom_site_occupancy
  Na  Na0  1  0.76222700  0.71957800  0.95929200  1
  Na  Na1  1  0.25109000  0.98886000  0.86822000  1
  Na  Na2  1  0.74863800  0.01305200  0.63210900  1
  Na  Na3  1  0.23724900  0.25773700  0.54091900  1
  Na  Na4  1  0.76372100  0.75899800  0.45890700  1
  Na  Na5  1  0.25238800  0.51288600  0.36815900  1
  Na  Na6  1  0.75049100  0.01036800  0.13159200  1
  Na  Na7  1  0.23800800  0.28055000  0.04006200  1
  Fe  Fe0  1  0.78372100  0.26321400  0.82718600  1
  Fe  Fe1  1  0.21621200  0.73852200  0.67280800  1
  Fe  Fe2  1  0.78351900  0.23693000  0.32734200  1
  Fe  Fe3  1  0.21575600  0.73323800  0.17275700  1
  P  P0  1  0.71064200  0.75489400  0.78769600  1
  P  P1  1  0.28924200  0.24703300  0.71237000  1
  P  P2  1  0.71060900  0.74659100  0.28771700  1
  P  P3  1  0.28888600  0.24446700  0.21218900  1
  C  C0  1  0.72983800  0.23729900  0.96750900  1
  C  C1  1  0.27040800  0.75254000  0.53254100  1
  C  C2  1  0.72981000  0.25499600  0.46766800  1
  C  C3  1  0.27012400  0.76318700  0.03241200  1
  O  O0  1  0.29908000  0.76963000  0.96240100  1
  O  O1  1  0.95606100  0.24429600  0.93620100  1
  O  O2  1  0.53646800  0.24591500  0.92057100  1
  O  O3  1  0.77351300  0.93929100  0.84035300  1
  O  O4  1  0.76280200  0.56350100  0.83526100  1
  O  O5  1  0.12763800  0.24234200  0.78409100  1
  O  O6  1  0.42382900  0.76579900  0.76467900  1
  O  O7  1  0.57605400  0.23507400  0.73537200  1
  O  O8  1  0.87242300  0.75948200  0.71601600  1
  O  O9  1  0.23774400  0.43788600  0.66454100  1
  O  O10  1  0.22569700  0.06226800  0.65989100  1
  O  O11  1  0.46391900  0.75755900  0.57953400  1
  O  O12  1  0.04416500  0.75777300  0.56387800  1
  O  O13  1  0.70211900  0.23397000  0.53742300  1
  O  O14  1  0.29874300  0.73938800  0.46247800  1
  O  O15  1  0.95572800  0.26438900  0.43633000  1
  O  O16  1  0.53594400  0.26380000  0.42100400  1
  O  O17  1  0.76110400  0.93543300  0.33903000  1
  O  O18  1  0.77585200  0.55947100  0.33675000  1
  O  O19  1  0.12752100  0.25757500  0.28388000  1
  O  O20  1  0.42339800  0.73553100  0.26493900  1
  O  O21  1  0.57585300  0.23495700  0.23512500  1
  O  O22  1  0.87143500  0.75648600  0.21591600  1
  O  O23  1  0.23926500  0.43139000  0.16154000  1
  O  O24  1  0.22291900  0.05525200  0.16270300  1
  O  O25  1  0.46332300  0.75604900  0.07945400  1
  O  O26  1  0.04375400  0.75593600  0.06365700  1
  O  O27  1  0.70106300  0.22954600  0.03752800  1
loop_
_geom_bond_atom_site_label_1
_geom_bond_atom_site_label_2
_geom_bond_distance
_geom_bond_site_symmetry_2
Na0 O26 2.381436 1_656
Na0 O4 2.433190 1_555
Na0 O0 2.453367 1_555
Na0 O3 2.586015 1_555
Na0 O25 2.681003 1_556
Na0 O0 2.834140 1_655
Na1 O0 2.241553 1_555
Na1 O5 2.344778 1_565
Na1 O2 2.424551 1_565
Na1 O6 2.521970 1_555
Na1 O3 2.569240 1_455
Na1 O1 2.582867 1_465
Na1 O3 2.808401 1_555
Na2 O13 2.254796 1_555
Na2 O8 2.343093 1_545
Na2 O11 2.416907 1_545
Na2 O7 2.514148 1_555
Na2 O10 2.566035 1_655
Na2 O12 2.585884 1_645
Na2 O10 2.810510 1_555
Na3 O15 2.376282 1_455
Na3 O13 2.445126 1_555
Na3 O9 2.495304 1_555
Na3 O10 2.499984 1_555
Na3 O16 2.668714 1_555
Na3 O13 2.811014 1_455
Na4 O12 2.377381 1_655
Na4 O14 2.443426 1_555
Na4 O17 2.450265 1_555
Na4 O18 2.535273 1_555
Na4 O11 2.681952 1_555
Na4 O14 2.809990 1_655
Na5 O14 2.245309 1_555
Na5 O19 2.327685 1_555
Na5 O16 2.408233 1_555
Na5 O20 2.536415 1_555
Na5 O15 2.574210 1_455
Na5 O18 2.577506 1_455
Na5 O18 2.823689 1_555
Na6 O27 2.240569 1_555
Na6 O22 2.345372 1_545
Na6 O25 2.416622 1_545
Na6 O21 2.531261 1_555
Na6 O24 2.550898 1_655
Na6 O26 2.572650 1_645
Na6 O24 2.842630 1_555
Na7 O1 2.375715 1_454
Na7 O23 2.377640 1_555
Na7 O27 2.453470 1_555
Na7 O24 2.662429 1_555
Na7 O2 2.668996 1_554
Na7 O27 2.835242 1_455
Fe0 O7 1.971072 1_555
Fe0 O5 1.972249 1_655
Fe0 O4 1.974073 1_555
Fe0 O2 2.128226 1_555
Fe0 O3 2.138487 1_545
Fe0 O1 2.149474 1_555
Fe1 O6 1.971321 1_555
Fe1 O8 1.972478 1_455
Fe1 O9 1.976755 1_555
Fe1 O11 2.128850 1_555
Fe1 O10 2.136706 1_565
Fe1 O12 2.147615 1_555
Fe2 O21 1.970538 1_555
Fe2 O19 1.975791 1_655
Fe2 O17 1.991925 1_545
Fe2 O18 2.118048 1_555
Fe2 O16 2.135127 1_555
Fe2 O15 2.148912 1_555
Fe3 O20 1.969937 1_555
Fe3 O22 1.975755 1_455
Fe3 O23 1.989322 1_555
Fe3 O24 2.119598 1_565
Fe3 O25 2.130596 1_555
Fe3 O26 2.151998 1_555
C0 O27 1.265515 1_556
C0 O2 1.313763 1_555
C0 O1 1.317388 1_555
C1 O14 1.266279 1_555
C1 O11 1.313244 1_555
C1 O12 1.317141 1_555
C2 O13 1.267636 1_555
C2 O16 1.312726 1_555
C2 O15 1.316857 1_555
C3 O0 1.265076 1_554
C3 O25 1.313778 1_555
C3 O26 1.317661 1_555
O3 P0 1.555990 1_555
O4 P0 1.548157 1_555
O5 P1 1.544945 1_555
O6 P0 1.558738 1_555
O7 P1 1.559037 1_555
O8 P0 1.544829 1_555
O9 P1 1.547315 1_555
O10 P1 1.556680 1_555
O17 P2 1.552566 1_555
O18 P2 1.553917 1_555
O19 P3 1.544863 1_555
O20 P2 1.558833 1_555
O21 P3 1.558696 1_555
O22 P2 1.545235 1_555
O23 P3 1.554050 1_555
O24 P3 1.551258 1_555
