# generated using pymatgen
data_Li5Fe8(BO3)8
_symmetry_space_group_name_H-M   'P 1'
_cell_length_a   5.25786400
_cell_length_b   9.10153834
_cell_length_c   11.34474937
_cell_angle_alpha   112.94737659
_cell_angle_beta   102.93215335
_cell_angle_gamma   89.60495573
_symmetry_Int_Tables_number   1
_chemical_formula_structural   Li5Fe8(BO3)8
_chemical_formula_sum   'Li5 Fe8 B8 O24'
_cell_volume   485.29822214
_cell_formula_units_Z   1
loop_
 _symmetry_equiv_pos_site_id
 _symmetry_equiv_pos_as_xyz
  1  'x, y, z'
loop_
 _atom_site_type_symbol
 _atom_site_label
 _atom_site_symmetry_multiplicity
 _atom_site_fract_x
 _atom_site_fract_y
 _atom_site_fract_z
 _atom_site_occupancy
  Li  Li0  1  0.02521600  0.03436000  0.40213600  1
  Li  Li1  1  0.26565700  0.24331900  0.15943500  1
  Li  Li2  1  0.52854900  0.53882800  0.41798800  1
  Li  Li3  1  0.98403400  0.00837400  0.66494300  1
  Li  Li4  1  0.75491100  0.73781100  0.14840200  1
  Fe  Fe0  1  0.02776400  0.34927800  0.38377000  1
  Fe  Fe1  1  0.27173000  0.92911700  0.87614300  1
  Fe  Fe2  1  0.46458400  0.16531800  0.63121400  1
  Fe  Fe3  1  0.23985600  0.56674100  0.13096400  1
  Fe  Fe4  1  0.76773900  0.43460900  0.87083600  1
  Fe  Fe5  1  0.53089200  0.85757800  0.38726200  1
  Fe  Fe6  1  0.97641500  0.65097700  0.63367900  1
  Fe  Fe7  1  0.74411800  0.05748400  0.12603000  1
  B  B0  1  0.01759400  0.68237100  0.37182600  1
  B  B1  1  0.27580200  0.60750400  0.88687200  1
  B  B2  1  0.48428500  0.82227600  0.62911100  1
  B  B3  1  0.23150900  0.89140600  0.12752900  1
  B  B4  1  0.51832600  0.18434600  0.37220200  1
  B  B5  1  0.76371700  0.10340100  0.87717700  1
  B  B6  1  0.97325400  0.31158000  0.62509200  1
  B  B7  1  0.74048500  0.39858600  0.13005200  1
  O  O0  1  0.01250200  0.07313700  0.85899500  1
  O  O1  1  0.14194000  0.71503600  0.84313100  1
  O  O2  1  0.13824400  0.51562100  0.93262200  1
  O  O3  1  0.07799300  0.16553500  0.60607400  1
  O  O4  1  0.07186500  0.42003600  0.58747100  1
  O  O5  1  0.25065800  0.85224500  0.67527100  1
  O  O6  1  0.25909500  0.65345700  0.33117500  1
  O  O7  1  0.53610700  0.59434400  0.89447400  1
  O  O8  1  0.63878500  0.22519500  0.84935800  1
  O  O9  1  0.40427400  0.08218700  0.41477800  1
  O  O10  1  0.39043900  0.31164600  0.35631800  1
  O  O11  1  0.63388700  0.01011900  0.92176300  1
  O  O12  1  0.33495800  0.99820100  0.08467400  1
  O  O13  1  0.59528900  0.68221800  0.60947000  1
  O  O14  1  0.59108900  0.93845600  0.59651000  1
  O  O15  1  0.39348000  0.78045500  0.16025500  1
  O  O16  1  0.48025200  0.40878000  0.13549100  1
  O  O17  1  0.75462300  0.34416900  0.68095300  1
  O  O18  1  0.76030800  0.15643500  0.34015300  1
  O  O19  1  0.91369600  0.57954200  0.41419500  1
  O  O20  1  0.89460900  0.81366100  0.36354600  1
  O  O21  1  0.85848000  0.50970200  0.09437100  1
  O  O22  1  0.88956400  0.28741100  0.16095400  1
  O  O23  1  0.98104300  0.89295600  0.14129500  1
loop_
_geom_bond_atom_site_label_1
_geom_bond_atom_site_label_2
_geom_bond_distance
_geom_bond_site_symmetry_2
Li0 O18 1.954091 1_455
Li0 O20 1.974043 1_445
Li0 O9 2.004392 1_555
Li0 O3 2.102035 1_555
Li1 O22 2.017561 1_455
Li1 O10 2.018091 1_555
Li1 O16 2.023452 1_555
Li1 O12 2.116818 1_545
Li2 O10 1.989339 1_555
Li2 O13 1.999937 1_555
Li2 O6 2.054737 1_555
Li2 O19 2.074073 1_555
Li3 O3 1.907483 1_655
Li3 O5 2.006763 1_645
Li3 O0 2.014494 1_655
Li3 O14 2.047243 1_545
Li4 O23 1.889153 1_555
Li4 O15 1.960506 1_555
Li4 O21 2.030789 1_555
Li4 O20 2.205457 1_555
Fe0 O10 2.006038 1_555
Fe0 O18 2.085269 1_455
Fe0 O19 2.093393 1_455
Fe0 O4 2.100156 1_555
Fe0 O22 2.303998 1_455
Fe1 O0 1.915544 1_565
Fe1 O11 1.928207 1_565
Fe1 O1 1.933235 1_555
Fe1 O5 2.083196 1_555
Fe1 O12 2.143247 1_556
Fe2 O3 1.988438 1_555
Fe2 O17 2.055871 1_555
Fe2 O14 2.079705 1_545
Fe2 O9 2.215448 1_555
Fe2 O8 2.280600 1_555
Fe3 O16 1.915898 1_555
Fe3 O21 1.984055 1_455
Fe3 O15 1.985921 1_555
Fe3 O2 2.052810 1_554
Fe3 O6 2.071847 1_555
Fe4 O7 1.867233 1_555
Fe4 O8 1.932257 1_555
Fe4 O2 1.958457 1_655
Fe4 O17 1.968348 1_555
Fe4 O21 2.288496 1_556
Fe5 O20 2.006299 1_555
Fe5 O9 2.072778 1_565
Fe5 O14 2.140466 1_555
Fe5 O6 2.146258 1_555
Fe5 O15 2.326292 1_555
Fe6 O13 1.994650 1_555
Fe6 O4 2.046641 1_655
Fe6 O5 2.171490 1_655
Fe6 O1 2.178228 1_655
Fe6 O19 2.259329 1_555
Fe7 O23 1.975885 1_545
Fe7 O22 2.088316 1_555
Fe7 O12 2.122785 1_545
Fe7 O11 2.124899 1_554
Fe7 O18 2.218511 1_555
B0 O19 1.371400 1_455
B0 O20 1.380048 1_455
B0 O6 1.434273 1_555
B1 O7 1.359391 1_555
B1 O1 1.382883 1_555
B1 O2 1.416569 1_555
B2 O13 1.357101 1_555
B2 O14 1.405837 1_555
B2 O5 1.424595 1_555
B3 O23 1.359756 1_455
B3 O12 1.403976 1_555
B3 O15 1.421905 1_555
B4 O10 1.387390 1_555
B4 O9 1.394625 1_555
B4 O18 1.395017 1_555
B5 O0 1.378761 1_655
B5 O8 1.389193 1_555
B5 O11 1.392859 1_555
B6 O4 1.363821 1_655
B6 O3 1.391455 1_655
B6 O17 1.409187 1_555
B7 O22 1.379801 1_555
B7 O16 1.384252 1_555
B7 O21 1.418384 1_555
