# generated using pymatgen
data_Li2Fe3BiO8
_symmetry_space_group_name_H-M   'P 1'
_cell_length_a   6.08439258
_cell_length_b   8.72206586
_cell_length_c   6.26786128
_cell_angle_alpha   87.56542564
_cell_angle_beta   90.00004360
_cell_angle_gamma   89.99792452
_symmetry_Int_Tables_number   1
_chemical_formula_structural   Li2Fe3BiO8
_chemical_formula_sum   'Li4 Fe6 Bi2 O16'
_cell_volume   332.32559075
_cell_formula_units_Z   2
loop_
 _symmetry_equiv_pos_site_id
 _symmetry_equiv_pos_as_xyz
  1  'x, y, z'
loop_
 _atom_site_type_symbol
 _atom_site_label
 _atom_site_symmetry_multiplicity
 _atom_site_fract_x
 _atom_site_fract_y
 _atom_site_fract_z
 _atom_site_occupancy
  Li  Li0  1  0.49985800  0.36953800  0.23912100  1
  Li  Li1  1  0.99987700  0.86969200  0.73911700  1
  Li  Li2  1  0.49985500  0.63046300  0.76088800  1
  Li  Li3  1  0.99987500  0.13030100  0.26089500  1
  Fe  Fe0  1  0.74973400  0.74964600  0.24983200  1
  Fe  Fe1  1  0.99907900  0.50000100  0.49999400  1
  Fe  Fe2  1  0.74972800  0.25038400  0.75018000  1
  Fe  Fe3  1  0.24972000  0.24960900  0.74976200  1
  Fe  Fe4  1  0.49918900  0.99999500  0.00000600  1
  Fe  Fe5  1  0.24973100  0.75037500  0.25024400  1
  Bi  Bi0  1  0.00041900  0.50000000  0.99999700  1
  Bi  Bi1  1  0.50043700  0.99998900  0.49999400  1
  O  O0  1  0.50073500  0.76761400  0.03561900  1
  O  O1  1  0.00066800  0.26741300  0.53562900  1
  O  O2  1  0.50073100  0.23237800  0.96437200  1
  O  O3  1  0.00067000  0.73257800  0.46437000  1
  O  O4  1  0.00005300  0.74437800  0.02198500  1
  O  O5  1  0.50006300  0.24420500  0.52198900  1
  O  O6  1  0.23366400  0.51134500  0.25559000  1
  O  O7  1  0.73357000  0.01098400  0.75560700  1
  O  O8  1  0.76617300  0.51102100  0.25564400  1
  O  O9  1  0.26631800  0.01080700  0.75567700  1
  O  O10  1  0.23366500  0.48864800  0.74441300  1
  O  O11  1  0.73356700  0.98901400  0.24440000  1
  O  O12  1  0.76617500  0.48902000  0.74431400  1
  O  O13  1  0.26632400  0.98918900  0.24432900  1
  O  O14  1  0.00005300  0.25561700  0.97801400  1
  O  O15  1  0.50006500  0.75579500  0.47801700  1
loop_
_geom_bond_atom_site_label_1
_geom_bond_atom_site_label_2
_geom_bond_distance
_geom_bond_site_symmetry_2
Li0 O8 2.042089 1_555
Li0 O5 2.042987 1_555
Li0 O6 2.043123 1_555
Li0 O2 2.138182 1_554
Li1 O9 2.040770 1_665
Li1 O7 2.040953 1_565
Li1 O4 2.042904 1_656
Li1 O3 2.137932 1_655
Li2 O12 2.041855 1_555
Li2 O15 2.042998 1_555
Li2 O10 2.043220 1_555
Li2 O0 2.138042 1_556
Li3 O13 2.040725 1_645
Li3 O11 2.041005 1_545
Li3 O14 2.042982 1_654
Li3 O1 2.137854 1_655
Fe0 O0 2.025991 1_555
Fe0 O3 2.035789 1_655
Fe0 O8 2.082474 1_555
Fe0 O15 2.088677 1_555
Fe0 O11 2.088928 1_555
Fe0 O4 2.089699 1_655
Fe1 O3 2.031377 1_655
Fe1 O1 2.031477 1_655
Fe1 O12 2.085645 1_555
Fe1 O8 2.085790 1_555
Fe1 O6 2.093041 1_655
Fe1 O10 2.093109 1_655
Fe2 O2 2.025922 1_555
Fe2 O1 2.035855 1_655
Fe2 O12 2.082571 1_555
Fe2 O5 2.088700 1_555
Fe2 O7 2.089212 1_555
Fe2 O14 2.089655 1_655
Fe3 O1 2.025832 1_555
Fe3 O2 2.036492 1_555
Fe3 O9 2.084046 1_555
Fe3 O10 2.086044 1_555
Fe3 O14 2.088889 1_555
Fe3 O5 2.089548 1_555
Fe4 O0 2.029671 1_555
Fe4 O2 2.029698 1_564
Fe4 O13 2.085476 1_555
Fe4 O9 2.085522 1_564
Fe4 O11 2.092081 1_555
Fe4 O7 2.092124 1_564
Fe5 O3 2.025851 1_555
Fe5 O0 2.036535 1_555
Fe5 O13 2.084156 1_555
Fe5 O6 2.085976 1_555
Fe5 O4 2.088964 1_555
Fe5 O15 2.089517 1_555
Bi0 O4 2.141767 1_556
Bi0 O14 2.141807 1_555
Bi0 O10 2.145596 1_555
Bi0 O6 2.145632 1_556
Bi0 O8 2.149697 1_456
Bi0 O12 2.149834 1_455
Bi1 O15 2.140158 1_555
Bi1 O5 2.140362 1_565
Bi1 O11 2.144922 1_555
Bi1 O7 2.145040 1_565
Bi1 O13 2.149102 1_555
Bi1 O9 2.149219 1_565
