# generated using pymatgen
data_Zn4P3H10C2NO13
_symmetry_space_group_name_H-M   'P 1'
_cell_length_a   15.41400000
_cell_length_b   5.34898800
_cell_length_c   18.26664513
_cell_angle_alpha   75.36008470
_cell_angle_beta   90.00000000
_cell_angle_gamma   90.00000000
_symmetry_Int_Tables_number   1
_chemical_formula_structural   Zn4P3H10C2NO13
_chemical_formula_sum   'Zn16 P12 H40 C8 N4 O52'
_cell_volume   1457.17497733
_cell_formula_units_Z   4
loop_
 _symmetry_equiv_pos_site_id
 _symmetry_equiv_pos_as_xyz
  1  'x, y, z'
loop_
 _atom_site_type_symbol
 _atom_site_label
 _atom_site_symmetry_multiplicity
 _atom_site_fract_x
 _atom_site_fract_y
 _atom_site_fract_z
 _atom_site_occupancy
  Zn  Zn0  1  0.90299200  0.74209200  0.95877500  1
  Zn  Zn1  1  0.59700800  0.74209200  0.45877500  1
  Zn  Zn2  1  0.09700800  0.25790800  0.04122500  1
  Zn  Zn3  1  0.40299200  0.25790800  0.54122500  1
  Zn  Zn4  1  0.75740900  0.93374900  0.68228100  1
  Zn  Zn5  1  0.74259100  0.93374900  0.18228100  1
  Zn  Zn6  1  0.24259100  0.06625100  0.31771900  1
  Zn  Zn7  1  0.25740900  0.06625100  0.81771900  1
  Zn  Zn8  1  0.59901300  0.79989800  0.99012600  1
  Zn  Zn9  1  0.90098700  0.79989800  0.49012600  1
  Zn  Zn10  1  0.40098700  0.20010200  0.00987400  1
  Zn  Zn11  1  0.09901300  0.20010200  0.50987400  1
  Zn  Zn12  1  0.72983200  0.34214300  0.94912300  1
  Zn  Zn13  1  0.77016800  0.34214300  0.44912300  1
  Zn  Zn14  1  0.27016800  0.65785700  0.05087700  1
  Zn  Zn15  1  0.22983200  0.65785700  0.55087700  1
  P  P0  1  0.74101400  0.91885700  0.85803500  1
  P  P1  1  0.75898600  0.91885700  0.35803500  1
  P  P2  1  0.25898600  0.08114300  0.14196500  1
  P  P3  1  0.24101400  0.08114300  0.64196500  1
  P  P4  1  0.11373100  0.83375400  0.94235400  1
  P  P5  1  0.38626900  0.83375400  0.44235400  1
  P  P6  1  0.88626900  0.16624600  0.05764600  1
  P  P7  1  0.61373100  0.16624600  0.55764600  1
  P  P8  1  0.91079900  0.19476500  0.58373700  1
  P  P9  1  0.58920100  0.19476500  0.08373700  1
  P  P10  1  0.08920100  0.80523500  0.41626300  1
  P  P11  1  0.41079900  0.80523500  0.91626300  1
  H  H0  1  0.52949200  0.18759300  0.69100700  1
  H  H1  1  0.97050800  0.18759300  0.19100700  1
  H  H2  1  0.47050800  0.81240700  0.30899300  1
  H  H3  1  0.02949200  0.81240700  0.80899300  1
  H  H4  1  0.58917500  0.09216600  0.76954200  1
  H  H5  1  0.91082500  0.09216600  0.26954200  1
  H  H6  1  0.41082500  0.90783400  0.23045800  1
  H  H7  1  0.08917500  0.90783400  0.73045800  1
  H  H8  1  0.47899800  0.08426800  0.77646800  1
  H  H9  1  0.02100200  0.08426800  0.27646800  1
  H  H10  1  0.52100200  0.91573200  0.22353200  1
  H  H11  1  0.97899800  0.91573200  0.72353200  1
  H  H12  1  0.72189800  0.47752100  0.64026600  1
  H  H13  1  0.77810200  0.47752100  0.14026600  1
  H  H14  1  0.27810200  0.52247900  0.35973400  1
  H  H15  1  0.22189800  0.52247900  0.85973400  1
  H  H16  1  0.76602600  0.43934700  0.72010900  1
  H  H17  1  0.73397400  0.43934700  0.22010900  1
  H  H18  1  0.23397400  0.56065300  0.27989100  1
  H  H19  1  0.26602600  0.56065300  0.77989100  1
  H  H20  1  0.58957300  0.55042900  0.74163900  1
  H  H21  1  0.91042700  0.55042900  0.24163900  1
  H  H22  1  0.41042700  0.44957100  0.25836100  1
  H  H23  1  0.08957300  0.44957100  0.75836100  1
  H  H24  1  0.51694300  0.44350900  0.81747900  1
  H  H25  1  0.98305700  0.44350900  0.31747900  1
  H  H26  1  0.48305700  0.55649100  0.18252100  1
  H  H27  1  0.01694300  0.55649100  0.68252100  1
  H  H28  1  0.42679300  0.76186900  0.72708800  1
  H  H29  1  0.07320700  0.76186900  0.22708800  1
  H  H30  1  0.57320700  0.23813100  0.27291200  1
  H  H31  1  0.92679300  0.23813100  0.77291200  1
  H  H32  1  0.47263900  0.66844700  0.64887900  1
  H  H33  1  0.02736100  0.66844700  0.14887900  1
  H  H34  1  0.52736100  0.33155300  0.35112100  1
  H  H35  1  0.97263900  0.33155300  0.85112100  1
  H  H36  1  0.39848500  0.46518800  0.70877000  1
  H  H37  1  0.10151500  0.46518800  0.20877000  1
  H  H38  1  0.60151500  0.53481200  0.29123000  1
  H  H39  1  0.89848500  0.53481200  0.79123000  1
  C  C0  1  0.52663300  0.45791400  0.75715900  1
  C  C1  1  0.97336700  0.45791400  0.25715900  1
  C  C2  1  0.47336700  0.54208600  0.24284100  1
  C  C3  1  0.02663300  0.54208600  0.74284100  1
  C  C4  1  0.45288000  0.59814500  0.70814200  1
  C  C5  1  0.04712000  0.59814500  0.20814200  1
  C  C6  1  0.54712000  0.40185500  0.29185800  1
  C  C7  1  0.95288000  0.40185500  0.79185800  1
  N  N0  1  0.53188500  0.18577100  0.74800000  1
  N  N1  1  0.96811500  0.18577100  0.24800000  1
  N  N2  1  0.46811500  0.81422900  0.25200000  1
  N  N3  1  0.03188500  0.81422900  0.75200000  1
  O  O0  1  0.83908100  0.86810300  0.86402000  1
  O  O1  1  0.66091900  0.86810300  0.36402000  1
  O  O2  1  0.16091900  0.13189700  0.13598000  1
  O  O3  1  0.33908100  0.13189700  0.63598000  1
  O  O4  1  0.02232000  0.75536700  0.92205100  1
  O  O5  1  0.47768000  0.75536700  0.42205100  1
  O  O6  1  0.97768000  0.24463300  0.07794900  1
  O  O7  1  0.52232000  0.24463300  0.57794900  1
  O  O8  1  0.11796000  0.10464700  0.95682300  1
  O  O9  1  0.38204000  0.10464700  0.45682300  1
  O  O10  1  0.88204000  0.89535300  0.04317700  1
  O  O11  1  0.61796000  0.89535300  0.54317700  1
  O  O12  1  0.14793000  0.62475500  0.01440900  1
  O  O13  1  0.35207000  0.62475500  0.51440900  1
  O  O14  1  0.85207000  0.37524500  0.98559100  1
  O  O15  1  0.64793000  0.37524500  0.48559100  1
  O  O16  1  0.70447700  0.88777200  0.78206100  1
  O  O17  1  0.79552300  0.88777200  0.28206100  1
  O  O18  1  0.29552300  0.11222800  0.21793900  1
  O  O19  1  0.20447700  0.11222800  0.71793900  1
  O  O20  1  0.87661700  0.05399500  0.66380000  1
  O  O21  1  0.62338300  0.05399500  0.16380000  1
  O  O22  1  0.12338300  0.94600500  0.33620000  1
  O  O23  1  0.37661700  0.94600500  0.83620000  1
  O  O24  1  0.17382600  0.81860300  0.87535300  1
  O  O25  1  0.32617400  0.81860300  0.37535300  1
  O  O26  1  0.82617400  0.18139700  0.12464700  1
  O  O27  1  0.67382600  0.18139700  0.62464700  1
  O  O28  1  0.00351100  0.09374900  0.57884300  1
  O  O29  1  0.49648900  0.09374900  0.07884300  1
  O  O30  1  0.99648900  0.90625100  0.42115700  1
  O  O31  1  0.50351100  0.90625100  0.92115700  1
  O  O32  1  0.85280600  0.10867200  0.52169200  1
  O  O33  1  0.64719400  0.10867200  0.02169200  1
  O  O34  1  0.14719400  0.89132800  0.47830800  1
  O  O35  1  0.35280600  0.89132800  0.97830800  1
  O  O36  1  0.90467700  0.48780300  0.57074500  1
  O  O37  1  0.59532300  0.48780300  0.07074500  1
  O  O38  1  0.09532300  0.51219700  0.42925500  1
  O  O39  1  0.40467700  0.51219700  0.92925500  1
  O  O40  1  0.69475400  0.71238400  0.92502700  1
  O  O41  1  0.80524600  0.71238400  0.42502700  1
  O  O42  1  0.30524600  0.28761600  0.07497300  1
  O  O43  1  0.19475400  0.28761600  0.57497300  1
  O  O44  1  0.71611000  0.19256700  0.86421900  1
  O  O45  1  0.78389000  0.19256700  0.36421900  1
  O  O46  1  0.28389000  0.80743300  0.13578100  1
  O  O47  1  0.21611000  0.80743300  0.63578100  1
  O  O48  1  0.75566300  0.56661200  0.67215100  1
  O  O49  1  0.74433700  0.56661200  0.17215100  1
  O  O50  1  0.24433700  0.43338800  0.32784900  1
  O  O51  1  0.25566300  0.43338800  0.82784900  1
loop_
_geom_bond_atom_site_label_1
_geom_bond_atom_site_label_2
_geom_bond_distance
_geom_bond_site_symmetry_2
H0 N0 1.039305 1_555
H1 N1 1.039305 1_555
H2 N2 1.039305 1_555
H3 N3 1.039305 1_555
H4 N0 1.041994 1_555
H5 N1 1.041994 1_555
H6 N2 1.041994 1_555
H7 N3 1.041994 1_555
H8 N0 1.042608 1_555
H9 N1 1.042608 1_455
H10 N2 1.042608 1_555
H11 N3 1.042608 1_655
H12 O48 0.988684 1_555
H13 O49 0.988684 1_555
H14 O50 0.988684 1_555
H15 O51 0.988684 1_555
H16 O48 0.977193 1_555
H17 O49 0.977193 1_555
H18 O50 0.977193 1_555
H19 O51 0.977193 1_555
C0 H20 1.093411 1_555
C0 H24 1.095167 1_555
C0 N0 1.508869 1_555
C1 H21 1.093411 1_555
C1 H25 1.095167 1_555
C1 N1 1.508869 1_555
C2 H22 1.093411 1_555
C2 H26 1.095167 1_555
C2 N2 1.508869 1_555
C3 H23 1.093411 1_555
C3 H27 1.095167 1_555
C3 N3 1.508869 1_555
C4 H32 1.095573 1_555
C4 H28 1.096182 1_555
C4 H36 1.097625 1_555
C5 H33 1.095573 1_555
C5 H29 1.096182 1_555
C5 H37 1.097625 1_555
C6 H34 1.095573 1_555
C6 H30 1.096182 1_555
C6 H38 1.097625 1_555
C7 H35 1.095573 1_555
C7 H31 1.096182 1_555
C7 H39 1.097625 1_555
O0 P0 1.534797 1_555
O0 Zn0 1.957274 1_555
O1 P1 1.534797 1_555
O1 Zn1 1.957274 1_555
O2 P2 1.534797 1_555
O2 Zn2 1.957274 1_555
O3 P3 1.534797 1_555
O3 Zn3 1.957274 1_555
O4 P4 1.541836 1_555
O4 Zn0 1.952965 1_455
O5 P5 1.541836 1_555
O5 Zn1 1.952965 1_555
O6 P6 1.541836 1_555
O6 Zn2 1.952965 1_655
O7 P7 1.541836 1_555
O7 Zn3 1.952965 1_555
O8 P4 1.538604 1_545
O8 Zn2 1.947360 1_556
O9 P5 1.538604 1_545
O9 Zn3 1.947360 1_555
O10 P6 1.538604 1_565
O10 Zn0 1.947360 1_554
O11 P7 1.538604 1_565
O11 Zn1 1.947360 1_555
O12 P4 1.586272 1_554
O12 Zn14 2.021101 1_555
O12 Zn2 2.054416 1_555
O13 P5 1.586272 1_555
O13 Zn15 2.021101 1_555
O13 Zn3 2.054416 1_555
O14 P6 1.586272 1_556
O14 Zn12 2.021101 1_555
O14 Zn0 2.054416 1_555
O15 P7 1.586272 1_555
O15 Zn13 2.021101 1_555
O15 Zn1 2.054416 1_555
O16 P0 1.545129 1_555
O16 Zn4 1.954897 1_555
O17 P1 1.545129 1_555
O17 Zn5 1.954897 1_555
O18 P2 1.545129 1_555
O18 Zn6 1.954897 1_555
O19 P3 1.545129 1_555
O19 Zn7 1.954897 1_555
O20 P8 1.557814 1_555
O20 Zn4 1.947873 1_545
O21 P9 1.557814 1_555
O21 Zn5 1.947873 1_545
O22 P10 1.557814 1_555
O22 Zn6 1.947873 1_565
O23 P11 1.557814 1_555
O23 Zn7 1.947873 1_565
O24 P4 1.553266 1_555
O24 Zn7 1.953966 1_565
O25 P5 1.553266 1_555
O25 Zn6 1.953966 1_565
O26 P6 1.553266 1_555
O26 Zn5 1.953966 1_545
O27 P7 1.553266 1_555
O27 Zn4 1.953966 1_545
O28 P8 1.538372 1_455
O28 Zn11 1.927565 1_555
O29 P9 1.538372 1_555
O29 Zn10 1.927565 1_555
O30 P10 1.538372 1_655
O30 Zn9 1.927565 1_555
O31 P11 1.538372 1_555
O31 Zn8 1.927565 1_555
O32 P8 1.599828 1_555
O32 Zn9 2.023188 1_545
O32 Zn13 2.025462 1_555
O33 P9 1.599828 1_555
O33 Zn8 2.023188 1_544
O33 Zn12 2.025462 1_554
O34 P10 1.599828 1_555
O34 Zn11 2.023188 1_565
O34 Zn15 2.025462 1_555
O35 P11 1.599828 1_555
O35 Zn10 2.023188 1_566
O35 Zn14 2.025462 1_556
O36 P8 1.527780 1_555
O36 Zn9 1.927713 1_555
O37 P9 1.527780 1_555
O37 Zn8 1.927713 1_554
O38 P10 1.527780 1_555
O38 Zn11 1.927713 1_555
O39 P11 1.527780 1_555
O39 Zn10 1.927713 1_556
O40 P0 1.594526 1_555
O40 Zn12 1.991858 1_555
O40 Zn8 2.022969 1_555
O41 P1 1.594526 1_555
O41 Zn13 1.991858 1_555
O41 Zn9 2.022969 1_555
O42 P2 1.594526 1_555
O42 Zn14 1.991858 1_555
O42 Zn10 2.022969 1_555
O43 P3 1.594526 1_555
O43 Zn15 1.991858 1_555
O43 Zn11 2.022969 1_555
O44 P0 1.545063 1_545
O44 Zn12 1.928063 1_555
O45 P1 1.545063 1_545
O45 Zn13 1.928063 1_555
O46 P2 1.545063 1_565
O46 Zn14 1.928063 1_555
O47 P3 1.545063 1_565
O47 Zn15 1.928063 1_555
O48 Zn4 2.018714 1_555
O49 Zn5 2.018714 1_555
O50 Zn6 2.018714 1_555
O51 Zn7 2.018714 1_555
