# generated using pymatgen
data_Tm4(B2O5)3
_symmetry_space_group_name_H-M   'P 1'
_cell_length_a   6.21190611
_cell_length_b   6.21190611
_cell_length_c   18.77793937
_cell_angle_alpha   84.07908676
_cell_angle_beta   84.07908676
_cell_angle_gamma   41.30739766
_symmetry_Int_Tables_number   1
_chemical_formula_structural   Tm4(B2O5)3
_chemical_formula_sum   'Tm8 B12 O30'
_cell_volume   475.39146819
_cell_formula_units_Z   2
loop_
 _symmetry_equiv_pos_site_id
 _symmetry_equiv_pos_as_xyz
  1  'x, y, z'
loop_
 _atom_site_type_symbol
 _atom_site_label
 _atom_site_symmetry_multiplicity
 _atom_site_fract_x
 _atom_site_fract_y
 _atom_site_fract_z
 _atom_site_occupancy
  Tm  Tm0  1  0.65536100  0.07025200  0.30228400  1
  Tm  Tm1  1  0.66815800  0.06460600  0.09933600  1
  Tm  Tm2  1  0.07025200  0.65536100  0.80228400  1
  Tm  Tm3  1  0.06460600  0.66815800  0.59933600  1
  Tm  Tm4  1  0.93539400  0.33184200  0.40066400  1
  Tm  Tm5  1  0.92974800  0.34463900  0.19771600  1
  Tm  Tm6  1  0.33184200  0.93539400  0.90066400  1
  Tm  Tm7  1  0.34463900  0.92974800  0.69771600  1
  B  B0  1  0.19739000  0.60868200  0.41284500  1
  B  B1  1  0.20433300  0.65924400  0.19419000  1
  B  B2  1  0.64113400  0.02110500  0.47445600  1
  B  B3  1  0.60868200  0.19739000  0.91284500  1
  B  B4  1  0.65924400  0.20433300  0.69419000  1
  B  B5  1  0.02110500  0.64113400  0.97445600  1
  B  B6  1  0.97889500  0.35886600  0.02554400  1
  B  B7  1  0.34075600  0.79566700  0.30581000  1
  B  B8  1  0.39131800  0.80261000  0.08715500  1
  B  B9  1  0.35886600  0.97889500  0.52554400  1
  B  B10  1  0.79566700  0.34075600  0.80581000  1
  B  B11  1  0.80261000  0.39131800  0.58715500  1
  O  O0  1  0.15908100  0.81176500  0.12127600  1
  O  O1  1  0.54416600  0.28754200  0.42920600  1
  O  O2  1  0.53459200  0.33452700  0.19668500  1
  O  O3  1  0.99523800  0.75065100  0.48002200  1
  O  O4  1  0.81176500  0.15908100  0.62127600  1
  O  O5  1  0.28754200  0.54416600  0.92920600  1
  O  O6  1  0.07444200  0.56230400  0.36139500  1
  O  O7  1  0.33452700  0.53459200  0.69668500  1
  O  O8  1  0.75065100  0.99523800  0.98002200  1
  O  O9  1  0.94966900  0.68473700  0.20392300  1
  O  O10  1  0.08978600  0.49368700  0.04968100  1
  O  O11  1  0.50631300  0.91021400  0.45031900  1
  O  O12  1  0.56230400  0.07444200  0.86139500  1
  O  O13  1  0.68473700  0.94966900  0.70392300  1
  O  O14  1  0.31526300  0.05033100  0.29607700  1
  O  O15  1  0.43769600  0.92555800  0.13860500  1
  O  O16  1  0.49368700  0.08978600  0.54968100  1
  O  O17  1  0.91021400  0.50631300  0.95031900  1
  O  O18  1  0.05033100  0.31526300  0.79607700  1
  O  O19  1  0.24934900  0.00476200  0.01997800  1
  O  O20  1  0.66547300  0.46540800  0.30331500  1
  O  O21  1  0.92555800  0.43769600  0.63860500  1
  O  O22  1  0.71245800  0.45583400  0.07079400  1
  O  O23  1  0.18823500  0.84091900  0.37872400  1
  O  O24  1  0.13108900  0.86891100  0.25000000  1
  O  O25  1  0.00476200  0.24934900  0.51997800  1
  O  O26  1  0.46540800  0.66547300  0.80331500  1
  O  O27  1  0.45583400  0.71245800  0.57079400  1
  O  O28  1  0.84091900  0.18823500  0.87872400  1
  O  O29  1  0.86891100  0.13108900  0.75000000  1
loop_
_geom_bond_atom_site_label_1
_geom_bond_atom_site_label_2
_geom_bond_distance
_geom_bond_site_symmetry_2
B0 O6 1.462846 1_555
B0 O3 1.478115 1_455
B0 O23 1.479363 1_555
B0 O1 1.506103 1_555
B1 O2 1.436331 1_555
B1 O9 1.459794 1_455
B1 O0 1.504315 1_555
B1 O24 1.514790 1_555
B2 O3 1.459856 1_545
B2 O1 1.463490 1_555
B2 O16 1.512160 1_555
B2 O11 1.546214 1_545
B3 O12 1.462846 1_555
B3 O8 1.478115 1_545
B3 O28 1.479363 1_555
B3 O5 1.506103 1_555
B4 O7 1.436331 1_555
B4 O13 1.459794 1_545
B4 O4 1.504315 1_555
B4 O29 1.514790 1_555
B5 O8 1.459856 1_455
B5 O5 1.463490 1_555
B5 O10 1.512160 1_556
B5 O17 1.546214 1_455
B6 O19 1.459856 1_655
B6 O22 1.463490 1_555
B6 O17 1.512160 1_554
B6 O10 1.546214 1_655
B7 O20 1.436331 1_555
B7 O14 1.459794 1_565
B7 O23 1.504315 1_555
B7 O24 1.514790 1_555
B8 O15 1.462846 1_555
B8 O19 1.478115 1_565
B8 O0 1.479363 1_555
B8 O22 1.506103 1_555
B9 O25 1.459856 1_565
B9 O27 1.463490 1_555
B9 O11 1.512160 1_555
B9 O16 1.546214 1_565
B10 O26 1.436331 1_555
B10 O18 1.459794 1_655
B10 O28 1.504315 1_555
B10 O29 1.514790 1_555
B11 O21 1.462846 1_555
B11 O25 1.478115 1_655
B11 O4 1.479363 1_555
B11 O27 1.506103 1_555
O0 Tm1 2.205965 1_465
O1 Tm0 2.627292 1_555
O1 Tm4 2.640983 1_555
O2 Tm0 2.230445 1_555
O2 Tm1 2.251852 1_555
O2 Tm5 2.504284 1_555
O3 Tm3 2.257999 1_655
O4 Tm3 2.205965 1_645
O5 Tm2 2.627292 1_555
O5 Tm6 2.640983 1_555
O6 Tm4 2.201788 1_455
O6 Tm0 2.344810 1_465
O6 Tm0 2.626669 1_555
O7 Tm2 2.230445 1_555
O7 Tm3 2.251852 1_555
O7 Tm7 2.504284 1_555
O8 Tm1 2.257999 1_566
O9 Tm5 2.222333 1_555
O9 Tm1 2.456882 1_565
O9 Tm0 2.475305 1_565
O10 Tm1 2.555440 1_465
O10 Tm1 2.583292 1_555
O11 Tm4 2.555440 1_465
O11 Tm4 2.583292 1_555
O12 Tm6 2.201788 1_545
O12 Tm2 2.344810 1_645
O12 Tm2 2.626669 1_555
O13 Tm7 2.222333 1_555
O13 Tm3 2.456882 1_655
O13 Tm2 2.475305 1_655
O14 Tm0 2.222333 1_555
O14 Tm4 2.456882 1_455
O14 Tm5 2.475305 1_455
O15 Tm1 2.201788 1_565
O15 Tm5 2.344810 1_465
O15 Tm5 2.626669 1_555
O16 Tm3 2.555440 1_645
O16 Tm3 2.583292 1_555
O17 Tm6 2.555440 1_645
O17 Tm6 2.583292 1_555
O18 Tm2 2.222333 1_555
O18 Tm6 2.456882 1_545
O18 Tm7 2.475305 1_545
O19 Tm6 2.257999 1_544
O20 Tm5 2.230445 1_555
O20 Tm4 2.251852 1_555
O20 Tm0 2.504284 1_555
O21 Tm3 2.201788 1_655
O21 Tm7 2.344810 1_645
O21 Tm7 2.626669 1_555
O22 Tm5 2.627292 1_555
O22 Tm1 2.640983 1_555
O23 Tm4 2.205965 1_465
O24 Tm5 2.315855 1_465
O24 Tm0 2.315855 1_465
O25 Tm4 2.257999 1_455
O26 Tm7 2.230445 1_555
O26 Tm6 2.251852 1_555
O26 Tm2 2.504284 1_555
O27 Tm7 2.627292 1_555
O27 Tm3 2.640983 1_555
O28 Tm6 2.205965 1_645
O29 Tm7 2.315855 1_645
O29 Tm2 2.315855 1_645
