# generated using pymatgen
data_Hf2N2O
_symmetry_space_group_name_H-M   'P 1'
_cell_length_a   5.48971400
_cell_length_b   5.81515300
_cell_length_c   7.93103811
_cell_angle_alpha   85.30140213
_cell_angle_beta   90.00000000
_cell_angle_gamma   90.00000000
_symmetry_Int_Tables_number   1
_chemical_formula_structural   Hf2N2O
_chemical_formula_sum   'Hf8 N8 O4'
_cell_volume   252.33584667
_cell_formula_units_Z   4
loop_
 _symmetry_equiv_pos_site_id
 _symmetry_equiv_pos_as_xyz
  1  'x, y, z'
loop_
 _atom_site_type_symbol
 _atom_site_label
 _atom_site_symmetry_multiplicity
 _atom_site_fract_x
 _atom_site_fract_y
 _atom_site_fract_z
 _atom_site_occupancy
  Hf  Hf0  1  0.99973500  0.27918400  0.14305000  1
  Hf  Hf1  1  0.00026500  0.27918400  0.64305000  1
  Hf  Hf2  1  0.48797400  0.21058600  0.35443000  1
  Hf  Hf3  1  0.51202600  0.21058600  0.85443000  1
  Hf  Hf4  1  0.48797400  0.78941400  0.14557000  1
  Hf  Hf5  1  0.51202600  0.78941400  0.64557000  1
  Hf  Hf6  1  0.99973500  0.72081600  0.35695000  1
  Hf  Hf7  1  0.00026500  0.72081600  0.85695000  1
  N  N0  1  0.65150900  0.15232200  0.10016400  1
  N  N1  1  0.34849100  0.15232200  0.60016400  1
  N  N2  1  0.28406100  0.50000000  0.25000000  1
  N  N3  1  0.71593900  0.50000000  0.75000000  1
  N  N4  1  0.65150900  0.84767800  0.39983600  1
  N  N5  1  0.34849100  0.84767800  0.89983600  1
  N  N6  1  0.19222100  0.00000000  0.25000000  1
  N  N7  1  0.80777900  0.00000000  0.75000000  1
  O  O0  1  0.84661300  0.35070700  0.39853700  1
  O  O1  1  0.15338700  0.35070700  0.89853700  1
  O  O2  1  0.84661300  0.64929300  0.10146300  1
  O  O3  1  0.15338700  0.64929300  0.60146300  1
loop_
_geom_bond_atom_site_label_1
_geom_bond_atom_site_label_2
_geom_bond_distance
_geom_bond_site_symmetry_2
Hf0 N6 2.060637 1_655
Hf0 N0 2.086978 1_555
Hf0 O1 2.124385 1_654
Hf0 N2 2.232284 1_655
Hf0 O0 2.263505 1_555
Hf0 O2 2.308946 1_555
Hf1 N7 2.060637 1_455
Hf1 N1 2.086978 1_555
Hf1 O0 2.124385 1_455
Hf1 N3 2.232284 1_455
Hf1 O1 2.263505 1_555
Hf1 O3 2.308946 1_555
Hf2 N1 2.095533 1_555
Hf2 N2 2.131471 1_555
Hf2 O0 2.170088 1_555
Hf2 N6 2.233347 1_555
Hf2 N0 2.258175 1_555
Hf2 N4 2.294514 1_545
Hf3 N0 2.095533 1_556
Hf3 N3 2.131471 1_555
Hf3 O1 2.170088 1_555
Hf3 N7 2.233347 1_555
Hf3 N1 2.258175 1_555
Hf3 N5 2.294514 1_545
Hf4 N5 2.095533 1_554
Hf4 N2 2.131471 1_555
Hf4 O2 2.170088 1_555
Hf4 N6 2.233347 1_565
Hf4 N4 2.258175 1_555
Hf4 N0 2.294514 1_565
Hf5 N4 2.095533 1_555
Hf5 N3 2.131471 1_555
Hf5 O3 2.170088 1_555
Hf5 N7 2.233347 1_565
Hf5 N5 2.258175 1_555
Hf5 N1 2.294514 1_565
Hf6 N6 2.060637 1_665
Hf6 N4 2.086978 1_555
Hf6 O3 2.124385 1_655
Hf6 N2 2.232284 1_655
Hf6 O2 2.263505 1_555
Hf6 O0 2.308946 1_555
Hf7 N7 2.060637 1_465
Hf7 N5 2.086978 1_555
Hf7 O2 2.124385 1_456
Hf7 N3 2.232284 1_455
Hf7 O3 2.263505 1_555
Hf7 O1 2.308946 1_555
