# generated using pymatgen
data_Cu2C3Br5N
_symmetry_space_group_name_H-M   'P 1'
_cell_length_a   14.75170600
_cell_length_b   9.90841000
_cell_length_c   19.86584260
_cell_angle_alpha   77.32151061
_cell_angle_beta   90.00000000
_cell_angle_gamma   90.00000000
_symmetry_Int_Tables_number   1
_chemical_formula_structural   Cu2C3Br5N
_chemical_formula_sum   'Cu16 C24 Br40 N8'
_cell_volume   2832.90866047
_cell_formula_units_Z   8
loop_
 _symmetry_equiv_pos_site_id
 _symmetry_equiv_pos_as_xyz
  1  'x, y, z'
loop_
 _atom_site_type_symbol
 _atom_site_label
 _atom_site_symmetry_multiplicity
 _atom_site_fract_x
 _atom_site_fract_y
 _atom_site_fract_z
 _atom_site_occupancy
  Cu  Cu0  1  0.78464100  0.89789000  0.09767700  1
  Cu  Cu1  1  0.28464100  0.60211000  0.40232300  1
  Cu  Cu2  1  0.21535900  0.10211000  0.90232300  1
  Cu  Cu3  1  0.71535900  0.39789000  0.59767700  1
  Cu  Cu4  1  0.98797500  0.19385600  0.05374200  1
  Cu  Cu5  1  0.48797500  0.30614400  0.44625800  1
  Cu  Cu6  1  0.01202500  0.80614400  0.94625800  1
  Cu  Cu7  1  0.51202500  0.69385600  0.55374200  1
  Cu  Cu8  1  0.14840400  0.44455000  0.99211600  1
  Cu  Cu9  1  0.64840400  0.05545000  0.50788400  1
  Cu  Cu10  1  0.85159600  0.55545000  0.00788400  1
  Cu  Cu11  1  0.35159600  0.94455000  0.49211600  1
  Cu  Cu12  1  0.30638600  0.73952900  0.92123100  1
  Cu  Cu13  1  0.80638600  0.76047100  0.57876900  1
  Cu  Cu14  1  0.69361400  0.26047100  0.07876900  1
  Cu  Cu15  1  0.19361400  0.23952900  0.42123100  1
  C  C0  1  0.62549900  0.02436700  0.85161600  1
  C  C1  1  0.12549900  0.47563300  0.64838400  1
  C  C2  1  0.37450100  0.97563300  0.14838400  1
  C  C3  1  0.87450100  0.52436700  0.35161600  1
  C  C4  1  0.64041400  0.12167100  0.80314100  1
  C  C5  1  0.14041400  0.37832900  0.69685900  1
  C  C6  1  0.35958600  0.87832900  0.19685900  1
  C  C7  1  0.85958600  0.62167100  0.30314100  1
  C  C8  1  0.61632400  0.78387500  0.91949100  1
  C  C9  1  0.11632400  0.71612500  0.58050900  1
  C  C10  1  0.38367600  0.21612500  0.08050900  1
  C  C11  1  0.88367600  0.28387500  0.41949100  1
  C  C12  1  0.61504100  0.43060100  0.18137200  1
  C  C13  1  0.11504100  0.06939900  0.31862800  1
  C  C14  1  0.38495900  0.56939900  0.81862800  1
  C  C15  1  0.88495900  0.93060100  0.68137200  1
  C  C16  1  0.56349900  0.57117900  0.26180000  1
  C  C17  1  0.06349900  0.92882100  0.23820000  1
  C  C18  1  0.43650100  0.42882100  0.73820000  1
  C  C19  1  0.93650100  0.07117900  0.76180000  1
  C  C20  1  0.63970600  0.35246900  0.14325200  1
  C  C21  1  0.13970600  0.14753100  0.35674800  1
  C  C22  1  0.36029400  0.64753100  0.85674800  1
  C  C23  1  0.86029400  0.85246900  0.64325200  1
  Br  Br0  1  0.73543400  0.70306400  0.06353000  1
  Br  Br1  1  0.23543400  0.79693600  0.43647000  1
  Br  Br2  1  0.26456600  0.29693600  0.93647000  1
  Br  Br3  1  0.76456600  0.20306400  0.56353000  1
  Br  Br4  1  0.82268700  0.67561100  0.21417900  1
  Br  Br5  1  0.32268700  0.82438900  0.28582100  1
  Br  Br6  1  0.17731300  0.32438900  0.78582100  1
  Br  Br7  1  0.67731300  0.17561100  0.71417900  1
  Br  Br8  1  0.88293500  0.04173000  0.01613700  1
  Br  Br9  1  0.38293500  0.45827000  0.48386300  1
  Br  Br10  1  0.11706500  0.95827000  0.98386300  1
  Br  Br11  1  0.61706500  0.54173000  0.51613700  1
  Br  Br12  1  0.00602000  0.92827300  0.15834500  1
  Br  Br13  1  0.50602000  0.57172700  0.34165500  1
  Br  Br14  1  0.99398000  0.07172700  0.84165500  1
  Br  Br15  1  0.49398000  0.42827300  0.65834500  1
  Br  Br16  1  0.01475000  0.36266200  0.94341500  1
  Br  Br17  1  0.51475000  0.13733800  0.55658500  1
  Br  Br18  1  0.98525000  0.63733800  0.05658500  1
  Br  Br19  1  0.48525000  0.86266200  0.44341500  1
  Br  Br20  1  0.11507700  0.28161300  0.10599300  1
  Br  Br21  1  0.61507700  0.21838700  0.39400700  1
  Br  Br22  1  0.88492300  0.71838700  0.89400700  1
  Br  Br23  1  0.38492300  0.78161300  0.60599300  1
  Br  Br24  1  0.14590000  0.66854800  0.89138900  1
  Br  Br25  1  0.64590000  0.83145200  0.60861100  1
  Br  Br26  1  0.85410000  0.33145200  0.10861100  1
  Br  Br27  1  0.35410000  0.16854800  0.39138900  1
  Br  Br28  1  0.26954300  0.56388800  0.03431300  1
  Br  Br29  1  0.76954300  0.93611200  0.46568700  1
  Br  Br30  1  0.73045700  0.43611200  0.96568700  1
  Br  Br31  1  0.23045700  0.06388800  0.53431300  1
  Br  Br32  1  0.28528300  0.97403000  0.83267900  1
  Br  Br33  1  0.78528300  0.52597000  0.66732100  1
  Br  Br34  1  0.71471700  0.02597000  0.16732100  1
  Br  Br35  1  0.21471700  0.47403000  0.33267900  1
  Br  Br36  1  0.40144800  0.82314800  0.99978900  1
  Br  Br37  1  0.90144800  0.67685200  0.50021100  1
  Br  Br38  1  0.59855200  0.17685200  0.00021100  1
  Br  Br39  1  0.09855200  0.32314800  0.49978900  1
  N  N0  1  0.61769600  0.90521700  0.89425000  1
  N  N1  1  0.11769600  0.59478300  0.60575000  1
  N  N2  1  0.38230400  0.09478300  0.10575000  1
  N  N3  1  0.88230400  0.40521700  0.39425000  1
  N  N4  1  0.58776900  0.50216900  0.22319100  1
  N  N5  1  0.08776900  0.99783100  0.27680900  1
  N  N6  1  0.41223100  0.49783100  0.77680900  1
  N  N7  1  0.91223100  0.00216900  0.72319100  1
loop_
_geom_bond_atom_site_label_1
_geom_bond_atom_site_label_2
_geom_bond_distance
_geom_bond_site_symmetry_2
C0 C4 1.223831 1_555
C0 N0 1.298251 1_545
C1 C5 1.223831 1_555
C1 N1 1.298251 1_555
C2 C6 1.223831 1_555
C2 N2 1.298251 1_565
C3 C7 1.223831 1_555
C3 N3 1.298251 1_555
C8 N0 1.196974 1_555
C9 N1 1.196974 1_555
C10 N2 1.196974 1_555
C11 N3 1.196974 1_555
C12 C20 1.250018 1_555
C12 N4 1.270232 1_555
C13 C21 1.250018 1_555
C13 N5 1.270232 1_545
C14 C22 1.250018 1_555
C14 N6 1.270232 1_555
C15 C23 1.250018 1_555
C15 N7 1.270232 1_565
C16 N4 1.189219 1_555
C17 N5 1.189219 1_555
C18 N6 1.189219 1_555
C19 N7 1.189219 1_555
C20 Cu14 1.901813 1_555
C21 Cu15 1.901813 1_555
C22 Cu12 1.901813 1_555
C23 Cu13 1.901813 1_555
Br0 Cu0 2.299655 1_555
Br0 Cu10 2.647151 1_555
Br1 Cu1 2.299655 1_555
Br1 Cu11 2.647151 1_555
Br2 Cu2 2.299655 1_555
Br2 Cu8 2.647151 1_555
Br3 Cu3 2.299655 1_555
Br3 Cu9 2.647151 1_555
Br4 C7 1.814023 1_555
Br4 Cu0 2.878310 1_555
Br5 C6 1.814023 1_555
Br5 Cu1 2.878310 1_555
Br6 C5 1.814023 1_555
Br6 Cu2 2.878310 1_555
Br7 C4 1.814023 1_555
Br7 Cu3 2.878310 1_555
Br8 Cu4 2.392787 1_555
Br8 Cu0 2.396731 1_545
Br9 Cu5 2.392787 1_555
Br9 Cu1 2.396731 1_555
Br10 Cu6 2.392787 1_555
Br10 Cu2 2.396731 1_565
Br11 Cu7 2.392787 1_555
Br11 Cu3 2.396731 1_555
Br12 C17 1.799831 1_555
Br12 Cu4 2.985547 1_465
Br13 C16 1.799831 1_555
Br13 Cu5 2.985547 1_555
Br14 C19 1.799831 1_555
Br14 Cu6 2.985547 1_645
Br15 C18 1.799831 1_555
Br15 Cu7 2.985547 1_555
Br16 Cu8 2.413763 1_555
Br16 Cu4 2.479542 1_456
Br17 Cu9 2.413763 1_555
Br17 Cu5 2.479542 1_555
Br18 Cu10 2.413763 1_555
Br18 Cu6 2.479542 1_654
Br19 Cu11 2.413763 1_555
Br19 Cu7 2.479542 1_555
Br20 Cu4 2.396929 1_455
Br20 Cu8 2.522450 1_554
Br21 Cu5 2.396929 1_555
Br21 Cu9 2.522450 1_555
Br22 Cu6 2.396929 1_655
Br22 Cu10 2.522450 1_556
Br23 Cu7 2.396929 1_555
Br23 Cu11 2.522450 1_555
Br24 Cu12 2.575637 1_555
Br24 Cu8 2.642344 1_555
Br24 Cu6 2.756698 1_555
Br25 Cu13 2.575637 1_555
Br25 Cu9 2.642344 1_565
Br25 Cu7 2.756698 1_555
Br26 Cu14 2.575637 1_555
Br26 Cu10 2.642344 1_555
Br26 Cu4 2.756698 1_555
Br27 Cu15 2.575637 1_555
Br27 Cu11 2.642344 1_545
Br27 Cu5 2.756698 1_555
Br28 Cu8 2.393617 1_554
Br28 Cu12 2.579649 1_554
Br29 Cu9 2.393617 1_565
Br29 Cu13 2.579649 1_555
Br30 Cu10 2.393617 1_556
Br30 Cu14 2.579649 1_556
Br31 Cu11 2.393617 1_545
Br31 Cu15 2.579649 1_555
Br32 Cu2 2.315044 1_565
Br32 Cu12 2.606938 1_555
Br33 Cu3 2.315044 1_555
Br33 Cu13 2.606938 1_555
Br34 Cu0 2.315044 1_545
Br34 Cu14 2.606938 1_555
Br35 Cu1 2.315044 1_555
Br35 Cu15 2.606938 1_555
Br36 Cu12 2.378257 1_555
Br37 Cu13 2.378257 1_555
Br38 Cu14 2.378257 1_555
Br39 Cu15 2.378257 1_555
