# generated using pymatgen
data_Ti2P2H4O11
_symmetry_space_group_name_H-M   'P 1'
_cell_length_a   5.17790500
_cell_length_b   8.92610212
_cell_length_c   9.80169880
_cell_angle_alpha   73.58549567
_cell_angle_beta   85.76327116
_cell_angle_gamma   85.74057001
_symmetry_Int_Tables_number   1
_chemical_formula_structural   Ti2P2H4O11
_chemical_formula_sum   'Ti4 P4 H8 O22'
_cell_volume   432.69280759
_cell_formula_units_Z   2
loop_
 _symmetry_equiv_pos_site_id
 _symmetry_equiv_pos_as_xyz
  1  'x, y, z'
loop_
 _atom_site_type_symbol
 _atom_site_label
 _atom_site_symmetry_multiplicity
 _atom_site_fract_x
 _atom_site_fract_y
 _atom_site_fract_z
 _atom_site_occupancy
  Ti  Ti0  1  0.73893200  0.72917500  0.33586700  1
  Ti  Ti1  1  0.26106800  0.27082500  0.66413300  1
  Ti  Ti2  1  0.04561300  0.88252700  0.79593200  1
  Ti  Ti3  1  0.95438700  0.11747300  0.20406800  1
  P  P0  1  0.21950900  0.66967500  0.56872000  1
  P  P1  1  0.78049100  0.33032500  0.43128000  1
  P  P2  1  0.25605900  0.81949900  0.11725700  1
  P  P3  1  0.74394100  0.18050100  0.88274300  1
  H  H0  1  0.82293300  0.67536300  0.02476100  1
  H  H1  1  0.17706700  0.32463700  0.97523900  1
  H  H2  1  0.60731000  0.70791900  0.91903600  1
  H  H3  1  0.39269000  0.29208100  0.08096400  1
  H  H4  1  0.39657000  0.01354200  0.35658100  1
  H  H5  1  0.60343000  0.98645800  0.64341900  1
  H  H6  1  0.76540500  0.85867000  0.57461800  1
  H  H7  1  0.23459500  0.14133000  0.42538200  1
  O  O0  1  0.95077900  0.70131800  0.50389400  1
  O  O1  1  0.04922100  0.29868200  0.49610600  1
  O  O2  1  0.70877700  0.50621600  0.38144000  1
  O  O3  1  0.29122300  0.49378400  0.61856000  1
  O  O4  1  0.52587400  0.76016000  0.17167100  1
  O  O5  1  0.47412600  0.23984000  0.82832900  1
  O  O6  1  0.42910100  0.75438500  0.45938200  1
  O  O7  1  0.57089900  0.24561500  0.54061800  1
  O  O8  1  0.04530000  0.71795700  0.21120200  1
  O  O9  1  0.95470000  0.28204300  0.78879800  1
  O  O10  1  0.77104000  0.95384900  0.29401800  1
  O  O11  1  0.22896000  0.04615100  0.70598200  1
  O  O12  1  0.20525700  0.73631000  0.69931400  1
  O  O13  1  0.79474300  0.26369000  0.30068600  1
  O  O14  1  0.25329300  0.80454300  0.96315200  1
  O  O15  1  0.74670700  0.19545700  0.03684800  1
  O  O16  1  0.79721300  0.00785600  0.88250400  1
  O  O17  1  0.20278700  0.99214400  0.11749600  1
  O  O18  1  0.79570000  0.68653600  0.92452700  1
  O  O19  1  0.20430000  0.31346400  0.07547300  1
  O  O20  1  0.76215900  0.91793800  0.64563500  1
  O  O21  1  0.23784100  0.08206200  0.35436500  1
loop_
_geom_bond_atom_site_label_1
_geom_bond_atom_site_label_2
_geom_bond_distance
_geom_bond_site_symmetry_2
H0 O18 0.978810 1_554
H1 O19 0.978810 1_556
H2 O18 0.982423 1_555
H3 O19 0.982423 1_555
H4 O21 0.985139 1_555
H5 O20 0.985139 1_555
H6 O20 0.984769 1_555
H7 O21 0.984769 1_555
O0 P0 1.546124 1_655
O0 Ti0 1.993108 1_555
O1 P1 1.546124 1_455
O1 Ti1 1.993108 1_555
O2 P1 1.532393 1_555
O2 Ti0 1.928226 1_555
O3 P0 1.532393 1_555
O3 Ti1 1.928226 1_555
O4 P2 1.535366 1_555
O4 Ti0 1.961923 1_555
O5 P3 1.535366 1_555
O5 Ti1 1.961923 1_555
O6 P0 1.545994 1_555
O6 Ti0 1.975702 1_555
O7 P1 1.545994 1_555
O7 Ti1 1.975702 1_555
O8 P2 1.545023 1_555
O8 Ti0 1.943907 1_455
O9 P3 1.545023 1_555
O9 Ti1 1.943907 1_655
O10 Ti3 1.779400 1_565
O10 Ti0 1.947385 1_555
O11 Ti2 1.779400 1_545
O11 Ti1 1.947385 1_555
O12 P0 1.551628 1_555
O12 Ti2 1.925145 1_555
O13 P1 1.551628 1_555
O13 Ti3 1.925145 1_555
O14 P2 1.554688 1_556
O14 Ti2 1.957495 1_555
O15 P3 1.554688 1_554
O15 Ti3 1.957495 1_555
O16 P3 1.545872 1_555
O16 Ti2 1.946105 1_645
O17 P2 1.545872 1_555
O17 Ti3 1.946105 1_465
O18 Ti2 2.274380 1_655
O19 Ti3 2.274380 1_455
O20 Ti2 2.100394 1_655
O21 Ti3 2.100394 1_455
