# generated using pymatgen
data_Y2HfO5
_symmetry_space_group_name_H-M   'P 1'
_cell_length_a   6.51959067
_cell_length_b   6.51959067
_cell_length_c   7.69685315
_cell_angle_alpha   69.18329175
_cell_angle_beta   69.18329175
_cell_angle_gamma   50.16352092
_symmetry_Int_Tables_number   1
_chemical_formula_structural   Y2HfO5
_chemical_formula_sum   'Y4 Hf2 O10'
_cell_volume   231.06804135
_cell_formula_units_Z   2
loop_
 _symmetry_equiv_pos_site_id
 _symmetry_equiv_pos_as_xyz
  1  'x, y, z'
loop_
 _atom_site_type_symbol
 _atom_site_label
 _atom_site_symmetry_multiplicity
 _atom_site_fract_x
 _atom_site_fract_y
 _atom_site_fract_z
 _atom_site_occupancy
  Y  Y0  1  0.36521000  0.35664800  0.74846300  1
  Y  Y1  1  0.35664800  0.36521100  0.24846300  1
  Y  Y2  1  0.64335200  0.63479000  0.75153700  1
  Y  Y3  1  0.63478900  0.64335200  0.25153700  1
  Hf  Hf0  1  0.00000000  0.00000000  0.50000000  1
  Hf  Hf1  1  0.00000000  0.00000000  0.00000000  1
  O  O0  1  0.25096700  0.60066700  0.95583900  1
  O  O1  1  0.60066700  0.25096700  0.45583900  1
  O  O2  1  0.97701100  0.67538600  0.64522600  1
  O  O3  1  0.32461400  0.02298900  0.85477400  1
  O  O4  1  0.67538600  0.97701100  0.14522600  1
  O  O5  1  0.02298900  0.32461400  0.35477400  1
  O  O6  1  0.39933300  0.74903300  0.54416100  1
  O  O7  1  0.82446600  0.17553400  0.75000000  1
  O  O8  1  0.74903300  0.39933300  0.04416100  1
  O  O9  1  0.17553400  0.82446600  0.25000000  1
loop_
_geom_bond_atom_site_label_1
_geom_bond_atom_site_label_2
_geom_bond_distance
_geom_bond_site_symmetry_2
Hf0 O6 2.084907 1_545
Hf0 O1 2.084907 1_455
Hf0 O2 2.087288 1_445
Hf0 O5 2.087288 1_555
Hf0 O9 2.154993 1_545
Hf0 O7 2.154993 1_455
Hf1 O8 2.084907 1_455
Hf1 O0 2.084907 1_544
Hf1 O4 2.087288 1_445
Hf1 O3 2.087288 1_554
Hf1 O7 2.154993 1_454
Hf1 O9 2.154993 1_545
O0 Y0 2.252805 1_555
O0 Y1 2.279134 1_556
O0 Y2 2.586089 1_555
O1 Y1 2.252802 1_555
O1 Y0 2.279135 1_555
O1 Y3 2.586086 1_555
O2 Y2 2.188650 1_555
O2 Y0 2.207405 1_655
O3 Y0 2.188650 1_555
O3 Y2 2.207405 1_545
O4 Y3 2.188655 1_555
O4 Y1 2.207409 1_565
O5 Y1 2.188655 1_555
O5 Y3 2.207409 1_455
O6 Y2 2.252805 1_555
O6 Y3 2.279134 1_555
O6 Y0 2.586089 1_555
O7 Y0 2.417646 1_555
O7 Y2 2.417646 1_555
O8 Y3 2.252802 1_555
O8 Y2 2.279135 1_554
O8 Y1 2.586086 1_555
O9 Y1 2.417640 1_555
O9 Y3 2.417640 1_555
