# generated using pymatgen
data_K3TaO2F7
_symmetry_space_group_name_H-M   'P 1'
_cell_length_a   7.24531700
_cell_length_b   9.76680700
_cell_length_c   14.06719800
_cell_angle_alpha   90.00000000
_cell_angle_beta   90.00000000
_cell_angle_gamma   90.00000000
_symmetry_Int_Tables_number   1
_chemical_formula_structural   K3TaO2F7
_chemical_formula_sum   'K12 Ta4 O8 F28'
_cell_volume   995.44575235
_cell_formula_units_Z   4
loop_
 _symmetry_equiv_pos_site_id
 _symmetry_equiv_pos_as_xyz
  1  'x, y, z'
loop_
 _atom_site_type_symbol
 _atom_site_label
 _atom_site_symmetry_multiplicity
 _atom_site_fract_x
 _atom_site_fract_y
 _atom_site_fract_z
 _atom_site_occupancy
  K  K0  1  0.26543000  0.75000000  0.17336000  1
  K  K1  1  0.76543000  0.75000000  0.32664000  1
  K  K2  1  0.73457000  0.25000000  0.82664000  1
  K  K3  1  0.23457000  0.25000000  0.67336000  1
  K  K4  1  0.28244600  0.98380800  0.84803200  1
  K  K5  1  0.78244600  0.51619200  0.65196800  1
  K  K6  1  0.71755400  0.48380800  0.15196800  1
  K  K7  1  0.21755400  0.01619200  0.34803200  1
  K  K8  1  0.71755400  0.01619200  0.15196800  1
  K  K9  1  0.21755400  0.48380800  0.34803200  1
  K  K10  1  0.28244600  0.51619200  0.84803200  1
  K  K11  1  0.78244600  0.98380800  0.65196800  1
  Ta  Ta0  1  0.21101200  0.75000000  0.57197200  1
  Ta  Ta1  1  0.71101200  0.75000000  0.92802800  1
  Ta  Ta2  1  0.78898800  0.25000000  0.42802800  1
  Ta  Ta3  1  0.28898800  0.25000000  0.07197200  1
  O  O0  1  0.48709500  0.81923700  0.55552800  1
  O  O1  1  0.98709500  0.68076300  0.94447200  1
  O  O2  1  0.51290500  0.31923700  0.44447200  1
  O  O3  1  0.01290500  0.18076300  0.05552800  1
  O  O4  1  0.51290500  0.18076300  0.44447200  1
  O  O5  1  0.01290500  0.31923700  0.05552800  1
  O  O6  1  0.48709500  0.68076300  0.55552800  1
  O  O7  1  0.98709500  0.81923700  0.94447200  1
  F  F0  1  0.94428000  0.75000000  0.58717600  1
  F  F1  1  0.44428000  0.75000000  0.91282400  1
  F  F2  1  0.05572000  0.25000000  0.41282400  1
  F  F3  1  0.55572000  0.25000000  0.08717600  1
  F  F4  1  0.25420100  0.75000000  0.70669100  1
  F  F5  1  0.75420100  0.75000000  0.79330900  1
  F  F6  1  0.74579900  0.25000000  0.29330900  1
  F  F7  1  0.24579900  0.25000000  0.20669100  1
  F  F8  1  0.16628100  0.94723300  0.56774500  1
  F  F9  1  0.66628100  0.55276700  0.93225500  1
  F  F10  1  0.83371900  0.44723300  0.43225500  1
  F  F11  1  0.33371900  0.05276700  0.06774500  1
  F  F12  1  0.83371900  0.05276700  0.43225500  1
  F  F13  1  0.33371900  0.44723300  0.06774500  1
  F  F14  1  0.16628100  0.55276700  0.56774500  1
  F  F15  1  0.66628100  0.94723300  0.93225500  1
  F  F16  1  0.19571100  0.75000000  0.43462800  1
  F  F17  1  0.69571100  0.75000000  0.06537200  1
  F  F18  1  0.80428900  0.25000000  0.56537200  1
  F  F19  1  0.30428900  0.25000000  0.93462800  1
  F  F20  1  0.50111400  0.41436700  0.72873100  1
  F  F21  1  0.00111400  0.08563300  0.77126900  1
  F  F22  1  0.49888600  0.91436700  0.27126900  1
  F  F23  1  0.99888600  0.58563300  0.22873100  1
  F  F24  1  0.49888600  0.58563300  0.27126900  1
  F  F25  1  0.99888600  0.91436700  0.22873100  1
  F  F26  1  0.50111400  0.08563300  0.72873100  1
  F  F27  1  0.00111400  0.41436700  0.77126900  1
loop_
_geom_bond_atom_site_label_1
_geom_bond_atom_site_label_2
_geom_bond_distance
_geom_bond_site_symmetry_2
K4 O7 3.000536 1_455
K5 O6 3.000536 1_555
K6 O5 3.000536 1_655
K7 O4 3.000536 1_555
K8 O3 3.000536 1_655
K9 O2 3.000536 1_555
K10 O1 3.000536 1_455
K11 O0 3.000536 1_555
O0 O6 1.352449 1_555
O0 Ta0 2.124153 1_555
O1 O7 1.352449 1_555
O1 Ta1 2.124153 1_555
O2 O4 1.352449 1_555
O2 Ta2 2.124153 1_555
O3 O5 1.352449 1_555
O3 Ta3 2.124153 1_555
O4 Ta2 2.124153 1_555
O5 Ta3 2.124153 1_555
O6 Ta0 2.124153 1_555
O7 Ta1 2.124153 1_555
F0 Ta0 1.944357 1_655
F0 K11 2.724006 1_555
F0 K5 2.724006 1_555
F1 Ta1 1.944357 1_555
F1 K10 2.724006 1_555
F1 K4 2.724006 1_555
F2 Ta2 1.944357 1_455
F2 K7 2.724006 1_555
F2 K9 2.724006 1_555
F3 Ta3 1.944357 1_555
F3 K8 2.724006 1_555
F3 K6 2.724006 1_555
F4 Ta0 1.920779 1_555
F4 K4 3.034755 1_555
F4 K10 3.034755 1_555
F5 Ta1 1.920779 1_555
F5 K11 3.034755 1_555
F5 K5 3.034755 1_555
F6 Ta2 1.920779 1_555
F6 K6 3.034755 1_555
F6 K8 3.034755 1_555
F7 Ta3 1.920779 1_555
F7 K7 3.034755 1_555
F7 K9 3.034755 1_555
F8 Ta0 1.954314 1_555
F8 K11 3.043897 1_455
F8 K7 3.185017 1_565
F9 Ta1 1.954314 1_555
F9 K10 3.043897 1_555
F9 K6 3.185017 1_556
F10 Ta2 1.954314 1_555
F10 K9 3.043897 1_655
F10 K5 3.185017 1_555
F11 Ta3 1.954314 1_555
F11 K8 3.043897 1_555
F11 K4 3.185017 1_544
F12 Ta2 1.954314 1_555
F12 K7 3.043897 1_655
F12 K11 3.185017 1_545
F13 Ta3 1.954314 1_555
F13 K6 3.043897 1_555
F13 K10 3.185017 1_554
F14 Ta0 1.954314 1_555
F14 K5 3.043897 1_455
F14 K9 3.185017 1_555
F15 Ta1 1.954314 1_555
F15 K4 3.043897 1_555
F15 K8 3.185017 1_566
F16 Ta0 1.935223 1_555
F16 K9 2.875442 1_555
F16 K7 2.875442 1_565
F17 Ta1 1.935223 1_554
F17 K6 2.875442 1_555
F17 K8 2.875442 1_565
F18 Ta2 1.935223 1_555
F18 K11 2.875442 1_545
F18 K5 2.875442 1_555
F19 Ta3 1.935223 1_556
F19 K4 2.875442 1_545
F19 K10 2.875442 1_555
F20 K5 2.511956 1_555
F20 K10 2.513079 1_555
F20 K3 2.629324 1_555
F20 K2 2.708345 1_555
F21 K4 2.511956 1_545
F21 K11 2.513079 1_445
F21 K2 2.629324 1_455
F21 K3 2.708345 1_555
F22 K7 2.511956 1_565
F22 K8 2.513079 1_565
F22 K1 2.629324 1_555
F22 K0 2.708345 1_555
F23 K6 2.511956 1_555
F23 K9 2.513079 1_655
F23 K0 2.629324 1_655
F23 K1 2.708345 1_555
F24 K9 2.511956 1_555
F24 K6 2.513079 1_555
F24 K1 2.629324 1_555
F24 K0 2.708345 1_555
F25 K8 2.511956 1_565
F25 K7 2.513079 1_665
F25 K0 2.629324 1_655
F25 K1 2.708345 1_555
F26 K11 2.511956 1_545
F26 K4 2.513079 1_545
F26 K3 2.629324 1_555
F26 K2 2.708345 1_555
F27 K10 2.511956 1_555
F27 K5 2.513079 1_455
F27 K2 2.629324 1_455
F27 K3 2.708345 1_555
