# generated using pymatgen
data_Ba5Mn5O14
_symmetry_space_group_name_H-M   'P 1'
_cell_length_a   5.70529410
_cell_length_b   5.70529410
_cell_length_c   23.54920625
_cell_angle_alpha   90.00000000
_cell_angle_beta   90.00000000
_cell_angle_gamma   119.69449765
_symmetry_Int_Tables_number   1
_chemical_formula_structural   Ba5Mn5O14
_chemical_formula_sum   'Ba10 Mn10 O28'
_cell_volume   665.87347519
_cell_formula_units_Z   2
loop_
 _symmetry_equiv_pos_site_id
 _symmetry_equiv_pos_as_xyz
  1  'x, y, z'
loop_
 _atom_site_type_symbol
 _atom_site_label
 _atom_site_symmetry_multiplicity
 _atom_site_fract_x
 _atom_site_fract_y
 _atom_site_fract_z
 _atom_site_occupancy
  Ba  Ba0  1  0.33878453  0.67184018  0.04530336  1
  Ba  Ba1  1  0.33145151  0.66044511  0.64038671  1
  Ba  Ba2  1  0.00076501  0.99935335  0.75000000  1
  Ba  Ba3  1  0.33145151  0.66044511  0.85961329  1
  Ba  Ba4  1  0.99935335  0.00076501  0.25000000  1
  Ba  Ba5  1  0.33878453  0.67184018  0.45469664  1
  Ba  Ba6  1  0.67184018  0.33878453  0.95469664  1
  Ba  Ba7  1  0.67184018  0.33878453  0.54530336  1
  Ba  Ba8  1  0.66044511  0.33145151  0.14038671  1
  Ba  Ba9  1  0.66044511  0.33145151  0.35961329  1
  Mn  Mn0  1  0.34298415  0.67154988  0.19195628  1
  Mn  Mn1  1  0.01101904  0.01101904  0.50000000  1
  Mn  Mn2  1  0.00269286  0.00295228  0.60703650  1
  Mn  Mn3  1  0.00269286  0.00295228  0.89296350  1
  Mn  Mn4  1  0.01101904  0.01101904  -0.00000000  1
  Mn  Mn5  1  0.00295228  0.00269286  0.10703650  1
  Mn  Mn6  1  0.00295228  0.00269286  0.39296350  1
  Mn  Mn7  1  0.34298415  0.67154988  0.30804372  1
  Mn  Mn8  1  0.67154988  0.34298415  0.69195628  1
  Mn  Mn9  1  0.67154988  0.34298415  0.80804372  1
  O  O0  1  0.15559493  0.30648358  0.55143297  1
  O  O1  1  0.15559493  0.30648358  0.94856703  1
  O  O2  1  0.15623855  0.33085966  0.15171668  1
  O  O3  1  0.93790634  0.44260326  0.75000000  1
  O  O4  1  0.15623855  0.33085966  0.34828332  1
  O  O5  1  0.15662570  0.82598637  0.15123095  1
  O  O6  1  0.15439076  0.86185946  0.94792044  1
  O  O7  1  0.15662570  0.82598637  0.34876905  1
  O  O8  1  0.15439076  0.86185946  0.55207956  1
  O  O9  1  0.33085966  0.15623855  0.84828332  1
  O  O10  1  0.33085966  0.15623855  0.65171668  1
  O  O11  1  0.30648358  0.15559493  0.05143297  1
  O  O12  1  0.30648358  0.15559493  0.44856703  1
  O  O13  1  0.44260326  0.93790634  0.25000000  1
  O  O14  1  0.71515752  0.86342444  0.55143295  1
  O  O15  1  0.68367271  0.84252864  0.14827996  1
  O  O16  1  0.71515752  0.86342444  0.94856705  1
  O  O17  1  0.68367271  0.84252864  0.35172004  1
  O  O18  1  0.82598637  0.15662570  0.65123095  1
  O  O19  1  0.44461674  0.50516060  0.25000000  1
  O  O20  1  0.50516060  0.44461674  0.75000000  1
  O  O21  1  0.82598637  0.15662570  0.84876905  1
  O  O22  1  0.86185946  0.15439076  0.44792044  1
  O  O23  1  0.86185946  0.15439076  0.05207956  1
  O  O24  1  0.84252864  0.68367271  0.64827996  1
  O  O25  1  0.86342444  0.71515752  0.44856705  1
  O  O26  1  0.84252864  0.68367271  0.85172004  1
  O  O27  1  0.86342444  0.71515752  0.05143295  1
loop_
_geom_bond_atom_site_label_1
_geom_bond_atom_site_label_2
_geom_bond_distance
_geom_bond_site_symmetry_2
Ba0 O27 2.846276 1_455
Ba0 O11 2.859390 1_565
Ba0 O23 2.861145 1_455
Ba0 O11 2.862168 1_555
Ba0 O27 2.882431 1_555
Ba0 O23 2.893261 1_565
Ba0 O1 2.910066 1_554
Ba0 O16 2.944468 1_554
Ba0 O6 2.944690 1_554
Ba0 O15 2.966881 1_555
Ba0 O5 2.996936 1_555
Ba0 O2 3.023520 1_555
Ba1 O0 2.732320 1_555
Ba1 O8 2.795647 1_555
Ba1 O14 2.830182 1_555
Ba1 O10 2.842870 1_565
Ba1 O18 2.850675 1_565
Ba1 O24 2.858572 1_555
Ba1 O24 2.863455 1_455
Ba1 O10 2.887330 1_555
Ba1 O18 2.903680 1_455
Ba1 O20 3.220353 1_555
Ba1 O3 3.237962 1_455
Ba2 O3 2.724396 1_465
Ba2 O20 2.737131 1_565
Ba2 O10 2.834558 1_565
Ba2 O9 2.834558 1_565
Ba2 O18 2.845326 1_465
Ba2 O21 2.845326 1_465
Ba2 O26 2.861110 1_455
Ba2 O24 2.861110 1_455
Ba2 O3 3.014907 1_455
Ba2 O20 3.024180 1_455
Ba3 O1 2.732320 1_555
Ba3 O6 2.795647 1_555
Ba3 O16 2.830182 1_555
Ba3 O9 2.842870 1_565
Ba3 O21 2.850675 1_565
Ba3 O26 2.858572 1_555
Ba3 O26 2.863455 1_455
Ba3 O9 2.887330 1_555
Ba3 O21 2.903680 1_455
Ba3 O20 3.220353 1_555
Ba3 O3 3.237962 1_455
Ba4 O13 2.724396 1_645
Ba4 O19 2.737131 1_655
Ba4 O4 2.834558 1_655
Ba4 O2 2.834558 1_655
Ba4 O7 2.845326 1_645
Ba4 O5 2.845326 1_645
Ba4 O15 2.861110 1_545
Ba4 O17 2.861110 1_545
Ba4 O13 3.014907 1_545
Ba4 O19 3.024180 1_545
Ba5 O25 2.846276 1_455
Ba5 O12 2.859390 1_565
Ba5 O22 2.861145 1_455
Ba5 O12 2.862168 1_555
Ba5 O25 2.882431 1_555
Ba5 O22 2.893261 1_565
Ba5 O0 2.910066 1_555
Ba5 O14 2.944468 1_555
Ba5 O8 2.944690 1_555
Ba5 O17 2.966881 1_555
Ba5 O7 2.996936 1_555
Ba5 O4 3.023520 1_555
Ba6 O16 2.846276 1_545
Ba6 O1 2.859390 1_655
Ba6 O6 2.861145 1_545
Ba6 O1 2.862168 1_555
Ba6 O16 2.882431 1_555
Ba6 O6 2.893261 1_655
Ba6 O11 2.910066 1_556
Ba6 O27 2.944468 1_556
Ba6 O23 2.944690 1_556
Ba6 O26 2.966881 1_555
Ba6 O21 2.996936 1_555
Ba6 O9 3.023520 1_555
Ba7 O14 2.846276 1_545
Ba7 O0 2.859390 1_655
Ba7 O8 2.861145 1_545
Ba7 O0 2.862168 1_555
Ba7 O14 2.882431 1_555
Ba7 O8 2.893261 1_655
Ba7 O12 2.910066 1_555
Ba7 O25 2.944468 1_555
Ba7 O22 2.944690 1_555
Ba7 O24 2.966881 1_555
Ba7 O18 2.996936 1_555
Ba7 O10 3.023520 1_555
Ba8 O11 2.732320 1_555
Ba8 O23 2.795647 1_555
Ba8 O27 2.830182 1_555
Ba8 O2 2.842870 1_655
Ba8 O5 2.850675 1_655
Ba8 O15 2.858572 1_555
Ba8 O15 2.863455 1_545
Ba8 O2 2.887330 1_555
Ba8 O5 2.903680 1_545
Ba8 O19 3.220353 1_555
Ba8 O13 3.237962 1_545
Ba9 O12 2.732320 1_555
Ba9 O22 2.795647 1_555
Ba9 O25 2.830182 1_555
Ba9 O4 2.842870 1_655
Ba9 O7 2.850675 1_655
Ba9 O17 2.858572 1_555
Ba9 O17 2.863455 1_545
Ba9 O4 2.887330 1_555
Ba9 O7 2.903680 1_545
Ba9 O19 3.220353 1_555
Ba9 O13 3.237962 1_545
Mn0 O13 1.909189 1_555
Mn0 O19 1.910789 1_555
Mn0 O5 1.937713 1_555
Mn0 O2 1.938934 1_555
Mn0 O15 1.977122 1_555
Mn1 O22 1.893960 1_455
Mn1 O8 1.893960 1_545
Mn1 O12 1.900375 1_555
Mn1 O0 1.900375 1_555
Mn1 O25 1.901872 1_445
Mn1 O14 1.901872 1_445
Mn2 O24 1.856706 1_445
Mn2 O18 1.934933 1_455
Mn2 O14 1.935358 1_445
Mn2 O10 1.937815 1_555
Mn2 O8 1.939646 1_545
Mn2 O0 1.994436 1_555
Mn3 O26 1.856706 1_445
Mn3 O21 1.934933 1_455
Mn3 O16 1.935358 1_445
Mn3 O9 1.937815 1_555
Mn3 O6 1.939646 1_545
Mn3 O1 1.994436 1_555
Mn4 O23 1.893960 1_455
Mn4 O6 1.893960 1_544
Mn4 O11 1.900375 1_555
Mn4 O1 1.900375 1_554
Mn4 O27 1.901872 1_445
Mn4 O16 1.901872 1_444
Mn5 O15 1.856706 1_445
Mn5 O5 1.934933 1_545
Mn5 O27 1.935358 1_445
Mn5 O2 1.937815 1_555
Mn5 O23 1.939646 1_455
Mn5 O11 1.994436 1_555
Mn6 O17 1.856706 1_445
Mn6 O7 1.934933 1_545
Mn6 O25 1.935358 1_445
Mn6 O4 1.937815 1_555
Mn6 O22 1.939646 1_455
Mn6 O12 1.994436 1_555
Mn7 O13 1.909189 1_555
Mn7 O19 1.910789 1_555
Mn7 O7 1.937713 1_555
Mn7 O4 1.938934 1_555
Mn7 O17 1.977122 1_555
Mn8 O3 1.909189 1_555
Mn8 O20 1.910789 1_555
Mn8 O18 1.937713 1_555
Mn8 O10 1.938934 1_555
Mn8 O24 1.977122 1_555
Mn9 O3 1.909189 1_555
Mn9 O20 1.910789 1_555
Mn9 O21 1.937713 1_555
Mn9 O9 1.938934 1_555
Mn9 O26 1.977122 1_555
