# generated using pymatgen
data_Li4Mn2(PO4)3
_symmetry_space_group_name_H-M   'P 1'
_cell_length_a   8.88844200
_cell_length_b   8.64876700
_cell_length_c   14.93486204
_cell_angle_alpha   56.52907429
_cell_angle_beta   90.00000000
_cell_angle_gamma   90.00000000
_symmetry_Int_Tables_number   1
_chemical_formula_structural   Li4Mn2(PO4)3
_chemical_formula_sum   'Li16 Mn8 P12 O48'
_cell_volume   957.70869544
_cell_formula_units_Z   4
loop_
 _symmetry_equiv_pos_site_id
 _symmetry_equiv_pos_as_xyz
  1  'x, y, z'
loop_
 _atom_site_type_symbol
 _atom_site_label
 _atom_site_symmetry_multiplicity
 _atom_site_fract_x
 _atom_site_fract_y
 _atom_site_fract_z
 _atom_site_occupancy
  Li  Li0  1  0.47398800  0.27853800  0.65219500  1
  Li  Li1  1  0.91187100  0.61830900  0.30626300  1
  Li  Li2  1  0.28130800  0.64416400  0.23115400  1
  Li  Li3  1  0.22637000  0.97715700  0.82071900  1
  Li  Li4  1  0.72637000  0.02284300  0.67928100  1
  Li  Li5  1  0.78130800  0.35583600  0.26884600  1
  Li  Li6  1  0.41187100  0.38169100  0.19373700  1
  Li  Li7  1  0.97398800  0.72146200  0.84780500  1
  Li  Li8  1  0.02601200  0.27853800  0.15219500  1
  Li  Li9  1  0.58812900  0.61830900  0.80626300  1
  Li  Li10  1  0.21869200  0.64416400  0.73115400  1
  Li  Li11  1  0.27363000  0.97715700  0.32071900  1
  Li  Li12  1  0.77363000  0.02284300  0.17928100  1
  Li  Li13  1  0.71869200  0.35583600  0.76884600  1
  Li  Li14  1  0.08812900  0.38169100  0.69373700  1
  Li  Li15  1  0.52601200  0.72146200  0.34780500  1
  Mn  Mn0  1  0.95199600  0.65762400  0.09527300  1
  Mn  Mn1  1  0.45199600  0.34237600  0.40472700  1
  Mn  Mn2  1  0.04405200  0.13812500  0.60361600  1
  Mn  Mn3  1  0.54405200  0.86187500  0.89638400  1
  Mn  Mn4  1  0.45594800  0.13812500  0.10361600  1
  Mn  Mn5  1  0.95594800  0.86187500  0.39638400  1
  Mn  Mn6  1  0.54800400  0.65762400  0.59527300  1
  Mn  Mn7  1  0.04800400  0.34237600  0.90472700  1
  P  P0  1  0.74821400  0.44713800  0.50642900  1
  P  P1  1  0.61279800  0.74770700  0.14556500  1
  P  P2  1  0.90092700  0.05691100  0.83889300  1
  P  P3  1  0.11279800  0.25229300  0.35443500  1
  P  P4  1  0.40092700  0.94308900  0.66110700  1
  P  P5  1  0.24821400  0.55286200  0.99357100  1
  P  P6  1  0.75178600  0.44713800  0.00642900  1
  P  P7  1  0.59907300  0.05691100  0.33889300  1
  P  P8  1  0.88720200  0.74770700  0.64556500  1
  P  P9  1  0.09907300  0.94308900  0.16110700  1
  P  P10  1  0.38720200  0.25229300  0.85443500  1
  P  P11  1  0.25178600  0.55286200  0.49357100  1
  O  O0  1  0.14268400  0.39492700  0.55824200  1
  O  O1  1  0.09886900  0.79725000  0.13139000  1
  O  O2  1  0.32794300  0.55496100  0.39704000  1
  O  O3  1  0.40888200  0.12507900  0.81116700  1
  O  O4  1  0.62599000  0.47892800  0.42302700  1
  O  O5  1  0.61225000  0.85801100  0.02305400  1
  O  O6  1  0.77550500  0.66038800  0.18505800  1
  O  O7  1  0.02364100  0.12086800  0.74990800  1
  O  O8  1  0.74068000  0.05960900  0.79812600  1
  O  O9  1  0.82125700  0.25597300  0.55808100  1
  O  O10  1  0.49144200  0.59470400  0.19871500  1
  O  O11  1  0.94876100  0.85772900  0.92866000  1
  O  O12  1  0.99144200  0.40529600  0.30128500  1
  O  O13  1  0.44876100  0.14227100  0.57134000  1
  O  O14  1  0.27550500  0.33961200  0.31494200  1
  O  O15  1  0.32125700  0.74402700  0.94191900  1
  O  O16  1  0.11225000  0.14198900  0.47694600  1
  O  O17  1  0.24068000  0.94039100  0.70187400  1
  O  O18  1  0.52364100  0.87913200  0.75009200  1
  O  O19  1  0.12599000  0.52107200  0.07697300  1
  O  O20  1  0.82794300  0.44503900  0.10296000  1
  O  O21  1  0.59886900  0.20275000  0.36861000  1
  O  O22  1  0.90888200  0.87492100  0.68883300  1
  O  O23  1  0.64268400  0.60507300  0.94175800  1
  O  O24  1  0.35731600  0.39492700  0.05824200  1
  O  O25  1  0.09111800  0.12507900  0.31116700  1
  O  O26  1  0.40113100  0.79725000  0.63139000  1
  O  O27  1  0.17205700  0.55496100  0.89704000  1
  O  O28  1  0.87401000  0.47892800  0.92302700  1
  O  O29  1  0.47635900  0.12086800  0.24990800  1
  O  O30  1  0.75932000  0.05960900  0.29812600  1
  O  O31  1  0.88775000  0.85801100  0.52305400  1
  O  O32  1  0.67874300  0.25597300  0.05808100  1
  O  O33  1  0.72449500  0.66038800  0.68505800  1
  O  O34  1  0.55123900  0.85772900  0.42866000  1
  O  O35  1  0.00855800  0.59470400  0.69871500  1
  O  O36  1  0.05123900  0.14227100  0.07134000  1
  O  O37  1  0.50855800  0.40529600  0.80128500  1
  O  O38  1  0.17874300  0.74402700  0.44191900  1
  O  O39  1  0.25932000  0.94039100  0.20187400  1
  O  O40  1  0.97635900  0.87913200  0.25009200  1
  O  O41  1  0.22449500  0.33961200  0.81494200  1
  O  O42  1  0.38775000  0.14198900  0.97694600  1
  O  O43  1  0.37401000  0.52107200  0.57697300  1
  O  O44  1  0.59111800  0.87492100  0.18883300  1
  O  O45  1  0.67205700  0.44503900  0.60296000  1
  O  O46  1  0.90113100  0.20275000  0.86861000  1
  O  O47  1  0.85731600  0.60507300  0.44175800  1
loop_
_geom_bond_atom_site_label_1
_geom_bond_atom_site_label_2
_geom_bond_distance
_geom_bond_site_symmetry_2
Li0 O43 1.962775 1_555
Li0 O3 2.063388 1_555
Li0 O13 2.113579 1_555
Li0 O45 2.132100 1_555
Li1 O40 2.008375 1_555
Li1 O12 2.012683 1_555
Li1 O47 2.021800 1_555
Li1 O6 2.037568 1_555
Li2 O10 2.033429 1_555
Li2 O1 2.103948 1_555
Li2 O2 2.190129 1_555
Li2 O14 2.206999 1_555
Li2 O39 2.357432 1_555
Li3 O17 1.972365 1_555
Li3 O15 2.006864 1_555
Li3 O3 2.021743 1_565
Li3 O7 2.111966 1_565
Li4 O8 1.972365 1_555
Li4 O9 2.006864 1_555
Li4 O22 2.021743 1_545
Li4 O18 2.111966 1_545
Li5 O12 2.033429 1_555
Li5 O21 2.103948 1_555
Li5 O20 2.190129 1_555
Li5 O6 2.206999 1_555
Li5 O30 2.357432 1_555
Li6 O29 2.008375 1_555
Li6 O10 2.012683 1_555
Li6 O24 2.021800 1_555
Li6 O14 2.037568 1_555
Li7 O28 1.962775 1_555
Li7 O22 2.063388 1_555
Li7 O11 2.113579 1_555
Li7 O27 2.132100 1_655
Li8 O19 1.962775 1_555
Li8 O25 2.063388 1_555
Li8 O36 2.113579 1_555
Li8 O20 2.132100 1_455
Li9 O18 2.008375 1_555
Li9 O37 2.012683 1_555
Li9 O23 2.021800 1_555
Li9 O33 2.037568 1_555
Li10 O35 2.033429 1_555
Li10 O26 2.103948 1_555
Li10 O27 2.190129 1_555
Li10 O41 2.206999 1_555
Li10 O17 2.357432 1_555
Li11 O39 1.972365 1_555
Li11 O38 2.006864 1_555
Li11 O25 2.021743 1_565
Li11 O29 2.111966 1_565
Li12 O30 1.972365 1_555
Li12 O32 2.006864 1_555
Li12 O44 2.021743 1_545
Li12 O40 2.111966 1_545
Li13 O37 2.033429 1_555
Li13 O46 2.103948 1_555
Li13 O45 2.190129 1_555
Li13 O33 2.206999 1_555
Li13 O8 2.357432 1_555
Li14 O7 2.008375 1_555
Li14 O35 2.012683 1_555
Li14 O0 2.021800 1_555
Li14 O41 2.037568 1_555
Li15 O4 1.962775 1_555
Li15 O44 2.063388 1_555
Li15 O34 2.113579 1_555
Li15 O2 2.132100 1_555
Mn0 O1 2.042543 1_655
Mn0 O19 2.053602 1_655
Mn0 O6 2.072421 1_555
Mn0 O20 2.092034 1_555
Mn0 O11 2.106585 1_554
Mn0 O12 2.635462 1_555
Mn1 O21 2.042543 1_555
Mn1 O4 2.053602 1_555
Mn1 O14 2.072421 1_555
Mn1 O2 2.092034 1_555
Mn1 O13 2.106585 1_555
Mn1 O10 2.635462 1_555
Mn2 O16 1.969196 1_555
Mn2 O7 2.114018 1_555
Mn2 O0 2.121456 1_555
Mn2 O9 2.158324 1_455
Mn2 O22 2.247121 1_445
Mn2 O17 2.316129 1_545
Mn3 O5 1.969196 1_556
Mn3 O18 2.114018 1_555
Mn3 O23 2.121456 1_555
Mn3 O15 2.158324 1_555
Mn3 O3 2.247121 1_565
Mn3 O8 2.316129 1_565
Mn4 O42 1.969196 1_554
Mn4 O29 2.114018 1_555
Mn4 O24 2.121456 1_555
Mn4 O32 2.158324 1_555
Mn4 O44 2.247121 1_545
Mn4 O39 2.316129 1_545
Mn5 O31 1.969196 1_555
Mn5 O40 2.114018 1_555
Mn5 O47 2.121456 1_555
Mn5 O38 2.158324 1_655
Mn5 O25 2.247121 1_665
Mn5 O30 2.316129 1_565
Mn6 O26 2.042543 1_555
Mn6 O43 2.053602 1_555
Mn6 O33 2.072421 1_555
Mn6 O45 2.092034 1_555
Mn6 O34 2.106585 1_555
Mn6 O37 2.635462 1_555
Mn7 O46 2.042543 1_455
Mn7 O28 2.053602 1_455
Mn7 O41 2.072421 1_555
Mn7 O27 2.092034 1_555
Mn7 O36 2.106585 1_556
Mn7 O35 2.635462 1_555
O0 P11 1.511243 1_555
O1 P9 1.550936 1_555
O2 P11 1.583702 1_555
O3 P10 1.565081 1_555
O4 P0 1.558710 1_555
O5 P1 1.527263 1_555
O6 P1 1.586954 1_555
O7 P2 1.565568 1_455
O8 P2 1.544129 1_555
O9 P0 1.530789 1_555
O10 P1 1.544693 1_555
O11 P2 1.548641 1_565
O12 P3 1.544693 1_655
O13 P4 1.548641 1_545
O14 P3 1.586954 1_555
O15 P5 1.530789 1_555
O16 P3 1.527263 1_555
O17 P4 1.544129 1_555
O18 P4 1.565568 1_555
O19 P5 1.558710 1_554
O20 P6 1.583702 1_555
O21 P7 1.550936 1_555
O22 P8 1.565081 1_555
O23 P6 1.511243 1_556
O24 P5 1.511243 1_554
O25 P3 1.565081 1_555
O26 P4 1.550936 1_555
O27 P5 1.583702 1_555
O28 P6 1.558710 1_556
O29 P7 1.565568 1_555
O30 P7 1.544129 1_555
O31 P8 1.527263 1_555
O32 P6 1.530789 1_555
O33 P8 1.586954 1_555
O34 P7 1.548641 1_565
O35 P8 1.544693 1_455
O36 P9 1.548641 1_545
O37 P10 1.544693 1_555
O38 P11 1.530789 1_555
O39 P9 1.544129 1_555
O40 P9 1.565568 1_655
O41 P10 1.586954 1_555
O42 P10 1.527263 1_555
O43 P11 1.558710 1_555
O44 P1 1.565081 1_555
O45 P0 1.583702 1_555
O46 P2 1.550936 1_555
O47 P0 1.511243 1_555
