# generated using pymatgen
data_LiMn7(O3F)3
_symmetry_space_group_name_H-M   'P 1'
_cell_length_a   6.06994167
_cell_length_b   6.06994167
_cell_length_c   6.06994262
_cell_angle_alpha   91.50345766
_cell_angle_beta   91.50345766
_cell_angle_gamma   91.50346272
_symmetry_Int_Tables_number   1
_chemical_formula_structural   LiMn7(O3F)3
_chemical_formula_sum   'Li1 Mn7 O9 F3'
_cell_volume   223.40703588
_cell_formula_units_Z   1
loop_
 _symmetry_equiv_pos_site_id
 _symmetry_equiv_pos_as_xyz
  1  'x, y, z'
loop_
 _atom_site_type_symbol
 _atom_site_label
 _atom_site_symmetry_multiplicity
 _atom_site_fract_x
 _atom_site_fract_y
 _atom_site_fract_z
 _atom_site_occupancy
  Li  Li0  1  0.52555600  0.52555600  0.52555600  1
  Mn  Mn0  1  0.76007100  0.07607900  0.55199500  1
  Mn  Mn1  1  0.94060400  0.42158100  0.24643200  1
  Mn  Mn2  1  0.42158100  0.24643200  0.94060400  1
  Mn  Mn3  1  0.98548200  0.98548200  0.98548200  1
  Mn  Mn4  1  0.55199500  0.76007100  0.07607900  1
  Mn  Mn5  1  0.07607900  0.55199500  0.76007100  1
  Mn  Mn6  1  0.24643200  0.94060400  0.42158100  1
  O  O0  1  0.96211100  0.08815700  0.30121700  1
  O  O1  1  0.69091400  0.05165400  0.87643300  1
  O  O2  1  0.84463700  0.40193200  0.57575600  1
  O  O3  1  0.87643300  0.69091400  0.05165400  1
  O  O4  1  0.40193200  0.57575600  0.84463700  1
  O  O5  1  0.08815700  0.30121700  0.96211100  1
  O  O6  1  0.57575600  0.84463700  0.40193200  1
  O  O7  1  0.30121700  0.96211100  0.08815700  1
  O  O8  1  0.05165400  0.87643300  0.69091400  1
  F  F0  1  0.40039600  0.21436600  0.58462500  1
  F  F1  1  0.58462500  0.40039600  0.21436600  1
  F  F2  1  0.21436600  0.58462500  0.40039600  1
loop_
_geom_bond_atom_site_label_1
_geom_bond_atom_site_label_2
_geom_bond_distance
_geom_bond_site_symmetry_2
Li0 O6 2.112921 1_555
Li0 O2 2.112921 1_555
Li0 O4 2.112921 1_555
Mn0 O6 1.962610 1_545
Mn0 O0 1.981306 1_555
Mn0 O2 2.030833 1_555
Mn0 O1 2.032696 1_555
Mn0 O8 2.323783 1_645
Mn1 O0 2.066532 1_555
Mn1 O3 2.081561 1_555
Mn1 O5 2.088937 1_654
Mn1 O2 2.102244 1_555
Mn2 O5 2.066532 1_555
Mn2 O1 2.081561 1_555
Mn2 O7 2.088937 1_546
Mn2 O4 2.102243 1_555
Mn3 O3 1.945761 1_556
Mn3 O1 1.945761 1_565
Mn3 O8 1.945761 1_655
Mn3 O5 2.009407 1_665
Mn3 O7 2.009407 1_656
Mn3 O0 2.009407 1_566
Mn4 O4 1.962610 1_554
Mn4 O7 1.981306 1_555
Mn4 O6 2.030833 1_555
Mn4 O3 2.032695 1_555
Mn4 O1 2.323783 1_564
Mn5 O2 1.962610 1_455
Mn5 O5 1.981306 1_555
Mn5 O4 2.030833 1_555
Mn5 O8 2.032695 1_555
Mn5 O3 2.323783 1_456
Mn6 O7 2.066533 1_555
Mn6 O8 2.081561 1_555
Mn6 O0 2.088937 1_465
Mn6 O6 2.102243 1_555
F0 Li0 2.061119 1_555
F0 Mn6 2.097098 1_545
F0 Mn2 2.164577 1_555
F0 Mn0 2.370724 1_555
F1 Li0 2.061120 1_555
F1 Mn2 2.097098 1_554
F1 Mn1 2.164577 1_555
F1 Mn4 2.370724 1_555
F2 Li0 2.061119 1_555
F2 Mn1 2.097098 1_455
F2 Mn6 2.164577 1_555
F2 Mn5 2.370724 1_555
