# generated using pymatgen
data_Li3Mn3FeO8
_symmetry_space_group_name_H-M   'P 1'
_cell_length_a   5.96808695
_cell_length_b   5.80627002
_cell_length_c   9.50893476
_cell_angle_alpha   90.60134672
_cell_angle_beta   91.48968496
_cell_angle_gamma   60.11807750
_symmetry_Int_Tables_number   1
_chemical_formula_structural   Li3Mn3FeO8
_chemical_formula_sum   'Li6 Mn6 Fe2 O16'
_cell_volume   285.60238206
_cell_formula_units_Z   2
loop_
 _symmetry_equiv_pos_site_id
 _symmetry_equiv_pos_as_xyz
  1  'x, y, z'
loop_
 _atom_site_type_symbol
 _atom_site_label
 _atom_site_symmetry_multiplicity
 _atom_site_fract_x
 _atom_site_fract_y
 _atom_site_fract_z
 _atom_site_occupancy
  Li  Li0  1  0.15554900  0.18320200  0.55650000  1
  Li  Li1  1  0.64834200  0.17987900  0.55253900  1
  Li  Li2  1  0.16804500  0.66498100  0.55607100  1
  Li  Li3  1  0.83607300  0.34227200  0.05811500  1
  Li  Li4  1  0.35481900  0.81985500  0.05962000  1
  Li  Li5  1  0.82552400  0.82105800  0.05655500  1
  Mn  Mn0  1  0.16818700  0.16998100  0.28807200  1
  Mn  Mn1  1  0.65797900  0.17330000  0.28667300  1
  Mn  Mn2  1  0.16541600  0.66921400  0.28900600  1
  Mn  Mn3  1  0.83937700  0.32795900  0.78643600  1
  Mn  Mn4  1  0.34365200  0.82653400  0.78406600  1
  Mn  Mn5  1  0.83763100  0.82587200  0.78240300  1
  Fe  Fe0  1  0.34803600  0.31932100  0.00560100  1
  Fe  Fe1  1  0.65398200  0.68069800  0.51233100  1
  O  O0  1  0.98147500  0.00022600  0.18167800  1
  O  O1  1  0.97017600  0.01143100  0.67440400  1
  O  O2  1  0.17324400  0.14207800  0.90539400  1
  O  O3  1  0.49756700  0.02391900  0.15970800  1
  O  O4  1  0.68274800  0.12905500  0.90641100  1
  O  O5  1  0.34575100  0.34265400  0.39920900  1
  O  O6  1  0.04720900  0.47362700  0.16107100  1
  O  O7  1  0.50388000  0.46878400  0.14868000  1
  O  O8  1  0.81345700  0.34243500  0.40603400  1
  O  O9  1  0.16730000  0.66796000  0.89483600  1
  O  O10  1  0.51747900  0.52776400  0.65423700  1
  O  O11  1  0.96085900  0.53717000  0.64533300  1
  O  O12  1  0.71021000  0.64360900  0.90006300  1
  O  O13  1  0.30302200  0.85681400  0.40977800  1
  O  O14  1  0.51986200  0.96544800  0.65983500  1
  O  O15  1  0.80339500  0.86265100  0.40970600  1
loop_
_geom_bond_atom_site_label_1
_geom_bond_atom_site_label_2
_geom_bond_distance
_geom_bond_site_symmetry_2
Li0 O11 1.980575 1_455
Li0 O14 2.113589 1_545
Li0 O13 2.158447 1_545
Li0 O1 2.159403 1_455
Li0 O8 2.250601 1_455
Li0 O5 2.355260 1_555
Li1 O1 2.006198 1_555
Li1 O10 2.012841 1_555
Li1 O14 2.048815 1_545
Li1 O15 2.099548 1_545
Li1 O5 2.114617 1_555
Li1 O8 2.197357 1_555
Li2 O11 1.944796 1_455
Li2 O10 2.028305 1_555
Li2 O1 2.088467 1_465
Li2 O13 2.193061 1_555
Li2 O5 2.213164 1_555
Li2 O15 2.318976 1_455
Li3 O7 1.958602 1_555
Li3 O6 2.001429 1_655
Li3 O0 2.087223 1_555
Li3 O12 2.138025 1_554
Li3 O2 2.301110 1_654
Li3 O4 2.339565 1_554
Li4 O7 1.963126 1_555
Li4 O3 1.993848 1_565
Li4 O2 2.186344 1_564
Li4 O0 2.278666 1_465
Li4 O9 2.312751 1_554
Li4 O12 2.412427 1_554
Li5 O3 1.989675 1_565
Li5 O6 2.030237 1_655
Li5 O0 2.060410 1_565
Li5 O12 2.090608 1_554
Li5 O4 2.105815 1_564
Li5 O9 2.375543 1_654
Mn0 O6 1.954230 1_555
Mn0 O13 1.957286 1_545
Mn0 O5 2.055040 1_555
Mn0 O0 2.061931 1_455
Mn0 O3 2.124904 1_555
Mn0 O8 2.174946 1_455
Mn1 O15 1.951148 1_545
Mn1 O5 1.959620 1_555
Mn1 O3 1.967665 1_555
Mn1 O0 1.969773 1_555
Mn1 O7 1.980749 1_555
Mn1 O8 1.985817 1_555
Mn2 O5 1.949692 1_555
Mn2 O0 1.954776 1_465
Mn2 O6 1.997986 1_555
Mn2 O13 1.998957 1_555
Mn2 O15 2.220521 1_455
Mn2 O7 2.231664 1_555
Mn3 O1 1.922116 1_555
Mn3 O12 1.927330 1_555
Mn3 O2 2.044559 1_655
Mn3 O10 2.073903 1_555
Mn3 O4 2.160530 1_555
Mn3 O11 2.182622 1_555
Mn4 O10 1.959094 1_555
Mn4 O2 1.970290 1_565
Mn4 O14 2.020337 1_555
Mn4 O9 2.026940 1_555
Mn4 O12 2.171272 1_555
Mn4 O1 2.174019 1_465
Mn5 O4 1.932743 1_565
Mn5 O1 1.938008 1_565
Mn5 O12 1.954732 1_555
Mn5 O11 1.955810 1_555
Mn5 O9 1.992086 1_655
Mn5 O14 1.996300 1_555
Fe0 O4 1.994387 1_554
Fe0 O2 2.013132 1_554
Fe0 O9 2.044645 1_554
Fe0 O7 2.045218 1_555
Fe0 O3 2.084517 1_555
Fe0 O6 2.172319 1_555
Fe1 O15 1.967015 1_555
Fe1 O8 1.982601 1_555
Fe1 O11 2.007267 1_555
Fe1 O14 2.008122 1_555
Fe1 O10 2.018938 1_555
Fe1 O13 2.040670 1_555
