# generated using pymatgen
data_Li6V3P6WO24
_symmetry_space_group_name_H-M   'P 1'
_cell_length_a   8.64633000
_cell_length_b   8.64874405
_cell_length_c   8.66201664
_cell_angle_alpha   62.24196270
_cell_angle_beta   62.03136600
_cell_angle_gamma   61.97328893
_symmetry_Int_Tables_number   1
_chemical_formula_structural   Li6V3P6WO24
_chemical_formula_sum   'Li6 V3 P6 W1 O24'
_cell_volume   479.33841392
_cell_formula_units_Z   1
loop_
 _symmetry_equiv_pos_site_id
 _symmetry_equiv_pos_as_xyz
  1  'x, y, z'
loop_
 _atom_site_type_symbol
 _atom_site_label
 _atom_site_symmetry_multiplicity
 _atom_site_fract_x
 _atom_site_fract_y
 _atom_site_fract_z
 _atom_site_occupancy
  Li  Li0  1  0.02694500  0.00576300  0.99953800  1
  Li  Li1  1  0.75370700  0.14760000  0.34525300  1
  Li  Li2  1  0.47365000  0.50487700  0.49276400  1
  Li  Li3  1  0.27138700  0.83655100  0.64676300  1
  Li  Li4  1  0.65025500  0.27055200  0.83379500  1
  Li  Li5  1  0.83216500  0.65006700  0.27376600  1
  V  V0  1  0.14092700  0.14617500  0.13808600  1
  V  V1  1  0.35726100  0.36036100  0.35379400  1
  V  V2  1  0.64356500  0.64960400  0.64754700  1
  P  P0  1  0.05186900  0.75062000  0.44248600  1
  P  P1  1  0.44455100  0.05639000  0.74954100  1
  P  P2  1  0.74995000  0.44569100  0.05112700  1
  P  P3  1  0.25771000  0.53743100  0.95588400  1
  P  P4  1  0.53858400  0.96110100  0.25799400  1
  P  P5  1  0.95361100  0.25627000  0.53317600  1
  W  W0  1  0.85721900  0.85376000  0.85501700  1
  O  O0  1  0.12376400  0.29769500  0.48826600  1
  O  O1  1  0.31628100  0.50049300  0.11284800  1
  O  O2  1  0.04905000  0.91800700  0.26336800  1
  O  O3  1  0.52657000  0.11672900  0.30722400  1
  O  O4  1  0.23775600  0.59221300  0.41939700  1
  O  O5  1  0.03284200  0.80468000  0.59900700  1
  O  O6  1  0.25847300  0.07013500  0.90839200  1
  O  O7  1  0.43813900  0.23612300  0.58295600  1
  O  O8  1  0.59714400  0.42093400  0.24306000  1
  O  O9  1  0.19342900  0.38593400  0.98798400  1
  O  O10  1  0.10871800  0.73525100  0.92505800  1
  O  O11  1  0.37397300  0.00757500  0.20505100  1
  O  O12  1  0.60084600  0.03063300  0.80799800  1
  O  O13  1  0.90406100  0.25281500  0.07159600  1
  O  O14  1  0.81015500  0.59859900  0.02807600  1
  O  O15  1  0.42062700  0.55460900  0.76585900  1
  O  O16  1  0.54893800  0.77352900  0.42097700  1
  O  O17  1  0.73218400  0.92209900  0.10650300  1
  O  O18  1  0.96792800  0.19769900  0.38214300  1
  O  O19  1  0.76841000  0.42317100  0.55310700  1
  O  O20  1  0.48403400  0.89132300  0.69331100  1
  O  O21  1  0.92373800  0.10699500  0.72869700  1
  O  O22  1  0.69431900  0.48310900  0.88943900  1
  O  O23  1  0.88526700  0.69583600  0.48415100  1
loop_
_geom_bond_atom_site_label_1
_geom_bond_atom_site_label_2
_geom_bond_distance
_geom_bond_site_symmetry_2
Li0 O6 2.023918 1_555
Li0 O2 2.119646 1_546
Li0 O13 2.137912 1_456
Li0 O10 2.411090 1_545
Li0 O21 2.526435 1_455
Li0 O17 2.602130 1_446
Li1 O13 2.085436 1_555
Li1 O8 2.090914 1_555
Li1 O18 2.271327 1_555
Li1 O3 2.284337 1_555
Li1 O2 2.411390 1_645
Li1 O7 2.550694 1_555
Li2 O4 2.110757 1_555
Li2 O7 2.204902 1_555
Li2 O8 2.216626 1_555
Li2 O15 2.395043 1_555
Li2 O16 2.430024 1_555
Li2 O19 2.545751 1_555
Li3 O10 2.137138 1_555
Li3 O15 2.150295 1_555
Li3 O16 2.289653 1_555
Li3 O20 2.336503 1_555
Li3 O5 2.437608 1_555
Li4 O21 2.111430 1_555
Li4 O19 2.155326 1_555
Li4 O22 2.326544 1_555
Li4 O15 2.342898 1_555
Li4 O12 2.427457 1_555
Li5 O17 2.114255 1_555
Li5 O16 2.155243 1_555
Li5 O23 2.305655 1_555
Li5 O19 2.313459 1_555
Li5 O14 2.470905 1_555
O0 P5 1.507588 1_455
O0 V1 1.990209 1_555
O1 P3 1.515359 1_554
O1 V1 1.970847 1_555
O2 P0 1.553614 1_555
O2 V0 2.091113 1_565
O3 P4 1.538184 1_545
O3 V1 2.021061 1_555
O4 P0 1.544207 1_555
O4 V1 1.993744 1_555
O5 P0 1.546866 1_555
O5 W0 2.125125 1_455
O6 P1 1.546642 1_555
O6 V0 2.029281 1_556
O7 P1 1.551221 1_555
O7 V1 2.047670 1_555
O8 P2 1.558654 1_555
O8 V1 2.045341 1_555
O9 P3 1.517584 1_555
O9 V0 2.004020 1_556
O10 P3 1.576021 1_555
O10 W0 2.170467 1_455
O11 P4 1.516741 1_545
O11 V0 2.003071 1_555
O12 P1 1.544701 1_555
O12 W0 2.121189 1_545
O13 P2 1.564245 1_555
O13 V0 2.052609 1_655
O14 P2 1.537284 1_555
O14 W0 2.114972 1_554
O15 P3 1.584210 1_555
O15 V2 2.071710 1_555
O16 P4 1.575300 1_555
O16 V2 2.095823 1_555
O17 P4 1.568147 1_555
O17 W0 2.157144 1_554
O18 P5 1.545937 1_555
O18 V0 2.046988 1_655
O19 P5 1.574239 1_555
O19 V2 2.084931 1_555
O20 P1 1.557436 1_565
O20 V2 1.994829 1_555
O21 P5 1.571045 1_555
O21 W0 2.164746 1_545
O22 P2 1.536565 1_556
O22 V2 2.028417 1_555
O23 P0 1.557008 1_655
O23 V2 2.003559 1_555
