# generated using pymatgen
data_Li6Ca3MnC6(O9F)2
_symmetry_space_group_name_H-M   'P 1'
_cell_length_a   6.71847300
_cell_length_b   7.73282490
_cell_length_c   8.66076525
_cell_angle_alpha   64.13604079
_cell_angle_beta   84.70118245
_cell_angle_gamma   78.11630130
_symmetry_Int_Tables_number   1
_chemical_formula_structural   Li6Ca3MnC6(O9F)2
_chemical_formula_sum   'Li6 Ca3 Mn1 C6 O18 F2'
_cell_volume   396.20111260
_cell_formula_units_Z   1
loop_
 _symmetry_equiv_pos_site_id
 _symmetry_equiv_pos_as_xyz
  1  'x, y, z'
loop_
 _atom_site_type_symbol
 _atom_site_label
 _atom_site_symmetry_multiplicity
 _atom_site_fract_x
 _atom_site_fract_y
 _atom_site_fract_z
 _atom_site_occupancy
  Li  Li0  1  0.51721000  0.43777500  0.32184000  1
  Li  Li1  1  0.68883200  0.04942000  0.76806700  1
  Li  Li2  1  0.18107500  0.04892400  0.78558700  1
  Li  Li3  1  0.02357900  0.76997500  0.66267800  1
  Li  Li4  1  0.67757700  0.83996600  0.21604500  1
  Li  Li5  1  0.18275200  0.82089300  0.22845600  1
  Ca  Ca0  1  0.02236100  0.38261800  0.36816300  1
  Ca  Ca1  1  0.84651300  0.27653800  0.02403500  1
  Ca  Ca2  1  0.34702700  0.30950100  0.96824700  1
  Mn  Mn0  1  0.52598800  0.75560400  0.63189700  1
  C  C0  1  0.99321000  0.68542800  0.00340700  1
  C  C1  1  0.80007800  0.05092300  0.39507100  1
  C  C2  1  0.31372600  0.05838900  0.38423200  1
  C  C3  1  0.49328500  0.68656100  0.99560100  1
  C  C4  1  0.80266700  0.44083300  0.62087800  1
  C  C5  1  0.30911200  0.45583700  0.60431600  1
  O  O0  1  0.96626700  0.70377300  0.14613600  1
  O  O1  1  0.47664500  0.70774500  0.13577100  1
  O  O2  1  0.25308700  0.52397000  0.44678700  1
  O  O3  1  0.90477100  0.26463700  0.66565600  1
  O  O4  1  0.38110800  0.27322900  0.69380700  1
  O  O5  1  0.53757900  0.51135700  0.00171500  1
  O  O6  1  0.77423600  0.24285700  0.31687400  1
  O  O7  1  0.98146200  0.83560800  0.85708200  1
  O  O8  1  0.31207500  0.23535500  0.26716800  1
  O  O9  1  0.73899900  0.96638100  0.55303400  1
  O  O10  1  0.20657400  0.03055500  0.52368700  1
  O  O11  1  0.46613000  0.83740000  0.84579600  1
  O  O12  1  0.88602600  0.95315100  0.31140000  1
  O  O13  1  0.42170800  0.91062700  0.36299800  1
  O  O14  1  0.03390000  0.50769100  0.01177500  1
  O  O15  1  0.78780900  0.52215300  0.72693800  1
  O  O16  1  0.28971500  0.57456700  0.68054400  1
  O  O17  1  0.71773600  0.53863900  0.47129600  1
  F  F0  1  0.14800200  0.09281500  0.00796300  1
  F  F1  1  0.64239700  0.09786600  0.99505700  1
loop_
_geom_bond_atom_site_label_1
_geom_bond_atom_site_label_2
_geom_bond_distance
_geom_bond_site_symmetry_2
Li0 O1 1.985200 1_555
Li0 O6 2.055845 1_555
Li0 O2 2.133459 1_555
Li0 O17 2.394691 1_555
Li0 O8 2.495869 1_555
Li0 O5 2.571966 1_555
Li1 O9 2.198309 1_545
Li1 O7 2.241058 1_545
Li1 O3 2.264950 1_555
Li1 O11 2.289360 1_545
Li1 O4 2.341793 1_555
Li2 O11 2.182945 1_545
Li2 O7 2.183916 1_445
Li2 O3 2.208285 1_455
Li2 O4 2.237478 1_555
Li2 O10 2.322458 1_555
Li3 O7 1.941870 1_455
Li3 O16 2.058795 1_555
Li3 O9 2.178311 1_455
Li3 O10 2.377304 1_565
Li3 O15 2.578398 1_455
Li4 O13 2.165481 1_555
Li4 O1 2.170970 1_555
Li4 O0 2.176181 1_555
Li4 O12 2.181382 1_555
Li4 O17 2.397147 1_555
Li5 O0 2.177464 1_455
Li5 O1 2.217458 1_555
Li5 O2 2.236278 1_555
Li5 O12 2.252336 1_455
Li5 O13 2.434420 1_555
Ca0 O6 2.332790 1_455
Ca0 O8 2.343539 1_555
Ca0 O0 2.364118 1_455
Ca0 O2 2.367173 1_555
Ca0 O3 2.442325 1_455
Ca0 O17 2.455134 1_455
Ca0 O10 2.545302 1_555
Ca0 O14 2.801895 1_555
Ca1 F1 2.235832 1_554
Ca1 F0 2.252970 1_655
Ca1 O14 2.351127 1_655
Ca1 O5 2.420366 1_555
Ca1 O6 2.446282 1_555
Ca1 O15 2.449238 1_554
Ca1 O12 2.633756 1_545
Ca2 F0 2.246963 1_556
Ca2 F1 2.255258 1_555
Ca2 O5 2.333609 1_556
Ca2 O8 2.394642 1_556
Ca2 O14 2.438508 1_556
Ca2 O16 2.440174 1_555
Ca2 O4 2.497048 1_555
Mn0 O15 2.166516 1_555
Mn0 O11 2.184862 1_555
Mn0 O13 2.207090 1_555
Mn0 O16 2.221313 1_555
Mn0 O9 2.231595 1_555
C0 O7 1.287474 1_554
C0 O0 1.296930 1_555
C0 O14 1.315673 1_655
C1 O12 1.284950 1_545
C1 O9 1.301499 1_545
C1 O6 1.315388 1_555
C2 O13 1.297304 1_545
C2 O8 1.298473 1_555
C2 O10 1.303742 1_555
C3 O1 1.286069 1_556
C3 O5 1.304291 1_556
C3 O11 1.308759 1_555
C4 O17 1.296093 1_555
C4 O3 1.296361 1_555
C4 O15 1.307792 1_555
C5 O4 1.289074 1_555
C5 O2 1.290996 1_555
C5 O16 1.326441 1_555
F0 Li2 2.081836 1_554
F0 Li5 2.121197 1_545
F1 Li4 2.062873 1_546
F1 Li1 2.140935 1_555
