# generated using pymatgen
data_Li3VSiO5
_symmetry_space_group_name_H-M   'P 1'
_cell_length_a   4.94606700
_cell_length_b   5.52986300
_cell_length_c   15.98894400
_cell_angle_alpha   90.00000000
_cell_angle_beta   90.00000000
_cell_angle_gamma   90.00000000
_symmetry_Int_Tables_number   1
_chemical_formula_structural   Li3VSiO5
_chemical_formula_sum   'Li12 V4 Si4 O20'
_cell_volume   437.31477292
_cell_formula_units_Z   4
loop_
 _symmetry_equiv_pos_site_id
 _symmetry_equiv_pos_as_xyz
  1  'x, y, z'
loop_
 _atom_site_type_symbol
 _atom_site_label
 _atom_site_symmetry_multiplicity
 _atom_site_fract_x
 _atom_site_fract_y
 _atom_site_fract_z
 _atom_site_occupancy
  Li  Li0  1  0.00072300  0.66635100  0.59093800  1
  Li  Li1  1  0.00072300  0.16635100  0.90906200  1
  Li  Li2  1  0.50424500  0.33600400  0.99365200  1
  Li  Li3  1  0.50424500  0.83600400  0.50634800  1
  Li  Li4  1  0.50508000  0.32669600  0.80510100  1
  Li  Li5  1  0.50508000  0.82669600  0.69489900  1
  Li  Li6  1  0.50072300  0.33364900  0.40906200  1
  Li  Li7  1  0.50072300  0.83364900  0.09093800  1
  Li  Li8  1  0.00424500  0.66399600  0.00634800  1
  Li  Li9  1  0.00424500  0.16399600  0.49365200  1
  Li  Li10  1  0.00508000  0.17330400  0.30510100  1
  Li  Li11  1  0.00508000  0.67330400  0.19489900  1
  V  V0  1  0.00413600  0.17572700  0.69757000  1
  V  V1  1  0.00413600  0.67572700  0.80243000  1
  V  V2  1  0.50413600  0.32427300  0.19757000  1
  V  V3  1  0.50413600  0.82427300  0.30243000  1
  Si  Si0  1  0.00524900  0.16254800  0.09682300  1
  Si  Si1  1  0.00524900  0.66254800  0.40317700  1
  Si  Si2  1  0.50524900  0.33745200  0.59682300  1
  Si  Si3  1  0.50524900  0.83745200  0.90317700  1
  O  O0  1  0.09598000  0.34043700  0.79822000  1
  O  O1  1  0.09598000  0.84043700  0.70178000  1
  O  O2  1  0.10426700  0.38142300  0.39829600  1
  O  O3  1  0.10426700  0.88142300  0.10170400  1
  O  O4  1  0.10686000  0.31387200  0.01563500  1
  O  O5  1  0.10686000  0.81387200  0.48436500  1
  O  O6  1  0.10339600  0.30817400  0.18550300  1
  O  O7  1  0.10339600  0.80817400  0.31449700  1
  O  O8  1  0.16506500  0.32711700  0.60071400  1
  O  O9  1  0.16506500  0.82711700  0.89928600  1
  O  O10  1  0.59598000  0.65956300  0.20178000  1
  O  O11  1  0.59598000  0.15956300  0.29822000  1
  O  O12  1  0.60426700  0.61857700  0.60170400  1
  O  O13  1  0.60426700  0.11857700  0.89829600  1
  O  O14  1  0.60686100  0.18612800  0.51563500  1
  O  O15  1  0.60686100  0.68612800  0.98436500  1
  O  O16  1  0.60339600  0.19182600  0.68550300  1
  O  O17  1  0.60339600  0.69182600  0.81449700  1
  O  O18  1  0.66506500  0.17288300  0.10071400  1
  O  O19  1  0.66506500  0.67288300  0.39928600  1
loop_
_geom_bond_atom_site_label_1
_geom_bond_atom_site_label_2
_geom_bond_distance
_geom_bond_site_symmetry_2
Li0 O5 1.960777 1_555
Li0 O12 1.986088 1_455
Li0 O8 2.050419 1_555
Li0 O1 2.071129 1_555
Li1 O4 1.960777 1_556
Li1 O13 1.986088 1_455
Li1 O9 2.050419 1_545
Li1 O0 2.071129 1_555
Li2 O4 2.000421 1_556
Li2 O13 2.003722 1_555
Li2 O15 2.007058 1_555
Li2 O18 2.092047 1_556
Li3 O5 2.000421 1_555
Li3 O12 2.003722 1_555
Li3 O14 2.007058 1_565
Li3 O19 2.092047 1_555
Li4 O13 1.945647 1_555
Li4 O0 2.027849 1_555
Li4 O17 2.082277 1_555
Li4 O16 2.109357 1_555
Li5 O12 1.945647 1_555
Li5 O1 2.027849 1_555
Li5 O16 2.082277 1_565
Li5 O17 2.109357 1_555
Li6 O14 1.960778 1_555
Li6 O2 1.986088 1_555
Li6 O19 2.050419 1_555
Li6 O11 2.071129 1_555
Li7 O15 1.960778 1_554
Li7 O3 1.986088 1_555
Li7 O18 2.050419 1_565
Li7 O10 2.071129 1_555
Li8 O15 2.000416 1_454
Li8 O3 2.003722 1_555
Li8 O4 2.007057 1_555
Li8 O9 2.092047 1_554
Li9 O14 2.000416 1_455
Li9 O2 2.003722 1_555
Li9 O5 2.007057 1_545
Li9 O8 2.092047 1_555
Li10 O2 1.945647 1_555
Li10 O11 2.027849 1_455
Li10 O7 2.082277 1_545
Li10 O6 2.109357 1_555
Li11 O3 1.945647 1_555
Li11 O10 2.027849 1_455
Li11 O6 2.082277 1_555
Li11 O7 2.109357 1_555
O0 V0 1.904144 1_555
O0 V1 1.910132 1_555
O1 V1 1.904144 1_555
O1 V0 1.910132 1_565
O2 Si1 1.631770 1_555
O3 Si0 1.631770 1_565
O4 Si0 1.624164 1_555
O5 Si1 1.624164 1_555
O6 Si0 1.701349 1_555
O6 V2 1.993444 1_555
O7 Si1 1.701349 1_555
O7 V3 1.993444 1_555
O8 Si2 1.684692 1_555
O8 V0 1.932006 1_555
O9 Si3 1.684692 1_555
O9 V1 1.932006 1_555
O10 V3 1.904144 1_555
O10 V2 1.910132 1_555
O11 V2 1.904144 1_555
O11 V3 1.910132 1_545
O12 Si2 1.631770 1_555
O13 Si3 1.631770 1_545
O14 Si2 1.624165 1_555
O15 Si3 1.624165 1_555
O16 Si2 1.701349 1_555
O16 V0 1.993444 1_655
O17 Si3 1.701349 1_555
O17 V1 1.993444 1_655
O18 Si0 1.684692 1_655
O18 V2 1.932006 1_555
O19 Si1 1.684692 1_655
O19 V3 1.932006 1_555
