# generated using pymatgen
data_Li2Fe(Si2O5)2
_symmetry_space_group_name_H-M   'P 1'
_cell_length_a   6.93134864
_cell_length_b   7.77173396
_cell_length_c   9.57782454
_cell_angle_alpha   100.73642464
_cell_angle_beta   79.80072171
_cell_angle_gamma   62.80136987
_symmetry_Int_Tables_number   1
_chemical_formula_structural   Li2Fe(Si2O5)2
_chemical_formula_sum   'Li4 Fe2 Si8 O20'
_cell_volume   430.08400244
_cell_formula_units_Z   2
loop_
 _symmetry_equiv_pos_site_id
 _symmetry_equiv_pos_as_xyz
  1  'x, y, z'
loop_
 _atom_site_type_symbol
 _atom_site_label
 _atom_site_symmetry_multiplicity
 _atom_site_fract_x
 _atom_site_fract_y
 _atom_site_fract_z
 _atom_site_occupancy
  Li  Li0  1  0.29589100  0.30493900  0.40821600  1
  Li  Li1  1  0.40091400  0.80802300  0.04672400  1
  Li  Li2  1  0.59908600  0.19197700  0.95327600  1
  Li  Li3  1  0.70410900  0.69506100  0.59178400  1
  Fe  Fe0  1  0.23066800  0.69899000  0.57406900  1
  Fe  Fe1  1  0.76933200  0.30101000  0.42593100  1
  Si  Si0  1  0.12129600  0.26605400  0.14433000  1
  Si  Si1  1  0.23086500  0.06611100  0.81577800  1
  Si  Si2  1  0.21784000  0.59354900  0.22469700  1
  Si  Si3  1  0.36843200  0.37593500  0.74789700  1
  Si  Si4  1  0.63156800  0.62406500  0.25210300  1
  Si  Si5  1  0.78216000  0.40645100  0.77530300  1
  Si  Si6  1  0.76913500  0.93388900  0.18422200  1
  Si  Si7  1  0.87870400  0.73394600  0.85567000  1
  O  O0  1  0.11383300  0.20228800  0.29292700  1
  O  O1  1  0.96988000  0.22226900  0.82176000  1
  O  O2  1  0.28992600  0.36541300  0.11438500  1
  O  O3  1  0.23034200  0.06613600  0.99208800  1
  O  O4  1  0.14973800  0.59949000  0.39425400  1
  O  O5  1  0.12463700  0.56303100  0.86188800  1
  O  O6  1  0.39014500  0.16130100  0.76332900  1
  O  O7  1  0.41135900  0.39005900  0.58140600  1
  O  O8  1  0.44187500  0.61694800  0.17074600  1
  O  O9  1  0.66328500  0.16072400  0.28718000  1
  O  O10  1  0.33671500  0.83927600  0.71282000  1
  O  O11  1  0.55812500  0.38305200  0.82925400  1
  O  O12  1  0.58864100  0.60994100  0.41859400  1
  O  O13  1  0.60985500  0.83869900  0.23667100  1
  O  O14  1  0.87536300  0.43696900  0.13811300  1
  O  O15  1  0.85026200  0.40051000  0.60574600  1
  O  O16  1  0.76965800  0.93386400  0.00791200  1
  O  O17  1  0.71007400  0.63458700  0.88561500  1
  O  O18  1  0.03012000  0.77773100  0.17824000  1
  O  O19  1  0.88616700  0.79771200  0.70707300  1
loop_
_geom_bond_atom_site_label_1
_geom_bond_atom_site_label_2
_geom_bond_distance
_geom_bond_site_symmetry_2
Li0 O4 2.080031 1_555
Li0 O7 2.091665 1_555
Li0 O0 2.129251 1_555
Li0 O9 2.224010 1_555
Li1 O8 2.021890 1_555
Li1 O3 2.034154 1_564
Li1 O17 2.050243 1_554
Li2 O11 2.021890 1_555
Li2 O16 2.034154 1_546
Li2 O2 2.050243 1_556
Li3 O15 2.080031 1_555
Li3 O12 2.091665 1_555
Li3 O19 2.129251 1_555
Li3 O10 2.224010 1_555
Fe0 O10 2.008419 1_555
Fe0 O4 2.030079 1_555
Fe0 O7 2.164060 1_555
Fe0 O19 2.190231 1_455
Fe0 O12 2.364466 1_555
Fe1 O9 2.008419 1_555
Fe1 O15 2.030079 1_555
Fe1 O12 2.164060 1_555
Fe1 O0 2.190231 1_655
Fe1 O7 2.364466 1_555
O0 Si0 1.591860 1_555
O1 Si1 1.636765 1_655
O1 Si5 1.636970 1_555
O2 Si2 1.677729 1_555
O2 Si0 1.683326 1_555
O3 Si0 1.674380 1_556
O3 Si1 1.687992 1_555
O4 Si2 1.594661 1_555
O5 Si7 1.633794 1_455
O5 Si3 1.634250 1_555
O6 Si3 1.642323 1_555
O6 Si1 1.645358 1_555
O7 Si3 1.603260 1_555
O8 Si2 1.649381 1_555
O8 Si4 1.659000 1_555
O9 Si6 1.591298 1_545
O10 Si1 1.591298 1_565
O11 Si5 1.649381 1_555
O11 Si3 1.659000 1_555
O12 Si4 1.603260 1_555
O13 Si4 1.642323 1_555
O13 Si6 1.645358 1_555
O14 Si0 1.633790 1_655
O14 Si4 1.634247 1_555
O15 Si5 1.594661 1_555
O16 Si7 1.674380 1_554
O16 Si6 1.687992 1_555
O17 Si5 1.677729 1_555
O17 Si7 1.683326 1_555
O18 Si6 1.636765 1_455
O18 Si2 1.636970 1_555
O19 Si7 1.591860 1_555
