# generated using pymatgen
data_LiCu2(CO3)3
_symmetry_space_group_name_H-M   'P 1'
_cell_length_a   7.76399049
_cell_length_b   7.75039448
_cell_length_c   7.59941246
_cell_angle_alpha   111.18824927
_cell_angle_beta   108.97628703
_cell_angle_gamma   108.72761468
_symmetry_Int_Tables_number   1
_chemical_formula_structural   LiCu2(CO3)3
_chemical_formula_sum   'Li2 Cu4 C6 O18'
_cell_volume   349.77817891
_cell_formula_units_Z   2
loop_
 _symmetry_equiv_pos_site_id
 _symmetry_equiv_pos_as_xyz
  1  'x, y, z'
loop_
 _atom_site_type_symbol
 _atom_site_label
 _atom_site_symmetry_multiplicity
 _atom_site_fract_x
 _atom_site_fract_y
 _atom_site_fract_z
 _atom_site_occupancy
  Li  Li0  1  0.25388800  0.52103500  0.71998900  1
  Li  Li1  1  0.83751200  0.84418800  0.83748700  1
  Cu  Cu0  1  0.01751600  0.55970800  0.14747400  1
  Cu  Cu1  1  0.16075900  0.02499600  0.55988400  1
  Cu  Cu2  1  0.47192000  0.43055100  0.43727600  1
  Cu  Cu3  1  0.56571900  0.15775000  0.01948800  1
  C  C0  1  0.15536400  0.27984600  0.97075200  1
  C  C1  1  0.26997000  0.95736100  0.13791300  1
  C  C2  1  0.38643200  0.79807500  0.57208300  1
  C  C3  1  0.57842600  0.40141100  0.80588200  1
  C  C4  1  0.80641700  0.59411200  0.40251900  1
  C  C5  1  0.95479900  0.15939400  0.28621000  1
  O  O0  1  0.06815000  0.38912300  0.92895700  1
  O  O1  1  0.06822600  0.08192400  0.83176500  1
  O  O2  1  0.07903600  0.81000000  0.04151300  1
  O  O3  1  0.09265900  0.35523100  0.39094200  1
  O  O4  1  0.38260600  0.96815400  0.69780000  1
  O  O5  1  0.31415900  0.73532300  0.37134700  1
  O  O6  1  0.38225600  0.33648000  0.74942500  1
  O  O7  1  0.46579700  0.71141100  0.66289300  1
  O  O8  1  0.38160400  0.93618500  0.04545100  1
  O  O9  1  0.33553500  0.37195400  0.14092700  1
  O  O10  1  0.34540200  0.11967900  0.32993800  1
  O  O11  1  0.69661700  0.38078800  0.95618300  1
  O  O12  1  0.66360800  0.49122100  0.72252100  1
  O  O13  1  0.73908700  0.69366700  0.51090700  1
  O  O14  1  0.72598200  0.39191300  0.32170200  1
  O  O15  1  0.96123000  0.70135700  0.38171400  1
  O  O16  1  0.93982700  0.05109800  0.38290400  1
  O  O17  1  0.82002000  0.05972500  0.08176200  1
loop_
_geom_bond_atom_site_label_1
_geom_bond_atom_site_label_2
_geom_bond_distance
_geom_bond_site_symmetry_2
Li0 O3 2.019814 1_555
Li0 O6 2.022632 1_555
Li0 O7 2.107234 1_555
Li1 O13 2.050743 1_555
Li1 O17 2.079192 1_566
Li1 O1 2.143524 1_665
Li1 O2 2.171566 1_656
Li1 O12 2.281080 1_555
Li1 O7 2.400828 1_555
Cu0 O5 1.953529 1_555
Cu0 O0 1.957387 1_554
Cu0 O15 1.991545 1_455
Cu0 O11 2.052401 1_454
Cu0 O2 2.328934 1_555
Cu1 O16 1.926459 1_455
Cu1 O4 1.976428 1_545
Cu1 O6 2.017335 1_555
Cu1 O15 2.051946 1_445
Cu1 O1 2.343002 1_555
Cu2 O9 1.949441 1_555
Cu2 O12 1.962306 1_555
Cu2 O10 1.993450 1_555
Cu2 O13 2.116217 1_555
Cu2 O7 2.258736 1_555
Cu2 O14 2.463305 1_555
Cu2 O3 2.684889 1_555
Cu3 O14 1.948073 1_555
Cu3 O8 1.970588 1_545
Cu3 O4 1.989522 1_544
Cu3 O11 2.010837 1_554
Cu3 O17 2.305388 1_555
C0 O1 1.274382 1_555
C0 O9 1.285974 1_556
C0 O0 1.303661 1_555
C1 O2 1.280760 1_555
C1 O8 1.294577 1_555
C1 O10 1.303514 1_565
C2 O5 1.268950 1_555
C2 O7 1.277252 1_555
C2 O4 1.335843 1_555
C3 O12 1.272331 1_555
C3 O6 1.297619 1_555
C3 O11 1.310238 1_555
C4 O13 1.275420 1_555
C4 O14 1.284310 1_555
C4 O15 1.318200 1_555
C5 O3 1.269792 1_655
C5 O17 1.289057 1_555
C5 O16 1.302571 1_555
