# generated using pymatgen
data_NiTeO4
_symmetry_space_group_name_H-M   'P 1'
_cell_length_a   5.36528783
_cell_length_b   6.19182650
_cell_length_c   10.29146712
_cell_angle_alpha   72.50091061
_cell_angle_beta   79.56249556
_cell_angle_gamma   89.99396218
_symmetry_Int_Tables_number   1
_chemical_formula_structural   NiTeO4
_chemical_formula_sum   'Ni4 Te4 O16'
_cell_volume   320.13530414
_cell_formula_units_Z   4
loop_
 _symmetry_equiv_pos_site_id
 _symmetry_equiv_pos_as_xyz
  1  'x, y, z'
loop_
 _atom_site_type_symbol
 _atom_site_label
 _atom_site_symmetry_multiplicity
 _atom_site_fract_x
 _atom_site_fract_y
 _atom_site_fract_z
 _atom_site_occupancy
  Ni  Ni0  1  0.25044600  0.87486400  0.74994900  1
  Ni  Ni1  1  0.74956100  0.62515400  0.25005200  1
  Ni  Ni2  1  0.24998900  0.37491700  0.74984600  1
  Ni  Ni3  1  0.74993300  0.12505100  0.25019700  1
  Te  Te0  1  0.24994700  0.37502600  0.24996100  1
  Te  Te1  1  0.24992100  0.87504400  0.24996900  1
  Te  Te2  1  0.75007800  0.12497800  0.75003100  1
  Te  Te3  1  0.75011100  0.62495800  0.75002300  1
  O  O0  1  0.40702700  0.57756200  0.84479200  1
  O  O1  1  0.40704100  0.07766100  0.84478900  1
  O  O2  1  0.90696100  0.32771300  0.34487800  1
  O  O3  1  0.90697500  0.82761300  0.34487700  1
  O  O4  1  0.09304600  0.17229100  0.65511800  1
  O  O5  1  0.09303000  0.67238500  0.65512400  1
  O  O6  1  0.59297900  0.92244000  0.15520400  1
  O  O7  1  0.59296400  0.42233700  0.15521200  1
  O  O8  1  0.35431300  0.06895900  0.36211900  1
  O  O9  1  0.35436000  0.56898200  0.36208600  1
  O  O10  1  0.85441900  0.81894900  0.86207700  1
  O  O11  1  0.85442700  0.31894600  0.86208100  1
  O  O12  1  0.14557900  0.68105600  0.13791800  1
  O  O13  1  0.14557000  0.18105300  0.13791300  1
  O  O14  1  0.64568300  0.43103900  0.63787600  1
  O  O15  1  0.64563800  0.93102400  0.63790800  1
loop_
_geom_bond_atom_site_label_1
_geom_bond_atom_site_label_2
_geom_bond_distance
_geom_bond_site_symmetry_2
Ni0 O0 2.064803 1_555
Ni0 O1 2.066325 1_565
Ni0 O5 2.066910 1_555
Ni0 O4 2.067516 1_565
Ni0 O15 2.195318 1_555
Ni0 O10 2.199490 1_455
Ni1 O6 2.064746 1_555
Ni1 O7 2.066423 1_555
Ni1 O3 2.066812 1_555
Ni1 O2 2.067566 1_555
Ni1 O9 2.195338 1_555
Ni1 O12 2.199466 1_655
Ni2 O4 2.065612 1_555
Ni2 O1 2.066123 1_555
Ni2 O5 2.066227 1_555
Ni2 O0 2.067586 1_555
Ni2 O14 2.197442 1_555
Ni2 O11 2.197650 1_455
Ni3 O2 2.065651 1_555
Ni3 O7 2.066162 1_555
Ni3 O3 2.066187 1_545
Ni3 O6 2.067559 1_545
Ni3 O8 2.196947 1_555
Ni3 O13 2.198154 1_655
O0 Te3 1.898209 1_555
O1 Te2 1.897955 1_555
O2 Te0 1.898193 1_655
O3 Te1 1.897978 1_655
O4 Te2 1.898097 1_455
O5 Te3 1.897824 1_455
O6 Te1 1.898075 1_555
O7 Te0 1.897834 1_555
O8 Te1 2.038451 1_545
O8 Te0 2.038578 1_555
O9 Te0 2.038482 1_555
O9 Te1 2.038560 1_555
O10 Te3 2.037854 1_555
O10 Te2 2.037961 1_565
O11 Te2 2.037797 1_555
O11 Te3 2.037872 1_555
O12 Te1 2.037885 1_555
O12 Te0 2.038010 1_555
O13 Te0 2.037860 1_555
O13 Te1 2.037922 1_545
O14 Te3 2.038518 1_555
O14 Te2 2.038598 1_555
O15 Te2 2.038511 1_565
O15 Te3 2.038641 1_555
