# generated using pymatgen
data_Li2Ti3ZnO8
_symmetry_space_group_name_H-M   'P 1'
_cell_length_a   8.44692300
_cell_length_b   8.44692300
_cell_length_c   8.44692300
_cell_angle_alpha   90.00000000
_cell_angle_beta   90.00000000
_cell_angle_gamma   90.00000000
_symmetry_Int_Tables_number   1
_chemical_formula_structural   Li2Ti3ZnO8
_chemical_formula_sum   'Li8 Ti12 Zn4 O32'
_cell_volume   602.69224851
_cell_formula_units_Z   4
loop_
 _symmetry_equiv_pos_site_id
 _symmetry_equiv_pos_as_xyz
  1  'x, y, z'
loop_
 _atom_site_type_symbol
 _atom_site_label
 _atom_site_symmetry_multiplicity
 _atom_site_fract_x
 _atom_site_fract_y
 _atom_site_fract_z
 _atom_site_occupancy
  Li  Li0  1  0.00212200  0.49787800  0.50212200  1
  Li  Li1  1  0.12482400  0.87517600  0.37517600  1
  Li  Li2  1  0.37517600  0.12482400  0.87517600  1
  Li  Li3  1  0.49787800  0.50212200  0.00212200  1
  Li  Li4  1  0.50212200  0.00212200  0.49787800  1
  Li  Li5  1  0.62482400  0.62482400  0.62482400  1
  Li  Li6  1  0.87517600  0.37517600  0.12482400  1
  Li  Li7  1  0.99787800  0.99787800  0.99787800  1
  Ti  Ti0  1  0.12039300  0.62732500  0.13491700  1
  Ti  Ti1  1  0.12732500  0.36508300  0.87960700  1
  Ti  Ti2  1  0.13491700  0.12039300  0.62732500  1
  Ti  Ti3  1  0.36508300  0.87960700  0.12732500  1
  Ti  Ti4  1  0.37267500  0.63491700  0.37960700  1
  Ti  Ti5  1  0.37960700  0.37267500  0.63491700  1
  Ti  Ti6  1  0.62039300  0.87267500  0.86508300  1
  Ti  Ti7  1  0.62732500  0.13491700  0.12039300  1
  Ti  Ti8  1  0.63491700  0.37960700  0.37267500  1
  Ti  Ti9  1  0.86508300  0.62039300  0.87267500  1
  Ti  Ti10  1  0.87267500  0.86508300  0.62039300  1
  Ti  Ti11  1  0.87960700  0.12732500  0.36508300  1
  Zn  Zn0  1  0.24787400  0.74787400  0.75212600  1
  Zn  Zn1  1  0.25212600  0.25212600  0.25212600  1
  Zn  Zn2  1  0.74787400  0.75212600  0.24787400  1
  Zn  Zn3  1  0.75212600  0.24787400  0.74787400  1
  O  O0  1  0.10702700  0.12722700  0.38968100  1
  O  O1  1  0.11031900  0.89297300  0.62722700  1
  O  O2  1  0.11208600  0.61208600  0.88791400  1
  O  O3  1  0.12310900  0.14443200  0.85859100  1
  O  O4  1  0.12722700  0.38968100  0.10702700  1
  O  O5  1  0.13888300  0.36111700  0.63888300  1
  O  O6  1  0.14140900  0.62310900  0.35556800  1
  O  O7  1  0.14443200  0.85859100  0.12310900  1
  O  O8  1  0.35556800  0.14140900  0.62310900  1
  O  O9  1  0.35859100  0.37689100  0.85556800  1
  O  O10  1  0.36111700  0.63888300  0.13888300  1
  O  O11  1  0.37277300  0.61031900  0.60702700  1
  O  O12  1  0.37689100  0.85556800  0.35859100  1
  O  O13  1  0.38791400  0.38791400  0.38791400  1
  O  O14  1  0.38968100  0.10702700  0.12722700  1
  O  O15  1  0.39297300  0.87277300  0.88968100  1
  O  O16  1  0.60702700  0.37277300  0.61031900  1
  O  O17  1  0.61031900  0.60702700  0.37277300  1
  O  O18  1  0.61208600  0.88791400  0.11208600  1
  O  O19  1  0.62310900  0.35556800  0.14140900  1
  O  O20  1  0.62722700  0.11031900  0.89297300  1
  O  O21  1  0.63888300  0.13888300  0.36111700  1
  O  O22  1  0.64140900  0.87689100  0.64443200  1
  O  O23  1  0.64443200  0.64140900  0.87689100  1
  O  O24  1  0.85556800  0.35859100  0.37689100  1
  O  O25  1  0.85859100  0.12310900  0.14443200  1
  O  O26  1  0.86111700  0.86111700  0.86111700  1
  O  O27  1  0.87277300  0.88968100  0.39297300  1
  O  O28  1  0.87689100  0.64443200  0.64140900  1
  O  O29  1  0.88791400  0.11208600  0.61208600  1
  O  O30  1  0.88968100  0.39297300  0.87277300  1
  O  O31  1  0.89297300  0.62722700  0.11031900  1
loop_
_geom_bond_atom_site_label_1
_geom_bond_atom_site_label_2
_geom_bond_distance
_geom_bond_site_symmetry_2
Li0 O5 2.000882 1_555
Li0 O24 2.008908 1_455
Li0 O28 2.008908 1_455
Li0 O6 2.008908 1_555
Li1 O1 2.137870 1_555
Li1 O27 2.137870 1_455
Li1 O0 2.137870 1_565
Li1 O6 2.140213 1_555
Li1 O7 2.140213 1_555
Li1 O12 2.140213 1_555
Li2 O20 2.137870 1_555
Li2 O15 2.137870 1_545
Li2 O14 2.137870 1_556
Li2 O8 2.140213 1_555
Li2 O3 2.140213 1_555
Li2 O9 2.140213 1_555
Li3 O10 2.000882 1_555
Li3 O9 2.008908 1_554
Li3 O23 2.008908 1_554
Li3 O19 2.008908 1_555
Li4 O21 2.000882 1_555
Li4 O12 2.008908 1_545
Li4 O22 2.008908 1_545
Li4 O8 2.008908 1_555
Li5 O16 2.137870 1_555
Li5 O17 2.137870 1_555
Li5 O11 2.137870 1_555
Li5 O22 2.140213 1_555
Li5 O28 2.140213 1_555
Li5 O23 2.140213 1_555
Li6 O30 2.137870 1_554
Li6 O31 2.137870 1_555
Li6 O4 2.137870 1_655
Li6 O19 2.140213 1_555
Li6 O25 2.140213 1_555
Li6 O24 2.140213 1_555
Li7 O26 2.000882 1_555
Li7 O25 2.008908 1_566
Li7 O3 2.008908 1_665
Li7 O7 2.008908 1_656
O0 Ti11 1.932203 1_455
O0 Zn1 1.991305 1_555
O0 Ti2 2.021962 1_555
O1 Ti2 1.932203 1_565
O1 Zn0 1.991305 1_555
O1 Ti10 2.021962 1_455
O2 Zn0 1.986646 1_555
O2 Ti0 2.091560 1_556
O2 Ti9 2.091560 1_455
O2 Ti1 2.091560 1_555
O3 Ti1 1.872596 1_555
O3 Ti2 1.966542 1_555
O4 Ti1 1.932203 1_554
O4 Zn1 1.991305 1_555
O4 Ti0 2.021962 1_555
O5 Ti2 2.035995 1_555
O5 Ti5 2.035995 1_555
O5 Ti1 2.035995 1_555
O6 Ti0 1.872596 1_555
O6 Ti4 1.966542 1_555
O7 Ti3 1.872596 1_555
O7 Ti0 1.966542 1_555
O8 Ti2 1.872596 1_555
O8 Ti5 1.966542 1_555
O9 Ti5 1.872596 1_555
O9 Ti1 1.966542 1_555
O10 Ti0 2.035995 1_555
O10 Ti4 2.035995 1_555
O10 Ti3 2.035995 1_555
O11 Ti4 1.932203 1_555
O11 Zn0 1.991305 1_555
O11 Ti5 2.021962 1_555
O12 Ti4 1.872596 1_555
O12 Ti3 1.966542 1_555
O13 Zn1 1.986646 1_555
O13 Ti5 2.091560 1_555
O13 Ti4 2.091560 1_555
O13 Ti8 2.091560 1_555
O14 Ti3 1.932203 1_545
O14 Zn1 1.991305 1_555
O14 Ti7 2.021962 1_555
O15 Ti6 1.932203 1_555
O15 Zn0 1.991305 1_555
O15 Ti3 2.021962 1_556
O16 Ti5 1.932203 1_555
O16 Zn3 1.991305 1_555
O16 Ti8 2.021962 1_555
O17 Ti8 1.932203 1_555
O17 Zn2 1.991305 1_555
O17 Ti4 2.021962 1_555
O18 Zn2 1.986646 1_555
O18 Ti7 2.091560 1_565
O18 Ti6 2.091560 1_554
O18 Ti3 2.091560 1_555
O19 Ti7 1.872596 1_555
O19 Ti8 1.966542 1_555
O20 Ti7 1.932203 1_556
O20 Zn3 1.991305 1_555
O20 Ti6 2.021962 1_545
O21 Ti7 2.035995 1_555
O21 Ti8 2.035995 1_555
O21 Ti11 2.035995 1_555
O22 Ti6 1.872596 1_555
O22 Ti10 1.966542 1_555
O23 Ti9 1.872596 1_555
O23 Ti6 1.966542 1_555
O24 Ti8 1.872596 1_555
O24 Ti11 1.966542 1_555
O25 Ti11 1.872596 1_555
O25 Ti7 1.966542 1_555
O26 Ti6 2.035995 1_555
O26 Ti9 2.035995 1_555
O26 Ti10 2.035995 1_555
O27 Ti10 1.932203 1_555
O27 Zn2 1.991305 1_555
O27 Ti11 2.021962 1_565
O28 Ti10 1.872596 1_555
O28 Ti9 1.966542 1_555
O29 Zn3 1.986646 1_555
O29 Ti2 2.091560 1_655
O29 Ti10 2.091560 1_545
O29 Ti11 2.091560 1_555
O30 Ti9 1.932203 1_555
O30 Zn3 1.991305 1_555
O30 Ti1 2.021962 1_655
O31 Ti0 1.932203 1_655
O31 Zn2 1.991305 1_555
O31 Ti9 2.021962 1_554
