# generated using pymatgen
data_Li4Mn3Fe2Sn3O16
_symmetry_space_group_name_H-M   'P 1'
_cell_length_a   6.06379785
_cell_length_b   6.05359707
_cell_length_c   9.71626562
_cell_angle_alpha   89.58098198
_cell_angle_beta   89.27621337
_cell_angle_gamma   119.99795187
_symmetry_Int_Tables_number   1
_chemical_formula_structural   Li4Mn3Fe2Sn3O16
_chemical_formula_sum   'Li4 Mn3 Fe2 Sn3 O16'
_cell_volume   308.82237149
_cell_formula_units_Z   1
loop_
 _symmetry_equiv_pos_site_id
 _symmetry_equiv_pos_as_xyz
  1  'x, y, z'
loop_
 _atom_site_type_symbol
 _atom_site_label
 _atom_site_symmetry_multiplicity
 _atom_site_fract_x
 _atom_site_fract_y
 _atom_site_fract_z
 _atom_site_occupancy
  Li  Li0  1  0.34524000  0.67301600  0.88469400  1
  Li  Li1  1  0.96757600  0.98297800  0.99315500  1
  Li  Li2  1  0.97777700  0.98860200  0.50239200  1
  Li  Li3  1  0.67524500  0.33864900  0.39459600  1
  Mn  Mn0  1  0.66246700  0.83179600  0.21824500  1
  Mn  Mn1  1  0.83003600  0.66086900  0.71526900  1
  Mn  Mn2  1  0.83107900  0.17072600  0.71505000  1
  Fe  Fe0  1  0.33817100  0.66890700  0.49926600  1
  Fe  Fe1  1  0.68284200  0.34397500  0.98870800  1
  Sn  Sn0  1  0.17216400  0.83325500  0.21394700  1
  Sn  Sn1  1  0.17155300  0.33888400  0.21305800  1
  Sn  Sn2  1  0.33863900  0.16899400  0.71451100  1
  O  O0  1  0.14818700  0.82835900  0.60155300  1
  O  O1  1  0.03529300  0.51637600  0.34368000  1
  O  O2  1  0.34584300  0.67436600  0.09562400  1
  O  O3  1  0.99244100  0.99553900  0.31835500  1
  O  O4  1  0.97716800  0.98804000  0.80857900  1
  O  O5  1  0.14842100  0.32041900  0.60176800  1
  O  O6  1  0.49478100  0.96544000  0.33780800  1
  O  O7  1  0.49522400  0.52988800  0.33667400  1
  O  O8  1  0.31905400  0.15958000  0.08869800  1
  O  O9  1  0.67222500  0.83408700  0.61003300  1
  O  O10  1  0.53490800  0.49511800  0.83455400  1
  O  O11  1  0.53664700  0.03974700  0.83486700  1
  O  O12  1  0.68986900  0.34613700  0.60728900  1
  O  O13  1  0.82827300  0.67424900  0.10331500  1
  O  O14  1  0.96078100  0.48028300  0.82918000  1
  O  O15  1  0.82809700  0.15202300  0.10297300  1
loop_
_geom_bond_atom_site_label_1
_geom_bond_atom_site_label_2
_geom_bond_distance
_geom_bond_site_symmetry_2
Li0 O11 1.975761 1_565
Li0 O10 1.987931 1_555
Li0 O2 2.049570 1_556
Li0 O14 2.099581 1_455
Li1 O4 1.793139 1_555
Li1 O13 1.929077 1_556
Li1 O15 1.938992 1_566
Li1 O8 2.081643 1_666
Li2 O3 1.788382 1_555
Li2 O9 1.898797 1_555
Li2 O0 1.987674 1_655
Li2 O5 2.003270 1_665
Li3 O1 1.945514 1_655
Li3 O7 2.029342 1_555
Li3 O6 2.041450 1_545
Li3 O12 2.069459 1_555
Mn0 O7 1.944014 1_555
Mn0 O6 1.960734 1_555
Mn0 O3 2.003074 1_555
Mn0 O15 2.003501 1_565
Mn0 O13 2.028174 1_555
Mn0 O2 2.063656 1_555
Mn1 O10 1.920358 1_555
Mn1 O4 1.954576 1_555
Mn1 O12 1.971209 1_555
Mn1 O14 1.979829 1_555
Mn1 O0 1.986071 1_655
Mn1 O9 2.018213 1_555
Mn2 O11 1.920940 1_555
Mn2 O4 1.954188 1_545
Mn2 O12 1.967897 1_555
Mn2 O5 1.980865 1_655
Mn2 O14 1.984586 1_555
Mn2 O9 2.052885 1_545
Fe0 O5 2.068663 1_555
Fe0 O9 2.075285 1_555
Fe0 O0 2.084144 1_555
Fe0 O6 2.191299 1_555
Fe0 O7 2.212181 1_555
Fe0 O1 2.214898 1_555
Fe1 O13 2.075909 1_556
Fe1 O15 2.094735 1_556
Fe1 O14 2.109166 1_555
Fe1 O8 2.126925 1_556
Fe1 O10 2.172521 1_555
Fe1 O11 2.202987 1_555
O0 Sn2 2.115247 1_565
O1 Sn0 2.074532 1_555
O1 Sn1 2.080651 1_555
O2 Sn1 2.081526 1_555
O2 Sn0 2.086744 1_555
O3 Sn1 2.056676 1_665
O3 Sn0 2.058910 1_655
O4 Sn2 2.091302 1_665
O5 Sn2 2.108362 1_555
O6 Sn0 2.103318 1_555
O7 Sn1 2.107673 1_555
O8 Sn0 2.086796 1_545
O8 Sn1 2.097813 1_555
O10 Sn2 2.096116 1_555
O11 Sn2 2.093508 1_555
O12 Sn2 2.101223 1_555
O13 Sn0 2.120162 1_655
O15 Sn1 2.116445 1_655
