# generated using pymatgen
data_LiCo15O16
_symmetry_space_group_name_H-M   'P 1'
_cell_length_a   6.04476400
_cell_length_b   6.79513136
_cell_length_c   7.95404146
_cell_angle_alpha   89.92973541
_cell_angle_beta   100.80880189
_cell_angle_gamma   102.88735489
_symmetry_Int_Tables_number   1
_chemical_formula_structural   LiCo15O16
_chemical_formula_sum   'Li1 Co15 O16'
_cell_volume   312.55053804
_cell_formula_units_Z   1
loop_
 _symmetry_equiv_pos_site_id
 _symmetry_equiv_pos_as_xyz
  1  'x, y, z'
loop_
 _atom_site_type_symbol
 _atom_site_label
 _atom_site_symmetry_multiplicity
 _atom_site_fract_x
 _atom_site_fract_y
 _atom_site_fract_z
 _atom_site_occupancy
  Li  Li0  1  0.00000000  0.00000000  0.00000000  1
  Co  Co0  1  0.24819100  0.24634200  0.75244700  1
  Co  Co1  1  0.50000000  0.00000000  0.00000000  1
  Co  Co2  1  0.75161300  0.24724200  0.75145600  1
  Co  Co3  1  0.12364200  0.12207000  0.36655100  1
  Co  Co4  1  0.62361200  0.12406400  0.37286600  1
  Co  Co5  1  0.62735600  0.62676900  0.87740700  1
  Co  Co6  1  0.12488300  0.62759900  0.87732000  1
  Co  Co7  1  0.00000000  0.50000000  0.50000000  1
  Co  Co8  1  0.50000000  0.50000000  0.50000000  1
  Co  Co9  1  0.37264400  0.37323100  0.12259300  1
  Co  Co10  1  0.87511700  0.37240100  0.12268000  1
  Co  Co11  1  0.37638800  0.87593600  0.62713400  1
  Co  Co12  1  0.87635800  0.87793000  0.63344900  1
  Co  Co13  1  0.24838700  0.75275800  0.24854400  1
  Co  Co14  1  0.75180900  0.75365800  0.24755300  1
  O  O0  1  0.43603100  0.18754500  0.56047200  1
  O  O1  1  0.56039900  0.31041100  0.93454800  1
  O  O2  1  0.06545300  0.32184900  0.93499600  1
  O  O3  1  0.80952700  0.06563300  0.18967000  1
  O  O4  1  0.93711600  0.18527000  0.56325900  1
  O  O5  1  0.32088200  0.06248700  0.18586000  1
  O  O6  1  0.68619400  0.43821800  0.31131500  1
  O  O7  1  0.31380600  0.56178200  0.68868500  1
  O  O8  1  0.81167300  0.56426500  0.68560900  1
  O  O9  1  0.18832700  0.43573500  0.31439100  1
  O  O10  1  0.19047300  0.93436700  0.81033000  1
  O  O11  1  0.67911800  0.93751300  0.81414000  1
  O  O12  1  0.56396900  0.81245500  0.43952800  1
  O  O13  1  0.06288400  0.81473000  0.43674100  1
  O  O14  1  0.93454700  0.67815100  0.06500400  1
  O  O15  1  0.43960100  0.68958900  0.06545200  1
loop_
_geom_bond_atom_site_label_1
_geom_bond_atom_site_label_2
_geom_bond_distance
_geom_bond_site_symmetry_2
Li0 O10 2.163963 1_544
Li0 O3 2.163963 1_455
Li0 O11 2.164882 1_444
Li0 O5 2.164882 1_555
Li0 O14 2.212429 1_445
Li0 O2 2.212429 1_554
Co0 O2 2.109010 1_555
Co0 O1 2.111616 1_555
Co0 O10 2.134397 1_545
Co0 O4 2.136502 1_455
Co0 O0 2.152829 1_555
Co0 O7 2.168522 1_555
Co1 O5 2.084472 1_555
Co1 O11 2.084472 1_544
Co1 O10 2.132217 1_544
Co1 O3 2.132217 1_555
Co1 O15 2.139740 1_545
Co1 O1 2.139740 1_554
Co2 O1 2.120207 1_555
Co2 O4 2.125376 1_555
Co2 O2 2.126329 1_655
Co2 O11 2.130292 1_545
Co2 O0 2.163483 1_555
Co2 O8 2.183217 1_555
Co3 O3 2.099122 1_455
Co3 O5 2.123791 1_555
Co3 O13 2.130719 1_545
Co3 O9 2.134194 1_555
Co3 O0 2.162719 1_555
Co3 O4 2.187017 1_455
Co4 O3 2.087709 1_555
Co4 O5 2.091727 1_555
Co4 O0 2.133746 1_555
Co4 O12 2.150123 1_545
Co4 O4 2.152021 1_555
Co4 O6 2.155572 1_555
Co5 O14 2.114084 1_556
Co5 O15 2.135843 1_556
Co5 O11 2.138108 1_555
Co5 O8 2.144589 1_555
Co5 O7 2.145180 1_555
Co5 O1 2.161032 1_555
Co6 O2 2.093448 1_555
Co6 O14 2.119451 1_456
Co6 O10 2.119958 1_555
Co6 O15 2.147593 1_556
Co6 O7 2.151170 1_555
Co6 O8 2.156457 1_455
Co7 O9 2.126007 1_555
Co7 O8 2.126007 1_455
Co7 O6 2.146020 1_455
Co7 O7 2.146020 1_555
Co7 O4 2.162841 1_455
Co7 O13 2.162841 1_555
Co8 O8 2.123931 1_555
Co8 O9 2.123931 1_555
Co8 O6 2.131027 1_555
Co8 O7 2.131027 1_555
Co8 O12 2.142377 1_555
Co8 O0 2.142377 1_555
Co9 O2 2.114084 1_554
Co9 O1 2.135843 1_554
Co9 O5 2.138108 1_555
Co9 O9 2.144589 1_555
Co9 O6 2.145180 1_555
Co9 O15 2.161032 1_555
Co10 O14 2.093448 1_555
Co10 O2 2.119451 1_654
Co10 O3 2.119958 1_555
Co10 O1 2.147593 1_554
Co10 O6 2.151170 1_555
Co10 O9 2.156457 1_655
Co11 O10 2.087709 1_555
Co11 O11 2.091727 1_555
Co11 O12 2.133746 1_555
Co11 O0 2.150123 1_565
Co11 O13 2.152021 1_555
Co11 O7 2.155572 1_555
Co12 O10 2.099122 1_655
Co12 O11 2.123791 1_555
Co12 O4 2.130719 1_565
Co12 O8 2.134194 1_555
Co12 O12 2.162719 1_555
Co12 O13 2.187017 1_655
Co13 O15 2.120207 1_555
Co13 O13 2.125376 1_555
Co13 O14 2.126329 1_455
Co13 O5 2.130292 1_565
Co13 O12 2.163483 1_555
Co13 O9 2.183217 1_555
Co14 O14 2.109010 1_555
Co14 O15 2.111616 1_555
Co14 O3 2.134397 1_565
Co14 O13 2.136502 1_655
Co14 O12 2.152829 1_555
Co14 O6 2.168522 1_555
