# generated using pymatgen
data_Li4Ti2Cr3Fe3O16
_symmetry_space_group_name_H-M   'P 1'
_cell_length_a   5.87738319
_cell_length_b   5.87738319
_cell_length_c   9.44894463
_cell_angle_alpha   89.97082724
_cell_angle_beta   89.97082724
_cell_angle_gamma   60.06069164
_symmetry_Int_Tables_number   1
_chemical_formula_structural   Li4Ti2Cr3Fe3O16
_chemical_formula_sum   'Li4 Ti2 Cr3 Fe3 O16'
_cell_volume   282.84411662
_cell_formula_units_Z   1
loop_
 _symmetry_equiv_pos_site_id
 _symmetry_equiv_pos_as_xyz
  1  'x, y, z'
loop_
 _atom_site_type_symbol
 _atom_site_label
 _atom_site_symmetry_multiplicity
 _atom_site_fract_x
 _atom_site_fract_y
 _atom_site_fract_z
 _atom_site_occupancy
  Li  Li0  1  0.32941500  0.32941500  0.89565500  1
  Li  Li1  1  0.00344200  0.00344200  0.99452400  1
  Li  Li2  1  0.00125900  0.00125900  0.49418500  1
  Li  Li3  1  0.66544400  0.66544400  0.39672200  1
  Ti  Ti0  1  0.33836400  0.33836400  0.48507800  1
  Ti  Ti1  1  0.66692200  0.66692200  0.99942000  1
  Cr  Cr0  1  0.16927300  0.65975600  0.21372300  1
  Cr  Cr1  1  0.65975600  0.16927300  0.21372300  1
  Cr  Cr2  1  0.82996000  0.82996000  0.71371600  1
  Fe  Fe0  1  0.17041200  0.17041200  0.21716200  1
  Fe  Fe1  1  0.33961700  0.83024800  0.71456300  1
  Fe  Fe2  1  0.83024800  0.33961700  0.71456300  1
  O  O0  1  0.17160300  0.67121200  0.59840800  1
  O  O1  1  0.48044100  0.48044100  0.34331400  1
  O  O2  1  0.33068300  0.33068300  0.10392100  1
  O  O3  1  0.00081200  0.00081200  0.30828400  1
  O  O4  1  0.00358200  0.00358200  0.80659400  1
  O  O5  1  0.67121200  0.17160300  0.59840800  1
  O  O6  1  0.03896700  0.48451400  0.34950300  1
  O  O7  1  0.48451400  0.03896700  0.34950300  1
  O  O8  1  0.83263900  0.83263900  0.09184000  1
  O  O9  1  0.16346000  0.16346000  0.60146300  1
  O  O10  1  0.51432400  0.95711000  0.83709500  1
  O  O11  1  0.95711000  0.51432400  0.83709500  1
  O  O12  1  0.66200900  0.66200900  0.60982500  1
  O  O13  1  0.33804200  0.82665300  0.09214200  1
  O  O14  1  0.51996800  0.51996800  0.83491100  1
  O  O15  1  0.82665300  0.33804200  0.09214200  1
loop_
_geom_bond_atom_site_label_1
_geom_bond_atom_site_label_2
_geom_bond_distance
_geom_bond_site_symmetry_2
Li0 O2 1.967944 1_556
Li0 O10 1.975426 1_545
Li0 O11 1.975426 1_455
Li0 O14 2.022056 1_555
Li1 O4 1.775740 1_555
Li1 O13 1.938836 1_546
Li1 O15 1.938836 1_456
Li1 O8 1.965987 1_446
Li2 O3 1.756577 1_555
Li2 O9 1.937591 1_555
Li2 O0 1.948225 1_545
Li2 O5 1.948225 1_455
Li3 O1 1.949487 1_555
Li3 O6 1.954135 1_655
Li3 O7 1.954135 1_565
Li3 O12 2.013881 1_555
Cr0 O3 1.953618 1_565
Cr0 O2 1.971472 1_555
Cr0 O1 2.007955 1_555
Cr0 O6 2.019507 1_555
Cr0 O13 2.057856 1_555
Cr0 O8 2.065865 1_455
Cr1 O3 1.953618 1_655
Cr1 O2 1.971472 1_555
Cr1 O1 2.007955 1_555
Cr1 O7 2.019507 1_555
Cr1 O15 2.057856 1_555
Cr1 O8 2.065865 1_545
Cr2 O12 1.971551 1_555
Cr2 O4 1.973323 1_665
Cr2 O11 1.993463 1_555
Cr2 O10 1.993463 1_555
Cr2 O5 2.053856 1_565
Cr2 O0 2.053856 1_655
Fe0 O3 1.928372 1_555
Fe0 O2 1.950175 1_555
Fe0 O6 2.036271 1_555
Fe0 O7 2.036271 1_555
Fe0 O13 2.112470 1_545
Fe0 O15 2.112470 1_455
Fe1 O12 1.917403 1_555
Fe1 O4 1.919767 1_565
Fe1 O10 1.927978 1_555
Fe1 O14 1.952431 1_555
Fe1 O0 1.994213 1_555
Fe1 O9 2.006110 1_565
Fe2 O12 1.917403 1_555
Fe2 O4 1.919767 1_655
Fe2 O11 1.927978 1_555
Fe2 O14 1.952431 1_555
Fe2 O5 1.994213 1_555
Fe2 O9 2.006110 1_655
O0 Ti0 2.005384 1_555
O1 Ti0 1.970441 1_555
O5 Ti0 2.005384 1_555
O6 Ti0 1.991929 1_555
O7 Ti0 1.991929 1_555
O8 Ti1 1.899610 1_554
O9 Ti0 2.091733 1_555
O10 Ti1 2.130187 1_555
O11 Ti1 2.130187 1_555
O13 Ti1 1.890248 1_554
O14 Ti1 2.157683 1_555
O15 Ti1 1.890248 1_554
