# generated using pymatgen
data_Na2BiO3
_symmetry_space_group_name_H-M   'P 1'
_cell_length_a   11.23918480
_cell_length_b   10.69583990
_cell_length_c   5.86664548
_cell_angle_alpha   79.67402475
_cell_angle_beta   69.43049867
_cell_angle_gamma   30.89140020
_symmetry_Int_Tables_number   1
_chemical_formula_structural   Na2BiO3
_chemical_formula_sum   'Na8 Bi4 O12'
_cell_volume   327.84972567
_cell_formula_units_Z   4
loop_
 _symmetry_equiv_pos_site_id
 _symmetry_equiv_pos_as_xyz
  1  'x, y, z'
loop_
 _atom_site_type_symbol
 _atom_site_label
 _atom_site_symmetry_multiplicity
 _atom_site_fract_x
 _atom_site_fract_y
 _atom_site_fract_z
 _atom_site_occupancy
  Na  Na0  1  0.99496581  0.99465849  0.50504317  1
  Na  Na1  1  0.41910171  0.41926364  0.58063558  1
  Na  Na2  1  0.82879960  0.82938043  0.67071581  1
  Na  Na3  1  0.25022791  0.25094557  0.75005596  1
  Na  Na4  1  0.74493955  0.74472993  0.25509930  1
  Na  Na5  1  0.66912405  0.66920244  0.83042563  1
  Na  Na6  1  0.57876255  0.57917451  0.42096727  1
  Na  Na7  1  0.50053900  0.50036269  0.99958995  1
  Bi  Bi0  1  0.91460886  0.91447468  0.08543799  1
  Bi  Bi1  1  0.33197527  0.33176627  0.16818792  1
  Bi  Bi2  1  0.16453014  0.16448267  0.33550309  1
  Bi  Bi3  1  0.08188805  0.08192603  0.91812728  1
  O  O0  1  0.13649635  0.68892172  0.30761529  1
  O  O1  1  0.68904936  0.13637677  0.86700710  1
  O  O2  1  0.07523804  0.60639012  0.93174152  1
  O  O3  1  0.60647000  0.07517166  0.38665924  1
  O  O4  1  0.02060084  0.46152472  0.48496515  1
  O  O5  1  0.46165026  0.02044929  0.03292807  1
  O  O6  1  0.38301418  0.94236633  0.56106627  1
  O  O7  1  0.94236923  0.38304449  0.11364141  1
  O  O8  1  0.86333621  0.31826399  0.64361294  1
  O  O9  1  0.31833015  0.86329335  0.17477732  1
  O  O10  1  0.21712324  0.76501394  0.78843997  1
  O  O11  1  0.76507064  0.21702926  0.22954477  1
loop_
_geom_bond_atom_site_label_1
_geom_bond_atom_site_label_2
_geom_bond_distance
_geom_bond_site_symmetry_2
Na0 O0 2.387676 1_655
Na0 O1 2.388992 1_565
Na0 O11 2.440168 1_565
Na0 O10 2.441085 1_655
Na0 O9 2.490073 1_655
Na0 O8 2.490966 1_565
Na1 O11 2.361131 1_555
Na1 O10 2.361953 1_555
Na1 O3 2.406329 1_555
Na1 O2 2.406933 1_555
Na1 O0 2.677431 1_555
Na1 O1 2.680768 1_555
Na2 O1 2.409980 1_565
Na2 O0 2.410012 1_655
Na2 O3 2.452209 1_565
Na2 O2 2.457301 1_655
Na2 O5 2.577103 1_566
Na2 O4 2.577699 1_655
Na3 O5 2.393370 1_556
Na3 O4 2.395903 1_555
Na3 O7 2.453982 1_456
Na3 O6 2.458698 1_545
Na3 O2 2.569923 1_555
Na3 O3 2.574912 1_555
Na4 O7 2.387931 1_555
Na4 O6 2.389298 1_555
Na4 O5 2.440519 1_565
Na4 O4 2.440782 1_655
Na4 O2 2.489880 1_654
Na4 O3 2.490563 1_565
Na5 O4 2.361081 1_655
Na5 O5 2.362419 1_566
Na5 O8 2.405591 1_555
Na5 O9 2.407166 1_556
Na5 O6 2.676679 1_555
Na5 O7 2.681423 1_556
Na6 O6 2.410834 1_555
Na6 O7 2.411847 1_555
Na6 O9 2.453439 1_555
Na6 O8 2.456320 1_555
Na6 O10 2.575255 1_555
Na6 O11 2.576037 1_555
Na7 O11 2.394227 1_556
Na7 O10 2.394600 1_555
Na7 O1 2.453852 1_555
Na7 O0 2.454044 1_556
Na7 O8 2.573969 1_555
Na7 O9 2.574189 1_556
Bi0 O1 2.137236 1_564
Bi0 O0 2.137595 1_655
Bi0 O2 2.154512 1_654
Bi0 O3 2.154797 1_565
Bi0 O10 2.158423 1_654
Bi0 O11 2.158566 1_565
Bi1 O1 2.354123 1_554
Bi1 O0 2.354135 1_555
Bi1 O4 2.376062 1_555
Bi1 O5 2.376308 1_555
Bi1 O3 2.382952 1_555
Bi1 O2 2.384001 1_554
Bi2 O7 2.137383 1_455
Bi2 O6 2.137512 1_545
Bi2 O9 2.154380 1_545
Bi2 O8 2.154538 1_455
Bi2 O4 2.158919 1_555
Bi2 O5 2.159019 1_555
Bi3 O6 2.353531 1_545
Bi3 O7 2.353765 1_456
Bi3 O10 2.376621 1_545
Bi3 O11 2.376796 1_456
Bi3 O8 2.383425 1_455
Bi3 O9 2.383530 1_546
