# generated using pymatgen
data_Ta2Tl2P7HO24
_symmetry_space_group_name_H-M   'P 1'
_cell_length_a   18.76365100
_cell_length_b   5.24410500
_cell_length_c   10.93798543
_cell_angle_alpha   84.57682414
_cell_angle_beta   90.00000000
_cell_angle_gamma   90.00000000
_symmetry_Int_Tables_number   1
_chemical_formula_structural   Ta2Tl2P7HO24
_chemical_formula_sum   'Ta4 Tl4 P14 H2 O48'
_cell_volume   1071.46433655
_cell_formula_units_Z   2
loop_
 _symmetry_equiv_pos_site_id
 _symmetry_equiv_pos_as_xyz
  1  'x, y, z'
loop_
 _atom_site_type_symbol
 _atom_site_label
 _atom_site_symmetry_multiplicity
 _atom_site_fract_x
 _atom_site_fract_y
 _atom_site_fract_z
 _atom_site_occupancy
  Ta  Ta0  1  0.97620600  0.79867800  0.80516500  1
  Ta  Ta1  1  0.52379400  0.79867800  0.80516500  1
  Ta  Ta2  1  0.02379400  0.20132200  0.19483500  1
  Ta  Ta3  1  0.47620600  0.20132200  0.19483500  1
  Tl  Tl0  1  0.25000000  0.80628100  0.72447400  1
  Tl  Tl1  1  0.75000000  0.75076100  0.01687200  1
  Tl  Tl2  1  0.25000000  0.24923900  0.98312800  1
  Tl  Tl3  1  0.75000000  0.19371900  0.27552600  1
  P  P0  1  0.87414000  0.82826700  0.53451200  1
  P  P1  1  0.62586000  0.82826700  0.53451200  1
  P  P2  1  0.75000000  0.62007100  0.66752200  1
  P  P3  1  0.40207000  0.73483000  0.04451300  1
  P  P4  1  0.09793000  0.73483000  0.04451300  1
  P  P5  1  0.91561600  0.67532400  0.29722700  1
  P  P6  1  0.58438400  0.67532400  0.29722700  1
  P  P7  1  0.41561600  0.32467600  0.70277300  1
  P  P8  1  0.08438400  0.32467600  0.70277300  1
  P  P9  1  0.90207000  0.26517000  0.95548700  1
  P  P10  1  0.59793000  0.26517000  0.95548700  1
  P  P11  1  0.25000000  0.37992900  0.33247800  1
  P  P12  1  0.12586000  0.17173300  0.46548800  1
  P  P13  1  0.37414000  0.17173300  0.46548800  1
  H  H0  1  0.25000000  0.80747400  0.28962600  1
  H  H1  1  0.75000000  0.19252600  0.71037400  1
  O  O0  1  0.34130500  0.93434700  0.52190400  1
  O  O1  1  0.15869500  0.93434700  0.52190400  1
  O  O2  1  0.40715600  0.97752100  0.11775700  1
  O  O3  1  0.09284400  0.97752100  0.11775700  1
  O  O4  1  0.75000000  0.84421100  0.74048800  1
  O  O5  1  0.92227600  0.84807400  0.64719100  1
  O  O6  1  0.57772400  0.84807400  0.64719100  1
  O  O7  1  0.46976300  0.74988700  0.95834100  1
  O  O8  1  0.03023700  0.74988700  0.95834100  1
  O  O9  1  0.96491200  0.90118000  0.24878100  1
  O  O10  1  0.53508800  0.90118000  0.24878100  1
  O  O11  1  0.33383900  0.71394800  0.97700600  1
  O  O12  1  0.16616100  0.71394800  0.97700600  1
  O  O13  1  0.92226900  0.67437400  0.44580900  1
  O  O14  1  0.57773100  0.67437400  0.44580900  1
  O  O15  1  0.84042700  0.69850300  0.25479100  1
  O  O16  1  0.65957300  0.69850300  0.25479100  1
  O  O17  1  0.81643800  0.60685100  0.57697200  1
  O  O18  1  0.68356200  0.60685100  0.57697200  1
  O  O19  1  0.25000000  0.64045600  0.25299700  1
  O  O20  1  0.45486200  0.57509400  0.72556100  1
  O  O21  1  0.04513800  0.57509400  0.72556100  1
  O  O22  1  0.91654100  0.49988400  0.85786400  1
  O  O23  1  0.58345900  0.49988400  0.85786400  1
  O  O24  1  0.41654100  0.50011600  0.14213600  1
  O  O25  1  0.08345900  0.50011600  0.14213600  1
  O  O26  1  0.95486200  0.42490600  0.27443900  1
  O  O27  1  0.54513800  0.42490600  0.27443900  1
  O  O28  1  0.75000000  0.35954400  0.74700300  1
  O  O29  1  0.31643800  0.39314900  0.42302800  1
  O  O30  1  0.18356200  0.39314900  0.42302800  1
  O  O31  1  0.15957300  0.30149700  0.74520900  1
  O  O32  1  0.34042700  0.30149700  0.74520900  1
  O  O33  1  0.42226900  0.32562600  0.55419100  1
  O  O34  1  0.07773100  0.32562600  0.55419100  1
  O  O35  1  0.83383900  0.28605200  0.02299400  1
  O  O36  1  0.66616100  0.28605200  0.02299400  1
  O  O37  1  0.46491200  0.09882000  0.75121900  1
  O  O38  1  0.03508800  0.09882000  0.75121900  1
  O  O39  1  0.96976300  0.25011300  0.04165900  1
  O  O40  1  0.53023700  0.25011300  0.04165900  1
  O  O41  1  0.42227600  0.15192600  0.35280900  1
  O  O42  1  0.07772400  0.15192600  0.35280900  1
  O  O43  1  0.25000000  0.15578900  0.25951200  1
  O  O44  1  0.90715600  0.02247900  0.88224300  1
  O  O45  1  0.59284400  0.02247900  0.88224300  1
  O  O46  1  0.65869500  0.06565300  0.47809600  1
  O  O47  1  0.84130500  0.06565300  0.47809600  1
loop_
_geom_bond_atom_site_label_1
_geom_bond_atom_site_label_2
_geom_bond_distance
_geom_bond_site_symmetry_2
H0 O19 0.996985 1_555
H1 O28 0.996985 1_555
O0 P13 1.471355 1_565
O0 Tl0 2.830941 1_555
O1 P12 1.471355 1_565
O1 Tl0 2.830941 1_555
O2 P3 1.569529 1_555
O2 Ta3 1.988439 1_565
O3 P4 1.569529 1_555
O3 Ta2 1.988439 1_565
O4 P2 1.481852 1_555
O5 P0 1.539409 1_555
O5 Ta0 1.998045 1_555
O6 P1 1.539409 1_555
O6 Ta1 1.998045 1_555
O7 P3 1.579206 1_556
O7 Ta1 1.954317 1_555
O8 P4 1.579206 1_556
O8 Ta0 1.954317 1_455
O9 P5 1.555818 1_555
O9 Ta2 1.967408 1_665
O10 P6 1.555818 1_555
O10 Ta3 1.967408 1_565
O11 P3 1.487135 1_556
O12 P4 1.487135 1_556
O13 P0 1.598812 1_555
O13 P5 1.629513 1_555
O14 P1 1.598812 1_555
O14 P6 1.629513 1_555
O15 P5 1.486598 1_555
O16 P6 1.486598 1_555
O17 P2 1.597750 1_555
O17 P0 1.623028 1_555
O18 P2 1.597750 1_555
O18 P1 1.623028 1_555
O19 P11 1.548505 1_555
O20 P7 1.546229 1_555
O20 Ta1 1.999695 1_555
O21 P8 1.546229 1_555
O21 Ta0 1.999695 1_455
O22 P9 1.574965 1_555
O22 Ta0 1.967254 1_555
O23 P10 1.574965 1_555
O23 Ta1 1.967254 1_555
O24 P3 1.574965 1_555
O24 Ta3 1.967254 1_555
O25 P4 1.574965 1_555
O25 Ta2 1.967254 1_555
O26 P5 1.546229 1_555
O26 Ta2 1.999695 1_655
O27 P6 1.546229 1_555
O27 Ta3 1.999695 1_555
O28 P2 1.548505 1_555
O29 P11 1.597750 1_555
O29 P13 1.623028 1_555
O30 P11 1.597750 1_555
O30 P12 1.623028 1_555
O31 P8 1.486598 1_555
O32 P7 1.486598 1_555
O33 P13 1.598812 1_555
O33 P7 1.629513 1_555
O34 P12 1.598812 1_555
O34 P8 1.629513 1_555
O35 P9 1.487135 1_554
O36 P10 1.487135 1_554
O37 P7 1.555818 1_555
O37 Ta1 1.967408 1_545
O38 P8 1.555818 1_555
O38 Ta0 1.967408 1_445
O39 P9 1.579206 1_554
O39 Ta2 1.954317 1_655
O40 P10 1.579206 1_554
O40 Ta3 1.954317 1_555
O41 P13 1.539409 1_555
O41 Ta3 1.998045 1_555
O42 P12 1.539409 1_555
O42 Ta2 1.998045 1_555
O43 P11 1.481852 1_555
O44 P9 1.569529 1_555
O44 Ta0 1.988439 1_545
O45 P10 1.569529 1_555
O45 Ta1 1.988439 1_545
O46 P1 1.471355 1_545
O46 Tl3 2.830941 1_555
O47 P0 1.471355 1_545
O47 Tl3 2.830941 1_555
