# generated using pymatgen
data_LiV4P7O24
_symmetry_space_group_name_H-M   'P 1'
_cell_length_a   10.24086700
_cell_length_b   10.37780269
_cell_length_c   10.82303066
_cell_angle_alpha   109.05478987
_cell_angle_beta   111.46587091
_cell_angle_gamma   104.78212319
_symmetry_Int_Tables_number   1
_chemical_formula_structural   LiV4P7O24
_chemical_formula_sum   'Li2 V8 P14 O48'
_cell_volume   915.46590696
_cell_formula_units_Z   2
loop_
 _symmetry_equiv_pos_site_id
 _symmetry_equiv_pos_as_xyz
  1  'x, y, z'
loop_
 _atom_site_type_symbol
 _atom_site_label
 _atom_site_symmetry_multiplicity
 _atom_site_fract_x
 _atom_site_fract_y
 _atom_site_fract_z
 _atom_site_occupancy
  Li  Li0  1  0.45463800  0.75372900  0.32803100  1
  Li  Li1  1  0.54536200  0.24627100  0.67196900  1
  V  V0  1  0.48822900  0.33721600  0.11379800  1
  V  V1  1  0.00101600  0.38587800  0.07504900  1
  V  V2  1  0.99898400  0.61412200  0.92495100  1
  V  V3  1  0.98481300  0.82936100  0.41122100  1
  V  V4  1  0.01518700  0.17063900  0.58877900  1
  V  V5  1  0.51177100  0.66278400  0.88620200  1
  V  V6  1  0.49933700  0.89487300  0.74393400  1
  V  V7  1  0.50066300  0.10512700  0.25606600  1
  P  P0  1  0.80151800  0.05855800  0.73715800  1
  P  P1  1  0.75122500  0.61008900  0.47935700  1
  P  P2  1  0.22662500  0.21800000  0.22541500  1
  P  P3  1  0.24877500  0.38991100  0.52064300  1
  P  P4  1  0.73964000  0.96701500  0.24203100  1
  P  P5  1  0.73262400  0.17842800  0.11650200  1
  P  P6  1  0.26737600  0.82157200  0.88349800  1
  P  P7  1  0.77337500  0.78200000  0.77458500  1
  P  P8  1  0.80725000  0.37754200  0.56609800  1
  P  P9  1  0.19848200  0.94144200  0.26284200  1
  P  P10  1  0.19275000  0.62245800  0.43390200  1
  P  P11  1  0.26036000  0.03298500  0.75796900  1
  P  P12  1  0.74910100  0.54044000  0.05133500  1
  P  P13  1  0.25089900  0.45956000  0.94866500  1
  O  O0  1  0.11883300  0.02133100  0.62818700  1
  O  O1  1  0.62412500  0.98363800  0.65757800  1
  O  O2  1  0.63519100  0.78064100  0.80113100  1
  O  O3  1  0.88116700  0.97866900  0.37181300  1
  O  O4  1  0.16215200  0.32117700  0.79464100  1
  O  O5  1  0.14387500  0.93356700  0.37310400  1
  O  O6  1  0.13420200  0.68266200  0.84262600  1
  O  O7  1  0.36826500  0.72206700  0.53633500  1
  O  O8  1  0.08946400  0.69413200  0.46199300  1
  O  O9  1  0.86579800  0.31733800  0.15737400  1
  O  O10  1  0.65337000  0.56515900  0.92018600  1
  O  O11  1  0.87163700  0.49818400  0.01039200  1
  O  O12  1  0.36519100  0.59133500  0.95221700  1
  O  O13  1  0.37930600  0.78109300  0.82626400  1
  O  O14  1  0.16449600  0.56078500  0.27219200  1
  O  O15  1  0.35609000  0.93892600  0.04646800  1
  O  O16  1  0.14643000  0.24737200  0.50659200  1
  O  O17  1  0.85357000  0.75262800  0.49340800  1
  O  O18  1  0.66352400  0.82679800  0.09608000  1
  O  O19  1  0.86129700  0.94372700  0.79501900  1
  O  O20  1  0.62368200  0.99035600  0.29653800  1
  O  O21  1  0.85612500  0.06643300  0.62689600  1
  O  O22  1  0.37631800  0.00964400  0.70346200  1
  O  O23  1  0.63173500  0.27793300  0.46366500  1
  O  O24  1  0.37587500  0.01636200  0.34242200  1
  O  O25  1  0.60678100  0.50952600  0.33068000  1
  O  O26  1  0.64391000  0.06107400  0.95353200  1
  O  O27  1  0.91053600  0.30586800  0.53800700  1
  O  O28  1  0.11356400  0.25548500  0.12867500  1
  O  O29  1  0.62069400  0.21890700  0.17373600  1
  O  O30  1  0.15177800  0.47748400  0.46762700  1
  O  O31  1  0.83784800  0.67882300  0.20535900  1
  O  O32  1  0.83550400  0.43921500  0.72780800  1
  O  O33  1  0.63480900  0.40866500  0.04778300  1
  O  O34  1  0.12776700  0.79165400  0.12565200  1
  O  O35  1  0.88643600  0.74451500  0.87132500  1
  O  O36  1  0.39321900  0.49047400  0.66932000  1
  O  O37  1  0.18642700  0.89241200  0.78176200  1
  O  O38  1  0.36480900  0.21935900  0.19886900  1
  O  O39  1  0.87223300  0.20834600  0.87434800  1
  O  O40  1  0.81357300  0.10758800  0.21823800  1
  O  O41  1  0.30819600  0.33659100  0.40062500  1
  O  O42  1  0.12836300  0.50181600  0.98960800  1
  O  O43  1  0.13870300  0.05627300  0.20498100  1
  O  O44  1  0.84822200  0.52251600  0.53237300  1
  O  O45  1  0.34663000  0.43484100  0.07981400  1
  O  O46  1  0.33647600  0.17320200  0.90392000  1
  O  O47  1  0.69180400  0.66340900  0.59937500  1
loop_
_geom_bond_atom_site_label_1
_geom_bond_atom_site_label_2
_geom_bond_distance
_geom_bond_site_symmetry_2
O0 P11 1.548513 1_555
O0 V3 2.134982 1_445
O0 V4 2.156128 1_555
O1 P0 1.530816 1_565
O1 V6 2.047161 1_555
O2 P7 1.541218 1_555
O2 V6 2.101103 1_555
O2 V5 2.177014 1_555
O3 P4 1.548513 1_555
O3 V4 2.134982 1_665
O3 V3 2.156128 1_555
O4 P13 1.526200 1_555
O4 V4 1.934725 1_555
O5 P9 1.507426 1_555
O5 V3 1.969093 1_455
O6 P6 1.507531 1_555
O6 V2 2.007881 1_455
O7 P10 1.540627 1_555
O7 V6 1.999878 1_555
O8 P10 1.501231 1_555
O8 V3 2.063977 1_455
O9 P5 1.507531 1_555
O9 V1 2.007881 1_655
O10 P12 1.545742 1_556
O10 V5 1.966504 1_555
O11 P12 1.588800 1_555
O11 V1 2.060461 1_655
O11 V2 2.193624 1_554
O12 P13 1.535428 1_555
O12 V5 1.968886 1_555
O13 P6 1.571490 1_555
O13 V6 2.108843 1_555
O13 V5 2.120007 1_555
O14 P10 1.536223 1_555
O14 V1 1.989038 1_555
O15 P6 1.509855 1_554
O15 V7 1.999246 1_565
O16 P3 1.501703 1_555
O16 V4 2.005783 1_555
O17 P1 1.501703 1_555
O17 V3 2.005783 1_555
O18 P4 1.496476 1_555
O18 V5 2.003523 1_554
O19 P7 1.586601 1_555
O19 P0 1.663141 1_565
O20 P4 1.543723 1_555
O20 V7 1.974878 1_565
O21 P0 1.507426 1_555
O21 V4 1.969093 1_655
O22 P11 1.543723 1_555
O22 V6 1.974878 1_545
O23 P8 1.540627 1_555
O23 V7 1.999878 1_555
O24 P9 1.530816 1_545
O24 V7 2.047161 1_555
O25 P1 1.496732 1_555
O25 V0 2.060879 1_555
O26 P5 1.509855 1_556
O26 V6 1.999246 1_545
O27 P8 1.501231 1_555
O27 V4 2.063977 1_655
O28 P2 1.482128 1_555
O28 V1 2.077389 1_555
O29 P5 1.571490 1_555
O29 V7 2.108843 1_555
O29 V0 2.120007 1_555
O30 P3 1.589307 1_555
O30 P10 1.649657 1_555
O31 P12 1.526200 1_555
O31 V3 1.934725 1_555
O32 P8 1.536223 1_555
O32 V2 1.989038 1_555
O33 P12 1.535428 1_555
O33 V0 1.968886 1_555
O34 P9 1.508972 1_555
O34 V2 1.975461 1_454
O35 P7 1.482128 1_555
O35 V2 2.077389 1_555
O36 P3 1.496732 1_555
O36 V5 2.060879 1_555
O37 P11 1.610011 1_565
O37 P6 1.616032 1_555
O38 P2 1.541218 1_555
O38 V7 2.101103 1_555
O38 V0 2.177014 1_555
O39 P0 1.508972 1_555
O39 V1 1.975461 1_656
O40 P4 1.610011 1_545
O40 P5 1.616032 1_555
O41 P2 1.612635 1_555
O41 P3 1.626288 1_555
O42 P13 1.588800 1_555
O42 V2 2.060461 1_455
O42 V1 2.193624 1_556
O43 P2 1.586601 1_555
O43 P9 1.663141 1_545
O44 P1 1.589307 1_555
O44 P8 1.649657 1_555
O45 P13 1.545742 1_554
O45 V0 1.966504 1_555
O46 P11 1.496476 1_555
O46 V0 2.003523 1_556
O47 P7 1.612635 1_555
O47 P1 1.626288 1_555
