# generated using pymatgen
data_Li2AgF3
_symmetry_space_group_name_H-M   'P 1'
_cell_length_a   5.45793609
_cell_length_b   5.45793609
_cell_length_c   5.52020207
_cell_angle_alpha   80.88672815
_cell_angle_beta   80.88672815
_cell_angle_gamma   119.77508868
_symmetry_Int_Tables_number   1
_chemical_formula_structural   Li2AgF3
_chemical_formula_sum   'Li4 Ag2 F6'
_cell_volume   135.43280518
_cell_formula_units_Z   2
loop_
 _symmetry_equiv_pos_site_id
 _symmetry_equiv_pos_as_xyz
  1  'x, y, z'
loop_
 _atom_site_type_symbol
 _atom_site_label
 _atom_site_symmetry_multiplicity
 _atom_site_fract_x
 _atom_site_fract_y
 _atom_site_fract_z
 _atom_site_occupancy
  Li  Li0  1  0.00000000  0.00000000  0.00000000  1
  Li  Li1  1  0.84478800  0.15521200  0.50000000  1
  Li  Li2  1  0.50000000  0.50000000  0.50000000  1
  Li  Li3  1  0.15521200  0.84478800  0.50000000  1
  Ag  Ag0  1  0.67746700  0.32253300  0.00000000  1
  Ag  Ag1  1  0.32253300  0.67746700  0.00000000  1
  F  F0  1  0.89367500  0.59373600  0.30608200  1
  F  F1  1  0.80395500  0.80395500  0.74993300  1
  F  F2  1  0.40626400  0.10632500  0.69391800  1
  F  F3  1  0.59373600  0.89367500  0.30608200  1
  F  F4  1  0.19604500  0.19604500  0.25006700  1
  F  F5  1  0.10632500  0.40626400  0.69391800  1
loop_
_geom_bond_atom_site_label_1
_geom_bond_atom_site_label_2
_geom_bond_distance
_geom_bond_site_symmetry_2
Ag0 F5 2.445952 1_654
Ag0 F3 2.445952 1_545
Ag0 F1 2.456377 1_554
Ag0 F4 2.456377 1_555
Ag0 F2 2.475363 1_554
Ag0 F0 2.475363 1_555
Ag1 F2 2.445952 1_564
Ag1 F0 2.445952 1_455
Ag1 F4 2.456377 1_555
Ag1 F1 2.456377 1_554
Ag1 F5 2.475363 1_554
Ag1 F3 2.475363 1_555
F0 Li2 2.007607 1_555
F0 Li3 2.016705 1_655
F0 Li0 2.309310 1_665
F0 Li1 2.325784 1_555
F1 Li0 1.998509 1_666
F1 Li3 2.066149 1_655
F1 Li1 2.066149 1_565
F1 Li2 2.474776 1_555
F2 Li2 2.007607 1_555
F2 Li3 2.016705 1_545
F2 Li0 2.309310 1_556
F2 Li1 2.325784 1_555
F3 Li2 2.007607 1_555
F3 Li1 2.016705 1_565
F3 Li0 2.309310 1_665
F3 Li3 2.325784 1_555
F4 Li0 1.998509 1_555
F4 Li3 2.066149 1_545
F4 Li1 2.066149 1_455
F4 Li2 2.474776 1_555
F5 Li2 2.007607 1_555
F5 Li1 2.016705 1_455
F5 Li0 2.309310 1_556
F5 Li3 2.325784 1_555
