# generated using pymatgen
data_V3Fe3(TeO8)2
_symmetry_space_group_name_H-M   'P 1'
_cell_length_a   5.96007000
_cell_length_b   5.99678027
_cell_length_c   10.49733289
_cell_angle_alpha   89.45471317
_cell_angle_beta   89.41145615
_cell_angle_gamma   60.54697209
_symmetry_Int_Tables_number   1
_chemical_formula_structural   V3Fe3(TeO8)2
_chemical_formula_sum   'V3 Fe3 Te2 O16'
_cell_volume   326.67647676
_cell_formula_units_Z   1
loop_
 _symmetry_equiv_pos_site_id
 _symmetry_equiv_pos_as_xyz
  1  'x, y, z'
loop_
 _atom_site_type_symbol
 _atom_site_label
 _atom_site_symmetry_multiplicity
 _atom_site_fract_x
 _atom_site_fract_y
 _atom_site_fract_z
 _atom_site_occupancy
  V  V0  1  0.81682500  0.35733000  0.75652300  1
  V  V1  1  0.11682200  0.21011500  0.30388100  1
  V  V2  1  0.64505900  0.15455000  0.26642700  1
  Fe  Fe0  1  0.33286500  0.83825200  0.78679500  1
  Fe  Fe1  1  0.82657300  0.83517000  0.78651700  1
  Fe  Fe2  1  0.18188300  0.66338400  0.30069500  1
  Te  Te0  1  0.64028300  0.72469000  0.50674900  1
  Te  Te1  1  0.32971100  0.33419000  0.97708200  1
  O  O0  1  0.33126800  0.85557600  0.39656300  1
  O  O1  1  0.52030500  0.95796600  0.65864200  1
  O  O2  1  0.67579600  0.63914900  0.87334500  1
  O  O3  1  0.99137800  0.01652300  0.70278900  1
  O  O4  1  0.00217000  0.00966100  0.20977200  1
  O  O5  1  0.82364400  0.85871600  0.40005000  1
  O  O6  1  0.53260500  0.49217800  0.67035400  1
  O  O7  1  0.96694700  0.49820200  0.66935800  1
  O  O8  1  0.16854800  0.65590400  0.88031100  1
  O  O9  1  0.85949200  0.31255500  0.40294600  1
  O  O10  1  0.02992400  0.47359700  0.20420700  1
  O  O11  1  0.50955600  0.45972100  0.19712800  1
  O  O12  1  0.35326800  0.29657900  0.38574800  1
  O  O13  1  0.17227400  0.16784400  0.88857500  1
  O  O14  1  0.51736600  0.02071300  0.17182000  1
  O  O15  1  0.65524000  0.16743300  0.88800500  1
loop_
_geom_bond_atom_site_label_1
_geom_bond_atom_site_label_2
_geom_bond_distance
_geom_bond_site_symmetry_2
Fe0 O3 1.985467 1_465
Fe0 O2 2.011500 1_555
Fe0 O13 2.030499 1_565
Fe0 O8 2.032609 1_555
Fe0 O1 2.076681 1_555
Fe0 O6 2.192490 1_555
Fe1 O3 1.983591 1_565
Fe1 O2 2.005423 1_555
Fe1 O8 2.036081 1_655
Fe1 O15 2.040822 1_565
Fe1 O1 2.094229 1_555
Fe1 O7 2.158568 1_555
Fe2 O11 2.030672 1_555
Fe2 O4 2.041137 1_565
Fe2 O0 2.045343 1_555
Fe2 O10 2.048397 1_555
Fe2 O12 2.109677 1_555
Fe2 O5 2.129930 1_455
O0 Te0 1.987672 1_555
O0 V1 2.101011 1_565
O1 Te0 2.011443 1_555
O2 V0 1.920363 1_555
O3 V0 1.869844 1_555
O4 V1 1.931876 1_555
O4 V2 1.950368 1_455
O5 Te0 1.978966 1_555
O5 V2 2.091420 1_565
O6 V0 1.735538 1_555
O6 Te0 2.473317 1_555
O7 V0 1.750206 1_555
O7 Te0 2.443901 1_555
O8 Te1 1.958803 1_555
O9 V1 1.692307 1_655
O9 V2 2.416457 1_555
O9 Te0 2.418486 1_555
O10 V1 1.741966 1_555
O11 V2 1.750359 1_555
O12 V1 1.935271 1_555
O12 V2 1.958994 1_555
O13 Te1 1.922192 1_555
O13 V0 2.315981 1_455
O14 V2 1.685540 1_555
O14 V1 2.491259 1_555
O15 Te1 1.926437 1_555
O15 V0 2.269483 1_555
