# generated using pymatgen
data_Mg3B2H9SO13F
_symmetry_space_group_name_H-M   'P 1'
_cell_length_a   8.52651500
_cell_length_b   10.26800400
_cell_length_c   13.10702100
_cell_angle_alpha   90.00000000
_cell_angle_beta   90.00000000
_cell_angle_gamma   90.00000000
_symmetry_Int_Tables_number   1
_chemical_formula_structural   Mg3B2H9SO13F
_chemical_formula_sum   'Mg12 B8 H36 S4 O52 F4'
_cell_volume   1147.52349124
_cell_formula_units_Z   4
loop_
 _symmetry_equiv_pos_site_id
 _symmetry_equiv_pos_as_xyz
  1  'x, y, z'
loop_
 _atom_site_type_symbol
 _atom_site_label
 _atom_site_symmetry_multiplicity
 _atom_site_fract_x
 _atom_site_fract_y
 _atom_site_fract_z
 _atom_site_occupancy
  Mg  Mg0  1  0.00436600  0.65396900  0.25000000  1
  Mg  Mg1  1  0.49563400  0.15396900  0.25000000  1
  Mg  Mg2  1  0.99563400  0.34603100  0.75000000  1
  Mg  Mg3  1  0.50436600  0.84603100  0.75000000  1
  Mg  Mg4  1  0.10832600  0.57720200  0.60841800  1
  Mg  Mg5  1  0.39167400  0.07720200  0.89158200  1
  Mg  Mg6  1  0.89167400  0.42279800  0.10841800  1
  Mg  Mg7  1  0.60832600  0.92279800  0.39158200  1
  Mg  Mg8  1  0.89167400  0.42279800  0.39158200  1
  Mg  Mg9  1  0.60832600  0.92279800  0.10841800  1
  Mg  Mg10  1  0.10832600  0.57720200  0.89158200  1
  Mg  Mg11  1  0.39167400  0.07720200  0.60841800  1
  B  B0  1  0.36296500  0.80561900  0.51874800  1
  B  B1  1  0.13703500  0.30561900  0.98125200  1
  B  B2  1  0.63703500  0.19438100  0.01874800  1
  B  B3  1  0.86296500  0.69438100  0.48125200  1
  B  B4  1  0.63703500  0.19438100  0.48125200  1
  B  B5  1  0.86296500  0.69438100  0.01874800  1
  B  B6  1  0.36296500  0.80561900  0.98125200  1
  B  B7  1  0.13703500  0.30561900  0.51874800  1
  H  H0  1  0.68665800  0.59692000  0.27927600  1
  H  H1  1  0.81334200  0.09692000  0.22072400  1
  H  H2  1  0.31334200  0.40308000  0.77927600  1
  H  H3  1  0.18665800  0.90308000  0.72072400  1
  H  H4  1  0.31334200  0.40308000  0.72072400  1
  H  H5  1  0.18665800  0.90308000  0.77927600  1
  H  H6  1  0.68665800  0.59692000  0.22072400  1
  H  H7  1  0.81334200  0.09692000  0.27927600  1
  H  H8  1  0.35784500  0.62517700  0.45941900  1
  H  H9  1  0.14215500  0.12517700  0.04058100  1
  H  H10  1  0.64215500  0.37482300  0.95941900  1
  H  H11  1  0.85784500  0.87482300  0.54058100  1
  H  H12  1  0.64215500  0.37482300  0.54058100  1
  H  H13  1  0.85784500  0.87482300  0.95941900  1
  H  H14  1  0.35784500  0.62517700  0.04058100  1
  H  H15  1  0.14215500  0.12517700  0.45941900  1
  H  H16  1  0.31140200  0.84074400  0.13779600  1
  H  H17  1  0.18859800  0.34074400  0.36220400  1
  H  H18  1  0.68859800  0.15925600  0.63779600  1
  H  H19  1  0.81140200  0.65925600  0.86220400  1
  H  H20  1  0.68859800  0.15925600  0.86220400  1
  H  H21  1  0.81140200  0.65925600  0.63779600  1
  H  H22  1  0.31140200  0.84074400  0.36220400  1
  H  H23  1  0.18859800  0.34074400  0.13779600  1
  H  H24  1  0.91436800  0.87394700  0.30806700  1
  H  H25  1  0.58563200  0.37394700  0.19193300  1
  H  H26  1  0.08563200  0.12605300  0.80806700  1
  H  H27  1  0.41436800  0.62605300  0.69193300  1
  H  H28  1  0.08563200  0.12605300  0.69193300  1
  H  H29  1  0.41436800  0.62605300  0.80806700  1
  H  H30  1  0.91436800  0.87394700  0.19193300  1
  H  H31  1  0.58563200  0.37394700  0.30806700  1
  H  H32  1  0.44690900  0.25610500  0.75000000  1
  H  H33  1  0.05309100  0.75610500  0.75000000  1
  H  H34  1  0.55309100  0.74389500  0.25000000  1
  H  H35  1  0.94690900  0.24389500  0.25000000  1
  S  S0  1  0.15482600  0.98116500  0.25000000  1
  S  S1  1  0.34517400  0.48116500  0.25000000  1
  S  S2  1  0.84517400  0.01883500  0.75000000  1
  S  S3  1  0.65482600  0.51883500  0.75000000  1
  O  O0  1  0.93934100  0.00983500  0.65482800  1
  O  O1  1  0.56065900  0.50983500  0.84517200  1
  O  O2  1  0.06065900  0.99016500  0.15482800  1
  O  O3  1  0.43934100  0.49016500  0.34517200  1
  O  O4  1  0.06065900  0.99016500  0.34517200  1
  O  O5  1  0.43934100  0.49016500  0.15482800  1
  O  O6  1  0.93934100  0.00983500  0.84517200  1
  O  O7  1  0.56065900  0.50983500  0.65482800  1
  O  O8  1  0.22703500  0.84378000  0.25000000  1
  O  O9  1  0.27296500  0.34378000  0.25000000  1
  O  O10  1  0.77296500  0.15622000  0.75000000  1
  O  O11  1  0.72703500  0.65622000  0.75000000  1
  O  O12  1  0.22214600  0.58202200  0.25000000  1
  O  O13  1  0.27785400  0.08202200  0.25000000  1
  O  O14  1  0.77785400  0.41797800  0.75000000  1
  O  O15  1  0.72214600  0.91797800  0.75000000  1
  O  O16  1  0.91469100  0.62551900  0.40113400  1
  O  O17  1  0.58530900  0.12551900  0.09886600  1
  O  O18  1  0.08530900  0.37448100  0.90113400  1
  O  O19  1  0.41469100  0.87448100  0.59886600  1
  O  O20  1  0.08530900  0.37448100  0.59886600  1
  O  O21  1  0.41469100  0.87448100  0.90113400  1
  O  O22  1  0.91469100  0.62551900  0.09886600  1
  O  O23  1  0.58530900  0.12551900  0.40113400  1
  O  O24  1  0.07367300  0.75949600  0.65731400  1
  O  O25  1  0.42632700  0.25949600  0.84268600  1
  O  O26  1  0.92632700  0.24050400  0.15731400  1
  O  O27  1  0.57367300  0.74050400  0.34268600  1
  O  O28  1  0.92632700  0.24050400  0.34268600  1
  O  O29  1  0.57367300  0.74050400  0.15731400  1
  O  O30  1  0.07367300  0.75949600  0.84268600  1
  O  O31  1  0.42632700  0.25949600  0.65731400  1
  O  O32  1  0.31301400  0.67239200  0.51871600  1
  O  O33  1  0.18698600  0.17239200  0.98128400  1
  O  O34  1  0.68698600  0.32760800  0.01871600  1
  O  O35  1  0.81301400  0.82760800  0.48128400  1
  O  O36  1  0.68698600  0.32760800  0.48128400  1
  O  O37  1  0.81301400  0.82760800  0.01871600  1
  O  O38  1  0.31301400  0.67239200  0.98128400  1
  O  O39  1  0.18698600  0.17239200  0.51871600  1
  O  O40  1  0.12593300  0.17930500  0.75000000  1
  O  O41  1  0.37406700  0.67930500  0.75000000  1
  O  O42  1  0.87406700  0.82069500  0.25000000  1
  O  O43  1  0.62593300  0.32069500  0.25000000  1
  O  O44  1  0.63099100  0.12709900  0.57457100  1
  O  O45  1  0.86900900  0.62709900  0.92542900  1
  O  O46  1  0.36900900  0.87290100  0.07457100  1
  O  O47  1  0.13099100  0.37290100  0.42542900  1
  O  O48  1  0.36900900  0.87290100  0.42542900  1
  O  O49  1  0.13099100  0.37290100  0.07457100  1
  O  O50  1  0.63099100  0.12709900  0.92542900  1
  O  O51  1  0.86900900  0.62709900  0.57457100  1
  F  F0  1  0.43242300  0.02823300  0.75000000  1
  F  F1  1  0.06757700  0.52823300  0.75000000  1
  F  F2  1  0.56757700  0.97176700  0.25000000  1
  F  F3  1  0.93242300  0.47176700  0.25000000  1
loop_
_geom_bond_atom_site_label_1
_geom_bond_atom_site_label_2
_geom_bond_distance
_geom_bond_site_symmetry_2
Mg0 O12 1.998462 1_555
Mg0 O42 2.040848 1_455
Mg0 O16 2.143363 1_455
Mg0 O22 2.143363 1_455
Mg1 O13 1.998462 1_555
Mg1 O43 2.040848 1_555
Mg1 O17 2.143363 1_555
Mg1 O23 2.143363 1_555
Mg2 O14 1.998462 1_555
Mg2 O40 2.040848 1_655
Mg2 O20 2.143363 1_655
Mg2 O18 2.143363 1_655
Mg3 O15 1.998462 1_555
Mg3 O41 2.040848 1_555
Mg3 O19 2.143363 1_555
Mg3 O21 2.143363 1_555
Mg4 O24 2.000412 1_555
Mg4 O20 2.094517 1_555
Mg4 O51 2.150142 1_455
Mg4 O32 2.320269 1_555
Mg5 O25 2.000412 1_555
Mg5 O21 2.094517 1_545
Mg5 O50 2.150142 1_555
Mg5 O33 2.320269 1_555
Mg6 O26 2.000412 1_555
Mg6 O22 2.094517 1_555
Mg6 O49 2.150142 1_655
Mg6 O34 2.320269 1_555
Mg7 O27 2.000412 1_555
Mg7 O23 2.094517 1_565
Mg7 O48 2.150142 1_555
Mg7 O35 2.320269 1_555
Mg8 O28 2.000412 1_555
Mg8 O16 2.094517 1_555
Mg8 O47 2.150142 1_655
Mg8 O36 2.320269 1_555
Mg9 O29 2.000412 1_555
Mg9 O17 2.094517 1_565
Mg9 O46 2.150142 1_555
Mg9 O37 2.320269 1_555
Mg10 O30 2.000412 1_555
Mg10 O18 2.094517 1_555
Mg10 O45 2.150142 1_455
Mg10 O38 2.320269 1_555
Mg11 O31 2.000412 1_555
Mg11 O19 2.094517 1_545
Mg11 O44 2.150142 1_555
Mg11 O39 2.320269 1_555
B0 O19 1.340597 1_555
B0 O48 1.405699 1_555
B0 O32 1.432744 1_555
B1 O18 1.340597 1_555
B1 O49 1.405699 1_556
B1 O33 1.432744 1_555
B2 O17 1.340597 1_555
B2 O50 1.405699 1_554
B2 O34 1.432744 1_555
B3 O16 1.340597 1_555
B3 O51 1.405699 1_555
B3 O35 1.432744 1_555
B4 O23 1.340597 1_555
B4 O44 1.405699 1_555
B4 O36 1.432744 1_555
B5 O22 1.340597 1_555
B5 O45 1.405699 1_554
B5 O37 1.432744 1_555
B6 O21 1.340597 1_555
B6 O46 1.405699 1_556
B6 O38 1.432744 1_555
B7 O20 1.340597 1_555
B7 O47 1.405699 1_555
B7 O39 1.432744 1_555
H0 H6 0.767442 1_555
H1 H7 0.767442 1_555
H2 H4 0.767442 1_555
H3 H5 0.767442 1_555
H8 O32 0.992574 1_555
H9 O33 0.992574 1_554
H10 O34 0.992574 1_556
H11 O35 0.992574 1_555
H12 O36 0.992574 1_555
H13 O37 0.992574 1_556
H14 O38 0.992574 1_554
H15 O39 0.992574 1_555
H16 O46 1.018341 1_555
H16 O8 1.637464 1_555
H17 O47 1.018341 1_555
H17 O9 1.637464 1_555
H18 O44 1.018341 1_555
H18 O10 1.637464 1_555
H19 O45 1.018341 1_555
H19 O11 1.637464 1_555
H20 O50 1.018341 1_555
H20 O10 1.637464 1_555
H21 O51 1.018341 1_555
H21 O11 1.637464 1_555
H22 O48 1.018341 1_555
H22 O8 1.637464 1_555
H23 O49 1.018341 1_555
H23 O9 1.637464 1_555
H24 O42 0.998154 1_555
H25 O43 0.998154 1_555
H26 O40 0.998154 1_555
H27 O41 0.998154 1_555
H28 O40 0.998154 1_555
H29 O41 0.998154 1_555
H30 O42 0.998154 1_555
H31 O43 0.998154 1_555
H32 O31 1.227941 1_555
H32 O25 1.227941 1_555
H33 O30 1.227941 1_555
H33 O24 1.227941 1_555
H34 O29 1.227941 1_555
H34 O27 1.227941 1_555
H35 O28 1.227941 1_555
H35 O26 1.227941 1_555
O0 S2 1.486363 1_555
O1 S3 1.486363 1_555
O2 S0 1.486363 1_555
O3 S1 1.486363 1_555
O4 S0 1.486363 1_555
O5 S1 1.486363 1_555
O6 S2 1.486363 1_555
O7 S3 1.486363 1_555
O8 S0 1.539177 1_555
O9 S1 1.539177 1_555
O10 S2 1.539177 1_555
O11 S3 1.539177 1_555
O12 S1 1.474065 1_555
O13 S0 1.474065 1_545
O14 S3 1.474065 1_555
O15 S2 1.474065 1_565
F0 Mg5 1.953774 1_555
F0 Mg11 1.953774 1_555
F0 Mg3 1.968850 1_545
F1 Mg10 1.953774 1_555
F1 Mg4 1.953774 1_555
F1 Mg2 1.968850 1_455
F2 Mg9 1.953774 1_555
F2 Mg7 1.953774 1_555
F2 Mg1 1.968850 1_565
F3 Mg8 1.953774 1_555
F3 Mg6 1.953774 1_555
F3 Mg0 1.968850 1_655
