# generated using pymatgen
data_Li8MnFe7(BO3)8
_symmetry_space_group_name_H-M   'P 1'
_cell_length_a   5.23980900
_cell_length_b   9.01622710
_cell_length_c   11.11687892
_cell_angle_alpha   107.81170599
_cell_angle_beta   90.75999721
_cell_angle_gamma   90.81095545
_symmetry_Int_Tables_number   1
_chemical_formula_structural   Li8MnFe7(BO3)8
_chemical_formula_sum   'Li8 Mn1 Fe7 B8 O24'
_cell_volume   499.88829337
_cell_formula_units_Z   1
loop_
 _symmetry_equiv_pos_site_id
 _symmetry_equiv_pos_as_xyz
  1  'x, y, z'
loop_
 _atom_site_type_symbol
 _atom_site_label
 _atom_site_symmetry_multiplicity
 _atom_site_fract_x
 _atom_site_fract_y
 _atom_site_fract_z
 _atom_site_occupancy
  Li  Li0  1  0.84835700  0.38140500  0.16359600  1
  Li  Li1  1  0.15326900  0.11766400  0.33804300  1
  Li  Li2  1  0.34624800  0.88272900  0.16064900  1
  Li  Li3  1  0.65273400  0.61654800  0.34034700  1
  Li  Li4  1  0.34653800  0.38202300  0.66105400  1
  Li  Li5  1  0.65349100  0.11805300  0.83801600  1
  Li  Li6  1  0.84606500  0.88198300  0.66113000  1
  Li  Li7  1  0.15324600  0.61662200  0.83718400  1
  Mn  Mn0  1  0.82958800  0.69803300  0.11657500  1
  Fe  Fe0  1  0.33604300  0.20051100  0.11677700  1
  Fe  Fe1  1  0.66272500  0.30013400  0.38231400  1
  Fe  Fe2  1  0.83676300  0.20136100  0.61732900  1
  Fe  Fe3  1  0.16895300  0.80290600  0.38105800  1
  Fe  Fe4  1  0.32782900  0.70133700  0.61612300  1
  Fe  Fe5  1  0.16322300  0.30012800  0.88247900  1
  Fe  Fe6  1  0.66226600  0.79969000  0.87852600  1
  B  B0  1  0.82783700  0.03721400  0.12871200  1
  B  B1  1  0.33099200  0.53520300  0.13128400  1
  B  B2  1  0.17036900  0.46405200  0.37203700  1
  B  B3  1  0.33073100  0.03697700  0.62985500  1
  B  B4  1  0.67309700  0.96364600  0.37186400  1
  B  B5  1  0.83021200  0.53651200  0.62957300  1
  B  B6  1  0.67030300  0.46329100  0.86871900  1
  B  B7  1  0.16986200  0.96424600  0.87049500  1
  O  O0  1  0.08842100  0.03249500  0.14763100  1
  O  O1  1  0.70413800  0.17970900  0.15821200  1
  O  O2  1  0.18163400  0.39732400  0.08854300  1
  O  O3  1  0.59112700  0.52704200  0.14907300  1
  O  O4  1  0.81834500  0.10281700  0.41149700  1
  O  O5  1  0.29376000  0.32121500  0.34440700  1
  O  O6  1  0.21249300  0.67912300  0.15989700  1
  O  O7  1  0.68058800  0.89932800  0.08600500  1
  O  O8  1  0.91024900  0.46788800  0.35379800  1
  O  O9  1  0.59116600  0.03302400  0.64737100  1
  O  O10  1  0.31714000  0.60247400  0.41236500  1
  O  O11  1  0.79626400  0.82087000  0.34517200  1
  O  O12  1  0.20510700  0.17857300  0.65668300  1
  O  O13  1  0.68372900  0.39724100  0.58861200  1
  O  O14  1  0.41271400  0.96746400  0.35334600  1
  O  O15  1  0.09126400  0.53075600  0.64687900  1
  O  O16  1  0.31731800  0.10280200  0.91103000  1
  O  O17  1  0.79509200  0.32143700  0.84265900  1
  O  O18  1  0.70521700  0.67845300  0.65806500  1
  O  O19  1  0.18534800  0.89764300  0.58907000  1
  O  O20  1  0.40971800  0.46713600  0.85190700  1
  O  O21  1  0.81664000  0.60232200  0.90857500  1
  O  O22  1  0.29229200  0.82141900  0.84338300  1
  O  O23  1  0.90949300  0.96917600  0.85208100  1
loop_
_geom_bond_atom_site_label_1
_geom_bond_atom_site_label_2
_geom_bond_distance
_geom_bond_site_symmetry_2
Li0 O3 1.934160 1_555
Li0 O1 1.942942 1_555
Li0 O2 1.967527 1_655
Li0 O8 2.037173 1_555
Li1 O5 1.948344 1_555
Li1 O4 1.965393 1_455
Li1 O14 1.974311 1_545
Li1 O0 2.040837 1_555
Li2 O6 1.953281 1_555
Li2 O0 1.958425 1_565
Li2 O7 1.971592 1_555
Li2 O14 2.065279 1_555
Li3 O8 1.951424 1_555
Li3 O10 1.960207 1_555
Li3 O11 1.965069 1_555
Li3 O3 2.049761 1_555
Li4 O15 1.945956 1_555
Li4 O12 1.955103 1_555
Li4 O13 1.971676 1_555
Li4 O20 2.044052 1_555
Li5 O23 1.949206 1_545
Li5 O17 1.954073 1_555
Li5 O16 1.969751 1_555
Li5 O9 2.041245 1_555
Li6 O9 1.958402 1_565
Li6 O18 1.958588 1_555
Li6 O19 1.980413 1_655
Li6 O23 2.046367 1_555
Li7 O22 1.956491 1_555
Li7 O20 1.956967 1_555
Li7 O21 1.962298 1_455
Li7 O15 2.037949 1_555
Mn0 O6 2.078638 1_655
Mn0 O3 2.089679 1_555
Mn0 O7 2.104610 1_555
Mn0 O21 2.206694 1_554
Mn0 O11 2.451653 1_555
Fe0 O1 2.001736 1_555
Fe0 O2 2.068007 1_555
Fe0 O0 2.090458 1_555
Fe0 O16 2.185445 1_554
Fe0 O5 2.444168 1_555
Fe1 O5 1.997292 1_555
Fe1 O8 2.078231 1_555
Fe1 O4 2.079024 1_555
Fe1 O13 2.190998 1_555
Fe1 O1 2.408067 1_555
Fe2 O12 2.000633 1_655
Fe2 O13 2.059670 1_555
Fe2 O9 2.082650 1_555
Fe2 O4 2.186908 1_555
Fe2 O17 2.420063 1_555
Fe3 O11 2.006665 1_455
Fe3 O14 2.040607 1_555
Fe3 O10 2.099315 1_555
Fe3 O19 2.206499 1_555
Fe3 O6 2.384498 1_555
Fe4 O19 2.034110 1_555
Fe4 O18 2.053337 1_555
Fe4 O15 2.073119 1_555
Fe4 O10 2.165313 1_555
Fe4 O22 2.436075 1_555
Fe5 O17 1.998384 1_455
Fe5 O16 2.073003 1_555
Fe5 O20 2.078645 1_555
Fe5 O2 2.188283 1_556
Fe5 O12 2.426631 1_555
Fe6 O22 1.996657 1_555
Fe6 O23 2.080533 1_555
Fe6 O21 2.080821 1_555
Fe6 O7 2.204614 1_556
Fe6 O18 2.373764 1_555
B0 O0 1.381988 1_655
B0 O1 1.396328 1_555
B0 O7 1.402966 1_545
B1 O3 1.380956 1_555
B1 O6 1.395008 1_555
B1 O2 1.408860 1_555
B2 O8 1.377793 1_455
B2 O5 1.399200 1_555
B2 O10 1.404075 1_555
B3 O9 1.378396 1_555
B3 O12 1.395765 1_555
B3 O19 1.406901 1_545
B4 O14 1.379583 1_555
B4 O11 1.398787 1_555
B4 O4 1.404890 1_565
B5 O15 1.382712 1_655
B5 O18 1.395830 1_555
B5 O13 1.409570 1_555
B6 O20 1.378052 1_555
B6 O17 1.396174 1_555
B6 O21 1.406984 1_555
B7 O23 1.380227 1_455
B7 O22 1.397057 1_555
B7 O16 1.407022 1_565
