# generated using pymatgen
data_LiMnP2O7
_symmetry_space_group_name_H-M   'P 1'
_cell_length_a   5.96048525
_cell_length_b   8.12243536
_cell_length_c   6.18980193
_cell_angle_alpha   96.45247981
_cell_angle_beta   109.01754402
_cell_angle_gamma   101.30740523
_symmetry_Int_Tables_number   1
_chemical_formula_structural   LiMnP2O7
_chemical_formula_sum   'Li2 Mn2 P4 O14'
_cell_volume   272.74713800
_cell_formula_units_Z   2
loop_
 _symmetry_equiv_pos_site_id
 _symmetry_equiv_pos_as_xyz
  1  'x, y, z'
loop_
 _atom_site_type_symbol
 _atom_site_label
 _atom_site_symmetry_multiplicity
 _atom_site_fract_x
 _atom_site_fract_y
 _atom_site_fract_z
 _atom_site_occupancy
  Li  Li0  1  0.99993100  0.99994400  0.99986100  1
  Li  Li1  1  0.00002600  0.49997100  0.00004700  1
  Mn  Mn0  1  0.63950900  0.77820200  0.31363400  1
  Mn  Mn1  1  0.36030700  0.22174800  0.68612100  1
  P  P0  1  0.81289600  0.21057800  0.53812500  1
  P  P1  1  0.18711300  0.78944100  0.46197500  1
  P  P2  1  0.42389400  0.31844500  0.22376200  1
  P  P3  1  0.57618800  0.68155000  0.77620100  1
  O  O0  1  0.78504400  0.05106300  0.37413700  1
  O  O1  1  0.21504900  0.94896500  0.62598800  1
  O  O2  1  0.68567400  0.18623200  0.71926400  1
  O  O3  1  0.31426200  0.81379600  0.28074400  1
  O  O4  1  0.38275300  0.19170300  0.00165000  1
  O  O5  1  0.61729200  0.80830700  0.99832700  1
  O  O6  1  0.27065100  0.21694100  0.34848900  1
  O  O7  1  0.72937500  0.78304700  0.65150100  1
  O  O8  1  0.70714800  0.34974200  0.38906200  1
  O  O9  1  0.29287300  0.65025700  0.61096400  1
  O  O10  1  0.07927800  0.31082200  0.68150500  1
  O  O11  1  0.92071400  0.68927300  0.31858200  1
  O  O12  1  0.62881900  0.50980700  0.81342300  1
  O  O13  1  0.37120000  0.49016700  0.18663700  1
loop_
_geom_bond_atom_site_label_1
_geom_bond_atom_site_label_2
_geom_bond_distance
_geom_bond_site_symmetry_2
Li0 O7 2.473809 1_555
Li0 O6 2.475388 1_666
Li0 O5 2.492999 1_555
Li0 O4 2.493728 1_666
Li1 O13 2.158558 1_555
Li1 O12 2.158848 1_454
Li1 O10 2.584941 1_554
Li1 O11 2.585781 1_455
Mn0 O11 1.943796 1_555
Mn0 O5 1.959066 1_554
Mn0 O3 1.964464 1_555
Mn0 O7 1.976184 1_555
Mn0 O0 2.156969 1_565
Mn0 O13 2.439085 1_555
Mn1 O10 1.943919 1_555
Mn1 O4 1.959985 1_556
Mn1 O2 1.964629 1_555
Mn1 O6 1.974921 1_555
Mn1 O1 2.156311 1_545
Mn1 O12 2.439681 1_555
O0 P0 1.498947 1_555
O1 P1 1.498947 1_555
O2 P0 1.554473 1_555
O3 P1 1.554687 1_555
O4 P2 1.540535 1_555
O5 P3 1.540724 1_555
O6 P2 1.554800 1_555
O7 P3 1.554433 1_555
O8 P2 1.615363 1_555
O8 P0 1.631284 1_555
O9 P3 1.615553 1_555
O9 P1 1.631207 1_555
O10 P0 1.543980 1_455
O11 P1 1.543909 1_655
O12 P3 1.514655 1_555
O13 P2 1.514502 1_555
