# generated using pymatgen
data_Na5(NiO2)8
_symmetry_space_group_name_H-M   'P 1'
_cell_length_a   5.78384676
_cell_length_b   6.79680693
_cell_length_c   8.11018015
_cell_angle_alpha   81.39581193
_cell_angle_beta   78.00926965
_cell_angle_gamma   78.90071910
_symmetry_Int_Tables_number   1
_chemical_formula_structural   Na5(NiO2)8
_chemical_formula_sum   'Na5 Ni8 O16'
_cell_volume   304.03310318
_cell_formula_units_Z   1
loop_
 _symmetry_equiv_pos_site_id
 _symmetry_equiv_pos_as_xyz
  1  'x, y, z'
loop_
 _atom_site_type_symbol
 _atom_site_label
 _atom_site_symmetry_multiplicity
 _atom_site_fract_x
 _atom_site_fract_y
 _atom_site_fract_z
 _atom_site_occupancy
  Na  Na0  1  0.78643206  0.27508457  0.72917040  1
  Na  Na1  1  0.50000000  0.50000000  0.50000000  1
  Na  Na2  1  0.21356794  0.72491543  0.27082960  1
  Na  Na3  1  0.50000000  -0.00000000  -0.00000000  1
  Na  Na4  1  0.00000000  -0.00000000  -0.00000000  1
  Ni  Ni0  1  0.62262535  0.87904484  0.62509066  1
  Ni  Ni1  1  0.37215010  0.62695333  0.87427834  1
  Ni  Ni2  1  0.12160443  0.87974498  0.62752360  1
  Ni  Ni3  1  0.62784990  0.37304667  0.12572166  1
  Ni  Ni4  1  0.37737465  0.12095516  0.37490934  1
  Ni  Ni5  1  0.87249059  0.62853123  0.87652496  1
  Ni  Ni6  1  0.12750941  0.37146877  0.12347504  1
  Ni  Ni7  1  0.87839557  0.12025502  0.37247640  1
  O  O0  1  0.83852200  0.90655602  0.79413398  1
  O  O1  1  0.64930805  0.60984652  0.70996872  1
  O  O2  1  0.60067279  0.14889622  0.53677328  1
  O  O3  1  0.31968948  0.90907537  0.77998553  1
  O  O4  1  0.83033425  0.39174217  0.27921249  1
  O  O5  1  0.39932721  0.85110378  0.46322672  1
  O  O6  1  0.68031052  0.09092463  0.22001447  1
  O  O7  1  0.16966575  0.60825783  0.72078751  1
  O  O8  1  0.57015334  0.65316325  0.02898810  1
  O  O9  1  0.07511483  0.14917175  0.52347842  1
  O  O10  1  0.35069195  0.39015348  0.29003128  1
  O  O11  1  0.16147800  0.09344398  0.20586602  1
  O  O12  1  0.42984666  0.34683675  0.97101190  1
  O  O13  1  0.92488517  0.85082825  0.47652158  1
  O  O14  1  0.09595575  0.64569487  0.04062512  1
  O  O15  1  0.90404425  0.35430513  0.95937488  1
loop_
_geom_bond_atom_site_label_1
_geom_bond_atom_site_label_2
_geom_bond_distance
_geom_bond_site_symmetry_2
Na0 O9 2.241169 1_655
Na0 O1 2.254067 1_555
Na0 O15 2.282078 1_555
Na0 O2 2.403444 1_555
Na0 O0 2.454179 1_545
Na0 O12 2.560589 1_555
Na1 O1 2.332956 1_555
Na1 O10 2.332956 1_555
Na1 O5 2.333886 1_555
Na1 O2 2.333886 1_555
Na1 O4 2.414456 1_555
Na1 O7 2.414456 1_555
Na2 O13 2.241169 1_455
Na2 O10 2.254067 1_555
Na2 O14 2.282078 1_555
Na2 O5 2.403444 1_555
Na2 O11 2.454179 1_565
Na2 O8 2.560589 1_555
Na3 O12 2.298410 1_554
Na3 O8 2.298410 1_545
Na3 O0 2.346227 1_544
Na3 O11 2.346227 1_555
Na3 O3 2.450464 1_544
Na3 O6 2.450464 1_555
Na4 O11 2.292785 1_555
Na4 O0 2.292785 1_444
Na4 O3 2.346034 1_544
Na4 O6 2.346034 1_455
Na4 O15 2.353661 1_454
Na4 O14 2.353661 1_545
Ni0 O1 1.844993 1_555
Ni0 O2 1.856940 1_565
Ni0 O13 1.899923 1_555
Ni0 O3 1.927227 1_555
Ni0 O5 2.073860 1_555
Ni0 O0 2.086084 1_555
Ni1 O1 1.856347 1_555
Ni1 O14 1.861665 1_556
Ni1 O7 1.909901 1_555
Ni1 O8 1.913135 1_556
Ni1 O12 1.941367 1_555
Ni1 O3 1.946132 1_555
Ni2 O5 1.860509 1_555
Ni2 O7 1.877918 1_555
Ni2 O13 1.889462 1_455
Ni2 O0 1.891921 1_455
Ni2 O9 1.892120 1_565
Ni2 O3 1.905673 1_555
Ni3 O10 1.856347 1_555
Ni3 O15 1.861665 1_554
Ni3 O4 1.909901 1_555
Ni3 O12 1.913135 1_554
Ni3 O8 1.941367 1_555
Ni3 O6 1.946132 1_555
Ni4 O10 1.844993 1_555
Ni4 O5 1.856940 1_545
Ni4 O9 1.899923 1_555
Ni4 O6 1.927227 1_555
Ni4 O2 2.073860 1_555
Ni4 O11 2.086084 1_555
Ni5 O15 1.871905 1_555
Ni5 O0 1.894671 1_555
Ni5 O7 1.904591 1_655
Ni5 O8 1.914582 1_556
Ni5 O14 2.067516 1_656
Ni5 O1 2.084720 1_555
Ni6 O14 1.871905 1_555
Ni6 O11 1.894671 1_555
Ni6 O4 1.904591 1_455
Ni6 O12 1.914582 1_554
Ni6 O15 2.067516 1_454
Ni6 O10 2.084720 1_555
Ni7 O2 1.860509 1_555
Ni7 O4 1.877918 1_555
Ni7 O9 1.889462 1_655
Ni7 O11 1.891921 1_655
Ni7 O13 1.892120 1_545
Ni7 O6 1.905673 1_555
