# generated using pymatgen
data_LiV2OF5
_symmetry_space_group_name_H-M   'P 1'
_cell_length_a   5.13638200
_cell_length_b   5.49879512
_cell_length_c   7.66964655
_cell_angle_alpha   84.58341535
_cell_angle_beta   89.99738745
_cell_angle_gamma   89.99978199
_symmetry_Int_Tables_number   1
_chemical_formula_structural   LiV2OF5
_chemical_formula_sum   'Li2 V4 O2 F10'
_cell_volume   215.65354352
_cell_formula_units_Z   2
loop_
 _symmetry_equiv_pos_site_id
 _symmetry_equiv_pos_as_xyz
  1  'x, y, z'
loop_
 _atom_site_type_symbol
 _atom_site_label
 _atom_site_symmetry_multiplicity
 _atom_site_fract_x
 _atom_site_fract_y
 _atom_site_fract_z
 _atom_site_occupancy
  Li  Li0  1  0.48608700  0.08224300  0.78549600  1
  Li  Li1  1  0.51402000  0.08228900  0.28556200  1
  V  V0  1  0.98453300  0.01088600  0.00671200  1
  V  V1  1  0.51756500  0.49252000  0.00199900  1
  V  V2  1  0.01542500  0.01092100  0.50673300  1
  V  V3  1  0.48240700  0.49254200  0.50201900  1
  O  O0  1  0.31115700  0.19109300  0.55749300  1
  O  O1  1  0.68893800  0.19121000  0.05740400  1
  F  F0  1  0.14827500  0.00491600  0.25267700  1
  F  F1  1  0.85179400  0.00490000  0.75266800  1
  F  F2  1  0.17787200  0.69289400  0.56561000  1
  F  F3  1  0.82199500  0.69288200  0.06558600  1
  F  F4  1  0.20963200  0.29230400  0.92671900  1
  F  F5  1  0.79030100  0.29226200  0.42667500  1
  F  F6  1  0.31695600  0.81554400  0.93561200  1
  F  F7  1  0.68302300  0.81551000  0.43561300  1
  F  F8  1  0.38193000  0.49762800  0.24717200  1
  F  F9  1  0.61808600  0.49759100  0.74711900  1
loop_
_geom_bond_atom_site_label_1
_geom_bond_atom_site_label_2
_geom_bond_distance
_geom_bond_site_symmetry_2
Li0 O0 2.006506 1_555
Li0 O1 2.455563 1_556
Li1 O1 2.007496 1_555
Li1 O0 2.455370 1_555
O0 V2 1.874388 1_555
O0 V3 1.889237 1_555
O1 V0 1.874107 1_555
O1 V1 1.888814 1_555
F0 Li1 1.947844 1_555
F0 V0 2.062918 1_455
F0 V2 2.067721 1_555
F1 Li0 1.947527 1_555
F1 V2 2.062386 1_655
F1 V0 2.067494 1_556
F2 V2 1.951726 1_565
F2 V3 1.999927 1_555
F3 V0 1.951800 1_565
F3 V1 1.999569 1_555
F4 V0 1.982053 1_456
F4 V1 2.041372 1_556
F4 Li0 2.181690 1_555
F5 V2 1.981953 1_655
F5 V3 2.041532 1_555
F5 Li1 2.180439 1_555
F6 Li0 1.977901 1_565
F6 V1 2.074924 1_556
F6 V0 2.115899 1_466
F7 Li1 1.977700 1_565
F7 V3 2.074693 1_555
F7 V2 2.116108 1_665
F8 V1 2.007950 1_555
F8 V3 2.019235 1_555
F8 Li1 2.374046 1_555
F9 V3 2.007529 1_555
F9 V1 2.019498 1_556
F9 Li0 2.373954 1_555
