# generated using pymatgen
data_Na2VPO6
_symmetry_space_group_name_H-M   'P 1'
_cell_length_a   4.93044900
_cell_length_b   9.02752100
_cell_length_c   11.46692300
_cell_angle_alpha   90.00000000
_cell_angle_beta   90.00000000
_cell_angle_gamma   90.00000000
_symmetry_Int_Tables_number   1
_chemical_formula_structural   Na2VPO6
_chemical_formula_sum   'Na8 V4 P4 O24'
_cell_volume   510.38966830
_cell_formula_units_Z   4
loop_
 _symmetry_equiv_pos_site_id
 _symmetry_equiv_pos_as_xyz
  1  'x, y, z'
loop_
 _atom_site_type_symbol
 _atom_site_label
 _atom_site_symmetry_multiplicity
 _atom_site_fract_x
 _atom_site_fract_y
 _atom_site_fract_z
 _atom_site_occupancy
  Na  Na0  1  0.01406000  0.32306500  0.08144100  1
  Na  Na1  1  0.53946800  0.62196200  0.12748900  1
  Na  Na2  1  0.03946800  0.12196200  0.37251100  1
  Na  Na3  1  0.51406000  0.82306500  0.41855900  1
  Na  Na4  1  0.48594000  0.32306500  0.58144100  1
  Na  Na5  1  0.96053200  0.62196200  0.62748900  1
  Na  Na6  1  0.46053200  0.12196200  0.87251100  1
  Na  Na7  1  0.98594000  0.82306500  0.91855900  1
  V  V0  1  0.47312200  0.00099600  0.12463800  1
  V  V1  1  0.97312200  0.50099600  0.37536200  1
  V  V2  1  0.02687800  0.00099600  0.62463800  1
  V  V3  1  0.52687800  0.50099600  0.87536200  1
  P  P0  1  0.08641300  0.80688300  0.22087100  1
  P  P1  1  0.58641300  0.30688300  0.27912900  1
  P  P2  1  0.41358700  0.80688300  0.72087100  1
  P  P3  1  0.91358700  0.30688300  0.77912900  1
  O  O0  1  0.31804200  0.47075000  0.98708900  1
  O  O1  1  0.25059700  0.11487000  0.06412900  1
  O  O2  1  0.23383000  0.81335600  0.09828800  1
  O  O3  1  0.74676000  0.43408500  0.21742900  1
  O  O4  1  0.78001000  0.82722700  0.21917800  1
  O  O5  1  0.66184100  0.15264600  0.22291400  1
  O  O6  1  0.16184100  0.65264600  0.27708600  1
  O  O7  1  0.28001000  0.32722700  0.28082200  1
  O  O8  1  0.24676000  0.93408500  0.28257100  1
  O  O9  1  0.73383000  0.31335600  0.40171200  1
  O  O10  1  0.75059700  0.61487000  0.43587100  1
  O  O11  1  0.81804200  0.97075000  0.51291100  1
  O  O12  1  0.18195800  0.47075000  0.48708900  1
  O  O13  1  0.24940300  0.11487000  0.56412900  1
  O  O14  1  0.26617000  0.81335600  0.59828800  1
  O  O15  1  0.75324000  0.43408500  0.71742900  1
  O  O16  1  0.71999000  0.82722700  0.71917800  1
  O  O17  1  0.83815900  0.15264600  0.72291400  1
  O  O18  1  0.33815900  0.65264600  0.77708600  1
  O  O19  1  0.21999000  0.32722700  0.78082200  1
  O  O20  1  0.25324000  0.93408500  0.78257100  1
  O  O21  1  0.76617000  0.31335600  0.90171200  1
  O  O22  1  0.74940300  0.61487000  0.93587100  1
  O  O23  1  0.68195800  0.97075000  0.01291100  1
loop_
_geom_bond_atom_site_label_1
_geom_bond_atom_site_label_2
_geom_bond_distance
_geom_bond_site_symmetry_2
Na0 O1 2.220804 1_555
Na0 O3 2.274418 1_455
Na0 O0 2.279116 1_554
Na0 O21 2.397696 1_454
Na0 O7 2.635887 1_555
Na0 O5 2.830965 1_455
Na1 O3 2.232679 1_555
Na1 O2 2.316961 1_555
Na1 O0 2.376394 1_554
Na1 O22 2.429705 1_554
Na1 O4 2.438382 1_555
Na1 O6 2.546752 1_555
Na2 O8 2.232679 1_545
Na2 O9 2.316961 1_455
Na2 O11 2.376394 1_445
Na2 O13 2.429705 1_555
Na2 O7 2.438382 1_555
Na2 O5 2.546752 1_455
Na3 O10 2.220804 1_555
Na3 O8 2.274418 1_555
Na3 O11 2.279116 1_555
Na3 O14 2.397696 1_555
Na3 O4 2.635887 1_555
Na3 O6 2.830965 1_555
Na4 O13 2.220804 1_555
Na4 O15 2.274418 1_555
Na4 O12 2.279116 1_555
Na4 O9 2.397696 1_555
Na4 O19 2.635887 1_555
Na4 O17 2.830965 1_555
Na5 O15 2.232679 1_555
Na5 O14 2.316961 1_655
Na5 O12 2.376394 1_655
Na5 O10 2.429705 1_555
Na5 O16 2.438382 1_555
Na5 O18 2.546752 1_655
Na6 O20 2.232679 1_545
Na6 O21 2.316961 1_555
Na6 O23 2.376394 1_546
Na6 O1 2.429705 1_556
Na6 O19 2.438382 1_555
Na6 O17 2.546752 1_555
Na7 O22 2.220804 1_555
Na7 O20 2.274418 1_655
Na7 O23 2.279116 1_556
Na7 O2 2.397696 1_656
Na7 O16 2.635887 1_555
Na7 O18 2.830965 1_655
O0 V3 1.666172 1_555
O1 V0 1.655883 1_555
O2 P0 1.583525 1_555
O2 V0 2.086299 1_565
O3 P1 1.563402 1_555
O3 V1 2.211382 1_555
O4 P0 1.521951 1_655
O4 V0 2.434240 1_565
O5 P1 1.578780 1_555
O5 V0 2.002487 1_555
O6 P0 1.578780 1_555
O6 V1 2.002487 1_455
O7 P1 1.521951 1_555
O7 V1 2.434240 1_455
O8 P0 1.563402 1_555
O8 V0 2.211382 1_565
O9 P1 1.583525 1_555
O9 V1 2.086299 1_555
O10 V1 1.655883 1_555
O11 V2 1.666172 1_665
O12 V1 1.666172 1_455
O13 V2 1.655883 1_555
O14 P2 1.583525 1_555
O14 V2 2.086299 1_565
O15 P3 1.563402 1_555
O15 V3 2.211382 1_555
O16 P2 1.521951 1_555
O16 V2 2.434240 1_665
O17 P3 1.578780 1_555
O17 V2 2.002487 1_655
O18 P2 1.578780 1_555
O18 V3 2.002487 1_555
O19 P3 1.521951 1_455
O19 V3 2.434240 1_555
O20 P2 1.563402 1_555
O20 V2 2.211382 1_565
O21 P3 1.583525 1_555
O21 V3 2.086299 1_555
O22 V3 1.655883 1_555
O23 V0 1.666172 1_565
