# generated using pymatgen
data_Sr20V15O49
_symmetry_space_group_name_H-M   'P 1'
_cell_length_a   15.47747799
_cell_length_b   15.47747799
_cell_length_c   15.47747799
_cell_angle_alpha   147.06920573
_cell_angle_beta   147.06920573
_cell_angle_gamma   47.26132276
_symmetry_Int_Tables_number   1
_chemical_formula_structural   Sr20V15O49
_chemical_formula_sum   'Sr20 V15 O49'
_cell_volume   1091.53359293
_cell_formula_units_Z   1
loop_
 _symmetry_equiv_pos_site_id
 _symmetry_equiv_pos_as_xyz
  1  'x, y, z'
loop_
 _atom_site_type_symbol
 _atom_site_label
 _atom_site_symmetry_multiplicity
 _atom_site_fract_x
 _atom_site_fract_y
 _atom_site_fract_z
 _atom_site_occupancy
  Sr  Sr0  1  0.24177600  0.03333800  0.41328100  1
  Sr  Sr1  1  0.82849500  0.24177600  0.20843700  1
  Sr  Sr2  1  0.03333800  0.62005700  0.79156300  1
  Sr  Sr3  1  0.69682000  0.09824800  0.20089100  1
  Sr  Sr4  1  0.43274300  0.43274300  0.00000000  1
  Sr  Sr5  1  0.30009500  0.30009500  0.00000000  1
  Sr  Sr6  1  0.51093400  0.30528500  0.41169300  1
  Sr  Sr7  1  0.37786700  0.17208300  0.41355500  1
  Sr  Sr8  1  0.09924100  0.51093400  0.20564900  1
  Sr  Sr9  1  0.89359300  0.09924100  0.58830700  1
  Sr  Sr10  1  0.49592900  0.69682000  0.59857200  1
  Sr  Sr11  1  0.62005700  0.82849500  0.58671900  1
  Sr  Sr12  1  0.09824800  0.89735600  0.40142800  1
  Sr  Sr13  1  0.89735600  0.49592900  0.79910900  1
  Sr  Sr14  1  0.30528500  0.89359300  0.79435100  1
  Sr  Sr15  1  0.17208300  0.75852800  0.79421500  1
  Sr  Sr16  1  0.96431300  0.37786700  0.20578500  1
  Sr  Sr17  1  0.56773700  0.56773700  0.00000000  1
  Sr  Sr18  1  0.70226900  0.70226900  0.00000000  1
  Sr  Sr19  1  0.75852800  0.96431300  0.58644500  1
  V  V0  1  0.99205400  0.99205400  0.00000000  1
  V  V1  1  0.05932200  0.25708600  0.59719800  1
  V  V2  1  0.20070900  0.40105400  0.60185800  1
  V  V3  1  0.46212500  0.05932200  0.80223700  1
  V  V4  1  0.59885100  0.20070900  0.79965500  1
  V  V5  1  0.14942700  0.14942700  0.00000000  1
  V  V6  1  0.25708600  0.65988800  0.19776300  1
  V  V7  1  0.79919600  0.59885100  0.39814200  1
  V  V8  1  0.40105400  0.79919600  0.20034500  1
  V  V9  1  0.65988800  0.46212500  0.40280200  1
  V  V10  1  0.74225800  0.33984600  0.80397400  1
  V  V11  1  0.33984600  0.53587200  0.59758700  1
  V  V12  1  0.85874100  0.85874100  0.00000000  1
  V  V13  1  0.53587200  0.93828500  0.19602600  1
  V  V14  1  0.93828500  0.74225800  0.40241300  1
  O  O0  1  0.09951100  0.19142400  0.28080900  1
  O  O1  1  0.50064800  0.00064800  0.50000000  1
  O  O2  1  0.00064800  0.50064800  0.50000000  1
  O  O3  1  0.12991600  0.32278600  0.58470500  1
  O  O4  1  0.27150600  0.16023700  0.70549700  1
  O  O5  1  0.54521100  0.12991600  0.80713000  1
  O  O6  1  0.40038900  0.29728400  0.69912800  1
  O  O7  1  0.81870200  0.09951100  0.90808700  1
  O  O8  1  0.56600900  0.27150600  0.11126800  1
  O  O9  1  0.32637700  0.03957600  0.09728900  1
  O  O10  1  0.60541900  0.01611000  0.20337100  1
  O  O11  1  0.96556000  0.06429900  0.30711100  1
  O  O12  1  0.70126100  0.40038900  0.10310600  1
  O  O13  1  0.29728400  0.59815600  0.89689400  1
  O  O14  1  0.16023700  0.45474000  0.88873200  1
  O  O15  1  0.21173100  0.21173100  0.00000000  1
  O  O16  1  0.22908800  0.32637700  0.28680100  1
  O  O17  1  0.06429900  0.75718800  0.09873900  1
  O  O18  1  0.45474000  0.56600900  0.29450300  1
  O  O19  1  0.73808100  0.54521100  0.41529500  1
  O  O20  1  0.59815600  0.70126100  0.30087200  1
  O  O21  1  0.63707900  0.13707900  0.50000000  1
  O  O22  1  0.58716900  0.39069600  0.39799900  1
  O  O23  1  0.99269800  0.18917100  0.60200100  1
  O  O24  1  0.86239200  0.36239200  0.50000000  1
  O  O25  1  0.19142400  0.91061500  0.09191300  1
  O  O26  1  0.18917100  0.58716900  0.19647300  1
  O  O27  1  0.32278600  0.73808100  0.19287000  1
  O  O28  1  0.01611000  0.81274000  0.41069100  1
  O  O29  1  0.13707900  0.63707900  0.50000000  1
  O  O30  1  0.40204800  0.60541900  0.58930900  1
  O  O31  1  0.75718800  0.65844900  0.69288900  1
  O  O32  1  0.26889400  0.46914200  0.60350400  1
  O  O33  1  0.81274000  0.40204800  0.79662900  1
  O  O34  1  0.36239200  0.86239200  0.50000000  1
  O  O35  1  0.91061500  0.81870200  0.71919100  1
  O  O36  1  0.53356100  0.44052900  0.69686700  1
  O  O37  1  0.66539000  0.26889400  0.79975200  1
  O  O38  1  0.94228700  0.22908800  0.90271100  1
  O  O39  1  0.39069600  0.99269800  0.80352700  1
  O  O40  1  0.03957600  0.94228700  0.71319900  1
  O  O41  1  0.83669400  0.53356100  0.09303300  1
  O  O42  1  0.44052900  0.74366100  0.90696700  1
  O  O43  1  0.93129800  0.93129800  0.00000000  1
  O  O44  1  0.65844900  0.96556000  0.90126100  1
  O  O45  1  0.78731100  0.78731100  0.00000000  1
  O  O46  1  0.46914200  0.86563800  0.20024800  1
  O  O47  1  0.86563800  0.66539000  0.39649600  1
  O  O48  1  0.74366100  0.83669400  0.30313300  1
loop_
_geom_bond_atom_site_label_1
_geom_bond_atom_site_label_2
_geom_bond_distance
_geom_bond_site_symmetry_2
O0 V0 1.869839 1_445
O0 V2 2.107307 1_555
O0 Sr7 2.700930 1_555
O0 Sr16 2.721066 1_455
O0 Sr0 2.927309 1_555
O0 Sr1 2.932262 1_455
O1 V4 1.963620 1_555
O1 V8 1.963620 1_545
O1 Sr7 2.699839 1_555
O1 Sr19 2.699845 1_545
O1 Sr0 2.733501 1_555
O1 Sr11 2.733501 1_545
O2 V2 1.963620 1_555
O2 V7 1.963620 1_455
O2 Sr16 2.699836 1_455
O2 Sr15 2.699845 1_555
O2 Sr1 2.733495 1_455
O2 Sr2 2.733516 1_555
O3 V2 1.874010 1_555
O3 V1 2.111391 1_555
O3 Sr1 2.706793 1_455
O3 Sr0 2.708753 1_555
O3 Sr2 2.761335 1_555
O3 Sr4 2.841002 1_556
O4 V3 1.908260 1_555
O4 V1 2.034005 1_555
O4 Sr5 2.647585 1_556
O4 Sr0 2.710412 1_555
O4 Sr12 2.715667 1_545
O4 Sr4 2.777221 1_556
O5 V4 1.874010 1_555
O5 V3 2.111391 1_555
O5 Sr11 2.706788 1_545
O5 Sr1 2.708746 1_556
O5 Sr0 2.761332 1_555
O5 Sr4 2.841002 1_556
O6 V4 1.933834 1_555
O6 V2 1.977047 1_555
O6 Sr0 2.707370 1_555
O6 Sr7 2.713927 1_555
O6 Sr4 2.730044 1_556
O6 Sr17 2.768252 1_556
O7 V0 1.869839 1_546
O7 V4 2.107307 1_555
O7 Sr16 2.700933 1_556
O7 Sr19 2.721080 1_545
O7 Sr1 2.927295 1_556
O7 Sr11 2.932271 1_545
O8 V9 1.908260 1_555
O8 V3 2.033996 1_554
O8 Sr5 2.647593 1_555
O8 Sr1 2.710412 1_555
O8 Sr3 2.715667 1_555
O8 Sr4 2.777209 1_555
O9 V5 1.927045 1_555
O9 V13 2.027527 1_545
O9 Sr7 2.760456 1_555
O9 Sr15 2.769721 1_544
O9 Sr6 2.787376 1_555
O9 Sr14 2.800705 1_544
O10 V13 1.986723 1_545
O10 Sr3 2.496600 1_555
O10 Sr9 2.712701 1_555
O10 Sr6 2.715359 1_555
O10 Sr14 2.773227 1_544
O10 Sr18 2.849755 1_545
O11 V1 1.902326 1_655
O11 V12 2.002757 1_545
O11 Sr12 2.668641 1_645
O11 Sr3 2.698955 1_555
O11 Sr0 2.820481 1_655
O11 Sr1 2.841182 1_555
O12 V7 1.933828 1_555
O12 V4 1.977053 1_554
O12 Sr1 2.707347 1_555
O12 Sr16 2.713941 1_555
O12 Sr4 2.730035 1_555
O12 Sr17 2.768263 1_555
O13 V2 1.933828 1_555
O13 V8 1.977053 1_556
O13 Sr2 2.707387 1_555
O13 Sr15 2.713927 1_555
O13 Sr4 2.730055 1_556
O13 Sr17 2.768244 1_556
O14 V1 1.908257 1_555
O14 V6 2.033991 1_556
O14 Sr5 2.647574 1_556
O14 Sr2 2.710412 1_555
O14 Sr13 2.715661 1_455
O14 Sr4 2.777229 1_556
O15 V5 1.766900 1_555
O15 Sr5 2.505944 1_555
O15 Sr14 2.867654 1_544
O15 Sr9 2.867657 1_454
O15 Sr6 2.867661 1_555
O15 Sr8 2.867661 1_555
O16 V5 1.927045 1_555
O16 V11 2.027527 1_555
O16 Sr16 2.760451 1_455
O16 Sr7 2.769726 1_555
O16 Sr8 2.787376 1_555
O16 Sr6 2.800697 1_555
O17 V6 1.902323 1_555
O17 V12 2.002757 1_455
O17 Sr13 2.668635 1_454
O17 Sr12 2.698963 1_555
O17 Sr2 2.820467 1_554
O17 Sr0 2.841170 1_565
O18 V6 1.908253 1_555
O18 V9 2.033998 1_555
O18 Sr5 2.647585 1_555
O18 Sr11 2.710412 1_555
O18 Sr10 2.715656 1_555
O18 Sr4 2.777221 1_555
O19 V7 1.874010 1_555
O19 V9 2.111377 1_555
O19 Sr2 2.706794 1_655
O19 Sr11 2.708753 1_555
O19 Sr1 2.761335 1_555
O19 Sr4 2.841002 1_555
O20 V8 1.933834 1_555
O20 V7 1.977047 1_555
O20 Sr11 2.707370 1_555
O20 Sr19 2.713939 1_555
O20 Sr4 2.730044 1_555
O20 Sr17 2.768252 1_555
O21 V13 1.981450 1_545
O21 V10 1.981452 1_555
O21 Sr6 2.655596 1_555
O21 Sr9 2.655610 1_555
O21 Sr19 2.726757 1_545
O21 Sr7 2.726771 1_555
O22 V9 1.976106 1_555
O22 Sr6 2.488365 1_555
O22 Sr5 2.768691 1_555
O22 Sr10 2.768934 1_555
O22 Sr3 2.785616 1_555
O22 Sr13 2.801873 1_555
O23 V1 1.976064 1_655
O23 Sr9 2.488379 1_555
O23 Sr5 2.768688 1_656
O23 Sr12 2.768936 1_645
O23 Sr13 2.785618 1_555
O23 Sr3 2.801875 1_555
O24 V1 1.971230 1_655
O24 V9 1.971236 1_555
O24 Sr3 2.692072 1_555
O24 Sr13 2.692083 1_555
O24 Sr2 2.708835 1_655
O24 Sr1 2.708855 1_555
O25 V0 1.869839 1_455
O25 V8 2.107307 1_555
O25 Sr15 2.700944 1_554
O25 Sr7 2.721072 1_565
O25 Sr2 2.927315 1_554
O25 Sr0 2.932271 1_565
O26 V6 1.976092 1_555
O26 Sr8 2.488379 1_555
O26 Sr5 2.768684 1_555
O26 Sr13 2.768937 1_454
O26 Sr10 2.785612 1_555
O26 Sr12 2.801875 1_555
O27 V8 1.874010 1_555
O27 V6 2.111377 1_555
O27 Sr0 2.706788 1_565
O27 Sr2 2.708747 1_554
O27 Sr11 2.761332 1_555
O27 Sr4 2.841002 1_555
O28 V14 1.986751 1_455
O28 Sr12 2.496571 1_555
O28 Sr8 2.712706 1_555
O28 Sr14 2.715359 1_555
O28 Sr9 2.773214 1_465
O28 Sr18 2.849754 1_455
O29 V14 1.981444 1_455
O29 V11 1.981450 1_555
O29 Sr8 2.655596 1_555
O29 Sr14 2.655607 1_555
O29 Sr15 2.726757 1_555
O29 Sr16 2.726769 1_455
O30 V11 1.986723 1_555
O30 Sr10 2.496600 1_555
O30 Sr14 2.712704 1_555
O30 Sr8 2.715359 1_555
O30 Sr6 2.773226 1_555
O30 Sr18 2.849755 1_556
O31 V9 1.902323 1_555
O31 V12 2.002757 1_556
O31 Sr10 2.668627 1_555
O31 Sr13 2.698960 1_555
O31 Sr11 2.820481 1_555
O31 Sr2 2.841162 1_655
O32 V2 1.908993 1_555
O32 V11 2.036685 1_555
O32 Sr15 2.672303 1_555
O32 Sr17 2.755804 1_556
O32 Sr7 2.781161 1_555
O32 Sr16 2.800038 1_455
O33 V10 1.986751 1_555
O33 Sr13 2.496571 1_555
O33 Sr6 2.712703 1_555
O33 Sr9 2.715359 1_555
O33 Sr8 2.773224 1_656
O33 Sr18 2.849762 1_556
O34 V3 1.971234 1_565
O34 V6 1.971236 1_555
O34 Sr10 2.692072 1_555
O34 Sr12 2.692077 1_555
O34 Sr11 2.708841 1_555
O34 Sr0 2.708841 1_565
O35 V0 1.869839 1_556
O35 V7 2.107307 1_555
O35 Sr19 2.700944 1_555
O35 Sr15 2.721080 1_655
O35 Sr11 2.927309 1_555
O35 Sr2 2.932282 1_655
O36 V11 1.896181 1_555
O36 V10 2.031197 1_555
O36 Sr6 2.622347 1_555
O36 Sr18 2.670010 1_556
O36 Sr7 2.750687 1_555
O36 Sr17 2.812439 1_556
O37 V4 1.908993 1_555
O37 V10 2.036671 1_555
O37 Sr7 2.672306 1_555
O37 Sr17 2.755804 1_556
O37 Sr16 2.781169 1_556
O37 Sr19 2.800041 1_545
O38 V5 1.927045 1_656
O38 V10 2.027532 1_555
O38 Sr19 2.760446 1_545
O38 Sr16 2.769729 1_556
O38 Sr9 2.787387 1_555
O38 Sr8 2.800697 1_656
O39 V3 1.976078 1_565
O39 Sr14 2.488365 1_555
O39 Sr5 2.768684 1_566
O39 Sr3 2.768935 1_566
O39 Sr12 2.785608 1_555
O39 Sr10 2.801882 1_555
O40 V5 1.927045 1_566
O40 V14 2.027528 1_455
O40 Sr15 2.760446 1_555
O40 Sr19 2.769721 1_455
O40 Sr14 2.787382 1_555
O40 Sr9 2.800702 1_465
O41 V10 1.896184 1_554
O41 V14 2.031195 1_555
O41 Sr8 2.622355 1_655
O41 Sr18 2.670020 1_555
O41 Sr16 2.750681 1_555
O41 Sr17 2.812430 1_555
O42 V13 1.896188 1_556
O42 V11 2.031195 1_555
O42 Sr14 2.622363 1_555
O42 Sr18 2.670006 1_556
O42 Sr15 2.750681 1_555
O42 Sr17 2.812436 1_556
O43 V0 1.723000 1_555
O43 V12 2.057668 1_555
O43 Sr1 2.871648 1_565
O43 Sr2 2.871648 1_654
O43 Sr0 2.871651 1_665
O43 Sr11 2.871651 1_554
O44 V3 1.902318 1_565
O44 V12 2.002757 1_556
O44 Sr3 2.668627 1_566
O44 Sr10 2.698955 1_555
O44 Sr1 2.820487 1_566
O44 Sr11 2.841170 1_555
O45 V12 2.025707 1_555
O45 Sr18 2.411734 1_555
O45 Sr13 2.798665 1_554
O45 Sr3 2.798672 1_565
O45 Sr10 2.798672 1_554
O45 Sr12 2.798673 1_655
O46 V8 1.908993 1_555
O46 V13 2.036685 1_555
O46 Sr19 2.672303 1_555
O46 Sr17 2.755804 1_555
O46 Sr15 2.781167 1_554
O46 Sr7 2.800046 1_565
O47 V7 1.908993 1_555
O47 V14 2.036671 1_555
O47 Sr16 2.672309 1_555
O47 Sr17 2.755804 1_555
O47 Sr19 2.781167 1_555
O47 Sr15 2.800041 1_655
O48 V14 1.896192 1_555
O48 V13 2.031198 1_555
O48 Sr9 2.622363 1_565
O48 Sr18 2.670020 1_555
O48 Sr19 2.750667 1_555
O48 Sr17 2.812430 1_555
