# generated using pymatgen
data_Sr16Fe6Co2Mo8O45
_symmetry_space_group_name_H-M   'P 1'
_cell_length_a   5.71196562
_cell_length_b   5.69999167
_cell_length_c   45.62623679
_cell_angle_alpha   120.10023073
_cell_angle_beta   120.30622423
_cell_angle_gamma   89.68092890
_symmetry_Int_Tables_number   1
_chemical_formula_structural   Sr16Fe6Co2Mo8O45
_chemical_formula_sum   'Sr16 Fe6 Co2 Mo8 O45'
_cell_volume   1046.86387072
_cell_formula_units_Z   1
loop_
 _symmetry_equiv_pos_site_id
 _symmetry_equiv_pos_as_xyz
  1  'x, y, z'
loop_
 _atom_site_type_symbol
 _atom_site_label
 _atom_site_symmetry_multiplicity
 _atom_site_fract_x
 _atom_site_fract_y
 _atom_site_fract_z
 _atom_site_occupancy
  Sr  Sr0  1  0.26020300  0.76124300  0.94013200  1
  Sr  Sr1  1  0.25694200  0.75757200  0.81428500  1
  Sr  Sr2  1  0.76197800  0.26245400  0.94050000  1
  Sr  Sr3  1  0.25621700  0.75827200  0.68908400  1
  Sr  Sr4  1  0.75518100  0.25589400  0.81406400  1
  Sr  Sr5  1  0.24075900  0.73984100  0.55983700  1
  Sr  Sr6  1  0.75812100  0.26008600  0.68982600  1
  Sr  Sr7  1  0.26638900  0.76752400  0.44185600  1
  Sr  Sr8  1  0.74774600  0.24659800  0.56201500  1
  Sr  Sr9  1  0.25773400  0.75792900  0.31436500  1
  Sr  Sr10  1  0.75997700  0.26029100  0.44010600  1
  Sr  Sr11  1  0.26359400  0.76620600  0.19164500  1
  Sr  Sr12  1  0.74419800  0.24319000  0.31085900  1
  Sr  Sr13  1  0.25279800  0.75213400  0.06296900  1
  Sr  Sr14  1  0.76138100  0.26184300  0.19080500  1
  Sr  Sr15  1  0.74059600  0.23946300  0.05989500  1
  Fe  Fe0  1  0.99596300  0.99654000  0.62396000  1
  Fe  Fe1  1  0.00752800  0.00585200  0.50143600  1
  Fe  Fe2  1  0.99946900  0.99923600  0.37480800  1
  Fe  Fe3  1  0.00628600  0.00701700  0.00156900  1
  Fe  Fe4  1  0.00766800  0.00853400  0.25225600  1
  Fe  Fe5  1  0.99701900  0.99688800  0.12428100  1
  Co  Co0  1  0.00393100  0.00392600  0.87598300  1
  Co  Co1  1  0.00653900  0.00831200  0.75193600  1
  Mo  Mo0  1  0.50633000  0.50681000  0.00154100  1
  Mo  Mo1  1  0.50030800  0.50048000  0.87510300  1
  Mo  Mo2  1  0.50053600  0.50179300  0.75030800  1
  Mo  Mo3  1  0.51304800  0.51422400  0.62848400  1
  Mo  Mo4  1  0.50855400  0.50790600  0.50195100  1
  Mo  Mo5  1  0.51106500  0.51054000  0.37767800  1
  Mo  Mo6  1  0.50791900  0.50811500  0.25213800  1
  Mo  Mo7  1  0.50808300  0.50800700  0.12703300  1
  O  O0  1  0.26133000  0.25976900  0.94018200  1
  O  O1  1  0.21758500  0.69796000  0.87380900  1
  O  O2  1  0.29344600  0.21859000  0.87399900  1
  O  O3  1  0.25363400  0.25351100  0.81330800  1
  O  O4  1  0.73671100  0.73478900  0.93394000  1
  O  O5  1  0.69913200  0.77391700  0.87412800  1
  O  O6  1  0.21887300  0.69767100  0.74897900  1
  O  O7  1  0.77373300  0.29297500  0.87398000  1
  O  O8  1  0.29429300  0.21955600  0.74879400  1
  O  O9  1  0.25388800  0.25892600  0.68898100  1
  O  O10  1  0.74131100  0.74143000  0.81037200  1
  O  O11  1  0.69653200  0.77147500  0.74885200  1
  O  O12  1  0.20236800  0.69858500  0.62087700  1
  O  O13  1  0.77149000  0.29429900  0.74878800  1
  O  O14  1  0.27300300  0.21078100  0.61765400  1
  O  O15  1  0.74971900  0.75103700  0.68747000  1
  O  O16  1  0.67036400  0.72904000  0.61785500  1
  O  O17  1  0.22181400  0.72955100  0.50203700  1
  O  O18  1  0.76725900  0.27112900  0.62169200  1
  O  O19  1  0.29467400  0.22393200  0.50369700  1
  O  O20  1  0.26464600  0.26208600  0.44065100  1
  O  O21  1  0.73951600  0.73772700  0.55991000  1
  O  O22  1  0.73449700  0.80595900  0.50386400  1
  O  O23  1  0.20203900  0.65857100  0.36449700  1
  O  O24  1  0.79657700  0.28808300  0.50240900  1
  O  O25  1  0.28677300  0.21601900  0.37418800  1
  O  O26  1  0.74749200  0.74287100  0.43631900  1
  O  O27  1  0.70852500  0.77874400  0.37448200  1
  O  O28  1  0.22230600  0.72881800  0.25222700  1
  O  O29  1  0.71269900  0.25621800  0.36412400  1
  O  O30  1  0.29369400  0.22585800  0.25318500  1
  O  O31  1  0.26656900  0.26333500  0.19146700  1
  O  O32  1  0.74354600  0.74387000  0.31087300  1
  O  O33  1  0.72896000  0.79745000  0.25280900  1
  O  O34  1  0.20286000  0.65940200  0.11486100  1
  O  O35  1  0.79794500  0.29049800  0.25290900  1
  O  O36  1  0.27898400  0.21162800  0.12332700  1
  O  O37  1  0.74358800  0.74251600  0.18583700  1
  O  O38  1  0.71020700  0.77784600  0.12394700  1
  O  O39  1  0.22338600  0.72897500  0.00218000  1
  O  O40  1  0.71828400  0.26220000  0.11505800  1
  O  O41  1  0.28962600  0.22428200  0.00227100  1
  O  O42  1  0.73922900  0.73996800  0.05968100  1
  O  O43  1  0.72722100  0.79386000  0.00194500  1
  O  O44  1  0.79641400  0.29037100  0.00257600  1
loop_
_geom_bond_atom_site_label_1
_geom_bond_atom_site_label_2
_geom_bond_distance
_geom_bond_site_symmetry_2
Fe0 O18 2.042111 1_565
Fe0 O12 2.049290 1_655
Fe0 O21 2.059551 1_555
Fe0 O9 2.090814 1_665
Fe0 O14 2.216217 1_665
Fe0 O16 2.223530 1_555
Fe1 O17 1.991793 1_545
Fe1 O19 1.992309 1_555
Fe1 O24 2.000647 1_455
Fe1 O22 2.015791 1_445
Fe1 O26 2.093861 1_445
Fe2 O32 2.055777 1_555
Fe2 O27 2.078731 1_555
Fe2 O25 2.079728 1_665
Fe2 O20 2.117138 1_665
Fe2 O23 2.222330 1_655
Fe2 O29 2.224855 1_565
Fe3 O44 2.001844 1_455
Fe3 O39 2.009425 1_545
Fe3 O41 2.020943 1_555
Fe3 O43 2.021743 1_445
Fe3 O4 2.174609 1_444
Fe4 O35 1.996382 1_455
Fe4 O28 2.005713 1_545
Fe4 O33 2.018654 1_445
Fe4 O30 2.026198 1_555
Fe4 O37 2.135689 1_445
Fe5 O38 2.054623 1_555
Fe5 O36 2.059177 1_665
Fe5 O42 2.077177 1_555
Fe5 O31 2.160333 1_665
Fe5 O34 2.218818 1_655
Fe5 O40 2.221315 1_565
Co0 O0 2.064266 1_555
Co0 O10 2.109670 1_445
Co0 O7 2.111256 1_455
Co0 O1 2.113215 1_545
Co0 O5 2.126619 1_445
Co0 O2 2.127155 1_555
Co1 O3 1.973375 1_555
Co1 O15 2.072870 1_445
Co1 O13 2.120456 1_455
Co1 O6 2.127443 1_545
Co1 O11 2.135976 1_445
Co1 O8 2.145909 1_555
Mo0 O42 1.869453 1_555
Mo0 O0 1.972991 1_554
Mo0 O39 2.050411 1_555
Mo0 O44 2.055828 1_555
Mo0 O43 2.058797 1_555
Mo0 O41 2.060169 1_555
Mo1 O4 1.891860 1_555
Mo1 O1 1.956691 1_555
Mo1 O7 1.959640 1_555
Mo1 O2 1.964764 1_555
Mo1 O5 1.964990 1_555
Mo1 O3 1.986976 1_555
Mo2 O10 1.931308 1_555
Mo2 O6 1.946303 1_555
Mo2 O13 1.950539 1_555
Mo2 O8 1.951452 1_555
Mo2 O11 1.953800 1_555
Mo2 O9 1.971955 1_555
Mo3 O16 1.894620 1_555
Mo3 O15 1.896661 1_555
Mo3 O14 1.897666 1_555
Mo3 O12 2.024202 1_555
Mo3 O18 2.031131 1_555
Mo4 O21 1.863661 1_555
Mo4 O20 1.971087 1_555
Mo4 O24 2.060494 1_555
Mo4 O17 2.063286 1_555
Mo4 O22 2.078815 1_555
Mo4 O19 2.090083 1_555
Mo5 O26 1.885595 1_555
Mo5 O23 1.900106 1_555
Mo5 O29 1.900367 1_555
Mo5 O25 2.008704 1_555
Mo5 O27 2.009799 1_555
Mo6 O32 1.888589 1_555
Mo6 O31 1.950909 1_555
Mo6 O28 2.054946 1_555
Mo6 O30 2.060592 1_555
Mo6 O35 2.060660 1_555
Mo6 O33 2.061180 1_555
Mo7 O37 1.890794 1_555
Mo7 O40 1.891740 1_555
Mo7 O34 1.891930 1_555
Mo7 O36 2.027253 1_555
Mo7 O38 2.029657 1_555
O0 Sr0 2.840491 1_545
O0 Sr2 2.852478 1_555
O0 Sr0 2.859511 1_555
O0 Sr2 2.859548 1_455
O1 Sr4 2.583468 1_455
O1 Sr0 2.740282 1_555
O1 Sr1 3.014052 1_555
O1 Sr2 3.165912 1_565
O2 Sr1 2.573600 1_545
O2 Sr2 2.735386 1_555
O2 Sr4 3.011097 1_455
O2 Sr0 3.149350 1_555
O3 Sr4 2.847595 1_555
O3 Sr1 2.849274 1_545
O3 Sr1 2.851068 1_555
O3 Sr4 2.864582 1_455
O4 Sr2 2.849433 1_555
O4 Sr0 2.855410 1_655
O4 Sr2 2.866161 1_565
O4 Sr0 2.870452 1_555
O5 Sr1 2.575011 1_555
O5 Sr2 2.740343 1_565
O5 Sr4 3.014948 1_555
O5 Sr0 3.133747 1_655
O6 Sr6 2.565941 1_455
O6 Sr1 2.714544 1_555
O6 Sr3 3.028017 1_555
O6 Sr4 3.126829 1_565
O7 Sr4 2.580227 1_555
O7 Sr0 2.737340 1_655
O7 Sr1 3.015673 1_545
O7 Sr2 3.159391 1_555
O8 Sr3 2.570247 1_545
O8 Sr4 2.705001 1_555
O8 Sr6 2.995182 1_455
O8 Sr1 3.134269 1_555
O9 Sr3 2.844008 1_555
O9 Sr6 2.851380 1_455
O9 Sr3 2.856029 1_545
O9 Sr6 2.860900 1_555
O10 Sr4 2.850878 1_565
O10 Sr4 2.854066 1_555
O10 Sr1 2.858458 1_655
O10 Sr1 2.859051 1_555
O11 Sr3 2.577207 1_555
O11 Sr4 2.711665 1_565
O11 Sr6 2.990684 1_555
O11 Sr1 3.123379 1_655
O12 Sr8 2.586385 1_455
O12 Sr3 2.805035 1_555
O12 Sr5 3.022185 1_555
O12 Sr6 3.186310 1_565
O13 Sr6 2.558853 1_555
O13 Sr1 2.719505 1_655
O13 Sr3 3.013070 1_545
O13 Sr4 3.140230 1_555
O14 Sr5 2.571195 1_545
O14 Sr8 2.883375 1_455
O14 Sr6 2.910699 1_555
O14 Sr3 3.237311 1_555
O15 Sr6 2.848945 1_565
O15 Sr6 2.853072 1_555
O15 Sr3 2.856273 1_555
O15 Sr3 2.856643 1_655
O16 Sr5 2.576563 1_555
O16 Sr8 2.888625 1_555
O16 Sr6 2.929605 1_565
O16 Sr3 3.205468 1_655
O17 Sr5 2.554772 1_555
O17 Sr10 2.659423 1_455
O17 Sr8 2.985192 1_565
O17 Sr7 2.992255 1_555
O18 Sr8 2.599582 1_555
O18 Sr3 2.796527 1_655
O18 Sr5 3.023735 1_545
O18 Sr6 3.167137 1_555
O19 Sr8 2.550161 1_555
O19 Sr7 2.633872 1_545
O19 Sr5 2.921350 1_555
O19 Sr10 3.072765 1_455
O20 Sr10 2.841860 1_555
O20 Sr7 2.846835 1_545
O20 Sr7 2.853792 1_555
O20 Sr10 2.870215 1_455
O21 Sr5 2.847169 1_555
O21 Sr8 2.848141 1_555
O21 Sr8 2.853458 1_565
O21 Sr5 2.864864 1_655
O22 Sr8 2.543417 1_565
O22 Sr7 2.636624 1_555
O22 Sr5 2.919977 1_655
O22 Sr10 3.082942 1_555
O23 Sr12 2.496399 1_455
O23 Sr9 2.773008 1_555
O23 Sr7 3.077893 1_555
O24 Sr5 2.555247 1_655
O24 Sr10 2.664279 1_555
O24 Sr8 2.990193 1_555
O24 Sr7 3.006961 1_545
O25 Sr9 2.587443 1_545
O25 Sr10 2.730749 1_555
O25 Sr12 3.063274 1_455
O25 Sr7 3.170430 1_555
O26 Sr10 2.839614 1_555
O26 Sr7 2.842838 1_655
O26 Sr10 2.865662 1_565
O26 Sr7 2.880289 1_555
O27 Sr9 2.591667 1_555
O27 Sr10 2.731851 1_565
O27 Sr12 3.080363 1_555
O27 Sr7 3.149047 1_655
O28 Sr14 2.649492 1_455
O28 Sr9 2.656292 1_555
O28 Sr12 2.970010 1_565
O28 Sr11 2.998459 1_555
O29 Sr12 2.490841 1_555
O29 Sr9 2.763099 1_545
O29 Sr7 3.080488 1_655
O30 Sr12 2.542448 1_555
O30 Sr11 2.630007 1_545
O30 Sr9 3.018666 1_555
O30 Sr14 3.038486 1_455
O31 Sr11 2.837883 1_545
O31 Sr14 2.841631 1_555
O31 Sr11 2.862276 1_555
O31 Sr14 2.870508 1_455
O32 Sr12 2.846464 1_565
O32 Sr12 2.853534 1_555
O32 Sr9 2.857102 1_555
O32 Sr9 2.859276 1_655
O33 Sr12 2.549114 1_565
O33 Sr11 2.627843 1_555
O33 Sr9 3.021099 1_655
O33 Sr14 3.036045 1_555
O34 Sr15 2.521318 1_455
O34 Sr13 2.811581 1_555
O34 Sr11 3.066113 1_555
O35 Sr9 2.647810 1_655
O35 Sr14 2.652983 1_555
O35 Sr12 2.948423 1_555
O35 Sr11 3.028614 1_545
O36 Sr13 2.611539 1_545
O36 Sr14 2.777822 1_555
O36 Sr15 3.054690 1_455
O36 Sr11 3.179102 1_555
O37 Sr11 2.843426 1_655
O37 Sr14 2.851550 1_565
O37 Sr14 2.857439 1_555
O37 Sr11 2.880742 1_555
O38 Sr13 2.616745 1_555
O38 Sr14 2.769425 1_565
O38 Sr15 3.082009 1_555
O38 Sr11 3.144212 1_655
O39 Sr13 2.626995 1_555
O39 Sr2 2.650181 1_454
O39 Sr15 2.947484 1_565
O39 Sr0 3.035832 1_554
O40 Sr15 2.522715 1_555
O40 Sr13 2.819318 1_545
O40 Sr11 3.035029 1_655
O41 Sr15 2.548440 1_555
O41 Sr0 2.655354 1_544
O41 Sr13 2.998284 1_555
O41 Sr2 3.018140 1_454
O42 Sr15 2.842274 1_565
O42 Sr13 2.855757 1_555
O42 Sr15 2.857737 1_555
O42 Sr13 2.860132 1_655
O43 Sr15 2.551533 1_565
O43 Sr0 2.644113 1_554
O43 Sr13 3.006938 1_655
O43 Sr2 3.018513 1_554
O44 Sr13 2.620763 1_655
O44 Sr2 2.659312 1_554
O44 Sr15 2.937537 1_555
O44 Sr0 3.044933 1_544
