# generated using pymatgen
data_Li4Fe3TeO12
_symmetry_space_group_name_H-M   'P 1'
_cell_length_a   8.34078600
_cell_length_b   4.94903000
_cell_length_c   5.03489371
_cell_angle_alpha   88.97369744
_cell_angle_beta   90.00000000
_cell_angle_gamma   90.00000000
_symmetry_Int_Tables_number   1
_chemical_formula_structural   Li4Fe3TeO12
_chemical_formula_sum   'Li4 Fe3 Te1 O12'
_cell_volume   207.80102987
_cell_formula_units_Z   1
loop_
 _symmetry_equiv_pos_site_id
 _symmetry_equiv_pos_as_xyz
  1  'x, y, z'
loop_
 _atom_site_type_symbol
 _atom_site_label
 _atom_site_symmetry_multiplicity
 _atom_site_fract_x
 _atom_site_fract_y
 _atom_site_fract_z
 _atom_site_occupancy
  Li  Li0  1  0.69957800  0.00000000  0.00000000  1
  Li  Li1  1  0.80191600  0.50000000  0.00000000  1
  Li  Li2  1  0.32688700  0.00000000  0.50000000  1
  Li  Li3  1  0.20955100  0.50000000  0.50000000  1
  Fe  Fe0  1  0.41916300  0.50000000  0.00000000  1
  Fe  Fe1  1  0.90232800  0.00000000  0.50000000  1
  Fe  Fe2  1  0.60183700  0.50000000  0.50000000  1
  Te  Te0  1  0.10436500  0.00000000  0.00000000  1
  O  O0  1  0.25920800  0.24362800  0.15972300  1
  O  O1  1  0.58965100  0.30515300  0.18168700  1
  O  O2  1  0.92472000  0.19929300  0.17524300  1
  O  O3  1  0.42892900  0.69259300  0.31422800  1
  O  O4  1  0.08592600  0.79211400  0.32381400  1
  O  O5  1  0.74929300  0.75128600  0.35143200  1
  O  O6  1  0.74929300  0.24871400  0.64856800  1
  O  O7  1  0.08592600  0.20788600  0.67618600  1
  O  O8  1  0.42892900  0.30740700  0.68577200  1
  O  O9  1  0.92472000  0.80070700  0.82475700  1
  O  O10  1  0.58965100  0.69484700  0.81831300  1
  O  O11  1  0.25920800  0.75637200  0.84027700  1
loop_
_geom_bond_atom_site_label_1
_geom_bond_atom_site_label_2
_geom_bond_distance
_geom_bond_site_symmetry_2
Li0 O1 2.001925 1_555
Li0 O10 2.001925 1_544
Li0 O5 2.177126 1_545
Li0 O6 2.177126 1_554
Li0 O2 2.304093 1_555
Li0 O9 2.304093 1_544
Li1 O2 1.998846 1_555
Li1 O9 1.998846 1_554
Li1 O10 2.206720 1_554
Li1 O1 2.206720 1_555
Li1 O5 2.224619 1_555
Li1 O6 2.224619 1_554
Li2 O8 1.991177 1_555
Li2 O3 1.991177 1_545
Li2 O0 2.152598 1_555
Li2 O11 2.152598 1_545
Li2 O4 2.432573 1_545
Li2 O7 2.432573 1_555
Li3 O4 1.973370 1_555
Li3 O7 1.973370 1_555
Li3 O11 2.189636 1_555
Li3 O0 2.189636 1_555
Li3 O8 2.258215 1_555
Li3 O3 2.258215 1_555
Fe0 O3 1.863385 1_555
Fe0 O8 1.863385 1_554
Fe0 O1 1.938347 1_555
Fe0 O10 1.938347 1_554
Fe0 O11 1.999990 1_554
Fe0 O0 1.999990 1_555
Fe1 O9 1.903554 1_545
Fe1 O2 1.903554 1_555
Fe1 O6 1.933106 1_555
Fe1 O5 1.933106 1_545
Fe1 O4 2.055028 1_645
Fe1 O7 2.055028 1_655
Fe2 O10 1.887891 1_555
Fe2 O1 1.887891 1_555
Fe2 O6 1.893532 1_555
Fe2 O5 1.893532 1_555
Fe2 O8 1.957378 1_555
Fe2 O3 1.957378 1_555
O0 Te0 1.950186 1_555
O2 Te0 2.006895 1_655
O4 Te0 1.918376 1_565
O7 Te0 1.918376 1_556
O9 Te0 2.006895 1_666
O11 Te0 1.950186 1_566
