# generated using pymatgen
data_Li3Fe4CoO8
_symmetry_space_group_name_H-M   'P 1'
_cell_length_a   6.01800471
_cell_length_b   6.01800471
_cell_length_c   5.99725988
_cell_angle_alpha   60.22714698
_cell_angle_beta   60.22714698
_cell_angle_gamma   59.72595710
_symmetry_Int_Tables_number   1
_chemical_formula_structural   Li3Fe4CoO8
_chemical_formula_sum   'Li3 Fe4 Co1 O8'
_cell_volume   153.78425247
_cell_formula_units_Z   1
loop_
 _symmetry_equiv_pos_site_id
 _symmetry_equiv_pos_as_xyz
  1  'x, y, z'
loop_
 _atom_site_type_symbol
 _atom_site_label
 _atom_site_symmetry_multiplicity
 _atom_site_fract_x
 _atom_site_fract_y
 _atom_site_fract_z
 _atom_site_occupancy
  Li  Li0  1  0.00000000  0.50000000  0.00000000  1
  Li  Li1  1  0.00000000  0.00000000  0.50000000  1
  Li  Li2  1  0.50000000  0.00000000  0.00000000  1
  Fe  Fe0  1  0.50000000  0.50000000  0.50000000  1
  Fe  Fe1  1  0.00000000  0.00000000  0.00000000  1
  Fe  Fe2  1  0.00000000  0.50000000  0.50000000  1
  Fe  Fe3  1  0.50000000  0.00000000  0.50000000  1
  Co  Co0  1  0.50000000  0.50000000  0.00000000  1
  O  O0  1  0.25433800  0.25433800  0.26539300  1
  O  O1  1  0.26402900  0.75171300  0.73620100  1
  O  O2  1  0.75171300  0.26402900  0.73620100  1
  O  O3  1  0.74233600  0.74233600  0.26656600  1
  O  O4  1  0.25766400  0.25766400  0.73343400  1
  O  O5  1  0.24828700  0.73597100  0.26379900  1
  O  O6  1  0.73597100  0.24828700  0.26379900  1
  O  O7  1  0.74566200  0.74566200  0.73460700  1
loop_
_geom_bond_atom_site_label_1
_geom_bond_atom_site_label_2
_geom_bond_distance
_geom_bond_site_symmetry_2
Li0 O3 2.158813 1_455
Li0 O4 2.158813 1_554
Li0 O0 2.205146 1_555
Li0 O7 2.205146 1_454
Li0 O1 2.207385 1_554
Li0 O6 2.207385 1_455
Li1 O2 2.122124 1_455
Li1 O1 2.122124 1_545
Li1 O5 2.122124 1_545
Li1 O6 2.122124 1_455
Li1 O0 2.179401 1_555
Li1 O7 2.179401 1_445
Li2 O3 2.158813 1_545
Li2 O4 2.158813 1_554
Li2 O0 2.205146 1_555
Li2 O7 2.205146 1_544
Li2 O2 2.207385 1_554
Li2 O5 2.207385 1_545
Fe0 O1 2.069357 1_555
Fe0 O2 2.069357 1_555
Fe0 O5 2.069357 1_555
Fe0 O6 2.069357 1_555
Fe0 O3 2.074324 1_555
Fe0 O4 2.074324 1_555
Fe1 O5 2.172003 1_545
Fe1 O6 2.172003 1_455
Fe1 O2 2.172003 1_454
Fe1 O1 2.172003 1_544
Fe1 O3 2.205708 1_445
Fe1 O4 2.205708 1_554
Fe2 O7 2.038023 1_455
Fe2 O0 2.038023 1_555
Fe2 O5 2.072542 1_555
Fe2 O2 2.072542 1_455
Fe2 O4 2.083110 1_555
Fe2 O3 2.083110 1_455
Fe3 O7 2.038023 1_545
Fe3 O0 2.038023 1_555
Fe3 O6 2.072542 1_555
Fe3 O1 2.072542 1_545
Fe3 O4 2.083110 1_555
Fe3 O3 2.083110 1_545
Co0 O7 2.105840 1_554
Co0 O0 2.105840 1_555
Co0 O5 2.120477 1_555
Co0 O6 2.120477 1_555
Co0 O1 2.120477 1_554
Co0 O2 2.120477 1_554
