# generated using pymatgen
data_Li4VCr3O8
_symmetry_space_group_name_H-M   'P 1'
_cell_length_a   5.14756000
_cell_length_b   5.95200754
_cell_length_c   10.28912012
_cell_angle_alpha   89.76496591
_cell_angle_beta   99.69595812
_cell_angle_gamma   106.99927937
_symmetry_Int_Tables_number   1
_chemical_formula_structural   Li4VCr3O8
_chemical_formula_sum   'Li8 V2 Cr6 O16'
_cell_volume   296.82070002
_cell_formula_units_Z   2
loop_
 _symmetry_equiv_pos_site_id
 _symmetry_equiv_pos_as_xyz
  1  'x, y, z'
loop_
 _atom_site_type_symbol
 _atom_site_label
 _atom_site_symmetry_multiplicity
 _atom_site_fract_x
 _atom_site_fract_y
 _atom_site_fract_z
 _atom_site_occupancy
  Li  Li0  1  0.49998700  0.25031500  0.24889600  1
  Li  Li1  1  0.50203800  0.25150300  0.75064800  1
  Li  Li2  1  0.50000000  0.00000000  0.00000000  1
  Li  Li3  1  0.50000000  0.00000000  0.50000000  1
  Li  Li4  1  0.49796200  0.74849700  0.24935200  1
  Li  Li5  1  0.50001300  0.74968500  0.75110400  1
  Li  Li6  1  0.50000000  0.50000000  0.00000000  1
  Li  Li7  1  0.50000000  0.50000000  0.50000000  1
  V  V0  1  0.99975000  0.12250200  0.37637800  1
  V  V1  1  0.00025000  0.87749800  0.62362200  1
  Cr  Cr0  1  0.99980000  0.12589200  0.87485700  1
  Cr  Cr1  1  0.00020000  0.87410800  0.12514300  1
  Cr  Cr2  1  0.00029700  0.62607400  0.87507100  1
  Cr  Cr3  1  0.99961600  0.62206000  0.37444300  1
  Cr  Cr4  1  0.99970300  0.37392600  0.12492900  1
  Cr  Cr5  1  0.00038400  0.37794000  0.62555700  1
  O  O0  1  0.77458200  0.06675300  0.18953600  1
  O  O1  1  0.77273900  0.07246600  0.68989500  1
  O  O2  1  0.22491600  0.18156100  0.06064900  1
  O  O3  1  0.23166000  0.18709100  0.56224900  1
  O  O4  1  0.77508400  0.81843900  0.93935100  1
  O  O5  1  0.22541800  0.93324700  0.81046400  1
  O  O6  1  0.76834000  0.81290900  0.43775100  1
  O  O7  1  0.22726100  0.92753400  0.31010500  1
  O  O8  1  0.77465600  0.56667300  0.18900400  1
  O  O9  1  0.22467500  0.68119000  0.06035000  1
  O  O10  1  0.77513500  0.57024700  0.68956800  1
  O  O11  1  0.22769500  0.68104600  0.55881500  1
  O  O12  1  0.77532500  0.31881000  0.93965000  1
  O  O13  1  0.22534400  0.43332700  0.81099600  1
  O  O14  1  0.77230500  0.31895400  0.44118500  1
  O  O15  1  0.22486500  0.42975300  0.31043200  1
loop_
_geom_bond_atom_site_label_1
_geom_bond_atom_site_label_2
_geom_bond_distance
_geom_bond_site_symmetry_2
Li0 O8 2.156763 1_555
Li0 O2 2.160516 1_555
Li0 O15 2.176964 1_555
Li0 O0 2.182650 1_555
Li0 O7 2.183876 1_545
Li0 O14 2.187204 1_555
Li1 O3 2.151049 1_555
Li1 O1 2.152935 1_555
Li1 O12 2.162537 1_555
Li1 O10 2.167669 1_555
Li1 O5 2.168648 1_545
Li1 O13 2.188623 1_555
Li2 O0 2.169857 1_555
Li2 O5 2.169857 1_544
Li2 O12 2.170065 1_554
Li2 O9 2.170065 1_545
Li2 O2 2.181794 1_555
Li2 O4 2.181794 1_544
Li3 O14 2.157620 1_555
Li3 O11 2.157620 1_545
Li3 O1 2.168751 1_555
Li3 O7 2.168751 1_545
Li3 O3 2.182083 1_555
Li3 O6 2.182083 1_545
Li4 O6 2.151049 1_555
Li4 O7 2.152935 1_555
Li4 O9 2.162537 1_555
Li4 O15 2.167669 1_555
Li4 O0 2.168648 1_565
Li4 O8 2.188623 1_555
Li5 O13 2.156763 1_555
Li5 O4 2.160516 1_555
Li5 O10 2.176964 1_555
Li5 O5 2.182650 1_555
Li5 O1 2.183876 1_565
Li5 O11 2.187204 1_555
Li6 O8 2.165709 1_555
Li6 O13 2.165709 1_554
Li6 O2 2.169216 1_555
Li6 O4 2.169216 1_554
Li6 O12 2.180103 1_554
Li6 O9 2.180103 1_555
Li7 O6 2.137956 1_555
Li7 O3 2.137956 1_555
Li7 O11 2.160198 1_555
Li7 O14 2.160198 1_555
Li7 O10 2.171405 1_555
Li7 O15 2.171405 1_555
Cr0 O1 2.031600 1_555
Cr0 O13 2.032959 1_655
Cr0 O4 2.034213 1_545
Cr0 O12 2.034615 1_555
Cr0 O2 2.035061 1_656
Cr0 O5 2.036320 1_645
Cr1 O7 2.031600 1_555
Cr1 O8 2.032959 1_455
Cr1 O2 2.034213 1_565
Cr1 O9 2.034615 1_555
Cr1 O4 2.035061 1_454
Cr1 O0 2.036320 1_465
Cr2 O9 2.029225 1_556
Cr2 O10 2.032639 1_455
Cr2 O4 2.032962 1_455
Cr2 O13 2.033059 1_555
Cr2 O12 2.034232 1_455
Cr2 O5 2.034234 1_555
Cr3 O11 2.028447 1_655
Cr3 O14 2.030177 1_555
Cr3 O7 2.030466 1_655
Cr3 O15 2.031685 1_655
Cr3 O8 2.031704 1_555
Cr3 O6 2.046943 1_555
Cr4 O12 2.029225 1_554
Cr4 O15 2.032639 1_655
Cr4 O2 2.032962 1_655
Cr4 O8 2.033059 1_555
Cr4 O9 2.034232 1_655
Cr4 O0 2.034234 1_555
Cr5 O14 2.028447 1_455
Cr5 O11 2.030177 1_555
Cr5 O1 2.030466 1_455
Cr5 O10 2.031685 1_455
Cr5 O13 2.031704 1_555
Cr5 O3 2.046943 1_555
O0 V0 2.044286 1_555
O1 V1 2.062353 1_645
O3 V1 2.042942 1_545
O3 V0 2.049150 1_455
O5 V1 2.044286 1_555
O6 V0 2.042942 1_565
O6 V1 2.049150 1_655
O7 V0 2.062353 1_465
O10 V1 2.040372 1_655
O11 V1 2.062143 1_555
O14 V0 2.062143 1_555
O15 V0 2.040372 1_455
