# generated using pymatgen
data_Cr2(WO4)3
_symmetry_space_group_name_H-M   'P 1'
_cell_length_a   9.43805800
_cell_length_b   9.51460900
_cell_length_c   13.09150100
_cell_angle_alpha   90.00000000
_cell_angle_beta   90.00000000
_cell_angle_gamma   90.00000000
_symmetry_Int_Tables_number   1
_chemical_formula_structural   Cr2(WO4)3
_chemical_formula_sum   'Cr8 W12 O48'
_cell_volume   1175.60934845
_cell_formula_units_Z   4
loop_
 _symmetry_equiv_pos_site_id
 _symmetry_equiv_pos_as_xyz
  1  'x, y, z'
loop_
 _atom_site_type_symbol
 _atom_site_label
 _atom_site_symmetry_multiplicity
 _atom_site_fract_x
 _atom_site_fract_y
 _atom_site_fract_z
 _atom_site_occupancy
  Cr  Cr0  1  0.24972300  0.03722600  0.62062800  1
  Cr  Cr1  1  0.74972300  0.03722600  0.87937200  1
  Cr  Cr2  1  0.74972300  0.46277400  0.12062800  1
  Cr  Cr3  1  0.24972300  0.46277400  0.37937200  1
  Cr  Cr4  1  0.25027700  0.53722600  0.87937200  1
  Cr  Cr5  1  0.75027700  0.53722600  0.62062800  1
  Cr  Cr6  1  0.25027700  0.96277400  0.12062800  1
  Cr  Cr7  1  0.75027700  0.96277400  0.37937200  1
  W  W0  1  0.39694400  0.11391000  0.35534700  1
  W  W1  1  0.89694400  0.11391000  0.14465300  1
  W  W2  1  0.46974400  0.25000000  0.00000000  1
  W  W3  1  0.96974400  0.25000000  0.50000000  1
  W  W4  1  0.39694400  0.38609000  0.64465300  1
  W  W5  1  0.89694400  0.38609000  0.85534700  1
  W  W6  1  0.10305600  0.61391000  0.14465300  1
  W  W7  1  0.60305600  0.61391000  0.35534700  1
  W  W8  1  0.53025600  0.75000000  0.00000000  1
  W  W9  1  0.03025600  0.75000000  0.50000000  1
  W  W10  1  0.10305600  0.88609000  0.85534700  1
  W  W11  1  0.60305600  0.88609000  0.64465300  1
  O  O0  1  0.18114400  0.00203900  0.76153700  1
  O  O1  1  0.68114400  0.00203900  0.73846300  1
  O  O2  1  0.82521700  0.07085100  0.02048400  1
  O  O3  1  0.32521700  0.07085100  0.47951600  1
  O  O4  1  0.08745900  0.09166400  0.14624200  1
  O  O5  1  0.58745900  0.09166400  0.35375800  1
  O  O6  1  0.36091200  0.12596700  0.06896600  1
  O  O7  1  0.86091200  0.12596700  0.43103400  1
  O  O8  1  0.08191000  0.16090400  0.59159100  1
  O  O9  1  0.58191000  0.16090400  0.90840900  1
  O  O10  1  0.85914700  0.20329600  0.82771300  1
  O  O11  1  0.35914700  0.20329600  0.67228700  1
  O  O12  1  0.85914700  0.29670400  0.17228700  1
  O  O13  1  0.35914700  0.29670400  0.32771300  1
  O  O14  1  0.58191000  0.33909600  0.09159100  1
  O  O15  1  0.08191000  0.33909600  0.40840900  1
  O  O16  1  0.86091200  0.37403300  0.56896600  1
  O  O17  1  0.36091200  0.37403300  0.93103400  1
  O  O18  1  0.58745900  0.40833600  0.64624200  1
  O  O19  1  0.08745900  0.40833600  0.85375800  1
  O  O20  1  0.32521700  0.42914900  0.52048400  1
  O  O21  1  0.82521700  0.42914900  0.97951600  1
  O  O22  1  0.68114400  0.49796100  0.26153700  1
  O  O23  1  0.18114400  0.49796100  0.23846300  1
  O  O24  1  0.31885600  0.50203900  0.73846300  1
  O  O25  1  0.81885600  0.50203900  0.76153700  1
  O  O26  1  0.17478300  0.57085100  0.02048400  1
  O  O27  1  0.67478300  0.57085100  0.47951600  1
  O  O28  1  0.41254100  0.59166400  0.35375800  1
  O  O29  1  0.91254100  0.59166400  0.14624200  1
  O  O30  1  0.63908800  0.62596700  0.06896600  1
  O  O31  1  0.13908800  0.62596700  0.43103400  1
  O  O32  1  0.41809000  0.66090400  0.90840900  1
  O  O33  1  0.91809000  0.66090400  0.59159100  1
  O  O34  1  0.64085300  0.70329600  0.67228700  1
  O  O35  1  0.14085300  0.70329600  0.82771300  1
  O  O36  1  0.14085300  0.79670400  0.17228700  1
  O  O37  1  0.64085300  0.79670400  0.32771300  1
  O  O38  1  0.91809000  0.83909600  0.40840900  1
  O  O39  1  0.41809000  0.83909600  0.09159100  1
  O  O40  1  0.63908800  0.87403300  0.93103400  1
  O  O41  1  0.13908800  0.87403300  0.56896600  1
  O  O42  1  0.91254100  0.90833600  0.85375800  1
  O  O43  1  0.41254100  0.90833600  0.64624200  1
  O  O44  1  0.17478300  0.92914900  0.97951600  1
  O  O45  1  0.67478300  0.92914900  0.52048400  1
  O  O46  1  0.81885600  0.99796100  0.23846300  1
  O  O47  1  0.31885600  0.99796100  0.26153700  1
loop_
_geom_bond_atom_site_label_1
_geom_bond_atom_site_label_2
_geom_bond_distance
_geom_bond_site_symmetry_2
Cr0 O0 1.983426 1_555
Cr0 O41 1.989641 1_545
Cr0 O43 1.994430 1_545
Cr0 O11 2.005152 1_555
Cr0 O3 2.005693 1_555
Cr0 O8 2.009416 1_555
Cr1 O1 1.983426 1_555
Cr1 O40 1.989641 1_545
Cr1 O42 1.994430 1_545
Cr1 O10 2.005152 1_555
Cr1 O2 2.005693 1_556
Cr1 O9 2.009416 1_555
Cr2 O22 1.983426 1_555
Cr2 O30 1.989641 1_555
Cr2 O29 1.994430 1_555
Cr2 O12 2.005152 1_555
Cr2 O21 2.005693 1_554
Cr2 O14 2.009416 1_555
Cr3 O23 1.983426 1_555
Cr3 O31 1.989641 1_555
Cr3 O28 1.994430 1_555
Cr3 O13 2.005152 1_555
Cr3 O20 2.005693 1_555
Cr3 O15 2.009416 1_555
Cr4 O24 1.983426 1_555
Cr4 O17 1.989641 1_555
Cr4 O19 1.994430 1_555
Cr4 O35 2.005152 1_555
Cr4 O26 2.005693 1_556
Cr4 O32 2.009416 1_555
Cr5 O25 1.983426 1_555
Cr5 O16 1.989641 1_555
Cr5 O18 1.994430 1_555
Cr5 O34 2.005152 1_555
Cr5 O27 2.005693 1_555
Cr5 O33 2.009416 1_555
Cr6 O47 1.983426 1_555
Cr6 O6 1.989641 1_565
Cr6 O4 1.994430 1_565
Cr6 O36 2.005152 1_555
Cr6 O44 2.005693 1_554
Cr6 O39 2.009416 1_555
Cr7 O46 1.983426 1_555
Cr7 O7 1.989641 1_565
Cr7 O5 1.994430 1_565
Cr7 O37 2.005152 1_555
Cr7 O45 2.005693 1_555
Cr7 O38 2.009416 1_555
O0 W10 1.807900 1_545
O1 W11 1.807900 1_545
O2 W1 1.807918 1_555
O3 W0 1.807918 1_555
O4 W1 1.810626 1_455
O5 W0 1.810626 1_555
O6 W2 1.806358 1_555
O7 W3 1.806358 1_555
O8 W3 1.810267 1_455
O9 W2 1.810267 1_556
O10 W5 1.811904 1_555
O11 W4 1.811904 1_555
O12 W1 1.811904 1_555
O13 W0 1.811904 1_555
O14 W2 1.810267 1_555
O15 W3 1.810267 1_455
O16 W3 1.806358 1_555
O17 W2 1.806358 1_556
O18 W4 1.810626 1_555
O19 W5 1.810626 1_455
O20 W4 1.807918 1_555
O21 W5 1.807918 1_555
O22 W7 1.807900 1_555
O23 W6 1.807900 1_555
O24 W4 1.807900 1_555
O25 W5 1.807900 1_555
O26 W6 1.807918 1_555
O27 W7 1.807918 1_555
O28 W7 1.810626 1_555
O29 W6 1.810626 1_655
O30 W8 1.806358 1_555
O31 W9 1.806358 1_555
O32 W8 1.810267 1_556
O33 W9 1.810267 1_655
O34 W11 1.811904 1_555
O35 W10 1.811904 1_555
O36 W6 1.811904 1_555
O37 W7 1.811904 1_555
O38 W9 1.810267 1_655
O39 W8 1.810267 1_555
O40 W8 1.806358 1_556
O41 W9 1.806358 1_555
O42 W10 1.810626 1_655
O43 W11 1.810626 1_555
O44 W10 1.807918 1_555
O45 W11 1.807918 1_555
O46 W1 1.807900 1_565
O47 W0 1.807900 1_565
