# generated using pymatgen
data_ZnPH3O5
_symmetry_space_group_name_H-M   'P 1'
_cell_length_a   6.51011400
_cell_length_b   7.79010334
_cell_length_c   12.35956139
_cell_angle_alpha   74.37566114
_cell_angle_beta   81.92706102
_cell_angle_gamma   81.70870909
_symmetry_Int_Tables_number   1
_chemical_formula_structural   ZnPH3O5
_chemical_formula_sum   'Zn6 P6 H18 O30'
_cell_volume   593.93323046
_cell_formula_units_Z   6
loop_
 _symmetry_equiv_pos_site_id
 _symmetry_equiv_pos_as_xyz
  1  'x, y, z'
loop_
 _atom_site_type_symbol
 _atom_site_label
 _atom_site_symmetry_multiplicity
 _atom_site_fract_x
 _atom_site_fract_y
 _atom_site_fract_z
 _atom_site_occupancy
  Zn  Zn0  1  0.02540600  0.06248900  0.79994900  1
  Zn  Zn1  1  0.13903300  0.67051500  0.44952400  1
  Zn  Zn2  1  0.35205200  0.88545000  0.59077600  1
  Zn  Zn3  1  0.64794800  0.11455000  0.40922400  1
  Zn  Zn4  1  0.86096700  0.32948500  0.55047600  1
  Zn  Zn5  1  0.97459400  0.93751100  0.20005100  1
  P  P0  1  0.14555100  0.13093100  0.36536800  1
  P  P1  1  0.35165800  0.29094800  0.61220000  1
  P  P2  1  0.33066500  0.69009200  0.86503700  1
  P  P3  1  0.66933500  0.30990800  0.13496300  1
  P  P4  1  0.64834200  0.70905200  0.38780000  1
  P  P5  1  0.85444900  0.86906900  0.63463200  1
  H  H0  1  0.99076400  0.21482700  0.97405500  1
  H  H1  1  0.16565800  0.51058400  0.27999800  1
  H  H2  1  0.35674000  0.05130900  0.10385600  1
  H  H3  1  0.29395200  0.28925700  0.19660300  1
  H  H4  1  0.26179800  0.98912500  0.01427800  1
  H  H5  1  0.16307800  0.31292500  0.88063900  1
  H  H6  1  0.31852200  0.66231900  0.25258200  1
  H  H7  1  0.34874700  0.42340300  0.99611900  1
  H  H8  1  0.63692100  0.49842100  0.29093700  1
  H  H9  1  0.36307900  0.50157900  0.70906300  1
  H  H10  1  0.65125300  0.57659700  0.00388100  1
  H  H11  1  0.68147800  0.33768100  0.74741800  1
  H  H12  1  0.83692200  0.68707500  0.11936100  1
  H  H13  1  0.73820200  0.01087500  0.98572200  1
  H  H14  1  0.70604800  0.71074300  0.80339700  1
  H  H15  1  0.64326000  0.94869100  0.89614400  1
  H  H16  1  0.83434200  0.48941600  0.72000200  1
  H  H17  1  0.00923600  0.78517300  0.02594500  1
  O  O0  1  0.17613300  0.30158000  0.26166800  1
  O  O1  1  0.06189800  0.81512600  0.56796200  1
  O  O2  1  0.09217500  0.20342500  0.90689200  1
  O  O3  1  0.17658500  0.63538700  0.28523900  1
  O  O4  1  0.16690100  0.40887500  0.55243600  1
  O  O5  1  0.13147800  0.96740200  0.32059900  1
  O  O6  1  0.32810200  0.09511200  0.43805300  1
  O  O7  1  0.28295400  0.95508200  0.09492300  1
  O  O8  1  0.28929600  0.10080800  0.67294600  1
  O  O9  1  0.45673000  0.28763000  0.09991400  1
  O  O10  1  0.15706100  0.83048300  0.89651200  1
  O  O11  1  0.26410500  0.49808300  0.93290600  1
  O  O12  1  0.39030900  0.36794600  0.71454000  1
  O  O13  1  0.34957800  0.69096600  0.73901800  1
  O  O14  1  0.44367500  0.71157400  0.46697100  1
  O  O15  1  0.55632500  0.28842600  0.53302900  1
  O  O16  1  0.65042200  0.30903400  0.26098200  1
  O  O17  1  0.60969100  0.63205400  0.28546000  1
  O  O18  1  0.73589500  0.50191700  0.06709400  1
  O  O19  1  0.84293900  0.16951700  0.10348800  1
  O  O20  1  0.54327000  0.71237000  0.90008600  1
  O  O21  1  0.71070400  0.89919200  0.32705400  1
  O  O22  1  0.71704600  0.04491800  0.90507700  1
  O  O23  1  0.67189800  0.90488800  0.56194700  1
  O  O24  1  0.86852200  0.03259800  0.67940100  1
  O  O25  1  0.83309900  0.59112500  0.44756400  1
  O  O26  1  0.82341500  0.36461300  0.71476100  1
  O  O27  1  0.90782500  0.79657500  0.09310800  1
  O  O28  1  0.93810200  0.18487400  0.43203800  1
  O  O29  1  0.82386700  0.69842000  0.73833200  1
loop_
_geom_bond_atom_site_label_1
_geom_bond_atom_site_label_2
_geom_bond_distance
_geom_bond_site_symmetry_2
H0 O2 1.000852 1_655
H0 O19 1.723741 1_556
H1 O3 1.004813 1_555
H1 O0 1.693877 1_555
H2 O7 0.983965 1_545
H3 O0 1.044667 1_555
H3 O9 1.483185 1_555
H4 O7 0.984084 1_555
H5 O2 0.984066 1_555
H6 O3 0.983006 1_555
H7 O11 1.017898 1_555
H7 O9 1.602055 1_556
H8 O17 1.015828 1_555
H8 O16 1.602848 1_555
H9 O12 1.015828 1_555
H9 O13 1.602848 1_555
H10 O18 1.017898 1_555
H10 O20 1.602055 1_554
H11 O26 0.983006 1_555
H12 O27 0.984066 1_555
H13 O22 0.984084 1_555
H14 O29 1.044667 1_555
H14 O20 1.483185 1_555
H15 O22 0.983965 1_565
H16 O26 1.004813 1_555
H16 O29 1.693877 1_555
H17 O27 1.000852 1_455
H17 O10 1.723741 1_554
O0 P0 1.592629 1_555
O1 P5 1.545884 1_455
O1 Zn1 2.045176 1_555
O1 Zn2 2.116356 1_555
O2 Zn0 2.054777 1_555
O3 Zn1 2.097172 1_555
O4 P1 1.549707 1_555
O4 Zn1 2.089674 1_555
O4 Zn4 2.174093 1_455
O5 P0 1.537854 1_565
O5 Zn5 2.000018 1_455
O5 Zn1 2.427871 1_555
O6 P0 1.538329 1_555
O6 Zn3 2.083045 1_555
O6 Zn2 2.145572 1_545
O7 Zn5 2.233326 1_455
O8 P1 1.552833 1_555
O8 Zn2 2.148587 1_545
O8 Zn0 2.154654 1_555
O9 P3 1.552943 1_555
O10 P2 1.540759 1_555
O10 Zn0 2.025867 1_565
O11 P2 1.593020 1_555
O12 P1 1.601443 1_555
O13 P2 1.543309 1_555
O13 Zn2 2.038655 1_555
O14 P4 1.539417 1_555
O14 Zn1 2.102933 1_555
O14 Zn2 2.271343 1_555
O15 P1 1.539417 1_555
O15 Zn4 2.102933 1_555
O15 Zn3 2.271343 1_555
O16 P3 1.543309 1_555
O16 Zn3 2.038655 1_555
O17 P4 1.601443 1_555
O18 P3 1.593020 1_555
O19 P3 1.540759 1_555
O19 Zn5 2.025867 1_545
O20 P2 1.552943 1_555
O21 P4 1.552833 1_555
O21 Zn3 2.148587 1_565
O21 Zn5 2.154654 1_555
O22 Zn0 2.233326 1_655
O23 P5 1.538329 1_555
O23 Zn2 2.083045 1_555
O23 Zn3 2.145572 1_565
O24 P5 1.537854 1_545
O24 Zn0 2.000018 1_655
O24 Zn4 2.427871 1_555
O25 P4 1.549707 1_555
O25 Zn4 2.089674 1_555
O25 Zn1 2.174093 1_655
O26 Zn4 2.097172 1_555
O27 Zn5 2.054777 1_555
O28 P0 1.545884 1_655
O28 Zn4 2.045176 1_555
O28 Zn3 2.116356 1_555
O29 P5 1.592629 1_555
