# generated using pymatgen
data_Li3MnV(PO4)3
_symmetry_space_group_name_H-M   'P 1'
_cell_length_a   8.73991867
_cell_length_b   8.73991867
_cell_length_c   8.65260382
_cell_angle_alpha   60.81299796
_cell_angle_beta   60.81299796
_cell_angle_gamma   60.55840467
_symmetry_Int_Tables_number   1
_chemical_formula_structural   Li3MnV(PO4)3
_chemical_formula_sum   'Li6 Mn2 V2 P6 O24'
_cell_volume   475.02770165
_cell_formula_units_Z   2
loop_
 _symmetry_equiv_pos_site_id
 _symmetry_equiv_pos_as_xyz
  1  'x, y, z'
loop_
 _atom_site_type_symbol
 _atom_site_label
 _atom_site_symmetry_multiplicity
 _atom_site_fract_x
 _atom_site_fract_y
 _atom_site_fract_z
 _atom_site_occupancy
  Li  Li0  1  0.89171600  0.73748900  0.71018900  1
  Li  Li1  1  0.34866100  0.04064600  0.67527500  1
  Li  Li2  1  0.73748900  0.89171600  0.21018900  1
  Li  Li3  1  0.36019600  0.61876400  0.75279000  1
  Li  Li4  1  0.61876400  0.36019600  0.25279000  1
  Li  Li5  1  0.04064600  0.34866100  0.17527500  1
  Mn  Mn0  1  0.64997300  0.15290800  0.63869700  1
  Mn  Mn1  1  0.15290800  0.64997300  0.13869700  1
  V  V0  1  0.85246900  0.35680400  0.85995600  1
  V  V1  1  0.35680400  0.85246900  0.35995600  1
  P  P0  1  0.52960800  0.75234300  0.95432100  1
  P  P1  1  0.75234300  0.52960800  0.45432100  1
  P  P2  1  0.94989500  0.04929100  0.25669100  1
  P  P3  1  0.24614300  0.47462200  0.53748100  1
  P  P4  1  0.04929100  0.94989500  0.75669100  1
  P  P5  1  0.47462200  0.24614300  0.03748100  1
  O  O0  1  0.72289400  0.59851300  0.91931700  1
  O  O1  1  0.38086300  0.71448800  0.93972100  1
  O  O2  1  0.75445300  0.47818400  0.64862400  1
  O  O3  1  0.71448800  0.38086300  0.43972100  1
  O  O4  1  0.54809100  0.93543200  0.79195900  1
  O  O5  1  0.92709400  0.24481700  0.10107500  1
  O  O6  1  0.93543200  0.54809100  0.29195900  1
  O  O7  1  0.01051400  0.11420100  0.80769700  1
  O  O8  1  0.89802700  0.96836500  0.70078500  1
  O  O9  1  0.59851300  0.72289400  0.41931700  1
  O  O10  1  0.24481700  0.92709400  0.60107500  1
  O  O11  1  0.52730600  0.25780000  0.83425900  1
  O  O12  1  0.47818400  0.75445300  0.14862400  1
  O  O13  1  0.76174000  0.06472100  0.42514400  1
  O  O14  1  0.38856400  0.27796800  0.57871100  1
  O  O15  1  0.11420100  0.01051400  0.30769700  1
  O  O16  1  0.96836500  0.89802700  0.20078500  1
  O  O17  1  0.05008300  0.48302800  0.68253900  1
  O  O18  1  0.06472100  0.76174000  0.92514400  1
  O  O19  1  0.48302800  0.05008300  0.18253900  1
  O  O20  1  0.29345200  0.61887600  0.54922800  1
  O  O21  1  0.25780000  0.52730600  0.33425900  1
  O  O22  1  0.61887600  0.29345200  0.04922800  1
  O  O23  1  0.27796800  0.38856400  0.07871100  1
loop_
_geom_bond_atom_site_label_1
_geom_bond_atom_site_label_2
_geom_bond_distance
_geom_bond_site_symmetry_2
Li0 O0 1.985169 1_555
Li0 O8 2.006547 1_555
Li0 O17 2.022103 1_655
Li1 O14 1.964329 1_555
Li1 O4 2.034248 1_545
Li1 O10 2.072696 1_545
Li1 O7 2.451193 1_555
Li1 O1 2.630301 1_545
Li2 O9 1.985169 1_555
Li2 O16 2.006547 1_555
Li2 O19 2.022103 1_565
Li3 O20 2.107716 1_555
Li3 O1 2.258753 1_555
Li3 O10 2.274076 1_555
Li3 O18 2.311591 1_555
Li3 O23 2.535370 1_556
Li3 O11 2.624552 1_555
Li3 O9 2.633041 1_555
Li4 O22 2.107716 1_555
Li4 O3 2.258753 1_555
Li4 O5 2.274076 1_555
Li4 O13 2.311591 1_555
Li4 O14 2.535370 1_555
Li4 O21 2.624552 1_555
Li4 O0 2.633041 1_554
Li5 O23 1.964329 1_555
Li5 O6 2.034248 1_455
Li5 O5 2.072696 1_455
Li5 O15 2.451193 1_555
Li5 O3 2.630301 1_455
Mn0 O11 1.905387 1_555
Mn0 O13 1.962403 1_555
Mn0 O3 2.015800 1_555
Mn0 O4 2.053771 1_545
Mn0 O8 2.107952 1_545
Mn0 O14 2.198234 1_555
Mn1 O21 1.905387 1_555
Mn1 O18 1.962403 1_554
Mn1 O1 2.015800 1_554
Mn1 O6 2.053771 1_455
Mn1 O16 2.107952 1_455
Mn1 O23 2.198234 1_555
O0 P0 1.555131 1_555
O0 V0 2.036693 1_555
O1 P0 1.561807 1_555
O2 P1 1.521179 1_555
O2 V0 1.986292 1_555
O3 P1 1.561807 1_555
O4 P0 1.549362 1_555
O5 P2 1.567077 1_555
O5 V0 2.108085 1_554
O6 P1 1.549362 1_555
O7 P4 1.538050 1_545
O7 V0 2.013690 1_455
O8 P4 1.531536 1_655
O9 P1 1.555131 1_555
O9 V1 2.036693 1_555
O10 P4 1.567077 1_555
O10 V1 2.108085 1_555
O11 P5 1.547926 1_556
O12 P0 1.521179 1_554
O12 V1 1.986292 1_555
O13 P2 1.575709 1_555
O14 P3 1.537084 1_555
O15 P2 1.538050 1_455
O15 V1 2.013690 1_545
O16 P2 1.531536 1_565
O17 P3 1.544513 1_555
O17 V0 2.047445 1_455
O18 P4 1.575709 1_555
O19 P5 1.544513 1_555
O19 V1 2.047445 1_545
O20 P3 1.565017 1_555
O20 V1 2.030411 1_555
O21 P3 1.547926 1_555
O22 P5 1.565017 1_555
O22 V0 2.030411 1_554
O23 P5 1.537084 1_555
