# generated using pymatgen
data_Rb2TlCl5O
_symmetry_space_group_name_H-M   'P 1'
_cell_length_a   7.89738700
_cell_length_b   10.48882800
_cell_length_c   13.66042000
_cell_angle_alpha   90.00000000
_cell_angle_beta   90.00000000
_cell_angle_gamma   90.00000000
_symmetry_Int_Tables_number   1
_chemical_formula_structural   Rb2TlCl5O
_chemical_formula_sum   'Rb8 Tl4 Cl20 O4'
_cell_volume   1131.55179139
_cell_formula_units_Z   4
loop_
 _symmetry_equiv_pos_site_id
 _symmetry_equiv_pos_as_xyz
  1  'x, y, z'
loop_
 _atom_site_type_symbol
 _atom_site_label
 _atom_site_symmetry_multiplicity
 _atom_site_fract_x
 _atom_site_fract_y
 _atom_site_fract_z
 _atom_site_occupancy
  Rb  Rb0  1  0.68358300  0.48707900  0.36182800  1
  Rb  Rb1  1  0.81641700  0.01292100  0.86182800  1
  Rb  Rb2  1  0.31641700  0.98707900  0.63817200  1
  Rb  Rb3  1  0.18358300  0.51292100  0.13817200  1
  Rb  Rb4  1  0.31641700  0.51292100  0.63817200  1
  Rb  Rb5  1  0.18358300  0.98707900  0.13817200  1
  Rb  Rb6  1  0.68358300  0.01292100  0.36182800  1
  Rb  Rb7  1  0.81641700  0.48707900  0.86182800  1
  Tl  Tl0  1  0.73393600  0.75000000  0.11008400  1
  Tl  Tl1  1  0.76606400  0.75000000  0.61008400  1
  Tl  Tl2  1  0.26606400  0.25000000  0.88991600  1
  Tl  Tl3  1  0.23393600  0.25000000  0.38991600  1
  Cl  Cl0  1  0.97746300  0.75000000  0.98673400  1
  Cl  Cl1  1  0.52253700  0.75000000  0.48673400  1
  Cl  Cl2  1  0.02253700  0.25000000  0.01326600  1
  Cl  Cl3  1  0.47746300  0.25000000  0.51326600  1
  Cl  Cl4  1  0.91115400  0.75000000  0.26490400  1
  Cl  Cl5  1  0.58884600  0.75000000  0.76490400  1
  Cl  Cl6  1  0.08884600  0.25000000  0.73509600  1
  Cl  Cl7  1  0.41115400  0.25000000  0.23509600  1
  Cl  Cl8  1  0.42245000  0.75000000  0.21708000  1
  Cl  Cl9  1  0.07755000  0.75000000  0.71708000  1
  Cl  Cl10  1  0.57755000  0.25000000  0.78292000  1
  Cl  Cl11  1  0.92245000  0.25000000  0.28292000  1
  Cl  Cl12  1  0.69362900  0.50831700  0.10199200  1
  Cl  Cl13  1  0.80637100  0.99168300  0.60199200  1
  Cl  Cl14  1  0.30637100  0.00831700  0.89800800  1
  Cl  Cl15  1  0.19362900  0.49168300  0.39800800  1
  Cl  Cl16  1  0.30637100  0.49168300  0.89800800  1
  Cl  Cl17  1  0.19362900  0.00831700  0.39800800  1
  Cl  Cl18  1  0.69362900  0.99168300  0.10199200  1
  Cl  Cl19  1  0.80637100  0.50831700  0.60199200  1
  O  O0  1  0.46434300  0.75000000  0.04359300  1
  O  O1  1  0.03565700  0.75000000  0.54359300  1
  O  O2  1  0.53565700  0.25000000  0.95640700  1
  O  O3  1  0.96434300  0.25000000  0.45640700  1
loop_
_geom_bond_atom_site_label_1
_geom_bond_atom_site_label_2
_geom_bond_distance
_geom_bond_site_symmetry_2
Cl0 Tl0 2.556965 1_556
Cl0 Rb1 3.483393 1_565
Cl0 Rb7 3.483393 1_555
Cl0 Rb3 3.621173 1_656
Cl0 Rb5 3.621173 1_656
Cl1 Tl1 2.556965 1_555
Cl1 Rb6 3.483393 1_565
Cl1 Rb0 3.483393 1_555
Cl1 Rb2 3.621173 1_555
Cl1 Rb4 3.621173 1_555
Cl2 Tl2 2.556965 1_554
Cl2 Rb5 3.483393 1_545
Cl2 Rb3 3.483393 1_555
Cl2 Rb1 3.621173 1_454
Cl2 Rb7 3.621173 1_454
Cl3 Tl3 2.556965 1_555
Cl3 Rb4 3.483393 1_555
Cl3 Rb2 3.483393 1_545
Cl3 Rb6 3.621173 1_555
Cl3 Rb0 3.621173 1_555
Cl4 Tl0 2.536059 1_555
Cl4 Rb0 3.547973 1_555
Cl4 Rb6 3.547973 1_565
Cl4 Rb3 3.716118 1_655
Cl4 Rb5 3.716118 1_655
Cl5 Tl1 2.536059 1_555
Cl5 Rb1 3.547973 1_565
Cl5 Rb7 3.547973 1_555
Cl5 Rb2 3.716118 1_555
Cl5 Rb4 3.716118 1_555
Cl6 Tl2 2.536059 1_555
Cl6 Rb4 3.547973 1_555
Cl6 Rb2 3.547973 1_545
Cl6 Rb1 3.716118 1_455
Cl6 Rb7 3.716118 1_455
Cl7 Tl3 2.536059 1_555
Cl7 Rb5 3.547973 1_545
Cl7 Rb3 3.547973 1_555
Cl7 Rb6 3.716118 1_555
Cl7 Rb0 3.716118 1_555
Cl8 O0 2.392887 1_555
Cl8 Tl0 2.861387 1_555
Cl8 Rb5 3.302133 1_555
Cl8 Rb3 3.302133 1_555
Cl9 O1 2.392887 1_555
Cl9 Tl1 2.861387 1_455
Cl9 Rb4 3.302133 1_555
Cl9 Rb2 3.302133 1_555
Cl10 O2 2.392887 1_555
Cl10 Tl2 2.861387 1_555
Cl10 Rb1 3.302133 1_555
Cl10 Rb7 3.302133 1_555
Cl11 O3 2.392887 1_555
Cl11 Tl3 2.861387 1_655
Cl11 Rb6 3.302133 1_555
Cl11 Rb0 3.302133 1_555
Cl12 Tl0 2.557269 1_555
Cl12 Rb7 3.428296 1_554
Cl12 Rb0 3.557337 1_555
Cl13 Tl1 2.557269 1_555
Cl13 Rb6 3.428296 1_565
Cl13 Rb1 3.557337 1_565
Cl14 Tl2 2.557269 1_555
Cl14 Rb5 3.428296 1_546
Cl14 Rb2 3.557337 1_545
Cl15 Tl3 2.557269 1_555
Cl15 Rb4 3.428296 1_555
Cl15 Rb3 3.557337 1_555
Cl16 Tl2 2.557269 1_555
Cl16 Rb3 3.428296 1_556
Cl16 Rb4 3.557337 1_555
Cl17 Tl3 2.557269 1_555
Cl17 Rb2 3.428296 1_545
Cl17 Rb5 3.557337 1_545
Cl18 Tl0 2.557269 1_555
Cl18 Rb1 3.428296 1_564
Cl18 Rb6 3.557337 1_565
Cl19 Tl1 2.557269 1_555
Cl19 Rb0 3.428296 1_555
Cl19 Rb7 3.557337 1_555
O0 Tl0 2.314732 1_555
O1 Tl1 2.314732 1_455
O2 Tl2 2.314732 1_555
O3 Tl3 2.314732 1_655
