# generated using pymatgen
data_LiFe(PO3)4
_symmetry_space_group_name_H-M   'P 1'
_cell_length_a   7.42934102
_cell_length_b   7.42934102
_cell_length_c   18.11682600
_cell_angle_alpha   90.00000000
_cell_angle_beta   90.00000000
_cell_angle_gamma   101.71716795
_symmetry_Int_Tables_number   1
_chemical_formula_structural   LiFe(PO3)4
_chemical_formula_sum   'Li4 Fe4 P16 O48'
_cell_volume   979.12300145
_cell_formula_units_Z   4
loop_
 _symmetry_equiv_pos_site_id
 _symmetry_equiv_pos_as_xyz
  1  'x, y, z'
loop_
 _atom_site_type_symbol
 _atom_site_label
 _atom_site_symmetry_multiplicity
 _atom_site_fract_x
 _atom_site_fract_y
 _atom_site_fract_z
 _atom_site_occupancy
  Li  Li0  1  0.20605400  0.10108500  0.64047100  1
  Li  Li1  1  0.89891500  0.79394600  0.85952900  1
  Li  Li2  1  0.79394600  0.89891500  0.14047100  1
  Li  Li3  1  0.10108500  0.20605400  0.35952900  1
  Fe  Fe0  1  0.56303300  0.95399700  0.87909700  1
  Fe  Fe1  1  0.04600300  0.43696700  0.62090300  1
  Fe  Fe2  1  0.95399700  0.56303300  0.12090300  1
  Fe  Fe3  1  0.43696700  0.04600300  0.37909700  1
  P  P0  1  0.23096400  0.95451100  0.15171800  1
  P  P1  1  0.04548900  0.76903600  0.34828200  1
  P  P2  1  0.28741700  0.77276900  0.01053400  1
  P  P3  1  0.22723100  0.71258300  0.48946600  1
  P  P4  1  0.38127600  0.61872400  0.75000000  1
  P  P5  1  0.23481600  0.33306000  0.19201300  1
  P  P6  1  0.66694000  0.76518400  0.30798700  1
  P  P7  1  0.36561300  0.36561300  0.50000000  1
  P  P8  1  0.63438700  0.63438700  0.00000000  1
  P  P9  1  0.33306000  0.23481600  0.80798700  1
  P  P10  1  0.76518400  0.66694000  0.69201300  1
  P  P11  1  0.61872400  0.38127600  0.25000000  1
  P  P12  1  0.77276900  0.28741700  0.98946600  1
  P  P13  1  0.71258300  0.22723100  0.51053400  1
  P  P14  1  0.76903600  0.04548900  0.65171800  1
  P  P15  1  0.95451100  0.23096400  0.84828200  1
  O  O0  1  0.16568900  0.96293500  0.35388600  1
  O  O1  1  0.03706500  0.83431100  0.14611400  1
  O  O2  1  0.35077200  0.94954000  0.21524100  1
  O  O3  1  0.05046000  0.64922800  0.28475900  1
  O  O4  1  0.33482400  0.90499200  0.48125900  1
  O  O5  1  0.09500800  0.66517600  0.01874100  1
  O  O6  1  0.08316400  0.65963900  0.42362300  1
  O  O7  1  0.34036100  0.91683600  0.07637700  1
  O  O8  1  0.33482600  0.87292600  0.93860400  1
  O  O9  1  0.12707400  0.66517400  0.56139600  1
  O  O10  1  0.42078800  0.78809000  0.79784400  1
  O  O11  1  0.21191000  0.57921200  0.70215600  1
  O  O12  1  0.51101000  0.82230000  0.34996700  1
  O  O13  1  0.17770000  0.48899000  0.15003300  1
  O  O14  1  0.36944800  0.57448200  0.47901200  1
  O  O15  1  0.42551800  0.63055200  0.02098800  1
  O  O16  1  0.80304800  0.83890900  0.63473100  1
  O  O17  1  0.16109100  0.19695200  0.86526900  1
  O  O18  1  0.54426200  0.61140900  0.69249500  1
  O  O19  1  0.38859100  0.45573800  0.80750500  1
  O  O20  1  0.68459700  0.74635800  0.93023600  1
  O  O21  1  0.25364200  0.31540300  0.56976400  1
  O  O22  1  0.15765300  0.28420700  0.26601400  1
  O  O23  1  0.71579300  0.84234700  0.23398600  1
  O  O24  1  0.28420700  0.15765300  0.73398600  1
  O  O25  1  0.84234700  0.71579300  0.76601400  1
  O  O26  1  0.31540300  0.25364200  0.43023600  1
  O  O27  1  0.74635800  0.68459700  0.06976400  1
  O  O28  1  0.61140900  0.54426200  0.30750500  1
  O  O29  1  0.45573800  0.38859100  0.19249500  1
  O  O30  1  0.19695200  0.16109100  0.13473100  1
  O  O31  1  0.83890900  0.80304800  0.36526900  1
  O  O32  1  0.63055200  0.42551800  0.97901200  1
  O  O33  1  0.57448200  0.36944800  0.52098800  1
  O  O34  1  0.82230000  0.51101000  0.65003300  1
  O  O35  1  0.48899000  0.17770000  0.84996700  1
  O  O36  1  0.78809000  0.42078800  0.20215600  1
  O  O37  1  0.57921200  0.21191000  0.29784400  1
  O  O38  1  0.66517400  0.12707400  0.43860400  1
  O  O39  1  0.87292600  0.33482600  0.06139600  1
  O  O40  1  0.65963900  0.08316400  0.57637700  1
  O  O41  1  0.91683600  0.34036100  0.92362300  1
  O  O42  1  0.90499200  0.33482400  0.51874100  1
  O  O43  1  0.66517600  0.09500800  0.98125900  1
  O  O44  1  0.64922800  0.05046000  0.71524100  1
  O  O45  1  0.94954000  0.35077200  0.78475900  1
  O  O46  1  0.96293500  0.16568900  0.64611400  1
  O  O47  1  0.83431100  0.03706500  0.85388600  1
loop_
_geom_bond_atom_site_label_1
_geom_bond_atom_site_label_2
_geom_bond_distance
_geom_bond_site_symmetry_2
Li0 O24 1.812439 1_555
Li0 O46 1.963501 1_455
Li0 O21 2.018047 1_555
Li1 O25 1.812439 1_555
Li1 O47 1.963501 1_565
Li1 O20 2.018047 1_555
Li2 O23 1.812439 1_555
Li2 O1 1.963501 1_655
Li2 O27 2.018047 1_555
Li3 O22 1.812439 1_555
Li3 O0 1.963501 1_545
Li3 O26 2.018047 1_555
Fe0 O35 1.927322 1_565
Fe0 O8 1.996181 1_555
Fe0 O47 2.036222 1_565
Fe0 O10 2.067345 1_555
Fe0 O20 2.149318 1_555
Fe0 O43 2.185434 1_565
Fe1 O34 1.927322 1_455
Fe1 O9 1.996181 1_555
Fe1 O46 2.036222 1_455
Fe1 O11 2.067345 1_555
Fe1 O21 2.149318 1_555
Fe1 O42 2.185434 1_455
Fe2 O13 1.927322 1_655
Fe2 O39 1.996181 1_555
Fe2 O1 2.036222 1_655
Fe2 O36 2.067345 1_555
Fe2 O27 2.149318 1_555
Fe2 O5 2.185434 1_655
Fe3 O12 1.927322 1_545
Fe3 O38 1.996181 1_555
Fe3 O0 2.036222 1_545
Fe3 O37 2.067345 1_555
Fe3 O26 2.149318 1_555
Fe3 O4 2.185434 1_545
O0 P1 1.536372 1_555
O1 P0 1.536372 1_555
O2 P0 1.459933 1_555
O3 P1 1.459933 1_555
O4 P3 1.496781 1_555
O5 P2 1.496781 1_555
O6 P3 1.597574 1_555
O6 P1 1.641451 1_555
O7 P2 1.597574 1_555
O7 P0 1.641451 1_555
O8 P2 1.506478 1_556
O9 P3 1.506478 1_555
O10 P4 1.506891 1_555
O11 P4 1.506891 1_555
O12 P6 1.516631 1_555
O13 P5 1.516631 1_555
O14 P7 1.592291 1_555
O14 P3 1.626408 1_555
O15 P8 1.592291 1_555
O15 P2 1.626408 1_555
O16 P10 1.625553 1_555
O16 P14 1.634485 1_565
O17 P9 1.625553 1_555
O17 P15 1.634485 1_455
O18 P4 1.606634 1_555
O18 P10 1.609079 1_555
O19 P4 1.606634 1_555
O19 P9 1.609079 1_555
O20 P8 1.517422 1_556
O21 P7 1.517422 1_555
O22 P5 1.474191 1_555
O23 P6 1.474191 1_555
O24 P9 1.474191 1_555
O25 P10 1.474191 1_555
O26 P7 1.517422 1_555
O27 P8 1.517422 1_555
O28 P11 1.606634 1_555
O28 P6 1.609079 1_555
O29 P11 1.606634 1_555
O29 P5 1.609079 1_555
O30 P5 1.625553 1_555
O30 P0 1.634485 1_545
O31 P6 1.625553 1_555
O31 P1 1.634485 1_655
O32 P8 1.592291 1_556
O32 P12 1.626408 1_555
O33 P7 1.592291 1_555
O33 P13 1.626408 1_555
O34 P10 1.516631 1_555
O35 P9 1.516631 1_555
O36 P11 1.506891 1_555
O37 P11 1.506891 1_555
O38 P13 1.506478 1_555
O39 P12 1.506478 1_554
O40 P13 1.597574 1_555
O40 P14 1.641451 1_555
O41 P12 1.597574 1_555
O41 P15 1.641451 1_555
O42 P13 1.496781 1_555
O43 P12 1.496781 1_555
O44 P14 1.459933 1_555
O45 P15 1.459933 1_555
O46 P14 1.536372 1_555
O47 P15 1.536372 1_555
