# generated using pymatgen
data_Na3AsH24SeO15
_symmetry_space_group_name_H-M   'P 1'
_cell_length_a   9.30869900
_cell_length_b   13.14078800
_cell_length_c   13.92796300
_cell_angle_alpha   90.00000000
_cell_angle_beta   90.00000000
_cell_angle_gamma   90.00000000
_symmetry_Int_Tables_number   1
_chemical_formula_structural   Na3AsH24SeO15
_chemical_formula_sum   'Na12 As4 H96 Se4 O60'
_cell_volume   1703.71913354
_cell_formula_units_Z   4
loop_
 _symmetry_equiv_pos_site_id
 _symmetry_equiv_pos_as_xyz
  1  'x, y, z'
loop_
 _atom_site_type_symbol
 _atom_site_label
 _atom_site_symmetry_multiplicity
 _atom_site_fract_x
 _atom_site_fract_y
 _atom_site_fract_z
 _atom_site_occupancy
  Na  Na0  1  0.74903100  0.00838400  0.97947600  1
  Na  Na1  1  0.75096900  0.99161600  0.47947600  1
  Na  Na2  1  0.24903100  0.49161600  0.02052400  1
  Na  Na3  1  0.25096900  0.50838400  0.52052400  1
  Na  Na4  1  0.74110200  0.21244400  0.10031000  1
  Na  Na5  1  0.75889800  0.78755600  0.60031000  1
  Na  Na6  1  0.24110200  0.28755600  0.89969000  1
  Na  Na7  1  0.25889800  0.71244400  0.39969000  1
  Na  Na8  1  0.74504300  0.21807300  0.39079800  1
  Na  Na9  1  0.75495700  0.78192700  0.89079800  1
  Na  Na10  1  0.24504300  0.28192700  0.60920200  1
  Na  Na11  1  0.25495700  0.71807300  0.10920200  1
  As  As0  1  0.74809100  0.54066500  0.27287200  1
  As  As1  1  0.75190900  0.45933500  0.77287200  1
  As  As2  1  0.24809100  0.95933500  0.72712800  1
  As  As3  1  0.25190900  0.04066500  0.22712800  1
  H  H0  1  0.98981700  0.08494000  0.05768100  1
  H  H1  1  0.51018300  0.91506000  0.55768100  1
  H  H2  1  0.48981700  0.41506000  0.94231900  1
  H  H3  1  0.01018300  0.58494000  0.44231900  1
  H  H4  1  0.95958900  0.03836400  0.15748300  1
  H  H5  1  0.54041100  0.96163600  0.65748300  1
  H  H6  1  0.45958900  0.46163600  0.84251700  1
  H  H7  1  0.04041100  0.53836400  0.34251700  1
  H  H8  1  0.01228600  0.35946300  0.02589400  1
  H  H9  1  0.48771400  0.64053700  0.52589400  1
  H  H10  1  0.51228600  0.14053700  0.97410600  1
  H  H11  1  0.98771400  0.85946300  0.47410600  1
  H  H12  1  0.97120600  0.41440800  0.92944400  1
  H  H13  1  0.52879400  0.58559200  0.42944400  1
  H  H14  1  0.47120600  0.08559200  0.07055600  1
  H  H15  1  0.02879400  0.91440800  0.57055600  1
  H  H16  1  0.77871100  0.03405900  0.29091100  1
  H  H17  1  0.72128900  0.96594100  0.79091100  1
  H  H18  1  0.27871100  0.46594100  0.70908900  1
  H  H19  1  0.22128900  0.53405900  0.20908900  1
  H  H20  1  0.94515800  0.04283600  0.31167200  1
  H  H21  1  0.55484200  0.95716400  0.81167200  1
  H  H22  1  0.44515800  0.45716400  0.68832800  1
  H  H23  1  0.05484200  0.54283600  0.18832800  1
  H  H24  1  0.49895100  0.11973700  0.48675000  1
  H  H25  1  0.00104900  0.88026300  0.98675000  1
  H  H26  1  0.99895100  0.38026300  0.51325000  1
  H  H27  1  0.50104900  0.61973700  0.01325000  1
  H  H28  1  0.47869000  0.06528300  0.38443200  1
  H  H29  1  0.02131000  0.93471700  0.88443200  1
  H  H30  1  0.97869000  0.43471700  0.61556800  1
  H  H31  1  0.52131000  0.56528300  0.11556800  1
  H  H32  1  0.51390200  0.24612100  0.25417100  1
  H  H33  1  0.98609800  0.75387900  0.75417100  1
  H  H34  1  0.01390200  0.25387900  0.74582900  1
  H  H35  1  0.48609800  0.74612100  0.24582900  1
  H  H36  1  0.60872100  0.34369000  0.23467000  1
  H  H37  1  0.89127900  0.65631000  0.73467000  1
  H  H38  1  0.10872100  0.15631000  0.76533000  1
  H  H39  1  0.39127900  0.84369000  0.26533000  1
  H  H40  1  0.70993000  0.40284600  0.97874400  1
  H  H41  1  0.79007000  0.59715400  0.47874400  1
  H  H42  1  0.20993000  0.09715400  0.02125600  1
  H  H43  1  0.29007000  0.90284600  0.52125600  1
  H  H44  1  0.65346000  0.41897500  0.08644300  1
  H  H45  1  0.84654000  0.58102500  0.58644300  1
  H  H46  1  0.15346000  0.08102500  0.91355700  1
  H  H47  1  0.34654000  0.91897500  0.41355700  1
  H  H48  1  0.93719100  0.38891400  0.34601200  1
  H  H49  1  0.56280900  0.61108600  0.84601200  1
  H  H50  1  0.43719100  0.11108600  0.65398800  1
  H  H51  1  0.06280900  0.88891400  0.15398800  1
  H  H52  1  0.03415200  0.29282100  0.36547600  1
  H  H53  1  0.46584800  0.70717900  0.86547600  1
  H  H54  1  0.53415200  0.20717900  0.63452400  1
  H  H55  1  0.96584800  0.79282100  0.13452400  1
  H  H56  1  0.66444400  0.42436700  0.44852400  1
  H  H57  1  0.83555600  0.57563300  0.94852400  1
  H  H58  1  0.16444400  0.07563300  0.55147600  1
  H  H59  1  0.33555600  0.92436700  0.05147600  1
  H  H60  1  0.66446200  0.36153300  0.54792200  1
  H  H61  1  0.83553800  0.63846700  0.04792200  1
  H  H62  1  0.16446200  0.13846700  0.45207800  1
  H  H63  1  0.33553800  0.86153300  0.95207800  1
  H  H64  1  0.55426400  0.82224800  0.43706200  1
  H  H65  1  0.94573600  0.17775200  0.93706200  1
  H  H66  1  0.05426400  0.67775200  0.56293800  1
  H  H67  1  0.44573600  0.32224800  0.06293800  1
  H  H68  1  0.68787400  0.78985700  0.37560400  1
  H  H69  1  0.81212600  0.21014300  0.87560400  1
  H  H70  1  0.18787400  0.71014300  0.62439600  1
  H  H71  1  0.31212600  0.28985700  0.12439600  1
  H  H72  1  0.54544000  0.85329700  0.03807300  1
  H  H73  1  0.95456000  0.14670300  0.53807300  1
  H  H74  1  0.04544000  0.64670300  0.96192700  1
  H  H75  1  0.45456000  0.35329700  0.46192700  1
  H  H76  1  0.67173200  0.79547500  0.09236100  1
  H  H77  1  0.82826800  0.20452500  0.59236100  1
  H  H78  1  0.17173200  0.70452500  0.90763900  1
  H  H79  1  0.32826800  0.29547500  0.40763900  1
  H  H80  1  0.02284300  0.27271800  0.17084700  1
  H  H81  1  0.47715700  0.72728200  0.67084700  1
  H  H82  1  0.52284300  0.22728200  0.82915300  1
  H  H83  1  0.97715700  0.77271800  0.32915300  1
  H  H84  1  0.93378100  0.37463500  0.18111700  1
  H  H85  1  0.56621900  0.62536500  0.68111700  1
  H  H86  1  0.43378100  0.12536500  0.81888300  1
  H  H87  1  0.06621900  0.87463500  0.31888300  1
  H  H88  1  0.64863800  0.94627600  0.16545400  1
  H  H89  1  0.85136200  0.05372400  0.66545400  1
  H  H90  1  0.14863800  0.55372400  0.83454600  1
  H  H91  1  0.35136200  0.44627600  0.33454600  1
  H  H92  1  0.54638300  0.98353900  0.25021600  1
  H  H93  1  0.95361700  0.01646100  0.75021600  1
  H  H94  1  0.04638300  0.51646100  0.74978400  1
  H  H95  1  0.45361700  0.48353900  0.24978400  1
  Se  Se0  1  0.76572700  0.71185600  0.23089900  1
  Se  Se1  1  0.73427300  0.28814400  0.73089900  1
  Se  Se2  1  0.26572700  0.78814400  0.76910100  1
  Se  Se3  1  0.23427300  0.21185600  0.26910100  1
  O  O0  1  0.91231000  0.47945400  0.25963400  1
  O  O1  1  0.58769000  0.52054600  0.75963400  1
  O  O2  1  0.41231000  0.02054600  0.74036600  1
  O  O3  1  0.08769000  0.97945400  0.24036600  1
  O  O4  1  0.69544900  0.53200300  0.39156600  1
  O  O5  1  0.80455100  0.46799700  0.89156600  1
  O  O6  1  0.19544900  0.96799700  0.60843400  1
  O  O7  1  0.30455100  0.03200300  0.10843400  1
  O  O8  1  0.62355500  0.47920000  0.20067200  1
  O  O9  1  0.87644500  0.52080000  0.70067200  1
  O  O10  1  0.12355500  0.02080000  0.79932800  1
  O  O11  1  0.37644500  0.97920000  0.29932800  1
  O  O12  1  0.91039400  0.07126200  0.10259900  1
  O  O13  1  0.58960600  0.92873800  0.60259900  1
  O  O14  1  0.41039400  0.42873800  0.89740100  1
  O  O15  1  0.08960600  0.57126200  0.39740100  1
  O  O16  1  0.55456400  0.11218900  0.03386200  1
  O  O17  1  0.94543600  0.88781100  0.53386200  1
  O  O18  1  0.05456400  0.38781100  0.96613800  1
  O  O19  1  0.44543600  0.61218900  0.46613800  1
  O  O20  1  0.85022200  0.06360700  0.33688000  1
  O  O21  1  0.64977800  0.93639300  0.83688000  1
  O  O22  1  0.35022200  0.43639300  0.66312000  1
  O  O23  1  0.14977800  0.56360700  0.16312000  1
  O  O24  1  0.54898700  0.09981700  0.42703200  1
  O  O25  1  0.95101300  0.90018300  0.92703200  1
  O  O26  1  0.04898700  0.40018300  0.57296800  1
  O  O27  1  0.45101300  0.59981700  0.07296800  1
  O  O28  1  0.61384200  0.26926000  0.24738200  1
  O  O29  1  0.88615800  0.73074000  0.74738200  1
  O  O30  1  0.11384200  0.23074000  0.75261800  1
  O  O31  1  0.38615800  0.76926000  0.25261800  1
  O  O32  1  0.64674500  0.37295800  0.02988800  1
  O  O33  1  0.85325500  0.62704200  0.52988800  1
  O  O34  1  0.14674500  0.12704200  0.97011200  1
  O  O35  1  0.35325500  0.87295800  0.47011200  1
  O  O36  1  0.95341100  0.33143900  0.39258100  1
  O  O37  1  0.54658900  0.66856100  0.89258100  1
  O  O38  1  0.45341100  0.16856100  0.60741900  1
  O  O39  1  0.04658900  0.83143900  0.10741900  1
  O  O40  1  0.63564100  0.35794500  0.48022800  1
  O  O41  1  0.86435900  0.64205500  0.98022800  1
  O  O42  1  0.13564100  0.14205500  0.51977200  1
  O  O43  1  0.36435900  0.85794500  0.01977200  1
  O  O44  1  0.65931400  0.82644700  0.43447500  1
  O  O45  1  0.84068600  0.17355300  0.93447500  1
  O  O46  1  0.15931400  0.67355300  0.56552500  1
  O  O47  1  0.34068600  0.32644700  0.06552500  1
  O  O48  1  0.65075800  0.85615800  0.05313000  1
  O  O49  1  0.84924200  0.14384200  0.55313000  1
  O  O50  1  0.15075800  0.64384200  0.94687000  1
  O  O51  1  0.34924200  0.35615800  0.44687000  1
  O  O52  1  0.94829300  0.31381000  0.13918200  1
  O  O53  1  0.55170700  0.68619000  0.63918200  1
  O  O54  1  0.44829300  0.18619000  0.86081800  1
  O  O55  1  0.05170700  0.81381000  0.36081800  1
  O  O56  1  0.64524000  0.98882000  0.22364700  1
  O  O57  1  0.85476000  0.01118000  0.72364700  1
  O  O58  1  0.14524000  0.51118000  0.77635300  1
  O  O59  1  0.35476000  0.48882000  0.27635300  1
loop_
_geom_bond_atom_site_label_1
_geom_bond_atom_site_label_2
_geom_bond_distance
_geom_bond_site_symmetry_2
Na0 O21 2.386012 1_545
Na0 O16 2.389864 1_556
Na0 O45 2.414877 1_555
Na0 O12 2.424805 1_556
Na0 O48 2.427075 1_546
Na0 O25 2.467853 1_545
Na1 O20 2.386012 1_565
Na1 O17 2.389864 1_555
Na1 O44 2.414877 1_555
Na1 O13 2.424805 1_555
Na1 O49 2.427075 1_565
Na1 O24 2.467853 1_565
Na2 O23 2.386012 1_555
Na2 O18 2.389864 1_554
Na2 O47 2.414877 1_555
Na2 O14 2.424805 1_554
Na2 O50 2.427075 1_554
Na2 O27 2.467853 1_555
Na3 O22 2.386012 1_555
Na3 O19 2.389864 1_555
Na3 O46 2.414877 1_555
Na3 O15 2.424805 1_555
Na3 O51 2.427075 1_555
Na3 O26 2.467853 1_555
Na4 O16 2.367978 1_555
Na4 O52 2.405665 1_555
Na4 O12 2.434413 1_555
Na4 O28 2.481281 1_555
Na4 O32 2.486480 1_555
Na4 O45 2.540752 1_554
Na5 O17 2.367978 1_555
Na5 O53 2.405665 1_555
Na5 O13 2.434413 1_555
Na5 O29 2.481281 1_555
Na5 O33 2.486480 1_555
Na5 O44 2.540752 1_555
Na6 O18 2.367978 1_555
Na6 O54 2.405665 1_555
Na6 O14 2.434413 1_555
Na6 O30 2.481281 1_555
Na6 O34 2.486480 1_555
Na6 O47 2.540752 1_556
Na7 O19 2.367978 1_555
Na7 O55 2.405665 1_555
Na7 O15 2.434413 1_555
Na7 O31 2.481281 1_555
Na7 O35 2.486480 1_555
Na7 O46 2.540752 1_555
Na8 O20 2.375428 1_555
Na8 O28 2.435984 1_555
Na8 O40 2.442730 1_555
Na8 O36 2.445825 1_555
Na8 O24 2.449541 1_555
Na8 O49 2.646553 1_555
Na9 O21 2.375428 1_555
Na9 O29 2.435984 1_555
Na9 O41 2.442730 1_555
Na9 O37 2.445825 1_555
Na9 O25 2.449541 1_555
Na9 O48 2.646553 1_556
Na10 O22 2.375428 1_555
Na10 O30 2.435984 1_555
Na10 O42 2.442730 1_555
Na10 O38 2.445825 1_555
Na10 O26 2.449541 1_555
Na10 O51 2.646553 1_555
Na11 O23 2.375428 1_555
Na11 O31 2.435984 1_555
Na11 O43 2.442730 1_555
Na11 O39 2.445825 1_555
Na11 O27 2.449541 1_555
Na11 O50 2.646553 1_554
As0 O4 1.728016 1_555
As0 O8 1.734217 1_555
As0 O0 1.737184 1_555
As0 Se0 2.330094 1_555
As1 O5 1.728016 1_555
As1 O9 1.734217 1_555
As1 O1 1.737184 1_555
As1 Se1 2.330094 1_555
As2 O6 1.728016 1_555
As2 O10 1.734217 1_565
As2 O2 1.737184 1_565
As2 Se2 2.330094 1_555
As3 O7 1.728016 1_555
As3 O11 1.734217 1_545
As3 O3 1.737184 1_545
As3 Se3 2.330094 1_555
H0 O12 0.985040 1_555
H1 O13 0.985040 1_555
H2 O14 0.985040 1_555
H3 O15 0.985040 1_555
H4 O12 0.990424 1_555
H5 O13 0.990424 1_555
H6 O14 0.990424 1_555
H7 O15 0.990424 1_555
H8 O18 0.993147 1_554
H9 O19 0.993147 1_555
H10 O16 0.993147 1_556
H11 O17 0.993147 1_555
H12 O18 0.992701 1_655
H12 O5 1.783503 1_555
H13 O19 0.992701 1_555
H13 O4 1.783503 1_555
H14 O16 0.992701 1_555
H14 O7 1.783503 1_555
H15 O17 0.992701 1_455
H15 O6 1.783503 1_555
H16 O20 1.001905 1_555
H17 O21 1.001905 1_555
H18 O22 1.001905 1_555
H19 O23 1.001905 1_555
H20 O20 0.989317 1_555
H21 O21 0.989317 1_555
H22 O22 0.989317 1_555
H23 O23 0.989317 1_555
H24 O24 0.988570 1_555
H25 O25 0.988570 1_455
H26 O26 0.988570 1_655
H27 O27 0.988570 1_555
H28 O24 0.993068 1_555
H29 O25 0.993068 1_455
H30 O26 0.993068 1_655
H31 O27 0.993068 1_555
H32 O28 0.983298 1_555
H33 O29 0.983298 1_555
H34 O30 0.983298 1_555
H35 O31 0.983298 1_555
H36 O28 0.995107 1_555
H37 O29 0.995107 1_555
H38 O30 0.995107 1_555
H39 O31 0.995107 1_555
H40 O32 1.003800 1_556
H40 O5 1.727161 1_555
H41 O33 1.003800 1_555
H41 O4 1.727161 1_555
H42 O34 1.003800 1_554
H42 O7 1.727161 1_555
H43 O35 1.003800 1_555
H43 O6 1.727161 1_555
H44 O32 0.995004 1_555
H45 O33 0.995004 1_555
H46 O34 0.995004 1_555
H47 O35 0.995004 1_555
H48 O36 1.006937 1_555
H49 O37 1.006937 1_555
H50 O38 1.006937 1_555
H51 O39 1.006937 1_555
H52 O36 0.982313 1_455
H53 O37 0.982313 1_555
H54 O38 0.982313 1_555
H55 O39 0.982313 1_655
H56 O40 1.014258 1_555
H56 O4 1.647188 1_555
H57 O41 1.014258 1_555
H57 O5 1.647188 1_555
H58 O42 1.014258 1_555
H58 O6 1.647188 1_545
H59 O43 1.014258 1_555
H59 O7 1.647188 1_565
H60 O40 0.981400 1_555
H61 O41 0.981400 1_554
H62 O42 0.981400 1_555
H63 O43 0.981400 1_556
H64 O44 0.980097 1_555
H65 O45 0.980097 1_555
H66 O46 0.980097 1_555
H67 O47 0.980097 1_555
H68 O44 0.987012 1_555
H69 O45 0.987012 1_555
H70 O46 0.987012 1_555
H71 O47 0.987012 1_555
H72 O48 1.003257 1_555
H73 O49 1.003257 1_555
H74 O50 1.003257 1_555
H75 O51 1.003257 1_555
H76 O48 0.986186 1_555
H77 O49 0.986186 1_555
H78 O50 0.986186 1_555
H79 O51 0.986186 1_555
H80 O52 0.983703 1_455
H81 O53 0.983703 1_555
H82 O54 0.983703 1_555
H83 O55 0.983703 1_655
H84 O52 0.999123 1_555
H85 O53 0.999123 1_555
H86 O54 0.999123 1_555
H87 O55 0.999123 1_555
H88 O56 0.985128 1_555
H89 O57 0.985128 1_555
H90 O58 0.985128 1_555
H91 O59 0.985128 1_555
H92 O56 0.994272 1_555
H93 O57 0.994272 1_555
H94 O58 0.994272 1_555
H95 O59 0.994272 1_555
