# generated using pymatgen
data_Li4VCo3O8
_symmetry_space_group_name_H-M   'P 1'
_cell_length_a   5.10608000
_cell_length_b   5.57716085
_cell_length_c   6.48596939
_cell_angle_alpha   90.23497573
_cell_angle_beta   90.24379605
_cell_angle_gamma   90.06736196
_symmetry_Int_Tables_number   1
_chemical_formula_structural   Li4VCo3O8
_chemical_formula_sum   'Li4 V1 Co3 O8'
_cell_volume   184.70037931
_cell_formula_units_Z   1
loop_
 _symmetry_equiv_pos_site_id
 _symmetry_equiv_pos_as_xyz
  1  'x, y, z'
loop_
 _atom_site_type_symbol
 _atom_site_label
 _atom_site_symmetry_multiplicity
 _atom_site_fract_x
 _atom_site_fract_y
 _atom_site_fract_z
 _atom_site_occupancy
  Li  Li0  1  0.01071900  0.08775200  0.38302200  1
  Li  Li1  1  0.49737700  0.42518200  0.86895000  1
  Li  Li2  1  0.01101000  0.57081800  0.12595700  1
  Li  Li3  1  0.49713400  0.90247800  0.62380200  1
  V  V0  1  0.49818900  0.91891200  0.12506900  1
  Co  Co0  1  0.00792700  0.08674800  0.86260100  1
  Co  Co1  1  0.49583200  0.42427300  0.38258800  1
  Co  Co2  1  0.00390400  0.58282000  0.62761300  1
  O  O0  1  0.61486800  0.06429400  0.90352900  1
  O  O1  1  0.60591500  0.07570300  0.34550500  1
  O  O2  1  0.11155400  0.41607700  0.86622900  1
  O  O3  1  0.11678400  0.42271800  0.38583600  1
  O  O4  1  0.63306300  0.57503700  0.62483800  1
  O  O5  1  0.60744100  0.61977900  0.13126000  1
  O  O6  1  0.10719500  0.90494800  0.62332400  1
  O  O7  1  0.15468900  0.92246000  0.11987600  1
loop_
_geom_bond_atom_site_label_1
_geom_bond_atom_site_label_2
_geom_bond_distance
_geom_bond_site_symmetry_2
Li0 O6 1.928469 1_545
Li0 O3 1.944457 1_555
Li0 O7 2.074275 1_545
Li0 O1 2.081182 1_455
Li1 O4 1.924626 1_555
Li1 O2 1.970640 1_555
Li1 O5 2.088908 1_556
Li1 O0 2.113453 1_555
Li2 O3 1.954430 1_555
Li2 O2 1.960274 1_554
Li2 O5 2.079398 1_455
Li2 O7 2.093667 1_555
Li3 O4 1.954427 1_555
Li3 O6 1.991113 1_555
Li3 O0 2.107973 1_565
Li3 O1 2.126398 1_565
Co0 O2 1.910845 1_555
Co0 O6 1.920545 1_545
Co0 O0 2.029379 1_455
Co0 O7 2.046729 1_546
Co1 O4 1.909231 1_555
Co1 O3 1.935663 1_555
Co1 O1 2.037876 1_555
Co1 O5 2.047423 1_555
Co2 O6 1.872130 1_555
Co2 O2 1.888903 1_555
Co2 O3 1.893685 1_555
Co2 O4 1.893998 1_455
O0 V0 1.758625 1_546
O1 V0 1.758779 1_545
O5 V0 1.760291 1_555
O7 V0 1.754255 1_555
