# generated using pymatgen
data_Li8Mn3Fe5(BO3)8
_symmetry_space_group_name_H-M   'P 1'
_cell_length_a   5.24163300
_cell_length_b   5.24274170
_cell_length_c   20.82127666
_cell_angle_alpha   90.53756131
_cell_angle_beta   90.85599536
_cell_angle_gamma   119.89335075
_symmetry_Int_Tables_number   1
_chemical_formula_structural   Li8Mn3Fe5(BO3)8
_chemical_formula_sum   'Li8 Mn3 Fe5 B8 O24'
_cell_volume   495.90497425
_cell_formula_units_Z   1
loop_
 _symmetry_equiv_pos_site_id
 _symmetry_equiv_pos_as_xyz
  1  'x, y, z'
loop_
 _atom_site_type_symbol
 _atom_site_label
 _atom_site_symmetry_multiplicity
 _atom_site_fract_x
 _atom_site_fract_y
 _atom_site_fract_z
 _atom_site_occupancy
  Li  Li0  1  0.67658000  0.65201300  0.33385700  1
  Li  Li1  1  0.65272100  0.67814900  0.08351900  1
  Li  Li2  1  0.67858100  0.65264500  0.83271100  1
  Li  Li3  1  0.65211000  0.67620300  0.58452300  1
  Li  Li4  1  0.34698600  0.33543200  0.20813400  1
  Li  Li5  1  0.33784900  0.34664500  0.45828300  1
  Li  Li6  1  0.35107700  0.34036400  0.70857400  1
  Li  Li7  1  0.33500500  0.34751800  0.95874200  1
  Mn  Mn0  1  0.67204200  0.00674800  0.44155200  1
  Mn  Mn1  1  0.32287100  0.99943100  0.06674400  1
  Mn  Mn2  1  0.00030200  0.32280800  0.81708500  1
  Fe  Fe0  1  0.67456900  0.99938700  0.94135900  1
  Fe  Fe1  1  0.31630200  0.00198200  0.56695500  1
  Fe  Fe2  1  0.00683800  0.32335100  0.31543700  1
  Fe  Fe3  1  0.99667900  0.66838800  0.19257100  1
  Fe  Fe4  1  0.01313000  0.67063800  0.68986300  1
  B  B0  1  0.99600500  0.33939300  0.06283700  1
  B  B1  1  0.99382300  0.33607300  0.56368100  1
  B  B2  1  0.66896600  0.00640800  0.18887100  1
  B  B3  1  0.66838800  0.00643200  0.68725900  1
  B  B4  1  0.33755300  0.99607800  0.31252400  1
  B  B5  1  0.33843500  0.99511200  0.81278500  1
  B  B6  1  0.00619900  0.66726900  0.43789100  1
  B  B7  1  0.00589700  0.66969700  0.93818400  1
  O  O0  1  0.93262200  0.25419600  0.20801400  1
  O  O1  1  0.93062000  0.25824500  0.70698600  1
  O  O2  1  0.74639500  0.06917000  0.04728900  1
  O  O3  1  0.96569700  0.57659200  0.08364500  1
  O  O4  1  0.73988900  0.06959400  0.54965500  1
  O  O5  1  0.97491400  0.58238000  0.58213500  1
  O  O6  1  0.41889600  0.02725700  0.17452800  1
  O  O7  1  0.73147600  0.64312100  0.43054600  1
  O  O8  1  0.41842400  0.03228400  0.67286500  1
  O  O9  1  0.73370900  0.65139800  0.93204300  1
  O  O10  1  0.65372100  0.73465000  0.18214100  1
  O  O11  1  0.65422000  0.73911000  0.68101500  1
  O  O12  1  0.35761400  0.26982700  0.30619600  1
  O  O13  1  0.36818400  0.27205800  0.80583600  1
  O  O14  1  0.27261500  0.36910200  0.05623400  1
  O  O15  1  0.58302500  0.97741700  0.33142300  1
  O  O16  1  0.26892400  0.35775200  0.55725000  1
  O  O17  1  0.57679900  0.96591400  0.83349300  1
  O  O18  1  0.03894600  0.42427300  0.42210200  1
  O  O19  1  0.02724700  0.41896500  0.92388200  1
  O  O20  1  0.24758300  0.92962000  0.45946000  1
  O  O21  1  0.25474300  0.93245900  0.95724700  1
  O  O22  1  0.06798000  0.74157700  0.29853300  1
  O  O23  1  0.06805500  0.74607500  0.79733400  1
loop_
_geom_bond_atom_site_label_1
_geom_bond_atom_site_label_2
_geom_bond_distance
_geom_bond_site_symmetry_2
Li0 O12 1.937052 1_555
Li0 O15 1.997069 1_555
Li0 O22 2.015373 1_655
Li0 O7 2.033647 1_555
Li1 O14 1.910157 1_555
Li1 O3 1.960944 1_555
Li1 O2 2.012334 1_565
Li1 O10 2.071495 1_555
Li2 O13 1.912451 1_555
Li2 O17 1.963538 1_555
Li2 O23 2.001273 1_655
Li2 O9 2.084551 1_555
Li3 O16 1.936400 1_555
Li3 O5 1.984696 1_555
Li3 O4 2.021052 1_565
Li3 O11 2.031893 1_555
Li4 O6 1.958521 1_555
Li4 O10 1.987849 1_555
Li4 O0 1.994119 1_455
Li4 O12 2.078252 1_555
Li5 O18 1.947791 1_555
Li5 O7 1.965275 1_555
Li5 O20 1.993701 1_545
Li5 O16 2.102624 1_555
Li6 O8 1.959561 1_555
Li6 O11 1.990742 1_555
Li6 O1 2.023690 1_455
Li6 O13 2.068231 1_555
Li7 O19 1.960058 1_555
Li7 O9 1.986782 1_555
Li7 O21 1.999740 1_545
Li7 O14 2.071880 1_556
Mn0 O7 2.090421 1_545
Mn0 O20 2.093658 1_545
Mn0 O18 2.120831 1_655
Mn0 O4 2.268633 1_555
Mn0 O15 2.321470 1_545
Mn1 O14 2.094898 1_565
Mn1 O3 2.107283 1_455
Mn1 O2 2.108691 1_565
Mn1 O6 2.279906 1_565
Mn1 O21 2.298755 1_554
Mn2 O13 2.089912 1_555
Mn2 O17 2.107120 1_445
Mn2 O23 2.110808 1_555
Mn2 O19 2.262150 1_555
Mn2 O1 2.310903 1_455
Fe0 O9 2.005267 1_555
Fe0 O21 2.080709 1_555
Fe0 O19 2.090551 1_665
Fe0 O2 2.227781 1_566
Fe0 O17 2.281688 1_555
Fe1 O16 2.012162 1_555
Fe1 O5 2.060947 1_445
Fe1 O4 2.104015 1_555
Fe1 O8 2.246773 1_555
Fe1 O20 2.259846 1_545
Fe2 O12 2.005043 1_555
Fe2 O22 2.086076 1_555
Fe2 O15 2.086261 1_445
Fe2 O0 2.259145 1_455
Fe2 O18 2.262455 1_555
Fe3 O10 2.002913 1_555
Fe3 O0 2.054535 1_555
Fe3 O6 2.113416 1_665
Fe3 O22 2.229585 1_655
Fe3 O3 2.300505 1_555
Fe4 O1 2.018841 1_455
Fe4 O8 2.062370 1_565
Fe4 O11 2.089509 1_455
Fe4 O23 2.257693 1_555
Fe4 O5 2.271595 1_455
B0 O14 1.388018 1_655
B0 O3 1.395810 1_555
B0 O2 1.398152 1_555
B1 O4 1.391378 1_555
B1 O5 1.394411 1_555
B1 O16 1.397441 1_655
B2 O10 1.392261 1_545
B2 O0 1.393083 1_555
B2 O6 1.396780 1_555
B3 O11 1.370827 1_545
B3 O1 1.401822 1_555
B3 O8 1.410994 1_555
B4 O15 1.389610 1_555
B4 O12 1.393462 1_565
B4 O22 1.401033 1_555
B5 O13 1.390095 1_565
B5 O17 1.395049 1_555
B5 O23 1.396713 1_555
B6 O7 1.387208 1_455
B6 O20 1.389655 1_555
B6 O18 1.404393 1_555
B7 O9 1.385258 1_455
B7 O21 1.392785 1_555
B7 O19 1.403372 1_555
