# generated using pymatgen
data_Mg5H10(C2O9)2
_symmetry_space_group_name_H-M   'P 1'
_cell_length_a   9.20406500
_cell_length_b   8.40983500
_cell_length_c   10.15475630
_cell_angle_alpha   65.51143216
_cell_angle_beta   90.00000000
_cell_angle_gamma   90.00000000
_symmetry_Int_Tables_number   1
_chemical_formula_structural   Mg5H10(C2O9)2
_chemical_formula_sum   'Mg10 H20 C8 O36'
_cell_volume   715.31782308
_cell_formula_units_Z   2
loop_
 _symmetry_equiv_pos_site_id
 _symmetry_equiv_pos_as_xyz
  1  'x, y, z'
loop_
 _atom_site_type_symbol
 _atom_site_label
 _atom_site_symmetry_multiplicity
 _atom_site_fract_x
 _atom_site_fract_y
 _atom_site_fract_z
 _atom_site_occupancy
  Mg  Mg0  1  0.56956200  0.14055800  0.34464600  1
  Mg  Mg1  1  0.06956200  0.35944200  0.65535400  1
  Mg  Mg2  1  0.43043800  0.85944200  0.65535400  1
  Mg  Mg3  1  0.93043800  0.64055800  0.34464600  1
  Mg  Mg4  1  0.93103400  0.00835300  0.34547500  1
  Mg  Mg5  1  0.43103400  0.49164700  0.65452500  1
  Mg  Mg6  1  0.06896600  0.99164700  0.65452500  1
  Mg  Mg7  1  0.56896600  0.50835300  0.34547500  1
  Mg  Mg8  1  0.50000000  0.50000000  0.00000000  1
  Mg  Mg9  1  0.00000000  0.00000000  0.00000000  1
  H  H0  1  0.37768400  0.38090100  0.23366500  1
  H  H1  1  0.87768400  0.11909900  0.76633500  1
  H  H2  1  0.62231600  0.61909900  0.76633500  1
  H  H3  1  0.12231600  0.88090100  0.23366500  1
  H  H4  1  0.12618800  0.20858300  0.14750000  1
  H  H5  1  0.62618800  0.29141700  0.85250000  1
  H  H6  1  0.87381200  0.79141700  0.85250000  1
  H  H7  1  0.37381200  0.70858300  0.14750000  1
  H  H8  1  0.19661000  0.14041300  0.30150900  1
  H  H9  1  0.69661000  0.35958700  0.69849100  1
  H  H10  1  0.80339000  0.85958700  0.69849100  1
  H  H11  1  0.30339000  0.64041300  0.30150900  1
  H  H12  1  0.40403000  0.13007300  0.13700300  1
  H  H13  1  0.90403000  0.36992700  0.86299700  1
  H  H14  1  0.59597000  0.86992700  0.86299700  1
  H  H15  1  0.09597000  0.63007300  0.13700300  1
  H  H16  1  0.41572500  0.92349500  0.24618800  1
  H  H17  1  0.91572500  0.57650500  0.75381200  1
  H  H18  1  0.58427500  0.07650500  0.75381200  1
  H  H19  1  0.08427500  0.42349500  0.24618800  1
  C  C0  1  0.76650900  0.22778800  0.07982200  1
  C  C1  1  0.26650900  0.27221200  0.92017800  1
  C  C2  1  0.23349100  0.77221200  0.92017800  1
  C  C3  1  0.73349100  0.72778800  0.07982200  1
  C  C4  1  0.83272400  0.26253200  0.47388100  1
  C  C5  1  0.33272400  0.23746800  0.52611900  1
  C  C6  1  0.16727600  0.73746800  0.52611900  1
  C  C7  1  0.66727600  0.76253200  0.47388100  1
  O  O0  1  0.48349800  0.38412200  0.22583200  1
  O  O1  1  0.98349800  0.11587800  0.77416800  1
  O  O2  1  0.51650200  0.61587800  0.77416800  1
  O  O3  1  0.01650200  0.88412200  0.22583200  1
  O  O4  1  0.11210000  0.20591900  0.24641000  1
  O  O5  1  0.61210000  0.29408100  0.75359000  1
  O  O6  1  0.88790000  0.79408100  0.75359000  1
  O  O7  1  0.38790000  0.70591900  0.24641000  1
  O  O8  1  0.42360900  0.04329900  0.23990700  1
  O  O9  1  0.92360900  0.45670100  0.76009300  1
  O  O10  1  0.57639100  0.95670100  0.76009300  1
  O  O11  1  0.07639100  0.54329900  0.23990700  1
  O  O12  1  0.66843400  0.33581800  0.00517600  1
  O  O13  1  0.16843400  0.16418200  0.99482400  1
  O  O14  1  0.33156600  0.66418200  0.99482400  1
  O  O15  1  0.83156600  0.83581800  0.00517600  1
  O  O16  1  0.87723700  0.19965400  0.01444900  1
  O  O17  1  0.37723700  0.30034600  0.98555100  1
  O  O18  1  0.12276300  0.80034600  0.98555100  1
  O  O19  1  0.62276300  0.69965400  0.01444900  1
  O  O20  1  0.75695700  0.14653700  0.22098700  1
  O  O21  1  0.25695700  0.35346300  0.77901300  1
  O  O22  1  0.24304300  0.85346300  0.77901300  1
  O  O23  1  0.74304300  0.64653700  0.22098700  1
  O  O24  1  0.69931900  0.28296500  0.43124200  1
  O  O25  1  0.19931900  0.21703500  0.56875800  1
  O  O26  1  0.30068100  0.71703500  0.56875800  1
  O  O27  1  0.80068100  0.78296500  0.43124200  1
  O  O28  1  0.90095000  0.11815500  0.49525100  1
  O  O29  1  0.40095000  0.38184500  0.50474900  1
  O  O30  1  0.09905000  0.88184500  0.50474900  1
  O  O31  1  0.59905000  0.61815500  0.49525100  1
  O  O32  1  0.89788700  0.38512500  0.49759800  1
  O  O33  1  0.39788700  0.11487500  0.50240200  1
  O  O34  1  0.10211300  0.61487500  0.50240200  1
  O  O35  1  0.60211300  0.88512500  0.49759800  1
loop_
_geom_bond_atom_site_label_1
_geom_bond_atom_site_label_2
_geom_bond_distance
_geom_bond_site_symmetry_2
Mg0 O0 2.056705 1_555
Mg0 O8 2.079924 1_555
Mg0 O35 2.085829 1_545
Mg0 O20 2.121781 1_555
Mg0 O24 2.122965 1_555
Mg0 O33 2.196102 1_555
Mg1 O1 2.056705 1_455
Mg1 O9 2.079924 1_455
Mg1 O34 2.085829 1_555
Mg1 O21 2.121781 1_555
Mg1 O25 2.122965 1_555
Mg1 O32 2.196102 1_455
Mg2 O2 2.056705 1_555
Mg2 O10 2.079924 1_555
Mg2 O33 2.085829 1_565
Mg2 O22 2.121781 1_555
Mg2 O26 2.122965 1_555
Mg2 O35 2.196102 1_555
Mg3 O3 2.056705 1_655
Mg3 O11 2.079924 1_655
Mg3 O32 2.085829 1_555
Mg3 O23 2.121781 1_555
Mg3 O27 2.122965 1_555
Mg3 O34 2.196102 1_655
Mg4 O3 2.058822 1_645
Mg4 O20 2.073103 1_555
Mg4 O28 2.099275 1_555
Mg4 O27 2.102913 1_545
Mg4 O30 2.170887 1_645
Mg4 O4 2.272505 1_655
Mg5 O2 2.058822 1_555
Mg5 O21 2.073103 1_555
Mg5 O29 2.099275 1_555
Mg5 O26 2.102913 1_555
Mg5 O31 2.170887 1_555
Mg5 O5 2.272505 1_555
Mg6 O1 2.058822 1_465
Mg6 O22 2.073103 1_555
Mg6 O30 2.099275 1_555
Mg6 O25 2.102913 1_565
Mg6 O28 2.170887 1_465
Mg6 O6 2.272505 1_455
Mg7 O0 2.058822 1_555
Mg7 O23 2.073103 1_555
Mg7 O31 2.099275 1_555
Mg7 O24 2.102913 1_555
Mg7 O29 2.170887 1_555
Mg7 O7 2.272505 1_555
Mg8 O12 2.062137 1_555
Mg8 O14 2.062137 1_554
Mg8 O19 2.078874 1_555
Mg8 O17 2.078874 1_554
Mg8 O0 2.092632 1_555
Mg8 O2 2.092632 1_554
Mg9 O13 2.062137 1_554
Mg9 O15 2.062137 1_445
Mg9 O16 2.078874 1_455
Mg9 O18 2.078874 1_544
Mg9 O1 2.092632 1_454
Mg9 O3 2.092632 1_545
H0 O0 0.976623 1_555
H1 O1 0.976623 1_555
H2 O2 0.976623 1_555
H3 O3 0.976623 1_555
H4 O4 1.003740 1_555
H5 O5 1.003740 1_555
H6 O6 1.003740 1_555
H7 O7 1.003740 1_555
H8 O4 0.982872 1_555
H9 O5 0.982872 1_555
H10 O6 0.982872 1_555
H11 O7 0.982872 1_555
H12 O8 1.012315 1_555
H12 O17 1.628158 1_554
H13 O9 1.012315 1_555
H13 O16 1.628158 1_556
H14 O10 1.012315 1_555
H14 O19 1.628158 1_556
H15 O11 1.012315 1_555
H15 O18 1.628158 1_554
H16 O8 0.985484 1_565
H17 O9 0.985484 1_555
H18 O10 0.985484 1_545
H19 O11 0.985484 1_555
C0 O12 1.282150 1_555
C0 O16 1.290561 1_555
C0 O20 1.310537 1_555
C1 O13 1.282150 1_555
C1 O17 1.290561 1_555
C1 O21 1.310537 1_555
C2 O14 1.282150 1_555
C2 O18 1.290561 1_555
C2 O22 1.310537 1_555
C3 O15 1.282150 1_555
C3 O19 1.290561 1_555
C3 O23 1.310537 1_555
C4 O24 1.289568 1_555
C4 O32 1.298655 1_555
C4 O28 1.302779 1_555
C5 O25 1.289568 1_555
C5 O33 1.298655 1_555
C5 O29 1.302779 1_555
C6 O26 1.289568 1_555
C6 O34 1.298655 1_555
C6 O30 1.302779 1_555
C7 O27 1.289568 1_555
C7 O35 1.298655 1_555
C7 O31 1.302779 1_555
