# generated using pymatgen
data_TlCoO3
_symmetry_space_group_name_H-M   'P 1'
_cell_length_a   5.39412900
_cell_length_b   5.41643900
_cell_length_c   7.96169500
_cell_angle_alpha   90.00000000
_cell_angle_beta   90.00000000
_cell_angle_gamma   90.00000000
_symmetry_Int_Tables_number   1
_chemical_formula_structural   TlCoO3
_chemical_formula_sum   'Tl4 Co4 O12'
_cell_volume   232.61660943
_cell_formula_units_Z   4
loop_
 _symmetry_equiv_pos_site_id
 _symmetry_equiv_pos_as_xyz
  1  'x, y, z'
loop_
 _atom_site_type_symbol
 _atom_site_label
 _atom_site_symmetry_multiplicity
 _atom_site_fract_x
 _atom_site_fract_y
 _atom_site_fract_z
 _atom_site_occupancy
  Tl  Tl0  1  0.01507400  0.95584100  0.25000000  1
  Tl  Tl1  1  0.48492600  0.45584100  0.25000000  1
  Tl  Tl2  1  0.51507400  0.54415900  0.75000000  1
  Tl  Tl3  1  0.98492600  0.04415900  0.75000000  1
  Co  Co0  1  0.00000000  0.50000000  0.50000000  1
  Co  Co1  1  0.00000000  0.50000000  0.00000000  1
  Co  Co2  1  0.50000000  0.00000000  0.50000000  1
  Co  Co3  1  0.50000000  0.00000000  0.00000000  1
  O  O0  1  0.10773700  0.44680000  0.75000000  1
  O  O1  1  0.18775500  0.21375500  0.05984500  1
  O  O2  1  0.18775500  0.21375500  0.44015500  1
  O  O3  1  0.31224500  0.71375500  0.44015500  1
  O  O4  1  0.31224500  0.71375500  0.05984500  1
  O  O5  1  0.39226300  0.94680000  0.75000000  1
  O  O6  1  0.60773700  0.05320000  0.25000000  1
  O  O7  1  0.68775500  0.28624500  0.94015500  1
  O  O8  1  0.68775500  0.28624500  0.55984500  1
  O  O9  1  0.81224500  0.78624500  0.55984500  1
  O  O10  1  0.81224500  0.78624500  0.94015500  1
  O  O11  1  0.89226300  0.55320000  0.25000000  1
loop_
_geom_bond_atom_site_label_1
_geom_bond_atom_site_label_2
_geom_bond_distance
_geom_bond_site_symmetry_2
Co0 O9 1.912214 1_455
Co0 O2 1.912214 1_555
Co0 O0 2.093455 1_555
Co0 O11 2.093455 1_455
Co0 O3 2.098650 1_555
Co0 O8 2.098650 1_455
Co1 O1 1.912214 1_555
Co1 O10 1.912214 1_454
Co1 O0 2.093455 1_554
Co1 O11 2.093455 1_455
Co1 O4 2.098650 1_555
Co1 O7 2.098650 1_454
Co2 O8 1.912214 1_555
Co2 O3 1.912214 1_545
Co2 O6 2.093455 1_555
Co2 O5 2.093455 1_545
Co2 O9 2.098650 1_545
Co2 O2 2.098650 1_555
Co3 O7 1.912214 1_554
Co3 O4 1.912214 1_545
Co3 O5 2.093455 1_544
Co3 O6 2.093455 1_555
Co3 O1 2.098650 1_555
Co3 O10 2.098650 1_544
O0 Tl2 2.259624 1_555
O0 Tl3 2.279274 1_455
O1 Tl0 2.260802 1_545
O1 Tl1 2.565339 1_555
O2 Tl0 2.260802 1_545
O2 Tl1 2.565339 1_555
O3 Tl1 2.260802 1_555
O3 Tl0 2.565339 1_555
O4 Tl1 2.260802 1_555
O4 Tl0 2.565339 1_555
O5 Tl3 2.259624 1_465
O5 Tl2 2.279274 1_555
O6 Tl0 2.259624 1_645
O6 Tl1 2.279274 1_555
O7 Tl2 2.260802 1_555
O7 Tl3 2.565339 1_555
O8 Tl2 2.260802 1_555
O8 Tl3 2.565339 1_555
O9 Tl3 2.260802 1_565
O9 Tl2 2.565339 1_555
O10 Tl3 2.260802 1_565
O10 Tl2 2.565339 1_555
O11 Tl1 2.259624 1_555
O11 Tl0 2.279274 1_655
