# generated using pymatgen
data_Sr5(CoO3)4
_symmetry_space_group_name_H-M   'P 1'
_cell_length_a   9.56500400
_cell_length_b   9.56500361
_cell_length_c   20.23545100
_cell_angle_alpha   90.00000000
_cell_angle_beta   90.00000000
_cell_angle_gamma   120.00000135
_symmetry_Int_Tables_number   1
_chemical_formula_structural   Sr5(CoO3)4
_chemical_formula_sum   'Sr30 Co24 O72'
_cell_volume   1603.29636606
_cell_formula_units_Z   6
loop_
 _symmetry_equiv_pos_site_id
 _symmetry_equiv_pos_as_xyz
  1  'x, y, z'
loop_
 _atom_site_type_symbol
 _atom_site_label
 _atom_site_symmetry_multiplicity
 _atom_site_fract_x
 _atom_site_fract_y
 _atom_site_fract_z
 _atom_site_occupancy
  Sr  Sr0  1  0.33215200  0.33217300  0.79853900  1
  Sr  Sr1  1  0.36438000  0.00268000  0.49817100  1
  Sr  Sr2  1  0.02738300  0.69322000  0.20004200  1
  Sr  Sr3  1  0.66782700  0.66784800  0.29853900  1
  Sr  Sr4  1  0.02738300  0.33416300  0.70004200  1
  Sr  Sr5  1  0.30678000  0.97261700  0.70004200  1
  Sr  Sr6  1  0.36438000  0.36170000  0.99817100  1
  Sr  Sr7  1  0.66782700  0.99997800  0.79853900  1
  Sr  Sr8  1  0.63830000  0.63562000  0.49817100  1
  Sr  Sr9  1  0.33014200  0.99434100  0.09830700  1
  Sr  Sr10  1  0.97006000  0.66457100  0.40005000  1
  Sr  Sr11  1  0.33542900  0.02994000  0.90005000  1
  Sr  Sr12  1  0.00002200  0.33217300  0.29853900  1
  Sr  Sr13  1  0.66583700  0.97261700  0.20004200  1
  Sr  Sr14  1  0.99732000  0.63562000  0.99817100  1
  Sr  Sr15  1  0.00565900  0.33580100  0.09830700  1
  Sr  Sr16  1  0.97006000  0.30548900  0.90005000  1
  Sr  Sr17  1  0.33014200  0.33580100  0.59830700  1
  Sr  Sr18  1  0.66419900  0.99434100  0.59830700  1
  Sr  Sr19  1  0.66583700  0.69322000  0.70004200  1
  Sr  Sr20  1  0.33542900  0.30548900  0.40005000  1
  Sr  Sr21  1  0.00565900  0.66985800  0.59830700  1
  Sr  Sr22  1  0.00002200  0.66784800  0.79853900  1
  Sr  Sr23  1  0.69451100  0.66457100  0.90005000  1
  Sr  Sr24  1  0.33215200  0.99997800  0.29853900  1
  Sr  Sr25  1  0.30678000  0.33416300  0.20004200  1
  Sr  Sr26  1  0.99732000  0.36170000  0.49817100  1
  Sr  Sr27  1  0.66419900  0.66985800  0.09830700  1
  Sr  Sr28  1  0.69451100  0.02994000  0.40005000  1
  Sr  Sr29  1  0.63830000  0.00268000  0.99817100  1
  Co  Co0  1  0.33333300  0.66666700  0.02801100  1
  Co  Co1  1  0.33333300  0.66666700  0.52801100  1
  Co  Co2  1  0.33333300  0.66666700  0.89906000  1
  Co  Co3  1  0.00000000  0.00000000  0.12655500  1
  Co  Co4  1  0.66666700  0.33333300  0.44962300  1
  Co  Co5  1  0.66666700  0.33333300  0.32634600  1
  Co  Co6  1  0.66666700  0.33333300  0.07323300  1
  Co  Co7  1  0.66666700  0.33333300  0.94962300  1
  Co  Co8  1  0.33333300  0.66666700  0.64952300  1
  Co  Co9  1  0.33333300  0.66666700  0.77205800  1
  Co  Co10  1  0.66666700  0.33333300  0.69962200  1
  Co  Co11  1  0.66666700  0.33333300  0.82634600  1
  Co  Co12  1  0.33333300  0.66666700  0.14952300  1
  Co  Co13  1  0.33333300  0.66666700  0.27205800  1
  Co  Co14  1  0.00000000  0.00000000  0.99868100  1
  Co  Co15  1  0.00000000  0.00000000  0.24864700  1
  Co  Co16  1  0.00000000  0.00000000  0.62655500  1
  Co  Co17  1  0.66666700  0.33333300  0.57323300  1
  Co  Co18  1  0.00000000  0.00000000  0.49868100  1
  Co  Co19  1  0.66666700  0.33333300  0.19962200  1
  Co  Co20  1  0.00000000  0.00000000  0.86994700  1
  Co  Co21  1  0.33333300  0.66666700  0.39906000  1
  Co  Co22  1  0.00000000  0.00000000  0.74864700  1
  Co  Co23  1  0.00000000  0.00000000  0.36994700  1
  O  O0  1  0.15029000  0.99346400  0.42932200  1
  O  O1  1  0.00653600  0.15682600  0.42932200  1
  O  O2  1  0.32578100  0.50916400  0.46999900  1
  O  O3  1  0.81008600  0.48916700  0.26721800  1
  O  O4  1  0.00057800  0.15353900  0.80640500  1
  O  O5  1  0.84690500  0.99789600  0.06726900  1
  O  O6  1  0.48778000  0.67120000  0.82985400  1
  O  O7  1  0.48381700  0.82622800  0.70882800  1
  O  O8  1  0.15029000  0.15682600  0.92932200  1
  O  O9  1  0.99255800  0.15291700  0.18993800  1
  O  O10  1  0.82923800  0.34697300  0.38923700  1
  O  O11  1  0.49083600  0.67421900  0.96999900  1
  O  O12  1  0.48381700  0.65758900  0.20882800  1
  O  O13  1  0.49083600  0.81661700  0.46999900  1
  O  O14  1  0.18178600  0.51459100  0.59069600  1
  O  O15  1  0.84708300  0.00744200  0.68993800  1
  O  O16  1  0.48540900  0.81821400  0.09069600  1
  O  O17  1  0.15296100  0.15353900  0.30640500  1
  O  O18  1  0.65358200  0.17729800  0.13232200  1
  O  O19  1  0.51083300  0.32091900  0.26721800  1
  O  O20  1  0.16035900  0.00744200  0.18993800  1
  O  O21  1  0.84646100  0.84703900  0.80640500  1
  O  O22  1  0.18342100  0.51222000  0.82985400  1
  O  O23  1  0.00210500  0.15309500  0.56726900  1
  O  O24  1  0.17377200  0.65758900  0.70882800  1
  O  O25  1  0.52371700  0.34641800  0.13232200  1
  O  O26  1  0.67908100  0.18991400  0.26721800  1
  O  O27  1  0.51773500  0.17076200  0.38923700  1
  O  O28  1  0.67908100  0.48916700  0.76721800  1
  O  O29  1  0.81530200  0.49566300  0.51003300  1
  O  O30  1  0.34241100  0.82622800  0.20882800  1
  O  O31  1  0.48778000  0.81657900  0.32985400  1
  O  O32  1  0.33280500  0.81821400  0.59069600  1
  O  O33  1  0.82270200  0.34641800  0.63232200  1
  O  O34  1  0.51773500  0.34697300  0.88923700  1
  O  O35  1  0.84708300  0.83964100  0.18993800  1
  O  O36  1  0.15296100  0.99942200  0.80640500  1
  O  O37  1  0.15099100  0.15309500  0.06726900  1
  O  O38  1  0.17377200  0.51618300  0.20882800  1
  O  O39  1  0.65302700  0.48226500  0.38923700  1
  O  O40  1  0.52371700  0.17729800  0.63232200  1
  O  O41  1  0.65302700  0.17076200  0.88923700  1
  O  O42  1  0.00653600  0.84971000  0.92932200  1
  O  O43  1  0.84690500  0.84900900  0.56726900  1
  O  O44  1  0.68036100  0.49566300  0.01003300  1
  O  O45  1  0.84646100  0.99942200  0.30640500  1
  O  O46  1  0.50433700  0.31963900  0.51003300  1
  O  O47  1  0.99255800  0.83964100  0.68993800  1
  O  O48  1  0.81530200  0.31963900  0.01003300  1
  O  O49  1  0.82270200  0.47628300  0.13232200  1
  O  O50  1  0.65358200  0.47628300  0.63232200  1
  O  O51  1  0.33280500  0.51459100  0.09069600  1
  O  O52  1  0.18338300  0.67421900  0.46999900  1
  O  O53  1  0.68036100  0.18469800  0.51003300  1
  O  O54  1  0.00210500  0.84900900  0.06726900  1
  O  O55  1  0.18338300  0.50916400  0.96999900  1
  O  O56  1  0.51083300  0.18991400  0.76721800  1
  O  O57  1  0.84317400  0.99346400  0.92932200  1
  O  O58  1  0.81008600  0.32091900  0.76721800  1
  O  O59  1  0.34241100  0.51618300  0.70882800  1
  O  O60  1  0.00057800  0.84703900  0.30640500  1
  O  O61  1  0.18178600  0.66719500  0.09069600  1
  O  O62  1  0.15099100  0.99789600  0.56726900  1
  O  O63  1  0.50433700  0.18469800  0.01003300  1
  O  O64  1  0.16035900  0.15291700  0.68993800  1
  O  O65  1  0.18342100  0.67120000  0.32985400  1
  O  O66  1  0.84317400  0.84971000  0.42932200  1
  O  O67  1  0.48540900  0.66719500  0.59069600  1
  O  O68  1  0.82923800  0.48226500  0.88923700  1
  O  O69  1  0.32880000  0.51222000  0.32985400  1
  O  O70  1  0.32880000  0.81657900  0.82985400  1
  O  O71  1  0.32578100  0.81661700  0.96999900  1
loop_
_geom_bond_atom_site_label_1
_geom_bond_atom_site_label_2
_geom_bond_distance
_geom_bond_site_symmetry_2
Co0 O71 1.882551 1_554
Co0 O55 1.882555 1_554
Co0 O11 1.882559 1_554
Co0 O61 1.928088 1_555
Co0 O16 1.928092 1_555
Co0 O51 1.928095 1_555
Co1 O52 1.882551 1_555
Co1 O13 1.882555 1_555
Co1 O2 1.882558 1_555
Co1 O32 1.928088 1_555
Co1 O14 1.928092 1_555
Co1 O67 1.928095 1_555
Co2 O70 2.020225 1_555
Co2 O22 2.020232 1_555
Co2 O6 2.020238 1_555
Co2 O71 2.055862 1_555
Co2 O55 2.055866 1_555
Co2 O11 2.055869 1_555
Co3 O37 1.885338 1_555
Co3 O5 1.885338 1_445
Co3 O54 1.885341 1_545
Co3 O35 1.973209 1_445
Co3 O9 1.973209 1_455
Co3 O20 1.973209 1_555
Co4 O53 1.928447 1_555
Co4 O29 1.928451 1_555
Co4 O46 1.928455 1_555
Co4 O10 1.930098 1_555
Co4 O27 1.930102 1_555
Co4 O39 1.930106 1_555
Co5 O26 1.868261 1_555
Co5 O3 1.868265 1_555
Co5 O19 1.868269 1_555
Co5 O10 1.962582 1_555
Co5 O27 1.962585 1_555
Co5 O39 1.962590 1_555
Co6 O18 1.867092 1_555
Co6 O49 1.867092 1_555
Co6 O25 1.867092 1_555
Co6 O48 1.964720 1_555
Co6 O63 1.964724 1_555
Co6 O44 1.964727 1_555
Co7 O48 1.928447 1_556
Co7 O63 1.928451 1_556
Co7 O44 1.928455 1_556
Co7 O41 1.930098 1_555
Co7 O68 1.930102 1_555
Co7 O34 1.930106 1_555
Co8 O32 1.877649 1_555
Co8 O14 1.877652 1_555
Co8 O67 1.877656 1_555
Co8 O24 1.909047 1_555
Co8 O7 1.909051 1_555
Co8 O59 1.909055 1_555
Co9 O70 1.867603 1_555
Co9 O22 1.867611 1_555
Co9 O6 1.867618 1_555
Co9 O24 1.959948 1_555
Co9 O7 1.959952 1_555
Co9 O59 1.959956 1_555
Co10 O40 1.977619 1_555
Co10 O50 1.977619 1_555
Co10 O33 1.977619 1_555
Co10 O58 1.982374 1_555
Co10 O56 1.982378 1_555
Co10 O28 1.982381 1_555
Co11 O58 1.868261 1_555
Co11 O56 1.868265 1_555
Co11 O28 1.868268 1_555
Co11 O41 1.962582 1_555
Co11 O68 1.962585 1_555
Co11 O34 1.962590 1_555
Co12 O61 1.877649 1_555
Co12 O16 1.877652 1_555
Co12 O51 1.877656 1_555
Co12 O30 1.909047 1_555
Co12 O38 1.909051 1_555
Co12 O12 1.909055 1_555
Co13 O65 1.867603 1_555
Co13 O31 1.867611 1_555
Co13 O69 1.867618 1_555
Co13 O30 1.959948 1_555
Co13 O38 1.959952 1_555
Co13 O12 1.959956 1_555
Co14 O37 2.010363 1_556
Co14 O5 2.010363 1_446
Co14 O54 2.010367 1_546
Co14 O8 2.032264 1_555
Co14 O42 2.032264 1_545
Co14 O57 2.032264 1_445
Co15 O17 1.874753 1_555
Co15 O60 1.874753 1_545
Co15 O45 1.874753 1_445
Co15 O35 1.913082 1_445
Co15 O9 1.913082 1_455
Co15 O20 1.913082 1_555
Co16 O23 1.885334 1_555
Co16 O43 1.885338 1_445
Co16 O62 1.885338 1_545
Co16 O47 1.973209 1_445
Co16 O64 1.973209 1_555
Co16 O15 1.973209 1_455
Co17 O40 1.867092 1_555
Co17 O50 1.867092 1_555
Co17 O33 1.867092 1_555
Co17 O53 1.964720 1_555
Co17 O29 1.964724 1_555
Co17 O46 1.964727 1_555
Co18 O23 2.010360 1_555
Co18 O43 2.010363 1_445
Co18 O62 2.010363 1_545
Co18 O1 2.032264 1_555
Co18 O66 2.032264 1_445
Co18 O0 2.032264 1_545
Co19 O18 1.977619 1_555
Co19 O49 1.977619 1_555
Co19 O25 1.977619 1_555
Co19 O26 1.982374 1_555
Co19 O3 1.982378 1_555
Co19 O19 1.982381 1_555
Co20 O8 1.898370 1_555
Co20 O42 1.898370 1_545
Co20 O57 1.898370 1_445
Co20 O4 1.949868 1_555
Co20 O21 1.949868 1_445
Co20 O36 1.949868 1_545
Co21 O65 2.020225 1_555
Co21 O31 2.020232 1_555
Co21 O69 2.020238 1_555
Co21 O52 2.055862 1_555
Co21 O13 2.055866 1_555
Co21 O2 2.055869 1_555
Co22 O4 1.874753 1_555
Co22 O21 1.874753 1_445
Co22 O36 1.874753 1_545
Co22 O47 1.913082 1_445
Co22 O64 1.913082 1_555
Co22 O15 1.913082 1_455
Co23 O1 1.898370 1_555
Co23 O66 1.898370 1_445
Co23 O0 1.898370 1_545
Co23 O17 1.949868 1_555
Co23 O60 1.949868 1_545
Co23 O45 1.949868 1_445
O0 Sr1 2.441640 1_565
O0 Sr20 2.666270 1_565
O0 Sr10 2.792130 1_455
O0 Sr24 3.150414 1_555
O1 Sr26 2.441640 1_455
O1 Sr28 2.666270 1_455
O1 Sr20 2.792130 1_555
O1 Sr12 3.150409 1_555
O2 Sr20 2.446853 1_555
O2 Sr8 2.666072 1_555
O2 Sr26 2.784521 1_455
O2 Sr17 3.092205 1_555
O3 Sr2 2.433205 1_655
O3 Sr3 2.738568 1_555
O3 Sr12 2.947081 1_655
O3 Sr10 3.132709 1_555
O4 Sr16 2.492523 1_455
O4 Sr4 2.690730 1_555
O4 Sr0 2.753956 1_555
O4 Sr7 2.763666 1_445
O5 Sr29 2.455544 1_564
O5 Sr27 2.794676 1_555
O5 Sr15 2.870306 1_665
O5 Sr13 3.139698 1_555
O6 Sr23 2.461120 1_555
O6 Sr7 2.800200 1_555
O6 Sr0 2.882008 1_555
O6 Sr19 3.079992 1_555
O7 Sr7 2.496031 1_555
O7 Sr19 2.626077 1_555
O7 Sr5 2.689001 1_555
O7 Sr18 2.791025 1_555
O8 Sr6 2.441640 1_555
O8 Sr11 2.666270 1_555
O8 Sr16 2.792130 1_455
O8 Sr0 3.150412 1_555
O9 Sr15 2.508892 1_655
O9 Sr25 2.621073 1_655
O9 Sr13 2.718949 1_545
O9 Sr12 2.766205 1_655
O10 Sr12 2.507619 1_655
O10 Sr28 2.645060 1_555
O10 Sr10 2.645512 1_555
O10 Sr26 2.690196 1_555
O11 Sr23 2.446854 1_555
O11 Sr6 2.666072 1_555
O11 Sr29 2.784521 1_565
O11 Sr27 3.092205 1_556
O12 Sr3 2.496034 1_555
O12 Sr13 2.626077 1_555
O12 Sr25 2.689001 1_555
O12 Sr27 2.791025 1_555
O13 Sr28 2.446853 1_565
O13 Sr1 2.666072 1_565
O13 Sr8 2.784521 1_555
O13 Sr18 3.092205 1_555
O14 Sr26 2.485348 1_455
O14 Sr17 2.718198 1_555
O14 Sr4 2.739821 1_555
O14 Sr21 2.751241 1_555
O15 Sr18 2.508892 1_545
O15 Sr19 2.621073 1_545
O15 Sr4 2.718949 1_655
O15 Sr7 2.766205 1_545
O16 Sr29 2.485348 1_564
O16 Sr27 2.718198 1_555
O16 Sr13 2.739821 1_555
O16 Sr9 2.751241 1_555
O17 Sr20 2.492523 1_555
O17 Sr25 2.690730 1_555
O17 Sr12 2.753948 1_555
O17 Sr24 2.763675 1_545
O18 Sr13 2.440073 1_545
O18 Sr9 2.773678 1_545
O18 Sr15 3.001256 1_655
O18 Sr29 3.152135 1_554
O19 Sr25 2.433205 1_555
O19 Sr24 2.738576 1_545
O19 Sr3 2.947072 1_555
O19 Sr20 3.132709 1_555
O20 Sr9 2.508892 1_545
O20 Sr2 2.621073 1_545
O20 Sr25 2.718949 1_555
O20 Sr24 2.766211 1_545
O21 Sr23 2.492523 1_555
O21 Sr19 2.690730 1_555
O21 Sr7 2.753948 1_555
O21 Sr22 2.763675 1_655
O22 Sr16 2.461124 1_455
O22 Sr0 2.800200 1_555
O22 Sr22 2.882008 1_555
O22 Sr4 3.079994 1_555
O23 Sr26 2.455548 1_455
O23 Sr17 2.794669 1_555
O23 Sr18 2.870314 1_445
O23 Sr4 3.139700 1_555
O24 Sr22 2.496028 1_555
O24 Sr5 2.626077 1_555
O24 Sr4 2.689001 1_555
O24 Sr21 2.791025 1_555
O25 Sr25 2.440081 1_555
O25 Sr27 2.773678 1_555
O25 Sr9 3.001257 1_545
O25 Sr6 3.152139 1_554
O26 Sr13 2.433205 1_545
O26 Sr12 2.738577 1_655
O26 Sr24 2.947073 1_545
O26 Sr28 3.132709 1_555
O27 Sr24 2.507615 1_545
O27 Sr20 2.645060 1_555
O27 Sr28 2.645512 1_555
O27 Sr1 2.690196 1_555
O28 Sr19 2.433205 1_555
O28 Sr22 2.738576 1_655
O28 Sr0 2.947072 1_555
O28 Sr23 3.132709 1_555
O29 Sr21 2.499671 1_655
O29 Sr26 2.638452 1_555
O29 Sr8 2.642437 1_555
O29 Sr10 2.713473 1_555
O30 Sr24 2.496028 1_555
O30 Sr2 2.626077 1_555
O30 Sr13 2.689001 1_555
O30 Sr9 2.791025 1_555
O31 Sr28 2.461124 1_565
O31 Sr3 2.800200 1_555
O31 Sr24 2.882008 1_555
O31 Sr13 3.079994 1_555
O32 Sr1 2.485348 1_565
O32 Sr21 2.718198 1_555
O32 Sr5 2.739821 1_555
O32 Sr18 2.751241 1_555
O33 Sr4 2.440073 1_655
O33 Sr21 2.773678 1_655
O33 Sr18 3.001256 1_545
O33 Sr26 3.152135 1_555
O34 Sr0 2.507613 1_555
O34 Sr11 2.645060 1_555
O34 Sr23 2.645512 1_555
O34 Sr6 2.690196 1_555
O35 Sr27 2.508892 1_555
O35 Sr13 2.621073 1_555
O35 Sr2 2.718949 1_655
O35 Sr3 2.766208 1_555
O36 Sr11 2.492523 1_565
O36 Sr5 2.690730 1_555
O36 Sr22 2.753957 1_555
O36 Sr0 2.763667 1_565
O37 Sr6 2.455544 1_554
O37 Sr15 2.794677 1_555
O37 Sr9 2.870306 1_545
O37 Sr25 3.139698 1_555
O38 Sr12 2.496031 1_555
O38 Sr25 2.626077 1_555
O38 Sr2 2.689001 1_555
O38 Sr15 2.791025 1_555
O39 Sr3 2.507613 1_555
O39 Sr10 2.645060 1_555
O39 Sr20 2.645512 1_555
O39 Sr8 2.690196 1_555
O40 Sr5 2.440077 1_545
O40 Sr18 2.773670 1_545
O40 Sr17 3.001265 1_555
O40 Sr1 3.152137 1_555
O41 Sr7 2.507619 1_545
O41 Sr16 2.645060 1_555
O41 Sr11 2.645512 1_555
O41 Sr29 2.690196 1_555
O42 Sr14 2.441640 1_455
O42 Sr23 2.666270 1_455
O42 Sr11 2.792130 1_565
O42 Sr22 3.150414 1_555
O43 Sr8 2.455544 1_555
O43 Sr18 2.794677 1_555
O43 Sr21 2.870306 1_655
O43 Sr19 3.139698 1_555
O44 Sr27 2.499671 1_555
O44 Sr6 2.638452 1_554
O44 Sr14 2.642437 1_554
O44 Sr23 2.713473 1_554
O45 Sr28 2.492523 1_565
O45 Sr13 2.690730 1_555
O45 Sr3 2.753956 1_555
O45 Sr12 2.763666 1_665
O46 Sr17 2.499671 1_555
O46 Sr8 2.638452 1_555
O46 Sr1 2.642437 1_555
O46 Sr20 2.713473 1_555
O47 Sr21 2.508892 1_655
O47 Sr5 2.621073 1_655
O47 Sr19 2.718949 1_555
O47 Sr22 2.766211 1_655
O48 Sr15 2.499671 1_655
O48 Sr14 2.638452 1_554
O48 Sr29 2.642437 1_554
O48 Sr16 2.713473 1_554
O49 Sr2 2.440077 1_655
O49 Sr15 2.773670 1_655
O49 Sr27 3.001265 1_555
O49 Sr14 3.152137 1_554
O50 Sr19 2.440081 1_555
O50 Sr17 2.773679 1_555
O50 Sr21 3.001257 1_655
O50 Sr8 3.152139 1_555
O51 Sr6 2.485348 1_554
O51 Sr15 2.718198 1_555
O51 Sr25 2.739821 1_555
O51 Sr27 2.751241 1_555
O52 Sr10 2.446854 1_455
O52 Sr26 2.666072 1_455
O52 Sr1 2.784521 1_565
O52 Sr21 3.092205 1_555
O53 Sr18 2.499671 1_545
O53 Sr1 2.638452 1_555
O53 Sr26 2.642437 1_555
O53 Sr28 2.713473 1_555
O54 Sr14 2.455540 1_454
O54 Sr9 2.794668 1_555
O54 Sr27 2.870314 1_455
O54 Sr2 3.139695 1_555
O55 Sr16 2.446853 1_455
O55 Sr14 2.666072 1_455
O55 Sr6 2.784521 1_555
O55 Sr15 3.092205 1_556
O56 Sr5 2.433205 1_545
O56 Sr0 2.738568 1_555
O56 Sr7 2.947081 1_545
O56 Sr11 3.132709 1_555
O57 Sr29 2.441640 1_565
O57 Sr16 2.666270 1_565
O57 Sr23 2.792130 1_555
O57 Sr7 3.150409 1_555
O58 Sr4 2.433205 1_655
O58 Sr7 2.738576 1_545
O58 Sr22 2.947073 1_655
O58 Sr16 3.132709 1_555
O59 Sr0 2.496034 1_555
O59 Sr4 2.626077 1_555
O59 Sr19 2.689001 1_555
O59 Sr17 2.791025 1_555
O60 Sr10 2.492523 1_455
O60 Sr2 2.690730 1_555
O60 Sr24 2.753957 1_555
O60 Sr3 2.763667 1_455
O61 Sr14 2.485348 1_454
O61 Sr9 2.718198 1_555
O61 Sr2 2.739821 1_555
O61 Sr15 2.751240 1_555
O62 Sr1 2.455544 1_565
O62 Sr21 2.794676 1_555
O62 Sr17 2.870306 1_565
O62 Sr5 3.139698 1_555
O63 Sr9 2.499671 1_545
O63 Sr29 2.638452 1_554
O63 Sr6 2.642437 1_554
O63 Sr11 2.713473 1_554
O64 Sr17 2.508892 1_555
O64 Sr4 2.621073 1_555
O64 Sr5 2.718949 1_545
O64 Sr0 2.766208 1_555
O65 Sr10 2.461128 1_455
O65 Sr24 2.800200 1_555
O65 Sr12 2.882008 1_555
O65 Sr2 3.079997 1_555
O66 Sr8 2.441640 1_555
O66 Sr10 2.666270 1_555
O66 Sr28 2.792130 1_565
O66 Sr3 3.150412 1_555
O67 Sr8 2.485348 1_555
O67 Sr18 2.718198 1_555
O67 Sr19 2.739821 1_555
O67 Sr17 2.751240 1_555
O68 Sr22 2.507615 1_655
O68 Sr23 2.645060 1_555
O68 Sr16 2.645512 1_555
O68 Sr14 2.690196 1_555
O69 Sr20 2.461120 1_555
O69 Sr12 2.800200 1_555
O69 Sr3 2.882008 1_555
O69 Sr25 3.079992 1_555
O70 Sr11 2.461128 1_565
O70 Sr22 2.800200 1_555
O70 Sr7 2.882008 1_555
O70 Sr5 3.079997 1_555
O71 Sr11 2.446853 1_565
O71 Sr29 2.666072 1_565
O71 Sr14 2.784521 1_455
O71 Sr9 3.092205 1_556
