# generated using pymatgen
data_Ti2Nb2(CuO4)3
_symmetry_space_group_name_H-M   'P 1'
_cell_length_a   6.49733489
_cell_length_b   6.49733489
_cell_length_c   7.52828692
_cell_angle_alpha   55.11784816
_cell_angle_beta   55.11784816
_cell_angle_gamma   70.95443534
_symmetry_Int_Tables_number   1
_chemical_formula_structural   Ti2Nb2(CuO4)3
_chemical_formula_sum   'Ti2 Nb2 Cu3 O12'
_cell_volume   213.86694353
_cell_formula_units_Z   1
loop_
 _symmetry_equiv_pos_site_id
 _symmetry_equiv_pos_as_xyz
  1  'x, y, z'
loop_
 _atom_site_type_symbol
 _atom_site_label
 _atom_site_symmetry_multiplicity
 _atom_site_fract_x
 _atom_site_fract_y
 _atom_site_fract_z
 _atom_site_occupancy
  Ti  Ti0  1  0.00000000  0.50000000  0.50000000  1
  Ti  Ti1  1  0.50000000  0.00000000  0.50000000  1
  Nb  Nb0  1  0.50000000  0.00000000  0.00000000  1
  Nb  Nb1  1  0.00000000  0.50000000  0.00000000  1
  Cu  Cu0  1  0.50000000  0.50000000  0.00000000  1
  Cu  Cu1  1  0.50000000  0.50000000  0.50000000  1
  Cu  Cu2  1  0.00000000  0.00000000  0.50000000  1
  O  O0  1  0.18356900  0.18356900  0.50517500  1
  O  O1  1  0.86940500  0.50721400  0.31329400  1
  O  O2  1  0.49278600  0.13059500  0.68670600  1
  O  O3  1  0.31369900  0.69009400  0.81707100  1
  O  O4  1  0.69009400  0.31369900  0.81707100  1
  O  O5  1  0.17810700  0.17810700  0.13454900  1
  O  O6  1  0.82189300  0.82189300  0.86545100  1
  O  O7  1  0.30990600  0.68630100  0.18292900  1
  O  O8  1  0.68630100  0.30990600  0.18292900  1
  O  O9  1  0.50721400  0.86940500  0.31329400  1
  O  O10  1  0.13059500  0.49278600  0.68670600  1
  O  O11  1  0.81643100  0.81643100  0.49482500  1
loop_
_geom_bond_atom_site_label_1
_geom_bond_atom_site_label_2
_geom_bond_distance
_geom_bond_site_symmetry_2
Nb0 O4 2.015762 1_554
Nb0 O7 2.015762 1_545
Nb0 O5 2.019258 1_555
Nb0 O6 2.019258 1_544
Nb0 O9 2.023974 1_545
Nb0 O2 2.023974 1_554
Nb1 O3 2.015762 1_554
Nb1 O8 2.015762 1_455
Nb1 O5 2.019258 1_555
Nb1 O6 2.019258 1_454
Nb1 O1 2.023974 1_455
Nb1 O10 2.023974 1_554
Cu0 O7 1.967911 1_555
Cu0 O8 1.967911 1_555
Cu0 O4 1.967911 1_554
Cu0 O3 1.967911 1_554
Cu1 O2 1.969256 1_555
Cu1 O1 1.969256 1_555
Cu1 O9 1.969256 1_555
Cu1 O10 1.969256 1_555
Cu2 O5 1.959197 1_555
Cu2 O6 1.959197 1_445
Cu2 O0 1.970112 1_555
Cu2 O11 1.970112 1_445
O0 Ti1 2.003046 1_555
O0 Ti0 2.003046 1_555
O1 Ti0 1.990140 1_655
O2 Ti1 1.990140 1_555
O3 Ti1 2.001470 1_565
O4 Ti0 2.001470 1_655
O7 Ti0 2.001470 1_555
O8 Ti1 2.001470 1_555
O9 Ti1 1.990140 1_565
O10 Ti0 1.990140 1_555
O11 Ti0 2.003046 1_655
O11 Ti1 2.003046 1_565
