# generated using pymatgen
data_VZn2P4N3O16
_symmetry_space_group_name_H-M   'P 1'
_cell_length_a   10.67974162
_cell_length_b   10.67974162
_cell_length_c   15.72030040
_cell_angle_alpha   60.11498658
_cell_angle_beta   60.11498658
_cell_angle_gamma   27.85440381
_symmetry_Int_Tables_number   1
_chemical_formula_structural   VZn2P4N3O16
_chemical_formula_sum   'V2 Zn4 P8 N6 O32'
_cell_volume   718.93067950
_cell_formula_units_Z   2
loop_
 _symmetry_equiv_pos_site_id
 _symmetry_equiv_pos_as_xyz
  1  'x, y, z'
loop_
 _atom_site_type_symbol
 _atom_site_label
 _atom_site_symmetry_multiplicity
 _atom_site_fract_x
 _atom_site_fract_y
 _atom_site_fract_z
 _atom_site_occupancy
  V  V0  1  0.00000000  0.00000000  0.00000000  1
  V  V1  1  0.00000000  0.00000000  0.50000000  1
  Zn  Zn0  1  0.71508300  0.61337400  0.10874400  1
  Zn  Zn1  1  0.38662600  0.28491700  0.39125600  1
  Zn  Zn2  1  0.28491700  0.38662600  0.89125600  1
  Zn  Zn3  1  0.61337400  0.71508300  0.60874400  1
  P  P0  1  0.78145600  0.89139400  0.01173700  1
  P  P1  1  0.10860600  0.21854400  0.48826300  1
  P  P2  1  0.21854400  0.10860600  0.98826300  1
  P  P3  1  0.89139400  0.78145600  0.51173700  1
  P  P4  1  0.57166200  0.56575300  0.34772600  1
  P  P5  1  0.43424700  0.42833800  0.15227400  1
  P  P6  1  0.42833800  0.43424700  0.65227400  1
  P  P7  1  0.56575300  0.57166200  0.84772600  1
  N  N0  1  0.23903600  0.15679500  0.23305600  1
  N  N1  1  0.84320500  0.76096400  0.26694400  1
  N  N2  1  0.76096400  0.84320500  0.76694400  1
  N  N3  1  0.15679500  0.23903600  0.73305600  1
  N  N4  1  0.03829300  0.96170700  0.25000000  1
  N  N5  1  0.96170700  0.03829300  0.75000000  1
  O  O0  1  0.92008500  0.88020900  0.03354500  1
  O  O1  1  0.11979100  0.07991500  0.46645500  1
  O  O2  1  0.07991500  0.11979100  0.96645500  1
  O  O3  1  0.88020900  0.92008500  0.53354500  1
  O  O4  1  0.79708900  0.26011400  0.38927100  1
  O  O5  1  0.73988600  0.20291100  0.11072900  1
  O  O6  1  0.20291100  0.73988600  0.61072900  1
  O  O7  1  0.26011400  0.79708900  0.88927100  1
  O  O8  1  0.30129100  0.72569200  0.41774100  1
  O  O9  1  0.27430800  0.69870900  0.08225900  1
  O  O10  1  0.69870900  0.27430800  0.58225900  1
  O  O11  1  0.72569200  0.30129100  0.91774100  1
  O  O12  1  0.78575000  0.73559300  0.10256900  1
  O  O13  1  0.26440700  0.21425000  0.39743100  1
  O  O14  1  0.21425000  0.26440700  0.89743100  1
  O  O15  1  0.73559300  0.78575000  0.60256900  1
  O  O16  1  0.50876600  0.80989100  0.00698300  1
  O  O17  1  0.19010900  0.49123400  0.49301700  1
  O  O18  1  0.49123400  0.19010900  0.99301700  1
  O  O19  1  0.80989100  0.50876600  0.50698300  1
  O  O20  1  0.06042200  0.24091400  0.08138800  1
  O  O21  1  0.75908600  0.93957800  0.41861200  1
  O  O22  1  0.93957800  0.75908600  0.91861200  1
  O  O23  1  0.24091400  0.06042200  0.58138800  1
  O  O24  1  0.54257400  0.62591100  0.24293500  1
  O  O25  1  0.37408900  0.45742600  0.25706500  1
  O  O26  1  0.45742600  0.37408900  0.75706500  1
  O  O27  1  0.62591100  0.54257400  0.74293500  1
  O  O28  1  0.64037500  0.64913600  0.34359400  1
  O  O29  1  0.35086400  0.35962500  0.15640600  1
  O  O30  1  0.35962500  0.35086400  0.65640600  1
  O  O31  1  0.64913600  0.64037500  0.84359400  1
loop_
_geom_bond_atom_site_label_1
_geom_bond_atom_site_label_2
_geom_bond_distance
_geom_bond_site_symmetry_2
O0 P0 1.573535 1_555
O0 V0 1.858264 1_665
O1 P1 1.573535 1_555
O1 V1 1.858264 1_555
O2 P2 1.573535 1_555
O2 V0 1.858264 1_556
O3 P3 1.573535 1_555
O3 V1 1.858264 1_665
O4 P4 1.556869 1_555
O4 V1 1.933514 1_655
O5 P5 1.556869 1_555
O5 V0 1.933514 1_655
O6 P6 1.556869 1_555
O6 V1 1.933514 1_565
O7 P7 1.556869 1_555
O7 V0 1.933514 1_566
O8 P4 1.565794 1_555
O8 V1 1.888974 1_565
O9 P5 1.565794 1_555
O9 V0 1.888974 1_565
O10 P6 1.565794 1_555
O10 V1 1.888974 1_655
O11 P7 1.565794 1_555
O11 V0 1.888974 1_656
O12 P0 1.540229 1_555
O12 Zn0 1.955855 1_555
O13 P1 1.540229 1_555
O13 Zn1 1.955855 1_555
O14 P2 1.540229 1_555
O14 Zn2 1.955855 1_555
O15 P3 1.540229 1_555
O15 Zn3 1.955855 1_555
O16 P2 1.536074 1_564
O16 Zn0 1.951531 1_555
O17 P3 1.536074 1_455
O17 Zn1 1.951531 1_555
O18 P0 1.536074 1_546
O18 Zn2 1.951531 1_555
O19 P1 1.536074 1_655
O19 Zn3 1.951531 1_555
O20 P2 1.539450 1_554
O20 Zn0 1.947431 1_455
O21 P3 1.539450 1_555
O21 Zn1 1.947431 1_565
O22 P0 1.539450 1_556
O22 Zn2 1.947431 1_655
O23 P1 1.539450 1_555
O23 Zn3 1.947431 1_545
O24 P4 1.524920 1_555
O24 Zn0 1.958209 1_555
O25 P5 1.524920 1_555
O25 Zn1 1.958209 1_555
O26 P6 1.524920 1_555
O26 Zn2 1.958209 1_555
O27 P7 1.524920 1_555
O27 Zn3 1.958209 1_555
O28 P4 1.544715 1_555
O29 P5 1.544715 1_555
O30 P6 1.544715 1_555
O31 P7 1.544715 1_555
