# generated using pymatgen
data_Mn6OF11
_symmetry_space_group_name_H-M   'P 1'
_cell_length_a   5.29603162
_cell_length_b   5.29603162
_cell_length_c   15.65443330
_cell_angle_alpha   86.95473062
_cell_angle_beta   86.95473062
_cell_angle_gamma   88.66173795
_symmetry_Int_Tables_number   1
_chemical_formula_structural   Mn6OF11
_chemical_formula_sum   'Mn12 O2 F22'
_cell_volume   437.74276697
_cell_formula_units_Z   2
loop_
 _symmetry_equiv_pos_site_id
 _symmetry_equiv_pos_as_xyz
  1  'x, y, z'
loop_
 _atom_site_type_symbol
 _atom_site_label
 _atom_site_symmetry_multiplicity
 _atom_site_fract_x
 _atom_site_fract_y
 _atom_site_fract_z
 _atom_site_occupancy
  Mn  Mn0  1  0.04704700  0.04704700  0.99398300  1
  Mn  Mn1  1  0.00518200  0.50269100  0.83447000  1
  Mn  Mn2  1  0.03794100  0.03794100  0.66070100  1
  Mn  Mn3  1  0.99502200  0.48610900  0.50229100  1
  Mn  Mn4  1  0.01273800  0.01273800  0.33575200  1
  Mn  Mn5  1  0.01176300  0.51928600  0.16576800  1
  Mn  Mn6  1  0.50269100  0.00518200  0.83447000  1
  Mn  Mn7  1  0.47474900  0.47474900  0.99212200  1
  Mn  Mn8  1  0.50040200  0.50040200  0.33366500  1
  Mn  Mn9  1  0.48610900  0.99502200  0.50229100  1
  Mn  Mn10  1  0.46736500  0.46736500  0.66109900  1
  Mn  Mn11  1  0.51928600  0.01176300  0.16576800  1
  O  O0  1  0.25256600  0.25256600  0.92002500  1
  O  O1  1  0.24234500  0.24234500  0.58536200  1
  F  F0  1  0.21123300  0.21123300  0.75251800  1
  F  F1  1  0.18146600  0.76342000  0.92230900  1
  F  F2  1  0.23344500  0.23344500  0.41347200  1
  F  F3  1  0.18178900  0.75091200  0.59223100  1
  F  F4  1  0.21542200  0.21542200  0.08855700  1
  F  F5  1  0.22418800  0.77974900  0.25121900  1
  F  F6  1  0.32231100  0.71190200  0.75849100  1
  F  F7  1  0.27191000  0.72867200  0.42388800  1
  F  F8  1  0.32764100  0.72098300  0.08693100  1
  F  F9  1  0.28364200  0.28364200  0.24667400  1
  F  F10  1  0.72098300  0.32764100  0.08693100  1
  F  F11  1  0.72867200  0.27191000  0.42388800  1
  F  F12  1  0.71190200  0.32231100  0.75849100  1
  F  F13  1  0.68773000  0.68773000  0.90104000  1
  F  F14  1  0.68577900  0.68577900  0.57225800  1
  F  F15  1  0.72046800  0.72046800  0.23898000  1
  F  F16  1  0.75091200  0.18178900  0.59223100  1
  F  F17  1  0.76342000  0.18146600  0.92230900  1
  F  F18  1  0.77974900  0.22418800  0.25121900  1
  F  F19  1  0.76961100  0.76961100  0.40983700  1
  F  F20  1  0.83797900  0.83797900  0.07530600  1
  F  F21  1  0.83454400  0.83454400  0.74344900  1
loop_
_geom_bond_atom_site_label_1
_geom_bond_atom_site_label_2
_geom_bond_distance
_geom_bond_site_symmetry_2
Mn0 O0 1.870125 1_555
Mn1 O0 2.276376 1_555
Mn2 O1 1.875670 1_555
Mn3 O1 2.235403 1_655
Mn6 O0 2.276376 1_555
Mn7 O0 2.095209 1_555
Mn9 O1 2.235403 1_565
Mn10 O1 2.147705 1_555
F0 Mn2 2.017469 1_555
F0 Mn1 2.280851 1_555
F0 Mn6 2.280851 1_555
F0 Mn10 2.324135 1_555
F1 Mn0 2.016496 1_565
F1 Mn1 2.251107 1_555
F1 Mn7 2.415806 1_555
F1 Mn6 2.467886 1_565
F2 Mn4 2.139815 1_555
F2 Mn3 2.291379 1_455
F2 Mn9 2.291379 1_545
F2 Mn8 2.297083 1_555
F3 Mn2 2.017987 1_565
F3 Mn3 2.313009 1_455
F3 Mn10 2.366402 1_555
F3 Mn9 2.431889 1_555
F4 Mn0 2.024820 1_554
F4 Mn11 2.280597 1_555
F4 Mn5 2.280597 1_555
F4 Mn7 2.387257 1_554
F5 Mn4 2.116428 1_565
F5 Mn5 2.320839 1_555
F5 Mn11 2.331237 1_565
F5 Mn8 2.427141 1_555
F6 Mn10 2.151906 1_555
F6 Mn6 2.264089 1_565
F6 Mn1 2.279865 1_555
F7 Mn8 2.202766 1_555
F7 Mn3 2.244157 1_455
F7 Mn9 2.278089 1_555
F7 Mn4 2.436209 1_565
F8 Mn7 2.132061 1_554
F8 Mn5 2.277452 1_555
F8 Mn11 2.309293 1_565
F9 Mn8 2.209955 1_555
F9 Mn11 2.275238 1_555
F9 Mn5 2.275238 1_555
F9 Mn4 2.394235 1_555
F10 Mn7 2.132061 1_554
F10 Mn11 2.277452 1_555
F10 Mn5 2.309293 1_655
F11 Mn8 2.202766 1_555
F11 Mn9 2.244157 1_545
F11 Mn3 2.278089 1_555
F11 Mn4 2.436209 1_655
F12 Mn10 2.151906 1_555
F12 Mn1 2.264089 1_655
F12 Mn6 2.279865 1_555
F13 Mn7 2.072496 1_555
F13 Mn6 2.172165 1_565
F13 Mn1 2.172165 1_655
F14 Mn10 2.081077 1_555
F14 Mn9 2.202662 1_555
F14 Mn3 2.202662 1_555
F15 Mn8 2.147104 1_555
F15 Mn5 2.166518 1_655
F15 Mn11 2.166518 1_565
F16 Mn2 2.017987 1_655
F16 Mn9 2.313009 1_545
F16 Mn10 2.366402 1_555
F16 Mn3 2.431889 1_555
F17 Mn0 2.016496 1_655
F17 Mn6 2.251107 1_555
F17 Mn7 2.415806 1_555
F17 Mn1 2.467886 1_655
F18 Mn4 2.116428 1_655
F18 Mn11 2.320839 1_555
F18 Mn5 2.331237 1_655
F18 Mn8 2.427141 1_555
F19 Mn4 2.102623 1_665
F19 Mn9 2.375525 1_555
F19 Mn3 2.375525 1_555
F19 Mn8 2.437944 1_555
F20 Mn0 1.957127 1_664
F20 Mn5 2.348013 1_655
F20 Mn11 2.348013 1_565
F21 Mn2 1.938139 1_665
F21 Mn1 2.394231 1_655
F21 Mn6 2.394231 1_565
