# generated using pymatgen
data_LiV2OF5
_symmetry_space_group_name_H-M   'P 1'
_cell_length_a   5.23161500
_cell_length_b   5.53005180
_cell_length_c   12.87574269
_cell_angle_alpha   93.21149819
_cell_angle_beta   88.95367223
_cell_angle_gamma   117.96172866
_symmetry_Int_Tables_number   1
_chemical_formula_structural   LiV2OF5
_chemical_formula_sum   'Li3 V6 O3 F15'
_cell_volume   328.49278394
_cell_formula_units_Z   3
loop_
 _symmetry_equiv_pos_site_id
 _symmetry_equiv_pos_as_xyz
  1  'x, y, z'
loop_
 _atom_site_type_symbol
 _atom_site_label
 _atom_site_symmetry_multiplicity
 _atom_site_fract_x
 _atom_site_fract_y
 _atom_site_fract_z
 _atom_site_occupancy
  Li  Li0  1  0.59506900  0.22904700  0.10683800  1
  Li  Li1  1  0.60527300  0.22141000  0.58211900  1
  Li  Li2  1  0.29290200  0.57145700  0.92238600  1
  V  V0  1  0.64298300  0.31758600  0.34195800  1
  V  V1  1  0.01237600  0.00447600  0.49435500  1
  V  V2  1  0.69516600  0.35242600  0.82882100  1
  V  V3  1  0.01614900  0.02061500  0.00253800  1
  V  V4  1  0.32619400  0.63877300  0.16606300  1
  V  V5  1  0.31735300  0.66025600  0.67351800  1
  O  O0  1  0.39785100  0.19450000  0.45447300  1
  O  O1  1  0.08225000  0.53943600  0.79178200  1
  O  O2  1  0.27844300  0.33144300  0.08015300  1
  F  F0  1  0.26751200  0.17225300  0.87854900  1
  F  F1  1  0.54592800  0.45197400  0.69797300  1
  F  F2  1  0.70951100  0.68157800  0.91458100  1
  F  F3  1  0.93483400  0.65120100  0.42355800  1
  F  F4  1  0.60926100  0.99851000  0.75826500  1
  F  F5  1  0.90295600  0.45396100  0.20841100  1
  F  F6  1  0.16245000  0.89954400  0.62285500  1
  F  F7  1  0.79476800  0.23258000  0.96695900  1
  F  F8  1  0.23271800  0.80043700  0.03553400  1
  F  F9  1  0.85285400  0.11154000  0.37617300  1
  F  F10  1  0.39601500  0.00357800  0.23237600  1
  F  F11  1  0.02755500  0.33845300  0.58165300  1
  F  F12  1  0.45734700  0.53469500  0.28791100  1
  F  F13  1  0.60597900  0.82903700  0.55738500  1
  F  F14  1  0.74072700  0.86581600  0.11669800  1
loop_
_geom_bond_atom_site_label_1
_geom_bond_atom_site_label_2
_geom_bond_distance
_geom_bond_site_symmetry_2
Li0 O2 2.026022 1_555
Li1 O0 1.946076 1_555
Li2 O1 1.981173 1_555
Li2 O2 2.469049 1_556
O0 V0 1.852234 1_555
O0 V1 1.862850 1_555
O1 V2 1.858475 1_455
O1 V5 1.884916 1_555
O2 V3 1.866013 1_555
O2 V4 1.890969 1_555
F0 V3 2.005087 1_556
F0 V2 2.082552 1_555
F0 Li2 2.190422 1_555
F1 Li1 2.022001 1_555
F1 V5 2.049832 1_555
F1 V2 2.075112 1_555
F2 Li2 1.971171 1_555
F2 V2 2.046435 1_555
F2 V3 2.092656 1_666
F3 V1 1.970520 1_665
F3 V0 2.009644 1_555
F4 V2 1.961798 1_565
F4 V5 2.043328 1_555
F5 Li0 1.966688 1_555
F5 V4 2.034897 1_655
F5 V0 2.115021 1_555
F6 V5 1.988712 1_555
F6 V1 2.067096 1_565
F6 Li1 2.236873 1_565
F7 Li0 2.061972 1_556
F7 V3 2.068305 1_656
F7 V2 2.089035 1_555
F7 Li2 2.473627 1_655
F8 Li2 1.993858 1_554
F8 V3 2.077489 1_565
F8 V4 2.114561 1_555
F8 Li0 2.379221 1_565
F9 V0 1.986216 1_555
F9 V1 1.993297 1_655
F10 V4 2.014862 1_545
F10 Li0 2.049036 1_555
F10 V0 2.088925 1_555
F11 Li1 1.989631 1_455
F11 V5 2.040619 1_555
F11 V1 2.077003 1_555
F12 V4 1.942749 1_555
F12 V0 2.020073 1_555
F13 V5 2.034550 1_555
F13 V1 2.052096 1_665
F13 Li1 2.177086 1_565
F14 V3 1.968889 1_665
F14 V4 2.041868 1_555
F14 Li0 2.469643 1_565
