# generated using pymatgen
data_SbAsAuF9
_symmetry_space_group_name_H-M   'P 1'
_cell_length_a   9.29310100
_cell_length_b   8.14838300
_cell_length_c   12.96566793
_cell_angle_alpha   57.49822009
_cell_angle_beta   90.00000000
_cell_angle_gamma   90.00000000
_symmetry_Int_Tables_number   1
_chemical_formula_structural   SbAsAuF9
_chemical_formula_sum   'Sb4 As4 Au4 F36'
_cell_volume   828.03287969
_cell_formula_units_Z   4
loop_
 _symmetry_equiv_pos_site_id
 _symmetry_equiv_pos_as_xyz
  1  'x, y, z'
loop_
 _atom_site_type_symbol
 _atom_site_label
 _atom_site_symmetry_multiplicity
 _atom_site_fract_x
 _atom_site_fract_y
 _atom_site_fract_z
 _atom_site_occupancy
  Sb  Sb0  1  0.67529500  0.66239600  0.07838900  1
  Sb  Sb1  1  0.17529500  0.33760400  0.42161100  1
  Sb  Sb2  1  0.82470500  0.66239600  0.57838900  1
  Sb  Sb3  1  0.32470500  0.33760400  0.92161100  1
  As  As0  1  0.63612000  0.13621300  0.61372400  1
  As  As1  1  0.13612000  0.86378700  0.88627600  1
  As  As2  1  0.86388000  0.13621300  0.11372400  1
  As  As3  1  0.36388000  0.86378700  0.38627600  1
  Au  Au0  1  0.70761200  0.37744700  0.41846500  1
  Au  Au1  1  0.20761200  0.62255300  0.08153500  1
  Au  Au2  1  0.79238800  0.37744700  0.91846500  1
  Au  Au3  1  0.29238800  0.62255300  0.58153500  1
  F  F0  1  0.68618500  0.93569400  0.01253400  1
  F  F1  1  0.17815100  0.61645800  0.33668000  1
  F  F2  1  0.74975200  0.62342500  0.23477600  1
  F  F3  1  0.53537400  0.19961100  0.69908300  1
  F  F4  1  0.10335900  0.30947000  0.56786900  1
  F  F5  1  0.02887700  0.05083900  0.86855800  1
  F  F6  1  0.48540400  0.65086500  0.13959300  1
  F  F7  1  0.37131200  0.33452400  0.47013200  1
  F  F8  1  0.87131200  0.66547600  0.02986800  1
  F  F9  1  0.26536800  0.00117000  0.77842900  1
  F  F10  1  0.98540400  0.34913500  0.36040700  1
  F  F11  1  0.76536800  0.99883000  0.72157100  1
  F  F12  1  0.24975200  0.37657500  0.26522400  1
  F  F13  1  0.67815100  0.38354200  0.16332000  1
  F  F14  1  0.52887700  0.94916100  0.63144200  1
  F  F15  1  0.60335900  0.69053000  0.93213100  1
  F  F16  1  0.03537400  0.80038900  0.80091700  1
  F  F17  1  0.18618500  0.06430600  0.48746600  1
  F  F18  1  0.81381500  0.93569400  0.51253400  1
  F  F19  1  0.96462600  0.19961100  0.19908300  1
  F  F20  1  0.39664100  0.30947000  0.06786900  1
  F  F21  1  0.47112300  0.05083900  0.36855800  1
  F  F22  1  0.32184900  0.61645800  0.83668000  1
  F  F23  1  0.75024800  0.62342500  0.73477600  1
  F  F24  1  0.23463200  0.00117000  0.27842900  1
  F  F25  1  0.01459600  0.65086500  0.63959300  1
  F  F26  1  0.73463200  0.99883000  0.22157100  1
  F  F27  1  0.12868800  0.33452400  0.97013200  1
  F  F28  1  0.62868800  0.66547600  0.52986800  1
  F  F29  1  0.51459600  0.34913500  0.86040700  1
  F  F30  1  0.97112300  0.94916100  0.13144200  1
  F  F31  1  0.89664100  0.69053000  0.43213100  1
  F  F32  1  0.46462600  0.80038900  0.30091700  1
  F  F33  1  0.25024800  0.37657500  0.76522400  1
  F  F34  1  0.82184900  0.38354200  0.66332000  1
  F  F35  1  0.31381500  0.06430600  0.98746600  1
loop_
_geom_bond_atom_site_label_1
_geom_bond_atom_site_label_2
_geom_bond_distance
_geom_bond_site_symmetry_2
As0 F11 1.723055 1_545
As0 F3 1.727048 1_555
As0 F14 1.729984 1_545
As0 Au0 2.316607 1_555
As1 F9 1.723055 1_565
As1 F16 1.727048 1_555
As1 F5 1.729984 1_565
As1 Au1 2.316607 1_556
As2 F26 1.723055 1_545
As2 F19 1.727048 1_555
As2 F30 1.729984 1_545
As2 Au2 2.316607 1_554
As3 F24 1.723055 1_565
As3 F32 1.727048 1_555
As3 F21 1.729984 1_565
As3 Au3 2.316607 1_555
Au0 F2 2.170939 1_555
Au1 F12 2.170939 1_555
Au2 F23 2.170939 1_555
Au3 F33 2.170939 1_555
F0 Sb0 1.911839 1_555
F1 Sb1 1.920244 1_555
F2 Sb0 1.999769 1_555
F4 Sb1 1.904824 1_555
F6 Sb0 1.916378 1_555
F7 Sb1 1.922937 1_555
F8 Sb0 1.922937 1_555
F10 Sb1 1.916378 1_655
F12 Sb1 1.999769 1_555
F13 Sb0 1.920244 1_555
F15 Sb0 1.904824 1_556
F17 Sb1 1.911839 1_555
F18 Sb2 1.911839 1_555
F20 Sb3 1.904824 1_554
F22 Sb3 1.920244 1_555
F23 Sb2 1.999769 1_555
F25 Sb2 1.916378 1_455
F27 Sb3 1.922937 1_555
F28 Sb2 1.922937 1_555
F29 Sb3 1.916378 1_555
F31 Sb2 1.904824 1_555
F33 Sb3 1.999769 1_555
F34 Sb2 1.920244 1_555
F35 Sb3 1.911839 1_555
