# generated using pymatgen
data_Li4V3P8O29
_symmetry_space_group_name_H-M   'P 1'
_cell_length_a   9.73271900
_cell_length_b   9.78235132
_cell_length_c   14.18488150
_cell_angle_alpha   90.39400181
_cell_angle_beta   90.03502807
_cell_angle_gamma   119.63779106
_symmetry_Int_Tables_number   1
_chemical_formula_structural   Li4V3P8O29
_chemical_formula_sum   'Li8 V6 P16 O58'
_cell_volume   1173.79555179
_cell_formula_units_Z   2
loop_
 _symmetry_equiv_pos_site_id
 _symmetry_equiv_pos_as_xyz
  1  'x, y, z'
loop_
 _atom_site_type_symbol
 _atom_site_label
 _atom_site_symmetry_multiplicity
 _atom_site_fract_x
 _atom_site_fract_y
 _atom_site_fract_z
 _atom_site_occupancy
  Li  Li0  1  0.22654100  0.91444600  0.06159700  1
  Li  Li1  1  0.67429200  0.90553300  0.55261300  1
  Li  Li2  1  0.09026400  0.32272500  0.06062900  1
  Li  Li3  1  0.76638700  0.66330900  0.44002800  1
  Li  Li4  1  0.23355200  0.33060800  0.55926000  1
  Li  Li5  1  0.91016100  0.68370100  0.93981900  1
  Li  Li6  1  0.78001500  0.08074700  0.94490100  1
  Li  Li7  1  0.04560700  0.01374600  0.49097500  1
  V  V0  1  0.56657400  0.56802400  0.24387400  1
  V  V1  1  0.43231500  0.43331900  0.75608400  1
  V  V2  1  0.00281700  0.56909700  0.74320700  1
  V  V3  1  0.99289900  0.43068600  0.25828500  1
  V  V4  1  0.43267400  0.00197600  0.25336900  1
  V  V5  1  0.56081900  0.99884600  0.74515300  1
  P  P0  1  0.22888200  0.91188900  0.84291500  1
  P  P1  1  0.08435300  0.77936700  0.33896700  1
  P  P2  1  0.68882300  0.91142400  0.34089000  1
  P  P3  1  0.32322100  0.66191000  0.13152600  1
  P  P4  1  0.33789800  0.66550600  0.63096100  1
  P  P5  1  0.68566300  0.77500900  0.83978400  1
  P  P6  1  0.76612000  0.68190100  0.65770700  1
  P  P7  1  0.08464500  0.32066900  0.84268900  1
  P  P8  1  0.91184600  0.67912200  0.15658100  1
  P  P9  1  0.23139300  0.31640600  0.34343300  1
  P  P10  1  0.31311700  0.22765400  0.16068500  1
  P  P11  1  0.66280400  0.33893100  0.37015800  1
  P  P12  1  0.66971200  0.33302600  0.86687700  1
  P  P13  1  0.30210000  0.08615200  0.66102200  1
  P  P14  1  0.91513600  0.22106300  0.65974500  1
  P  P15  1  0.77062500  0.08834800  0.16093700  1
  O  O0  1  0.20237800  0.00556300  0.57769300  1
  O  O1  1  0.25712700  0.91291600  0.33500000  1
  O  O2  1  0.99548500  0.75138900  0.06630000  1
  O  O3  1  0.08073800  0.74722100  0.83533100  1
  O  O4  1  0.37988900  0.90088000  0.81578300  1
  O  O5  1  0.32760300  0.81450100  0.16804600  1
  O  O6  1  0.53243500  0.91098100  0.33004800  1
  O  O7  1  0.76864100  0.01264300  0.06995900  1
  O  O8  1  0.66054100  0.91995200  0.83985000  1
  O  O9  1  0.19610400  0.67570100  0.67138100  1
  O  O10  1  0.07898400  0.61811200  0.33168000  1
  O  O11  1  0.49494800  0.81416400  0.67302400  1
  O  O12  1  0.32539800  0.64794400  0.02736100  1
  O  O13  1  0.35626400  0.66643000  0.52694400  1
  O  O14  1  0.47117000  0.65771100  0.17938300  1
  O  O15  1  0.09372000  0.47912100  0.82099600  1
  O  O16  1  0.17594600  0.51602800  0.17542900  1
  O  O17  1  0.66168900  0.73979200  0.33118400  1
  O  O18  1  0.78534300  0.79777100  0.74394800  1
  O  O19  1  0.76483800  0.75996800  0.56731800  1
  O  O20  1  0.77351300  0.76724500  0.92279100  1
  O  O21  1  0.52390800  0.62082100  0.82373100  1
  O  O22  1  0.32907800  0.51225400  0.67410100  1
  O  O23  1  0.74266100  0.65608400  0.16212300  1
  O  O24  1  0.38781600  0.47023300  0.32940400  1
  O  O25  1  0.09015900  0.34858600  0.33151600  1
  O  O26  1  0.00847100  0.79771000  0.24114700  1
  O  O27  1  0.99410700  0.79631500  0.41896300  1
  O  O28  1  0.00771800  0.20251800  0.58202100  1
  O  O29  1  0.90896400  0.65471700  0.66544100  1
  O  O30  1  0.61253200  0.52588700  0.67554800  1
  O  O31  1  0.25397100  0.34326500  0.83468100  1
  O  O32  1  0.67507500  0.49282200  0.32591400  1
  O  O33  1  0.47631900  0.37937000  0.17784400  1
  O  O34  1  0.22642800  0.24012200  0.07882400  1
  O  O35  1  0.21436800  0.23396800  0.43462700  1
  O  O36  1  0.21274900  0.20254400  0.25711900  1
  O  O37  1  0.34130900  0.26106400  0.66553900  1
  O  O38  1  0.81601400  0.48243400  0.82904200  1
  O  O39  1  0.90393400  0.52131100  0.17830400  1
  O  O40  1  0.52022400  0.33638900  0.82285800  1
  O  O41  1  0.66280300  0.32008600  0.97085800  1
  O  O42  1  0.68049700  0.35816200  0.47405700  1
  O  O43  1  0.51674200  0.19481800  0.32855100  1
  O  O44  1  0.91532300  0.37711900  0.66700500  1
  O  O45  1  0.81285400  0.33333500  0.32578800  1
  O  O46  1  0.33617300  0.08250200  0.15971800  1
  O  O47  1  0.21107000  0.01199800  0.75864100  1
  O  O48  1  0.24765300  0.98916300  0.93562900  1
  O  O49  1  0.46044900  0.08037100  0.67008000  1
  O  O50  1  0.66500700  0.18252000  0.81919600  1
  O  O51  1  0.61691100  0.09347300  0.18096900  1
  O  O52  1  0.91634300  0.25827700  0.16711900  1
  O  O53  1  0.00434900  0.25053100  0.93371500  1
  O  O54  1  0.98517000  0.19940400  0.75981200  1
  O  O55  1  0.74115300  0.07888200  0.65981700  1
  O  O56  1  0.77829100  0.98044400  0.43034400  1
  O  O57  1  0.79557200  0.99997000  0.24973100  1
loop_
_geom_bond_atom_site_label_1
_geom_bond_atom_site_label_2
_geom_bond_distance
_geom_bond_site_symmetry_2
Li0 O48 1.907648 1_554
Li0 O46 2.002550 1_565
Li0 O2 2.014900 1_455
Li0 O5 2.274420 1_555
Li1 O56 1.963569 1_555
Li1 O19 2.023065 1_555
Li1 O55 2.117417 1_565
Li1 O11 2.290111 1_555
Li2 O34 1.880800 1_555
Li2 O53 1.958447 1_554
Li2 O52 2.122567 1_455
Li2 O16 2.306359 1_555
Li3 O27 1.961735 1_555
Li3 O19 2.035956 1_555
Li3 O32 2.164861 1_555
Li3 O17 2.179421 1_555
Li4 O28 1.946264 1_555
Li4 O35 1.963696 1_555
Li4 O37 2.133841 1_555
Li4 O22 2.236050 1_555
Li5 O20 1.890066 1_555
Li5 O2 1.945488 1_556
Li5 O3 2.081938 1_655
Li5 O38 2.314435 1_555
Li6 O7 1.883213 1_556
Li6 O53 1.992072 1_655
Li6 O8 2.050238 1_545
Li6 O50 2.558853 1_555
Li7 O0 1.991850 1_555
Li7 O35 2.122102 1_555
Li7 O27 2.175730 1_445
Li7 O28 2.419760 1_555
Li7 O56 2.601893 1_445
O0 P13 1.479755 1_555
O1 P1 1.538164 1_555
O1 V4 1.887606 1_565
O2 P8 1.498994 1_555
O3 P0 1.544544 1_555
O3 V2 1.994869 1_555
O4 P0 1.573666 1_555
O4 V5 1.835588 1_555
O5 P3 1.557145 1_555
O5 V4 1.996755 1_565
O6 P2 1.527606 1_555
O6 V4 1.945501 1_565
O7 P15 1.478825 1_555
O8 P5 1.553395 1_555
O8 V5 2.023731 1_555
O9 P4 1.542562 1_555
O9 V2 1.934212 1_555
O10 P1 1.554991 1_555
O10 V3 1.897589 1_455
O11 P4 1.611109 1_555
O11 V5 1.884137 1_555
O12 P3 1.484064 1_555
O13 P4 1.485917 1_555
O14 P3 1.610481 1_555
O14 V0 1.812319 1_555
O15 P7 1.541519 1_555
O15 V2 1.886097 1_555
O16 P3 1.571357 1_555
O16 V3 1.948656 1_455
O17 P2 1.570308 1_555
O17 V0 1.909384 1_555
O18 P6 1.608478 1_555
O18 P5 1.622017 1_555
O19 P6 1.500053 1_555
O20 P5 1.478995 1_555
O21 P5 1.565780 1_555
O21 V1 1.854010 1_555
O22 P4 1.585790 1_555
O22 V1 1.932996 1_555
O23 P8 1.549754 1_555
O23 V0 1.892080 1_555
O24 P9 1.536377 1_555
O24 V0 1.945877 1_555
O25 P9 1.563838 1_555
O25 V3 1.839105 1_455
O26 P8 1.602995 1_455
O26 P1 1.623642 1_555
O27 P1 1.493065 1_655
O28 P14 1.490135 1_455
O29 P6 1.543191 1_555
O29 V2 1.876401 1_655
O30 P6 1.541821 1_555
O30 V1 1.909808 1_555
O31 P7 1.554981 1_555
O31 V1 1.880286 1_555
O32 P11 1.584198 1_555
O32 V0 1.946589 1_555
O33 P10 1.564588 1_555
O33 V0 1.851104 1_555
O34 P10 1.475678 1_555
O35 P9 1.494518 1_555
O36 P9 1.598024 1_555
O36 P10 1.629319 1_555
O37 P13 1.558877 1_555
O37 V1 1.940685 1_555
O38 P12 1.550852 1_555
O38 V2 1.999784 1_655
O39 P8 1.540480 1_555
O39 V3 1.895950 1_555
O40 P12 1.598211 1_555
O40 V1 1.828119 1_555
O41 P12 1.479972 1_555
O42 P11 1.483561 1_555
O43 P11 1.536903 1_555
O43 V4 1.951961 1_555
O44 P14 1.528460 1_555
O44 V2 1.951840 1_655
O45 P11 1.616041 1_555
O45 V3 1.805141 1_555
O46 P10 1.543245 1_555
O46 V4 2.002992 1_555
O47 P0 1.613029 1_545
O47 P13 1.615012 1_555
O48 P0 1.477778 1_555
O49 P13 1.575106 1_555
O49 V5 1.872228 1_545
O50 P12 1.595872 1_555
O50 V5 1.878959 1_545
O51 P15 1.547883 1_555
O51 V4 1.870476 1_555
O52 P15 1.564768 1_555
O52 V3 1.948830 1_555
O53 P7 1.493912 1_555
O54 P7 1.603159 1_655
O54 P14 1.634042 1_555
O55 P14 1.572428 1_555
O55 V5 1.953283 1_545
O56 P2 1.493180 1_555
O57 P15 1.617104 1_565
O57 P2 1.621344 1_555
