# generated using pymatgen
data_LiH2ClO
_symmetry_space_group_name_H-M   'P 1'
_cell_length_a   5.48661316
_cell_length_b   5.48661316
_cell_length_c   7.70825900
_cell_angle_alpha   90.00000000
_cell_angle_beta   90.00000000
_cell_angle_gamma   91.31479995
_symmetry_Int_Tables_number   1
_chemical_formula_structural   LiH2ClO
_chemical_formula_sum   'Li4 H8 Cl4 O4'
_cell_volume   231.98004157
_cell_formula_units_Z   4
loop_
 _symmetry_equiv_pos_site_id
 _symmetry_equiv_pos_as_xyz
  1  'x, y, z'
loop_
 _atom_site_type_symbol
 _atom_site_label
 _atom_site_symmetry_multiplicity
 _atom_site_fract_x
 _atom_site_fract_y
 _atom_site_fract_z
 _atom_site_occupancy
  Li  Li0  1  0.50000000  0.50000000  0.00000000  1
  Li  Li1  1  0.50000000  0.50000000  0.50000000  1
  Li  Li2  1  0.82026900  0.17973100  0.75000000  1
  Li  Li3  1  0.17973100  0.82026900  0.25000000  1
  H  H0  1  0.71081900  0.08780400  0.06973600  1
  H  H1  1  0.71081900  0.08780400  0.43026400  1
  H  H2  1  0.08780400  0.71081900  0.56973600  1
  H  H3  1  0.08780400  0.71081900  0.93026400  1
  H  H4  1  0.91219600  0.28918100  0.06973600  1
  H  H5  1  0.28918100  0.91219600  0.56973600  1
  H  H6  1  0.91219600  0.28918100  0.43026400  1
  H  H7  1  0.28918100  0.91219600  0.93026400  1
  Cl  Cl0  1  0.22660700  0.28591400  0.25000000  1
  Cl  Cl1  1  0.28591400  0.22660700  0.75000000  1
  Cl  Cl2  1  0.77339300  0.71408600  0.75000000  1
  Cl  Cl3  1  0.71408600  0.77339300  0.25000000  1
  O  O0  1  0.23900700  0.76099300  0.50631700  1
  O  O1  1  0.76099300  0.23900700  0.00631700  1
  O  O2  1  0.76099300  0.23900700  0.49368300  1
  O  O3  1  0.23900700  0.76099300  0.99368300  1
loop_
_geom_bond_atom_site_label_1
_geom_bond_atom_site_label_2
_geom_bond_distance
_geom_bond_site_symmetry_2
Li0 O3 2.048789 1_554
Li0 O1 2.048789 1_555
Li1 O0 2.048789 1_555
Li1 O2 2.048789 1_555
Li2 O1 2.029782 1_556
Li2 O2 2.029782 1_555
Li3 O3 2.029782 1_554
Li3 O0 2.029782 1_555
H0 O1 0.996243 1_555
H1 O2 0.996243 1_555
H2 O0 0.996243 1_555
H3 O3 0.996243 1_555
H4 O1 0.996243 1_555
H5 O0 0.996243 1_555
H6 O2 0.996243 1_555
H7 O3 0.996243 1_555
Cl0 Li3 2.561848 1_545
Cl0 Li0 2.694889 1_555
Cl0 Li1 2.694889 1_555
Cl1 Li2 2.561848 1_455
Cl1 Li1 2.694889 1_555
Cl1 Li0 2.694889 1_556
Cl2 Li2 2.561848 1_565
Cl2 Li1 2.694889 1_555
Cl2 Li0 2.694889 1_556
Cl3 Li3 2.561848 1_655
Cl3 Li0 2.694889 1_555
Cl3 Li1 2.694889 1_555
