# generated using pymatgen
data_LiNiPO4
_symmetry_space_group_name_H-M   'P 1'
_cell_length_a   5.22958604
_cell_length_b   7.93091129
_cell_length_c   8.47754759
_cell_angle_alpha   104.57737664
_cell_angle_beta   89.98893711
_cell_angle_gamma   89.99450448
_symmetry_Int_Tables_number   1
_chemical_formula_structural   LiNiPO4
_chemical_formula_sum   'Li4 Ni4 P4 O16'
_cell_volume   340.29072899
_cell_formula_units_Z   4
loop_
 _symmetry_equiv_pos_site_id
 _symmetry_equiv_pos_as_xyz
  1  'x, y, z'
loop_
 _atom_site_type_symbol
 _atom_site_label
 _atom_site_symmetry_multiplicity
 _atom_site_fract_x
 _atom_site_fract_y
 _atom_site_fract_z
 _atom_site_occupancy
  Li  Li0  1  0.33934000  0.87395000  0.20861700  1
  Li  Li1  1  0.66059400  0.87390600  0.70874700  1
  Li  Li2  1  0.82332400  0.35585800  0.38311800  1
  Li  Li3  1  0.17682600  0.35592300  0.88319100  1
  Ni  Ni0  1  0.16751200  0.95356900  0.55223100  1
  Ni  Ni1  1  0.32298300  0.48963100  0.26684200  1
  Ni  Ni2  1  0.83233200  0.95372400  0.05229800  1
  Ni  Ni3  1  0.67727800  0.48931600  0.76663400  1
  P  P0  1  0.67762200  0.25344200  0.01162900  1
  P  P1  1  0.32236200  0.25328800  0.51157100  1
  P  P2  1  0.82216500  0.74114800  0.33527400  1
  P  P3  1  0.17778200  0.74103300  0.83523100  1
  O  O0  1  0.19289400  0.87697500  0.00338100  1
  O  O1  1  0.80681000  0.87704900  0.50342200  1
  O  O2  1  0.40099100  0.32064500  0.05812000  1
  O  O3  1  0.59897000  0.32047000  0.55797100  1
  O  O4  1  0.70696200  0.81518700  0.19841000  1
  O  O5  1  0.29306500  0.81513200  0.69840800  1
  O  O6  1  0.11796000  0.70806800  0.30542000  1
  O  O7  1  0.88206800  0.70784000  0.80528700  1
  O  O8  1  0.81780500  0.21652900  0.16183400  1
  O  O9  1  0.18212100  0.21646700  0.66184700  1
  O  O10  1  0.67716500  0.57311700  0.34102000  1
  O  O11  1  0.32304800  0.57310400  0.84103800  1
  O  O12  1  0.18087200  0.38966500  0.44000600  1
  O  O13  1  0.81919000  0.38984600  0.94008900  1
  O  O14  1  0.31991700  0.07126500  0.38797000  1
  O  O15  1  0.68004400  0.07144900  0.88799500  1
loop_
_geom_bond_atom_site_label_1
_geom_bond_atom_site_label_2
_geom_bond_distance
_geom_bond_site_symmetry_2
Li0 O14 1.890298 1_565
Li0 O0 1.906796 1_555
Li0 O4 1.974892 1_555
Li0 O6 2.070744 1_555
Li1 O15 1.890955 1_565
Li1 O1 1.906964 1_555
Li1 O5 1.974540 1_555
Li1 O7 2.070889 1_555
Li2 O8 1.922917 1_555
Li2 O12 1.932896 1_655
Li2 O3 1.965057 1_555
Li2 O10 1.997484 1_555
Li3 O9 1.923640 1_555
Li3 O13 1.933199 1_455
Li3 O2 1.964996 1_556
Li3 O11 1.997307 1_555
Ni0 O5 1.964000 1_555
Ni0 O1 1.992947 1_455
Ni0 O14 2.024771 1_565
Ni0 O9 2.059476 1_565
Ni0 O6 2.487104 1_555
Ni1 O2 1.974701 1_555
Ni1 O12 1.980273 1_555
Ni1 O6 1.993006 1_555
Ni1 O10 2.013873 1_555
Ni2 O4 1.963735 1_555
Ni2 O0 1.992571 1_655
Ni2 O15 2.025103 1_564
Ni2 O8 2.058636 1_565
Ni2 O7 2.489908 1_554
Ni3 O3 1.974354 1_555
Ni3 O13 1.979811 1_555
Ni3 O7 1.993135 1_555
Ni3 O11 2.014804 1_555
O0 P3 1.557920 1_554
O1 P2 1.557784 1_555
O2 P0 1.557607 1_555
O3 P1 1.557556 1_555
O4 P2 1.548272 1_555
O5 P3 1.548281 1_555
O6 P2 1.578634 1_455
O7 P3 1.578568 1_655
O8 P0 1.559673 1_555
O9 P1 1.559844 1_555
O10 P2 1.544720 1_555
O11 P3 1.544712 1_555
O12 P1 1.554272 1_555
O13 P0 1.554504 1_556
O14 P1 1.555859 1_555
O15 P0 1.555795 1_556
