# generated using pymatgen
data_Rb3FeO3
_symmetry_space_group_name_H-M   'P 1'
_cell_length_a   12.50107900
_cell_length_b   5.04271200
_cell_length_c   11.58676251
_cell_angle_alpha   77.03146022
_cell_angle_beta   90.00000000
_cell_angle_gamma   90.00000000
_symmetry_Int_Tables_number   1
_chemical_formula_structural   Rb3FeO3
_chemical_formula_sum   'Rb12 Fe4 O12'
_cell_volume   711.79132102
_cell_formula_units_Z   4
loop_
 _symmetry_equiv_pos_site_id
 _symmetry_equiv_pos_as_xyz
  1  'x, y, z'
loop_
 _atom_site_type_symbol
 _atom_site_label
 _atom_site_symmetry_multiplicity
 _atom_site_fract_x
 _atom_site_fract_y
 _atom_site_fract_z
 _atom_site_occupancy
  Rb  Rb0  1  0.41513100  0.89524000  0.63880100  1
  Rb  Rb1  1  0.98952600  0.72995400  0.62333000  1
  Rb  Rb2  1  0.23454300  0.50875800  0.96290900  1
  Rb  Rb3  1  0.08486900  0.89524000  0.13880100  1
  Rb  Rb4  1  0.51047400  0.72995400  0.12333000  1
  Rb  Rb5  1  0.73454300  0.49124200  0.53709100  1
  Rb  Rb6  1  0.26545700  0.50875800  0.46290900  1
  Rb  Rb7  1  0.48952600  0.27004600  0.87667000  1
  Rb  Rb8  1  0.91513100  0.10476000  0.86119900  1
  Rb  Rb9  1  0.76545700  0.49124200  0.03709100  1
  Rb  Rb10  1  0.01047400  0.27004600  0.37667000  1
  Rb  Rb11  1  0.58486900  0.10476000  0.36119900  1
  Fe  Fe0  1  0.68240000  0.80542000  0.75704000  1
  Fe  Fe1  1  0.81760000  0.80542000  0.25704000  1
  Fe  Fe2  1  0.18240000  0.19458000  0.74296000  1
  Fe  Fe3  1  0.31760000  0.19458000  0.24296000  1
  O  O0  1  0.63668000  0.95152200  0.60713700  1
  O  O1  1  0.58855800  0.76695500  0.88267200  1
  O  O2  1  0.86332000  0.95152200  0.10713700  1
  O  O3  1  0.81495900  0.64189700  0.78334700  1
  O  O4  1  0.91144200  0.76695500  0.38267200  1
  O  O5  1  0.68504100  0.64189700  0.28334700  1
  O  O6  1  0.31495900  0.35810300  0.71665300  1
  O  O7  1  0.08855800  0.23304500  0.61732800  1
  O  O8  1  0.18504100  0.35810300  0.21665300  1
  O  O9  1  0.13668000  0.04847800  0.89286300  1
  O  O10  1  0.41144200  0.23304500  0.11732800  1
  O  O11  1  0.36332000  0.04847800  0.39286300  1
loop_
_geom_bond_atom_site_label_1
_geom_bond_atom_site_label_2
_geom_bond_distance
_geom_bond_site_symmetry_2
Fe0 O0 1.819865 1_555
Fe0 O1 1.845559 1_555
Fe0 O3 1.845574 1_555
Fe1 O2 1.819865 1_555
Fe1 O4 1.845559 1_555
Fe1 O5 1.845574 1_555
Fe2 O9 1.819865 1_555
Fe2 O7 1.845559 1_555
Fe2 O6 1.845574 1_555
Fe3 O11 1.819865 1_555
Fe3 O10 1.845559 1_555
Fe3 O8 1.845574 1_555
O0 Rb0 2.799841 1_555
O0 Rb11 2.854586 1_565
O0 Rb5 2.896242 1_555
O0 Rb5 2.927688 1_565
O1 Rb7 2.809696 1_565
O1 Rb7 2.809731 1_555
O1 Rb4 2.920543 1_556
O1 Rb9 2.984667 1_556
O2 Rb3 2.799841 1_655
O2 Rb8 2.854586 1_564
O2 Rb9 2.896242 1_555
O2 Rb9 2.927688 1_565
O3 Rb1 2.833301 1_555
O3 Rb9 2.932851 1_556
O3 Rb8 2.936302 1_555
O3 Rb8 2.962229 1_565
O3 Rb5 3.271401 1_555
O4 Rb10 2.809696 1_665
O4 Rb10 2.809731 1_655
O4 Rb1 2.920543 1_555
O4 Rb5 2.984667 1_555
O5 Rb4 2.833301 1_555
O5 Rb5 2.932851 1_555
O5 Rb11 2.936302 1_555
O5 Rb11 2.962229 1_565
O5 Rb9 3.271401 1_555
O6 Rb7 2.833301 1_555
O6 Rb6 2.932851 1_555
O6 Rb0 2.936302 1_555
O6 Rb0 2.962229 1_545
O6 Rb2 3.271401 1_555
O7 Rb1 2.809696 1_445
O7 Rb1 2.809731 1_455
O7 Rb10 2.920543 1_555
O7 Rb6 2.984667 1_555
O8 Rb10 2.833301 1_555
O8 Rb2 2.932851 1_554
O8 Rb3 2.936302 1_555
O8 Rb3 2.962229 1_545
O8 Rb6 3.271401 1_555
O9 Rb8 2.799841 1_455
O9 Rb3 2.854586 1_546
O9 Rb2 2.896242 1_555
O9 Rb2 2.927688 1_545
O10 Rb4 2.809696 1_545
O10 Rb4 2.809731 1_555
O10 Rb7 2.920543 1_554
O10 Rb2 2.984667 1_554
O11 Rb11 2.799841 1_555
O11 Rb0 2.854586 1_545
O11 Rb6 2.896242 1_555
O11 Rb6 2.927688 1_545
