# generated using pymatgen
data_Li11Ti12(NiO8)4
_symmetry_space_group_name_H-M   'P 1'
_cell_length_a   8.42582406
_cell_length_b   8.42395681
_cell_length_c   8.42511087
_cell_angle_alpha   90.09311244
_cell_angle_beta   89.90385724
_cell_angle_gamma   89.90146096
_symmetry_Int_Tables_number   1
_chemical_formula_structural   Li11Ti12(NiO8)4
_chemical_formula_sum   'Li11 Ti12 Ni4 O32'
_cell_volume   598.00155518
_cell_formula_units_Z   1
loop_
 _symmetry_equiv_pos_site_id
 _symmetry_equiv_pos_as_xyz
  1  'x, y, z'
loop_
 _atom_site_type_symbol
 _atom_site_label
 _atom_site_symmetry_multiplicity
 _atom_site_fract_x
 _atom_site_fract_y
 _atom_site_fract_z
 _atom_site_occupancy
  Li  Li0  1  0.49816900  0.00157900  0.50160800  1
  Li  Li1  1  0.12506700  0.12330500  0.12675400  1
  Li  Li2  1  0.87351100  0.12338800  0.87466600  1
  Li  Li3  1  0.12710300  0.37698300  0.37513800  1
  Li  Li4  1  0.87345300  0.37507300  0.62315200  1
  Li  Li5  1  0.37645500  0.37490500  0.12668300  1
  Li  Li6  1  0.62495200  0.37304800  0.87702700  1
  Li  Li7  1  0.12487400  0.62651500  0.62342900  1
  Li  Li8  1  0.37660600  0.62664400  0.87495400  1
  Li  Li9  1  0.75168300  0.74839400  0.24819900  1
  Li  Li10  1  0.12293600  0.87509600  0.87272700  1
  Ti  Ti0  1  0.86560700  0.11576200  0.37521400  1
  Ti  Ti1  1  0.12760200  0.11790300  0.62002200  1
  Ti  Ti2  1  0.38224100  0.11971500  0.87227800  1
  Ti  Ti3  1  0.86821300  0.37741900  0.13016200  1
  Ti  Ti4  1  0.62256100  0.37491500  0.37289000  1
  Ti  Ti5  1  0.38015300  0.37257200  0.61833500  1
  Ti  Ti6  1  0.12242600  0.63022500  0.13219400  1
  Ti  Ti7  1  0.87004500  0.63216600  0.87752600  1
  Ti  Ti8  1  0.62516800  0.63425100  0.61557500  1
  Ti  Ti9  1  0.12517700  0.87299600  0.37718000  1
  Ti  Ti10  1  0.38419800  0.87502800  0.13416400  1
  Ti  Ti11  1  0.62693600  0.87720800  0.87506300  1
  Ni  Ni0  1  0.62511500  0.12072700  0.12923300  1
  Ni  Ni1  1  0.12477300  0.37497500  0.87499400  1
  Ni  Ni2  1  0.37928900  0.62932500  0.37494300  1
  Ni  Ni3  1  0.87025400  0.87495300  0.62021300  1
  O  O0  1  0.89513100  0.12717800  0.61120900  1
  O  O1  1  0.10942600  0.11604500  0.38279600  1
  O  O2  1  0.37301000  0.11100800  0.10471200  1
  O  O3  1  0.61708900  0.11428900  0.88524600  1
  O  O4  1  0.87714700  0.14502100  0.13934100  1
  O  O5  1  0.64011000  0.13897300  0.37367700  1
  O  O6  1  0.36394100  0.13600200  0.63576000  1
  O  O7  1  0.13629700  0.12506500  0.85849700  1
  O  O8  1  0.63297700  0.36468500  0.13615000  1
  O  O9  1  0.86610500  0.35942000  0.36736700  1
  O  O10  1  0.14150200  0.36359400  0.62477200  1
  O  O11  1  0.37493600  0.35864600  0.86353500  1
  O  O12  1  0.11348800  0.39132000  0.12524500  1
  O  O13  1  0.87469400  0.38640200  0.89157600  1
  O  O14  1  0.61726300  0.39057800  0.61630300  1
  O  O15  1  0.38602400  0.38543200  0.38298100  1
  O  O16  1  0.10848500  0.62501700  0.88625400  1
  O  O17  1  0.88583800  0.61405100  0.11394400  1
  O  O18  1  0.62365700  0.61100900  0.39011500  1
  O  O19  1  0.38927500  0.60492700  0.62714300  1
  O  O20  1  0.13523300  0.63583800  0.36710200  1
  O  O21  1  0.35478300  0.63898100  0.12284800  1
  O  O22  1  0.63280200  0.63400600  0.85944100  1
  O  O23  1  0.86112300  0.62279600  0.64500300  1
  O  O24  1  0.36087900  0.87352800  0.35993100  1
  O  O25  1  0.14061100  0.86746200  0.13385100  1
  O  O26  1  0.86429100  0.86708900  0.86469400  1
  O  O27  1  0.62643500  0.86005300  0.63903500  1
  O  O28  1  0.88911100  0.88994800  0.37642700  1
  O  O29  1  0.11470700  0.88293200  0.61441000  1
  O  O30  1  0.38380000  0.88258000  0.89053100  1
  O  O31  1  0.60994400  0.87643200  0.11085100  1
loop_
_geom_bond_atom_site_label_1
_geom_bond_atom_site_label_2
_geom_bond_distance
_geom_bond_site_symmetry_2
Li0 O6 1.956014 1_555
Li0 O24 1.982740 1_545
Li0 O27 1.983486 1_545
Li0 O5 1.983969 1_555
Li1 O4 2.099100 1_455
Li1 O2 2.099416 1_555
Li1 O25 2.159892 1_545
Li1 O1 2.161954 1_555
Li1 O12 2.259743 1_555
Li1 O7 2.261990 1_554
Li2 O26 2.162084 1_545
Li2 O3 2.163750 1_555
Li2 O7 2.218218 1_655
Li2 O13 2.220004 1_555
Li2 O0 2.227097 1_555
Li2 O4 2.237320 1_556
Li3 O10 2.110082 1_555
Li3 O12 2.112332 1_555
Li3 O20 2.182933 1_555
Li3 O15 2.184013 1_555
Li3 O1 2.204468 1_555
Li3 O9 2.205423 1_455
Li4 O23 2.096996 1_555
Li4 O0 2.098153 1_555
Li4 O9 2.159831 1_555
Li4 O14 2.163208 1_555
Li4 O10 2.260502 1_655
Li4 O13 2.263402 1_555
Li5 O15 2.162660 1_555
Li5 O8 2.164584 1_555
Li5 O12 2.219842 1_555
Li5 O11 2.221115 1_554
Li5 O2 2.230693 1_555
Li5 O21 2.232024 1_555
Li6 O13 2.111236 1_555
Li6 O11 2.113529 1_555
Li6 O3 2.182103 1_555
Li6 O8 2.185547 1_556
Li6 O14 2.202880 1_555
Li6 O22 2.204625 1_555
Li7 O20 2.162760 1_555
Li7 O29 2.163060 1_555
Li7 O16 2.218458 1_555
Li7 O10 2.219070 1_555
Li7 O23 2.229714 1_455
Li7 O19 2.235170 1_555
Li8 O19 2.098062 1_555
Li8 O21 2.098697 1_556
Li8 O30 2.160732 1_555
Li8 O22 2.163398 1_555
Li8 O11 2.259565 1_555
Li8 O16 2.261052 1_555
Li9 O17 1.955770 1_555
Li9 O31 1.983163 1_555
Li9 O28 1.983594 1_555
Li9 O18 1.984215 1_555
Li10 O7 2.112517 1_565
Li10 O16 2.113628 1_555
Li10 O29 2.178674 1_555
Li10 O26 2.181617 1_455
Li10 O30 2.204361 1_555
Li10 O25 2.206317 1_556
Ni0 O8 2.057007 1_555
Ni0 O3 2.057473 1_554
Ni0 O31 2.067689 1_545
Ni0 O5 2.069035 1_555
Ni0 O4 2.135594 1_555
Ni0 O2 2.136257 1_555
Ni1 O7 2.111645 1_555
Ni1 O16 2.112541 1_555
Ni1 O13 2.113532 1_455
Ni1 O11 2.114111 1_555
Ni1 O10 2.114627 1_555
Ni1 O12 2.114629 1_556
Ni2 O15 2.056459 1_555
Ni2 O20 2.058185 1_555
Ni2 O24 2.066824 1_555
Ni2 O18 2.068693 1_555
Ni2 O21 2.135954 1_555
Ni2 O19 2.136846 1_555
Ni3 O29 2.061430 1_655
Ni3 O26 2.061483 1_555
Ni3 O28 2.063885 1_555
Ni3 O27 2.064272 1_555
Ni3 O23 2.136246 1_555
Ni3 O0 2.136863 1_565
O0 Ti1 1.961718 1_655
O0 Ti0 2.006371 1_555
O1 Ti1 2.004808 1_555
O1 Ti9 2.051967 1_545
O1 Ti0 2.055481 1_455
O2 Ti2 1.961192 1_554
O2 Ti10 2.005787 1_545
O3 Ti2 1.982438 1_555
O3 Ti11 2.000435 1_545
O4 Ti3 1.960684 1_555
O4 Ti0 2.005098 1_555
O5 Ti0 1.909766 1_555
O5 Ti4 1.992827 1_555
O6 Ti1 2.002041 1_555
O6 Ti5 2.003373 1_555
O6 Ti2 2.003812 1_555
O7 Ti1 2.011447 1_555
O7 Ti2 2.076141 1_555
O8 Ti3 1.985703 1_555
O8 Ti4 1.998056 1_555
O9 Ti3 2.004519 1_555
O9 Ti0 2.053748 1_555
O9 Ti4 2.056426 1_555
O10 Ti5 2.013026 1_555
O10 Ti1 2.073528 1_555
O11 Ti2 2.015050 1_555
O11 Ti5 2.069753 1_555
O12 Ti6 2.014823 1_555
O12 Ti3 2.070509 1_455
O13 Ti3 2.012313 1_556
O13 Ti7 2.074185 1_555
O14 Ti5 2.003904 1_555
O14 Ti8 2.053904 1_555
O14 Ti4 2.055213 1_555
O15 Ti5 1.986554 1_555
O15 Ti4 1.996497 1_555
O16 Ti7 2.011324 1_455
O16 Ti6 2.075992 1_556
O17 Ti7 2.002563 1_554
O17 Ti3 2.004024 1_555
O17 Ti6 2.004480 1_655
O18 Ti8 1.909339 1_555
O18 Ti4 1.993936 1_555
O19 Ti5 1.960279 1_555
O19 Ti8 2.005533 1_555
O20 Ti6 1.982738 1_555
O20 Ti9 2.001117 1_555
O21 Ti6 1.960769 1_555
O21 Ti10 2.006392 1_555
O22 Ti7 2.005057 1_555
O22 Ti11 2.053238 1_555
O22 Ti8 2.055717 1_555
O23 Ti7 1.962065 1_555
O23 Ti8 2.006105 1_555
O24 Ti10 1.911969 1_555
O24 Ti9 1.991064 1_555
O25 Ti6 2.004630 1_555
O25 Ti10 2.053526 1_555
O25 Ti9 2.054425 1_555
O26 Ti7 1.982622 1_555
O26 Ti11 2.003334 1_555
O27 Ti8 1.912118 1_555
O27 Ti11 1.993584 1_555
O28 Ti0 1.912235 1_565
O28 Ti9 1.993947 1_655
O29 Ti1 1.983043 1_565
O29 Ti9 2.002095 1_555
O30 Ti2 2.003797 1_565
O30 Ti11 2.052960 1_555
O30 Ti10 2.053732 1_556
O31 Ti10 1.911941 1_555
O31 Ti11 1.991475 1_554
