# generated using pymatgen
data_Na2CoP4(H4O5)4
_symmetry_space_group_name_H-M   'P 1'
_cell_length_a   10.84714600
_cell_length_b   7.25058900
_cell_length_c   12.17105431
_cell_angle_alpha   64.39491624
_cell_angle_beta   90.00000000
_cell_angle_gamma   90.00000000
_symmetry_Int_Tables_number   1
_chemical_formula_structural   Na2CoP4(H4O5)4
_chemical_formula_sum   'Na4 Co2 P8 H32 O40'
_cell_volume   863.22578471
_cell_formula_units_Z   2
loop_
 _symmetry_equiv_pos_site_id
 _symmetry_equiv_pos_as_xyz
  1  'x, y, z'
loop_
 _atom_site_type_symbol
 _atom_site_label
 _atom_site_symmetry_multiplicity
 _atom_site_fract_x
 _atom_site_fract_y
 _atom_site_fract_z
 _atom_site_occupancy
  Na  Na0  1  0.83041000  0.20592600  0.04173000  1
  Na  Na1  1  0.33041000  0.79407400  0.45827000  1
  Na  Na2  1  0.66959000  0.20592600  0.54173000  1
  Na  Na3  1  0.16959000  0.79407400  0.95827000  1
  Co  Co0  1  0.50000000  0.50000000  0.00000000  1
  Co  Co1  1  0.00000000  0.50000000  0.50000000  1
  P  P0  1  0.74320500  0.67997800  0.58351100  1
  P  P1  1  0.24320500  0.32002200  0.91648900  1
  P  P2  1  0.54527300  0.04351300  0.22028800  1
  P  P3  1  0.04527300  0.95648700  0.27971200  1
  P  P4  1  0.95472700  0.04351300  0.72028800  1
  P  P5  1  0.45472700  0.95648700  0.77971200  1
  P  P6  1  0.75679500  0.67997800  0.08351100  1
  P  P7  1  0.25679500  0.32002200  0.41648900  1
  H  H0  1  0.09015500  0.73695900  0.60467100  1
  H  H1  1  0.46350100  0.65988000  0.69718400  1
  H  H2  1  0.07011100  0.48279500  0.89393400  1
  H  H3  1  0.87996100  0.51034400  0.80601700  1
  H  H4  1  0.66490700  0.47008800  0.84478400  1
  H  H5  1  0.20713900  0.13675600  0.28888300  1
  H  H6  1  0.16490700  0.52991200  0.65521600  1
  H  H7  1  0.37996100  0.48965600  0.69398300  1
  H  H8  1  0.91535500  0.91249600  0.42414200  1
  H  H9  1  0.61319700  0.89877400  0.44410200  1
  H  H10  1  0.57011100  0.51720500  0.60606600  1
  H  H11  1  0.96350100  0.34012000  0.80281600  1
  H  H12  1  0.59015500  0.26304100  0.89532900  1
  H  H13  1  0.11319700  0.10122600  0.05589800  1
  H  H14  1  0.41535500  0.08750400  0.07585800  1
  H  H15  1  0.70713900  0.86324400  0.21111700  1
  H  H16  1  0.29286100  0.13675600  0.78888300  1
  H  H17  1  0.58464500  0.91249600  0.92414200  1
  H  H18  1  0.88680300  0.89877400  0.94410200  1
  H  H19  1  0.40984500  0.73695900  0.10467100  1
  H  H20  1  0.03649900  0.65988000  0.19718400  1
  H  H21  1  0.42988900  0.48279500  0.39393400  1
  H  H22  1  0.38680300  0.10122600  0.55589800  1
  H  H23  1  0.08464500  0.08750400  0.57585800  1
  H  H24  1  0.62003900  0.51034400  0.30601700  1
  H  H25  1  0.83509300  0.47008800  0.34478400  1
  H  H26  1  0.79286100  0.86324400  0.71111700  1
  H  H27  1  0.33509300  0.52991200  0.15521600  1
  H  H28  1  0.12003900  0.48965600  0.19398300  1
  H  H29  1  0.92988900  0.51720500  0.10606600  1
  H  H30  1  0.53649900  0.34012000  0.30281600  1
  H  H31  1  0.90984500  0.26304100  0.39532900  1
  O  O0  1  0.67279300  0.88999100  0.51423300  1
  O  O1  1  0.75899300  0.64731200  0.71614900  1
  O  O2  1  0.15766200  0.49396400  0.92246200  1
  O  O3  1  0.52676300  0.27257800  0.17750700  1
  O  O4  1  0.44287100  0.59178500  0.64386100  1
  O  O5  1  0.13173400  0.64061900  0.57932600  1
  O  O6  1  0.86350000  0.68716700  0.51752200  1
  O  O7  1  0.36350000  0.31283300  0.98247800  1
  O  O8  1  0.63173400  0.35938100  0.92067400  1
  O  O9  1  0.94287100  0.40821500  0.85613900  1
  O  O10  1  0.96114300  0.03341400  0.36019700  1
  O  O11  1  0.18481600  0.98901600  0.30785300  1
  O  O12  1  0.65766200  0.50603600  0.57753800  1
  O  O13  1  0.01871900  0.08915600  0.14585500  1
  O  O14  1  0.25899300  0.35268800  0.78385100  1
  O  O15  1  0.51871900  0.91084400  0.35414500  1
  O  O16  1  0.68481600  0.01098400  0.19214700  1
  O  O17  1  0.17279300  0.11000900  0.98576700  1
  O  O18  1  0.46114300  0.96658600  0.13980300  1
  O  O19  1  0.97323700  0.27257800  0.67750700  1
  O  O20  1  0.02676300  0.72742200  0.32249300  1
  O  O21  1  0.53885700  0.03341400  0.86019700  1
  O  O22  1  0.82720700  0.88999100  0.01423300  1
  O  O23  1  0.31518400  0.98901600  0.80785300  1
  O  O24  1  0.48128100  0.08915600  0.64585500  1
  O  O25  1  0.74100700  0.64731200  0.21614900  1
  O  O26  1  0.98128100  0.91084400  0.85414500  1
  O  O27  1  0.34233800  0.49396400  0.42246200  1
  O  O28  1  0.81518400  0.01098400  0.69214700  1
  O  O29  1  0.03885700  0.96658600  0.63980300  1
  O  O30  1  0.05712900  0.59178500  0.14386100  1
  O  O31  1  0.36826600  0.64061900  0.07932600  1
  O  O32  1  0.63650000  0.68716700  0.01752200  1
  O  O33  1  0.13650000  0.31283300  0.48247800  1
  O  O34  1  0.86826600  0.35938100  0.42067400  1
  O  O35  1  0.55712900  0.40821500  0.35613900  1
  O  O36  1  0.47323700  0.72742200  0.82249300  1
  O  O37  1  0.84233800  0.50603600  0.07753800  1
  O  O38  1  0.24100700  0.35268800  0.28385100  1
  O  O39  1  0.32720700  0.11000900  0.48576700  1
loop_
_geom_bond_atom_site_label_1
_geom_bond_atom_site_label_2
_geom_bond_distance
_geom_bond_site_symmetry_2
Na0 O13 2.359612 1_655
Na0 O16 2.367901 1_555
Na0 O37 2.400254 1_555
Na0 O9 2.424483 1_554
Na0 O22 2.454222 1_545
Na0 O8 2.576081 1_554
Na1 O15 2.359612 1_555
Na1 O11 2.367901 1_555
Na1 O27 2.400254 1_555
Na1 O4 2.424483 1_555
Na1 O39 2.454222 1_565
Na1 O5 2.576081 1_555
Na2 O24 2.359612 1_555
Na2 O28 2.367901 1_555
Na2 O12 2.400254 1_555
Na2 O35 2.424483 1_555
Na2 O0 2.454222 1_545
Na2 O34 2.576081 1_555
Na3 O26 2.359612 1_455
Na3 O23 2.367901 1_555
Na3 O2 2.400254 1_555
Na3 O30 2.424483 1_556
Na3 O17 2.454222 1_565
Na3 O31 2.576081 1_556
Co0 O32 2.080757 1_555
Co0 O7 2.080757 1_554
Co0 O36 2.095634 1_554
Co0 O3 2.095634 1_555
Co0 O31 2.205531 1_555
Co0 O8 2.205531 1_554
Co1 O6 2.080757 1_455
Co1 O33 2.080757 1_555
Co1 O19 2.095634 1_455
Co1 O20 2.095634 1_555
Co1 O5 2.205531 1_555
Co1 O34 2.205531 1_455
H0 O5 0.986279 1_555
H1 O4 0.995991 1_555
H2 O2 1.026309 1_555
H2 O9 1.619858 1_455
H3 O9 0.997846 1_555
H4 O8 0.993033 1_555
H5 O11 1.022567 1_545
H5 O38 1.583365 1_555
H6 O5 0.993033 1_555
H7 O4 0.997846 1_555
H8 O10 1.015520 1_565
H8 O6 1.634738 1_555
H9 O0 1.050497 1_555
H9 O15 1.474393 1_555
H10 O12 1.026309 1_555
H10 O4 1.619858 1_555
H11 O9 0.995991 1_555
H12 O8 0.986279 1_555
H13 O17 1.050497 1_554
H13 O13 1.474393 1_555
H14 O18 1.015520 1_545
H14 O7 1.634738 1_554
H15 O16 1.022567 1_565
H15 O25 1.583365 1_555
H16 O23 1.022567 1_545
H16 O14 1.583365 1_555
H17 O21 1.015520 1_565
H17 O32 1.634738 1_556
H18 O22 1.050497 1_556
H18 O26 1.474393 1_555
H19 O31 0.986279 1_555
H20 O30 0.995991 1_555
H21 O27 1.026309 1_555
H21 O35 1.619858 1_555
H22 O39 1.050497 1_555
H22 O24 1.474393 1_555
H23 O29 1.015520 1_545
H23 O33 1.634738 1_555
H24 O35 0.997846 1_555
H25 O34 0.993033 1_555
H26 O28 1.022567 1_565
H26 O1 1.583365 1_555
H27 O31 0.993033 1_555
H28 O30 0.997846 1_555
H29 O37 1.026309 1_555
H29 O30 1.619858 1_655
H30 O35 0.995991 1_555
H31 O34 0.986279 1_555
O0 P0 1.582160 1_555
O1 P0 1.536572 1_555
O2 P1 1.592515 1_555
O3 P2 1.523945 1_555
O6 P0 1.521264 1_555
O7 P1 1.521264 1_555
O10 P3 1.604909 1_645
O11 P3 1.591815 1_555
O12 P0 1.592515 1_555
O13 P3 1.519197 1_545
O14 P1 1.536572 1_555
O15 P2 1.519197 1_565
O16 P2 1.591815 1_555
O17 P1 1.582160 1_555
O18 P2 1.604909 1_565
O19 P4 1.523945 1_555
O20 P3 1.523945 1_555
O21 P5 1.604909 1_545
O22 P6 1.582160 1_555
O23 P5 1.591815 1_555
O24 P5 1.519197 1_545
O25 P6 1.536572 1_555
O26 P4 1.519197 1_565
O27 P7 1.592515 1_555
O28 P4 1.591815 1_555
O29 P4 1.604909 1_465
O32 P6 1.521264 1_555
O33 P7 1.521264 1_555
O36 P5 1.523945 1_555
O37 P6 1.592515 1_555
O38 P7 1.536572 1_555
O39 P7 1.582160 1_555
