# generated using pymatgen
data_Li3AlCoO4
_symmetry_space_group_name_H-M   'P 1'
_cell_length_a   10.11567982
_cell_length_b   10.11567982
_cell_length_c   10.11567982
_cell_angle_alpha   116.75850753
_cell_angle_beta   116.75850753
_cell_angle_gamma   95.71256370
_symmetry_Int_Tables_number   1
_chemical_formula_structural   Li3AlCoO4
_chemical_formula_sum   'Li24 Al8 Co8 O32'
_cell_volume   763.68305554
_cell_formula_units_Z   8
loop_
 _symmetry_equiv_pos_site_id
 _symmetry_equiv_pos_as_xyz
  1  'x, y, z'
loop_
 _atom_site_type_symbol
 _atom_site_label
 _atom_site_symmetry_multiplicity
 _atom_site_fract_x
 _atom_site_fract_y
 _atom_site_fract_z
 _atom_site_occupancy
  Li  Li0  1  0.92632700  0.10759100  0.15433700  1
  Li  Li1  1  0.82367300  0.14240900  0.34566300  1
  Li  Li2  1  0.89240900  0.04674700  0.81873600  1
  Li  Li3  1  0.52198900  0.17632700  0.31873600  1
  Li  Li4  1  0.44351900  0.29459700  0.13564900  1
  Li  Li5  1  0.71957600  0.56734100  0.14657300  1
  Li  Li6  1  0.85759100  0.20325300  0.68126400  1
  Li  Li7  1  0.22801100  0.07367300  0.18126400  1
  Li  Li8  1  0.70540300  0.84105200  0.14892200  1
  Li  Li9  1  0.43265900  0.57923200  0.15223600  1
  Li  Li10  1  0.79674700  0.47801100  0.65433700  1
  Li  Li11  1  0.95325300  0.77198900  0.84566300  1
  Li  Li12  1  0.42699600  0.28042400  0.84776400  1
  Li  Li13  1  0.31734100  0.67076800  0.34776400  1
  Li  Li14  1  0.04459700  0.40894800  0.35107800  1
  Li  Li15  1  0.69213000  0.55648100  0.85107800  1
  Li  Li16  1  0.03042400  0.68265900  0.35342700  1
  Li  Li17  1  0.42076800  0.57300400  0.85342700  1
  Li  Li18  1  0.59105200  0.94213000  0.63564900  1
  Li  Li19  1  0.15894800  0.30787000  0.86435100  1
  Li  Li20  1  0.30648100  0.95540300  0.36435100  1
  Li  Li21  1  0.32923200  0.67699600  0.64657300  1
  Li  Li22  1  0.05787000  0.69351900  0.64892200  1
  Li  Li23  1  0.32300400  0.96957600  0.65223600  1
  Al  Al0  1  0.75035400  0.41421700  0.30223900  1
  Al  Al1  1  0.55188600  0.24964600  0.66386300  1
  Al  Al2  1  0.16421700  0.36197800  0.16386300  1
  Al  Al3  1  0.58578300  0.88802200  0.33613700  1
  Al  Al4  1  0.63802200  0.80188600  0.80223900  1
  Al  Al5  1  0.99964600  0.83578300  0.19776100  1
  Al  Al6  1  0.11197800  0.44811400  0.69776100  1
  Al  Al7  1  0.19811400  0.00035400  0.83613700  1
  Co  Co0  1  0.45019100  0.92556700  0.99841800  1
  Co  Co1  1  0.67556700  0.17714900  0.97537600  1
  Co  Co2  1  0.54822600  0.54980900  0.47537600  1
  Co  Co3  1  0.82285100  0.79822600  0.49841800  1
  Co  Co4  1  0.29980900  0.32443300  0.50158200  1
  Co  Co5  1  0.07443300  0.07285100  0.52462400  1
  Co  Co6  1  0.20177300  0.70019100  0.02462400  1
  Co  Co7  1  0.92714900  0.45177300  0.00158200  1
  O  O0  1  0.83292800  0.26709600  0.24430000  1
  O  O1  1  0.33862900  0.08292800  0.06583200  1
  O  O2  1  0.60091000  0.35236300  0.07944900  1
  O  O3  1  0.86404200  0.64078800  0.09339400  1
  O  O4  1  0.88595800  0.60921200  0.40660600  1
  O  O5  1  0.64505700  0.39467600  0.39748100  1
  O  O6  1  0.41137100  0.16707200  0.43416800  1
  O  O7  1  0.35921200  0.45260500  0.22325400  1
  O  O8  1  0.52064800  0.11404200  0.72325400  1
  O  O9  1  0.91707200  0.98290400  0.25570000  1
  O  O10  1  0.14467600  0.24719600  0.24961900  1
  O  O11  1  0.75242300  0.35494200  0.74961900  1
  O  O12  1  0.64763700  0.72708700  0.24854700  1
  O  O13  1  0.10236300  0.52291300  0.25145300  1
  O  O14  1  0.47853900  0.39909000  0.75145300  1
  O  O15  1  0.60532400  0.00280400  0.25038100  1
  O  O16  1  0.72720300  0.66137100  0.74430000  1
  O  O17  1  0.22935200  0.13595800  0.77674600  1
  O  O18  1  0.39078800  0.79739500  0.27674600  1
  O  O19  1  0.73290400  0.97720300  0.56583200  1
  O  O20  1  0.47708700  0.72853900  0.57944900  1
  O  O21  1  0.10494200  0.85532400  0.10251900  1
  O  O22  1  0.99719600  0.24757700  0.60251900  1
  O  O23  1  0.20260500  0.47935200  0.59339400  1
  O  O24  1  0.54739500  0.77064800  0.90660600  1
  O  O25  1  0.75280400  0.00242300  0.89748100  1
  O  O26  1  0.14909000  0.89763700  0.42055100  1
  O  O27  1  0.27291300  0.52146100  0.92055000  1
  O  O28  1  0.01709600  0.27279700  0.93416800  1
  O  O29  1  0.02279700  0.58862900  0.75570000  1
  O  O30  1  0.27146100  0.85091000  0.74854700  1
  O  O31  1  0.99757700  0.89505700  0.75038100  1
loop_
_geom_bond_atom_site_label_1
_geom_bond_atom_site_label_2
_geom_bond_distance
_geom_bond_site_symmetry_2
Li0 O9 1.969380 1_545
Li0 O25 1.999080 1_554
Li0 O10 2.009547 1_655
Li0 O0 2.019825 1_555
Li1 O0 1.969380 1_555
Li1 O22 1.999080 1_555
Li1 O15 2.009547 1_555
Li1 O9 2.019825 1_545
Li2 O28 1.969380 1_655
Li2 O31 1.999093 1_545
Li2 O25 2.009559 1_555
Li2 O19 2.019819 1_545
Li3 O6 1.969380 1_555
Li3 O15 1.999093 1_555
Li3 O5 2.009547 1_555
Li3 O1 2.019819 1_555
Li4 O1 1.928859 1_555
Li4 O7 1.934896 1_555
Li4 O2 2.031856 1_555
Li4 O5 2.123375 1_555
Li5 O12 1.901040 1_555
Li5 O3 1.956684 1_555
Li5 O2 2.011925 1_555
Li5 O4 2.190787 1_555
Li6 O19 1.969380 1_545
Li6 O11 1.999086 1_555
Li6 O22 2.009559 1_555
Li6 O28 2.019819 1_655
Li7 O1 1.969380 1_555
Li7 O10 1.999093 1_555
Li7 O21 2.009550 1_545
Li7 O6 2.019819 1_555
Li8 O9 1.928862 1_555
Li8 O24 1.934901 1_554
Li8 O12 2.031848 1_555
Li8 O15 2.123369 1_565
Li9 O27 1.901051 1_554
Li9 O7 1.956684 1_555
Li9 O12 2.011933 1_555
Li9 O18 2.190793 1_555
Li10 O29 1.969380 1_655
Li10 O5 1.999078 1_555
Li10 O11 2.009568 1_555
Li10 O16 2.019823 1_555
Li11 O16 1.969380 1_555
Li11 O21 1.999076 1_656
Li11 O31 2.009559 1_555
Li11 O29 2.019823 1_655
Li12 O2 1.901044 1_556
Li12 O17 1.956681 1_555
Li12 O14 2.011921 1_555
Li12 O8 2.190790 1_555
Li13 O20 1.901044 1_555
Li13 O18 1.956684 1_555
Li13 O13 2.011933 1_555
Li13 O7 2.190793 1_555
Li14 O0 1.928862 1_455
Li14 O23 1.934901 1_555
Li14 O13 2.031848 1_555
Li14 O10 2.123369 1_555
Li15 O16 1.928850 1_555
Li15 O3 1.934903 1_556
Li15 O14 2.031856 1_555
Li15 O11 2.123376 1_555
Li16 O13 1.901040 1_555
Li16 O4 1.956684 1_455
Li16 O26 2.011925 1_555
Li16 O3 2.190787 1_455
Li17 O14 1.901041 1_555
Li17 O24 1.956680 1_555
Li17 O27 2.011930 1_555
Li17 O23 2.190789 1_555
Li18 O19 1.928859 1_555
Li18 O8 1.934903 1_565
Li18 O20 2.031852 1_555
Li18 O25 2.123376 1_565
Li19 O28 1.928859 1_555
Li19 O17 1.934903 1_555
Li19 O27 2.031857 1_555
Li19 O22 2.123376 1_455
Li20 O6 1.928859 1_565
Li20 O18 1.934896 1_555
Li20 O26 2.031856 1_555
Li20 O21 2.123378 1_555
Li21 O30 1.901041 1_555
Li21 O23 1.956680 1_555
Li21 O20 2.011938 1_555
Li21 O24 2.190789 1_555
Li22 O29 1.928850 1_555
Li22 O4 1.934903 1_455
Li22 O30 2.031856 1_555
Li22 O31 2.123369 1_455
Li23 O26 1.901044 1_555
Li23 O8 1.956681 1_565
Li23 O30 2.011921 1_555
Li23 O17 2.190790 1_565
Al0 O5 1.776362 1_555
Al0 O0 1.777336 1_555
Al0 O4 1.780209 1_555
Al0 O2 1.797215 1_555
Al1 O11 1.776342 1_555
Al1 O6 1.777340 1_555
Al1 O8 1.780212 1_555
Al1 O14 1.797222 1_555
Al2 O10 1.776354 1_555
Al2 O28 1.777338 1_554
Al2 O7 1.780207 1_555
Al2 O13 1.797207 1_555
Al3 O15 1.776354 1_565
Al3 O19 1.777338 1_555
Al3 O18 1.780207 1_555
Al3 O12 1.797207 1_555
Al4 O25 1.776342 1_565
Al4 O16 1.777343 1_555
Al4 O24 1.780206 1_555
Al4 O20 1.797209 1_555
Al5 O21 1.776354 1_655
Al5 O9 1.777336 1_555
Al5 O3 1.780209 1_555
Al5 O26 1.797215 1_655
Al6 O22 1.776342 1_455
Al6 O29 1.777343 1_555
Al6 O23 1.780206 1_555
Al6 O27 1.797202 1_555
Al7 O31 1.776345 1_445
Al7 O1 1.777340 1_556
Al7 O17 1.780212 1_555
Al7 O30 1.797222 1_545
Co0 O15 1.982544 1_566
Co0 O24 2.025772 1_555
Co0 O30 2.030339 1_555
Co0 O1 2.084614 1_566
Co1 O25 1.982542 1_555
Co1 O8 2.025764 1_555
Co1 O2 2.030339 1_556
Co1 O0 2.084621 1_556
Co2 O5 1.982549 1_555
Co2 O7 2.025759 1_555
Co2 O20 2.030325 1_555
Co2 O16 2.084623 1_555
Co3 O31 1.982542 1_555
Co3 O4 2.025756 1_555
Co3 O12 2.030345 1_555
Co3 O19 2.084621 1_555
Co4 O10 1.982544 1_555
Co4 O23 2.025772 1_555
Co4 O14 2.030339 1_555
Co4 O6 2.084614 1_555
Co5 O22 1.982542 1_455
Co5 O17 2.025764 1_555
Co5 O26 2.030339 1_545
Co5 O9 2.084621 1_445
Co6 O21 1.982549 1_555
Co6 O18 2.025763 1_555
Co6 O27 2.030335 1_554
Co6 O29 2.084620 1_554
Co7 O11 1.982542 1_554
Co7 O3 2.025764 1_555
Co7 O13 2.030342 1_655
Co7 O28 2.084614 1_654
