# generated using pymatgen
data_LiAlCrO4
_symmetry_space_group_name_H-M   'P 1'
_cell_length_a   2.88177900
_cell_length_b   9.29938300
_cell_length_c   10.21475600
_cell_angle_alpha   90.00000000
_cell_angle_beta   90.00000000
_cell_angle_gamma   90.00000000
_symmetry_Int_Tables_number   1
_chemical_formula_structural   LiAlCrO4
_chemical_formula_sum   'Li4 Al4 Cr4 O16'
_cell_volume   273.74286235
_cell_formula_units_Z   4
loop_
 _symmetry_equiv_pos_site_id
 _symmetry_equiv_pos_as_xyz
  1  'x, y, z'
loop_
 _atom_site_type_symbol
 _atom_site_label
 _atom_site_symmetry_multiplicity
 _atom_site_fract_x
 _atom_site_fract_y
 _atom_site_fract_z
 _atom_site_occupancy
  Li  Li0  1  0.25000000  0.10020100  0.61859400  1
  Li  Li1  1  0.75000000  0.39979900  0.11859400  1
  Li  Li2  1  0.25000000  0.60020100  0.88140600  1
  Li  Li3  1  0.75000000  0.89979900  0.38140600  1
  Al  Al0  1  0.25000000  0.00818600  0.12389900  1
  Al  Al1  1  0.75000000  0.49181400  0.62389900  1
  Al  Al2  1  0.25000000  0.50818600  0.37610100  1
  Al  Al3  1  0.75000000  0.99181400  0.87610100  1
  Cr  Cr0  1  0.75000000  0.23016600  0.34233100  1
  Cr  Cr1  1  0.25000000  0.26983400  0.84233100  1
  Cr  Cr2  1  0.75000000  0.73016600  0.15766900  1
  Cr  Cr3  1  0.25000000  0.76983400  0.65766900  1
  O  O0  1  0.25000000  0.10129400  0.95796100  1
  O  O1  1  0.25000000  0.13764600  0.42943200  1
  O  O2  1  0.75000000  0.10619400  0.19921500  1
  O  O3  1  0.75000000  0.14713700  0.75362400  1
  O  O4  1  0.25000000  0.35286300  0.25362400  1
  O  O5  1  0.25000000  0.39380600  0.69921500  1
  O  O6  1  0.75000000  0.36235400  0.92943200  1
  O  O7  1  0.75000000  0.39870600  0.45796100  1
  O  O8  1  0.25000000  0.60129400  0.54203900  1
  O  O9  1  0.25000000  0.63764600  0.07056800  1
  O  O10  1  0.75000000  0.60619400  0.30078500  1
  O  O11  1  0.75000000  0.64713700  0.74637600  1
  O  O12  1  0.25000000  0.85286300  0.24637600  1
  O  O13  1  0.25000000  0.89380600  0.80078500  1
  O  O14  1  0.75000000  0.86235400  0.57056800  1
  O  O15  1  0.75000000  0.89870600  0.04203900  1
loop_
_geom_bond_atom_site_label_1
_geom_bond_atom_site_label_2
_geom_bond_distance
_geom_bond_site_symmetry_2
Li0 O1 1.963369 1_555
Li0 O3 2.041847 1_555
Li0 O3 2.041847 1_455
Li1 O6 1.963369 1_554
Li1 O4 2.041847 1_555
Li1 O4 2.041847 1_655
Li2 O9 1.963369 1_556
Li2 O11 2.041847 1_455
Li2 O11 2.041847 1_555
Li3 O14 1.963369 1_555
Li3 O12 2.041847 1_555
Li3 O12 2.041847 1_655
Al0 O2 1.870485 1_455
Al0 O2 1.870485 1_555
Al0 O0 1.903358 1_554
Al0 O12 1.910889 1_545
Al0 O15 1.952404 1_445
Al0 O15 1.952404 1_545
Al1 O5 1.870485 1_655
Al1 O5 1.870485 1_555
Al1 O7 1.903358 1_555
Al1 O11 1.910889 1_555
Al1 O8 1.952404 1_555
Al1 O8 1.952404 1_655
Al2 O10 1.870485 1_555
Al2 O10 1.870485 1_455
Al2 O8 1.903358 1_555
Al2 O4 1.910889 1_555
Al2 O7 1.952404 1_455
Al2 O7 1.952404 1_555
Al3 O13 1.870485 1_655
Al3 O13 1.870485 1_555
Al3 O15 1.903358 1_556
Al3 O3 1.910889 1_565
Al3 O0 1.952404 1_665
Al3 O0 1.952404 1_565
Cr0 O2 1.861782 1_555
Cr0 O1 1.899476 1_555
Cr0 O1 1.899476 1_655
Cr0 O7 1.962539 1_555
Cr0 O4 2.049174 1_555
Cr0 O4 2.049174 1_655
Cr1 O5 1.861782 1_555
Cr1 O6 1.899476 1_555
Cr1 O6 1.899476 1_455
Cr1 O0 1.962539 1_555
Cr1 O3 2.049174 1_455
Cr1 O3 2.049174 1_555
Cr2 O10 1.861782 1_555
Cr2 O9 1.899476 1_555
Cr2 O9 1.899476 1_655
Cr2 O15 1.962539 1_555
Cr2 O12 2.049174 1_555
Cr2 O12 2.049174 1_655
Cr3 O13 1.861782 1_555
Cr3 O14 1.899476 1_455
Cr3 O14 1.899476 1_555
Cr3 O8 1.962539 1_555
Cr3 O11 2.049174 1_555
Cr3 O11 2.049174 1_455
