# generated using pymatgen
data_CuPPb2SO9
_symmetry_space_group_name_H-M   'P 1'
_cell_length_a   5.77696600
_cell_length_b   8.34500100
_cell_length_c   8.54332924
_cell_angle_alpha   68.46166722
_cell_angle_beta   90.00000000
_cell_angle_gamma   90.00000000
_symmetry_Int_Tables_number   1
_chemical_formula_structural   CuPPb2SO9
_chemical_formula_sum   'Cu2 P2 Pb4 S2 O18'
_cell_volume   383.10399801
_cell_formula_units_Z   2
loop_
 _symmetry_equiv_pos_site_id
 _symmetry_equiv_pos_as_xyz
  1  'x, y, z'
loop_
 _atom_site_type_symbol
 _atom_site_label
 _atom_site_symmetry_multiplicity
 _atom_site_fract_x
 _atom_site_fract_y
 _atom_site_fract_z
 _atom_site_occupancy
  Cu  Cu0  1  0.50000000  0.00000000  0.00000000  1
  Cu  Cu1  1  0.00000000  0.00000000  0.00000000  1
  P  P0  1  0.25000000  0.02861700  0.66626100  1
  P  P1  1  0.75000000  0.97138300  0.33373900  1
  Pb  Pb0  1  0.75000000  0.71251800  0.75727200  1
  Pb  Pb1  1  0.25000000  0.28748200  0.24272800  1
  Pb  Pb2  1  0.75000000  0.27385900  0.62525600  1
  Pb  Pb3  1  0.25000000  0.72614100  0.37474400  1
  S  S0  1  0.25000000  0.45316900  0.82388700  1
  S  S1  1  0.75000000  0.54683100  0.17611300  1
  O  O0  1  0.47624900  0.99383100  0.78012200  1
  O  O1  1  0.97624900  0.00616900  0.21987800  1
  O  O2  1  0.52375100  0.00616900  0.21987800  1
  O  O3  1  0.02375100  0.99383100  0.78012200  1
  O  O4  1  0.25000000  0.22152600  0.55195500  1
  O  O5  1  0.75000000  0.77847400  0.44804500  1
  O  O6  1  0.25000000  0.90560000  0.57250800  1
  O  O7  1  0.75000000  0.09440000  0.42749200  1
  O  O8  1  0.46094400  0.49608300  0.71043500  1
  O  O9  1  0.96094400  0.50391700  0.28956500  1
  O  O10  1  0.53905600  0.50391700  0.28956500  1
  O  O11  1  0.03905600  0.49608300  0.71043500  1
  O  O12  1  0.25000000  0.55701700  0.93091600  1
  O  O13  1  0.75000000  0.44298300  0.06908400  1
  O  O14  1  0.25000000  0.26628400  0.93019000  1
  O  O15  1  0.75000000  0.73371600  0.06981000  1
  O  O16  1  0.25000000  0.85893900  0.07179700  1
  O  O17  1  0.75000000  0.14106100  0.92820300  1
loop_
_geom_bond_atom_site_label_1
_geom_bond_atom_site_label_2
_geom_bond_distance
_geom_bond_site_symmetry_2
Cu0 O16 1.821429 1_545
Cu0 O17 1.821429 1_554
Cu0 O2 1.902947 1_555
Cu0 O0 1.902947 1_544
Cu0 O14 2.531075 1_554
Cu0 O15 2.531075 1_545
Cu1 O16 1.821429 1_545
Cu1 O17 1.821429 1_454
Cu1 O1 1.902947 1_455
Cu1 O3 1.902947 1_544
Cu1 O14 2.531075 1_554
Cu1 O15 2.531075 1_445
O0 P0 1.591073 1_565
O0 Pb2 2.728031 1_565
O0 Pb0 2.895964 1_555
O1 P1 1.591073 1_545
O1 Pb3 2.728031 1_645
O1 Pb1 2.895964 1_655
O2 P1 1.591073 1_545
O2 Pb3 2.728031 1_545
O2 Pb1 2.895964 1_555
O3 P0 1.591073 1_565
O3 Pb2 2.728031 1_465
O3 Pb0 2.895964 1_455
O4 P0 1.546254 1_555
O4 Pb1 2.492900 1_555
O5 P1 1.546254 1_555
O5 Pb0 2.492900 1_555
O6 P0 1.516290 1_565
O6 Pb3 2.637276 1_555
O7 P1 1.516290 1_545
O7 Pb2 2.637276 1_555
O8 S0 1.515873 1_555
O8 Pb0 2.596421 1_555
O8 Pb2 2.783508 1_555
O9 S1 1.515873 1_555
O9 Pb1 2.596421 1_655
O9 Pb3 2.783508 1_655
O10 S1 1.515873 1_555
O10 Pb1 2.596421 1_555
O10 Pb3 2.783508 1_555
O11 S0 1.515873 1_555
O11 Pb0 2.596421 1_455
O11 Pb2 2.783508 1_455
O12 S0 1.472733 1_555
O12 Pb1 2.784985 1_556
O13 S1 1.472733 1_555
O13 Pb0 2.784985 1_554
O14 S0 1.488976 1_555
O14 Pb1 2.740003 1_556
O15 S1 1.488976 1_555
O15 Pb0 2.740003 1_554
O16 Pb3 2.412630 1_555
O17 Pb2 2.412630 1_555
