# generated using pymatgen
data_LiCo2(PO4)2
_symmetry_space_group_name_H-M   'P 1'
_cell_length_a   6.69133200
_cell_length_b   5.12717900
_cell_length_c   10.50838619
_cell_angle_alpha   89.63077821
_cell_angle_beta   90.00000000
_cell_angle_gamma   90.00000000
_symmetry_Int_Tables_number   1
_chemical_formula_structural   LiCo2(PO4)2
_chemical_formula_sum   'Li2 Co4 P4 O16'
_cell_volume   360.51062252
_cell_formula_units_Z   2
loop_
 _symmetry_equiv_pos_site_id
 _symmetry_equiv_pos_as_xyz
  1  'x, y, z'
loop_
 _atom_site_type_symbol
 _atom_site_label
 _atom_site_symmetry_multiplicity
 _atom_site_fract_x
 _atom_site_fract_y
 _atom_site_fract_z
 _atom_site_occupancy
  Li  Li0  1  0.23126800  0.25361100  0.66073500  1
  Li  Li1  1  0.76873200  0.25361100  0.16073500  1
  Co  Co0  1  0.46709500  0.25588600  0.91044400  1
  Co  Co1  1  0.95468800  0.75191300  0.59129100  1
  Co  Co2  1  0.53290500  0.25588600  0.41044400  1
  Co  Co3  1  0.04531200  0.75191300  0.09129100  1
  P  P0  1  0.23022200  0.75200800  0.82770600  1
  P  P1  1  0.72908200  0.25089600  0.67521300  1
  P  P2  1  0.76977800  0.75200800  0.32770600  1
  P  P3  1  0.27091800  0.25089600  0.17521300  1
  O  O0  1  0.04533700  0.80443800  0.91594000  1
  O  O1  1  0.41505000  0.88624900  0.88025100  1
  O  O2  1  0.70584200  0.33711200  0.81333900  1
  O  O3  1  0.26017100  0.45424500  0.81559500  1
  O  O4  1  0.76055500  0.95015000  0.66753600  1
  O  O5  1  0.18055900  0.86346900  0.69044800  1
  O  O6  1  0.92219300  0.38375300  0.61626400  1
  O  O7  1  0.53867700  0.31460600  0.59523100  1
  O  O8  1  0.95466300  0.80443800  0.41594000  1
  O  O9  1  0.58495000  0.88624900  0.38025100  1
  O  O10  1  0.29415800  0.33711200  0.31333900  1
  O  O11  1  0.73982900  0.45424500  0.31559500  1
  O  O12  1  0.23944500  0.95015000  0.16753600  1
  O  O13  1  0.81944100  0.86346900  0.19044800  1
  O  O14  1  0.07780700  0.38375300  0.11626400  1
  O  O15  1  0.46132300  0.31460600  0.09523100  1
loop_
_geom_bond_atom_site_label_1
_geom_bond_atom_site_label_2
_geom_bond_distance
_geom_bond_site_symmetry_2
Li0 O3 1.940457 1_555
Li0 O5 2.050825 1_545
Li0 O7 2.190888 1_555
Li0 O6 2.221878 1_455
Li1 O11 1.940457 1_555
Li1 O13 2.050825 1_545
Li1 O15 2.190888 1_555
Li1 O14 2.221878 1_655
Co0 O2 1.939415 1_555
Co0 O1 1.954855 1_545
Co0 O15 1.967309 1_556
Co0 O3 1.982879 1_555
Co1 O4 1.836551 1_555
Co1 O8 1.860514 1_555
Co1 O6 1.916476 1_555
Co1 O5 1.924789 1_655
Co2 O10 1.939415 1_555
Co2 O9 1.954855 1_545
Co2 O7 1.967309 1_555
Co2 O11 1.982879 1_555
Co3 O12 1.836551 1_555
Co3 O0 1.860514 1_554
Co3 O14 1.916476 1_555
Co3 O13 1.924789 1_455
O0 P0 1.570240 1_555
O1 P0 1.520871 1_555
O2 P1 1.527957 1_555
O3 P0 1.545841 1_555
O4 P1 1.558897 1_565
O5 P0 1.583288 1_555
O6 P1 1.584930 1_555
O7 P1 1.559747 1_555
O8 P2 1.570240 1_555
O9 P2 1.520871 1_555
O10 P3 1.527957 1_555
O11 P2 1.545841 1_555
O12 P3 1.558897 1_565
O13 P2 1.583288 1_555
O14 P3 1.584930 1_555
O15 P3 1.559747 1_555
