# generated using pymatgen
data_V3Cu2Sb(PO4)6
_symmetry_space_group_name_H-M   'P 1'
_cell_length_a   8.69027333
_cell_length_b   8.69027333
_cell_length_c   8.69027276
_cell_angle_alpha   59.55811778
_cell_angle_beta   59.55811778
_cell_angle_gamma   59.55811693
_symmetry_Int_Tables_number   1
_chemical_formula_structural   V3Cu2Sb(PO4)6
_chemical_formula_sum   'V3 Cu2 Sb1 P6 O24'
_cell_volume   459.40982419
_cell_formula_units_Z   1
loop_
 _symmetry_equiv_pos_site_id
 _symmetry_equiv_pos_as_xyz
  1  'x, y, z'
loop_
 _atom_site_type_symbol
 _atom_site_label
 _atom_site_symmetry_multiplicity
 _atom_site_fract_x
 _atom_site_fract_y
 _atom_site_fract_z
 _atom_site_occupancy
  V  V0  1  0.35763300  0.35763300  0.35763300  1
  V  V1  1  0.14245600  0.14245600  0.14245600  1
  V  V2  1  0.64149700  0.64149700  0.64149700  1
  Cu  Cu0  1  0.00405500  0.00405500  0.00405500  1
  Cu  Cu1  1  0.49967000  0.49967000  0.49967000  1
  Sb  Sb0  1  0.85719300  0.85719300  0.85719300  1
  P  P0  1  0.04123800  0.45573000  0.74787100  1
  P  P1  1  0.45573000  0.74787100  0.04123800  1
  P  P2  1  0.74787100  0.04123800  0.45573000  1
  P  P3  1  0.25317300  0.95990400  0.53627600  1
  P  P4  1  0.53627600  0.25317300  0.95990400  1
  P  P5  1  0.95990400  0.53627600  0.25317300  1
  O  O0  1  0.49620900  0.69846600  0.87704800  1
  O  O1  1  0.69846600  0.87704800  0.49620900  1
  O  O2  1  0.87704800  0.49620900  0.69846600  1
  O  O3  1  0.05811100  0.26844400  0.91748300  1
  O  O4  1  0.01240200  0.61953700  0.80028300  1
  O  O5  1  0.23181500  0.44192200  0.58228200  1
  O  O6  1  0.26844400  0.91748300  0.05811100  1
  O  O7  1  0.44192200  0.58228200  0.23181500  1
  O  O8  1  0.19604100  0.99315100  0.37981100  1
  O  O9  1  0.58228200  0.23181500  0.44192200  1
  O  O10  1  0.08179000  0.94273800  0.73376000  1
  O  O11  1  0.37981100  0.19604100  0.99315100  1
  O  O12  1  0.61953700  0.80028300  0.01240200  1
  O  O13  1  0.91748300  0.05811100  0.26844400  1
  O  O14  1  0.41572100  0.76672900  0.56058700  1
  O  O15  1  0.80028300  0.01240200  0.61953700  1
  O  O16  1  0.56058700  0.41572100  0.76672900  1
  O  O17  1  0.73376000  0.08179000  0.94273800  1
  O  O18  1  0.76672900  0.56058700  0.41572100  1
  O  O19  1  0.99315100  0.37981100  0.19604100  1
  O  O20  1  0.94273800  0.73376000  0.08179000  1
  O  O21  1  0.12087800  0.50782100  0.30026100  1
  O  O22  1  0.30026100  0.12087800  0.50782100  1
  O  O23  1  0.50782100  0.30026100  0.12087800  1
loop_
_geom_bond_atom_site_label_1
_geom_bond_atom_site_label_2
_geom_bond_distance
_geom_bond_site_symmetry_2
Cu0 O13 2.247150 1_455
Cu0 O6 2.247150 1_545
Cu0 O3 2.247150 1_554
Cu0 O10 2.356571 1_544
Cu0 O17 2.356571 1_454
Cu0 O20 2.356571 1_445
Cu1 O7 2.304527 1_555
Cu1 O9 2.304527 1_555
Cu1 O5 2.304527 1_555
Cu1 O16 2.310107 1_555
Cu1 O14 2.310107 1_555
Cu1 O18 2.310107 1_555
O0 P1 1.517600 1_556
O0 V2 1.950385 1_555
O1 P2 1.517600 1_565
O1 V2 1.950385 1_555
O2 P0 1.517600 1_655
O2 V2 1.950385 1_555
O3 P0 1.545732 1_555
O3 V1 2.007028 1_556
O4 P0 1.573711 1_555
O4 Sb0 1.966107 1_455
O5 P0 1.544872 1_555
O5 V0 2.004456 1_555
O6 P1 1.545732 1_555
O6 V1 2.007028 1_565
O7 P1 1.544872 1_555
O7 V0 2.004456 1_555
O8 P3 1.522979 1_555
O8 V1 1.950403 1_565
O9 P2 1.544872 1_555
O9 V0 2.004456 1_555
O10 P3 1.600432 1_555
O10 Sb0 2.013345 1_455
O11 P4 1.522979 1_555
O11 V1 1.950403 1_556
O12 P1 1.573711 1_555
O12 Sb0 1.966107 1_554
O13 P2 1.545732 1_555
O13 V1 2.007028 1_655
O14 P3 1.548631 1_555
O14 V2 1.996807 1_555
O15 P2 1.573711 1_555
O15 Sb0 1.966107 1_545
O16 P4 1.548631 1_555
O16 V2 1.996807 1_555
O17 P4 1.600432 1_555
O17 Sb0 2.013345 1_545
O18 P5 1.548631 1_555
O18 V2 1.996806 1_555
O19 P5 1.522979 1_555
O19 V1 1.950403 1_655
O20 P5 1.600432 1_555
O20 Sb0 2.013345 1_554
O21 P5 1.520705 1_455
O21 V0 1.960652 1_555
O22 P3 1.520705 1_545
O22 V0 1.960653 1_555
O23 P4 1.520705 1_554
O23 V0 1.960652 1_555
