# generated using pymatgen
data_Li2Mn3(BO3)3
_symmetry_space_group_name_H-M   'P 1'
_cell_length_a   14.68785556
_cell_length_b   14.68785556
_cell_length_c   8.30196327
_cell_angle_alpha   89.61336272
_cell_angle_beta   89.61336272
_cell_angle_gamma   24.94420207
_symmetry_Int_Tables_number   1
_chemical_formula_structural   Li2Mn3(BO3)3
_chemical_formula_sum   'Li8 Mn12 B12 O36'
_cell_volume   755.31363815
_cell_formula_units_Z   4
loop_
 _symmetry_equiv_pos_site_id
 _symmetry_equiv_pos_as_xyz
  1  'x, y, z'
loop_
 _atom_site_type_symbol
 _atom_site_label
 _atom_site_symmetry_multiplicity
 _atom_site_fract_x
 _atom_site_fract_y
 _atom_site_fract_z
 _atom_site_occupancy
  Li  Li0  1  0.74294900  0.74294900  0.28664100  1
  Li  Li1  1  0.92807300  0.92807300  0.33656000  1
  Li  Li2  1  0.07286500  0.07286500  0.36814600  1
  Li  Li3  1  0.57313800  0.57313800  0.36920400  1
  Li  Li4  1  0.49309400  0.49309400  0.78798500  1
  Li  Li5  1  0.17828600  0.17828600  0.83886900  1
  Li  Li6  1  0.82323400  0.82323400  0.87059000  1
  Li  Li7  1  0.32233800  0.32233800  0.86910400  1
  Mn  Mn0  1  0.75294400  0.24409100  0.13015600  1
  Mn  Mn1  1  0.24409100  0.75294400  0.13015600  1
  Mn  Mn2  1  0.90769900  0.40620800  0.16977100  1
  Mn  Mn3  1  0.40620800  0.90769900  0.16977100  1
  Mn  Mn4  1  0.58763600  0.08855200  0.19826500  1
  Mn  Mn5  1  0.08855200  0.58763600  0.19826500  1
  Mn  Mn6  1  0.49714600  0.00079800  0.62751400  1
  Mn  Mn7  1  0.00079800  0.49714600  0.62751400  1
  Mn  Mn8  1  0.65667400  0.15646000  0.66790400  1
  Mn  Mn9  1  0.15646000  0.65667400  0.66790400  1
  Mn  Mn10  1  0.83971100  0.33534000  0.69791500  1
  Mn  Mn11  1  0.33534000  0.83971100  0.69791500  1
  B  B0  1  0.00086800  0.49790500  0.99778000  1
  B  B1  1  0.49790500  0.00086800  0.99778000  1
  B  B2  1  0.41301200  0.41301200  0.99499400  1
  B  B3  1  0.91337000  0.91337000  0.00262400  1
  B  B4  1  0.57921300  0.57921300  0.00566600  1
  B  B5  1  0.08235300  0.08235300  0.00002000  1
  B  B6  1  0.75165100  0.24613800  0.49710500  1
  B  B7  1  0.24613800  0.75165100  0.49710500  1
  B  B8  1  0.83068900  0.83068900  0.50037800  1
  B  B9  1  0.33197400  0.33197400  0.50509400  1
  B  B10  1  0.16335100  0.16335100  0.50178400  1
  B  B11  1  0.66277600  0.66277600  0.49853000  1
  O  O0  1  0.96066900  0.96066900  0.03371800  1
  O  O1  1  0.46118500  0.46118500  0.01328600  1
  O  O2  1  0.13091800  0.13091800  0.01827500  1
  O  O3  1  0.62634700  0.62634700  0.02678600  1
  O  O4  1  0.54892000  0.54892000  0.13960400  1
  O  O5  1  0.05315700  0.05315700  0.13415800  1
  O  O6  1  0.38268300  0.38268300  0.12471200  1
  O  O7  1  0.88332500  0.88332500  0.13587500  1
  O  O8  1  0.96203900  0.49218900  0.14445200  1
  O  O9  1  0.49218900  0.96203900  0.14445200  1
  O  O10  1  0.31395500  0.31395500  0.34981600  1
  O  O11  1  0.81094200  0.81094200  0.34655400  1
  O  O12  1  0.14413900  0.14413900  0.34887300  1
  O  O13  1  0.64415500  0.64415500  0.34405900  1
  O  O14  1  0.74532000  0.20123500  0.35763500  1
  O  O15  1  0.20123500  0.74532000  0.35763500  1
  O  O16  1  0.79882600  0.29650300  0.48806800  1
  O  O17  1  0.29650300  0.79882600  0.48806800  1
  O  O18  1  0.71104600  0.71104600  0.51484700  1
  O  O19  1  0.21056500  0.21056500  0.52912500  1
  O  O20  1  0.37952500  0.37952500  0.52680100  1
  O  O21  1  0.87894400  0.87894400  0.51609800  1
  O  O22  1  0.30142900  0.30142900  0.63705700  1
  O  O23  1  0.80158000  0.80158000  0.63549300  1
  O  O24  1  0.13420200  0.13420200  0.63774700  1
  O  O25  1  0.63255500  0.63255500  0.62888900  1
  O  O26  1  0.71201500  0.24129500  0.64423500  1
  O  O27  1  0.24129500  0.71201500  0.64423500  1
  O  O28  1  0.56002300  0.56002300  0.85035300  1
  O  O29  1  0.06371900  0.06371900  0.84616100  1
  O  O30  1  0.39440400  0.39440400  0.84120600  1
  O  O31  1  0.89540800  0.89540800  0.84786200  1
  O  O32  1  0.99208700  0.45528600  0.85794200  1
  O  O33  1  0.45528600  0.99208700  0.85794200  1
  O  O34  1  0.55393500  0.04132200  0.98967400  1
  O  O35  1  0.04132200  0.55393500  0.98967400  1
loop_
_geom_bond_atom_site_label_1
_geom_bond_atom_site_label_2
_geom_bond_distance
_geom_bond_site_symmetry_2
Li0 O8 1.956632 1_555
Li0 O9 1.956632 1_555
Li0 O11 2.015967 1_555
Li0 O18 2.098265 1_555
Li1 O15 1.950978 1_655
Li1 O14 1.950978 1_565
Li1 O21 2.044087 1_555
Li1 O7 2.110144 1_555
Li2 O17 1.998966 1_545
Li2 O16 1.998966 1_455
Li2 O5 2.026882 1_555
Li2 O12 2.049464 1_555
Li3 O16 2.009120 1_555
Li3 O17 2.009120 1_555
Li3 O4 2.033261 1_555
Li3 O13 2.046177 1_555
Li4 O27 1.970739 1_555
Li4 O26 1.970739 1_555
Li4 O28 1.991743 1_555
Li4 O1 2.076663 1_556
Li5 O33 1.970396 1_545
Li5 O32 1.970396 1_455
Li5 O2 2.009051 1_556
Li5 O24 2.101407 1_555
Li6 O35 1.974059 1_655
Li6 O34 1.974059 1_565
Li6 O23 2.052292 1_555
Li6 O31 2.077412 1_555
Li7 O22 2.021591 1_555
Li7 O35 2.034310 1_555
Li7 O34 2.034310 1_555
Li7 O30 2.078376 1_555
Mn0 O14 2.020942 1_555
Mn0 O0 2.063663 1_545
Mn0 O4 2.168645 1_555
Mn0 O1 2.169719 1_555
Mn0 O5 2.210230 1_655
Mn1 O15 2.020942 1_555
Mn1 O0 2.063663 1_455
Mn1 O4 2.168645 1_555
Mn1 O1 2.169719 1_555
Mn1 O5 2.210230 1_565
Mn2 O8 2.024370 1_555
Mn2 O2 2.157076 1_655
Mn2 O3 2.173629 1_555
Mn2 O13 2.179801 1_555
Mn2 O12 2.199751 1_655
Mn3 O9 2.024370 1_555
Mn3 O2 2.157076 1_565
Mn3 O3 2.173629 1_555
Mn3 O13 2.179801 1_555
Mn3 O12 2.199751 1_565
Mn4 O34 2.091786 1_554
Mn4 O7 2.113476 1_545
Mn4 O6 2.122261 1_555
Mn4 O10 2.134618 1_555
Mn4 O11 2.152566 1_545
Mn5 O35 2.091786 1_554
Mn5 O7 2.113476 1_455
Mn5 O6 2.122261 1_555
Mn5 O10 2.134618 1_555
Mn5 O11 2.152566 1_455
Mn6 O33 2.043882 1_545
Mn6 O19 2.090943 1_555
Mn6 O18 2.150500 1_545
Mn6 O22 2.179587 1_555
Mn6 O23 2.198861 1_545
Mn7 O32 2.043882 1_455
Mn7 O19 2.090943 1_555
Mn7 O18 2.150500 1_455
Mn7 O22 2.179587 1_555
Mn7 O23 2.198861 1_455
Mn8 O26 2.020693 1_555
Mn8 O20 2.122274 1_555
Mn8 O30 2.168500 1_555
Mn8 O21 2.177885 1_545
Mn8 O31 2.200275 1_545
Mn9 O27 2.020693 1_555
Mn9 O20 2.122274 1_555
Mn9 O30 2.168500 1_555
Mn9 O21 2.177885 1_455
Mn9 O31 2.200275 1_455
Mn10 O16 2.090406 1_555
Mn10 O29 2.107376 1_655
Mn10 O24 2.122342 1_655
Mn10 O25 2.132118 1_555
Mn10 O28 2.183964 1_555
Mn11 O17 2.090406 1_555
Mn11 O29 2.107376 1_565
Mn11 O24 2.122342 1_565
Mn11 O25 2.132118 1_555
Mn11 O28 2.183964 1_555
B0 O8 1.375171 1_456
B0 O32 1.383648 1_455
B0 O35 1.385752 1_555
B1 O9 1.375171 1_546
B1 O33 1.383648 1_545
B1 O34 1.385752 1_555
B2 O6 1.379688 1_556
B2 O30 1.387210 1_555
B2 O1 1.391084 1_556
B3 O0 1.382745 1_555
B3 O31 1.387573 1_554
B3 O7 1.397584 1_555
B4 O3 1.364444 1_555
B4 O28 1.405464 1_554
B4 O4 1.406423 1_555
B5 O29 1.388046 1_554
B5 O5 1.388703 1_555
B5 O2 1.402226 1_555
B6 O26 1.378510 1_555
B6 O14 1.381041 1_555
B6 O16 1.400374 1_555
B7 O27 1.378510 1_555
B7 O15 1.381041 1_555
B7 O17 1.400374 1_555
B8 O21 1.391110 1_555
B8 O23 1.393700 1_555
B8 O11 1.400583 1_555
B9 O20 1.376969 1_555
B9 O10 1.392168 1_555
B9 O22 1.398045 1_555
B10 O19 1.374652 1_555
B10 O12 1.387392 1_555
B10 O24 1.400022 1_555
B11 O25 1.381895 1_555
B11 O18 1.392046 1_555
B11 O13 1.392591 1_555
