# generated using pymatgen
data_Li2V12O29
_symmetry_space_group_name_H-M   'P 1'
_cell_length_a   14.28099939
_cell_length_b   14.28099939
_cell_length_c   10.37556619
_cell_angle_alpha   78.32427984
_cell_angle_beta   78.32427984
_cell_angle_gamma   14.79309935
_symmetry_Int_Tables_number   1
_chemical_formula_structural   Li2V12O29
_chemical_formula_sum   'Li2 V12 O29'
_cell_volume   528.92360616
_cell_formula_units_Z   1
loop_
 _symmetry_equiv_pos_site_id
 _symmetry_equiv_pos_as_xyz
  1  'x, y, z'
loop_
 _atom_site_type_symbol
 _atom_site_label
 _atom_site_symmetry_multiplicity
 _atom_site_fract_x
 _atom_site_fract_y
 _atom_site_fract_z
 _atom_site_occupancy
  Li  Li0  1  0.75068700  0.75068700  0.59832400  1
  Li  Li1  1  0.24931300  0.24931300  0.40167600  1
  V  V0  1  0.93774300  0.93774300  0.09043100  1
  V  V1  1  0.85160600  0.85160600  0.35692400  1
  V  V2  1  0.82337200  0.82337200  0.03281800  1
  V  V3  1  0.69620000  0.69620000  0.20165700  1
  V  V4  1  0.60750900  0.60750900  0.45860000  1
  V  V5  1  0.58525800  0.58525800  0.13833700  1
  V  V6  1  0.41474200  0.41474200  0.86166300  1
  V  V7  1  0.39249100  0.39249100  0.54140000  1
  V  V8  1  0.30380000  0.30380000  0.79834300  1
  V  V9  1  0.17662800  0.17662800  0.96718200  1
  V  V10  1  0.14839400  0.14839400  0.64307600  1
  V  V11  1  0.06225700  0.06225700  0.90956900  1
  O  O0  1  0.94072500  0.94072500  0.24527200  1
  O  O1  1  0.90120700  0.90120700  0.91091300  1
  O  O2  1  0.87611100  0.87611100  0.52449600  1
  O  O3  1  0.85920200  0.85920200  0.16151300  1
  O  O4  1  0.80635100  0.80635100  0.85636500  1
  O  O5  1  0.79090800  0.79090800  0.40899500  1
  O  O6  1  0.76712100  0.76712100  0.12592000  1
  O  O7  1  0.70363600  0.70363600  0.35749000  1
  O  O8  1  0.62971100  0.62971100  0.62695300  1
  O  O9  1  0.66759800  0.66759800  0.01444800  1
  O  O10  1  0.62187600  0.62187600  0.27059700  1
  O  O11  1  0.57155700  0.57155700  0.95344500  1
  O  O12  1  0.55016000  0.55016000  0.48996900  1
  O  O13  1  0.53146100  0.53146100  0.22281700  1
  O  O14  1  0.46853900  0.46853900  0.77718300  1
  O  O15  1  0.00000000  0.00000000  0.00000000  1
  O  O16  1  0.44984000  0.44984000  0.51003100  1
  O  O17  1  0.42844300  0.42844300  0.04655500  1
  O  O18  1  0.37812400  0.37812400  0.72940300  1
  O  O19  1  0.33240200  0.33240200  0.98555200  1
  O  O20  1  0.37028900  0.37028900  0.37304700  1
  O  O21  1  0.29636400  0.29636400  0.64251000  1
  O  O22  1  0.23287900  0.23287900  0.87408000  1
  O  O23  1  0.20909200  0.20909200  0.59100500  1
  O  O24  1  0.19364900  0.19364900  0.14363500  1
  O  O25  1  0.14079800  0.14079800  0.83848700  1
  O  O26  1  0.12388900  0.12388900  0.47550400  1
  O  O27  1  0.09879300  0.09879300  0.08908700  1
  O  O28  1  0.05927500  0.05927500  0.75472800  1
loop_
_geom_bond_atom_site_label_1
_geom_bond_atom_site_label_2
_geom_bond_distance
_geom_bond_site_symmetry_2
Li0 O5 2.059932 1_555
Li0 O23 2.193244 1_655
Li0 O23 2.193244 1_565
Li0 O21 2.346509 1_655
Li0 O21 2.346509 1_565
Li1 O23 2.059932 1_555
Li1 O5 2.193244 1_455
Li1 O5 2.193244 1_545
Li1 O7 2.346509 1_455
Li1 O7 2.346509 1_545
O0 V0 1.625903 1_555
O1 V6 1.925651 1_565
O1 V6 1.925651 1_655
O1 V2 2.306963 1_556
O1 V0 2.308011 1_556
O2 V7 1.912909 1_565
O2 V7 1.912909 1_655
O2 V1 1.999303 1_555
O3 V2 1.834668 1_555
O3 V1 1.994745 1_555
O3 V0 2.196187 1_555
O4 V8 1.940461 1_655
O4 V8 1.940461 1_565
O4 V2 1.986076 1_556
O5 V1 1.693677 1_555
O6 V2 1.686263 1_555
O6 V3 2.002118 1_555
O7 V3 1.672594 1_555
O8 V10 1.929805 1_565
O8 V10 1.929805 1_655
O8 V4 1.973563 1_555
O9 V9 1.906495 1_654
O9 V9 1.906495 1_564
O9 V3 2.251995 1_555
O9 V5 2.422399 1_555
O10 V5 1.881430 1_555
O10 V4 1.909609 1_555
O10 V3 2.080584 1_555
O11 V11 1.924986 1_655
O11 V11 1.924986 1_565
O11 V5 2.033358 1_556
O12 V4 1.590201 1_555
O13 V5 1.595317 1_555
O14 V6 1.595317 1_555
O15 V11 1.820607 1_554
O15 V0 1.820607 1_445
O16 V7 1.590201 1_555
O17 V0 1.924986 1_545
O17 V0 1.924986 1_455
O17 V6 2.033358 1_554
O18 V6 1.881430 1_555
O18 V7 1.909609 1_555
O18 V8 2.080584 1_555
O19 V2 1.906495 1_456
O19 V2 1.906495 1_546
O19 V8 2.251995 1_555
O19 V6 2.422399 1_555
O20 V1 1.929805 1_545
O20 V1 1.929805 1_455
O20 V7 1.973563 1_555
O21 V8 1.672594 1_555
O22 V9 1.686263 1_555
O22 V8 2.002118 1_555
O23 V10 1.693677 1_555
O24 V3 1.940461 1_545
O24 V3 1.940461 1_455
O24 V9 1.986076 1_554
O25 V9 1.834668 1_555
O25 V10 1.994745 1_555
O25 V11 2.196187 1_555
O26 V4 1.912909 1_545
O26 V4 1.912909 1_455
O26 V10 1.999303 1_555
O27 V5 1.925651 1_455
O27 V5 1.925651 1_545
O27 V9 2.306963 1_554
O27 V11 2.308011 1_554
O28 V11 1.625903 1_555
