# generated using pymatgen
data_Ca5Ta4O15
_symmetry_space_group_name_H-M   'P 1'
_cell_length_a   5.63272393
_cell_length_b   5.63272393
_cell_length_c   11.50209300
_cell_angle_alpha   90.00000000
_cell_angle_beta   90.00000000
_cell_angle_gamma   119.99999922
_symmetry_Int_Tables_number   1
_chemical_formula_structural   Ca5Ta4O15
_chemical_formula_sum   'Ca5 Ta4 O15'
_cell_volume   316.04173902
_cell_formula_units_Z   1
loop_
 _symmetry_equiv_pos_site_id
 _symmetry_equiv_pos_as_xyz
  1  'x, y, z'
loop_
 _atom_site_type_symbol
 _atom_site_label
 _atom_site_symmetry_multiplicity
 _atom_site_fract_x
 _atom_site_fract_y
 _atom_site_fract_z
 _atom_site_occupancy
  Ca  Ca0  1  0.33333300  0.66666700  0.95965900  1
  Ca  Ca1  1  0.33333300  0.66666700  0.26127000  1
  Ca  Ca2  1  0.00000000  0.00000000  0.50000000  1
  Ca  Ca3  1  0.66666700  0.33333300  0.73873000  1
  Ca  Ca4  1  0.66666700  0.33333300  0.04034100  1
  Ta  Ta0  1  0.33333300  0.66666700  0.60363000  1
  Ta  Ta1  1  0.00000000  0.00000000  0.81509400  1
  Ta  Ta2  1  0.00000000  0.00000000  0.18490600  1
  Ta  Ta3  1  0.66666700  0.33333300  0.39637000  1
  O  O0  1  0.17180900  0.82819100  0.10778000  1
  O  O1  1  0.00000000  0.50000000  0.50000000  1
  O  O2  1  0.16230300  0.83769700  0.69259300  1
  O  O3  1  0.16230300  0.32460600  0.69259300  1
  O  O4  1  0.17180900  0.34361700  0.10778000  1
  O  O5  1  0.34361700  0.17180900  0.89222000  1
  O  O6  1  0.67539400  0.83769700  0.69259300  1
  O  O7  1  0.50000000  0.50000000  0.50000000  1
  O  O8  1  0.32460600  0.16230300  0.30740700  1
  O  O9  1  0.65638300  0.82819100  0.10778000  1
  O  O10  1  0.50000000  0.00000000  0.50000000  1
  O  O11  1  0.83769700  0.67539400  0.30740700  1
  O  O12  1  0.82819100  0.65638300  0.89222000  1
  O  O13  1  0.83769700  0.16230300  0.30740700  1
  O  O14  1  0.82819100  0.17180900  0.89222000  1
loop_
_geom_bond_atom_site_label_1
_geom_bond_atom_site_label_2
_geom_bond_distance
_geom_bond_site_symmetry_2
Ca0 O0 2.320758 1_556
Ca0 O9 2.320764 1_556
Ca0 O4 2.320764 1_556
Ca0 O5 2.921661 1_555
Ca0 O12 2.921661 1_555
Ca0 O12 2.921661 1_455
Ca0 O5 2.921661 1_565
Ca0 O14 2.921662 1_455
Ca0 O14 2.921662 1_565
Ca1 O0 2.366464 1_555
Ca1 O4 2.366471 1_555
Ca1 O9 2.366471 1_555
Ca1 O11 2.866235 1_455
Ca1 O8 2.866235 1_565
Ca1 O13 2.866238 1_455
Ca1 O13 2.866238 1_565
Ca1 O11 2.866241 1_555
Ca1 O8 2.866241 1_555
Ca2 O13 2.722965 1_455
Ca2 O2 2.722965 1_545
Ca2 O3 2.722965 1_555
Ca2 O6 2.722965 1_445
Ca2 O8 2.722965 1_555
Ca2 O11 2.722965 1_445
Ca2 O10 2.816362 1_455
Ca2 O10 2.816362 1_555
Ca2 O1 2.816362 1_555
Ca2 O1 2.816362 1_545
Ca2 O7 2.816362 1_445
Ca2 O7 2.816362 1_555
Ca3 O14 2.366464 1_555
Ca3 O5 2.366471 1_555
Ca3 O12 2.366471 1_555
Ca3 O6 2.866235 1_545
Ca3 O3 2.866235 1_655
Ca3 O2 2.866238 1_655
Ca3 O2 2.866238 1_545
Ca3 O6 2.866241 1_555
Ca3 O3 2.866241 1_555
Ca4 O14 2.320758 1_554
Ca4 O5 2.320764 1_554
Ca4 O12 2.320764 1_554
Ca4 O4 2.921661 1_555
Ca4 O9 2.921661 1_555
Ca4 O9 2.921661 1_545
Ca4 O4 2.921661 1_655
Ca4 O0 2.921662 1_545
Ca4 O0 2.921662 1_655
O0 Ta2 1.896471 1_565
O1 Ta3 2.016118 1_455
O1 Ta0 2.016118 1_555
O2 Ta0 1.957365 1_555
O2 Ta1 2.119590 1_565
O3 Ta0 1.957369 1_555
O3 Ta1 2.119590 1_555
O4 Ta2 1.896466 1_555
O5 Ta1 1.896466 1_555
O6 Ta0 1.957369 1_555
O6 Ta1 2.119590 1_665
O7 Ta0 2.016122 1_555
O7 Ta3 2.016122 1_555
O8 Ta3 1.957369 1_555
O8 Ta2 2.119590 1_555
O9 Ta2 1.896466 1_665
O10 Ta0 2.016118 1_545
O10 Ta3 2.016118 1_555
O11 Ta3 1.957369 1_555
O11 Ta2 2.119590 1_665
O12 Ta1 1.896466 1_665
O13 Ta3 1.957365 1_555
O13 Ta2 2.119590 1_655
O14 Ta1 1.896471 1_655
