# generated using pymatgen
data_Li24Mn5Cr7O36
_symmetry_space_group_name_H-M   'P 1'
_cell_length_a   5.03676600
_cell_length_b   9.75458225
_cell_length_c   13.25991653
_cell_angle_alpha   96.85031480
_cell_angle_beta   100.51657737
_cell_angle_gamma   95.10874702
_symmetry_Int_Tables_number   1
_chemical_formula_structural   Li24Mn5Cr7O36
_chemical_formula_sum   'Li24 Mn5 Cr7 O36'
_cell_volume   631.85298137
_cell_formula_units_Z   1
loop_
 _symmetry_equiv_pos_site_id
 _symmetry_equiv_pos_as_xyz
  1  'x, y, z'
loop_
 _atom_site_type_symbol
 _atom_site_label
 _atom_site_symmetry_multiplicity
 _atom_site_fract_x
 _atom_site_fract_y
 _atom_site_fract_z
 _atom_site_occupancy
  Li  Li0  1  0.16668000  0.99958500  0.83322200  1
  Li  Li1  1  0.04761700  0.00119200  0.61398300  1
  Li  Li2  1  0.00209100  0.75032200  0.25126800  1
  Li  Li3  1  0.33292400  0.75013600  0.91510300  1
  Li  Li4  1  0.04707500  0.49867000  0.11304900  1
  Li  Li5  1  0.38005300  0.49932800  0.78045200  1
  Li  Li6  1  0.16538900  0.50079300  0.33255700  1
  Li  Li7  1  0.49586100  0.49957600  0.99858900  1
  Li  Li8  1  0.27967800  0.50035400  0.55366000  1
  Li  Li9  1  0.33362000  0.25050500  0.41605500  1
  Li  Li10  1  0.49953400  0.99993400  0.49981700  1
  Li  Li11  1  0.28135500  0.00077700  0.05235800  1
  Li  Li12  1  0.61941100  0.00020600  0.72151200  1
  Li  Li13  1  0.38336700  0.99956700  0.28062200  1
  Li  Li14  1  0.71929500  0.99912400  0.94595200  1
  Li  Li15  1  0.67001100  0.74968300  0.58378900  1
  Li  Li16  1  0.71952600  0.49919600  0.44570800  1
  Li  Li17  1  0.83593800  0.49949800  0.66731800  1
  Li  Li18  1  0.62046500  0.50084700  0.22183900  1
  Li  Li19  1  0.95200200  0.50112000  0.88718200  1
  Li  Li20  1  0.67068400  0.24960200  0.08375000  1
  Li  Li21  1  0.83225400  0.00134900  0.16662900  1
  Li  Li22  1  0.00073700  0.24991600  0.74988300  1
  Li  Li23  1  0.94996700  0.00014200  0.38646300  1
  Mn  Mn0  1  0.11082000  0.24961300  0.97216600  1
  Mn  Mn1  1  0.11003800  0.74988400  0.47176000  1
  Mn  Mn2  1  0.77885200  0.75113900  0.80693700  1
  Mn  Mn3  1  0.78017200  0.25179200  0.30673400  1
  Mn  Mn4  1  0.88705700  0.24910200  0.52751000  1
  Cr  Cr0  1  0.22851000  0.74982100  0.69320800  1
  Cr  Cr1  1  0.22987100  0.24958000  0.19412000  1
  Cr  Cr2  1  0.43689400  0.24807700  0.63677200  1
  Cr  Cr3  1  0.56240700  0.25166100  0.86186700  1
  Cr  Cr4  1  0.43882800  0.74787500  0.13582900  1
  Cr  Cr5  1  0.56133300  0.75108600  0.36144600  1
  Cr  Cr6  1  0.88918000  0.74977700  0.03095200  1
  O  O0  1  0.00050400  0.86077800  0.92842000  1
  O  O1  1  0.06732000  0.63614300  0.78476200  1
  O  O2  1  0.00321600  0.36145200  0.42864500  1
  O  O3  1  0.13857500  0.36183300  0.64184000  1
  O  O4  1  0.26061300  0.36480600  0.88189200  1
  O  O5  1  0.33045400  0.86175200  0.59548900  1
  O  O6  1  0.06729600  0.13660300  0.28400900  1
  O  O7  1  0.18784800  0.13839100  0.52328200  1
  O  O8  1  0.40055200  0.13689400  0.95054100  1
  O  O9  1  0.13535800  0.86250700  0.14048200  1
  O  O10  1  0.26047200  0.86545400  0.38143800  1
  O  O11  1  0.48361200  0.86305600  0.81152300  1
  O  O12  1  0.33709400  0.13682000  0.73607900  1
  O  O13  1  0.19669100  0.63694300  0.02543000  1
  O  O14  1  0.40082800  0.63700100  0.45061400  1
  O  O15  1  0.51873700  0.63858500  0.69151300  1
  O  O16  1  0.33454700  0.63729900  0.23709900  1
  O  O17  1  0.66638200  0.63830000  0.90482000  1
  O  O18  1  0.32920100  0.36156000  0.09610100  1
  O  O19  1  0.66012600  0.36228500  0.76297600  1
  O  O20  1  0.48327200  0.36263400  0.31142600  1
  O  O21  1  0.59916200  0.36321900  0.54993100  1
  O  O22  1  0.81290400  0.36195100  0.97721700  1
  O  O23  1  0.66219300  0.86190200  0.26276500  1
  O  O24  1  0.52243000  0.13877400  0.19184100  1
  O  O25  1  0.73971000  0.13444300  0.61754400  1
  O  O26  1  0.85868100  0.13892400  0.85755600  1
  O  O27  1  0.59271300  0.86531200  0.05143900  1
  O  O28  1  0.81227000  0.86168400  0.47682100  1
  O  O29  1  0.93203200  0.86346600  0.71526800  1
  O  O30  1  0.66486200  0.13822400  0.40472600  1
  O  O31  1  0.73916900  0.63378500  0.11584800  1
  O  O32  1  0.85895600  0.63865800  0.35694300  1
  O  O33  1  0.99585000  0.63688200  0.56881800  1
  O  O34  1  0.92999600  0.36423100  0.21533200  1
  O  O35  1  0.99688000  0.13661700  0.06950600  1
loop_
_geom_bond_atom_site_label_1
_geom_bond_atom_site_label_2
_geom_bond_distance
_geom_bond_site_symmetry_2
Li0 O8 2.038286 1_565
Li0 O29 2.038735 1_455
Li0 O0 2.172304 1_555
Li0 O12 2.190505 1_565
Li0 O26 2.193566 1_465
Li0 O11 2.204431 1_555
Li1 O7 2.064496 1_555
Li1 O5 2.081516 1_545
Li1 O25 2.113759 1_455
Li1 O29 2.126991 1_445
Li1 O12 2.186570 1_555
Li1 O28 2.213639 1_445
Li2 O32 2.064625 1_455
Li2 O10 2.095580 1_555
Li2 O9 2.102072 1_555
Li2 O16 2.109256 1_555
Li2 O23 2.127517 1_455
Li2 O31 2.155748 1_455
Li3 O11 2.065977 1_555
Li3 O0 2.093713 1_555
Li3 O17 2.098570 1_555
Li3 O1 2.108503 1_555
Li3 O13 2.108785 1_556
Li3 O27 2.152377 1_556
Li4 O18 2.059579 1_555
Li4 O13 2.061400 1_555
Li4 O34 2.117894 1_455
Li4 O31 2.125318 1_455
Li4 O22 2.187496 1_454
Li4 O16 2.209540 1_555
Li5 O19 2.052308 1_555
Li5 O15 2.058604 1_555
Li5 O4 2.113978 1_555
Li5 O1 2.157438 1_555
Li5 O17 2.210761 1_555
Li5 O3 2.227490 1_555
Li6 O34 2.036756 1_455
Li6 O14 2.041496 1_555
Li6 O16 2.166754 1_555
Li6 O2 2.175627 1_555
Li6 O32 2.177928 1_455
Li6 O20 2.217263 1_555
Li7 O4 2.023523 1_555
Li7 O31 2.041170 1_556
Li7 O13 2.152754 1_556
Li7 O17 2.167713 1_555
Li7 O18 2.190704 1_556
Li7 O22 2.211057 1_555
Li8 O3 2.051161 1_555
Li8 O33 2.058593 1_455
Li8 O14 2.147101 1_555
Li8 O21 2.185843 1_555
Li8 O2 2.192790 1_555
Li8 O15 2.220067 1_555
Li9 O20 2.070314 1_555
Li9 O2 2.085099 1_555
Li9 O7 2.089420 1_555
Li9 O30 2.093643 1_555
Li9 O6 2.124311 1_555
Li9 O21 2.134192 1_555
Li10 O25 2.039901 1_565
Li10 O10 2.042584 1_555
Li10 O30 2.166095 1_565
Li10 O5 2.179292 1_555
Li10 O7 2.200256 1_565
Li10 O28 2.201899 1_555
Li11 O9 2.058725 1_545
Li11 O35 2.060507 1_455
Li11 O8 2.127833 1_554
Li11 O27 2.139584 1_545
Li11 O0 2.199713 1_544
Li11 O24 2.236591 1_555
Li12 O11 2.048937 1_545
Li12 O12 2.052189 1_555
Li12 O25 2.139286 1_555
Li12 O29 2.158851 1_545
Li12 O26 2.207082 1_555
Li12 O5 2.226749 1_545
Li13 O23 2.052569 1_555
Li13 O24 2.057505 1_565
Li13 O10 2.111086 1_555
Li13 O6 2.171178 1_565
Li13 O30 2.196232 1_565
Li13 O9 2.250225 1_555
Li14 O26 2.058542 1_565
Li14 O0 2.065702 1_655
Li14 O27 2.163241 1_556
Li14 O11 2.175040 1_555
Li14 O35 2.177925 1_566
Li14 O8 2.188047 1_565
Li15 O28 2.078480 1_555
Li15 O33 2.081348 1_555
Li15 O15 2.101154 1_555
Li15 O29 2.109664 1_555
Li15 O5 2.129205 1_555
Li15 O14 2.135963 1_555
Li16 O32 2.059805 1_555
Li16 O2 2.070183 1_655
Li16 O21 2.153293 1_555
Li16 O33 2.172654 1_555
Li16 O20 2.177005 1_555
Li16 O14 2.188474 1_555
Li17 O1 2.031182 1_655
Li17 O21 2.039281 1_555
Li17 O3 2.164544 1_655
Li17 O33 2.181719 1_555
Li17 O19 2.188248 1_555
Li17 O15 2.228342 1_555
Li18 O20 2.054774 1_555
Li18 O16 2.066393 1_555
Li18 O34 2.146073 1_555
Li18 O31 2.148883 1_555
Li18 O32 2.193578 1_555
Li18 O18 2.233779 1_555
Li19 O22 2.069205 1_555
Li19 O17 2.075060 1_555
Li19 O1 2.120115 1_655
Li19 O4 2.138877 1_655
Li19 O19 2.222001 1_555
Li19 O13 2.222572 1_656
Li20 O22 2.075701 1_554
Li20 O35 2.082260 1_555
Li20 O24 2.096942 1_555
Li20 O34 2.107847 1_555
Li20 O18 2.138339 1_555
Li20 O8 2.138444 1_554
Li21 O27 2.026867 1_545
Li21 O6 2.030778 1_655
Li21 O35 2.165051 1_555
Li21 O9 2.175912 1_645
Li21 O24 2.190900 1_555
Li21 O23 2.194014 1_545
Li22 O26 2.079967 1_455
Li22 O3 2.080257 1_555
Li22 O4 2.113691 1_555
Li22 O25 2.121125 1_455
Li22 O12 2.125698 1_555
Li22 O19 2.138466 1_455
Li23 O28 2.064754 1_545
Li23 O30 2.080526 1_555
Li23 O6 2.133327 1_655
Li23 O10 2.135317 1_645
Li23 O23 2.205913 1_545
Li23 O7 2.209221 1_655
Mn0 O35 1.925445 1_456
Mn0 O26 1.935976 1_455
Mn0 O4 1.940172 1_555
Mn0 O22 1.941366 1_455
Mn0 O8 1.945270 1_555
Mn0 O18 1.949646 1_556
Mn1 O33 1.922980 1_455
Mn1 O32 1.937297 1_455
Mn1 O28 1.937464 1_455
Mn1 O10 1.944381 1_555
Mn1 O14 1.949296 1_555
Mn1 O5 1.951217 1_555
Mn2 O0 1.924818 1_655
Mn2 O11 1.926951 1_555
Mn2 O17 1.927482 1_555
Mn2 O29 1.944949 1_555
Mn2 O1 1.955335 1_655
Mn2 O15 1.968591 1_555
Mn3 O20 1.927444 1_555
Mn3 O2 1.931329 1_655
Mn3 O34 1.935173 1_555
Mn3 O30 1.938346 1_555
Mn3 O6 1.952550 1_655
Mn3 O24 1.960647 1_555
Mn4 O25 1.929019 1_555
Mn4 O3 1.940495 1_655
Mn4 O2 1.941763 1_655
Mn4 O30 1.942223 1_555
Mn4 O7 1.942324 1_655
Mn4 O21 1.948355 1_555
Cr0 O15 1.898261 1_555
Cr0 O5 1.901378 1_555
Cr0 O1 1.970569 1_555
Cr0 O29 1.980226 1_455
Cr0 O11 1.982496 1_555
Cr0 O33 1.984562 1_455
Cr1 O18 1.900384 1_555
Cr1 O24 1.905952 1_555
Cr1 O6 1.953103 1_555
Cr1 O20 1.969786 1_555
Cr1 O35 1.987258 1_455
Cr1 O34 1.998012 1_455
Cr2 O12 1.910452 1_555
Cr2 O7 1.915904 1_555
Cr2 O21 1.934951 1_555
Cr2 O3 1.951800 1_555
Cr2 O19 1.987736 1_555
Cr2 O25 1.998893 1_555
Cr3 O19 1.898609 1_555
Cr3 O26 1.935940 1_555
Cr3 O22 1.936497 1_555
Cr3 O8 1.949819 1_555
Cr3 O12 1.990403 1_555
Cr3 O4 1.993848 1_555
Cr4 O13 1.880597 1_555
Cr4 O27 1.905119 1_555
Cr4 O16 1.935094 1_555
Cr4 O9 1.978090 1_555
Cr4 O31 1.993224 1_555
Cr4 O23 1.993792 1_555
Cr5 O23 1.902894 1_555
Cr5 O28 1.938926 1_555
Cr5 O32 1.939923 1_555
Cr5 O14 1.947448 1_555
Cr5 O16 1.976235 1_555
Cr5 O10 1.997090 1_555
Cr6 O9 1.890716 1_655
Cr6 O31 1.892190 1_555
Cr6 O0 1.963805 1_654
Cr6 O17 1.975528 1_554
Cr6 O13 1.985330 1_655
Cr6 O27 1.987062 1_555
