# generated using pymatgen
data_Li3V(OF)2
_symmetry_space_group_name_H-M   'P 1'
_cell_length_a   5.17364766
_cell_length_b   10.22841872
_cell_length_c   5.87352096
_cell_angle_alpha   73.31293376
_cell_angle_beta   89.99761191
_cell_angle_gamma   81.47122946
_symmetry_Int_Tables_number   1
_chemical_formula_structural   Li3V(OF)2
_chemical_formula_sum   'Li12 V4 O8 F8'
_cell_volume   294.13756491
_cell_formula_units_Z   4
loop_
 _symmetry_equiv_pos_site_id
 _symmetry_equiv_pos_as_xyz
  1  'x, y, z'
loop_
 _atom_site_type_symbol
 _atom_site_label
 _atom_site_symmetry_multiplicity
 _atom_site_fract_x
 _atom_site_fract_y
 _atom_site_fract_z
 _atom_site_occupancy
  Li  Li0  1  0.74925800  0.75026800  0.12538700  1
  Li  Li1  1  0.74926000  0.75026500  0.62538800  1
  Li  Li2  1  0.24891700  0.25021700  0.87540400  1
  Li  Li3  1  0.24961000  0.25030000  0.37536300  1
  Li  Li4  1  0.99911000  0.50024500  0.50094200  1
  Li  Li5  1  0.99907200  0.50022400  0.00033700  1
  Li  Li6  1  0.49912500  0.00025100  0.25093900  1
  Li  Li7  1  0.49907500  0.00022400  0.75034000  1
  Li  Li8  1  0.24914700  0.75033500  0.37587600  1
  Li  Li9  1  0.24916600  0.75037000  0.87528600  1
  Li  Li10  1  0.74916100  0.25033500  0.12559400  1
  Li  Li11  1  0.74916300  0.25034200  0.62558000  1
  V  V0  1  0.49892300  0.50032200  0.25063300  1
  V  V1  1  0.99894800  0.00031700  0.00062900  1
  V  V2  1  0.49894100  0.50030500  0.75060800  1
  V  V3  1  0.99896000  0.00031000  0.50064600  1
  O  O0  1  0.61555600  0.61698100  0.94229100  1
  O  O1  1  0.61564700  0.61694400  0.44229100  1
  O  O2  1  0.11554900  0.11698400  0.69224100  1
  O  O3  1  0.11568300  0.11693800  0.19235900  1
  O  O4  1  0.88238400  0.88377600  0.80890000  1
  O  O5  1  0.88251000  0.88373000  0.30889200  1
  O  O6  1  0.38249100  0.38373300  0.55894200  1
  O  O7  1  0.38238200  0.38376800  0.05883800  1
  F  F0  1  0.12682800  0.62435000  0.68868600  1
  F  F1  1  0.12745100  0.62413600  0.18882200  1
  F  F2  1  0.62687500  0.12434700  0.43867800  1
  F  F3  1  0.62742100  0.12412200  0.93886300  1
  F  F4  1  0.37043000  0.87653700  0.06236800  1
  F  F5  1  0.37110600  0.87631200  0.56254600  1
  F  F6  1  0.87104900  0.37629800  0.81256800  1
  F  F7  1  0.87044600  0.37653500  0.31236900  1
loop_
_geom_bond_atom_site_label_1
_geom_bond_atom_site_label_2
_geom_bond_distance
_geom_bond_site_symmetry_2
Li0 O0 2.148349 1_554
Li0 O4 2.148421 1_554
Li0 O1 2.150319 1_555
Li0 O5 2.150502 1_555
Li1 O1 2.148449 1_555
Li1 O5 2.148532 1_555
Li1 O0 2.150338 1_555
Li1 O4 2.150669 1_555
Li2 O2 2.147443 1_555
Li2 O6 2.149319 1_555
Li2 O3 2.149515 1_556
Li2 O7 2.151426 1_556
Li3 O7 2.147636 1_555
Li3 O3 2.149098 1_555
Li3 O6 2.149758 1_555
Li3 O2 2.151147 1_555
Li4 O6 2.129847 1_655
Li4 O1 2.130925 1_555
Li5 O7 2.129321 1_655
Li5 O0 2.131381 1_554
Li6 O5 2.129899 1_545
Li6 O3 2.130787 1_555
Li7 O4 2.129286 1_545
Li7 O2 2.131436 1_555
Li8 O1 2.129815 1_555
Li8 O5 2.130397 1_455
Li9 O0 2.129353 1_555
Li9 O4 2.131045 1_455
Li10 O3 2.129932 1_655
Li10 O7 2.131158 1_555
Li11 O2 2.129191 1_655
Li11 O6 2.130522 1_555
O0 V0 2.010042 1_556
O0 V2 2.010228 1_555
O1 V0 2.009899 1_555
O1 V2 2.010004 1_555
O2 V3 2.009782 1_455
O2 V1 2.010207 1_456
O3 V3 2.009867 1_455
O3 V1 2.010222 1_455
O4 V3 2.009065 1_565
O4 V1 2.009220 1_566
O5 V1 2.009033 1_565
O5 V3 2.009417 1_565
O6 V2 2.008974 1_555
O6 V0 2.009226 1_555
O7 V2 2.008940 1_554
O7 V0 2.009564 1_555
F0 Li5 2.076929 1_456
F0 Li9 2.077658 1_555
F0 Li4 2.077669 1_455
F0 Li8 2.078173 1_555
F0 V2 2.111622 1_555
F0 Li1 2.142798 1_455
F1 Li4 2.079141 1_455
F1 Li8 2.079722 1_555
F1 Li5 2.080545 1_455
F1 Li9 2.080997 1_554
F1 V0 2.107911 1_555
F1 Li0 2.146382 1_455
F2 Li7 2.077055 1_555
F2 Li6 2.077641 1_555
F2 Li11 2.078598 1_555
F2 Li10 2.079255 1_555
F2 V3 2.111469 1_555
F2 Li3 2.141671 1_555
F3 Li10 2.078589 1_556
F3 Li6 2.078780 1_556
F3 Li11 2.079944 1_555
F3 Li7 2.080517 1_555
F3 V1 2.108107 1_556
F3 Li2 2.147548 1_555
F4 Li7 2.078562 1_564
F4 Li9 2.078690 1_554
F4 Li8 2.079866 1_555
F4 Li6 2.079933 1_565
F4 V1 2.107809 1_465
F4 Li0 2.149666 1_555
F5 Li6 2.076528 1_565
F5 Li7 2.076808 1_565
F5 Li8 2.076812 1_555
F5 Li9 2.076926 1_555
F5 V3 2.111562 1_465
F5 Li1 2.145853 1_555
F6 Li4 2.076729 1_555
F6 Li5 2.076934 1_556
F6 Li11 2.077806 1_555
F6 Li10 2.078094 1_556
F6 V2 2.111439 1_555
F6 Li2 2.144781 1_655
F7 Li10 2.077734 1_555
F7 Li5 2.078547 1_555
F7 Li11 2.078594 1_555
F7 Li4 2.079843 1_555
F7 V0 2.108013 1_555
F7 Li3 2.150952 1_655
