# generated using pymatgen
data_LiVPHO5
_symmetry_space_group_name_H-M   'P 1'
_cell_length_a   5.17156152
_cell_length_b   7.52205007
_cell_length_c   10.37038935
_cell_angle_alpha   77.33290818
_cell_angle_beta   98.73938381
_cell_angle_gamma   74.06614071
_symmetry_Int_Tables_number   1
_chemical_formula_structural   LiVPHO5
_chemical_formula_sum   'Li4 V4 P4 H4 O20'
_cell_volume   368.67198308
_cell_formula_units_Z   4
loop_
 _symmetry_equiv_pos_site_id
 _symmetry_equiv_pos_as_xyz
  1  'x, y, z'
loop_
 _atom_site_type_symbol
 _atom_site_label
 _atom_site_symmetry_multiplicity
 _atom_site_fract_x
 _atom_site_fract_y
 _atom_site_fract_z
 _atom_site_occupancy
  Li  Li0  1  0.13490000  0.61062600  0.21441500  1
  Li  Li1  1  0.63561700  0.11003900  0.71416600  1
  Li  Li2  1  0.86434800  0.38988200  0.78580900  1
  Li  Li3  1  0.36512400  0.88945200  0.28561100  1
  V  V0  1  0.49961300  0.50021200  0.49987000  1
  V  V1  1  0.75013500  0.25001300  0.25002900  1
  V  V2  1  0.24983300  0.75000100  0.74996400  1
  V  V3  1  0.00039700  0.99977800  0.00012000  1
  P  P0  1  0.37944600  0.29596700  0.93558200  1
  P  P1  1  0.87802400  0.79571600  0.43542900  1
  P  P2  1  0.62202100  0.70432100  0.06454800  1
  P  P3  1  0.12053000  0.20400000  0.56444700  1
  H  H0  1  0.16297800  0.19935900  0.14148400  1
  H  H1  1  0.66454900  0.69862100  0.64194300  1
  H  H2  1  0.83573500  0.80116000  0.85812800  1
  H  H3  1  0.33668100  0.30087200  0.35844700  1
  O  O0  1  0.45317000  0.38387900  0.33754200  1
  O  O1  1  0.95396300  0.88327000  0.83812300  1
  O  O2  1  0.54645100  0.61644400  0.66194700  1
  O  O3  1  0.04645000  0.11636100  0.16239500  1
  O  O4  1  0.43494700  0.29069100  0.08734500  1
  O  O5  1  0.93347700  0.79109700  0.58682700  1
  O  O6  1  0.56653200  0.70899600  0.91316000  1
  O  O7  1  0.06506200  0.20924000  0.41267500  1
  O  O8  1  0.80445100  0.50460800  0.15760200  1
  O  O9  1  0.30324100  0.00337500  0.65715000  1
  O  O10  1  0.19674100  0.49654600  0.84287500  1
  O  O11  1  0.69555600  0.99543500  0.34234000  1
  O  O12  1  0.20718400  0.16218100  0.91043300  1
  O  O13  1  0.70685500  0.66118800  0.41025800  1
  O  O14  1  0.79307600  0.83897200  0.08969400  1
  O  O15  1  0.29290100  0.33764300  0.58965700  1
  O  O16  1  0.65579100  0.22774300  0.88915800  1
  O  O17  1  0.15515900  0.72752700  0.38927800  1
  O  O18  1  0.34490300  0.77251800  0.11069300  1
  O  O19  1  0.84416200  0.27226500  0.61085700  1
loop_
_geom_bond_atom_site_label_1
_geom_bond_atom_site_label_2
_geom_bond_distance
_geom_bond_site_symmetry_2
Li0 O0 2.028168 1_555
Li0 O18 2.079926 1_555
Li0 O14 2.100447 1_455
Li0 O8 2.133523 1_455
Li0 O17 2.182844 1_555
Li1 O1 2.031224 1_545
Li1 O19 2.073737 1_555
Li1 O15 2.099679 1_555
Li1 O9 2.145787 1_555
Li1 O16 2.187666 1_555
Li2 O2 2.029035 1_555
Li2 O16 2.073573 1_555
Li2 O12 2.100701 1_655
Li2 O10 2.145985 1_655
Li2 O19 2.186898 1_555
Li3 O3 2.030064 1_565
Li3 O17 2.079662 1_555
Li3 O13 2.099680 1_555
Li3 O11 2.133069 1_555
Li3 O18 2.183506 1_555
H0 O3 0.993413 1_555
H1 O2 0.993829 1_555
H2 O1 0.994004 1_555
H3 O0 0.993289 1_555
O0 V1 2.042407 1_555
O0 V0 2.072645 1_555
O1 V2 2.041289 1_655
O1 V3 2.070428 1_656
O2 V2 2.043777 1_555
O2 V0 2.070079 1_555
O3 V1 2.040327 1_455
O3 V3 2.073129 1_545
O4 P0 1.545967 1_554
O4 V1 2.064208 1_555
O5 P1 1.543472 1_555
O5 V2 2.070327 1_655
O6 P2 1.543269 1_556
O6 V2 2.072012 1_555
O7 P3 1.546123 1_555
O7 V1 2.062926 1_455
O8 P2 1.545142 1_555
O8 V1 2.058466 1_555
O9 P3 1.548942 1_555
O9 V2 2.049495 1_545
O10 P0 1.548715 1_555
O10 V2 2.049555 1_555
O11 P1 1.545337 1_555
O11 V1 2.058646 1_565
O12 P0 1.552780 1_555
O12 V3 2.005556 1_546
O13 P1 1.553444 1_555
O13 V0 2.000051 1_555
O14 P2 1.553741 1_555
O14 V3 1.999372 1_655
O15 P3 1.552425 1_555
O15 V0 2.006500 1_555
O16 P0 1.565988 1_555
O16 V3 2.067404 1_646
O17 P1 1.568041 1_455
O17 V0 2.063738 1_555
O18 P2 1.567941 1_555
O18 V3 2.063645 1_555
O19 P3 1.566061 1_655
O19 V0 2.067241 1_555
