# generated using pymatgen
data_Hf2N2O
_symmetry_space_group_name_H-M   'P 1'
_cell_length_a   8.63019480
_cell_length_b   8.67967010
_cell_length_c   8.68512778
_cell_angle_alpha   109.63151909
_cell_angle_beta   109.38012209
_cell_angle_gamma   109.21985512
_symmetry_Int_Tables_number   1
_chemical_formula_structural   Hf2N2O
_chemical_formula_sum   'Hf16 N16 O8'
_cell_volume   501.93375332
_cell_formula_units_Z   8
loop_
 _symmetry_equiv_pos_site_id
 _symmetry_equiv_pos_as_xyz
  1  'x, y, z'
loop_
 _atom_site_type_symbol
 _atom_site_label
 _atom_site_symmetry_multiplicity
 _atom_site_fract_x
 _atom_site_fract_y
 _atom_site_fract_z
 _atom_site_occupancy
  Hf  Hf0  1  0.99958138  0.50050143  0.99770874  1
  Hf  Hf1  1  0.53739315  0.75081797  0.28491376  1
  Hf  Hf2  1  0.24779245  0.71403094  0.46371204  1
  Hf  Hf3  1  0.25151171  0.21634459  0.96600371  1
  Hf  Hf4  1  0.95736632  0.24351304  0.21563773  1
  Hf  Hf5  1  0.22623746  0.96560856  0.25739993  1
  Hf  Hf6  1  0.49926150  0.00073275  0.00018385  1
  Hf  Hf7  1  0.49966542  0.49014974  0.49716790  1
  Hf  Hf8  1  0.78092448  0.03645187  0.74891108  1
  Hf  Hf9  1  0.71190817  0.47259164  0.26088427  1
  Hf  Hf10  1  0.99904171  0.99904534  0.50929604  1
  Hf  Hf11  1  0.28672970  0.52804265  0.73732074  1
  Hf  Hf12  1  0.04350402  0.76245406  0.78518351  1
  Hf  Hf13  1  0.74699731  0.28324833  0.53363399  1
  Hf  Hf14  1  0.74544979  0.77977134  0.02960580  1
  Hf  Hf15  1  0.46175286  0.24796076  0.70911747  1
  N  N0  1  0.27074059  0.73289411  0.22196574  1
  N  N1  1  0.22288041  0.44963380  0.45984969  1
  N  N2  1  0.26246730  0.77211237  0.72821525  1
  N  N3  1  0.77623801  0.72563778  0.25594882  1
  N  N4  1  0.27428409  0.01308662  0.04773864  1
  N  N5  1  0.45361346  0.46534068  0.22738994  1
  N  N6  1  0.98710221  0.95852645  0.73076217  1
  N  N7  1  0.23749886  0.96445111  0.51107060  1
  N  N8  1  0.22482656  0.27534711  0.74086936  1
  N  N9  1  0.54683610  0.53890501  0.77410739  1
  N  N10  1  0.46733357  0.22711262  0.45578844  1
  N  N11  1  0.72813891  0.98540049  0.95283996  1
  N  N12  1  0.74123457  0.22914179  0.27141035  1
  N  N13  1  0.77658615  0.54884889  0.53793445  1
  N  N14  1  0.75573198  0.03073875  0.48574602  1
  N  N15  1  0.73199864  0.26871940  0.78273610  1
  O  O0  1  0.95499493  0.72524690  0.99105989  1
  O  O1  1  0.96453329  0.50693814  0.23128340  1
  O  O2  1  0.49152010  0.76627052  0.03771601  1
  O  O3  1  0.04565270  0.27812089  0.01154703  1
  O  O4  1  0.01349866  0.04352812  0.26710283  1
  O  O5  1  0.53126636  0.77472829  0.54523887  1
  O  O6  1  0.03832894  0.49445735  0.77155161  1
  O  O7  1  0.50757417  0.23354778  0.96344488  1
loop_
_geom_bond_atom_site_label_1
_geom_bond_atom_site_label_2
_geom_bond_distance
_geom_bond_site_symmetry_2
Hf0 O6 2.085880 1_655
Hf0 N15 2.102842 1_555
Hf0 O0 2.124108 1_555
Hf0 O3 2.127819 1_656
Hf0 O1 2.133573 1_556
Hf0 N0 2.136807 1_656
Hf1 O2 2.109134 1_555
Hf1 N14 2.110216 1_565
Hf1 N0 2.119214 1_555
Hf1 N5 2.158938 1_555
Hf1 O5 2.220150 1_555
Hf1 N3 2.227941 1_555
Hf2 N7 2.110001 1_555
Hf2 O5 2.124875 1_555
Hf2 N2 2.129370 1_555
Hf2 O1 2.162343 1_455
Hf2 N1 2.220916 1_555
Hf2 N0 2.227092 1_555
Hf3 N5 2.111929 1_556
Hf3 O3 2.133388 1_556
Hf3 N8 2.142484 1_555
Hf3 N4 2.152255 1_556
Hf3 O7 2.173450 1_555
Hf3 N6 2.204717 1_445
Hf4 N12 2.053396 1_555
Hf4 O4 2.092543 1_655
Hf4 N1 2.115597 1_655
Hf4 N11 2.188982 1_544
Hf4 O3 2.217233 1_655
Hf4 O1 2.223209 1_555
Hf5 N10 2.081691 1_565
Hf5 N0 2.119828 1_555
Hf5 N4 2.133163 1_565
Hf5 O4 2.171917 1_565
Hf5 N7 2.176437 1_555
Hf5 O0 2.265232 1_454
Hf6 O7 2.131532 1_554
Hf6 N4 2.142757 1_555
Hf6 O2 2.150082 1_545
Hf6 N2 2.161090 1_544
Hf6 N12 2.170666 1_555
Hf6 N11 2.182603 1_544
Hf7 N10 2.093357 1_555
Hf7 N13 2.147560 1_555
Hf7 N5 2.163527 1_555
Hf7 N9 2.163992 1_555
Hf7 N1 2.188876 1_555
Hf7 O5 2.266672 1_555
Hf8 N11 2.114417 1_545
Hf8 O5 2.116552 1_545
Hf8 N6 2.134312 1_545
Hf8 N15 2.138616 1_555
Hf8 N14 2.204710 1_555
Hf8 O3 2.234693 1_656
Hf9 N13 2.082008 1_555
Hf9 N3 2.100067 1_555
Hf9 N5 2.126638 1_555
Hf9 O1 2.214457 1_555
Hf9 N12 2.236964 1_555
Hf9 O7 2.248169 1_554
Hf10 N6 2.096718 1_555
Hf10 N14 2.158655 1_565
Hf10 N8 2.162120 1_665
Hf10 N7 2.171261 1_655
Hf10 N3 2.202179 1_555
Hf10 O4 2.297266 1_665
Hf11 N1 2.084240 1_555
Hf11 N8 2.093292 1_555
Hf11 N9 2.124710 1_555
Hf11 O6 2.199724 1_555
Hf11 N2 2.220706 1_555
Hf11 O2 2.261581 1_556
Hf12 N6 2.071188 1_455
Hf12 N2 2.089705 1_555
Hf12 N13 2.141274 1_455
Hf12 N4 2.167729 1_566
Hf12 O0 2.239860 1_455
Hf12 O6 2.273741 1_555
Hf13 N10 2.107409 1_555
Hf13 N14 2.121152 1_555
Hf13 N12 2.144892 1_555
Hf13 O6 2.219008 1_655
Hf13 N13 2.220216 1_555
Hf13 N15 2.252055 1_555
Hf14 N9 2.057188 1_554
Hf14 O0 2.113107 1_554
Hf14 N3 2.124146 1_555
Hf14 N11 2.135732 1_554
Hf14 O2 2.181770 1_555
Hf14 O4 2.240657 1_665
Hf15 N15 2.130029 1_555
Hf15 N7 2.137907 1_545
Hf15 N10 2.164362 1_555
Hf15 O7 2.165562 1_555
Hf15 N9 2.186602 1_555
Hf15 N8 2.227916 1_555
