# generated using pymatgen
data_V5O12
_symmetry_space_group_name_H-M   'P 1'
_cell_length_a   9.11599900
_cell_length_b   8.98366400
_cell_length_c   15.50080545
_cell_angle_alpha   55.19396333
_cell_angle_beta   90.00000000
_cell_angle_gamma   90.00000000
_symmetry_Int_Tables_number   1
_chemical_formula_structural   V5O12
_chemical_formula_sum   'V20 O48'
_cell_volume   1042.32296899
_cell_formula_units_Z   4
loop_
 _symmetry_equiv_pos_site_id
 _symmetry_equiv_pos_as_xyz
  1  'x, y, z'
loop_
 _atom_site_type_symbol
 _atom_site_label
 _atom_site_symmetry_multiplicity
 _atom_site_fract_x
 _atom_site_fract_y
 _atom_site_fract_z
 _atom_site_occupancy
  V  V0  1  0.98052000  0.37726100  0.87581400  1
  V  V1  1  0.48052000  0.62273900  0.62418600  1
  V  V2  1  0.02959600  0.86898700  0.37756400  1
  V  V3  1  0.52959600  0.13101300  0.12243600  1
  V  V4  1  0.47040400  0.86898700  0.87756400  1
  V  V5  1  0.97040400  0.13101300  0.62243600  1
  V  V6  1  0.51948000  0.37726100  0.37581400  1
  V  V7  1  0.01948000  0.62273900  0.12418600  1
  V  V8  1  0.74618900  0.53602800  0.48972900  1
  V  V9  1  0.61765700  0.24999000  0.85869800  1
  V  V10  1  0.88888400  0.97323100  0.13912100  1
  V  V11  1  0.11765700  0.75001000  0.64130200  1
  V  V12  1  0.38888400  0.02676900  0.36087900  1
  V  V13  1  0.24618900  0.46397200  0.01027100  1
  V  V14  1  0.75381100  0.53602800  0.98972900  1
  V  V15  1  0.61111600  0.97323100  0.63912100  1
  V  V16  1  0.88234300  0.24999000  0.35869800  1
  V  V17  1  0.11111600  0.02676900  0.86087900  1
  V  V18  1  0.38234300  0.75001000  0.14130200  1
  V  V19  1  0.25381100  0.46397200  0.51027100  1
  O  O0  1  0.14349200  0.65008400  0.43387300  1
  O  O1  1  0.09171300  0.19943000  0.88454500  1
  O  O2  1  0.33956900  0.47584300  0.60581800  1
  O  O3  1  0.41920200  0.91118400  0.16391100  1
  O  O4  1  0.61979700  0.54474100  0.57602100  1
  O  O5  1  0.80666100  0.28782600  0.84919700  1
  O  O6  1  0.55627100  0.17672800  0.98097500  1
  O  O7  1  0.00203100  0.91105200  0.24883600  1
  O  O8  1  0.70895300  0.98377600  0.16674500  1
  O  O9  1  0.84919700  0.73012100  0.43049100  1
  O  O10  1  0.51692800  0.45429200  0.76017200  1
  O  O11  1  0.01692800  0.54570800  0.73982800  1
  O  O12  1  0.93824100  0.17942000  0.03453900  1
  O  O13  1  0.43824100  0.82058000  0.46546100  1
  O  O14  1  0.34919700  0.26987900  0.06950900  1
  O  O15  1  0.20895300  0.01622400  0.33325500  1
  O  O16  1  0.05627100  0.82327200  0.51902500  1
  O  O17  1  0.50203100  0.08894800  0.25116400  1
  O  O18  1  0.30666100  0.71217400  0.65080300  1
  O  O19  1  0.11979700  0.45525900  0.92397900  1
  O  O20  1  0.83956900  0.52415700  0.89418200  1
  O  O21  1  0.59171300  0.80057000  0.61545500  1
  O  O22  1  0.91920200  0.08881600  0.33608900  1
  O  O23  1  0.64349200  0.34991600  0.06612700  1
  O  O24  1  0.35650800  0.65008400  0.93387300  1
  O  O25  1  0.08079800  0.91118400  0.66391100  1
  O  O26  1  0.40828700  0.19943000  0.38454500  1
  O  O27  1  0.16043100  0.47584300  0.10581800  1
  O  O28  1  0.88020300  0.54474100  0.07602100  1
  O  O29  1  0.69333900  0.28782600  0.34919700  1
  O  O30  1  0.49796900  0.91105200  0.74883600  1
  O  O31  1  0.94372900  0.17672800  0.48097500  1
  O  O32  1  0.79104700  0.98377600  0.66674500  1
  O  O33  1  0.65080300  0.73012100  0.93049100  1
  O  O34  1  0.56175900  0.17942000  0.53453900  1
  O  O35  1  0.06175900  0.82058000  0.96546100  1
  O  O36  1  0.98307200  0.45429200  0.26017200  1
  O  O37  1  0.48307200  0.54570800  0.23982800  1
  O  O38  1  0.15080300  0.26987900  0.56950900  1
  O  O39  1  0.29104700  0.01622400  0.83325500  1
  O  O40  1  0.99796900  0.08894800  0.75116400  1
  O  O41  1  0.44372900  0.82327200  0.01902500  1
  O  O42  1  0.19333900  0.71217400  0.15080300  1
  O  O43  1  0.38020300  0.45525900  0.42397900  1
  O  O44  1  0.58079800  0.08881600  0.83608900  1
  O  O45  1  0.66043100  0.52415700  0.39418200  1
  O  O46  1  0.90828700  0.80057000  0.11545500  1
  O  O47  1  0.85650800  0.34991600  0.56612700  1
loop_
_geom_bond_atom_site_label_1
_geom_bond_atom_site_label_2
_geom_bond_distance
_geom_bond_site_symmetry_2
O0 V19 1.717231 1_555
O0 V2 1.935886 1_555
O1 V17 1.794840 1_555
O1 V0 1.830625 1_455
O2 V19 1.731004 1_555
O2 V1 1.975476 1_555
O3 V18 1.706319 1_555
O3 V3 1.968947 1_565
O4 V8 1.800654 1_555
O4 V1 1.804890 1_555
O5 V9 1.746044 1_555
O5 V0 1.925123 1_555
O6 V9 1.707254 1_555
O6 V3 2.001982 1_556
O7 V10 1.784290 1_455
O7 V2 1.823923 1_555
O8 V10 1.711448 1_555
O8 V3 1.964051 1_565
O9 V8 1.713907 1_555
O9 V2 1.940469 1_655
O10 V1 1.789375 1_555
O10 V9 1.828734 1_555
O11 V0 1.789375 1_455
O11 V11 1.828734 1_555
O12 V10 1.683311 1_545
O12 V0 2.090160 1_554
O13 V12 1.683311 1_565
O13 V1 2.090160 1_555
O14 V13 1.713907 1_555
O14 V3 1.940469 1_555
O15 V12 1.711448 1_555
O15 V2 1.964051 1_545
O16 V11 1.707254 1_555
O16 V2 2.001982 1_555
O17 V12 1.784290 1_555
O17 V3 1.823923 1_555
O18 V11 1.746044 1_555
O18 V1 1.925123 1_555
O19 V13 1.800654 1_556
O19 V0 1.804890 1_455
O20 V14 1.731004 1_555
O20 V0 1.975476 1_555
O21 V15 1.794840 1_555
O21 V1 1.830625 1_555
O22 V16 1.706319 1_555
O22 V2 1.968947 1_645
O23 V14 1.717231 1_554
O23 V3 1.935886 1_555
O24 V13 1.717231 1_556
O24 V4 1.935886 1_555
O25 V11 1.706319 1_555
O25 V5 1.968947 1_465
O26 V12 1.794840 1_555
O26 V6 1.830625 1_555
O27 V13 1.731004 1_555
O27 V7 1.975476 1_555
O28 V14 1.800654 1_554
O28 V7 1.804890 1_655
O29 V16 1.746044 1_555
O29 V6 1.925123 1_555
O30 V15 1.784290 1_555
O30 V4 1.823923 1_555
O31 V16 1.707254 1_555
O31 V5 2.001982 1_555
O32 V15 1.711448 1_555
O32 V5 1.964051 1_565
O33 V14 1.713907 1_555
O33 V4 1.940469 1_555
O34 V15 1.683311 1_545
O34 V6 2.090160 1_555
O35 V17 1.683311 1_565
O35 V7 2.090160 1_556
O36 V7 1.789375 1_655
O36 V16 1.828734 1_555
O37 V6 1.789375 1_555
O37 V18 1.828734 1_555
O38 V19 1.713907 1_555
O38 V5 1.940469 1_455
O39 V17 1.711448 1_555
O39 V4 1.964051 1_545
O40 V17 1.784290 1_655
O40 V5 1.823923 1_555
O41 V18 1.707254 1_555
O41 V4 2.001982 1_554
O42 V18 1.746044 1_555
O42 V7 1.925123 1_555
O43 V19 1.800654 1_555
O43 V6 1.804890 1_555
O44 V9 1.706319 1_555
O44 V4 1.968947 1_545
O45 V8 1.731004 1_555
O45 V6 1.975476 1_555
O46 V10 1.794840 1_555
O46 V7 1.830625 1_655
O47 V8 1.717231 1_555
O47 V5 1.935886 1_555
