# generated using pymatgen
data_Li3FeF5
_symmetry_space_group_name_H-M   'P 1'
_cell_length_a   5.75839000
_cell_length_b   5.75839000
_cell_length_c   11.06589400
_cell_angle_alpha   90.00000000
_cell_angle_beta   90.00000000
_cell_angle_gamma   90.00000000
_symmetry_Int_Tables_number   1
_chemical_formula_structural   Li3FeF5
_chemical_formula_sum   'Li12 Fe4 F20'
_cell_volume   366.93459211
_cell_formula_units_Z   4
loop_
 _symmetry_equiv_pos_site_id
 _symmetry_equiv_pos_as_xyz
  1  'x, y, z'
loop_
 _atom_site_type_symbol
 _atom_site_label
 _atom_site_symmetry_multiplicity
 _atom_site_fract_x
 _atom_site_fract_y
 _atom_site_fract_z
 _atom_site_occupancy
  Li  Li0  1  0.01485700  0.16856400  0.32128600  1
  Li  Li1  1  0.08562100  0.32486300  0.84646900  1
  Li  Li2  1  0.21105000  0.44237300  0.61163600  1
  Li  Li3  1  0.16856400  0.98514300  0.07128600  1
  Li  Li4  1  0.32486300  0.91437900  0.59646900  1
  Li  Li5  1  0.44237300  0.78895000  0.36163600  1
  Li  Li6  1  0.55762700  0.21105000  0.86163600  1
  Li  Li7  1  0.67513700  0.08562100  0.09646900  1
  Li  Li8  1  0.83143600  0.01485700  0.57128600  1
  Li  Li9  1  0.78895000  0.55762700  0.11163600  1
  Li  Li10  1  0.91437900  0.67513700  0.34646900  1
  Li  Li11  1  0.98514300  0.83143600  0.82128600  1
  Fe  Fe0  1  0.28744500  0.49126600  0.14360100  1
  Fe  Fe1  1  0.49126600  0.71255500  0.89360100  1
  Fe  Fe2  1  0.50873400  0.28744500  0.39360100  1
  Fe  Fe3  1  0.71255500  0.50873400  0.64360100  1
  F  F0  1  0.97363200  0.25503900  0.14339400  1
  F  F1  1  0.01317300  0.77418900  0.17671800  1
  F  F2  1  0.15772400  0.57763100  0.96889400  1
  F  F3  1  0.22581100  0.01317300  0.42671800  1
  F  F4  1  0.20098100  0.48395300  0.32979500  1
  F  F5  1  0.25503900  0.02636800  0.89339400  1
  F  F6  1  0.42236900  0.15772400  0.21889400  1
  F  F7  1  0.37396600  0.44233700  0.76964800  1
  F  F8  1  0.55766300  0.37396600  0.01964800  1
  F  F9  1  0.48395300  0.79901900  0.07979500  1
  F  F10  1  0.51604700  0.20098100  0.57979500  1
  F  F11  1  0.44233700  0.62603400  0.51964800  1
  F  F12  1  0.62603400  0.55766300  0.26964800  1
  F  F13  1  0.57763100  0.84227600  0.71889400  1
  F  F14  1  0.74496100  0.97363200  0.39339400  1
  F  F15  1  0.79901900  0.51604700  0.82979500  1
  F  F16  1  0.77418900  0.98682700  0.92671800  1
  F  F17  1  0.84227600  0.42236900  0.46889400  1
  F  F18  1  0.98682700  0.22581100  0.67671800  1
  F  F19  1  0.02636800  0.74496100  0.64339400  1
loop_
_geom_bond_atom_site_label_1
_geom_bond_atom_site_label_2
_geom_bond_distance
_geom_bond_site_symmetry_2
F0 Li7 2.043485 1_555
F0 Li0 2.044368 1_655
F0 Li9 2.071352 1_555
F0 Li3 2.076568 1_645
F0 Fe0 2.261823 1_655
F1 Li3 1.907220 1_555
F1 Li9 1.934143 1_455
F1 Li10 2.043902 1_455
F1 Fe0 2.298461 1_555
F2 Li1 2.031330 1_555
F2 Fe0 2.131413 1_556
F2 Fe1 2.233113 1_555
F2 Li11 2.406588 1_455
F3 Li0 1.907220 1_555
F3 Li5 1.934143 1_545
F3 Li4 2.043902 1_545
F3 Fe2 2.298461 1_555
F4 Li10 1.992426 1_455
F4 Li0 2.110902 1_555
F4 Fe0 2.120125 1_555
F4 Fe2 2.218004 1_555
F4 Li5 2.267353 1_555
F5 Li1 2.043485 1_555
F5 Li3 2.044368 1_546
F5 Li6 2.071352 1_555
F5 Li11 2.076568 1_445
F5 Fe1 2.261823 1_545
F6 Li7 2.031330 1_555
F6 Fe2 2.131413 1_555
F6 Fe0 2.233113 1_555
F6 Li3 2.406588 1_545
F7 Li6 1.982039 1_555
F7 Li1 1.984237 1_555
F7 Li2 1.984314 1_555
F7 Fe1 2.181484 1_555
F7 Fe3 2.427581 1_555
F8 Li9 1.982039 1_555
F8 Li7 1.984237 1_555
F8 Li6 1.984314 1_554
F8 Fe0 2.181484 1_555
F8 Fe1 2.427581 1_554
F9 Li7 1.992426 1_565
F9 Li3 2.110902 1_555
F9 Fe1 2.120125 1_554
F9 Fe0 2.218004 1_555
F9 Li9 2.267353 1_555
F10 Li4 1.992426 1_545
F10 Li8 2.110902 1_555
F10 Fe2 2.120125 1_555
F10 Fe3 2.218004 1_555
F10 Li2 2.267353 1_555
F11 Li2 1.982039 1_555
F11 Li4 1.984237 1_555
F11 Li5 1.984314 1_555
F11 Fe3 2.181484 1_555
F11 Fe2 2.427581 1_555
F12 Li5 1.982039 1_555
F12 Li10 1.984237 1_555
F12 Li9 1.984314 1_555
F12 Fe2 2.181484 1_555
F12 Fe0 2.427581 1_555
F13 Li4 2.031330 1_555
F13 Fe1 2.131413 1_555
F13 Fe3 2.233113 1_555
F13 Li8 2.406588 1_565
F14 Li10 2.043485 1_555
F14 Li8 2.044368 1_565
F14 Li5 2.071352 1_555
F14 Li0 2.076568 1_665
F14 Fe2 2.261823 1_565
F15 Li1 1.992426 1_655
F15 Li11 2.110902 1_555
F15 Fe3 2.120125 1_555
F15 Fe1 2.218004 1_555
F15 Li6 2.267353 1_555
F16 Li11 1.907220 1_555
F16 Li6 1.934143 1_565
F16 Li7 2.043902 1_566
F16 Fe1 2.298461 1_555
F17 Li10 2.031330 1_555
F17 Fe3 2.131413 1_555
F17 Fe2 2.233113 1_555
F17 Li0 2.406588 1_655
F18 Li8 1.907220 1_555
F18 Li2 1.934143 1_655
F18 Li1 2.043902 1_655
F18 Fe3 2.298461 1_555
F19 Li4 2.043485 1_555
F19 Li11 2.044368 1_455
F19 Li2 2.071352 1_555
F19 Li8 2.076568 1_465
F19 Fe3 2.261823 1_455
