# generated using pymatgen
data_Mn3SbO8
_symmetry_space_group_name_H-M   'P 1'
_cell_length_a   5.98852885
_cell_length_b   5.98852885
_cell_length_c   5.98852878
_cell_angle_alpha   61.00577567
_cell_angle_beta   61.00577567
_cell_angle_gamma   61.00577134
_symmetry_Int_Tables_number   1
_chemical_formula_structural   Mn3SbO8
_chemical_formula_sum   'Mn3 Sb1 O8'
_cell_volume   155.30097394
_cell_formula_units_Z   1
loop_
 _symmetry_equiv_pos_site_id
 _symmetry_equiv_pos_as_xyz
  1  'x, y, z'
loop_
 _atom_site_type_symbol
 _atom_site_label
 _atom_site_symmetry_multiplicity
 _atom_site_fract_x
 _atom_site_fract_y
 _atom_site_fract_z
 _atom_site_occupancy
  Mn  Mn0  1  0.50000000  0.50000000  0.00000000  1
  Mn  Mn1  1  0.00000000  0.50000000  0.50000000  1
  Mn  Mn2  1  0.50000000  0.00000000  0.50000000  1
  Sb  Sb0  1  0.00000000  0.00000000  0.00000000  1
  O  O0  1  0.27309400  0.27309400  0.27309400  1
  O  O1  1  0.76529300  0.76529300  0.26428700  1
  O  O2  1  0.26428700  0.76529300  0.76529300  1
  O  O3  1  0.72690600  0.72690600  0.72690600  1
  O  O4  1  0.76529300  0.26428700  0.76529300  1
  O  O5  1  0.23470700  0.23470700  0.73571300  1
  O  O6  1  0.73571300  0.23470700  0.23470700  1
  O  O7  1  0.23470700  0.73571300  0.23470700  1
loop_
_geom_bond_atom_site_label_1
_geom_bond_atom_site_label_2
_geom_bond_distance
_geom_bond_site_symmetry_2
Mn0 O0 1.961824 1_555
Mn0 O3 1.961824 1_554
Mn0 O6 2.019082 1_555
Mn0 O7 2.019082 1_555
Mn0 O4 2.019082 1_554
Mn0 O2 2.019082 1_554
Mn1 O0 1.961824 1_555
Mn1 O3 1.961824 1_455
Mn1 O1 2.019082 1_455
Mn1 O5 2.019082 1_555
Mn1 O4 2.019082 1_455
Mn1 O7 2.019082 1_555
Mn2 O0 1.961824 1_555
Mn2 O3 1.961824 1_545
Mn2 O1 2.019082 1_545
Mn2 O5 2.019082 1_555
Mn2 O6 2.019082 1_555
Mn2 O2 2.019082 1_545
O1 Sb0 2.014473 1_665
O2 Sb0 2.014473 1_566
O4 Sb0 2.014473 1_656
O5 Sb0 2.014473 1_556
O6 Sb0 2.014473 1_655
O7 Sb0 2.014473 1_565
