# generated using pymatgen
data_Na(SiO4)2
_symmetry_space_group_name_H-M   'P 1'
_cell_length_a   4.89306600
_cell_length_b   7.93492800
_cell_length_c   17.45037900
_cell_angle_alpha   90.00000000
_cell_angle_beta   90.00000000
_cell_angle_gamma   90.00000000
_symmetry_Int_Tables_number   1
_chemical_formula_structural   Na(SiO4)2
_chemical_formula_sum   'Na4 Si8 O32'
_cell_volume   677.53062094
_cell_formula_units_Z   4
loop_
 _symmetry_equiv_pos_site_id
 _symmetry_equiv_pos_as_xyz
  1  'x, y, z'
loop_
 _atom_site_type_symbol
 _atom_site_label
 _atom_site_symmetry_multiplicity
 _atom_site_fract_x
 _atom_site_fract_y
 _atom_site_fract_z
 _atom_site_occupancy
  Na  Na0  1  0.00000000  0.75000000  0.99528100  1
  Na  Na1  1  0.50000000  0.25000000  0.50471900  1
  Na  Na2  1  0.00000000  0.25000000  0.00471900  1
  Na  Na3  1  0.50000000  0.75000000  0.49528100  1
  Si  Si0  1  0.99793400  0.44820000  0.70125200  1
  Si  Si1  1  0.50206600  0.94820000  0.79874800  1
  Si  Si2  1  0.49793400  0.55180000  0.79874800  1
  Si  Si3  1  0.00206600  0.05180000  0.70125200  1
  Si  Si4  1  0.00206600  0.55180000  0.29874800  1
  Si  Si5  1  0.49793400  0.05180000  0.20125200  1
  Si  Si6  1  0.50206600  0.44820000  0.20125200  1
  Si  Si7  1  0.99793400  0.94820000  0.29874800  1
  O  O0  1  0.00000000  0.75000000  0.31979000  1
  O  O1  1  0.50000000  0.25000000  0.18021000  1
  O  O2  1  0.00000000  0.25000000  0.68021000  1
  O  O3  1  0.50000000  0.75000000  0.81979000  1
  O  O4  1  0.29394700  0.51566800  0.72741400  1
  O  O5  1  0.20605300  0.01566800  0.77258600  1
  O  O6  1  0.79394700  0.48433200  0.77258600  1
  O  O7  1  0.70605300  0.98433200  0.72741400  1
  O  O8  1  0.70605300  0.48433200  0.27258600  1
  O  O9  1  0.79394700  0.98433200  0.22741400  1
  O  O10  1  0.20605300  0.51566800  0.22741400  1
  O  O11  1  0.29394700  0.01566800  0.27258600  1
  O  O12  1  0.92234600  0.56552300  0.62368000  1
  O  O13  1  0.57765400  0.06552300  0.87632000  1
  O  O14  1  0.42234600  0.43447700  0.87632000  1
  O  O15  1  0.07765400  0.93447700  0.62368000  1
  O  O16  1  0.07765400  0.43447700  0.37632000  1
  O  O17  1  0.42234600  0.93447700  0.12368000  1
  O  O18  1  0.57765400  0.56552300  0.12368000  1
  O  O19  1  0.92234600  0.06552300  0.37632000  1
  O  O20  1  0.20718400  0.50689800  0.91699500  1
  O  O21  1  0.29281600  0.00689800  0.58300500  1
  O  O22  1  0.70718400  0.49310200  0.58300500  1
  O  O23  1  0.79281600  0.99310200  0.91699500  1
  O  O24  1  0.79281600  0.49310200  0.08300500  1
  O  O25  1  0.70718400  0.99310200  0.41699500  1
  O  O26  1  0.29281600  0.50689800  0.41699500  1
  O  O27  1  0.20718400  0.00689800  0.08300500  1
  O  O28  1  0.00000000  0.75000000  0.47494800  1
  O  O29  1  0.50000000  0.25000000  0.02505200  1
  O  O30  1  0.00000000  0.25000000  0.52505200  1
  O  O31  1  0.50000000  0.75000000  0.97494800  1
loop_
_geom_bond_atom_site_label_1
_geom_bond_atom_site_label_2
_geom_bond_distance
_geom_bond_site_symmetry_2
Na0 O31 2.472129 1_555
Na0 O31 2.472129 1_455
Na0 O23 2.571971 1_455
Na0 O20 2.571971 1_555
Na0 O27 2.743441 1_566
Na0 O24 2.743441 1_456
Na1 O30 2.472129 1_555
Na1 O30 2.472129 1_655
Na1 O22 2.571971 1_555
Na1 O21 2.571971 1_555
Na1 O26 2.743441 1_555
Na1 O25 2.743441 1_545
Na2 O29 2.472129 1_455
Na2 O29 2.472129 1_555
Na2 O27 2.571971 1_555
Na2 O24 2.571971 1_455
Na2 O20 2.743441 1_554
Na2 O23 2.743441 1_444
Na3 O28 2.472129 1_555
Na3 O28 2.472129 1_655
Na3 O25 2.571971 1_555
Na3 O26 2.571971 1_555
Na3 O22 2.743441 1_555
Na3 O21 2.743441 1_565
O0 Si4 1.615031 1_555
O0 Si7 1.615031 1_455
O1 Si5 1.615031 1_555
O1 Si6 1.615031 1_555
O2 Si3 1.615031 1_555
O2 Si0 1.615031 1_455
O3 Si2 1.615031 1_555
O3 Si1 1.615031 1_555
O4 Si0 1.610256 1_455
O4 Si2 1.621107 1_555
O5 Si1 1.610256 1_545
O5 Si3 1.621107 1_555
O6 Si2 1.610256 1_555
O6 Si0 1.621107 1_555
O7 Si3 1.610256 1_665
O7 Si1 1.621107 1_555
O8 Si4 1.610256 1_655
O8 Si6 1.621107 1_555
O9 Si5 1.610256 1_565
O9 Si7 1.621107 1_555
O10 Si6 1.610256 1_555
O10 Si4 1.621107 1_555
O11 Si7 1.610256 1_445
O11 Si5 1.621107 1_555
O12 O22 1.393710 1_555
O12 Si0 1.684001 1_555
O13 O23 1.393710 1_545
O13 Si1 1.684001 1_545
O14 O20 1.393710 1_555
O14 Si2 1.684001 1_555
O15 O21 1.393710 1_565
O15 Si3 1.684001 1_565
O16 O26 1.393710 1_555
O16 Si4 1.684001 1_555
O17 O27 1.393710 1_565
O17 Si5 1.684001 1_565
O18 O24 1.393710 1_555
O18 Si6 1.684001 1_555
O19 O25 1.393710 1_545
O19 Si7 1.684001 1_545
