# generated using pymatgen
data_KSNO3
_symmetry_space_group_name_H-M   'P 1'
_cell_length_a   5.95490300
_cell_length_b   8.43844300
_cell_length_c   8.85698800
_cell_angle_alpha   90.00000000
_cell_angle_beta   90.00000000
_cell_angle_gamma   90.00000000
_symmetry_Int_Tables_number   1
_chemical_formula_structural   KSNO3
_chemical_formula_sum   'K4 S4 N4 O12'
_cell_volume   445.06461716
_cell_formula_units_Z   4
loop_
 _symmetry_equiv_pos_site_id
 _symmetry_equiv_pos_as_xyz
  1  'x, y, z'
loop_
 _atom_site_type_symbol
 _atom_site_label
 _atom_site_symmetry_multiplicity
 _atom_site_fract_x
 _atom_site_fract_y
 _atom_site_fract_z
 _atom_site_occupancy
  K  K0  1  0.16692100  0.25000000  0.50000000  1
  K  K1  1  0.83307900  0.75000000  0.00000000  1
  K  K2  1  0.83307900  0.75000000  0.50000000  1
  K  K3  1  0.16692100  0.25000000  0.00000000  1
  S  S0  1  0.68249100  0.37192500  0.75000000  1
  S  S1  1  0.31750900  0.62807500  0.25000000  1
  S  S2  1  0.68249100  0.12807500  0.25000000  1
  S  S3  1  0.31750900  0.87192500  0.75000000  1
  N  N0  1  0.79657500  0.19447900  0.75000000  1
  N  N1  1  0.20342500  0.80552100  0.25000000  1
  N  N2  1  0.79657500  0.30552100  0.25000000  1
  N  N3  1  0.20342500  0.69447900  0.75000000  1
  O  O0  1  0.43742100  0.34680400  0.75000000  1
  O  O1  1  0.56257900  0.65319600  0.25000000  1
  O  O2  1  0.43742100  0.15319600  0.25000000  1
  O  O3  1  0.56257900  0.84680400  0.75000000  1
  O  O4  1  0.76839800  0.44484200  0.61044400  1
  O  O5  1  0.23160200  0.55515800  0.11044400  1
  O  O6  1  0.76839800  0.05515800  0.38955600  1
  O  O7  1  0.23160200  0.94484200  0.88955600  1
  O  O8  1  0.23160200  0.55515800  0.38955600  1
  O  O9  1  0.76839800  0.44484200  0.88955600  1
  O  O10  1  0.23160200  0.94484200  0.61044400  1
  O  O11  1  0.76839800  0.05515800  0.11044400  1
loop_
_geom_bond_atom_site_label_1
_geom_bond_atom_site_label_2
_geom_bond_distance
_geom_bond_site_symmetry_2
K0 O8 2.781395 1_555
K0 O10 2.781395 1_545
K0 O0 2.857421 1_555
K0 O2 2.857421 1_555
K0 O4 3.048289 1_455
K0 O6 3.048289 1_455
K0 N2 3.160074 1_455
K0 N0 3.160074 1_455
K1 O11 2.781395 1_565
K1 O9 2.781395 1_554
K1 O3 2.857421 1_554
K1 O1 2.857421 1_555
K1 O7 3.048289 1_654
K1 O5 3.048289 1_655
K1 N1 3.160074 1_655
K1 N3 3.160074 1_654
K2 O6 2.781395 1_565
K2 O4 2.781395 1_555
K2 O3 2.857421 1_555
K2 O1 2.857421 1_555
K2 O10 3.048289 1_655
K2 O8 3.048289 1_655
K2 N1 3.160074 1_655
K2 N3 3.160074 1_655
K3 O5 2.781395 1_555
K3 O7 2.781395 1_544
K3 O0 2.857421 1_554
K3 O2 2.857421 1_555
K3 O9 3.048289 1_454
K3 O11 3.048289 1_455
K3 N2 3.160074 1_455
K3 N0 3.160074 1_454
N0 S0 1.644275 1_555
N1 S1 1.644275 1_555
N2 S2 1.644275 1_555
N3 S3 1.644275 1_555
O0 S0 1.474684 1_555
O1 S1 1.474684 1_555
O2 S2 1.474684 1_555
O3 S3 1.474684 1_555
O4 S0 1.472451 1_555
O5 S1 1.472451 1_555
O6 S2 1.472451 1_555
O7 S3 1.472451 1_555
O8 S1 1.472451 1_555
O9 S0 1.472451 1_555
O10 S3 1.472451 1_555
O11 S2 1.472451 1_555
