# generated using pymatgen
data_Yb3Ge5
_symmetry_space_group_name_H-M   'P 1'
_cell_length_a   6.81063620
_cell_length_b   6.81063620
_cell_length_c   4.04762720
_cell_angle_alpha   90.00000000
_cell_angle_beta   90.00000000
_cell_angle_gamma   119.99999640
_symmetry_Int_Tables_number   1
_chemical_formula_structural   Yb3Ge5
_chemical_formula_sum   'Yb3 Ge5'
_cell_volume   162.59474995
_cell_formula_units_Z   1
loop_
 _symmetry_equiv_pos_site_id
 _symmetry_equiv_pos_as_xyz
  1  'x, y, z'
loop_
 _atom_site_type_symbol
 _atom_site_label
 _atom_site_symmetry_multiplicity
 _atom_site_fract_x
 _atom_site_fract_y
 _atom_site_fract_z
 _atom_site_occupancy
  Yb  Yb0  1  1.00000000  0.64184459  0.50000000  1
  Yb  Yb1  1  0.35815541  0.35815541  0.50000000  1
  Yb  Yb2  1  0.64184459  1.00000000  0.50000000  1
  Ge  Ge0  1  0.66666700  0.33333300  0.00000000  1
  Ge  Ge1  1  0.33333300  0.66666700  0.00000000  1
  Ge  Ge2  1  0.00000000  0.24929811  0.00000000  1
  Ge  Ge3  1  0.24929811  0.00000000  0.00000000  1
  Ge  Ge4  1  0.75070189  0.75070189  0.00000000  1
loop_
_geom_bond_atom_site_label_1
_geom_bond_atom_site_label_2
_geom_bond_distance
_geom_bond_site_symmetry_2
Ge0 Ge2 2.603983 1_655
Ge0 Ge3 2.603988 1_555
Ge0 Ge4 2.603990 1_555
Ge0 Yb2 2.982358 1_544
Ge0 Yb2 2.982358 1_545
Ge0 Yb0 2.982361 1_555
Ge0 Yb0 2.982361 1_554
Ge0 Yb1 2.982363 1_554
Ge0 Yb1 2.982363 1_555
Ge1 Ge3 2.603983 1_565
Ge1 Ge2 2.603988 1_555
Ge1 Ge4 2.603990 1_555
Ge1 Yb0 2.982358 1_455
Ge1 Yb0 2.982358 1_454
Ge1 Yb2 2.982361 1_554
Ge1 Yb2 2.982361 1_555
Ge1 Yb1 2.982363 1_554
Ge1 Yb1 2.982363 1_555
Ge2 Ge3 2.940812 1_555
Ge2 Ge4 2.940812 1_445
Ge2 Yb1 2.964297 1_554
Ge2 Yb1 2.964297 1_555
Ge2 Yb2 2.964297 1_445
Ge2 Yb2 2.964297 1_444
Ge2 Yb0 3.353115 1_455
Ge2 Yb0 3.353115 1_454
Ge3 Ge4 2.940812 1_445
Ge3 Yb1 2.964297 1_554
Ge3 Yb1 2.964297 1_555
Ge3 Yb0 2.964297 1_444
Ge3 Yb0 2.964297 1_445
Ge3 Yb2 3.353115 1_544
Ge3 Yb2 3.353115 1_545
Ge4 Yb0 2.964297 1_555
Ge4 Yb2 2.964297 1_554
Ge4 Yb0 2.964297 1_554
Ge4 Yb2 2.964297 1_555
Ge4 Yb1 3.353115 1_554
Ge4 Yb1 3.353115 1_555
