# generated using pymatgen
data_KTeO4
_symmetry_space_group_name_H-M   'P 1'
_cell_length_a   7.08464665
_cell_length_b   7.08464665
_cell_length_c   5.17587072
_cell_angle_alpha   69.64579416
_cell_angle_beta   69.64579416
_cell_angle_gamma   109.00983914
_symmetry_Int_Tables_number   1
_chemical_formula_structural   KTeO4
_chemical_formula_sum   'K2 Te2 O8'
_cell_volume   196.67271293
_cell_formula_units_Z   2
loop_
 _symmetry_equiv_pos_site_id
 _symmetry_equiv_pos_as_xyz
  1  'x, y, z'
loop_
 _atom_site_type_symbol
 _atom_site_label
 _atom_site_symmetry_multiplicity
 _atom_site_fract_x
 _atom_site_fract_y
 _atom_site_fract_z
 _atom_site_occupancy
  K  K0  1  0.66168100  0.33831900  0.25000000  1
  K  K1  1  0.33831900  0.66168100  0.75000000  1
  Te  Te0  1  0.92374700  0.07625300  0.75000000  1
  Te  Te1  1  0.07625300  0.92374700  0.25000000  1
  O  O0  1  0.78739500  0.88759800  0.22231000  1
  O  O1  1  0.11240200  0.21260500  0.27769000  1
  O  O2  1  0.21260500  0.11240200  0.77769000  1
  O  O3  1  0.88759800  0.78739500  0.72231000  1
  O  O4  1  0.62743300  0.00064800  0.78413000  1
  O  O5  1  0.99935200  0.37256700  0.71587000  1
  O  O6  1  0.37256700  0.99935200  0.21587000  1
  O  O7  1  0.00064800  0.62743300  0.28413000  1
loop_
_geom_bond_atom_site_label_1
_geom_bond_atom_site_label_2
_geom_bond_distance
_geom_bond_site_symmetry_2
K0 O7 2.708508 1_655
K0 O6 2.708508 1_545
K0 O2 2.782167 1_555
K0 O3 2.782167 1_554
K0 O5 2.824762 1_554
K0 O4 2.824762 1_555
K1 O4 2.708508 1_565
K1 O5 2.708508 1_455
K1 O1 2.782167 1_556
K1 O0 2.782167 1_555
K1 O6 2.824762 1_555
K1 O7 2.824762 1_556
O0 Te0 1.984660 1_564
O0 Te1 2.040159 1_655
O1 Te0 1.984660 1_455
O1 Te1 2.040159 1_545
O2 Te1 1.984660 1_546
O2 Te0 2.040159 1_455
O3 Te1 1.984660 1_655
O3 Te0 2.040159 1_565
O4 Te0 1.915400 1_555
O5 Te0 1.915400 1_555
O6 Te1 1.915400 1_555
O7 Te1 1.915400 1_555
