# generated using pymatgen
data_KSeO4
_symmetry_space_group_name_H-M   'P 1'
_cell_length_a   8.62732800
_cell_length_b   10.37600400
_cell_length_c   20.05526800
_cell_angle_alpha   90.00000000
_cell_angle_beta   90.00000000
_cell_angle_gamma   90.00000000
_symmetry_Int_Tables_number   1
_chemical_formula_structural   KSeO4
_chemical_formula_sum   'K16 Se16 O64'
_cell_volume   1795.29123279
_cell_formula_units_Z   16
loop_
 _symmetry_equiv_pos_site_id
 _symmetry_equiv_pos_as_xyz
  1  'x, y, z'
loop_
 _atom_site_type_symbol
 _atom_site_label
 _atom_site_symmetry_multiplicity
 _atom_site_fract_x
 _atom_site_fract_y
 _atom_site_fract_z
 _atom_site_occupancy
  K  K0  1  0.11483500  0.32343500  0.12596400  1
  K  K1  1  0.88516500  0.67656500  0.87403600  1
  K  K2  1  0.38516500  0.67656500  0.62596400  1
  K  K3  1  0.88516500  0.82343500  0.37403600  1
  K  K4  1  0.61483500  0.32343500  0.37403600  1
  K  K5  1  0.11483500  0.17656500  0.62596400  1
  K  K6  1  0.61483500  0.17656500  0.87403600  1
  K  K7  1  0.38516500  0.82343500  0.12596400  1
  K  K8  1  0.13201800  0.18320300  0.38095100  1
  K  K9  1  0.86798200  0.81679700  0.61904900  1
  K  K10  1  0.36798200  0.81679700  0.88095100  1
  K  K11  1  0.86798200  0.68320300  0.11904900  1
  K  K12  1  0.63201800  0.18320300  0.11904900  1
  K  K13  1  0.13201800  0.31679700  0.88095100  1
  K  K14  1  0.63201800  0.31679700  0.61904900  1
  K  K15  1  0.36798200  0.68320300  0.38095100  1
  Se  Se0  1  0.02134600  0.48028100  0.29408200  1
  Se  Se1  1  0.97865400  0.51971900  0.70591800  1
  Se  Se2  1  0.47865400  0.51971900  0.79408200  1
  Se  Se3  1  0.97865400  0.98028100  0.20591800  1
  Se  Se4  1  0.52134600  0.48028100  0.20591800  1
  Se  Se5  1  0.02134600  0.01971900  0.79408200  1
  Se  Se6  1  0.52134600  0.01971900  0.70591800  1
  Se  Se7  1  0.47865400  0.98028100  0.29408200  1
  Se  Se8  1  0.24663800  0.07165700  0.00380600  1
  Se  Se9  1  0.75336200  0.92834300  0.99619400  1
  Se  Se10  1  0.25336200  0.92834300  0.50380600  1
  Se  Se11  1  0.75336200  0.57165700  0.49619400  1
  Se  Se12  1  0.74663800  0.07165700  0.49619400  1
  Se  Se13  1  0.24663800  0.42834300  0.50380600  1
  Se  Se14  1  0.74663800  0.42834300  0.99619400  1
  Se  Se15  1  0.25336200  0.57165700  0.00380600  1
  O  O0  1  0.07684700  0.00036400  0.27876900  1
  O  O1  1  0.92315300  0.99963600  0.72123100  1
  O  O2  1  0.42315300  0.99963600  0.77876900  1
  O  O3  1  0.92315300  0.50036400  0.22123100  1
  O  O4  1  0.57684700  0.00036400  0.22123100  1
  O  O5  1  0.07684700  0.49963600  0.77876900  1
  O  O6  1  0.57684700  0.49963600  0.72123100  1
  O  O7  1  0.42315300  0.50036400  0.27876900  1
  O  O8  1  0.17859300  0.38465300  0.27638600  1
  O  O9  1  0.82140700  0.61534700  0.72361400  1
  O  O10  1  0.32140700  0.61534700  0.77638600  1
  O  O11  1  0.82140700  0.88465300  0.22361400  1
  O  O12  1  0.67859300  0.38465300  0.22361400  1
  O  O13  1  0.17859300  0.11534700  0.77638600  1
  O  O14  1  0.67859300  0.11534700  0.72361400  1
  O  O15  1  0.32140700  0.88465300  0.27638600  1
  O  O16  1  0.33690300  0.39383700  0.43216900  1
  O  O17  1  0.66309700  0.60616300  0.56783100  1
  O  O18  1  0.16309700  0.60616300  0.93216900  1
  O  O19  1  0.66309700  0.89383700  0.06783100  1
  O  O20  1  0.83690300  0.39383700  0.06783100  1
  O  O21  1  0.33690300  0.10616300  0.93216900  1
  O  O22  1  0.83690300  0.10616300  0.56783100  1
  O  O23  1  0.16309700  0.89383700  0.43216900  1
  O  O24  1  0.42247600  0.12326000  0.32094200  1
  O  O25  1  0.57752400  0.87674000  0.67905800  1
  O  O26  1  0.07752400  0.87674000  0.82094200  1
  O  O27  1  0.57752400  0.62326000  0.17905800  1
  O  O28  1  0.92247600  0.12326000  0.17905800  1
  O  O29  1  0.42247600  0.37674000  0.82094200  1
  O  O30  1  0.92247600  0.37674000  0.67905800  1
  O  O31  1  0.07752400  0.62326000  0.32094200  1
  O  O32  1  0.35017900  0.09656300  0.07285800  1
  O  O33  1  0.64982100  0.90343700  0.92714200  1
  O  O34  1  0.14982100  0.90343700  0.57285800  1
  O  O35  1  0.64982100  0.59656300  0.42714200  1
  O  O36  1  0.85017900  0.09656300  0.42714200  1
  O  O37  1  0.35017900  0.40343700  0.57285800  1
  O  O38  1  0.85017900  0.40343700  0.92714200  1
  O  O39  1  0.14982100  0.59656300  0.07285800  1
  O  O40  1  0.41869900  0.39577200  0.15152600  1
  O  O41  1  0.58130100  0.60422800  0.84847400  1
  O  O42  1  0.08130100  0.60422800  0.65152600  1
  O  O43  1  0.58130100  0.89577200  0.34847400  1
  O  O44  1  0.91869900  0.39577200  0.34847400  1
  O  O45  1  0.41869900  0.10422800  0.65152600  1
  O  O46  1  0.91869900  0.10422800  0.84847400  1
  O  O47  1  0.08130100  0.89577200  0.15152600  1
  O  O48  1  0.29192500  0.41229500  0.00019800  1
  O  O49  1  0.70807500  0.58770500  0.99980200  1
  O  O50  1  0.20807500  0.58770500  0.50019800  1
  O  O51  1  0.70807500  0.91229500  0.49980200  1
  O  O52  1  0.79192500  0.41229500  0.49980200  1
  O  O53  1  0.29192500  0.08770500  0.50019800  1
  O  O54  1  0.79192500  0.08770500  0.99980200  1
  O  O55  1  0.20807500  0.91229500  0.00019800  1
  O  O56  1  0.08721900  0.16347800  0.00786200  1
  O  O57  1  0.91278100  0.83652200  0.99213800  1
  O  O58  1  0.41278100  0.83652200  0.50786200  1
  O  O59  1  0.91278100  0.66347800  0.49213800  1
  O  O60  1  0.58721900  0.16347800  0.49213800  1
  O  O61  1  0.08721900  0.33652200  0.50786200  1
  O  O62  1  0.58721900  0.33652200  0.99213800  1
  O  O63  1  0.41278100  0.66347800  0.00786200  1
loop_
_geom_bond_atom_site_label_1
_geom_bond_atom_site_label_2
_geom_bond_distance
_geom_bond_site_symmetry_2
K0 O20 2.764484 1_455
K0 O40 2.774637 1_555
K0 O28 2.863898 1_455
K0 O56 2.901987 1_555
K0 O39 3.042511 1_555
K0 O48 3.089688 1_555
K0 O3 3.123358 1_455
K0 O8 3.131588 1_555
K0 O32 3.286070 1_555
K1 O18 2.764484 1_655
K1 O41 2.774637 1_555
K1 O26 2.863898 1_655
K1 O57 2.901987 1_555
K1 O38 3.042511 1_555
K1 O49 3.089688 1_555
K1 O5 3.123358 1_655
K1 O9 3.131588 1_555
K1 O33 3.286070 1_555
K2 O17 2.764484 1_555
K2 O42 2.774637 1_555
K2 O25 2.863898 1_555
K2 O58 2.901987 1_555
K2 O37 3.042511 1_555
K2 O50 3.089688 1_555
K2 O6 3.123358 1_555
K2 O10 3.131588 1_555
K2 O34 3.286070 1_555
K3 O23 2.764484 1_655
K3 O43 2.774637 1_555
K3 O31 2.863898 1_655
K3 O59 2.901987 1_555
K3 O36 3.042511 1_565
K3 O51 3.089688 1_555
K3 O0 3.123358 1_665
K3 O11 3.131588 1_555
K3 O35 3.286070 1_555
K4 O16 2.764484 1_555
K4 O44 2.774637 1_555
K4 O24 2.863898 1_555
K4 O60 2.901987 1_555
K4 O35 3.042511 1_555
K4 O52 3.089688 1_555
K4 O7 3.123358 1_555
K4 O12 3.131588 1_555
K4 O36 3.286070 1_555
K5 O22 2.764484 1_455
K5 O45 2.774637 1_555
K5 O30 2.863898 1_455
K5 O61 2.901987 1_555
K5 O34 3.042511 1_545
K5 O53 3.089688 1_555
K5 O1 3.123358 1_445
K5 O13 3.131588 1_555
K5 O37 3.286070 1_555
K6 O21 2.764484 1_555
K6 O46 2.774637 1_555
K6 O29 2.863898 1_555
K6 O62 2.901987 1_555
K6 O33 3.042511 1_545
K6 O54 3.089688 1_555
K6 O2 3.123358 1_545
K6 O14 3.131588 1_555
K6 O38 3.286070 1_555
K7 O19 2.764484 1_555
K7 O47 2.774637 1_555
K7 O27 2.863898 1_555
K7 O63 2.901987 1_555
K7 O32 3.042511 1_565
K7 O55 3.089688 1_555
K7 O4 3.123358 1_565
K7 O15 3.131588 1_555
K7 O39 3.286070 1_555
K8 O36 2.752926 1_455
K8 O0 2.832890 1_555
K8 O24 2.848625 1_555
K8 O53 2.933341 1_555
K8 O44 2.945497 1_455
K8 O8 2.988031 1_555
K8 O16 2.992682 1_555
K8 O61 3.026279 1_555
K8 O23 3.184619 1_545
K9 O34 2.752926 1_655
K9 O1 2.832890 1_555
K9 O25 2.848625 1_555
K9 O51 2.933341 1_555
K9 O42 2.945497 1_655
K9 O9 2.988031 1_555
K9 O17 2.992682 1_555
K9 O59 3.026279 1_555
K9 O22 3.184619 1_565
K10 O33 2.752926 1_555
K10 O2 2.832890 1_555
K10 O26 2.848625 1_555
K10 O55 2.933341 1_556
K10 O41 2.945497 1_555
K10 O10 2.988031 1_555
K10 O18 2.992682 1_555
K10 O63 3.026279 1_556
K10 O21 3.184619 1_565
K11 O39 2.752926 1_655
K11 O3 2.832890 1_555
K11 O27 2.848625 1_555
K11 O49 2.933341 1_554
K11 O47 2.945497 1_655
K11 O11 2.988031 1_555
K11 O19 2.992682 1_555
K11 O57 3.026279 1_554
K11 O20 3.184619 1_555
K12 O32 2.752926 1_555
K12 O4 2.832890 1_555
K12 O28 2.848625 1_555
K12 O54 2.933341 1_554
K12 O40 2.945497 1_555
K12 O12 2.988031 1_555
K12 O20 2.992682 1_555
K12 O62 3.026279 1_554
K12 O19 3.184619 1_545
K13 O38 2.752926 1_455
K13 O5 2.832890 1_555
K13 O29 2.848625 1_555
K13 O48 2.933341 1_556
K13 O46 2.945497 1_455
K13 O13 2.988031 1_555
K13 O21 2.992682 1_555
K13 O56 3.026279 1_556
K13 O18 3.184619 1_555
K14 O37 2.752926 1_555
K14 O6 2.832890 1_555
K14 O30 2.848625 1_555
K14 O52 2.933341 1_555
K14 O45 2.945497 1_555
K14 O14 2.988031 1_555
K14 O22 2.992682 1_555
K14 O60 3.026279 1_555
K14 O17 3.184619 1_555
K15 O35 2.752926 1_555
K15 O7 2.832890 1_555
K15 O31 2.848625 1_555
K15 O50 2.933341 1_555
K15 O43 2.945497 1_555
K15 O15 2.988031 1_555
K15 O23 2.992682 1_555
K15 O58 3.026279 1_555
K15 O16 3.184619 1_555
O0 Se3 1.701685 1_445
O1 Se5 1.701685 1_665
O2 Se6 1.701685 1_565
O3 Se0 1.701685 1_655
O4 Se7 1.701685 1_545
O5 Se1 1.701685 1_455
O6 Se2 1.701685 1_555
O7 Se4 1.701685 1_555
O8 Se0 1.717821 1_555
O9 Se1 1.717821 1_555
O10 Se2 1.717821 1_555
O11 Se3 1.717821 1_555
O12 Se4 1.717821 1_555
O13 Se5 1.717821 1_555
O14 Se6 1.717821 1_555
O15 Se7 1.717821 1_555
O16 Se13 1.672943 1_555
O17 Se11 1.672943 1_555
O18 Se15 1.672943 1_556
O19 Se9 1.672943 1_554
O20 Se14 1.672943 1_554
O21 Se8 1.672943 1_556
O22 Se12 1.672943 1_555
O23 Se10 1.672943 1_555
O24 Se7 1.651062 1_545
O25 Se6 1.651062 1_565
O26 Se5 1.651062 1_565
O27 Se4 1.651062 1_555
O28 Se3 1.651062 1_545
O29 Se2 1.651062 1_555
O30 Se1 1.651062 1_555
O31 Se0 1.651062 1_555
O32 Se8 1.668102 1_555
O33 Se9 1.668102 1_555
O34 Se10 1.668102 1_555
O35 Se11 1.668102 1_555
O36 Se12 1.668102 1_555
O37 Se13 1.668102 1_555
O38 Se14 1.668102 1_555
O39 Se15 1.668102 1_555
O40 Se4 1.656222 1_555
O41 Se2 1.656222 1_555
O42 Se1 1.656222 1_455
O43 Se7 1.656222 1_555
O44 Se0 1.656222 1_655
O45 Se6 1.656222 1_555
O46 Se5 1.656222 1_655
O47 Se3 1.656222 1_455
O48 Se15 1.688230 1_555
O49 Se14 1.688230 1_555
O50 Se13 1.688230 1_555
O51 Se12 1.688230 1_565
O52 Se11 1.688230 1_555
O53 Se10 1.688230 1_545
O54 Se9 1.688230 1_545
O55 Se8 1.688230 1_565
O56 Se8 1.675093 1_555
O57 Se9 1.675093 1_555
O58 Se10 1.675093 1_555
O59 Se11 1.675093 1_555
O60 Se12 1.675093 1_555
O61 Se13 1.675093 1_555
O62 Se14 1.675093 1_555
O63 Se15 1.675093 1_555
