# generated using pymatgen
data_Fe7Te(PO4)12
_symmetry_space_group_name_H-M   'P 1'
_cell_length_a   8.76975400
_cell_length_b   8.77863961
_cell_length_c   12.18839214
_cell_angle_alpha   89.98847906
_cell_angle_beta   89.86093938
_cell_angle_gamma   89.94804725
_symmetry_Int_Tables_number   1
_chemical_formula_structural   Fe7Te(PO4)12
_chemical_formula_sum   'Fe7 Te1 P12 O48'
_cell_volume   938.33860319
_cell_formula_units_Z   1
loop_
 _symmetry_equiv_pos_site_id
 _symmetry_equiv_pos_as_xyz
  1  'x, y, z'
loop_
 _atom_site_type_symbol
 _atom_site_label
 _atom_site_symmetry_multiplicity
 _atom_site_fract_x
 _atom_site_fract_y
 _atom_site_fract_z
 _atom_site_occupancy
  Fe  Fe0  1  0.03734100  0.25086100  0.61921400  1
  Fe  Fe1  1  0.46528400  0.24912100  0.38288200  1
  Fe  Fe2  1  0.96380500  0.24928200  0.11960100  1
  Fe  Fe3  1  0.53521500  0.24833100  0.87860900  1
  Fe  Fe4  1  0.46331200  0.75206100  0.11752100  1
  Fe  Fe5  1  0.03777500  0.75219700  0.87880900  1
  Fe  Fe6  1  0.96613300  0.74921300  0.38096400  1
  Te  Te0  1  0.53482700  0.75010700  0.61618000  1
  P  P0  1  0.75212600  0.03614100  0.49957900  1
  P  P1  1  0.25013000  0.46465400  0.99993600  1
  P  P2  1  0.74953700  0.53569500  0.00069200  1
  P  P3  1  0.25145500  0.96254200  0.49933400  1
  P  P4  1  0.60565300  0.10714400  0.14466500  1
  P  P5  1  0.89473300  0.10807100  0.85461600  1
  P  P6  1  0.39591800  0.39420200  0.64407400  1
  P  P7  1  0.10694200  0.39260800  0.35570600  1
  P  P8  1  0.89057600  0.60609900  0.64351100  1
  P  P9  1  0.60739500  0.60735100  0.35150400  1
  P  P10  1  0.39222900  0.89262200  0.85255900  1
  P  P11  1  0.10636900  0.89236500  0.14413800  1
  O  O0  1  0.36127500  0.05505300  0.42944600  1
  O  O1  1  0.15327100  0.06199800  0.57536100  1
  O  O2  1  0.09406500  0.06767100  0.15092700  1
  O  O3  1  0.40919500  0.06592400  0.84344700  1
  O  O4  1  0.84712100  0.13320900  0.57804000  1
  O  O5  1  0.65582300  0.14152800  0.42886200  1
  O  O6  1  0.56029000  0.16573700  0.03056200  1
  O  O7  1  0.93865300  0.16483200  0.96937100  1
  O  O8  1  0.77182700  0.15202400  0.17036800  1
  O  O9  1  0.72864400  0.15331300  0.83008500  1
  O  O10  1  0.49580800  0.17474000  0.23018600  1
  O  O11  1  0.00579600  0.17935700  0.77145900  1
  O  O12  1  0.99722000  0.32116200  0.27202800  1
  O  O13  1  0.50736900  0.32957100  0.72830800  1
  O  O14  1  0.22912900  0.35633100  0.66851500  1
  O  O15  1  0.27211000  0.34458900  0.33165400  1
  O  O16  1  0.44385800  0.34493200  0.52933400  1
  O  O17  1  0.05954900  0.33786000  0.47033400  1
  O  O18  1  0.15342500  0.36076800  0.07409400  1
  O  O19  1  0.34738900  0.36164900  0.92629200  1
  O  O20  1  0.89898100  0.43154800  0.65272500  1
  O  O21  1  0.59263800  0.43307800  0.34515300  1
  O  O22  1  0.85137800  0.43714200  0.07546000  1
  O  O23  1  0.65015100  0.43712700  0.92517500  1
  O  O24  1  0.34953600  0.56432400  0.07529200  1
  O  O25  1  0.14888300  0.56304000  0.92462300  1
  O  O26  1  0.40351200  0.57743600  0.65466300  1
  O  O27  1  0.09428100  0.56714100  0.34626500  1
  O  O28  1  0.65200400  0.63706400  0.07569600  1
  O  O29  1  0.84717000  0.64050700  0.92745700  1
  O  O30  1  0.92564800  0.66403700  0.52925900  1
  O  O31  1  0.56112300  0.65771300  0.47286800  1
  O  O32  1  0.77205000  0.65381000  0.32825100  1
  O  O33  1  0.71770200  0.65114700  0.67573800  1
  O  O34  1  0.49264400  0.68384900  0.27400700  1
  O  O35  1  0.99604900  0.67815500  0.72803000  1
  O  O36  1  0.99593600  0.82320700  0.22835800  1
  O  O37  1  0.51319100  0.81848700  0.76779500  1
  O  O38  1  0.27272100  0.84881700  0.16997900  1
  O  O39  1  0.23020800  0.84470900  0.82282800  1
  O  O40  1  0.44235600  0.83261200  0.96420700  1
  O  O41  1  0.06326700  0.83627500  0.02924300  1
  O  O42  1  0.34343700  0.85402300  0.58233000  1
  O  O43  1  0.15555800  0.85638100  0.42828300  1
  O  O44  1  0.90720300  0.93328000  0.84832300  1
  O  O45  1  0.59504300  0.93115700  0.14902500  1
  O  O46  1  0.84605900  0.93190800  0.42644400  1
  O  O47  1  0.64269800  0.93911500  0.57975400  1
loop_
_geom_bond_atom_site_label_1
_geom_bond_atom_site_label_2
_geom_bond_distance
_geom_bond_site_symmetry_2
Fe0 O11 1.977684 1_555
Fe0 O17 1.977882 1_555
Fe0 O14 2.013751 1_555
Fe0 O1 2.015643 1_555
Fe0 O4 2.027019 1_455
Fe0 O20 2.037026 1_455
Fe1 O16 1.981844 1_555
Fe1 O10 1.989858 1_555
Fe1 O15 1.991110 1_555
Fe1 O5 1.999959 1_555
Fe1 O0 2.014060 1_555
Fe1 O21 2.016732 1_555
Fe2 O12 1.984708 1_555
Fe2 O8 1.985871 1_555
Fe2 O7 1.988430 1_554
Fe2 O22 1.995131 1_555
Fe2 O2 1.997773 1_655
Fe2 O18 2.007250 1_655
Fe3 O9 1.978848 1_555
Fe3 O13 1.981299 1_555
Fe3 O3 1.993730 1_555
Fe3 O6 2.001339 1_556
Fe3 O19 2.008281 1_555
Fe3 O23 2.022667 1_555
Fe4 O38 1.978994 1_555
Fe4 O45 1.989876 1_555
Fe4 O24 1.995612 1_555
Fe4 O28 2.002595 1_555
Fe4 O40 2.006630 1_554
Fe4 O34 2.015993 1_555
Fe5 O35 1.984415 1_455
Fe5 O41 1.989847 1_556
Fe5 O39 1.992422 1_555
Fe5 O44 1.993700 1_455
Fe5 O25 2.004489 1_555
Fe5 O29 2.026072 1_455
Fe6 O36 1.986804 1_555
Fe6 O30 1.987197 1_555
Fe6 O46 1.995698 1_555
Fe6 O43 1.996257 1_655
Fe6 O27 1.997815 1_655
Fe6 O32 2.004826 1_555
O0 P3 1.519819 1_545
O1 P3 1.535400 1_545
O2 P11 1.544849 1_545
O3 P10 1.532729 1_545
O4 P0 1.529759 1_555
O5 P0 1.521149 1_555
O6 P4 1.535903 1_555
O7 P5 1.534988 1_555
O8 P4 1.542859 1_555
O9 P5 1.539389 1_555
O10 P4 1.536541 1_555
O11 P5 1.537409 1_455
O12 P7 1.538046 1_655
O13 P6 1.528043 1_555
O14 P6 1.528883 1_555
O15 P7 1.535780 1_555
O16 P6 1.522065 1_555
O17 P7 1.533943 1_555
O18 P1 1.537942 1_554
O19 P1 1.531685 1_555
O20 P8 1.538121 1_555
O21 P9 1.537442 1_555
O22 P2 1.542359 1_555
O23 P2 1.536612 1_556
O24 P1 1.541013 1_554
O25 P1 1.542474 1_555
O26 P6 1.615187 1_555
O26 Te0 1.960649 1_555
O27 P7 1.540381 1_555
O28 P2 1.534396 1_555
O29 P2 1.540733 1_556
O30 P8 1.513408 1_555
O31 P9 1.595394 1_555
O31 Te0 1.939185 1_555
O32 P9 1.526692 1_555
O33 P8 1.614065 1_555
O33 Te0 1.963822 1_555
O34 P9 1.535913 1_555
O35 P8 1.524092 1_555
O36 P11 1.535000 1_655
O37 P10 1.615527 1_555
O37 Te0 1.951864 1_555
O38 P11 1.541041 1_555
O39 P10 1.526691 1_555
O40 P10 1.524720 1_555
O41 P11 1.532839 1_555
O42 P3 1.607398 1_555
O42 Te0 1.954484 1_555
O43 P3 1.526772 1_555
O44 P5 1.540134 1_565
O45 P4 1.548704 1_565
O46 P0 1.518503 1_565
O47 P0 1.611817 1_565
O47 Te0 1.961020 1_555
