# generated using pymatgen
data_Li2Co4OF8
_symmetry_space_group_name_H-M   'P 1'
_cell_length_a   6.85559600
_cell_length_b   7.81453820
_cell_length_c   8.39273401
_cell_angle_alpha   69.43063996
_cell_angle_beta   66.96116533
_cell_angle_gamma   80.03986075
_symmetry_Int_Tables_number   1
_chemical_formula_structural   Li2Co4OF8
_chemical_formula_sum   'Li4 Co8 O2 F16'
_cell_volume   387.05749550
_cell_formula_units_Z   2
loop_
 _symmetry_equiv_pos_site_id
 _symmetry_equiv_pos_as_xyz
  1  'x, y, z'
loop_
 _atom_site_type_symbol
 _atom_site_label
 _atom_site_symmetry_multiplicity
 _atom_site_fract_x
 _atom_site_fract_y
 _atom_site_fract_z
 _atom_site_occupancy
  Li  Li0  1  0.23674800  0.23593200  0.62937900  1
  Li  Li1  1  0.38715500  0.73675100  0.08767900  1
  Li  Li2  1  0.61284500  0.26324900  0.91232100  1
  Li  Li3  1  0.76325200  0.76406800  0.37062100  1
  Co  Co0  1  0.67698100  0.40735200  0.24957500  1
  Co  Co1  1  0.21337400  0.90023500  0.45795300  1
  Co  Co2  1  0.94638900  0.87372000  0.91527100  1
  Co  Co3  1  0.86096200  0.60520500  0.76703900  1
  Co  Co4  1  0.13903800  0.39479500  0.23296100  1
  Co  Co5  1  0.05361100  0.12628000  0.08472900  1
  Co  Co6  1  0.78662600  0.09976500  0.54204700  1
  Co  Co7  1  0.32301900  0.59264800  0.75042500  1
  O  O0  1  0.08396600  0.77523700  0.71658900  1
  O  O1  1  0.91603400  0.22476300  0.28341100  1
  F  F0  1  0.82808600  0.94777900  0.14221600  1
  F  F1  1  0.47173800  0.75490600  0.47950800  1
  F  F2  1  0.78218300  0.35571700  0.00207300  1
  F  F3  1  0.37806400  0.49494800  0.25810500  1
  F  F4  1  0.14103400  0.44946800  0.69370000  1
  F  F5  1  0.23430100  0.90556400  0.21613400  1
  F  F6  1  0.18086000  0.16144700  0.45703000  1
  F  F7  1  0.30648800  0.28818800  0.01290900  1
  F  F8  1  0.69351200  0.71181200  0.98709100  1
  F  F9  1  0.81914000  0.83855300  0.54297000  1
  F  F10  1  0.76569900  0.09443600  0.78386600  1
  F  F11  1  0.85896600  0.55053200  0.30630000  1
  F  F12  1  0.62193600  0.50505200  0.74189500  1
  F  F13  1  0.21781700  0.64428300  0.99792700  1
  F  F14  1  0.52826200  0.24509400  0.52049200  1
  F  F15  1  0.17191400  0.05222100  0.85778400  1
loop_
_geom_bond_atom_site_label_1
_geom_bond_atom_site_label_2
_geom_bond_distance
_geom_bond_site_symmetry_2
Co0 O1 2.018170 1_555
Co0 F3 2.026695 1_555
Co0 F2 2.076897 1_555
Co0 F11 2.087389 1_555
Co0 F14 2.103327 1_555
Co1 O0 1.937927 1_555
Co1 F5 1.963684 1_555
Co1 F1 1.967325 1_555
Co1 F6 2.012286 1_565
Co2 O0 1.918861 1_655
Co2 F0 2.005905 1_556
Co2 F15 2.063555 1_665
Co2 F8 2.091546 1_555
Co2 F10 2.172377 1_565
Co2 F13 2.478049 1_655
Co3 O0 2.020594 1_655
Co3 F12 2.042711 1_555
Co3 F4 2.083175 1_655
Co3 F8 2.124509 1_555
Co3 F9 2.185265 1_555
Co3 F2 2.193588 1_556
Co4 O1 2.020594 1_455
Co4 F3 2.042711 1_555
Co4 F11 2.083175 1_455
Co4 F7 2.124509 1_555
Co4 F6 2.185265 1_555
Co4 F13 2.193588 1_554
Co5 O1 1.918861 1_455
Co5 F15 2.005905 1_554
Co5 F0 2.063555 1_445
Co5 F7 2.091546 1_555
Co5 F5 2.172377 1_545
Co5 F2 2.478049 1_455
Co6 O1 1.937927 1_555
Co6 F10 1.963684 1_555
Co6 F14 1.967325 1_555
Co6 F9 2.012286 1_545
Co7 O0 2.018170 1_555
Co7 F12 2.026695 1_555
Co7 F13 2.076897 1_555
Co7 F4 2.087389 1_555
Co7 F1 2.103327 1_555
F0 Li3 1.885016 1_555
F1 Li3 1.846157 1_555
F2 Li2 1.947919 1_554
F3 Li1 1.921474 1_555
F4 Li0 1.866399 1_555
F5 Li1 1.907239 1_555
F6 Li0 1.918452 1_555
F7 Li2 1.935972 1_554
F8 Li1 1.935972 1_556
F9 Li3 1.918452 1_555
F10 Li2 1.907239 1_555
F11 Li3 1.866399 1_555
F12 Li2 1.921474 1_555
F13 Li1 1.947919 1_556
F14 Li0 1.846157 1_555
F15 Li0 1.885016 1_555
