# generated using pymatgen
data_RbFeO2
_symmetry_space_group_name_H-M   'P 1'
_cell_length_a   5.77939607
_cell_length_b   5.75829318
_cell_length_c   8.31105988
_cell_angle_alpha   90.00039324
_cell_angle_beta   89.99847427
_cell_angle_gamma   90.00593735
_symmetry_Int_Tables_number   1
_chemical_formula_structural   RbFeO2
_chemical_formula_sum   'Rb4 Fe4 O8'
_cell_volume   276.58755818
_cell_formula_units_Z   4
loop_
 _symmetry_equiv_pos_site_id
 _symmetry_equiv_pos_as_xyz
  1  'x, y, z'
loop_
 _atom_site_type_symbol
 _atom_site_label
 _atom_site_symmetry_multiplicity
 _atom_site_fract_x
 _atom_site_fract_y
 _atom_site_fract_z
 _atom_site_occupancy
  Rb  Rb0  1  0.02364213  0.01755322  0.62303521  1
  Rb  Rb1  1  0.47637644  0.51751264  0.12299747  1
  Rb  Rb2  1  0.52362912  0.01755320  0.87695693  1
  Rb  Rb3  1  0.97636908  0.51751325  0.37700808  1
  Fe  Fe0  1  0.03683312  0.00124517  0.12494143  1
  Fe  Fe1  1  0.46323908  0.50116436  0.62483873  1
  Fe  Fe2  1  0.53683254  0.00125728  0.37507225  1
  Fe  Fe3  1  0.96323802  0.50115602  0.87514330  1
  O  O0  1  0.01205713  0.68884867  0.05743258  1
  O  O1  1  0.15720880  0.55269772  0.69719860  1
  O  O2  1  0.34269472  0.05251919  0.19730194  1
  O  O3  1  0.48792758  0.18867975  0.55741883  1
  O  O4  1  0.51209678  0.68887767  0.44257562  1
  O  O5  1  0.65719966  0.55266778  0.80281221  1
  O  O6  1  0.84271492  0.05257956  0.30270104  1
  O  O7  1  0.98793989  0.18865749  0.94256678  1
loop_
_geom_bond_atom_site_label_1
_geom_bond_atom_site_label_2
_geom_bond_distance
_geom_bond_site_symmetry_2
Fe0 O6 1.878458 1_455
Fe0 O7 1.882021 1_454
Fe0 O0 1.889755 1_545
Fe0 O2 1.890381 1_555
Fe1 O5 1.879477 1_555
Fe1 O4 1.882193 1_555
Fe1 O3 1.890007 1_555
Fe1 O1 1.891552 1_555
Fe2 O2 1.878580 1_555
Fe2 O3 1.881853 1_555
Fe2 O4 1.889637 1_545
Fe2 O6 1.890536 1_555
Fe3 O1 1.879315 1_655
Fe3 O0 1.882266 1_656
Fe3 O7 1.890107 1_555
Fe3 O5 1.891531 1_555
O0 Rb3 2.840824 1_455
O0 Rb1 2.910677 1_555
O0 Rb1 3.294581 1_455
O1 Rb0 2.853314 1_565
O1 Rb3 2.866190 1_455
O1 Rb0 3.235903 1_555
O2 Rb1 2.854333 1_555
O2 Rb2 2.867457 1_554
O2 Rb1 3.235673 1_545
O3 Rb2 2.840146 1_555
O3 Rb0 2.909953 1_555
O3 Rb0 3.294694 1_655
O4 Rb1 2.840915 1_555
O4 Rb3 2.910457 1_555
O4 Rb3 3.294914 1_455
O5 Rb2 2.853431 1_565
O5 Rb1 2.866054 1_556
O5 Rb2 3.235715 1_555
O6 Rb3 2.853973 1_555
O6 Rb0 2.867436 1_655
O6 Rb3 3.235983 1_545
O7 Rb0 2.840029 1_655
O7 Rb2 2.910059 1_555
O7 Rb2 3.294480 1_655
