# generated using pymatgen
data_Mn7Sn(PO4)12
_symmetry_space_group_name_H-M   'P 1'
_cell_length_a   8.52922700
_cell_length_b   8.53223424
_cell_length_c   11.89141990
_cell_angle_alpha   89.99377358
_cell_angle_beta   89.95401466
_cell_angle_gamma   89.98644198
_symmetry_Int_Tables_number   1
_chemical_formula_structural   Mn7Sn(PO4)12
_chemical_formula_sum   'Mn7 Sn1 P12 O48'
_cell_volume   865.37830465
_cell_formula_units_Z   1
loop_
 _symmetry_equiv_pos_site_id
 _symmetry_equiv_pos_as_xyz
  1  'x, y, z'
loop_
 _atom_site_type_symbol
 _atom_site_label
 _atom_site_symmetry_multiplicity
 _atom_site_fract_x
 _atom_site_fract_y
 _atom_site_fract_z
 _atom_site_occupancy
  Mn  Mn0  1  0.25016600  0.96464200  0.61608000  1
  Mn  Mn1  1  0.24997600  0.53537500  0.38211300  1
  Mn  Mn2  1  0.24976700  0.03543900  0.11708800  1
  Mn  Mn3  1  0.24935100  0.46559600  0.88284600  1
  Mn  Mn4  1  0.75062400  0.53578700  0.11780100  1
  Mn  Mn5  1  0.75052700  0.96360600  0.88319500  1
  Mn  Mn6  1  0.74979900  0.03535300  0.38171300  1
  Sn  Sn0  1  0.74907000  0.46468000  0.62178700  1
  P  P0  1  0.04262100  0.24722500  0.49721500  1
  P  P1  1  0.46409400  0.75004500  0.00015500  1
  P  P2  1  0.53652600  0.24992500  0.99947800  1
  P  P3  1  0.96637300  0.75553400  0.49796000  1
  P  P4  1  0.10740800  0.39154700  0.14521700  1
  P  P5  1  0.10721500  0.10898300  0.85500000  1
  P  P6  1  0.38534900  0.61091100  0.64601500  1
  P  P7  1  0.39319100  0.89155900  0.35433100  1
  P  P8  1  0.60642500  0.09931600  0.64711800  1
  P  P9  1  0.60331800  0.38958500  0.34956200  1
  P  P10  1  0.89619100  0.60963700  0.86067700  1
  P  P11  1  0.89251900  0.89172100  0.14554400  1
  O  O0  1  0.06099600  0.64311300  0.42291300  1
  O  O1  1  0.06264900  0.86536100  0.57278700  1
  O  O2  1  0.07371300  0.90185000  0.15798700  1
  O  O3  1  0.07731100  0.60404600  0.84720000  1
  O  O4  1  0.15319000  0.15660400  0.57708900  1
  O  O5  1  0.15101200  0.33838200  0.41554400  1
  O  O6  1  0.16051600  0.43798500  0.02737000  1
  O  O7  1  0.15975500  0.06129200  0.97291500  1
  O  O8  1  0.15313500  0.22228700  0.17551200  1
  O  O9  1  0.15228200  0.27835900  0.82495900  1
  O  O10  1  0.17739100  0.51366100  0.22807400  1
  O  O11  1  0.17720800  0.98896100  0.77091800  1
  O  O12  1  0.32103800  0.01193300  0.27144100  1
  O  O13  1  0.31374400  0.48858900  0.72781100  1
  O  O14  1  0.33533600  0.77861800  0.67579000  1
  O  O15  1  0.34757300  0.72234300  0.32415300  1
  O  O16  1  0.33773700  0.56111700  0.52702500  1
  O  O17  1  0.34198500  0.93792000  0.47281700  1
  O  O18  1  0.35364500  0.84110800  0.08047300  1
  O  O19  1  0.35583400  0.65834200  0.91920700  1
  O  O20  1  0.42536700  0.08990300  0.65884300  1
  O  O21  1  0.42246200  0.40150000  0.33518700  1
  O  O22  1  0.44041400  0.14127000  0.07629300  1
  O  O23  1  0.44026600  0.35832700  0.92301700  1
  O  O24  1  0.55992100  0.64098100  0.07644700  1
  O  O25  1  0.55999800  0.85946800  0.92422600  1
  O  O26  1  0.56494100  0.60884300  0.66090200  1
  O  O27  1  0.57456600  0.90131200  0.34174600  1
  O  O28  1  0.64702900  0.34150000  0.07913100  1
  O  O29  1  0.64612000  0.15756800  0.91927400  1
  O  O30  1  0.66078100  0.06044700  0.52759500  1
  O  O31  1  0.65497100  0.43972700  0.46618300  1
  O  O32  1  0.65073200  0.22013600  0.32140600  1
  O  O33  1  0.64765100  0.26662700  0.68237100  1
  O  O34  1  0.67574700  0.51060300  0.26769300  1
  O  O35  1  0.67777100  0.97697000  0.72887000  1
  O  O36  1  0.82048000  0.01359000  0.22746500  1
  O  O37  1  0.82322400  0.48533000  0.78353000  1
  O  O38  1  0.84564800  0.72329600  0.17744200  1
  O  O39  1  0.84840400  0.77742700  0.82727300  1
  O  O40  1  0.84488000  0.56869600  0.97991900  1
  O  O41  1  0.84013600  0.93882300  0.02750800  1
  O  O42  1  0.85851100  0.66947200  0.58078500  1
  O  O43  1  0.85826100  0.84465700  0.41515500  1
  O  O44  1  0.92572100  0.09750400  0.84153200  1
  O  O45  1  0.92620400  0.40184600  0.15907400  1
  O  O46  1  0.94201600  0.14075600  0.42229100  1
  O  O47  1  0.95121800  0.35508700  0.57596200  1
loop_
_geom_bond_atom_site_label_1
_geom_bond_atom_site_label_2
_geom_bond_distance
_geom_bond_site_symmetry_2
Mn0 O1 1.882193 1_555
Mn0 O14 1.884437 1_555
Mn0 O17 1.888230 1_555
Mn0 O4 1.892494 1_565
Mn0 O20 1.906814 1_565
Mn0 O11 1.954135 1_555
Mn1 O16 1.892148 1_555
Mn1 O0 1.917450 1_555
Mn1 O5 1.922385 1_555
Mn1 O15 1.926726 1_555
Mn1 O10 1.942892 1_555
Mn1 O21 1.943836 1_555
Mn2 O7 1.891894 1_554
Mn2 O22 1.922014 1_555
Mn2 O8 1.924121 1_555
Mn2 O18 1.929413 1_545
Mn2 O12 1.944319 1_555
Mn2 O2 1.946802 1_545
Mn3 O6 1.892373 1_556
Mn3 O9 1.926977 1_555
Mn3 O23 1.928174 1_555
Mn3 O19 1.928177 1_555
Mn3 O3 1.930895 1_555
Mn3 O13 1.933207 1_555
Mn4 O40 1.846989 1_554
Mn4 O34 1.905057 1_555
Mn4 O24 1.921864 1_555
Mn4 O38 1.929051 1_555
Mn4 O28 1.934338 1_555
Mn4 O45 1.946753 1_555
Mn5 O41 1.890969 1_556
Mn5 O39 1.913438 1_555
Mn5 O25 1.915124 1_555
Mn5 O29 1.927359 1_565
Mn5 O35 1.941027 1_555
Mn5 O44 1.944989 1_565
Mn6 O30 1.905134 1_555
Mn6 O43 1.913379 1_545
Mn6 O32 1.927187 1_555
Mn6 O46 1.931713 1_555
Mn6 O36 1.939214 1_555
Mn6 O27 1.941586 1_545
O0 P3 1.538339 1_455
O1 P3 1.531621 1_455
O2 P11 1.555055 1_455
O3 P10 1.553698 1_455
O4 P0 1.546059 1_555
O5 P0 1.549693 1_555
O6 P4 1.524779 1_555
O7 P5 1.527511 1_555
O8 P4 1.538621 1_555
O9 P5 1.537456 1_555
O10 P4 1.553741 1_555
O11 P5 1.550409 1_565
O12 P7 1.550999 1_545
O13 P6 1.551606 1_555
O14 P6 1.534414 1_555
O15 P7 1.537954 1_555
O16 P6 1.532534 1_555
O17 P7 1.526911 1_555
O18 P1 1.549745 1_555
O19 P1 1.547037 1_556
O20 P8 1.552552 1_555
O21 P9 1.555441 1_555
O22 P2 1.537795 1_554
O23 P2 1.535218 1_555
O24 P1 1.535469 1_555
O25 P1 1.534595 1_556
O26 P6 1.542214 1_555
O26 Sn0 2.047869 1_555
O27 P7 1.556336 1_555
O28 P2 1.548520 1_554
O29 P2 1.550073 1_555
O30 P8 1.531007 1_555
O31 P9 1.517073 1_555
O31 Sn0 2.028752 1_555
O32 P9 1.538028 1_555
O33 P8 1.529000 1_555
O33 Sn0 2.030334 1_555
O34 P9 1.547480 1_555
O35 P8 1.550967 1_565
O36 P11 1.551350 1_545
O37 P10 1.534689 1_555
O37 Sn0 2.032840 1_555
O38 P11 1.539057 1_555
O39 P10 1.540557 1_555
O40 P10 1.524180 1_555
O41 P11 1.527110 1_555
O42 P3 1.534376 1_555
O42 Sn0 2.040118 1_555
O43 P3 1.548891 1_555
O44 P5 1.559497 1_655
O45 P4 1.556620 1_655
O46 P0 1.535285 1_655
O47 P0 1.526524 1_655
O47 Sn0 2.035164 1_555
