# generated using pymatgen
data_Li4MnV3(PO4)4
_symmetry_space_group_name_H-M   'P 1'
_cell_length_a   6.15041100
_cell_length_b   4.77927700
_cell_length_c   10.54177836
_cell_angle_alpha   89.98509691
_cell_angle_beta   90.00000000
_cell_angle_gamma   90.00000000
_symmetry_Int_Tables_number   1
_chemical_formula_structural   Li4MnV3(PO4)4
_chemical_formula_sum   'Li4 Mn1 V3 P4 O16'
_cell_volume   309.87048141
_cell_formula_units_Z   1
loop_
 _symmetry_equiv_pos_site_id
 _symmetry_equiv_pos_as_xyz
  1  'x, y, z'
loop_
 _atom_site_type_symbol
 _atom_site_label
 _atom_site_symmetry_multiplicity
 _atom_site_fract_x
 _atom_site_fract_y
 _atom_site_fract_z
 _atom_site_occupancy
  Li  Li0  1  0.25075500  0.00004000  0.99969500  1
  Li  Li1  1  0.74924500  0.00004000  0.99969500  1
  Li  Li2  1  0.75107300  0.50063400  0.49906700  1
  Li  Li3  1  0.24892700  0.50063400  0.49906700  1
  Mn  Mn0  1  0.50000000  0.02235800  0.72020500  1
  V  V0  1  0.50000000  0.48214300  0.22376100  1
  V  V1  1  0.00000000  0.51775200  0.77721400  1
  V  V2  1  0.00000000  0.98301000  0.27539400  1
  P  P0  1  0.00000000  0.08540200  0.59289100  1
  P  P1  1  0.00000000  0.41471500  0.09328800  1
  P  P2  1  0.50000000  0.58522300  0.90870200  1
  P  P3  1  0.50000000  0.91389800  0.40577800  1
  O  O0  1  0.00000000  0.20588500  0.45620400  1
  O  O1  1  0.20059100  0.22055500  0.66288000  1
  O  O2  1  0.79940900  0.22055500  0.66288000  1
  O  O3  1  0.50000000  0.23606400  0.40331500  1
  O  O4  1  0.50000000  0.26298800  0.90453300  1
  O  O5  1  0.20091600  0.27931400  0.16295900  1
  O  O6  1  0.79908400  0.27931400  0.16295900  1
  O  O7  1  0.00000000  0.29357100  0.95654700  1
  O  O8  1  0.50000000  0.70789400  0.04528000  1
  O  O9  1  0.70089100  0.71866600  0.83893300  1
  O  O10  1  0.29910900  0.71866600  0.83893300  1
  O  O11  1  0.00000000  0.73666900  0.09709100  1
  O  O12  1  0.00000000  0.76331900  0.59699000  1
  O  O13  1  0.70130900  0.77930900  0.33658500  1
  O  O14  1  0.29869100  0.77930900  0.33658500  1
  O  O15  1  0.50000000  0.79207600  0.54256700  1
loop_
_geom_bond_atom_site_label_1
_geom_bond_atom_site_label_2
_geom_bond_distance
_geom_bond_site_symmetry_2
Li0 O8 2.128390 1_546
Li0 O7 2.133804 1_555
Li0 O10 2.184053 1_545
Li0 O5 2.199731 1_556
Li0 O4 2.221479 1_555
Li0 O11 2.239733 1_546
Li1 O8 2.128390 1_546
Li1 O7 2.133804 1_655
Li1 O9 2.184053 1_545
Li1 O6 2.199731 1_556
Li1 O4 2.221479 1_555
Li1 O11 2.239733 1_646
Li2 O0 2.129054 1_655
Li2 O15 2.129624 1_555
Li2 O13 2.190938 1_555
Li2 O2 2.204785 1_555
Li2 O12 2.233023 1_655
Li2 O3 2.236727 1_555
Li3 O0 2.129054 1_555
Li3 O15 2.129624 1_555
Li3 O14 2.190938 1_555
Li3 O1 2.204785 1_555
Li3 O12 2.233023 1_555
Li3 O3 2.236727 1_555
Mn0 O2 2.157135 1_555
Mn0 O1 2.157135 1_555
Mn0 O15 2.172340 1_545
Mn0 O4 2.258221 1_555
Mn0 O9 2.280093 1_545
Mn0 O10 2.280093 1_545
O0 P0 1.551580 1_555
O0 V2 2.183742 1_545
O1 P0 1.576039 1_555
O1 V1 2.234537 1_555
O2 P0 1.576039 1_655
O2 V1 2.234537 1_655
O3 P3 1.539933 1_545
O3 V0 2.228176 1_555
O4 P2 1.540689 1_555
O5 P1 1.576368 1_555
O5 V0 2.175906 1_555
O5 V2 2.221793 1_545
O6 P1 1.576368 1_655
O6 V0 2.175906 1_555
O6 V2 2.221793 1_645
O7 P1 1.553562 1_556
O7 V1 2.172750 1_555
O8 P2 1.554707 1_554
O8 V0 2.168662 1_555
O9 P2 1.572912 1_555
O9 V1 2.174847 1_655
O10 P2 1.572912 1_555
O10 V1 2.174847 1_555
O11 P1 1.539240 1_555
O11 V2 2.218169 1_555
O12 P0 1.539919 1_565
O12 V1 2.232891 1_555
O13 P3 1.574491 1_555
O13 V2 2.176787 1_655
O13 V0 2.228345 1_555
O14 P3 1.574491 1_555
O14 V2 2.176787 1_555
O14 V0 2.228345 1_555
O15 P3 1.554962 1_555
