# generated using pymatgen
data_Fe6O11F
_symmetry_space_group_name_H-M   'P 1'
_cell_length_a   4.62055703
_cell_length_b   4.62055703
_cell_length_c   8.98599800
_cell_angle_alpha   90.00000000
_cell_angle_beta   90.00000000
_cell_angle_gamma   91.40251782
_symmetry_Int_Tables_number   1
_chemical_formula_structural   Fe6O11F
_chemical_formula_sum   'Fe6 O11 F1'
_cell_volume   191.78951499
_cell_formula_units_Z   1
loop_
 _symmetry_equiv_pos_site_id
 _symmetry_equiv_pos_as_xyz
  1  'x, y, z'
loop_
 _atom_site_type_symbol
 _atom_site_label
 _atom_site_symmetry_multiplicity
 _atom_site_fract_x
 _atom_site_fract_y
 _atom_site_fract_z
 _atom_site_occupancy
  Fe  Fe0  1  0.99319400  0.00680600  0.82667200  1
  Fe  Fe1  1  0.99691100  0.00308900  0.50000000  1
  Fe  Fe2  1  0.99319400  0.00680600  0.17332800  1
  Fe  Fe3  1  0.49679100  0.50320900  0.66574500  1
  Fe  Fe4  1  0.51976200  0.48023800  0.00000000  1
  Fe  Fe5  1  0.49679100  0.50320900  0.33425500  1
  O  O0  1  0.80520700  0.19479300  0.65947600  1
  O  O1  1  0.80520700  0.19479300  0.34052400  1
  O  O2  1  0.81994700  0.18005300  0.00000000  1
  O  O3  1  0.31023600  0.30622600  0.83341200  1
  O  O4  1  0.30480700  0.31354200  0.50000000  1
  O  O5  1  0.31023600  0.30622600  0.16658800  1
  O  O6  1  0.69377400  0.68976400  0.83341200  1
  O  O7  1  0.68645800  0.69519300  0.50000000  1
  O  O8  1  0.69377400  0.68976400  0.16658800  1
  O  O9  1  0.18569300  0.81430700  0.66309000  1
  O  O10  1  0.18569300  0.81430700  0.33691000  1
  F  F0  1  0.20232600  0.79767400  0.00000000  1
loop_
_geom_bond_atom_site_label_1
_geom_bond_atom_site_label_2
_geom_bond_distance
_geom_bond_site_symmetry_2
Fe0 O2 1.933609 1_556
Fe0 O9 1.944666 1_645
Fe0 O0 1.950168 1_555
Fe0 O6 1.991095 1_545
Fe0 O3 1.991095 1_655
Fe1 O0 1.913440 1_555
Fe1 O1 1.913440 1_555
Fe1 O10 1.925293 1_645
Fe1 O9 1.925293 1_645
Fe1 O7 1.995427 1_545
Fe1 O4 1.995427 1_655
Fe2 O2 1.933609 1_555
Fe2 O10 1.944666 1_645
Fe2 O1 1.950168 1_555
Fe2 O8 1.991095 1_545
Fe2 O5 1.991095 1_655
Fe3 O7 1.932648 1_555
Fe3 O4 1.932648 1_555
Fe3 O6 1.950138 1_555
Fe3 O3 1.950138 1_555
Fe3 O0 2.040623 1_555
Fe3 O9 2.057722 1_555
Fe4 O8 1.945898 1_555
Fe4 O5 1.945898 1_555
Fe4 O6 1.945898 1_554
Fe4 O3 1.945898 1_554
Fe4 O2 1.985406 1_555
Fe5 O7 1.932648 1_555
Fe5 O4 1.932648 1_555
Fe5 O8 1.950138 1_555
Fe5 O5 1.950138 1_555
Fe5 O1 2.040623 1_555
Fe5 O10 2.057722 1_555
F0 Fe2 2.083048 1_465
F0 Fe0 2.083048 1_464
F0 Fe4 2.099503 1_555
