# generated using pymatgen
data_BaSr2I6
_symmetry_space_group_name_H-M   'P 1'
_cell_length_a   9.98115800
_cell_length_b   9.98836300
_cell_length_c   18.22912174
_cell_angle_alpha   63.06073579
_cell_angle_beta   90.00000000
_cell_angle_gamma   90.00000000
_symmetry_Int_Tables_number   1
_chemical_formula_structural   BaSr2I6
_chemical_formula_sum   'Ba4 Sr8 I24'
_cell_volume   1620.15341184
_cell_formula_units_Z   4
loop_
 _symmetry_equiv_pos_site_id
 _symmetry_equiv_pos_as_xyz
  1  'x, y, z'
loop_
 _atom_site_type_symbol
 _atom_site_label
 _atom_site_symmetry_multiplicity
 _atom_site_fract_x
 _atom_site_fract_y
 _atom_site_fract_z
 _atom_site_occupancy
  Ba  Ba0  1  0.69008300  0.91382400  0.41466900  1
  Ba  Ba1  1  0.19008300  0.08617600  0.08533100  1
  Ba  Ba2  1  0.80991700  0.91382400  0.91466900  1
  Ba  Ba3  1  0.30991700  0.08617600  0.58533100  1
  Sr  Sr0  1  0.66378600  0.31232700  0.08143600  1
  Sr  Sr1  1  0.95953200  0.62554200  0.74339200  1
  Sr  Sr2  1  0.45953200  0.37445800  0.75660800  1
  Sr  Sr3  1  0.16378600  0.68767300  0.41856400  1
  Sr  Sr4  1  0.83621400  0.31232700  0.58143600  1
  Sr  Sr5  1  0.54046800  0.62554200  0.24339200  1
  Sr  Sr6  1  0.04046800  0.37445800  0.25660800  1
  Sr  Sr7  1  0.33621400  0.68767300  0.91856400  1
  I  I0  1  0.34634500  0.95031300  0.43680700  1
  I  I1  1  0.30598300  0.69336300  0.72393100  1
  I  I2  1  0.66986500  0.61435800  0.87812000  1
  I  I3  1  0.97135800  0.77273100  0.54299400  1
  I  I4  1  0.09434400  0.44370200  0.92224700  1
  I  I5  1  0.01880100  0.03512600  0.27405600  1
  I  I6  1  0.51880100  0.96487400  0.22594400  1
  I  I7  1  0.47135800  0.22726900  0.95700600  1
  I  I8  1  0.59434400  0.55629800  0.57775300  1
  I  I9  1  0.16986500  0.38564200  0.62188000  1
  I  I10  1  0.80598300  0.30663700  0.77606900  1
  I  I11  1  0.84634500  0.04968700  0.06319300  1
  I  I12  1  0.15365500  0.95031300  0.93680700  1
  I  I13  1  0.19401700  0.69336300  0.22393100  1
  I  I14  1  0.83013500  0.61435800  0.37812000  1
  I  I15  1  0.40565600  0.44370200  0.42224700  1
  I  I16  1  0.52864200  0.77273100  0.04299400  1
  I  I17  1  0.48119900  0.03512600  0.77405600  1
  I  I18  1  0.98119900  0.96487400  0.72594400  1
  I  I19  1  0.90565600  0.55629800  0.07775300  1
  I  I20  1  0.02864200  0.22726900  0.45700600  1
  I  I21  1  0.33013500  0.38564200  0.12188000  1
  I  I22  1  0.69401700  0.30663700  0.27606900  1
  I  I23  1  0.65365500  0.04968700  0.56319300  1
loop_
_geom_bond_atom_site_label_1
_geom_bond_atom_site_label_2
_geom_bond_distance
_geom_bond_site_symmetry_2
Ba0 I0 3.492858 1_555
Ba0 I3 3.514666 1_555
Ba0 I23 3.554329 1_565
Ba0 I22 3.577314 1_565
Ba0 I8 3.589489 1_555
Ba0 I14 3.626408 1_555
Ba0 I6 3.664536 1_555
Ba0 I5 3.998639 1_665
Ba1 I11 3.492858 1_455
Ba1 I7 3.514666 1_554
Ba1 I12 3.554329 1_544
Ba1 I13 3.577314 1_545
Ba1 I4 3.589489 1_554
Ba1 I21 3.626408 1_555
Ba1 I5 3.664536 1_555
Ba1 I6 3.998639 1_545
Ba2 I12 3.492858 1_655
Ba2 I16 3.514666 1_556
Ba2 I11 3.554329 1_566
Ba2 I10 3.577314 1_565
Ba2 I19 3.589489 1_556
Ba2 I2 3.626408 1_555
Ba2 I18 3.664536 1_555
Ba2 I17 3.998639 1_565
Ba3 I23 3.492858 1_555
Ba3 I20 3.514666 1_555
Ba3 I0 3.554329 1_545
Ba3 I1 3.577314 1_545
Ba3 I15 3.589489 1_555
Ba3 I9 3.626408 1_555
Ba3 I17 3.664536 1_555
Ba3 I18 3.998639 1_445
I0 Sr3 3.332151 1_555
I1 Sr2 3.336289 1_555
I1 Sr1 3.510647 1_455
I1 Sr7 3.535504 1_555
I2 Sr7 3.558003 1_555
I2 Sr0 3.565126 1_556
I2 Sr1 3.762286 1_555
I3 Sr1 3.264050 1_555
I3 Sr3 3.361813 1_655
I4 Sr1 3.220843 1_455
I4 Sr7 3.409207 1_555
I5 Sr6 3.264809 1_555
I5 Sr3 3.576885 1_545
I6 Sr5 3.264809 1_555
I6 Sr0 3.576885 1_565
I7 Sr2 3.264050 1_555
I7 Sr0 3.361813 1_556
I8 Sr2 3.220843 1_555
I8 Sr4 3.409207 1_555
I9 Sr4 3.558003 1_455
I9 Sr3 3.565126 1_555
I9 Sr2 3.762286 1_555
I10 Sr1 3.336289 1_555
I10 Sr2 3.510647 1_555
I10 Sr4 3.535504 1_555
I11 Sr0 3.332151 1_555
I12 Sr7 3.332151 1_555
I13 Sr6 3.336289 1_555
I13 Sr5 3.510647 1_555
I13 Sr3 3.535504 1_555
I14 Sr3 3.558003 1_655
I14 Sr4 3.565126 1_555
I14 Sr5 3.762286 1_555
I15 Sr5 3.220843 1_555
I15 Sr3 3.409207 1_555
I16 Sr5 3.264050 1_555
I16 Sr7 3.361813 1_554
I17 Sr2 3.264809 1_555
I17 Sr7 3.576885 1_545
I18 Sr1 3.264809 1_555
I18 Sr4 3.576885 1_565
I19 Sr6 3.220843 1_655
I19 Sr0 3.409207 1_555
I20 Sr6 3.264050 1_555
I20 Sr4 3.361813 1_455
I21 Sr0 3.558003 1_555
I21 Sr7 3.565126 1_554
I21 Sr6 3.762286 1_555
I22 Sr5 3.336289 1_555
I22 Sr6 3.510647 1_655
I22 Sr0 3.535504 1_555
I23 Sr4 3.332151 1_555
