# generated using pymatgen
data_Li3Mn(CO3)4
_symmetry_space_group_name_H-M   'P 1'
_cell_length_a   11.55772678
_cell_length_b   9.85682971
_cell_length_c   8.49489511
_cell_angle_alpha   90.00000000
_cell_angle_beta   92.10414704
_cell_angle_gamma   90.00000000
_symmetry_Int_Tables_number   1
_chemical_formula_structural   Li3Mn(CO3)4
_chemical_formula_sum   'Li12 Mn4 C16 O48'
_cell_volume   967.10754508
_cell_formula_units_Z   4
loop_
 _symmetry_equiv_pos_site_id
 _symmetry_equiv_pos_as_xyz
  1  'x, y, z'
loop_
 _atom_site_type_symbol
 _atom_site_label
 _atom_site_symmetry_multiplicity
 _atom_site_fract_x
 _atom_site_fract_y
 _atom_site_fract_z
 _atom_site_occupancy
  Li  Li0  1  0.20912759  0.92098637  0.68102219  1
  Li  Li1  1  0.20912759  0.57901363  0.18102219  1
  Li  Li2  1  0.34035388  0.66020699  0.51881476  1
  Li  Li3  1  0.34035388  0.83979301  0.01881476  1
  Li  Li4  1  0.65868323  0.16103312  0.96799616  1
  Li  Li5  1  0.65868323  0.33896688  0.46799616  1
  Li  Li6  1  0.76883761  0.40289254  0.80105723  1
  Li  Li7  1  0.76883761  0.09710746  0.30105723  1
  Li  Li8  1  0.86109507  0.64014237  0.93901452  1
  Li  Li9  1  0.86109507  0.85985763  0.43901452  1
  Li  Li10  1  0.92837216  0.12341069  0.94123025  1
  Li  Li11  1  0.92837216  0.37658931  0.44123025  1
  Mn  Mn0  1  0.26919056  0.41447526  0.75095202  1
  Mn  Mn1  1  0.26919056  0.08552474  0.25095202  1
  Mn  Mn2  1  0.72545098  0.89058684  0.76880111  1
  Mn  Mn3  1  0.72545098  0.60941316  0.26880111  1
  C  C0  1  0.01744500  0.38167688  0.76649780  1
  C  C1  1  0.01744500  0.11832312  0.26649780  1
  C  C2  1  0.22077498  0.64749177  0.84352924  1
  C  C3  1  0.22077498  0.85250823  0.34352924  1
  C  C4  1  0.28939544  0.14185659  0.89060348  1
  C  C5  1  0.28939544  0.35814341  0.39060348  1
  C  C6  1  0.48016892  0.85810380  0.74200221  1
  C  C7  1  0.48016892  0.64189620  0.24200221  1
  C  C8  1  0.51966235  0.35930601  0.75544490  1
  C  C9  1  0.51966235  0.14069399  0.25544490  1
  C  C10  1  0.72032817  0.64089664  0.61462644  1
  C  C11  1  0.72032817  0.85910336  0.11462644  1
  C  C12  1  0.79204833  0.13971105  0.63474968  1
  C  C13  1  0.79204833  0.36028895  0.13474968  1
  C  C14  1  0.97118634  0.89082961  0.75166454  1
  C  C15  1  0.97118634  0.60917039  0.25166454  1
  O  O0  1  0.99571305  0.84135480  0.61935716  1
  O  O1  1  0.99571305  0.65864520  0.11935716  1
  O  O2  1  0.02517961  0.98857319  0.81570239  1
  O  O3  1  0.02517961  0.51142681  0.31570239  1
  O  O4  1  0.11135647  0.36699868  0.68391354  1
  O  O5  1  0.11135647  0.13300132  0.18391354  1
  O  O6  1  0.20836852  0.76991420  0.87820967  1
  O  O7  1  0.20897822  0.54423694  0.93702320  1
  O  O8  1  0.20836852  0.73008580  0.37820967  1
  O  O9  1  0.20897822  0.95576306  0.43702320  1
  O  O10  1  0.25040100  0.61028758  0.70204170  1
  O  O11  1  0.25040100  0.88971242  0.20204170  1
  O  O12  1  0.27158112  0.27029301  0.90542172  1
  O  O13  1  0.27158112  0.22970699  0.40542172  1
  O  O14  1  0.29417381  0.07983911  0.76190715  1
  O  O15  1  0.29417381  0.42016089  0.26190715  1
  O  O16  1  0.30628181  0.07095256  0.01953748  1
  O  O17  1  0.30628181  0.42904744  0.51953748  1
  O  O18  1  0.40018675  0.83309846  0.63930377  1
  O  O19  1  0.40018675  0.66690154  0.13930277  1
  O  O20  1  0.43502920  0.43345538  0.80402819  1
  O  O21  1  0.43502920  0.06654462  0.30402819  1
  O  O22  1  0.52313072  0.31587111  0.61464072  1
  O  O23  1  0.52313072  0.18412889  0.11464072  1
  O  O24  1  0.47480215  0.80913204  0.88005713  1
  O  O25  1  0.47480215  0.69086796  0.38005713  1
  O  O26  1  0.56694343  0.93571616  0.70540111  1
  O  O27  1  0.56694343  0.56428384  0.20540111  1
  O  O28  1  0.60469493  0.33188368  0.85136293  1
  O  O29  1  0.60469493  0.16811632  0.35136293  1
  O  O30  1  0.70034767  0.55785163  0.49749137  1
  O  O31  1  0.70034767  0.94214837  0.99749137  1
  O  O32  1  0.72787771  0.59888935  0.75489460  1
  O  O33  1  0.72787771  0.90111065  0.25489460  1
  O  O34  1  0.73093182  0.77050365  0.58042055  1
  O  O35  1  0.73093182  0.72949635  0.08042055  1
  O  O36  1  0.77432510  0.10087614  0.78121253  1
  O  O37  1  0.77432510  0.39912386  0.28121253  1
  O  O38  1  0.80292137  0.04730158  0.53106714  1
  O  O39  1  0.79601416  0.26763193  0.60496077  1
  O  O40  1  0.80292137  0.45269842  0.03106714  1
  O  O41  1  0.79601416  0.23236807  0.10496077  1
  O  O42  1  0.88318057  0.83499184  0.82912461  1
  O  O43  1  0.88318057  0.66500816  0.32912461  1
  O  O44  1  0.95150761  0.48070789  0.72819775  1
  O  O45  1  0.95150761  0.01929211  0.22819775  1
  O  O46  1  0.99275360  0.29531199  0.86904727  1
  O  O47  1  0.99275360  0.20468801  0.36904727  1
loop_
_geom_bond_atom_site_label_1
_geom_bond_atom_site_label_2
_geom_bond_distance
_geom_bond_site_symmetry_2
Li0 O14 1.959688 1_565
Li0 O9 2.100838 1_555
Li0 O6 2.241533 1_555
Li0 O18 2.410336 1_555
Li0 O2 2.539949 1_555
Li0 O0 2.622912 1_455
Li1 O15 1.959688 1_555
Li1 O7 2.100838 1_554
Li1 O8 2.241533 1_555
Li1 O19 2.410338 1_555
Li1 O3 2.539949 1_555
Li1 O1 2.622912 1_455
Li2 O10 1.965829 1_555
Li2 O25 2.007462 1_555
Li2 O8 2.023432 1_555
Li2 O18 2.092378 1_555
Li2 O17 2.312327 1_555
Li3 O11 1.965829 1_555
Li3 O24 2.007462 1_554
Li3 O6 2.023432 1_554
Li3 O19 2.092374 1_555
Li3 O16 2.312327 1_565
Li4 O28 2.040005 1_555
Li4 O23 2.049748 1_556
Li4 O41 2.057142 1_556
Li4 O36 2.193480 1_555
Li4 O31 2.222758 1_545
Li5 O29 2.040005 1_555
Li5 O22 2.049748 1_555
Li5 O39 2.057142 1_555
Li5 O37 2.193480 1_555
Li5 O30 2.222758 1_555
Li6 O32 2.023987 1_555
Li6 O40 2.038979 1_556
Li6 O28 2.081128 1_555
Li6 O39 2.165540 1_555
Li6 O44 2.350472 1_555
Li7 O33 2.023987 1_545
Li7 O38 2.038979 1_555
Li7 O29 2.081128 1_555
Li7 O41 2.165540 1_555
Li7 O45 2.350472 1_555
Li8 O40 2.125040 1_556
Li8 O35 2.148153 1_556
Li8 O1 2.150810 1_556
Li8 O42 2.154711 1_555
Li8 O32 2.192144 1_555
Li9 O38 2.125040 1_565
Li9 O34 2.148153 1_555
Li9 O0 2.150810 1_555
Li9 O43 2.154711 1_555
Li9 O33 2.192144 1_555
Li10 O46 1.958109 1_555
Li10 O2 2.059858 1_645
Li10 O36 2.211187 1_555
Li10 O41 2.363123 1_556
Li11 O47 1.958109 1_555
Li11 O3 2.059858 1_655
Li11 O37 2.211187 1_555
Li11 O39 2.363123 1_555
Mn0 O12 1.933839 1_555
Mn0 O4 1.948009 1_555
Mn0 O20 1.961794 1_555
Mn0 O10 1.984542 1_555
Mn0 O17 2.032443 1_555
Mn0 O7 2.167830 1_555
Mn1 O13 1.933839 1_555
Mn1 O5 1.948009 1_555
Mn1 O21 1.961794 1_555
Mn1 O11 1.984542 1_545
Mn1 O16 2.032443 1_555
Mn1 O9 2.167830 1_545
Mn2 O26 1.942077 1_555
Mn2 O42 1.953869 1_555
Mn2 O34 1.993322 1_555
Mn2 O31 2.039106 1_555
Mn2 O36 2.149946 1_565
Mn3 O27 1.942077 1_555
Mn3 O43 1.953869 1_555
Mn3 O35 1.993322 1_555
Mn3 O30 2.039106 1_555
Mn3 O37 2.149946 1_555
C0 O46 1.258283 1_455
C0 O44 1.273286 1_455
C0 O4 1.321784 1_555
C1 O47 1.258283 1_455
C1 O45 1.273286 1_455
C1 O5 1.321784 1_555
C2 O6 1.251628 1_555
C2 O7 1.301221 1_555
C2 O10 1.313987 1_555
C3 O8 1.251628 1_555
C3 O9 1.301221 1_555
C3 O11 1.313987 1_555
C4 O14 1.255543 1_555
C4 O12 1.289510 1_555
C4 O16 1.307853 1_556
C5 O15 1.255543 1_555
C5 O13 1.289510 1_555
C5 O17 1.307853 1_555
C6 O18 1.271680 1_555
C6 O24 1.271835 1_555
C6 O26 1.307920 1_555
C7 O19 1.271685 1_555
C7 O25 1.271835 1_555
C7 O27 1.307920 1_555
C8 O22 1.272446 1_555
C8 O28 1.282202 1_555
C8 O20 1.300372 1_555
C9 O23 1.272446 1_555
C9 O29 1.282202 1_555
C9 O21 1.300372 1_555
C10 O32 1.261446 1_555
C10 O30 1.302544 1_555
C10 O34 1.316857 1_555
C11 O33 1.261446 1_555
C11 O31 1.302544 1_554
C11 O35 1.316857 1_555
C12 O38 1.276462 1_555
C12 O39 1.287184 1_555
C12 O36 1.324840 1_555
C13 O40 1.276462 1_555
C13 O41 1.287184 1_555
C13 O37 1.324840 1_555
C14 O2 1.260416 1_655
C14 O0 1.266809 1_555
C14 O42 1.348941 1_555
C15 O3 1.260416 1_655
C15 O1 1.266809 1_555
C15 O43 1.348941 1_555
