# generated using pymatgen
data_Li3VO3F
_symmetry_space_group_name_H-M   'P 1'
_cell_length_a   5.16206500
_cell_length_b   7.77289093
_cell_length_c   7.78838056
_cell_angle_alpha   97.88218925
_cell_angle_beta   102.90545006
_cell_angle_gamma   103.10474612
_symmetry_Int_Tables_number   1
_chemical_formula_structural   Li3VO3F
_chemical_formula_sum   'Li12 V4 O12 F4'
_cell_volume   290.81444015
_cell_formula_units_Z   4
loop_
 _symmetry_equiv_pos_site_id
 _symmetry_equiv_pos_as_xyz
  1  'x, y, z'
loop_
 _atom_site_type_symbol
 _atom_site_label
 _atom_site_symmetry_multiplicity
 _atom_site_fract_x
 _atom_site_fract_y
 _atom_site_fract_z
 _atom_site_occupancy
  Li  Li0  1  0.50287600  0.37008400  0.13289400  1
  Li  Li1  1  0.53463800  0.12644200  0.38354300  1
  Li  Li2  1  0.00000000  0.50000000  0.00000000  1
  Li  Li3  1  0.50000000  0.50000000  0.50000000  1
  Li  Li4  1  0.50000000  0.00000000  0.00000000  1
  Li  Li5  1  0.48546600  0.73474900  0.24790100  1
  Li  Li6  1  0.51453400  0.26525100  0.75209900  1
  Li  Li7  1  0.01015100  0.61621600  0.38438700  1
  Li  Li8  1  0.98984900  0.38378400  0.61561300  1
  Li  Li9  1  0.46536200  0.87355800  0.61645700  1
  Li  Li10  1  0.49712400  0.62991600  0.86710600  1
  Li  Li11  1  0.00000000  0.00000000  0.50000000  1
  V  V0  1  0.98835700  0.26984500  0.24087800  1
  V  V1  1  0.02696000  0.88840800  0.14527200  1
  V  V2  1  0.97304000  0.11159200  0.85472800  1
  V  V3  1  0.01164300  0.73015500  0.75912200  1
  O  O0  1  0.77099700  0.24799600  0.00052200  1
  O  O1  1  0.79513100  0.01522800  0.24810700  1
  O  O2  1  0.21802600  0.12045700  0.10976800  1
  O  O3  1  0.76287600  0.36128400  0.36264100  1
  O  O4  1  0.76077500  0.12632700  0.64779800  1
  O  O5  1  0.23996300  0.47688000  0.24887300  1
  O  O6  1  0.76003700  0.52312000  0.75112700  1
  O  O7  1  0.23922500  0.87367300  0.35220200  1
  O  O8  1  0.23712400  0.63871600  0.63735900  1
  O  O9  1  0.78197400  0.87954300  0.89023200  1
  O  O10  1  0.20486900  0.98477200  0.75189300  1
  O  O11  1  0.22900300  0.75200400  0.99947800  1
  F  F0  1  0.74893900  0.63942900  0.12555700  1
  F  F1  1  0.25469700  0.25405700  0.50157300  1
  F  F2  1  0.74530300  0.74594300  0.49842700  1
  F  F3  1  0.25106100  0.36057100  0.87444300  1
loop_
_geom_bond_atom_site_label_1
_geom_bond_atom_site_label_2
_geom_bond_distance
_geom_bond_site_symmetry_2
Li0 O3 2.002565 1_555
Li0 O5 2.049331 1_555
Li0 O2 2.109856 1_555
Li0 O0 2.200841 1_555
Li1 O3 1.984599 1_555
Li1 O4 2.127518 1_555
Li1 O1 2.139792 1_555
Li1 O7 2.142152 1_545
Li1 O2 2.366757 1_555
Li2 O11 2.046619 1_554
Li2 O0 2.046619 1_455
Li2 O5 2.108969 1_555
Li2 O6 2.108969 1_454
Li3 O6 2.069069 1_555
Li3 O5 2.069069 1_555
Li3 O3 2.268042 1_555
Li3 O8 2.268042 1_555
Li4 O0 2.108381 1_555
Li4 O11 2.108381 1_544
Li4 O1 2.146973 1_555
Li4 O10 2.146973 1_544
Li4 O2 2.163451 1_555
Li4 O9 2.163451 1_544
Li5 O7 2.069961 1_555
Li5 O5 2.116662 1_555
Li5 O11 2.126422 1_554
Li5 O1 2.392866 1_565
Li6 O4 2.069961 1_555
Li6 O6 2.116662 1_555
Li6 O0 2.126422 1_556
Li6 O10 2.392866 1_545
Li7 O8 2.016589 1_555
Li7 O3 2.061309 1_455
Li7 O5 2.126647 1_555
Li7 O7 2.159349 1_555
Li8 O3 2.016589 1_555
Li8 O8 2.061309 1_655
Li8 O6 2.126647 1_555
Li8 O4 2.159349 1_555
Li9 O8 1.984599 1_555
Li9 O7 2.127518 1_555
Li9 O10 2.139792 1_555
Li9 O4 2.142152 1_565
Li9 O9 2.366757 1_555
Li10 O8 2.002565 1_555
Li10 O6 2.049331 1_555
Li10 O9 2.109856 1_555
Li10 O11 2.200841 1_555
Li11 O10 2.043263 1_545
Li11 O1 2.043263 1_455
Li11 O4 2.165410 1_455
Li11 O7 2.165410 1_545
O0 V0 1.918405 1_555
O0 V2 2.049756 1_554
O1 V1 1.947268 1_645
O1 V0 2.018769 1_555
O2 V1 1.937644 1_545
O2 V2 2.085784 1_454
O2 V0 2.153238 1_455
O3 V0 1.855425 1_555
O4 V2 1.769144 1_555
O5 V0 1.808063 1_455
O6 V3 1.808063 1_655
O7 V1 1.769144 1_555
O8 V3 1.855425 1_555
O9 V2 1.937644 1_565
O9 V1 2.085784 1_656
O9 V3 2.153238 1_655
O10 V2 1.947268 1_465
O10 V3 2.018769 1_555
O11 V3 1.918405 1_555
O11 V1 2.049756 1_556
F0 Li5 2.036878 1_555
F0 V1 2.095040 1_655
F0 Li10 2.119860 1_554
F0 Li2 2.173188 1_655
F0 Li0 2.204343 1_555
F0 Li7 2.215931 1_655
F1 Li3 2.042985 1_555
F1 Li6 2.084532 1_555
F1 Li11 2.106476 1_555
F1 Li8 2.143990 1_455
F1 Li1 2.215967 1_555
F1 V0 2.219397 1_455
F2 Li3 2.042985 1_555
F2 Li5 2.084532 1_555
F2 Li11 2.106476 1_665
F2 Li7 2.143990 1_655
F2 Li9 2.215967 1_555
F2 V3 2.219397 1_655
F3 Li6 2.036878 1_555
F3 V2 2.095040 1_455
F3 Li0 2.119860 1_556
F3 Li2 2.173188 1_556
F3 Li10 2.204343 1_555
F3 Li8 2.215931 1_455
