# generated using pymatgen
data_Na3Au(SO2)4
_symmetry_space_group_name_H-M   'P 1'
_cell_length_a   10.87045000
_cell_length_b   5.74633000
_cell_length_c   18.26514059
_cell_angle_alpha   80.14488674
_cell_angle_beta   90.00000000
_cell_angle_gamma   90.00000000
_symmetry_Int_Tables_number   1
_chemical_formula_structural   Na3Au(SO2)4
_chemical_formula_sum   'Na12 Au4 S16 O32'
_cell_volume   1124.09956320
_cell_formula_units_Z   4
loop_
 _symmetry_equiv_pos_site_id
 _symmetry_equiv_pos_as_xyz
  1  'x, y, z'
loop_
 _atom_site_type_symbol
 _atom_site_label
 _atom_site_symmetry_multiplicity
 _atom_site_fract_x
 _atom_site_fract_y
 _atom_site_fract_z
 _atom_site_occupancy
  Na  Na0  1  0.18734200  0.61892400  0.71087800  1
  Na  Na1  1  0.68734200  0.38107600  0.78912200  1
  Na  Na2  1  0.81265800  0.38107600  0.28912200  1
  Na  Na3  1  0.31265800  0.61892400  0.21087800  1
  Na  Na4  1  0.89276900  0.68399700  0.62716100  1
  Na  Na5  1  0.39276900  0.31600300  0.87283900  1
  Na  Na6  1  0.10723100  0.31600300  0.37283900  1
  Na  Na7  1  0.60723100  0.68399700  0.12716100  1
  Na  Na8  1  0.61017700  0.79301600  0.90545200  1
  Na  Na9  1  0.11017700  0.20698400  0.59454800  1
  Na  Na10  1  0.38982300  0.20698400  0.09454800  1
  Na  Na11  1  0.88982300  0.79301600  0.40545200  1
  Au  Au0  1  0.47144800  0.81469100  0.57226200  1
  Au  Au1  1  0.97144800  0.18530900  0.92773800  1
  Au  Au2  1  0.52855200  0.18530900  0.42773800  1
  Au  Au3  1  0.02855200  0.81469100  0.07226200  1
  S  S0  1  0.61259800  0.90947900  0.65909200  1
  S  S1  1  0.11259800  0.09052100  0.84090800  1
  S  S2  1  0.38740200  0.09052100  0.34090800  1
  S  S3  1  0.88740200  0.90947900  0.15909200  1
  S  S4  1  0.32964300  0.57870700  0.52407700  1
  S  S5  1  0.82964300  0.42129300  0.97592300  1
  S  S6  1  0.67035700  0.42129300  0.47592300  1
  S  S7  1  0.17035700  0.57870700  0.02407700  1
  S  S8  1  0.15706200  0.79293000  0.50387700  1
  S  S9  1  0.65706200  0.20707000  0.99612300  1
  S  S10  1  0.84293800  0.20707000  0.49612300  1
  S  S11  1  0.34293800  0.79293000  0.00387700  1
  S  S12  1  0.47805900  0.86594900  0.75450300  1
  S  S13  1  0.97805900  0.13405100  0.74549700  1
  S  S14  1  0.52194100  0.13405100  0.24549700  1
  S  S15  1  0.02194100  0.86594900  0.25450300  1
  O  O0  1  0.09722200  0.73299400  0.57778000  1
  O  O1  1  0.59722200  0.26700600  0.92222000  1
  O  O2  1  0.90277800  0.26700600  0.42222000  1
  O  O3  1  0.40277800  0.73299400  0.07778000  1
  O  O4  1  0.09378200  0.69010300  0.44550800  1
  O  O5  1  0.59378200  0.30989700  0.05449200  1
  O  O6  1  0.90621800  0.30989700  0.55449200  1
  O  O7  1  0.40621800  0.69010300  0.94550800  1
  O  O8  1  0.17652800  0.05105200  0.48320400  1
  O  O9  1  0.67652800  0.94894800  0.01679600  1
  O  O10  1  0.82347200  0.94894800  0.51679600  1
  O  O11  1  0.32347200  0.05105200  0.98320400  1
  O  O12  1  0.51738000  0.04997500  0.79794300  1
  O  O13  1  0.01738000  0.95002500  0.70205700  1
  O  O14  1  0.48262000  0.95002500  0.20205700  1
  O  O15  1  0.98262000  0.04997500  0.29794300  1
  O  O16  1  0.34975800  0.88854400  0.73008700  1
  O  O17  1  0.84975800  0.11145600  0.76991300  1
  O  O18  1  0.65024200  0.11145600  0.26991300  1
  O  O19  1  0.15024200  0.88854400  0.23008700  1
  O  O20  1  0.51046600  0.62669300  0.79466500  1
  O  O21  1  0.01046600  0.37330700  0.70533500  1
  O  O22  1  0.48953400  0.37330700  0.20533500  1
  O  O23  1  0.98953400  0.62669300  0.29466500  1
  O  O24  1  0.69872200  0.69613200  0.68107400  1
  O  O25  1  0.19872200  0.30386800  0.81892600  1
  O  O26  1  0.30127800  0.30386800  0.31892600  1
  O  O27  1  0.80127800  0.69613200  0.18107400  1
  O  O28  1  0.79140900  0.59027600  0.90487100  1
  O  O29  1  0.29140900  0.40972400  0.59512900  1
  O  O30  1  0.20859100  0.40972400  0.09512900  1
  O  O31  1  0.70859100  0.59027600  0.40487100  1
loop_
_geom_bond_atom_site_label_1
_geom_bond_atom_site_label_2
_geom_bond_distance
_geom_bond_site_symmetry_2
Na0 O21 2.397512 1_555
Na0 O16 2.413856 1_555
Na0 O25 2.442255 1_555
Na0 O0 2.598827 1_555
Na0 O13 2.637131 1_555
Na0 O29 2.839820 1_555
Na1 O20 2.397512 1_555
Na1 O17 2.413856 1_555
Na1 O24 2.442255 1_555
Na1 O1 2.598827 1_555
Na1 O12 2.637131 1_555
Na1 O28 2.839820 1_555
Na2 O23 2.397512 1_555
Na2 O18 2.413856 1_555
Na2 O27 2.442255 1_555
Na2 O2 2.598827 1_555
Na2 O15 2.637131 1_555
Na2 O31 2.839820 1_555
Na3 O22 2.397512 1_555
Na3 O19 2.413856 1_555
Na3 O26 2.442255 1_555
Na3 O3 2.598827 1_555
Na3 O14 2.637131 1_555
Na3 O30 2.839820 1_555
Na4 O24 2.333995 1_555
Na4 O0 2.396945 1_655
Na4 O10 2.428667 1_555
Na4 O21 2.447542 1_655
Na4 O13 2.599807 1_655
Na4 O6 2.716814 1_555
Na5 O25 2.333995 1_555
Na5 O1 2.396945 1_555
Na5 O11 2.428667 1_555
Na5 O20 2.447542 1_555
Na5 O12 2.599807 1_555
Na5 O7 2.716814 1_555
Na6 O26 2.333995 1_555
Na6 O2 2.396945 1_455
Na6 O8 2.428667 1_555
Na6 O23 2.447542 1_455
Na6 O15 2.599807 1_455
Na6 O4 2.716814 1_555
Na7 O27 2.333995 1_555
Na7 O3 2.396945 1_555
Na7 O9 2.428667 1_555
Na7 O22 2.447542 1_555
Na7 O14 2.599807 1_555
Na7 O5 2.716814 1_555
Na8 O28 2.289713 1_555
Na8 O7 2.377507 1_555
Na8 O12 2.461966 1_565
Na8 O9 2.466352 1_556
Na8 O20 2.616304 1_555
Na8 O1 2.796023 1_565
Na8 O1 2.988815 1_555
Na9 O29 2.289713 1_555
Na9 O6 2.377507 1_455
Na9 O13 2.461966 1_545
Na9 O8 2.466352 1_555
Na9 O21 2.616304 1_555
Na9 O0 2.796023 1_545
Na9 O0 2.988815 1_555
Na10 O30 2.289713 1_555
Na10 O5 2.377507 1_555
Na10 O14 2.461966 1_545
Na10 O11 2.466352 1_554
Na10 O22 2.616304 1_555
Na10 O3 2.796023 1_545
Na10 O3 2.988815 1_555
Na11 O31 2.289713 1_555
Na11 O4 2.377507 1_655
Na11 O15 2.461966 1_565
Na11 O10 2.466352 1_555
Na11 O23 2.616304 1_555
Na11 O2 2.796023 1_565
Na11 O2 2.988815 1_555
Au0 S4 2.323392 1_555
Au0 S0 2.337079 1_555
Au0 Au2 3.156701 1_565
Au1 S5 2.323392 1_555
Au1 S1 2.337079 1_655
Au1 Au3 3.156701 1_646
Au2 S6 2.323392 1_555
Au2 S2 2.337079 1_555
Au3 S7 2.323392 1_555
Au3 S3 2.337079 1_455
O0 S8 1.484824 1_555
O1 S9 1.484824 1_555
O2 S10 1.484824 1_555
O3 S11 1.484824 1_555
O4 S8 1.474641 1_555
O5 S9 1.474641 1_554
O6 S10 1.474641 1_555
O7 S11 1.474641 1_556
O8 S8 1.481782 1_545
O9 S9 1.481782 1_564
O10 S10 1.481782 1_565
O11 S11 1.481782 1_546
O12 S12 1.489199 1_545
O13 S13 1.489199 1_465
O14 S14 1.489199 1_565
O15 S15 1.489199 1_645
O16 S12 1.463242 1_555
O17 S13 1.463242 1_555
O18 S14 1.463242 1_555
O19 S15 1.463242 1_555
O20 S12 1.485657 1_555
O21 S13 1.485657 1_455
O22 S14 1.485657 1_555
O23 S15 1.485657 1_655
O24 S0 1.540187 1_555
O25 S1 1.540187 1_555
O26 S2 1.540187 1_555
O27 S3 1.540187 1_555
O28 S5 1.538988 1_555
O29 S4 1.538988 1_555
O30 S7 1.538988 1_555
O31 S6 1.538988 1_555
