# generated using pymatgen
data_V2(OF)3
_symmetry_space_group_name_H-M   'P 1'
_cell_length_a   5.24953535
_cell_length_b   5.34885263
_cell_length_c   5.18526387
_cell_angle_alpha   90.23008340
_cell_angle_beta   119.42559315
_cell_angle_gamma   60.80990682
_symmetry_Int_Tables_number   1
_chemical_formula_structural   V2(OF)3
_chemical_formula_sum   'V2 O3 F3'
_cell_volume   105.26165956
_cell_formula_units_Z   1
loop_
 _symmetry_equiv_pos_site_id
 _symmetry_equiv_pos_as_xyz
  1  'x, y, z'
loop_
 _atom_site_type_symbol
 _atom_site_label
 _atom_site_symmetry_multiplicity
 _atom_site_fract_x
 _atom_site_fract_y
 _atom_site_fract_z
 _atom_site_occupancy
  V  V0  1  0.99100800  0.97761300  0.01633500  1
  V  V1  1  0.99876500  0.45640400  0.50968300  1
  O  O0  1  0.06794600  0.26076600  0.81317300  1
  O  O1  1  0.92450900  0.26584100  0.25050000  1
  O  O2  1  0.93117000  0.75922500  0.17431500  1
  F  F0  1  0.49174000  0.26224000  0.66065400  1
  F  F1  1  0.08471800  0.75109400  0.73937100  1
  F  F2  1  0.51014400  0.76681800  0.33597200  1
loop_
_geom_bond_atom_site_label_1
_geom_bond_atom_site_label_2
_geom_bond_distance
_geom_bond_site_symmetry_2
O0 V1 1.668640 1_455
O0 V0 2.143426 1_446
O1 V1 1.690820 1_555
O1 V0 1.962005 1_545
O2 V0 1.659115 1_555
O2 V1 2.151555 1_555
F0 V1 1.944976 1_455
F0 V0 1.992323 1_546
F1 V0 1.967564 1_456
F1 V1 2.063314 1_455
F2 V1 1.932656 1_555
F2 V0 2.006189 1_455
