# generated using pymatgen
data_Li8FeO6
_symmetry_space_group_name_H-M   'P 1'
_cell_length_a   5.60721418
_cell_length_b   5.60721418
_cell_length_c   10.91673800
_cell_angle_alpha   90.00000000
_cell_angle_beta   90.00000000
_cell_angle_gamma   120.74390832
_symmetry_Int_Tables_number   1
_chemical_formula_structural   Li8FeO6
_chemical_formula_sum   'Li16 Fe2 O12'
_cell_volume   294.99403554
_cell_formula_units_Z   2
loop_
 _symmetry_equiv_pos_site_id
 _symmetry_equiv_pos_as_xyz
  1  'x, y, z'
loop_
 _atom_site_type_symbol
 _atom_site_label
 _atom_site_symmetry_multiplicity
 _atom_site_fract_x
 _atom_site_fract_y
 _atom_site_fract_z
 _atom_site_occupancy
  Li  Li0  1  0.00621800  0.69562900  0.23109200  1
  Li  Li1  1  0.00032400  0.61037700  0.87283900  1
  Li  Li2  1  0.99967600  0.38962300  0.37283900  1
  Li  Li3  1  0.99378200  0.30437100  0.73109200  1
  Li  Li4  1  0.33642000  0.66970100  0.59153300  1
  Li  Li5  1  0.33029900  0.66358000  0.09153300  1
  Li  Li6  1  0.31051200  0.31051200  0.23268600  1
  Li  Li7  1  0.38655900  0.38655900  0.87295000  1
  Li  Li8  1  0.61344100  0.61344100  0.37295000  1
  Li  Li9  1  0.30437100  0.99378200  0.73109200  1
  Li  Li10  1  0.68948800  0.68948800  0.73268600  1
  Li  Li11  1  0.38962300  0.99967600  0.37283900  1
  Li  Li12  1  0.66358000  0.33029900  0.09153300  1
  Li  Li13  1  0.66970100  0.33642000  0.59153300  1
  Li  Li14  1  0.61037700  0.00032400  0.87283900  1
  Li  Li15  1  0.69562900  0.00621800  0.23109200  1
  Fe  Fe0  1  0.99689100  0.99689100  0.00637100  1
  Fe  Fe1  1  0.00310900  0.00310900  0.50637100  1
  O  O0  1  0.01014600  0.68793700  0.05029200  1
  O  O1  1  0.98985400  0.31206300  0.55029200  1
  O  O2  1  0.33313700  0.66502200  0.78402100  1
  O  O3  1  0.99625500  0.99625500  0.83050600  1
  O  O4  1  0.00374500  0.00374500  0.33050600  1
  O  O5  1  0.33497800  0.66686300  0.28402100  1
  O  O6  1  0.31395600  0.31395600  0.05307900  1
  O  O7  1  0.31206300  0.98985400  0.55029200  1
  O  O8  1  0.68604400  0.68604400  0.55307900  1
  O  O9  1  0.66686300  0.33497800  0.28402100  1
  O  O10  1  0.66502200  0.33313700  0.78402100  1
  O  O11  1  0.68793700  0.01014600  0.05029200  1
loop_
_geom_bond_atom_site_label_1
_geom_bond_atom_site_label_2
_geom_bond_distance
_geom_bond_site_symmetry_2
Li0 O0 1.974586 1_555
Li0 O5 2.015468 1_555
Li0 O9 2.027294 1_455
Li0 O4 2.046305 1_565
Li1 O10 1.975692 1_455
Li1 O0 1.980014 1_556
Li1 O2 1.982910 1_555
Li1 O3 2.223998 1_455
Li2 O5 1.975692 1_655
Li2 O1 1.980014 1_555
Li2 O9 1.982910 1_555
Li2 O4 2.223998 1_655
Li3 O1 1.974586 1_555
Li3 O10 2.015468 1_555
Li3 O2 2.027294 1_655
Li3 O3 2.046305 1_545
Li4 O7 1.922144 1_555
Li4 O8 1.960659 1_555
Li4 O1 2.004043 1_455
Li4 O2 2.101468 1_555
Li5 O0 1.922144 1_555
Li5 O6 1.960659 1_555
Li5 O11 2.004043 1_565
Li5 O5 2.101468 1_555
Li6 O6 1.960816 1_555
Li6 O4 2.008194 1_555
Li6 O5 2.011261 1_555
Li6 O9 2.011261 1_555
Li7 O10 1.987053 1_555
Li7 O2 1.987053 1_555
Li7 O6 2.007195 1_556
Li7 O3 2.212917 1_445
Li8 O5 1.987053 1_555
Li8 O9 1.987053 1_555
Li8 O8 2.007195 1_555
Li8 O4 2.212917 1_665
Li9 O7 1.974586 1_555
Li9 O2 2.015468 1_555
Li9 O10 2.027294 1_565
Li9 O3 2.046305 1_455
Li10 O8 1.960816 1_555
Li10 O3 2.008194 1_555
Li10 O2 2.011261 1_555
Li10 O10 2.011261 1_555
Li11 O9 1.975692 1_565
Li11 O7 1.980014 1_555
Li11 O5 1.982910 1_555
Li11 O4 2.223998 1_565
Li12 O11 1.922144 1_555
Li12 O6 1.960659 1_555
Li12 O0 2.004043 1_655
Li12 O9 2.101468 1_555
Li13 O1 1.922144 1_555
Li13 O8 1.960659 1_555
Li13 O7 2.004043 1_545
Li13 O10 2.101468 1_555
Li14 O2 1.975692 1_545
Li14 O11 1.980014 1_556
Li14 O10 1.982910 1_555
Li14 O3 2.223998 1_545
Li15 O11 1.974586 1_555
Li15 O9 2.015468 1_555
Li15 O5 2.027294 1_545
Li15 O4 2.046305 1_655
Fe0 O6 1.830284 1_665
Fe0 O11 1.835258 1_565
Fe0 O0 1.835258 1_655
Fe0 O3 1.919875 1_554
Fe1 O8 1.830284 1_445
Fe1 O7 1.835258 1_545
Fe1 O1 1.835258 1_455
Fe1 O4 1.919875 1_555
