# generated using pymatgen
data_Li2Ti(BO3)2
_symmetry_space_group_name_H-M   'P 1'
_cell_length_a   5.17088500
_cell_length_b   8.95214086
_cell_length_c   9.99448337
_cell_angle_alpha   89.50972031
_cell_angle_beta   87.31626246
_cell_angle_gamma   88.89963645
_symmetry_Int_Tables_number   1
_chemical_formula_structural   Li2Ti(BO3)2
_chemical_formula_sum   'Li8 Ti4 B8 O24'
_cell_volume   462.04330390
_cell_formula_units_Z   4
loop_
 _symmetry_equiv_pos_site_id
 _symmetry_equiv_pos_as_xyz
  1  'x, y, z'
loop_
 _atom_site_type_symbol
 _atom_site_label
 _atom_site_symmetry_multiplicity
 _atom_site_fract_x
 _atom_site_fract_y
 _atom_site_fract_z
 _atom_site_occupancy
  Li  Li0  1  0.31603600  0.50951100  0.57898800  1
  Li  Li1  1  0.36052600  0.53105200  0.18642300  1
  Li  Li2  1  0.65114200  0.47099500  0.83389200  1
  Li  Li3  1  0.69510900  0.47701300  0.39277500  1
  Li  Li4  1  0.66196200  0.14541800  0.88870200  1
  Li  Li5  1  0.85502700  0.96165200  0.08745600  1
  Li  Li6  1  0.82943800  0.65769500  0.61462400  1
  Li  Li7  1  0.85592400  0.97637300  0.67884300  1
  Ti  Ti0  1  0.14587900  0.68042700  0.87797700  1
  Ti  Ti1  1  0.34616100  0.17688900  0.63106100  1
  Ti  Ti2  1  0.63719700  0.82127200  0.36870700  1
  Ti  Ti3  1  0.87442500  0.29342000  0.12711200  1
  B  B0  1  0.17809100  0.68669500  0.38775100  1
  B  B1  1  0.16271700  0.34286100  0.86922600  1
  B  B2  1  0.32085900  0.19927700  0.11292900  1
  B  B3  1  0.33999600  0.83876800  0.62743400  1
  B  B4  1  0.65344500  0.15761000  0.37103600  1
  B  B5  1  0.65980700  0.81700200  0.87357900  1
  B  B6  1  0.84494900  0.64289900  0.13253600  1
  B  B7  1  0.82472400  0.32261300  0.62739200  1
  O  O0  1  0.08516800  0.66250400  0.06723900  1
  O  O1  1  0.09251100  0.33309200  0.61173800  1
  O  O2  1  0.10518700  0.11110400  0.11078000  1
  O  O3  1  0.22634900  0.98197900  0.64244500  1
  O  O4  1  0.19575300  0.71494000  0.66658700  1
  O  O5  1  0.23964800  0.34787300  0.13458500  1
  O  O6  1  0.27725600  0.83008100  0.36731000  1
  O  O7  1  0.32127300  0.22623400  0.82617700  1
  O  O8  1  0.27357300  0.48657500  0.85692600  1
  O  O9  1  0.35258200  0.56998200  0.38587900  1
  O  O10  1  0.43256700  0.18423000  0.44855700  1
  O  O11  1  0.39316700  0.82207500  0.89376300  1
  O  O12  1  0.57906800  0.16039300  0.08933900  1
  O  O13  1  0.59583100  0.82699200  0.57780900  1
  O  O14  1  0.67145600  0.44817800  0.61924400  1
  O  O15  1  0.74420800  0.50236800  0.14839900  1
  O  O16  1  0.71079700  0.76789500  0.18195900  1
  O  O17  1  0.72005100  0.18168400  0.65644400  1
  O  O18  1  0.77997600  0.67501400  0.84716600  1
  O  O19  1  0.78562600  0.27696000  0.31532800  1
  O  O20  1  0.74425300  0.01287500  0.34849400  1
  O  O21  1  0.80636200  0.93856600  0.87601300  1
  O  O22  1  0.91180200  0.66853400  0.41066500  1
  O  O23  1  0.90912000  0.32823100  0.91870500  1
loop_
_geom_bond_atom_site_label_1
_geom_bond_atom_site_label_2
_geom_bond_distance
_geom_bond_site_symmetry_2
Li0 O14 1.966645 1_555
Li0 O1 1.990772 1_555
Li0 O9 2.001413 1_555
Li0 O4 2.113768 1_555
Li1 O5 1.852681 1_555
Li1 O15 2.014452 1_555
Li1 O9 2.025018 1_555
Li1 O0 2.213942 1_555
Li2 O8 1.957597 1_555
Li2 O18 1.963752 1_555
Li2 O23 2.037961 1_555
Li2 O14 2.154211 1_555
Li3 O9 1.946354 1_555
Li3 O19 1.995783 1_555
Li3 O22 2.079630 1_555
Li3 O14 2.273773 1_555
Li3 O15 2.452756 1_555
Li4 O21 1.986127 1_545
Li4 O7 2.015884 1_555
Li4 O12 2.035849 1_556
Li4 O23 2.127496 1_555
Li4 O17 2.347255 1_555
Li5 O2 1.902018 1_665
Li5 O16 2.100624 1_555
Li5 O21 2.152020 1_554
Li5 O12 2.258871 1_565
Li6 O13 1.962972 1_555
Li6 O14 2.059435 1_555
Li6 O4 2.062568 1_655
Li6 O22 2.064714 1_555
Li6 O18 2.332390 1_555
Li7 O3 1.934382 1_655
Li7 O17 1.969765 1_565
Li7 O21 2.002041 1_555
Li7 O13 2.199120 1_555
B0 O9 1.366991 1_555
B0 O22 1.397605 1_455
B0 O6 1.401182 1_555
B1 O7 1.374465 1_555
B1 O23 1.387813 1_455
B1 O8 1.420536 1_555
B2 O2 1.379696 1_555
B2 O12 1.383296 1_555
B2 O5 1.402755 1_555
B3 O4 1.391139 1_555
B3 O13 1.393287 1_555
B3 O3 1.406267 1_555
B4 O10 1.367987 1_555
B4 O19 1.378749 1_555
B4 O20 1.386280 1_555
B5 O21 1.339045 1_555
B5 O11 1.384000 1_555
B5 O18 1.425319 1_555
B6 O15 1.375941 1_555
B6 O16 1.387397 1_555
B6 O0 1.389290 1_655
B7 O14 1.366947 1_555
B7 O1 1.391083 1_655
B7 O17 1.405055 1_555
O0 Ti0 1.908792 1_554
O1 Ti1 1.913536 1_555
O2 Ti3 2.006441 1_455
O3 Ti1 1.863553 1_565
O4 Ti0 2.136932 1_555
O5 Ti3 1.964415 1_455
O6 Ti2 1.862071 1_555
O7 Ti1 2.000895 1_555
O8 Ti0 1.855009 1_555
O10 Ti1 1.858440 1_555
O11 Ti0 1.830986 1_555
O12 Ti3 2.006182 1_555
O13 Ti2 2.091761 1_555
O15 Ti3 1.985587 1_555
O16 Ti2 1.948990 1_555
O17 Ti1 1.962987 1_555
O18 Ti0 1.932702 1_655
O19 Ti3 1.920452 1_555
O20 Ti2 1.819184 1_545
O22 Ti2 2.008255 1_555
O23 Ti3 2.103308 1_556
