# generated using pymatgen
data_Li3Ni4O4F3
_symmetry_space_group_name_H-M   'P 1'
_cell_length_a   14.75759992
_cell_length_b   14.75759992
_cell_length_c   14.75759992
_cell_angle_alpha   168.50461484
_cell_angle_beta   168.50461484
_cell_angle_gamma   16.28443171
_symmetry_Int_Tables_number   1
_chemical_formula_structural   Li3Ni4O4F3
_chemical_formula_sum   'Li3 Ni4 O4 F3'
_cell_volume   127.64140977
_cell_formula_units_Z   1
loop_
 _symmetry_equiv_pos_site_id
 _symmetry_equiv_pos_as_xyz
  1  'x, y, z'
loop_
 _atom_site_type_symbol
 _atom_site_label
 _atom_site_symmetry_multiplicity
 _atom_site_fract_x
 _atom_site_fract_y
 _atom_site_fract_z
 _atom_site_occupancy
  Li  Li0  1  0.07024100  0.07024100  0.00000000  1
  Li  Li1  1  0.92975900  0.92975900  0.00000000  1
  Li  Li2  1  0.50000000  0.50000000  0.00000000  1
  Ni  Ni0  1  0.64234100  0.64234100  0.00000000  1
  Ni  Ni1  1  0.21359200  0.21359200  0.00000000  1
  Ni  Ni2  1  0.78640800  0.78640800  0.00000000  1
  Ni  Ni3  1  0.35765900  0.35765900  0.00000000  1
  O  O0  1  0.14116900  0.14116900  0.00000000  1
  O  O1  1  0.71389500  0.71389500  0.00000000  1
  O  O2  1  0.28610500  0.28610500  0.00000000  1
  O  O3  1  0.85883100  0.85883100  0.00000000  1
  F  F0  1  0.56834400  0.56834400  0.00000000  1
  F  F1  1  0.43165600  0.43165600  0.00000000  1
  F  F2  1  0.00000000  0.00000000  0.00000000  1
loop_
_geom_bond_atom_site_label_1
_geom_bond_atom_site_label_2
_geom_bond_distance
_geom_bond_site_symmetry_2
Li0 O0 2.072351 1_555
Li1 O3 2.072351 1_555
Ni0 O0 2.090409 1_666
Ni0 O0 2.090409 1_554
Ni0 O0 2.090409 1_565
Ni0 O0 2.090409 1_655
Ni0 O1 2.090641 1_555
Ni1 O1 2.090147 1_455
Ni1 O1 2.090147 1_556
Ni1 O1 2.090147 1_545
Ni1 O1 2.090147 1_444
Ni1 O0 2.116032 1_555
Ni1 O2 2.118661 1_555
Ni2 O2 2.090147 1_655
Ni2 O2 2.090147 1_554
Ni2 O2 2.090147 1_666
Ni2 O2 2.090147 1_565
Ni2 O3 2.116032 1_555
Ni2 O1 2.118661 1_555
Ni3 O3 2.090409 1_556
Ni3 O3 2.090409 1_545
Ni3 O3 2.090409 1_444
Ni3 O3 2.090409 1_455
Ni3 O2 2.090641 1_555
F0 Li2 1.996853 1_555
F0 Li0 2.090863 1_655
F0 Li0 2.090863 1_565
F0 Li0 2.090863 1_554
F0 Li0 2.090863 1_666
F0 Ni0 2.162020 1_555
F1 Li2 1.996853 1_555
F1 Li1 2.090863 1_444
F1 Li1 2.090863 1_545
F1 Li1 2.090863 1_455
F1 Li1 2.090863 1_556
F1 Ni3 2.162020 1_555
F2 Li0 2.052279 1_555
F2 Li1 2.052279 1_445
F2 Li2 2.090128 1_556
F2 Li2 2.090128 1_545
F2 Li2 2.090128 1_455
F2 Li2 2.090128 1_444
