# generated using pymatgen
data_Ba2Na7Ti16Bi7O48
_symmetry_space_group_name_H-M   'P 1'
_cell_length_a   5.54335400
_cell_length_b   5.65447368
_cell_length_c   36.46280893
_cell_angle_alpha   94.06249387
_cell_angle_beta   89.99948460
_cell_angle_gamma   119.34807806
_symmetry_Int_Tables_number   1
_chemical_formula_structural   Ba2Na7Ti16Bi7O48
_chemical_formula_sum   'Ba2 Na7 Ti16 Bi7 O48'
_cell_volume   992.93817546
_cell_formula_units_Z   1
loop_
 _symmetry_equiv_pos_site_id
 _symmetry_equiv_pos_as_xyz
  1  'x, y, z'
loop_
 _atom_site_type_symbol
 _atom_site_label
 _atom_site_symmetry_multiplicity
 _atom_site_fract_x
 _atom_site_fract_y
 _atom_site_fract_z
 _atom_site_occupancy
  Ba  Ba0  1  0.29428400  0.90206200  0.84324500  1
  Ba  Ba1  1  0.67261800  0.40234400  0.97153800  1
  Na  Na0  1  0.38123500  0.68390000  0.03819500  1
  Na  Na1  1  0.75847800  0.19532900  0.15993800  1
  Na  Na2  1  0.13250200  0.69548400  0.28465900  1
  Na  Na3  1  0.50764600  0.19593800  0.40952700  1
  Na  Na4  1  0.88279900  0.69632400  0.53444300  1
  Na  Na5  1  0.25827900  0.19692700  0.65835500  1
  Na  Na6  1  0.62908400  0.69790200  0.78031600  1
  Ti  Ti0  1  0.01919400  0.01767900  0.00737800  1
  Ti  Ti1  1  0.40811300  0.55242300  0.12841000  1
  Ti  Ti2  1  0.71132500  0.29370600  0.06553100  1
  Ti  Ti3  1  0.77747600  0.04937300  0.25252400  1
  Ti  Ti4  1  0.08131100  0.78218300  0.18998000  1
  Ti  Ti5  1  0.15268800  0.55091200  0.37723100  1
  Ti  Ti6  1  0.45779600  0.28608600  0.31403800  1
  Ti  Ti7  1  0.52803400  0.05091700  0.50199600  1
  Ti  Ti8  1  0.83285200  0.78645400  0.43882900  1
  Ti  Ti9  1  0.90391700  0.55298200  0.62666000  1
  Ti  Ti10  1  0.20757900  0.28678200  0.56372000  1
  Ti  Ti11  1  0.27201500  0.06236700  0.74958100  1
  Ti  Ti12  1  0.58475300  0.78978100  0.68729000  1
  Ti  Ti13  1  0.64109400  0.53480800  0.87205700  1
  Ti  Ti14  1  0.95799600  0.28869000  0.81209100  1
  Ti  Ti15  1  0.34162900  0.79436200  0.94110400  1
  Bi  Bi0  1  0.09542600  0.97918600  0.10018500  1
  Bi  Bi1  1  0.46042300  0.47479200  0.22376500  1
  Bi  Bi2  1  0.83602800  0.97646500  0.34836400  1
  Bi  Bi3  1  0.21130000  0.47669500  0.47329800  1
  Bi  Bi4  1  0.58598000  0.97813200  0.59738100  1
  Bi  Bi5  1  0.96649500  0.48155200  0.72344600  1
  Bi  Bi6  1  0.02006100  0.21581000  0.91337900  1
  O  O0  1  0.47687500  0.87669500  0.09640700  1
  O  O1  1  0.35973000  0.13390600  0.03082200  1
  O  O2  1  0.85792300  0.11859100  0.03712400  1
  O  O3  1  0.49482600  0.38619700  0.08935600  1
  O  O4  1  0.99889900  0.33025700  0.10164300  1
  O  O5  1  0.84402200  0.37285100  0.21957000  1
  O  O6  1  0.88106800  0.63111600  0.03410000  1
  O  O7  1  0.76055400  0.65274800  0.14996200  1
  O  O8  1  0.24193200  0.58931700  0.16525100  1
  O  O9  1  0.86759300  0.88358100  0.21210000  1
  O  O10  1  0.36888700  0.82704900  0.22643100  1
  O  O11  1  0.21868500  0.87295900  0.34416900  1
  O  O12  1  0.26924900  0.10852600  0.15551500  1
  O  O13  1  0.13185900  0.15280800  0.27374600  1
  O  O14  1  0.61716800  0.09172700  0.28938900  1
  O  O15  1  0.24200000  0.38337400  0.33657500  1
  O  O16  1  0.74345400  0.32820100  0.35079500  1
  O  O17  1  0.59374400  0.37319800  0.46908000  1
  O  O18  1  0.64274900  0.61156200  0.27988700  1
  O  O19  1  0.50641400  0.65284100  0.39861100  1
  O  O20  1  0.99212100  0.59237900  0.41421100  1
  O  O21  1  0.61720500  0.88369600  0.46147600  1
  O  O22  1  0.11837400  0.82857600  0.47566600  1
  O  O23  1  0.96914400  0.87477900  0.59346700  1
  O  O24  1  0.01680100  0.11167900  0.40460300  1
  O  O25  1  0.88142600  0.15300900  0.52346100  1
  O  O26  1  0.36780600  0.09243600  0.53907000  1
  O  O27  1  0.99365500  0.38565500  0.58612700  1
  O  O28  1  0.49406700  0.32953700  0.60040500  1
  O  O29  1  0.35199500  0.38191200  0.71583300  1
  O  O30  1  0.39231400  0.61214400  0.52940200  1
  O  O31  1  0.26122000  0.66096000  0.64745200  1
  O  O32  1  0.74724000  0.59854500  0.66329900  1
  O  O33  1  0.37132500  0.88296800  0.71164100  1
  O  O34  1  0.87097900  0.83126900  0.72389000  1
  O  O35  1  0.76952300  0.87856700  0.84329300  1
  O  O36  1  0.76998600  0.11819400  0.65378200  1
  O  O37  1  0.61212400  0.16122300  0.77551000  1
  O  O38  1  0.09045700  0.12025000  0.78172500  1
  O  O39  1  0.77657700  0.39786700  0.83892900  1
  O  O40  1  0.26411200  0.36930100  0.84647900  1
  O  O41  1  0.13224900  0.36091100  0.96743500  1
  O  O42  1  0.13593100  0.62842800  0.77872100  1
  O  O43  1  0.97166300  0.60434600  0.90420200  1
  O  O44  1  0.45042600  0.58554700  0.90809500  1
  O  O45  1  0.14954000  0.90068000  0.96491700  1
  O  O46  1  0.64087800  0.86725300  0.97336400  1
  O  O47  1  0.50257900  0.11798700  0.90634700  1
loop_
_geom_bond_atom_site_label_1
_geom_bond_atom_site_label_2
_geom_bond_distance
_geom_bond_site_symmetry_2
Ba0 O47 2.517553 1_565
Ba0 O42 2.617782 1_555
Ba0 O35 2.702020 1_555
Ba0 O40 2.722315 1_565
Ba0 O39 2.783456 1_565
Ba0 O35 2.846186 1_455
Ba0 O39 2.881857 1_455
Ba0 O43 2.924296 1_455
Ba0 O40 2.945060 1_555
Ba0 O37 3.055088 1_565
Ba0 O38 3.096652 1_565
Ba1 O6 2.515774 1_556
Ba1 O47 2.664024 1_555
Ba1 O41 2.673799 1_655
Ba1 O46 2.715630 1_555
Ba1 O45 2.789603 1_655
Ba1 O1 2.805218 1_556
Ba1 O45 2.890158 1_545
Ba1 O41 2.890877 1_555
Ba1 O43 2.936362 1_555
Ba1 O46 2.949019 1_545
Ba1 O44 3.087374 1_555
Na0 O0 2.253986 1_555
Na0 O6 2.642202 1_455
Na0 O46 2.760264 1_554
Na0 O41 2.959554 1_554
Na1 O5 2.276938 1_555
Na1 O4 2.471736 1_555
Na1 O8 2.503853 1_655
Na1 O12 2.511116 1_555
Na1 O7 2.631800 1_555
Na1 O0 2.775069 1_545
Na1 O9 2.934441 1_545
Na2 O11 2.272733 1_555
Na2 O10 2.458960 1_555
Na2 O14 2.512503 1_565
Na2 O18 2.520214 1_455
Na2 O13 2.645789 1_565
Na2 O5 2.836375 1_455
Na2 O15 2.930852 1_555
Na3 O17 2.273855 1_555
Na3 O16 2.474425 1_555
Na3 O20 2.512232 1_555
Na3 O24 2.525834 1_555
Na3 O19 2.645029 1_555
Na3 O11 2.845403 1_545
Na3 O21 2.932409 1_545
Na4 O23 2.257893 1_555
Na4 O22 2.475384 1_655
Na4 O26 2.513412 1_665
Na4 O30 2.524273 1_555
Na4 O25 2.644717 1_565
Na4 O17 2.845931 1_555
Na4 O27 2.922715 1_555
Na5 O29 2.216564 1_555
Na5 O28 2.449337 1_555
Na5 O36 2.522090 1_455
Na5 O32 2.538650 1_555
Na5 O31 2.673731 1_555
Na5 O23 2.830643 1_445
Na6 O35 2.410565 1_555
Na6 O34 2.414211 1_555
Na6 O38 2.498510 1_665
Na6 O42 2.564181 1_555
Na6 O37 2.685065 1_565
Na6 O29 2.791901 1_555
Bi0 O12 2.152623 1_565
Bi0 O4 2.292618 1_465
Bi0 O3 2.342744 1_565
Bi0 O0 2.452724 1_555
Bi0 O7 2.695031 1_455
Bi1 O18 2.194729 1_555
Bi1 O10 2.279817 1_555
Bi1 O9 2.375614 1_555
Bi1 O5 2.462992 1_555
Bi1 O13 2.678243 1_555
Bi1 O8 2.720867 1_555
Bi2 O24 2.195612 1_665
Bi2 O16 2.280861 1_565
Bi2 O15 2.368074 1_665
Bi2 O11 2.463674 1_655
Bi2 O19 2.690991 1_555
Bi2 O14 2.737621 1_565
Bi3 O30 2.191597 1_555
Bi3 O22 2.282991 1_555
Bi3 O21 2.368469 1_555
Bi3 O17 2.462524 1_555
Bi3 O25 2.689397 1_455
Bi3 O20 2.743107 1_455
Bi4 O36 2.207807 1_565
Bi4 O28 2.276246 1_565
Bi4 O27 2.369559 1_565
Bi4 O23 2.465412 1_555
Bi4 O31 2.662651 1_555
Bi4 O26 2.713312 1_565
Bi5 O42 2.152284 1_655
Bi5 O34 2.283149 1_555
Bi5 O33 2.349203 1_655
Bi5 O29 2.473684 1_655
Bi6 O41 2.053199 1_555
Bi6 O44 2.295095 1_555
Bi6 O43 2.385904 1_455
Bi6 O47 2.650483 1_455
Bi6 O40 2.771815 1_555
O0 Ti1 2.118277 1_555
O0 Ti2 2.426682 1_565
O1 Ti0 1.852150 1_555
O1 Ti2 2.080522 1_555
O2 Ti0 1.647276 1_655
O2 Ti2 1.832254 1_555
O3 Ti2 1.737632 1_555
O3 Ti1 1.842700 1_555
O4 Ti2 1.989042 1_555
O4 Ti1 2.170119 1_655
O5 Ti3 2.139046 1_555
O5 Ti4 2.370860 1_655
O6 Ti2 2.094972 1_555
O6 Ti0 2.230385 1_665
O7 Ti1 1.899158 1_555
O7 Ti4 2.097493 1_655
O8 Ti1 1.686803 1_555
O8 Ti4 1.899367 1_555
O9 Ti4 1.727167 1_655
O9 Ti3 1.887920 1_565
O10 Ti4 1.981915 1_555
O10 Ti3 2.157573 1_565
O11 Ti5 2.135702 1_555
O11 Ti6 2.397794 1_565
O12 Ti4 2.124588 1_545
O12 Ti1 2.515353 1_555
O13 Ti3 1.899911 1_455
O13 Ti6 2.121157 1_555
O14 Ti3 1.678362 1_555
O14 Ti6 1.899429 1_555
O15 Ti6 1.729125 1_555
O15 Ti5 1.897608 1_555
O16 Ti6 1.986373 1_555
O16 Ti5 2.165409 1_655
O17 Ti7 2.133845 1_555
O17 Ti8 2.400639 1_555
O18 Ti6 2.112807 1_555
O18 Ti3 2.493878 1_565
O19 Ti5 1.900881 1_555
O19 Ti8 2.121031 1_555
O20 Ti5 1.680816 1_655
O20 Ti8 1.897272 1_555
O21 Ti8 1.730083 1_555
O21 Ti7 1.892490 1_565
O22 Ti8 1.987749 1_455
O22 Ti7 2.165579 1_565
O23 Ti9 2.138603 1_555
O23 Ti10 2.385472 1_665
O24 Ti8 2.113313 1_445
O24 Ti5 2.499863 1_555
O25 Ti7 1.900241 1_555
O25 Ti10 2.120856 1_655
O26 Ti7 1.682513 1_555
O26 Ti10 1.902939 1_555
O27 Ti10 1.723799 1_655
O27 Ti9 1.894778 1_555
O28 Ti10 1.986875 1_555
O28 Ti9 2.165513 1_555
O29 Ti11 2.122576 1_555
O29 Ti12 2.343095 1_555
O30 Ti10 2.116272 1_555
O30 Ti7 2.498345 1_565
O31 Ti9 1.902524 1_455
O31 Ti12 2.103976 1_555
O32 Ti9 1.666144 1_555
O32 Ti12 1.888524 1_555
O33 Ti12 1.735090 1_555
O33 Ti11 1.895897 1_565
O34 Ti12 1.986030 1_555
O34 Ti11 2.122791 1_665
O35 Ti13 2.077859 1_555
O35 Ti14 2.400561 1_565
O36 Ti12 2.109016 1_545
O36 Ti9 2.475627 1_555
O37 Ti11 1.911274 1_555
O37 Ti14 2.117520 1_555
O38 Ti11 1.662014 1_555
O38 Ti14 1.791188 1_455
O39 Ti14 1.695011 1_555
O39 Ti13 1.749358 1_555
O40 Ti14 1.954576 1_455
O40 Ti13 2.017925 1_555
O41 Ti0 2.342836 1_556
O41 Ti15 2.412666 1_555
O42 Ti14 2.148863 1_455
O42 Ti11 2.504727 1_565
O43 Ti13 2.028495 1_555
O43 Ti15 2.192300 1_655
O44 Ti13 1.780437 1_555
O44 Ti15 1.924365 1_555
O45 Ti15 1.674119 1_555
O45 Ti0 1.918397 1_566
O46 Ti15 1.888504 1_555
O46 Ti0 2.182143 1_666
O47 Ti15 2.116365 1_545
O47 Ti13 2.520203 1_555
