# generated using pymatgen
data_TbNbO4
_symmetry_space_group_name_H-M   'P 1'
_cell_length_a   5.38689836
_cell_length_b   5.38689836
_cell_length_c   5.11634194
_cell_angle_alpha   90.00000000
_cell_angle_beta   90.00000000
_cell_angle_gamma   90.00000000
_symmetry_Int_Tables_number   1
_chemical_formula_structural   TbNbO4
_chemical_formula_sum   'Tb2 Nb2 O8'
_cell_volume   148.46945853
_cell_formula_units_Z   2
loop_
 _symmetry_equiv_pos_site_id
 _symmetry_equiv_pos_as_xyz
  1  'x, y, z'
loop_
 _atom_site_type_symbol
 _atom_site_label
 _atom_site_symmetry_multiplicity
 _atom_site_fract_x
 _atom_site_fract_y
 _atom_site_fract_z
 _atom_site_occupancy
  Tb  Tb0  1  0.50000000  0.50000000  -0.00000000  1
  Tb  Tb1  1  -0.00000000  0.00000000  -0.00000000  1
  Nb  Nb0  1  -0.00000000  0.50000000  0.50000000  1
  Nb  Nb1  1  0.50000000  0.00000000  0.50000000  1
  O  O0  1  0.19053184  0.69053184  0.25822634  1
  O  O1  1  0.80946816  0.69053184  0.74177366  1
  O  O2  1  0.80946816  0.30946816  0.25822634  1
  O  O3  1  0.19053184  0.30946816  0.74177366  1
  O  O4  1  0.69053184  0.19053184  0.74177366  1
  O  O5  1  0.30946816  0.19053184  0.25822634  1
  O  O6  1  0.69053184  0.80946816  0.25822634  1
  O  O7  1  0.30946816  0.80946816  0.74177366  1
loop_
_geom_bond_atom_site_label_1
_geom_bond_atom_site_label_2
_geom_bond_distance
_geom_bond_site_symmetry_2
Nb0 O2 1.907106 1_455
Nb0 O1 1.907106 1_455
Nb0 O0 1.907106 1_555
Nb0 O3 1.907106 1_555
Nb1 O4 1.907106 1_555
Nb1 O6 1.907106 1_545
Nb1 O7 1.907106 1_545
Nb1 O5 1.907106 1_555
O0 Tb1 2.361796 1_565
O0 Tb0 2.361796 1_555
O1 Tb0 2.361796 1_556
O1 Tb1 2.361796 1_666
O2 Tb1 2.361796 1_655
O2 Tb0 2.361796 1_555
O3 Tb0 2.361796 1_556
O3 Tb1 2.361796 1_556
O4 Tb1 2.361796 1_656
O4 Tb0 2.361796 1_556
O5 Tb1 2.361796 1_555
O5 Tb0 2.361796 1_555
O6 Tb1 2.361796 1_665
O6 Tb0 2.361796 1_555
O7 Tb0 2.361796 1_556
O7 Tb1 2.361796 1_566
