# generated using pymatgen
data_Zr3U7O20
_symmetry_space_group_name_H-M   'P 1'
_cell_length_a   15.57008542
_cell_length_b   15.57008542
_cell_length_c   6.53870320
_cell_angle_alpha   86.13226138
_cell_angle_beta   86.13226138
_cell_angle_gamma   13.96888655
_symmetry_Int_Tables_number   1
_chemical_formula_structural   Zr3U7O20
_chemical_formula_sum   'Zr3 U7 O20'
_cell_volume   381.76546948
_cell_formula_units_Z   1
loop_
 _symmetry_equiv_pos_site_id
 _symmetry_equiv_pos_as_xyz
  1  'x, y, z'
loop_
 _atom_site_type_symbol
 _atom_site_label
 _atom_site_symmetry_multiplicity
 _atom_site_fract_x
 _atom_site_fract_y
 _atom_site_fract_z
 _atom_site_occupancy
  Zr  Zr0  1  0.39806900  0.39806900  0.20122500  1
  Zr  Zr1  1  0.19760500  0.19760500  0.59738700  1
  Zr  Zr2  1  0.49684100  0.49684100  0.49823500  1
  U  U0  1  0.89885500  0.89885500  0.69808200  1
  U  U1  1  0.79798200  0.79798200  0.39901600  1
  U  U2  1  0.69751800  0.69751800  0.09879400  1
  U  U3  1  0.29811300  0.29811300  0.89846300  1
  U  U4  1  0.09664500  0.09664500  0.30038200  1
  U  U5  1  0.59764600  0.59764600  0.79689200  1
  U  U6  1  0.99638800  0.99638800  0.00109800  1
  O  O0  1  0.92181500  0.92181500  0.03281000  1
  O  O1  1  0.47131700  0.47131700  0.18313500  1
  O  O2  1  0.77256600  0.77256600  0.07504300  1
  O  O3  1  0.32507800  0.32507800  0.22627300  1
  O  O4  1  0.42399300  0.42399300  0.51649100  1
  O  O5  1  0.97340900  0.97340900  0.66718100  1
  O  O6  1  0.87459300  0.87459300  0.36624000  1
  O  O7  1  0.17377500  0.17377500  0.28147100  1
  O  O8  1  0.82360500  0.82360500  0.72243000  1
  O  O9  1  0.62227800  0.62227800  0.12550700  1
  O  O10  1  0.27089000  0.27089000  0.57398700  1
  O  O11  1  0.72168400  0.72168400  0.43231300  1
  O  O12  1  0.37493900  0.37493900  0.87985700  1
  O  O13  1  0.67293700  0.67293700  0.76570800  1
  O  O14  1  0.56989700  0.56989700  0.47361900  1
  O  O15  1  0.12407900  0.12407900  0.62063100  1
  O  O16  1  0.22132600  0.22132600  0.91550300  1
  O  O17  1  0.02059700  0.02059700  0.33227700  1
  O  O18  1  0.07220800  0.07220800  0.97316100  1
  O  O19  1  0.52044000  0.52044000  0.82023400  1
loop_
_geom_bond_atom_site_label_1
_geom_bond_atom_site_label_2
_geom_bond_distance
_geom_bond_site_symmetry_2
O0 Zr0 2.286086 1_655
O0 Zr0 2.286086 1_565
O0 U6 2.300214 1_555
O0 U0 2.346294 1_554
O1 Zr2 2.255737 1_555
O1 Zr0 2.259075 1_555
O1 U6 2.340209 1_545
O1 U6 2.340209 1_455
O2 U1 2.308851 1_555
O2 U2 2.314304 1_555
O2 U3 2.327526 1_564
O2 U3 2.327526 1_654
O3 Zr0 2.250894 1_555
O3 U1 2.330948 1_455
O3 U1 2.330948 1_545
O3 U3 2.351991 1_554
O4 Zr2 2.246712 1_555
O4 Zr0 2.261872 1_555
O4 U0 2.339408 1_455
O4 U0 2.339408 1_545
O5 Zr2 2.284909 1_565
O5 Zr2 2.284909 1_655
O5 U0 2.299518 1_555
O5 U6 2.341455 1_556
O6 Zr0 2.273539 1_655
O6 Zr0 2.273539 1_565
O6 U0 2.343424 1_555
O6 U1 2.363105 1_555
O7 Zr1 2.239723 1_555
O7 U2 2.330418 1_455
O7 U2 2.330418 1_545
O7 U4 2.378816 1_555
O8 U1 2.308000 1_555
O8 U0 2.320532 1_555
O8 U3 2.325317 1_655
O8 U3 2.325317 1_565
O9 U2 2.320283 1_555
O9 U4 2.323090 1_655
O9 U4 2.323090 1_565
O9 U5 2.327872 1_554
O10 Zr1 2.259936 1_555
O10 U3 2.334966 1_555
O10 U1 2.337647 1_455
O10 U1 2.337647 1_545
O11 Zr1 2.279131 1_655
O11 Zr1 2.279131 1_565
O11 U2 2.352688 1_555
O11 U1 2.353551 1_555
O12 Zr0 2.265148 1_556
O12 U0 2.329033 1_455
O12 U0 2.329033 1_545
O12 U3 2.369465 1_555
O13 Zr1 2.294184 1_565
O13 Zr1 2.294184 1_655
O13 U5 2.322247 1_555
O13 U2 2.354917 1_556
O14 Zr2 2.252886 1_555
O14 U4 2.328951 1_655
O14 U4 2.328951 1_565
O14 U5 2.334555 1_555
O15 Zr1 2.267369 1_555
O15 U4 2.311983 1_555
O15 U5 2.335059 1_545
O15 U5 2.335059 1_455
O16 Zr1 2.252006 1_555
O16 U2 2.332956 1_456
O16 U2 2.332956 1_546
O16 U3 2.368454 1_555
O17 Zr2 2.278832 1_455
O17 Zr2 2.278832 1_545
O17 U6 2.338689 1_445
O17 U4 2.345648 1_555
O18 U4 2.316908 1_556
O18 U5 2.325537 1_455
O18 U5 2.325537 1_545
O18 U6 2.338226 1_446
O19 Zr2 2.274585 1_555
O19 U6 2.327322 1_456
O19 U6 2.327322 1_546
O19 U5 2.380869 1_555
