# generated using pymatgen
data_Li4MnFe2(BO3)4
_symmetry_space_group_name_H-M   'P 1'
_cell_length_a   9.00665500
_cell_length_b   5.29164700
_cell_length_c   11.20197904
_cell_angle_alpha   62.71151522
_cell_angle_beta   90.00000000
_cell_angle_gamma   90.00000000
_symmetry_Int_Tables_number   1
_chemical_formula_structural   Li4MnFe2(BO3)4
_chemical_formula_sum   'Li8 Mn2 Fe4 B8 O24'
_cell_volume   474.47017601
_cell_formula_units_Z   2
loop_
 _symmetry_equiv_pos_site_id
 _symmetry_equiv_pos_as_xyz
  1  'x, y, z'
loop_
 _atom_site_type_symbol
 _atom_site_label
 _atom_site_symmetry_multiplicity
 _atom_site_fract_x
 _atom_site_fract_y
 _atom_site_fract_z
 _atom_site_occupancy
  Li  Li0  1  0.89468300  0.43431700  0.39764200  1
  Li  Li1  1  0.23529000  0.92868100  0.91297300  1
  Li  Li2  1  0.40837200  0.53691100  0.11224200  1
  Li  Li3  1  0.72940600  0.49072700  0.16310200  1
  Li  Li4  1  0.76471000  0.92868100  0.41297300  1
  Li  Li5  1  0.10531700  0.43431700  0.89764200  1
  Li  Li6  1  0.59162800  0.53691100  0.61224200  1
  Li  Li7  1  0.27059400  0.49072700  0.66310200  1
  Mn  Mn0  1  0.22222300  0.52318900  0.33125200  1
  Mn  Mn1  1  0.77777700  0.52318900  0.83125200  1
  Fe  Fe0  1  0.56450600  0.97432400  0.87383400  1
  Fe  Fe1  1  0.07358700  0.01898400  0.63094300  1
  Fe  Fe2  1  0.43549400  0.97432400  0.37383400  1
  Fe  Fe3  1  0.92641300  0.01898400  0.13094300  1
  B  B0  1  0.58047200  0.45524100  0.37653600  1
  B  B1  1  0.91564400  0.97210100  0.87172800  1
  B  B2  1  0.06709500  0.54059200  0.11934400  1
  B  B3  1  0.41004300  0.03084400  0.62787400  1
  B  B4  1  0.08435600  0.97210100  0.37172800  1
  B  B5  1  0.41952800  0.45524100  0.87653600  1
  B  B6  1  0.58995700  0.03084400  0.12787400  1
  B  B7  1  0.93290500  0.54059200  0.61934400  1
  O  O0  1  0.57502700  0.83049100  0.07999900  1
  O  O1  1  0.93461800  0.31517100  0.58956400  1
  O  O2  1  0.20045700  0.66331400  0.12470100  1
  O  O3  1  0.93350800  0.64178400  0.14476900  1
  O  O4  1  0.52753900  0.11947700  0.67965400  1
  O  O5  1  0.27105200  0.15406500  0.62617400  1
  O  O6  1  0.43845300  0.36909200  0.35396700  1
  O  O7  1  0.77403700  0.86824100  0.86835800  1
  O  O8  1  0.03848100  0.86092600  0.83620100  1
  O  O9  1  0.70231900  0.32171900  0.36129800  1
  O  O10  1  0.06883700  0.18499700  0.41086300  1
  O  O11  1  0.41237400  0.67775200  0.91125700  1
  O  O12  1  0.06538200  0.31517100  0.08956400  1
  O  O13  1  0.42497300  0.83049100  0.57999900  1
  O  O14  1  0.47246100  0.11947700  0.17965400  1
  O  O15  1  0.79954300  0.66331400  0.62470100  1
  O  O16  1  0.72894800  0.15406500  0.12617400  1
  O  O17  1  0.06649200  0.64178400  0.64476900  1
  O  O18  1  0.22596300  0.86824100  0.36835800  1
  O  O19  1  0.56154700  0.36909200  0.85396700  1
  O  O20  1  0.96151900  0.86092600  0.33620100  1
  O  O21  1  0.29768100  0.32171900  0.86129800  1
  O  O22  1  0.58762600  0.67775200  0.41125700  1
  O  O23  1  0.93116300  0.18499700  0.91086300  1
loop_
_geom_bond_atom_site_label_1
_geom_bond_atom_site_label_2
_geom_bond_distance
_geom_bond_site_symmetry_2
Li0 O9 1.935185 1_555
Li0 O1 1.976381 1_555
Li0 O10 2.010893 1_655
Li0 O20 2.123097 1_555
Li0 O3 2.549522 1_555
Li1 O21 1.967883 1_565
Li1 O8 2.071944 1_555
Li1 O11 2.081037 1_555
Li1 O2 2.154461 1_556
Li2 O2 2.014740 1_555
Li2 O11 2.021657 1_554
Li2 O14 2.062335 1_555
Li2 O0 2.069394 1_555
Li2 O6 2.447301 1_555
Li3 O3 1.977336 1_555
Li3 O9 1.991962 1_555
Li3 O16 2.005144 1_555
Li3 O0 2.120783 1_555
Li4 O9 1.967883 1_565
Li4 O20 2.071944 1_555
Li4 O22 2.081037 1_555
Li4 O15 2.154461 1_555
Li5 O21 1.935185 1_555
Li5 O12 1.976381 1_556
Li5 O23 2.010893 1_455
Li5 O8 2.123097 1_555
Li5 O17 2.549522 1_555
Li6 O15 2.014740 1_555
Li6 O22 2.021657 1_555
Li6 O4 2.062335 1_555
Li6 O13 2.069394 1_555
Li6 O19 2.447301 1_555
Li7 O17 1.977336 1_555
Li7 O21 1.991962 1_555
Li7 O5 2.005144 1_555
Li7 O13 2.120783 1_555
Mn0 O18 2.050295 1_555
Mn0 O6 2.081395 1_555
Mn0 O2 2.090136 1_555
Mn0 O10 2.107860 1_555
Mn1 O7 2.050295 1_555
Mn1 O19 2.081395 1_555
Mn1 O15 2.090136 1_555
Mn1 O23 2.107860 1_555
Fe0 O4 1.974925 1_565
Fe0 O7 1.977847 1_555
Fe0 O11 1.978083 1_555
Fe0 O19 1.996938 1_565
Fe0 O0 2.076078 1_556
Fe1 O1 1.889922 1_455
Fe1 O5 1.908360 1_555
Fe1 O17 1.930974 1_545
Fe1 O8 2.079160 1_545
Fe1 O10 2.205800 1_555
Fe2 O14 1.974925 1_565
Fe2 O18 1.977847 1_555
Fe2 O22 1.978083 1_555
Fe2 O6 1.996938 1_565
Fe2 O13 2.076078 1_555
Fe3 O12 1.889922 1_655
Fe3 O16 1.908360 1_555
Fe3 O3 1.930974 1_545
Fe3 O20 2.079160 1_545
Fe3 O23 2.205800 1_554
B0 O9 1.357682 1_555
B0 O22 1.400622 1_555
B0 O6 1.418997 1_555
B1 O23 1.390590 1_565
B1 O8 1.393976 1_655
B1 O7 1.396122 1_555
B2 O12 1.378147 1_555
B2 O2 1.379785 1_555
B2 O3 1.398325 1_455
B3 O4 1.387716 1_555
B3 O13 1.396806 1_545
B3 O5 1.407569 1_555
B4 O10 1.390590 1_565
B4 O20 1.393976 1_455
B4 O18 1.396122 1_555
B5 O21 1.357682 1_555
B5 O11 1.400622 1_555
B5 O19 1.418997 1_555
B6 O14 1.387716 1_555
B6 O0 1.396806 1_545
B6 O16 1.407569 1_555
B7 O1 1.378147 1_555
B7 O15 1.379785 1_555
B7 O17 1.398325 1_655
