# generated using pymatgen
data_Li2V(PO4)2
_symmetry_space_group_name_H-M   'P 1'
_cell_length_a   4.88271767
_cell_length_b   8.79858149
_cell_length_c   14.77988255
_cell_angle_alpha   92.55759858
_cell_angle_beta   80.73534803
_cell_angle_gamma   105.89905281
_symmetry_Int_Tables_number   1
_chemical_formula_structural   Li2V(PO4)2
_chemical_formula_sum   'Li8 V4 P8 O32'
_cell_volume   602.70245382
_cell_formula_units_Z   4
loop_
 _symmetry_equiv_pos_site_id
 _symmetry_equiv_pos_as_xyz
  1  'x, y, z'
loop_
 _atom_site_type_symbol
 _atom_site_label
 _atom_site_symmetry_multiplicity
 _atom_site_fract_x
 _atom_site_fract_y
 _atom_site_fract_z
 _atom_site_occupancy
  Li  Li0  1  0.08642600  0.93458300  0.75444600  1
  Li  Li1  1  0.83638000  0.18368400  0.50490200  1
  Li  Li2  1  0.33626600  0.68190700  0.00547900  1
  Li  Li3  1  0.58699100  0.43381900  0.25569200  1
  Li  Li4  1  0.41352600  0.56601900  0.74403300  1
  Li  Li5  1  0.16454000  0.81678200  0.49482900  1
  Li  Li6  1  0.66288600  0.31780300  0.99501900  1
  Li  Li7  1  0.91320600  0.06553000  0.24555700  1
  V  V0  1  0.74928600  0.25003600  0.74965800  1
  V  V1  1  0.50054200  0.50023300  0.50000600  1
  V  V2  1  0.99942500  0.99968800  0.99996500  1
  V  V3  1  0.25038500  0.75008000  0.25040700  1
  P  P0  1  0.97624300  0.59059800  0.64097200  1
  P  P1  1  0.72548000  0.83989900  0.39135600  1
  P  P2  1  0.22481500  0.33896500  0.89061100  1
  P  P3  1  0.47457000  0.09030200  0.14200700  1
  P  P4  1  0.52429100  0.90933100  0.85788700  1
  P  P5  1  0.27464400  0.16032600  0.60864300  1
  P  P6  1  0.77471100  0.66096000  0.10958100  1
  P  P7  1  0.02483500  0.40962500  0.35902500  1
  O  O0  1  0.02760000  0.74333800  0.69169200  1
  O  O1  1  0.77633600  0.99247500  0.44220900  1
  O  O2  1  0.27370700  0.49054400  0.94256000  1
  O  O3  1  0.52390100  0.24352600  0.19217200  1
  O  O4  1  0.47594500  0.75622300  0.80758500  1
  O  O5  1  0.22515800  0.00775200  0.55775700  1
  O  O6  1  0.72491500  0.50925400  0.05776500  1
  O  O7  1  0.97289500  0.25686200  0.30829900  1
  O  O8  1  0.66360300  0.54370200  0.61398800  1
  O  O9  1  0.41258200  0.79260800  0.36467200  1
  O  O10  1  0.91231400  0.29256800  0.86345300  1
  O  O11  1  0.16431800  0.04071700  0.11429900  1
  O  O12  1  0.00363400  0.45451200  0.70126300  1
  O  O13  1  0.75411500  0.70403800  0.45158100  1
  O  O14  1  0.25625300  0.20279200  0.94995200  1
  O  O15  1  0.50354200  0.95537300  0.20302000  1
  O  O16  1  0.19895800  0.60531900  0.55002100  1
  O  O17  1  0.94791100  0.85466400  0.30042900  1
  O  O18  1  0.44808800  0.35533900  0.79973700  1
  O  O19  1  0.70424300  0.10546600  0.05220700  1
  O  O20  1  0.29460000  0.89376100  0.94772900  1
  O  O21  1  0.05148900  0.14518100  0.69940700  1
  O  O22  1  0.55234300  0.64507000  0.20055900  1
  O  O23  1  0.80224800  0.39515800  0.44990800  1
  O  O24  1  0.49505100  0.04455600  0.79721500  1
  O  O25  1  0.24664500  0.29612700  0.54832000  1
  O  O26  1  0.74256300  0.79687000  0.05015300  1
  O  O27  1  0.99757200  0.54548400  0.29850200  1
  O  O28  1  0.83450200  0.95894200  0.88566600  1
  O  O29  1  0.58726000  0.20770900  0.63561700  1
  O  O30  1  0.08765400  0.70743400  0.13630500  1
  O  O31  1  0.33740500  0.45646400  0.38587600  1
loop_
_geom_bond_atom_site_label_1
_geom_bond_atom_site_label_2
_geom_bond_distance
_geom_bond_site_symmetry_2
Li0 O0 1.858997 1_555
Li0 O21 2.115821 1_565
Li0 O24 2.147193 1_565
Li0 O28 2.158599 1_455
Li1 O1 1.858226 1_545
Li1 O23 2.121087 1_555
Li1 O29 2.145802 1_555
Li1 O25 2.162141 1_655
Li2 O2 1.860900 1_554
Li2 O30 2.148868 1_555
Li2 O20 2.156419 1_554
Li2 O26 2.158112 1_555
Li3 O3 1.857373 1_555
Li3 O22 2.121146 1_555
Li3 O31 2.137945 1_555
Li3 O27 2.158348 1_555
Li4 O4 1.856955 1_555
Li4 O18 2.120089 1_555
Li4 O8 2.136774 1_555
Li4 O12 2.154974 1_555
Li5 O5 1.858120 1_565
Li5 O16 2.122805 1_555
Li5 O9 2.137084 1_555
Li5 O13 2.162242 1_455
Li6 O6 1.860320 1_556
Li6 O19 2.155967 1_556
Li6 O10 2.158894 1_555
Li6 O14 2.162097 1_555
Li7 O7 1.859503 1_555
Li7 O17 2.116470 1_545
Li7 O15 2.150369 1_545
Li7 O11 2.158121 1_655
O0 P0 1.488916 1_455
O1 P1 1.488674 1_555
O2 P2 1.489430 1_555
O3 P3 1.488503 1_555
O4 P4 1.488663 1_555
O5 P5 1.488906 1_555
O6 P6 1.489368 1_555
O7 P7 1.489137 1_655
O8 P0 1.579829 1_555
O8 V1 1.955948 1_555
O9 P1 1.579208 1_555
O9 V3 1.957355 1_555
O10 P2 1.580286 1_655
O10 V0 1.952972 1_555
O11 P3 1.573084 1_555
O11 V2 1.964309 1_444
O12 P0 1.570653 1_455
O12 V0 1.973672 1_455
O13 P1 1.570799 1_555
O13 V1 1.968132 1_555
O14 P2 1.570413 1_555
O14 V2 1.975867 1_445
O15 P3 1.572014 1_565
O15 V3 1.972812 1_555
O16 P0 1.572899 1_455
O16 V1 1.975908 1_555
O17 P1 1.571871 1_555
O17 V3 1.976578 1_655
O18 P2 1.572557 1_555
O18 V0 1.975848 1_555
O19 P3 1.578458 1_555
O19 V2 1.962695 1_544
O20 P4 1.578705 1_555
O20 V2 1.963507 1_455
O21 P5 1.571725 1_555
O21 V0 1.977851 1_455
O22 P6 1.571625 1_555
O22 V3 1.976381 1_555
O23 P7 1.571971 1_655
O23 V1 1.976615 1_555
O24 P4 1.571498 1_545
O24 V0 1.976484 1_555
O25 P5 1.570058 1_555
O25 V1 1.970144 1_555
O26 P6 1.570690 1_555
O26 V2 1.974852 1_554
O27 P7 1.570906 1_655
O27 V3 1.970740 1_655
O28 P4 1.573322 1_555
O28 V2 1.963826 1_555
O29 P5 1.579603 1_555
O29 V0 1.953828 1_555
O30 P6 1.579754 1_455
O30 V3 1.956467 1_555
O31 P7 1.578738 1_555
O31 V1 1.958261 1_555
