# generated using pymatgen
data_Ti3CrNi2(PO4)6
_symmetry_space_group_name_H-M   'P 1'
_cell_length_a   8.50409655
_cell_length_b   8.50409655
_cell_length_c   8.50409653
_cell_angle_alpha   60.83299633
_cell_angle_beta   60.83299633
_cell_angle_gamma   60.83299830
_symmetry_Int_Tables_number   1
_chemical_formula_structural   Ti3CrNi2(PO4)6
_chemical_formula_sum   'Ti3 Cr1 Ni2 P6 O24'
_cell_volume   443.04900918
_cell_formula_units_Z   1
loop_
 _symmetry_equiv_pos_site_id
 _symmetry_equiv_pos_as_xyz
  1  'x, y, z'
loop_
 _atom_site_type_symbol
 _atom_site_label
 _atom_site_symmetry_multiplicity
 _atom_site_fract_x
 _atom_site_fract_y
 _atom_site_fract_z
 _atom_site_occupancy
  Ti  Ti0  1  0.14312200  0.14312200  0.14312200  1
  Ti  Ti1  1  0.35554200  0.35554200  0.35554200  1
  Ti  Ti2  1  0.64407700  0.64407700  0.64407700  1
  Cr  Cr0  1  0.85900500  0.85900500  0.85900500  1
  Ni  Ni0  1  0.00008800  0.00008800  0.00008800  1
  Ni  Ni1  1  0.49887900  0.49887900  0.49887900  1
  P  P0  1  0.54529600  0.24895800  0.95428000  1
  P  P1  1  0.95428000  0.54529600  0.24895800  1
  P  P2  1  0.24895800  0.95428000  0.54529600  1
  P  P3  1  0.75068600  0.04432800  0.45841400  1
  P  P4  1  0.04432800  0.45841400  0.75068600  1
  P  P5  1  0.45841400  0.75068600  0.04432800  1
  O  O0  1  0.31727400  0.11389700  0.49961700  1
  O  O1  1  0.49961700  0.31727400  0.11389700  1
  O  O2  1  0.91073600  0.05534800  0.25925600  1
  O  O3  1  0.11389700  0.49961700  0.31727400  1
  O  O4  1  0.81370500  0.00731300  0.61467600  1
  O  O5  1  0.58809700  0.24177400  0.43968000  1
  O  O6  1  0.05534800  0.25925600  0.91073600  1
  O  O7  1  0.24177400  0.43968000  0.58809700  1
  O  O8  1  0.38460100  0.18338700  0.99817900  1
  O  O9  1  0.43968000  0.58809700  0.24177400  1
  O  O10  1  0.74218800  0.08959700  0.94366800  1
  O  O11  1  0.99817900  0.38460100  0.18338700  1
  O  O12  1  0.00731300  0.61467600  0.81370500  1
  O  O13  1  0.25925600  0.91073600  0.05534800  1
  O  O14  1  0.55635200  0.41189000  0.75784200  1
  O  O15  1  0.61467600  0.81370500  0.00731300  1
  O  O16  1  0.75784200  0.55635200  0.41189000  1
  O  O17  1  0.94366800  0.74218800  0.08959700  1
  O  O18  1  0.41189000  0.75784200  0.55635200  1
  O  O19  1  0.18338700  0.99817900  0.38460100  1
  O  O20  1  0.88288000  0.50176600  0.68360100  1
  O  O21  1  0.08959700  0.94366800  0.74218800  1
  O  O22  1  0.50176600  0.68360100  0.88288000  1
  O  O23  1  0.68360100  0.88288000  0.50176600  1
loop_
_geom_bond_atom_site_label_1
_geom_bond_atom_site_label_2
_geom_bond_distance
_geom_bond_site_symmetry_2
Cr0 O15 1.951576 1_556
Cr0 O4 1.951576 1_565
Cr0 O12 1.951576 1_655
Cr0 O21 2.032457 1_655
Cr0 O17 2.032457 1_556
Cr0 O10 2.032457 1_565
Ni0 O17 2.159224 1_445
Ni0 O21 2.159224 1_544
Ni0 O10 2.159224 1_454
Ni0 O6 2.164466 1_554
Ni0 O2 2.164466 1_455
Ni0 O13 2.164466 1_545
Ni1 O7 2.166399 1_555
Ni1 O9 2.166399 1_555
Ni1 O5 2.166399 1_555
Ni1 O16 2.178256 1_555
Ni1 O14 2.178256 1_555
Ni1 O18 2.178256 1_555
O0 P2 1.538076 1_545
O0 Ti1 1.907632 1_555
O1 P0 1.538076 1_554
O1 Ti1 1.907632 1_555
O2 P3 1.566048 1_555
O2 Ti0 2.062748 1_655
O3 P1 1.538076 1_455
O3 Ti1 1.907632 1_555
O4 P3 1.508041 1_555
O5 P3 1.564471 1_555
O5 Ti1 2.049075 1_555
O6 P4 1.566048 1_555
O6 Ti0 2.062748 1_556
O7 P4 1.564471 1_555
O7 Ti1 2.049075 1_555
O8 P0 1.536358 1_555
O8 Ti0 1.913231 1_556
O9 P5 1.564471 1_555
O9 Ti1 2.049075 1_555
O10 P0 1.551929 1_555
O11 P1 1.536358 1_555
O11 Ti0 1.913231 1_655
O12 P4 1.508041 1_555
O13 P5 1.566048 1_555
O13 Ti0 2.062748 1_565
O14 P0 1.561125 1_555
O14 Ti2 2.064377 1_555
O15 P5 1.508041 1_555
O16 P1 1.561125 1_555
O16 Ti2 2.064377 1_555
O17 P1 1.551929 1_555
O18 P2 1.561125 1_555
O18 Ti2 2.064377 1_555
O19 P2 1.536358 1_555
O19 Ti0 1.913231 1_565
O20 P4 1.552907 1_655
O20 Ti2 1.890776 1_555
O21 P2 1.551929 1_555
O22 P5 1.552907 1_556
O22 Ti2 1.890776 1_555
O23 P3 1.552907 1_565
O23 Ti2 1.890776 1_555
