# generated using pymatgen
data_Na3Li3Mn2P2(CO7)2
_symmetry_space_group_name_H-M   'P 1'
_cell_length_a   6.79216500
_cell_length_b   8.75921479
_cell_length_c   10.26003535
_cell_angle_alpha   88.33989320
_cell_angle_beta   89.96881132
_cell_angle_gamma   89.76964447
_symmetry_Int_Tables_number   1
_chemical_formula_structural   Na3Li3Mn2P2(CO7)2
_chemical_formula_sum   'Na6 Li6 Mn4 P4 C4 O28'
_cell_volume   610.14967996
_cell_formula_units_Z   2
loop_
 _symmetry_equiv_pos_site_id
 _symmetry_equiv_pos_as_xyz
  1  'x, y, z'
loop_
 _atom_site_type_symbol
 _atom_site_label
 _atom_site_symmetry_multiplicity
 _atom_site_fract_x
 _atom_site_fract_y
 _atom_site_fract_z
 _atom_site_occupancy
  Na  Na0  1  0.74414100  0.91579500  0.12422600  1
  Na  Na1  1  0.00238200  0.74845100  0.37305800  1
  Na  Na2  1  0.99894900  0.74625800  0.87364700  1
  Na  Na3  1  0.50073200  0.74722200  0.87291100  1
  Na  Na4  1  0.49921500  0.24991900  0.12621900  1
  Na  Na5  1  0.49938600  0.25277900  0.62622500  1
  Li  Li0  1  0.75998100  0.91051400  0.62418400  1
  Li  Li1  1  0.54263600  0.71617200  0.39416300  1
  Li  Li2  1  0.03866900  0.27860100  0.10976200  1
  Li  Li3  1  0.02420800  0.27253500  0.61592700  1
  Li  Li4  1  0.24081900  0.09474700  0.37360400  1
  Li  Li5  1  0.23037300  0.09869100  0.87245600  1
  Mn  Mn0  1  0.25419600  0.63860300  0.11564500  1
  Mn  Mn1  1  0.25233300  0.64291400  0.60917800  1
  Mn  Mn2  1  0.75811200  0.34814000  0.38810600  1
  Mn  Mn3  1  0.75532500  0.35714500  0.89001500  1
  P  P0  1  0.75353600  0.58265900  0.14810500  1
  P  P1  1  0.75577400  0.59063000  0.64143500  1
  P  P2  1  0.25318200  0.40471500  0.35785200  1
  P  P3  1  0.24756000  0.40669000  0.85720100  1
  C  C0  1  0.23739200  0.95728300  0.13493400  1
  C  C1  1  0.23650600  0.95776100  0.63512800  1
  C  C2  1  0.73532300  0.03814800  0.37392000  1
  C  C3  1  0.75318300  0.06123100  0.85162500  1
  O  O0  1  0.71471800  0.89431300  0.35161400  1
  O  O1  1  0.74944200  0.91790800  0.82267600  1
  O  O2  1  0.24446100  0.92862400  0.01108700  1
  O  O3  1  0.23622000  0.92720800  0.51253800  1
  O  O4  1  0.25233000  0.84616100  0.22177600  1
  O  O5  1  0.25444800  0.84666200  0.72296700  1
  O  O6  1  0.93532100  0.68215900  0.11055700  1
  O  O7  1  0.56975000  0.66854100  0.09348000  1
  O  O8  1  0.93415300  0.69337800  0.60191400  1
  O  O9  1  0.57039100  0.68128600  0.59242700  1
  O  O10  1  0.73729500  0.56916500  0.30034500  1
  O  O11  1  0.26977800  0.56962100  0.41037700  1
  O  O12  1  0.74817000  0.57256300  0.79320000  1
  O  O13  1  0.24994100  0.56795800  0.91600500  1
  O  O14  1  0.77193400  0.41785100  0.09516100  1
  O  O15  1  0.22813700  0.41975500  0.20631000  1
  O  O16  1  0.76718600  0.42884200  0.58396700  1
  O  O17  1  0.22276100  0.42657100  0.70594800  1
  O  O18  1  0.43737100  0.30494600  0.39038300  1
  O  O19  1  0.07649200  0.31342500  0.41710800  1
  O  O20  1  0.43687300  0.31269200  0.88834200  1
  O  O21  1  0.07632700  0.30719100  0.91426400  1
  O  O22  1  0.75075000  0.13607200  0.27538800  1
  O  O23  1  0.76839800  0.16482600  0.75832800  1
  O  O24  1  0.74403700  0.08704100  0.49214500  1
  O  O25  1  0.74235700  0.10451500  0.97138200  1
  O  O26  1  0.21696000  0.09618500  0.17527300  1
  O  O27  1  0.22009100  0.09693800  0.67551200  1
loop_
_geom_bond_atom_site_label_1
_geom_bond_atom_site_label_2
_geom_bond_distance
_geom_bond_site_symmetry_2
Na0 O25 2.245340 1_564
Na0 O0 2.343637 1_555
Na0 O6 2.426712 1_555
Na0 O7 2.500726 1_555
Na0 O22 2.510844 1_565
Na1 O0 2.337187 1_455
Na1 O11 2.417013 1_555
Na1 O8 2.428145 1_455
Na1 O4 2.440428 1_555
Na1 O10 2.521245 1_455
Na1 O3 2.678524 1_555
Na1 O6 2.809345 1_455
Na2 O1 2.311053 1_555
Na2 O13 2.339730 1_655
Na2 O12 2.447957 1_555
Na2 O5 2.470965 1_655
Na2 O6 2.516360 1_556
Na2 O2 2.734112 1_656
Na2 O8 2.873834 1_555
Na3 O1 2.308523 1_555
Na3 O13 2.354387 1_555
Na3 O7 2.392550 1_556
Na3 O5 2.416019 1_555
Na3 O12 2.425748 1_555
Na3 O2 2.769472 1_556
Na4 O14 2.385490 1_555
Na4 O26 2.392155 1_555
Na4 O22 2.481204 1_555
Na4 O15 2.515053 1_555
Na4 O20 2.521861 1_554
Na4 O25 2.640201 1_554
Na4 O18 2.797765 1_555
Na5 O27 2.386949 1_555
Na5 O23 2.387470 1_555
Na5 O16 2.420286 1_555
Na5 O18 2.485336 1_555
Na5 O17 2.562045 1_555
Na5 O24 2.618224 1_555
Na5 O20 2.786920 1_555
Li0 O24 2.028621 1_565
Li0 O1 2.040647 1_555
Li0 O8 2.252972 1_555
Li0 O9 2.419720 1_555
Li1 O0 1.991509 1_555
Li1 O9 2.056892 1_555
Li1 O10 2.095107 1_555
Li1 O11 2.261994 1_555
Li2 O21 2.030342 1_554
Li2 O15 2.061842 1_555
Li2 O26 2.096280 1_555
Li2 O14 2.182748 1_455
Li3 O19 2.091279 1_555
Li3 O27 2.107028 1_555
Li3 O17 2.140194 1_555
Li3 O16 2.232716 1_455
Li3 O23 2.444217 1_455
Li4 O3 2.016342 1_545
Li4 O26 2.041085 1_555
Li4 O19 2.268421 1_555
Li4 O18 2.289152 1_555
Li5 O27 2.022402 1_555
Li5 O2 2.031641 1_546
Li5 O21 2.154913 1_555
Li5 O20 2.355116 1_555
Mn0 O15 2.114362 1_555
Mn0 O4 2.146083 1_555
Mn0 O13 2.157076 1_554
Mn0 O7 2.171343 1_555
Mn0 O6 2.198071 1_455
Mn1 O17 2.123901 1_555
Mn1 O11 2.159070 1_555
Mn1 O5 2.160837 1_555
Mn1 O9 2.193513 1_555
Mn1 O8 2.204997 1_455
Mn2 O10 2.115613 1_555
Mn2 O16 2.150472 1_555
Mn2 O19 2.201712 1_655
Mn2 O18 2.212629 1_555
Mn2 O22 2.217147 1_555
Mn2 O24 2.497848 1_555
Mn3 O12 2.107163 1_555
Mn3 O14 2.188895 1_556
Mn3 O23 2.191275 1_555
Mn3 O20 2.199450 1_555
Mn3 O21 2.234652 1_655
Mn3 O25 2.344315 1_555
C0 O2 1.303171 1_555
C0 O26 1.303305 1_565
C0 O4 1.304081 1_555
C1 O3 1.293499 1_555
C1 O27 1.303224 1_565
C1 O5 1.312410 1_555
C2 O0 1.295154 1_545
C2 O24 1.299479 1_555
C2 O22 1.311130 1_555
C3 O25 1.298287 1_555
C3 O1 1.298752 1_545
C3 O23 1.304103 1_555
O6 P0 1.556020 1_555
O7 P0 1.551467 1_555
O8 P1 1.558659 1_555
O9 P1 1.561527 1_555
O10 P0 1.566897 1_555
O11 P2 1.560780 1_555
O12 P1 1.561415 1_555
O13 P3 1.552169 1_555
O14 P0 1.561585 1_555
O15 P2 1.565892 1_555
O16 P1 1.552230 1_555
O17 P3 1.565682 1_555
O18 P2 1.554017 1_555
O19 P2 1.558218 1_555
O20 P3 1.552443 1_555
O21 P3 1.559762 1_555
