# generated using pymatgen
data_Li3Mn(SbO3)4
_symmetry_space_group_name_H-M   'P 1'
_cell_length_a   5.30426554
_cell_length_b   7.71625712
_cell_length_c   11.17057534
_cell_angle_alpha   85.95343823
_cell_angle_beta   90.04896689
_cell_angle_gamma   90.04093308
_symmetry_Int_Tables_number   1
_chemical_formula_structural   Li3Mn(SbO3)4
_chemical_formula_sum   'Li6 Mn2 Sb8 O24'
_cell_volume   456.06128240
_cell_formula_units_Z   2
loop_
 _symmetry_equiv_pos_site_id
 _symmetry_equiv_pos_as_xyz
  1  'x, y, z'
loop_
 _atom_site_type_symbol
 _atom_site_label
 _atom_site_symmetry_multiplicity
 _atom_site_fract_x
 _atom_site_fract_y
 _atom_site_fract_z
 _atom_site_occupancy
  Li  Li0  1  0.49971600  0.78283100  0.52836400  1
  Li  Li1  1  0.49971200  0.78284300  0.02838200  1
  Li  Li2  1  0.00043100  0.78375000  0.78385000  1
  Li  Li3  1  0.00043400  0.78374800  0.28384500  1
  Li  Li4  1  0.49923400  0.28036800  0.03079700  1
  Li  Li5  1  0.49924100  0.28036500  0.53081000  1
  Mn  Mn0  1  0.00035000  0.27634000  0.78059000  1
  Mn  Mn1  1  0.00029500  0.27637100  0.28054400  1
  Sb  Sb0  1  0.99967000  0.99019500  0.99914100  1
  Sb  Sb1  1  0.99969800  0.99017400  0.49911000  1
  Sb  Sb2  1  0.50010400  0.50291300  0.74345700  1
  Sb  Sb3  1  0.50007100  0.50290300  0.24348700  1
  Sb  Sb4  1  0.99800100  0.50111600  0.99545000  1
  Sb  Sb5  1  0.99797400  0.50106400  0.49538500  1
  Sb  Sb6  1  0.50206600  0.98966900  0.74469600  1
  Sb  Sb7  1  0.50203100  0.98966400  0.24472500  1
  O  O0  1  0.29955400  0.41828200  0.39145600  1
  O  O1  1  0.29949700  0.41828400  0.89141600  1
  O  O2  1  0.13260600  0.74422000  0.48229800  1
  O  O3  1  0.13263600  0.74425300  0.98228900  1
  O  O4  1  0.32328400  0.04799300  0.58287600  1
  O  O5  1  0.32332300  0.04798900  0.08289500  1
  O  O6  1  0.19880400  0.42040600  0.64300100  1
  O  O7  1  0.19887600  0.42040200  0.14303700  1
  O  O8  1  0.80517200  0.91443500  0.64751400  1
  O  O9  1  0.80511300  0.91442100  0.14756500  1
  O  O10  1  0.36511100  0.74484000  0.73181100  1
  O  O11  1  0.36516700  0.74482700  0.23180300  1
  O  O12  1  0.62130600  0.24251300  0.73023500  1
  O  O13  1  0.62121800  0.24254500  0.23022700  1
  O  O14  1  0.17860500  0.04107100  0.83300800  1
  O  O15  1  0.17860000  0.04103200  0.33303600  1
  O  O16  1  0.82982600  0.54422000  0.82748400  1
  O  O17  1  0.82979600  0.54427900  0.32746800  1
  O  O18  1  0.69969000  0.91515200  0.89469500  1
  O  O19  1  0.69969700  0.91518000  0.39468800  1
  O  O20  1  0.87582000  0.24172200  0.98024400  1
  O  O21  1  0.87577400  0.24172600  0.48027200  1
  O  O22  1  0.67073100  0.54754500  0.07863600  1
  O  O23  1  0.67076100  0.54754900  0.57861000  1
loop_
_geom_bond_atom_site_label_1
_geom_bond_atom_site_label_2
_geom_bond_distance
_geom_bond_site_symmetry_2
Li0 O2 2.040695 1_555
Li0 O19 2.045439 1_555
Li0 O23 2.071681 1_555
Li0 O4 2.369072 1_565
Li0 O8 2.369081 1_555
Li0 O10 2.380957 1_555
Li1 O3 2.040575 1_554
Li1 O18 2.045378 1_554
Li1 O22 2.071745 1_555
Li1 O5 2.368876 1_565
Li1 O9 2.369006 1_555
Li1 O11 2.380597 1_555
Li2 O8 2.047190 1_455
Li2 O10 2.048705 1_555
Li2 O16 2.084184 1_455
Li2 O14 2.299447 1_565
Li2 O18 2.299733 1_455
Li2 O3 2.323919 1_555
Li3 O9 2.046872 1_455
Li3 O11 2.048994 1_555
Li3 O17 2.083829 1_455
Li3 O15 2.299289 1_565
Li3 O19 2.299817 1_455
Li3 O2 2.324029 1_555
Li4 O5 2.067794 1_555
Li4 O20 2.103430 1_554
Li4 O1 2.108092 1_554
Li4 O13 2.317917 1_555
Li4 O7 2.339837 1_555
Li4 O22 2.348459 1_555
Li5 O4 2.067780 1_555
Li5 O21 2.103108 1_555
Li5 O0 2.107750 1_555
Li5 O12 2.317996 1_555
Li5 O6 2.339838 1_555
Li5 O23 2.348429 1_555
Mn0 O14 2.093799 1_555
Mn0 O12 2.108288 1_455
Mn0 O6 2.113294 1_555
Mn0 O20 2.323762 1_455
Mn0 O1 2.331431 1_555
Mn0 O16 2.349776 1_455
Mn1 O15 2.094557 1_555
Mn1 O13 2.108338 1_455
Mn1 O7 2.112870 1_555
Mn1 O21 2.324545 1_455
Mn1 O0 2.332247 1_555
Mn1 O17 2.350014 1_455
O0 Sb3 2.034540 1_555
O0 Sb5 2.103338 1_455
O1 Sb2 2.034718 1_555
O1 Sb4 2.103805 1_455
O2 Sb5 2.002805 1_455
O2 Sb1 2.046098 1_455
O3 Sb4 2.002680 1_455
O3 Sb0 2.046188 1_455
O4 Sb1 2.018828 1_445
O4 Sb6 2.062084 1_545
O5 Sb0 2.019018 1_444
O5 Sb7 2.062001 1_545
O6 Sb5 2.023433 1_455
O6 Sb2 2.077261 1_555
O7 Sb4 2.023410 1_454
O7 Sb3 2.076779 1_555
O8 Sb1 2.004915 1_555
O8 Sb6 2.047835 1_555
O9 Sb0 2.005243 1_554
O9 Sb7 2.047621 1_555
O10 Sb2 1.995481 1_555
O10 Sb6 2.038042 1_555
O11 Sb3 1.995290 1_555
O11 Sb7 2.037984 1_555
O12 Sb6 2.046093 1_545
O12 Sb2 2.125171 1_555
O13 Sb7 2.046281 1_545
O13 Sb3 2.124832 1_555
O14 Sb6 2.033048 1_545
O14 Sb0 2.097283 1_445
O15 Sb7 2.032848 1_545
O15 Sb1 2.096611 1_445
O16 Sb2 2.019903 1_555
O16 Sb4 2.082371 1_555
O17 Sb3 2.019774 1_555
O17 Sb5 2.081974 1_555
O18 Sb6 2.024569 1_555
O18 Sb0 2.078276 1_555
O19 Sb7 2.024302 1_555
O19 Sb1 2.078086 1_555
O20 Sb0 2.046160 1_545
O20 Sb4 2.121558 1_555
O21 Sb1 2.046444 1_545
O21 Sb5 2.121027 1_555
O22 Sb4 2.013927 1_554
O22 Sb3 2.059617 1_555
O23 Sb5 2.013964 1_555
O23 Sb2 2.059565 1_555
