# generated using pymatgen
data_Ti3MnO8
_symmetry_space_group_name_H-M   'P 1'
_cell_length_a   5.93734100
_cell_length_b   5.93733270
_cell_length_c   8.91321400
_cell_angle_alpha   90.00039437
_cell_angle_beta   89.99980063
_cell_angle_gamma   119.99998942
_symmetry_Int_Tables_number   1
_chemical_formula_structural   Ti3MnO8
_chemical_formula_sum   'Ti6 Mn2 O16'
_cell_volume   272.11243581
_cell_formula_units_Z   2
loop_
 _symmetry_equiv_pos_site_id
 _symmetry_equiv_pos_as_xyz
  1  'x, y, z'
loop_
 _atom_site_type_symbol
 _atom_site_label
 _atom_site_symmetry_multiplicity
 _atom_site_fract_x
 _atom_site_fract_y
 _atom_site_fract_z
 _atom_site_occupancy
  Ti  Ti0  1  0.16650000  0.83350000  0.20625100  1
  Ti  Ti1  1  0.16651700  0.33302600  0.20624200  1
  Ti  Ti2  1  0.66699200  0.83351100  0.20624900  1
  Ti  Ti3  1  0.33300200  0.16651600  0.70624600  1
  Ti  Ti4  1  0.83350300  0.66700500  0.70624800  1
  Ti  Ti5  1  0.83348500  0.16650500  0.70623900  1
  Mn  Mn0  1  0.33333400  0.66667500  0.48229800  1
  Mn  Mn1  1  0.66666900  0.33334300  0.98228200  1
  O  O0  1  0.17298900  0.82701600  0.60595100  1
  O  O1  1  0.05311900  0.52656800  0.34344400  1
  O  O2  1  0.33334100  0.66667200  0.09600400  1
  O  O3  1  0.00000200  0.00001100  0.31264000  1
  O  O4  1  0.99999700  0.00000800  0.81264000  1
  O  O5  1  0.17298900  0.34599300  0.60595200  1
  O  O6  1  0.47343900  0.94689000  0.34344600  1
  O  O7  1  0.47344100  0.52656800  0.34344500  1
  O  O8  1  0.34598000  0.17299100  0.10594700  1
  O  O9  1  0.65401800  0.82701000  0.60594800  1
  O  O10  1  0.52655900  0.47345300  0.84344900  1
  O  O11  1  0.52655700  0.05312500  0.84344800  1
  O  O12  1  0.66665900  0.33333100  0.59600400  1
  O  O13  1  0.82701200  0.65402900  0.10595000  1
  O  O14  1  0.94688400  0.47345100  0.84344700  1
  O  O15  1  0.82701200  0.17300400  0.10595100  1
loop_
_geom_bond_atom_site_label_1
_geom_bond_atom_site_label_2
_geom_bond_distance
_geom_bond_site_symmetry_2
Mn0 O7 1.899390 1_555
Mn0 O6 1.899399 1_555
Mn0 O1 1.899407 1_555
Mn0 O9 1.983333 1_555
Mn0 O5 1.983347 1_555
Mn0 O0 1.983349 1_555
Mn1 O11 1.899295 1_555
Mn1 O14 1.899296 1_555
Mn1 O10 1.899309 1_555
Mn1 O15 1.983422 1_556
Mn1 O13 1.983423 1_556
Mn1 O8 1.983428 1_556
O0 Ti4 1.962049 1_455
O0 Ti3 1.962099 1_565
O1 Ti0 2.010652 1_555
O1 Ti1 2.010712 1_555
O2 Ti1 1.977030 1_555
O2 Ti2 1.977080 1_555
O2 Ti0 1.977163 1_555
O3 Ti0 1.957330 1_545
O3 Ti2 1.957350 1_445
O3 Ti1 1.957405 1_555
O4 Ti4 1.957316 1_545
O4 Ti3 1.957340 1_655
O4 Ti5 1.957392 1_555
O5 Ti3 1.962058 1_555
O5 Ti5 1.962091 1_455
O6 Ti2 2.010665 1_555
O6 Ti0 2.010684 1_555
O7 Ti1 2.010665 1_555
O7 Ti2 2.010708 1_555
O8 Ti1 1.962086 1_555
O8 Ti0 1.962103 1_545
O9 Ti5 1.962057 1_565
O9 Ti4 1.962084 1_555
O10 Ti3 2.010718 1_555
O10 Ti4 2.010737 1_555
O11 Ti5 2.010717 1_555
O11 Ti3 2.010756 1_555
O12 Ti5 1.977044 1_555
O12 Ti3 1.977094 1_555
O12 Ti4 1.977171 1_555
O13 Ti0 1.962073 1_655
O13 Ti2 1.962124 1_555
O14 Ti4 2.010698 1_555
O14 Ti5 2.010770 1_555
O15 Ti2 1.962086 1_545
O15 Ti1 1.962111 1_655
