# generated using pymatgen
data_Li5V5O12
_symmetry_space_group_name_H-M   'P 1'
_cell_length_a   5.09006500
_cell_length_b   5.10248004
_cell_length_c   19.78077093
_cell_angle_alpha   87.32729284
_cell_angle_beta   85.35869304
_cell_angle_gamma   60.52318657
_symmetry_Int_Tables_number   1
_chemical_formula_structural   Li5V5O12
_chemical_formula_sum   'Li10 V10 O24'
_cell_volume   445.76313894
_cell_formula_units_Z   2
loop_
 _symmetry_equiv_pos_site_id
 _symmetry_equiv_pos_as_xyz
  1  'x, y, z'
loop_
 _atom_site_type_symbol
 _atom_site_label
 _atom_site_symmetry_multiplicity
 _atom_site_fract_x
 _atom_site_fract_y
 _atom_site_fract_z
 _atom_site_occupancy
  Li  Li0  1  0.66271600  0.17772800  0.99852900  1
  Li  Li1  1  0.42219800  0.18100100  0.75165700  1
  Li  Li2  1  0.37835700  0.49973500  0.87549600  1
  Li  Li3  1  0.15994900  0.17281100  0.49830400  1
  Li  Li4  1  0.01623600  0.50085600  0.99833800  1
  Li  Li5  1  0.23409700  0.49618700  0.25137800  1
  Li  Li6  1  0.90590900  0.18351600  0.25131600  1
  Li  Li7  1  0.09801100  0.82976300  0.75147000  1
  Li  Li8  1  0.87422200  0.50075300  0.37484600  1
  Li  Li9  1  0.51408100  0.49429300  0.49843700  1
  V  V0  1  0.79243400  0.16980700  0.62525300  1
  V  V1  1  0.54111500  0.16757300  0.37615700  1
  V  V2  1  0.03798900  0.17530000  0.87293600  1
  V  V3  1  0.29365300  0.16402800  0.12542000  1
  V  V4  1  0.12107600  0.50511400  0.62457400  1
  V  V5  1  0.70403700  0.83010900  0.87624500  1
  V  V6  1  0.62164300  0.50655300  0.12505800  1
  V  V7  1  0.95339100  0.83973800  0.12512900  1
  V  V8  1  0.46141000  0.83473700  0.62478800  1
  V  V9  1  0.21035000  0.82895300  0.37391900  1
  O  O0  1  0.76188500  0.13279900  0.82076500  1
  O  O1  1  0.84765700  0.14997000  0.42727900  1
  O  O2  1  0.34582000  0.14671100  0.92740100  1
  O  O3  1  0.47077000  0.18079700  0.57028200  1
  O  O4  1  0.61130600  0.16881500  0.18044600  1
  O  O5  1  0.25274100  0.15018500  0.32210300  1
  O  O6  1  0.11236800  0.15989000  0.67976500  1
  O  O7  1  0.43786600  0.49708400  0.68069900  1
  O  O8  1  0.24051600  0.47085100  0.43022500  1
  O  O9  1  0.04142500  0.48786300  0.82162800  1
  O  O10  1  0.96724400  0.17387900  0.07026400  1
  O  O11  1  0.30149800  0.50048800  0.06992200  1
  O  O12  1  0.73196900  0.47333900  0.92916400  1
  O  O13  1  0.94707600  0.49882100  0.18091100  1
  O  O14  1  0.80789800  0.48072300  0.56898800  1
  O  O15  1  0.14401900  0.84423300  0.56994200  1
  O  O16  1  0.98330900  0.85723400  0.92816000  1
  O  O17  1  0.53455200  0.47571600  0.31990100  1
  O  O18  1  0.77500700  0.85781900  0.67993600  1
  O  O19  1  0.90428500  0.85293900  0.32310800  1
  O  O20  1  0.66847500  0.83571300  0.06951900  1
  O  O21  1  0.38078500  0.86631700  0.82250300  1
  O  O22  1  0.49036300  0.85274900  0.42754100  1
  O  O23  1  0.24744000  0.83415300  0.18008100  1
loop_
_geom_bond_atom_site_label_1
_geom_bond_atom_site_label_2
_geom_bond_distance
_geom_bond_site_symmetry_2
Li0 O16 2.119698 1_545
Li0 O12 2.129317 1_555
Li0 O10 2.177149 1_556
Li0 O20 2.178526 1_546
Li0 O11 2.214451 1_556
Li0 O2 2.290354 1_555
Li1 O7 2.115410 1_555
Li1 O21 2.159152 1_545
Li1 O18 2.201917 1_545
Li1 O0 2.202588 1_555
Li1 O9 2.214757 1_555
Li1 O6 2.250651 1_555
Li2 O2 2.102344 1_555
Li2 O21 2.106050 1_555
Li2 O12 2.107632 1_555
Li2 O9 2.117620 1_555
Li2 O16 2.164358 1_455
Li2 O0 2.176799 1_555
Li3 O22 2.141037 1_545
Li3 O8 2.151210 1_555
Li3 O14 2.159423 1_455
Li3 O15 2.172350 1_545
Li3 O3 2.228284 1_555
Li3 O1 2.252378 1_455
Li4 O11 2.107875 1_556
Li4 O12 2.126944 1_455
Li4 O16 2.182669 1_455
Li4 O20 2.209005 1_456
Li4 O2 2.218272 1_555
Li4 O10 2.236204 1_456
Li5 O17 2.086156 1_555
Li5 O13 2.094277 1_455
Li5 O5 2.170099 1_555
Li5 O23 2.200071 1_555
Li5 O19 2.234498 1_455
Li5 O4 2.252031 1_555
Li6 O17 2.153257 1_555
Li6 O13 2.155776 1_555
Li6 O19 2.156467 1_545
Li6 O4 2.163378 1_555
Li6 O23 2.230106 1_645
Li6 O5 2.277834 1_655
Li7 O0 2.100357 1_465
Li7 O21 2.167185 1_555
Li7 O6 2.176263 1_565
Li7 O7 2.184837 1_555
Li7 O18 2.202677 1_455
Li7 O9 2.292669 1_555
Li8 O1 2.083258 1_555
Li8 O19 2.091375 1_555
Li8 O5 2.111225 1_655
Li8 O22 2.126333 1_555
Li8 O17 2.172842 1_555
Li8 O8 2.175883 1_655
Li9 O8 2.063216 1_555
Li9 O14 2.101398 1_555
Li9 O3 2.170564 1_555
Li9 O1 2.204302 1_555
Li9 O22 2.213009 1_555
Li9 O15 2.287196 1_555
O0 V2 1.908575 1_655
O0 V5 1.978293 1_545
O1 V1 1.890558 1_555
O1 V9 2.018708 1_645
O2 V2 1.915904 1_555
O2 V5 1.978200 1_545
O3 V4 2.004400 1_555
O3 V0 2.014526 1_555
O3 V8 2.044401 1_545
O4 V7 2.008545 1_545
O4 V6 2.019093 1_555
O4 V3 2.031201 1_555
O5 V1 1.922678 1_555
O5 V9 1.984761 1_545
O6 V0 2.003803 1_455
O6 V8 2.011564 1_545
O6 V4 2.046059 1_555
O7 V4 2.013644 1_555
O7 V0 2.033021 1_555
O7 V8 2.051787 1_555
O8 V1 1.854440 1_555
O8 V9 2.040718 1_555
O9 V2 1.856747 1_555
O9 V5 2.022437 1_455
O10 V7 2.005742 1_545
O10 V6 2.018663 1_555
O10 V3 2.039440 1_655
O11 V3 2.009648 1_555
O11 V7 2.042833 1_455
O11 V6 2.046044 1_555
O12 V2 1.876740 1_655
O12 V5 2.005371 1_555
O13 V7 2.028489 1_555
O13 V3 2.032441 1_655
O13 V6 2.047896 1_555
O14 V0 1.925029 1_555
O14 V4 2.063316 1_655
O14 V8 2.080219 1_555
O15 V8 1.997756 1_555
O15 V0 2.021442 1_465
O15 V4 2.044414 1_555
O16 V5 1.880835 1_555
O16 V2 2.033378 1_665
O17 V1 1.871542 1_555
O17 V9 2.020053 1_555
O18 V0 1.917009 1_565
O18 V8 2.056845 1_555
O18 V4 2.071892 1_655
O19 V9 1.872559 1_655
O19 V1 2.004546 1_565
O20 V7 1.898218 1_555
O20 V6 2.064979 1_555
O20 V3 2.086855 1_565
O21 V2 1.919123 1_565
O21 V5 1.958844 1_555
O22 V9 1.896895 1_555
O22 V1 1.973305 1_565
O23 V7 1.908138 1_455
O23 V3 2.058219 1_565
O23 V6 2.075452 1_555
