# generated using pymatgen
data_SnP3
_symmetry_space_group_name_H-M   'P 1'
_cell_length_a   5.58462084
_cell_length_b   5.58462040
_cell_length_c   5.58462069
_cell_angle_alpha   82.69284891
_cell_angle_beta   82.69284899
_cell_angle_gamma   82.69285110
_symmetry_Int_Tables_number   1
_chemical_formula_structural   SnP3
_chemical_formula_sum   'Sn2 P6'
_cell_volume   170.26114481
_cell_formula_units_Z   2
loop_
 _symmetry_equiv_pos_site_id
 _symmetry_equiv_pos_as_xyz
  1  'x, y, z'
loop_
 _atom_site_type_symbol
 _atom_site_label
 _atom_site_symmetry_multiplicity
 _atom_site_fract_x
 _atom_site_fract_y
 _atom_site_fract_z
 _atom_site_occupancy
  Sn  Sn0  1  0.74594195  0.74594195  0.74594195  1
  Sn  Sn1  1  0.25405805  0.25405805  0.25405805  1
  P  P0  1  0.20089177  0.20089177  0.74082120  1
  P  P1  1  0.20089177  0.74082120  0.20089177  1
  P  P2  1  0.79910823  0.25917880  0.79910823  1
  P  P3  1  0.79910823  0.79910823  0.25917880  1
  P  P4  1  0.25917880  0.79910823  0.79910823  1
  P  P5  1  0.74082120  0.20089177  0.20089177  1
loop_
_geom_bond_atom_site_label_1
_geom_bond_atom_site_label_2
_geom_bond_distance
_geom_bond_site_symmetry_2
P0 P4 2.214037 1_545
P0 P2 2.214037 1_455
P0 Sn1 2.679131 1_555
P0 Sn1 2.974390 1_556
P1 P4 2.214037 1_554
P1 P3 2.214037 1_455
P1 Sn1 2.679131 1_555
P1 Sn1 2.974390 1_565
P2 P5 2.214037 1_556
P2 Sn0 2.679131 1_555
P2 Sn0 2.974390 1_545
P3 P5 2.214037 1_565
P3 Sn0 2.679131 1_555
P3 Sn0 2.974390 1_554
P4 Sn0 2.679131 1_555
P4 Sn0 2.974390 1_455
P5 Sn1 2.679131 1_555
P5 Sn1 2.974390 1_655
