# generated using pymatgen
data_Co6P7O24
_symmetry_space_group_name_H-M   'P 1'
_cell_length_a   26.54635700
_cell_length_b   5.26233200
_cell_length_c   6.42372974
_cell_angle_alpha   73.12392172
_cell_angle_beta   90.00000000
_cell_angle_gamma   90.00000000
_symmetry_Int_Tables_number   1
_chemical_formula_structural   Co6P7O24
_chemical_formula_sum   'Co12 P14 O48'
_cell_volume   858.72245022
_cell_formula_units_Z   2
loop_
 _symmetry_equiv_pos_site_id
 _symmetry_equiv_pos_as_xyz
  1  'x, y, z'
loop_
 _atom_site_type_symbol
 _atom_site_label
 _atom_site_symmetry_multiplicity
 _atom_site_fract_x
 _atom_site_fract_y
 _atom_site_fract_z
 _atom_site_occupancy
  Co  Co0  1  0.31415700  0.87809200  0.28314700  1
  Co  Co1  1  0.40114700  0.20603800  0.91170900  1
  Co  Co2  1  0.04601100  0.81739700  0.68530500  1
  Co  Co3  1  0.81415700  0.12190800  0.71685300  1
  Co  Co4  1  0.09885300  0.20603800  0.91170900  1
  Co  Co5  1  0.59885300  0.79396200  0.08829100  1
  Co  Co6  1  0.90114700  0.79396200  0.08829100  1
  Co  Co7  1  0.95398900  0.18260300  0.31469500  1
  Co  Co8  1  0.54601100  0.18260300  0.31469500  1
  Co  Co9  1  0.18584300  0.87809200  0.28314700  1
  Co  Co10  1  0.68584300  0.12190800  0.71685300  1
  Co  Co11  1  0.45398900  0.81739700  0.68530500  1
  P  P0  1  0.52334500  0.28903500  0.79575600  1
  P  P1  1  0.33240300  0.75290200  0.80650700  1
  P  P2  1  0.61041000  0.67952000  0.61640700  1
  P  P3  1  0.02334500  0.71096500  0.20424400  1
  P  P4  1  0.16759700  0.75290200  0.80650700  1
  P  P5  1  0.47665500  0.71096500  0.20424400  1
  P  P6  1  0.38959000  0.32048000  0.38359300  1
  P  P7  1  0.97665500  0.28903500  0.79575600  1
  P  P8  1  0.25000000  0.46025000  0.09748700  1
  P  P9  1  0.75000000  0.53975000  0.90251300  1
  P  P10  1  0.83240300  0.24709800  0.19349300  1
  P  P11  1  0.88959000  0.67952000  0.61640700  1
  P  P12  1  0.11041000  0.32048000  0.38359300  1
  P  P13  1  0.66759700  0.24709800  0.19349300  1
  O  O0  1  0.85063900  0.47262600  0.61555700  1
  O  O1  1  0.97952300  0.13514300  0.62715700  1
  O  O2  1  0.30746000  0.88219900  0.59095200  1
  O  O3  1  0.19254000  0.88219900  0.59095200  1
  O  O4  1  0.79724000  0.49370100  0.05898400  1
  O  O5  1  0.61799400  0.39593700  0.20738200  1
  O  O6  1  0.16292100  0.93810800  0.95372100  1
  O  O7  1  0.25000000  0.66550400  0.22415300  1
  O  O8  1  0.64936100  0.47262600  0.61555700  1
  O  O9  1  0.95214400  0.12141600  0.00902800  1
  O  O10  1  0.33707900  0.93810800  0.95372100  1
  O  O11  1  0.02047700  0.86485700  0.37284300  1
  O  O12  1  0.52047700  0.13514300  0.62715700  1
  O  O13  1  0.02732500  0.41606500  0.82887000  1
  O  O14  1  0.52732500  0.58393500  0.17113000  1
  O  O15  1  0.44253400  0.45322800  0.29303600  1
  O  O16  1  0.47952300  0.86485700  0.37284300  1
  O  O17  1  0.75000000  0.83299400  0.78097900  1
  O  O18  1  0.09556600  0.14172700  0.61133900  1
  O  O19  1  0.37651900  0.14929500  0.23199600  1
  O  O20  1  0.69254000  0.11780100  0.40904800  1
  O  O21  1  0.75000000  0.33449600  0.77584700  1
  O  O22  1  0.20276000  0.50629900  0.94101600  1
  O  O23  1  0.87651900  0.85070500  0.76800400  1
  O  O24  1  0.35063900  0.52737400  0.38444300  1
  O  O25  1  0.05746600  0.45322800  0.29303600  1
  O  O26  1  0.55746600  0.54677200  0.70696400  1
  O  O27  1  0.54785600  0.12141600  0.00902800  1
  O  O28  1  0.47267500  0.41606500  0.82887000  1
  O  O29  1  0.11799400  0.60406300  0.79261800  1
  O  O30  1  0.29724000  0.50629900  0.94101600  1
  O  O31  1  0.88200600  0.39593700  0.20738200  1
  O  O32  1  0.66292100  0.06189200  0.04627900  1
  O  O33  1  0.83707900  0.06189200  0.04627900  1
  O  O34  1  0.59556600  0.85827300  0.38866100  1
  O  O35  1  0.97267500  0.58393500  0.17113000  1
  O  O36  1  0.38200600  0.60406300  0.79261800  1
  O  O37  1  0.80746000  0.11780100  0.40904800  1
  O  O38  1  0.45214400  0.87858400  0.99097200  1
  O  O39  1  0.70276000  0.49370100  0.05898400  1
  O  O40  1  0.04785600  0.87858400  0.99097200  1
  O  O41  1  0.25000000  0.16700600  0.21902100  1
  O  O42  1  0.14936100  0.52737400  0.38444300  1
  O  O43  1  0.62348100  0.85070500  0.76800400  1
  O  O44  1  0.94253400  0.54677200  0.70696400  1
  O  O45  1  0.40443400  0.14172700  0.61133900  1
  O  O46  1  0.12348100  0.14929500  0.23199600  1
  O  O47  1  0.90443400  0.85827300  0.38866100  1
loop_
_geom_bond_atom_site_label_1
_geom_bond_atom_site_label_2
_geom_bond_distance
_geom_bond_site_symmetry_2
Co0 O2 1.991589 1_555
Co0 O24 2.017495 1_555
Co0 O7 2.131182 1_555
Co0 O10 2.135425 1_554
Co0 O19 2.147815 1_565
Co0 O41 2.240141 1_565
Co1 O45 2.055293 1_555
Co1 O36 2.073692 1_555
Co1 O19 2.095936 1_556
Co1 O38 2.133516 1_545
Co1 O10 2.175421 1_545
Co1 O28 2.183736 1_555
Co2 O11 2.063860 1_555
Co2 O40 2.080521 1_555
Co2 O18 2.097239 1_565
Co2 O13 2.103811 1_555
Co2 O29 2.222088 1_555
Co2 O1 2.384961 1_465
Co3 O37 1.991589 1_555
Co3 O0 2.017495 1_555
Co3 O21 2.131182 1_555
Co3 O33 2.135425 1_556
Co3 O23 2.147815 1_545
Co3 O17 2.240141 1_545
Co4 O18 2.055293 1_555
Co4 O29 2.073692 1_555
Co4 O46 2.095936 1_556
Co4 O40 2.133516 1_545
Co4 O6 2.175421 1_545
Co4 O13 2.183736 1_555
Co5 O34 2.055293 1_555
Co5 O5 2.073692 1_555
Co5 O43 2.095936 1_554
Co5 O27 2.133516 1_565
Co5 O32 2.175421 1_565
Co5 O14 2.183736 1_555
Co6 O47 2.055293 1_555
Co6 O31 2.073692 1_555
Co6 O23 2.095936 1_554
Co6 O9 2.133516 1_565
Co6 O33 2.175421 1_565
Co6 O35 2.183736 1_555
Co7 O1 2.063860 1_555
Co7 O9 2.080521 1_555
Co7 O47 2.097239 1_545
Co7 O35 2.103811 1_555
Co7 O31 2.222088 1_555
Co7 O11 2.384961 1_645
Co8 O12 2.063860 1_555
Co8 O27 2.080521 1_555
Co8 O34 2.097239 1_545
Co8 O14 2.103811 1_555
Co8 O5 2.222088 1_555
Co8 O16 2.384961 1_545
Co9 O3 1.991589 1_555
Co9 O42 2.017495 1_555
Co9 O7 2.131182 1_555
Co9 O6 2.135425 1_554
Co9 O46 2.147815 1_565
Co9 O41 2.240141 1_565
Co10 O20 1.991589 1_555
Co10 O8 2.017495 1_555
Co10 O21 2.131182 1_555
Co10 O32 2.135425 1_556
Co10 O43 2.147815 1_545
Co10 O17 2.240141 1_545
Co11 O16 2.063860 1_555
Co11 O38 2.080521 1_555
Co11 O45 2.097239 1_565
Co11 O28 2.103811 1_555
Co11 O36 2.222088 1_555
Co11 O12 2.384961 1_565
O0 P11 1.502670 1_555
O1 P7 1.530954 1_555
O2 P1 1.507210 1_555
O3 P4 1.507210 1_555
O4 P9 1.581211 1_554
O4 P10 1.628168 1_555
O5 P13 1.547871 1_555
O6 P4 1.547476 1_555
O7 P8 1.529370 1_555
O8 P2 1.502670 1_555
O9 P7 1.541657 1_554
O10 P1 1.547476 1_555
O11 P3 1.530954 1_555
O12 P0 1.530954 1_555
O13 P7 1.544011 1_455
O14 P5 1.544011 1_555
O15 P5 1.592535 1_555
O15 P6 1.601809 1_555
O16 P5 1.530954 1_555
O17 P9 1.513711 1_555
O18 P12 1.543183 1_555
O19 P6 1.545819 1_555
O20 P13 1.507210 1_555
O21 P9 1.529370 1_555
O22 P8 1.581211 1_556
O22 P4 1.628168 1_555
O23 P11 1.545819 1_555
O24 P6 1.502670 1_555
O25 P3 1.592535 1_555
O25 P12 1.601809 1_555
O26 P0 1.592535 1_555
O26 P2 1.601809 1_555
O27 P0 1.541657 1_554
O28 P0 1.544011 1_555
O29 P4 1.547871 1_555
O30 P8 1.581211 1_556
O30 P1 1.628168 1_555
O31 P10 1.547871 1_555
O32 P13 1.547476 1_555
O33 P10 1.547476 1_555
O34 P2 1.543183 1_555
O35 P3 1.544011 1_655
O36 P1 1.547871 1_555
O37 P10 1.507210 1_555
O38 P5 1.541657 1_556
O39 P9 1.581211 1_554
O39 P13 1.628168 1_555
O40 P3 1.541657 1_556
O41 P8 1.513711 1_555
O42 P12 1.502670 1_555
O43 P2 1.545819 1_555
O44 P7 1.592535 1_555
O44 P11 1.601809 1_555
O45 P6 1.543183 1_555
O46 P12 1.545819 1_555
O47 P11 1.543183 1_555
