# generated using pymatgen
data_NdZrO3
_symmetry_space_group_name_H-M   'P 1'
_cell_length_a   7.61752448
_cell_length_b   7.61752448
_cell_length_c   7.61752448
_cell_angle_alpha   120.44073972
_cell_angle_beta   120.44073972
_cell_angle_gamma   89.23829666
_symmetry_Int_Tables_number   1
_chemical_formula_structural   NdZrO3
_chemical_formula_sum   'Nd4 Zr4 O12'
_cell_volume   310.44317652
_cell_formula_units_Z   4
loop_
 _symmetry_equiv_pos_site_id
 _symmetry_equiv_pos_as_xyz
  1  'x, y, z'
loop_
 _atom_site_type_symbol
 _atom_site_label
 _atom_site_symmetry_multiplicity
 _atom_site_fract_x
 _atom_site_fract_y
 _atom_site_fract_z
 _atom_site_occupancy
  Nd  Nd0  1  0.62529300  0.86634800  0.75894500  1
  Nd  Nd1  1  0.13365200  0.37470700  0.24105500  1
  Nd  Nd2  1  0.13365200  0.89259800  0.75894500  1
  Nd  Nd3  1  0.10740200  0.86634800  0.24105500  1
  Zr  Zr0  1  0.62955900  0.37450400  0.74494500  1
  Zr  Zr1  1  0.11538600  0.37044100  0.74494500  1
  Zr  Zr2  1  0.62549600  0.37044100  0.25505500  1
  Zr  Zr3  1  0.62955900  0.88461400  0.25505500  1
  O  O0  1  0.97137700  0.47137700  0.94275400  1
  O  O1  1  0.29250800  0.70749200  0.00000000  1
  O  O2  1  0.28440700  0.28440700  0.00000000  1
  O  O3  1  0.00000000  0.00000000  0.00000000  1
  O  O4  1  0.71559300  0.71559300  0.00000000  1
  O  O5  1  0.70749200  0.70749200  0.41498400  1
  O  O6  1  0.52862300  0.47137700  0.50000000  1
  O  O7  1  0.70749200  0.29250800  0.00000000  1
  O  O8  1  0.52862300  0.02862300  0.05724600  1
  O  O9  1  0.25000000  0.75000000  0.50000000  1
  O  O10  1  0.97137700  0.02862300  0.50000000  1
  O  O11  1  0.29250800  0.29250800  0.58501600  1
loop_
_geom_bond_atom_site_label_1
_geom_bond_atom_site_label_2
_geom_bond_distance
_geom_bond_site_symmetry_2
Nd0 O3 2.329714 1_666
Nd0 O9 2.330449 1_555
Nd0 O4 2.449404 1_556
Nd0 O8 2.461468 1_566
Nd0 O6 2.461468 1_555
Nd0 O7 2.674135 1_566
Nd0 O5 2.674135 1_555
Nd1 O3 2.329714 1_555
Nd1 O9 2.330449 1_555
Nd1 O2 2.449404 1_555
Nd1 O6 2.461468 1_555
Nd1 O0 2.461468 1_454
Nd1 O11 2.674135 1_555
Nd1 O7 2.674135 1_455
Nd2 O3 2.329714 1_566
Nd2 O9 2.330449 1_555
Nd2 O2 2.449397 1_566
Nd2 O10 2.461462 1_465
Nd2 O8 2.461468 1_566
Nd2 O5 2.674135 1_455
Nd2 O1 2.674141 1_556
Nd3 O3 2.329714 1_565
Nd3 O9 2.330449 1_555
Nd3 O4 2.449397 1_455
Nd3 O10 2.461462 1_465
Nd3 O0 2.461468 1_454
Nd3 O11 2.674135 1_565
Nd3 O1 2.674141 1_555
O0 Zr0 2.131575 1_555
O0 Zr1 2.131575 1_655
O1 Zr3 2.137393 1_555
O1 Zr1 2.137393 1_554
O2 Zr1 2.143609 1_554
O2 Zr2 2.143609 1_555
O4 Zr3 2.143609 1_555
O4 Zr0 2.143609 1_554
O5 Zr3 2.137393 1_555
O5 Zr2 2.137393 1_555
O6 Zr2 2.131575 1_555
O6 Zr0 2.131575 1_555
O7 Zr0 2.137393 1_554
O7 Zr2 2.137393 1_555
O8 Zr2 2.131575 1_555
O8 Zr3 2.131575 1_545
O10 Zr1 2.131575 1_655
O10 Zr3 2.131575 1_545
O11 Zr0 2.137393 1_555
O11 Zr1 2.137393 1_555
