# generated using pymatgen
data_Li12V3CrP4(CO7)4
_symmetry_space_group_name_H-M   'P 1'
_cell_length_a   6.58877500
_cell_length_b   8.54037400
_cell_length_c   10.00941861
_cell_angle_alpha   85.01593541
_cell_angle_beta   90.00000000
_cell_angle_gamma   90.00000000
_symmetry_Int_Tables_number   1
_chemical_formula_structural   Li12V3CrP4(CO7)4
_chemical_formula_sum   'Li12 V3 Cr1 P4 C4 O28'
_cell_volume   561.10636632
_cell_formula_units_Z   1
loop_
 _symmetry_equiv_pos_site_id
 _symmetry_equiv_pos_as_xyz
  1  'x, y, z'
loop_
 _atom_site_type_symbol
 _atom_site_label
 _atom_site_symmetry_multiplicity
 _atom_site_fract_x
 _atom_site_fract_y
 _atom_site_fract_z
 _atom_site_occupancy
  Li  Li0  1  0.00000000  0.89835900  0.61884700  1
  Li  Li1  1  0.00000000  0.90436600  0.11584400  1
  Li  Li2  1  0.22347300  0.72101600  0.87539000  1
  Li  Li3  1  0.77652700  0.72101600  0.87539000  1
  Li  Li4  1  0.22166600  0.72283300  0.37534100  1
  Li  Li5  1  0.77833400  0.72283300  0.37534100  1
  Li  Li6  1  0.72715000  0.27800700  0.62559500  1
  Li  Li7  1  0.27285000  0.27800700  0.62559500  1
  Li  Li8  1  0.72429100  0.27827700  0.12399100  1
  Li  Li9  1  0.27570900  0.27827700  0.12399100  1
  Li  Li10  1  0.50000000  0.09659000  0.88384400  1
  Li  Li11  1  0.50000000  0.09381400  0.38323600  1
  V  V0  1  0.50000000  0.67075300  0.60448900  1
  V  V1  1  0.50000000  0.67163000  0.10318900  1
  V  V2  1  0.00000000  0.32973600  0.89693700  1
  Cr  Cr0  1  0.00000000  0.33403700  0.39238600  1
  P  P0  1  0.00000000  0.58740000  0.64068100  1
  P  P1  1  0.00000000  0.59182300  0.13824300  1
  P  P2  1  0.50000000  0.41119500  0.86005400  1
  P  P3  1  0.50000000  0.41300300  0.35907600  1
  C  C0  1  0.50000000  0.96456700  0.65144200  1
  C  C1  1  0.50000000  0.96480400  0.15141400  1
  C  C2  1  0.00000000  0.03640900  0.84893000  1
  C  C3  1  0.00000000  0.03064400  0.35203000  1
  O  O0  1  0.50000000  0.92491500  0.52875600  1
  O  O1  1  0.00000000  0.89069300  0.82141400  1
  O  O2  1  0.50000000  0.92596100  0.02838500  1
  O  O3  1  0.50000000  0.85154600  0.74821900  1
  O  O4  1  0.00000000  0.88725100  0.31698900  1
  O  O5  1  0.50000000  0.85154100  0.24773900  1
  O  O6  1  0.18269700  0.69019700  0.58781700  1
  O  O7  1  0.81730300  0.69019700  0.58781700  1
  O  O8  1  0.18314600  0.69265900  0.08302100  1
  O  O9  1  0.81685400  0.69265900  0.08302100  1
  O  O10  1  0.50000000  0.57733600  0.91069200  1
  O  O11  1  0.00000000  0.56893000  0.79759600  1
  O  O12  1  0.50000000  0.57816100  0.41089700  1
  O  O13  1  0.00000000  0.57841300  0.29420600  1
  O  O14  1  0.50000000  0.43112500  0.70330000  1
  O  O15  1  0.00000000  0.42149300  0.58985300  1
  O  O16  1  0.50000000  0.43202900  0.20260300  1
  O  O17  1  0.00000000  0.42335000  0.09129100  1
  O  O18  1  0.31736400  0.30842400  0.91298100  1
  O  O19  1  0.68263600  0.30842400  0.91298100  1
  O  O20  1  0.68538400  0.31119700  0.41123400  1
  O  O21  1  0.31461600  0.31119700  0.41123400  1
  O  O22  1  0.00000000  0.14959300  0.75291900  1
  O  O23  1  0.50000000  0.11001600  0.67848800  1
  O  O24  1  0.00000000  0.14782300  0.25841900  1
  O  O25  1  0.00000000  0.07511600  0.97199600  1
  O  O26  1  0.50000000  0.11011300  0.17896400  1
  O  O27  1  0.00000000  0.06025100  0.47589400  1
loop_
_geom_bond_atom_site_label_1
_geom_bond_atom_site_label_2
_geom_bond_distance
_geom_bond_site_symmetry_2
Li0 O27 1.901391 1_565
Li0 O1 2.022942 1_555
Li0 O7 2.191331 1_455
Li0 O6 2.191331 1_555
Li1 O25 1.958275 1_564
Li1 O4 2.005938 1_555
Li1 O8 2.221794 1_555
Li1 O9 2.221794 1_455
Li2 O8 2.088297 1_556
Li2 O1 2.103274 1_555
Li2 O11 2.153401 1_555
Li2 O10 2.207903 1_555
Li2 O3 2.436400 1_555
Li3 O9 2.088297 1_556
Li3 O1 2.103274 1_655
Li3 O11 2.153401 1_655
Li3 O10 2.207903 1_555
Li3 O3 2.436400 1_555
Li4 O4 2.074480 1_555
Li4 O13 2.118475 1_555
Li4 O6 2.136288 1_555
Li4 O12 2.222603 1_555
Li4 O5 2.441053 1_555
Li5 O4 2.074480 1_655
Li5 O13 2.118475 1_655
Li5 O7 2.136288 1_555
Li5 O12 2.222603 1_555
Li5 O5 2.441053 1_555
Li6 O23 2.108702 1_555
Li6 O20 2.157341 1_555
Li6 O14 2.175234 1_555
Li6 O15 2.187550 1_655
Li6 O22 2.411637 1_655
Li7 O23 2.108702 1_555
Li7 O21 2.157341 1_555
Li7 O14 2.175234 1_555
Li7 O15 2.187550 1_555
Li7 O22 2.411637 1_555
Li8 O26 2.100472 1_555
Li8 O19 2.123215 1_554
Li8 O16 2.169519 1_555
Li8 O17 2.207196 1_655
Li8 O24 2.468050 1_655
Li9 O26 2.100472 1_555
Li9 O18 2.123215 1_554
Li9 O16 2.169519 1_555
Li9 O17 2.207196 1_555
Li9 O24 2.468050 1_555
Li10 O2 1.962231 1_546
Li10 O23 2.048719 1_555
Li10 O19 2.213091 1_555
Li10 O18 2.213091 1_555
Li11 O0 1.958882 1_545
Li11 O26 2.037276 1_555
Li11 O21 2.260000 1_555
Li11 O20 2.260000 1_555
Cr0 O20 2.089091 1_455
Cr0 O21 2.089091 1_555
Cr0 O24 2.167444 1_555
Cr0 O15 2.172799 1_555
Cr0 O13 2.228273 1_555
Cr0 O27 2.413797 1_555
C0 O23 1.294122 1_565
C0 O0 1.301906 1_555
C0 O3 1.306740 1_555
C1 O26 1.294438 1_565
C1 O2 1.302880 1_555
C1 O5 1.305079 1_555
C2 O1 1.297734 1_545
C2 O22 1.302504 1_555
C2 O25 1.302847 1_555
C3 O27 1.286673 1_555
C3 O4 1.302832 1_545
C3 O24 1.310163 1_555
O0 V0 2.236156 1_555
O2 V1 2.235167 1_555
O3 V0 2.199945 1_555
O5 V1 2.200124 1_555
O6 P0 1.555324 1_555
O6 V0 2.102707 1_555
O7 P0 1.555324 1_655
O7 V0 2.102707 1_555
O8 P1 1.555822 1_555
O8 V1 2.103595 1_555
O9 P1 1.555822 1_655
O9 V1 2.103595 1_555
O10 P2 1.547631 1_555
O10 V1 2.151888 1_556
O11 P0 1.564834 1_555
O11 V2 2.192906 1_555
O12 P3 1.544576 1_555
O12 V0 2.155555 1_555
O13 P1 1.555339 1_555
O14 P2 1.563451 1_555
O14 V0 2.194246 1_555
O15 P0 1.546518 1_555
O16 P3 1.560505 1_555
O16 V1 2.196279 1_555
O17 P1 1.551956 1_555
O17 V2 2.166544 1_554
O18 P2 1.555078 1_555
O18 V2 2.103874 1_555
O19 P2 1.555078 1_555
O19 V2 2.103874 1_655
O20 P3 1.562561 1_555
O21 P3 1.562561 1_555
O22 V2 2.197801 1_555
O25 V2 2.238134 1_555
