# generated using pymatgen
data_LiBi2(SO4)3
_symmetry_space_group_name_H-M   'P 1'
_cell_length_a   8.89284865
_cell_length_b   8.89284865
_cell_length_c   8.89284855
_cell_angle_alpha   64.27159013
_cell_angle_beta   64.27159013
_cell_angle_gamma   64.27159623
_symmetry_Int_Tables_number   1
_chemical_formula_structural   LiBi2(SO4)3
_chemical_formula_sum   'Li2 Bi4 S6 O24'
_cell_volume   543.96502317
_cell_formula_units_Z   2
loop_
 _symmetry_equiv_pos_site_id
 _symmetry_equiv_pos_as_xyz
  1  'x, y, z'
loop_
 _atom_site_type_symbol
 _atom_site_label
 _atom_site_symmetry_multiplicity
 _atom_site_fract_x
 _atom_site_fract_y
 _atom_site_fract_z
 _atom_site_occupancy
  Li  Li0  1  0.00000000  0.00000000  0.00000000  1
  Li  Li1  1  0.50000000  0.50000000  0.50000000  1
  Bi  Bi0  1  0.33330300  0.33330300  0.33330300  1
  Bi  Bi1  1  0.16669700  0.16669700  0.16669700  1
  Bi  Bi2  1  0.66669700  0.66669700  0.66669700  1
  Bi  Bi3  1  0.83330300  0.83330300  0.83330300  1
  S  S0  1  0.75000000  0.08429100  0.41570900  1
  S  S1  1  0.91570900  0.58429100  0.25000000  1
  S  S2  1  0.58429100  0.25000000  0.91570900  1
  S  S3  1  0.41570900  0.75000000  0.08429100  1
  S  S4  1  0.08429100  0.41570900  0.75000000  1
  S  S5  1  0.25000000  0.91570900  0.58429100  1
  O  O0  1  0.89536500  0.09498800  0.24648900  1
  O  O1  1  0.75351100  0.10463500  0.90501200  1
  O  O2  1  0.94029600  0.44852500  0.68529800  1
  O  O3  1  0.05147500  0.55970400  0.81470200  1
  O  O4  1  0.60463500  0.25351100  0.40501200  1
  O  O5  1  0.74648900  0.59498800  0.39536500  1
  O  O6  1  0.90501200  0.75351100  0.10463500  1
  O  O7  1  0.18529800  0.94852500  0.44029600  1
  O  O8  1  0.55147500  0.31470200  0.05970400  1
  O  O9  1  0.31470200  0.05970400  0.55147500  1
  O  O10  1  0.44029600  0.18529800  0.94852500  1
  O  O11  1  0.59498800  0.39536500  0.74648900  1
  O  O12  1  0.40501200  0.60463500  0.25351100  1
  O  O13  1  0.68529800  0.94029600  0.44852500  1
  O  O14  1  0.55970400  0.81470200  0.05147500  1
  O  O15  1  0.81470200  0.05147500  0.55970400  1
  O  O16  1  0.44852500  0.68529800  0.94029600  1
  O  O17  1  0.09498800  0.24648900  0.89536500  1
  O  O18  1  0.25351100  0.40501200  0.60463500  1
  O  O19  1  0.39536500  0.74648900  0.59498800  1
  O  O20  1  0.05970400  0.55147500  0.31470200  1
  O  O21  1  0.94852500  0.44029600  0.18529800  1
  O  O22  1  0.24648900  0.89536500  0.09498800  1
  O  O23  1  0.10463500  0.90501200  0.75351100  1
loop_
_geom_bond_atom_site_label_1
_geom_bond_atom_site_label_2
_geom_bond_distance
_geom_bond_site_symmetry_2
Li0 O17 2.353403 1_554
Li0 O6 2.353403 1_445
Li0 O0 2.353403 1_455
Li0 O23 2.353403 1_544
Li0 O22 2.353403 1_545
Li0 O1 2.353403 1_454
Li1 O5 2.353403 1_555
Li1 O18 2.353403 1_555
Li1 O11 2.353403 1_555
Li1 O12 2.353403 1_555
Li1 O19 2.353403 1_555
Li1 O4 2.353403 1_555
Bi0 O9 2.384073 1_555
Bi0 O8 2.384073 1_555
Bi0 O20 2.384073 1_555
Bi0 O12 2.487743 1_555
Bi0 O18 2.487744 1_555
Bi0 O4 2.487744 1_555
Bi1 O10 2.384073 1_554
Bi1 O7 2.384073 1_545
Bi1 O21 2.384073 1_455
Bi1 O0 2.487743 1_455
Bi1 O17 2.487744 1_554
Bi1 O22 2.487744 1_545
Bi2 O13 2.384073 1_555
Bi2 O16 2.384073 1_555
Bi2 O2 2.384073 1_555
Bi2 O11 2.487743 1_555
Bi2 O5 2.487744 1_555
Bi2 O19 2.487744 1_555
Bi3 O14 2.384073 1_556
Bi3 O15 2.384073 1_565
Bi3 O3 2.384073 1_655
Bi3 O23 2.487743 1_655
Bi3 O6 2.487744 1_556
Bi3 O1 2.487744 1_565
O0 S0 1.496073 1_555
O1 S2 1.496073 1_555
O2 S4 1.491792 1_655
O3 S4 1.491792 1_555
O4 S0 1.496073 1_555
O5 S1 1.496073 1_555
O6 S1 1.496073 1_555
O7 S5 1.491792 1_555
O8 S2 1.491792 1_554
O9 S5 1.491792 1_545
O10 S2 1.491792 1_555
O11 S2 1.496073 1_555
O12 S3 1.496073 1_555
O13 S0 1.491792 1_565
O14 S3 1.491792 1_555
O15 S0 1.491792 1_555
O16 S3 1.491792 1_556
O17 S4 1.496073 1_555
O18 S4 1.496073 1_555
O19 S5 1.496073 1_555
O20 S1 1.491792 1_455
O21 S1 1.491792 1_555
O22 S3 1.496073 1_555
O23 S5 1.496073 1_555
