# generated using pymatgen
data_V4(OF3)3
_symmetry_space_group_name_H-M   'P 1'
_cell_length_a   5.09105777
_cell_length_b   5.27655229
_cell_length_c   16.96575499
_cell_angle_alpha   88.97661200
_cell_angle_beta   98.13278797
_cell_angle_gamma   118.64304497
_symmetry_Int_Tables_number   1
_chemical_formula_structural   V4(OF3)3
_chemical_formula_sum   'V8 O6 F18'
_cell_volume   395.30345204
_cell_formula_units_Z   2
loop_
 _symmetry_equiv_pos_site_id
 _symmetry_equiv_pos_as_xyz
  1  'x, y, z'
loop_
 _atom_site_type_symbol
 _atom_site_label
 _atom_site_symmetry_multiplicity
 _atom_site_fract_x
 _atom_site_fract_y
 _atom_site_fract_z
 _atom_site_occupancy
  V  V0  1  0.74395776  0.36537922  0.12653613  1
  V  V1  1  0.75276874  0.90782826  0.62480976  1
  V  V2  1  0.50448699  0.71167491  0.25146959  1
  V  V3  1  0.52971237  0.25266271  0.74978982  1
  V  V4  1  0.24727137  0.13425300  0.37131872  1
  V  V5  1  0.21997726  0.61549826  0.87216123  1
  V  V6  1  0.97721201  0.01089327  0.00131514  1
  V  V7  1  0.98376225  0.48445118  0.50318665  1
  O  O0  1  0.79824708  0.20411817  0.56070042  1
  O  O1  1  0.83560792  0.19007022  0.04337440  1
  O  O2  1  0.28459835  0.40999600  0.31464588  1
  O  O3  1  0.85324790  0.43331944  0.83276673  1
  O  O4  1  0.65553061  0.54209354  0.20798877  1
  O  O5  1  0.66653966  0.06226357  0.70745930  1
  F  F0  1  0.32201798  0.14168655  0.08819778  1
  F  F1  1  0.76484349  0.66140906  0.05742724  1
  F  F2  1  0.72356832  0.06936766  0.19504953  1
  F  F3  1  0.30805112  0.92600283  0.28988444  1
  F  F4  1  0.32617027  0.68572745  0.58712367  1
  F  F5  1  0.34696662  0.48093418  0.78664898  1
  F  F6  1  0.16800810  0.58909807  0.16328212  1
  F  F7  1  0.17350085  0.09711589  0.66331350  1
  F  F8  1  0.19820441  0.29632599  0.46553541  1
  F  F9  1  0.72095259  0.57897790  0.68302123  1
  F  F10  1  0.81275159  0.89615694  0.34334223  1
  F  F11  1  0.81744862  0.71920743  0.53369727  1
  F  F12  1  0.17776201  0.79336604  0.96361501  1
  F  F13  1  0.68271830  0.31865190  0.40978743  1
  F  F14  1  0.28576303  0.96291006  0.81645533  1
  F  F15  1  0.23124382  0.31409940  0.93785081  1
  F  F16  1  0.21624513  0.80749921  0.43837685  1
  F  F17  1  0.67086545  0.83696767  0.90986764  1
loop_
_geom_bond_atom_site_label_1
_geom_bond_atom_site_label_2
_geom_bond_distance
_geom_bond_site_symmetry_2
O0 V7 1.703520 1_555
O0 V1 1.828739 1_545
O1 V6 1.657053 1_555
O1 V0 1.926318 1_555
O2 V4 1.677553 1_555
O2 V2 1.872452 1_555
O3 V5 1.675070 1_655
O3 V3 1.868189 1_555
O4 V2 1.667307 1_555
O4 V0 1.899017 1_555
O5 V3 1.687776 1_555
O5 V1 1.838722 1_545
F0 V0 1.905777 1_555
F0 V6 1.968083 1_455
F1 V0 1.906973 1_555
F1 V6 1.947536 1_565
F2 V0 1.901407 1_555
F2 V2 1.985410 1_545
F3 V4 1.926959 1_565
F3 V2 1.999719 1_555
F4 V1 1.921677 1_555
F4 V7 1.942014 1_455
F5 V5 1.941429 1_555
F5 V3 1.993310 1_555
F6 V0 1.909220 1_455
F6 V2 1.959217 1_555
F7 V1 1.894396 1_445
F7 V3 1.994529 1_555
F8 V4 1.927543 1_555
F8 V7 1.960668 1_455
F9 V1 1.930567 1_555
F9 V3 1.957292 1_555
F10 V2 1.933274 1_555
F10 V4 1.938327 1_665
F11 V7 1.916162 1_555
F11 V1 2.000408 1_555
F12 V5 1.916815 1_555
F12 V6 2.025712 1_466
F13 V7 1.924104 1_555
F13 V4 1.957711 1_555
F14 V3 1.916892 1_565
F14 V5 1.950598 1_555
F15 V6 1.933997 1_456
F15 V5 1.944376 1_555
F16 V7 1.970415 1_455
F16 V4 2.002902 1_565
F17 V6 1.917230 1_566
F17 V5 2.020806 1_555
