# generated using pymatgen
data_Li4Co5SnO12
_symmetry_space_group_name_H-M   'P 1'
_cell_length_a   5.00134573
_cell_length_b   5.00134573
_cell_length_c   9.83221364
_cell_angle_alpha   85.32401319
_cell_angle_beta   85.32401319
_cell_angle_gamma   120.08366127
_symmetry_Int_Tables_number   1
_chemical_formula_structural   Li4Co5SnO12
_chemical_formula_sum   'Li4 Co5 Sn1 O12'
_cell_volume   209.95367681
_cell_formula_units_Z   1
loop_
 _symmetry_equiv_pos_site_id
 _symmetry_equiv_pos_as_xyz
  1  'x, y, z'
loop_
 _atom_site_type_symbol
 _atom_site_label
 _atom_site_symmetry_multiplicity
 _atom_site_fract_x
 _atom_site_fract_y
 _atom_site_fract_z
 _atom_site_occupancy
  Li  Li0  1  0.42095500  0.75348000  0.74109400  1
  Li  Li1  1  0.24652000  0.57904500  0.25890600  1
  Li  Li2  1  0.75348000  0.42095500  0.74109400  1
  Li  Li3  1  0.57904500  0.24652000  0.25890600  1
  Co  Co0  1  0.16553300  0.83446700  0.50000000  1
  Co  Co1  1  0.66663100  0.33336900  0.00000000  1
  Co  Co2  1  0.33336900  0.66663100  0.00000000  1
  Co  Co3  1  0.83446700  0.16553300  0.50000000  1
  Co  Co4  1  0.50000000  0.50000000  0.50000000  1
  Sn  Sn0  1  0.00000000  0.00000000  0.00000000  1
  O  O0  1  0.32107800  0.96419000  0.11105500  1
  O  O1  1  0.03581000  0.67892200  0.88894500  1
  O  O2  1  0.52594300  0.86244700  0.39939900  1
  O  O3  1  0.86244700  0.52594300  0.39939900  1
  O  O4  1  0.13755300  0.47405700  0.60060100  1
  O  O5  1  0.79120100  0.79120100  0.60156100  1
  O  O6  1  0.47405700  0.13755300  0.60060100  1
  O  O7  1  0.96419000  0.32107800  0.11105500  1
  O  O8  1  0.60733200  0.60733200  0.11098500  1
  O  O9  1  0.67892200  0.03581000  0.88894500  1
  O  O10  1  0.39266800  0.39266800  0.88901500  1
  O  O11  1  0.20879900  0.20879900  0.39843900  1
loop_
_geom_bond_atom_site_label_1
_geom_bond_atom_site_label_2
_geom_bond_distance
_geom_bond_site_symmetry_2
Li0 O4 2.125627 1_555
Li0 O5 2.130735 1_555
Li0 O9 2.141432 1_565
Li0 O6 2.159767 1_565
Li0 O10 2.162004 1_555
Li0 O1 2.167416 1_555
Li1 O2 2.125627 1_555
Li1 O11 2.130735 1_555
Li1 O7 2.141432 1_455
Li1 O3 2.159767 1_455
Li1 O8 2.162004 1_555
Li1 O0 2.167416 1_555
Li2 O6 2.125627 1_555
Li2 O5 2.130735 1_555
Li2 O1 2.141432 1_655
Li2 O4 2.159767 1_655
Li2 O10 2.162004 1_555
Li2 O9 2.167416 1_555
Li3 O3 2.125627 1_555
Li3 O11 2.130735 1_555
Li3 O0 2.141432 1_545
Li3 O2 2.159767 1_545
Li3 O8 2.162004 1_555
Li3 O7 2.167416 1_555
Co0 O4 1.918581 1_555
Co0 O2 1.918581 1_555
Co0 O11 1.950074 1_565
Co0 O5 1.950074 1_455
Co0 O3 1.950769 1_455
Co0 O6 1.950769 1_565
Co1 O1 1.937211 1_654
Co1 O0 1.937211 1_545
Co1 O8 1.937664 1_555
Co1 O10 1.937664 1_554
Co1 O7 1.938168 1_555
Co1 O9 1.938168 1_554
Co2 O9 1.937211 1_564
Co2 O7 1.937211 1_455
Co2 O8 1.937664 1_555
Co2 O10 1.937664 1_554
Co2 O1 1.938168 1_554
Co2 O0 1.938168 1_555
Co3 O6 1.918581 1_555
Co3 O3 1.918581 1_555
Co3 O11 1.950074 1_655
Co3 O5 1.950074 1_545
Co3 O2 1.950769 1_545
Co3 O4 1.950769 1_655
Co4 O11 1.893964 1_555
Co4 O5 1.893964 1_555
Co4 O2 1.931870 1_555
Co4 O3 1.931870 1_555
Co4 O6 1.931870 1_555
Co4 O4 1.931870 1_555
O0 Sn0 2.084549 1_565
O1 Sn0 2.084549 1_566
O7 Sn0 2.084549 1_655
O8 Sn0 2.083027 1_665
O9 Sn0 2.084549 1_656
O10 Sn0 2.083027 1_556
