# generated using pymatgen
data_Na3BiAsCO7
_symmetry_space_group_name_H-M   'P 1'
_cell_length_a   7.41198200
_cell_length_b   5.16651000
_cell_length_c   9.84958232
_cell_angle_alpha   89.21334940
_cell_angle_beta   90.00000000
_cell_angle_gamma   90.00000000
_symmetry_Int_Tables_number   1
_chemical_formula_structural   Na3BiAsCO7
_chemical_formula_sum   'Na6 Bi2 As2 C2 O14'
_cell_volume   377.14513553
_cell_formula_units_Z   2
loop_
 _symmetry_equiv_pos_site_id
 _symmetry_equiv_pos_as_xyz
  1  'x, y, z'
loop_
 _atom_site_type_symbol
 _atom_site_label
 _atom_site_symmetry_multiplicity
 _atom_site_fract_x
 _atom_site_fract_y
 _atom_site_fract_z
 _atom_site_occupancy
  Na  Na0  1  0.75000000  0.23485800  0.91956300  1
  Na  Na1  1  0.98342900  0.74604200  0.75268600  1
  Na  Na2  1  0.51657100  0.74604200  0.75268600  1
  Na  Na3  1  0.48342900  0.25395800  0.24731400  1
  Na  Na4  1  0.01657100  0.25395800  0.24731400  1
  Na  Na5  1  0.25000000  0.76514200  0.08043700  1
  Bi  Bi0  1  0.25000000  0.23375200  0.65387100  1
  Bi  Bi1  1  0.75000000  0.76624800  0.34612900  1
  As  As0  1  0.75000000  0.27669100  0.59780900  1
  As  As1  1  0.25000000  0.72330900  0.40219100  1
  C  C0  1  0.25000000  0.27534000  0.95237700  1
  C  C1  1  0.75000000  0.72466000  0.04762300  1
  O  O0  1  0.75000000  0.72307200  0.91596300  1
  O  O1  1  0.25000000  0.05436700  0.88845300  1
  O  O2  1  0.25000000  0.49000900  0.88248100  1
  O  O3  1  0.93819400  0.21735500  0.71233500  1
  O  O4  1  0.56180600  0.21735500  0.71233500  1
  O  O5  1  0.75000000  0.62092800  0.58532600  1
  O  O6  1  0.25000000  0.81129600  0.61088900  1
  O  O7  1  0.75000000  0.18870400  0.38911100  1
  O  O8  1  0.25000000  0.37907200  0.41467400  1
  O  O9  1  0.43819400  0.78264500  0.28766500  1
  O  O10  1  0.06180600  0.78264500  0.28766500  1
  O  O11  1  0.75000000  0.50999100  0.11751900  1
  O  O12  1  0.75000000  0.94563300  0.11154700  1
  O  O13  1  0.25000000  0.27692800  0.08403700  1
loop_
_geom_bond_atom_site_label_1
_geom_bond_atom_site_label_2
_geom_bond_distance
_geom_bond_site_symmetry_2
Na0 O12 2.393958 1_546
Na0 O11 2.428654 1_556
Na0 O3 2.474892 1_555
Na0 O4 2.474892 1_555
Na0 O0 2.522125 1_555
Na0 O0 2.644872 1_545
Na1 O0 2.364038 1_555
Na1 O6 2.440328 1_655
Na1 O5 2.481511 1_555
Na1 O3 2.484599 1_565
Na1 O2 2.691021 1_655
Na1 O3 2.785874 1_555
Na1 O1 2.878910 1_665
Na2 O0 2.364038 1_555
Na2 O6 2.440328 1_555
Na2 O5 2.481511 1_555
Na2 O4 2.484599 1_565
Na2 O2 2.691021 1_555
Na2 O4 2.785874 1_555
Na2 O1 2.878910 1_565
Na3 O13 2.364038 1_555
Na3 O7 2.440328 1_555
Na3 O8 2.481511 1_555
Na3 O9 2.484599 1_545
Na3 O11 2.691021 1_555
Na3 O9 2.785874 1_555
Na3 O12 2.878910 1_545
Na4 O13 2.364038 1_555
Na4 O7 2.440328 1_455
Na4 O8 2.481511 1_555
Na4 O10 2.484599 1_545
Na4 O11 2.691021 1_455
Na4 O10 2.785874 1_555
Na4 O12 2.878910 1_445
Na5 O1 2.393958 1_564
Na5 O2 2.428654 1_554
Na5 O9 2.474892 1_555
Na5 O10 2.474892 1_555
Na5 O13 2.522125 1_555
Na5 O13 2.644872 1_565
Bi0 O6 2.229001 1_545
Bi0 O4 2.382986 1_555
Bi0 O3 2.382986 1_455
Bi0 O8 2.462888 1_555
Bi0 O1 2.477644 1_555
Bi0 O2 2.627722 1_555
Bi1 O7 2.229001 1_565
Bi1 O9 2.382986 1_555
Bi1 O10 2.382986 1_655
Bi1 O5 2.462888 1_555
Bi1 O12 2.477644 1_555
Bi1 O11 2.627722 1_555
As0 O5 1.781064 1_555
As0 O4 1.817323 1_555
As0 O3 1.817323 1_555
As0 O7 2.111338 1_555
As1 O8 1.781064 1_555
As1 O9 1.817323 1_555
As1 O10 1.817323 1_555
As1 O6 2.111338 1_555
C0 O13 1.296935 1_556
C0 O2 1.297333 1_555
C0 O1 1.311316 1_555
C1 O0 1.296935 1_554
C1 O11 1.297333 1_555
C1 O12 1.311316 1_555
