# generated using pymatgen
data_Sr3(AsO4)2
_symmetry_space_group_name_H-M   'P 1'
_cell_length_a   7.43801731
_cell_length_b   7.43808073
_cell_length_c   7.43809008
_cell_angle_alpha   44.19960641
_cell_angle_beta   44.19970778
_cell_angle_gamma   44.19966127
_symmetry_Int_Tables_number   1
_chemical_formula_structural   Sr3(AsO4)2
_chemical_formula_sum   'Sr3 As2 O8'
_cell_volume   181.73635136
_cell_formula_units_Z   1
loop_
 _symmetry_equiv_pos_site_id
 _symmetry_equiv_pos_as_xyz
  1  'x, y, z'
loop_
 _atom_site_type_symbol
 _atom_site_label
 _atom_site_symmetry_multiplicity
 _atom_site_fract_x
 _atom_site_fract_y
 _atom_site_fract_z
 _atom_site_occupancy
  Sr  Sr0  1  0.00004375  0.99997014  0.99998643  1
  Sr  Sr1  1  0.20302024  0.20303229  0.20302050  1
  Sr  Sr2  1  0.79696606  0.79698568  0.79697550  1
  As  As0  1  0.59365195  0.59371709  0.59366841  1
  As  As1  1  0.40631220  0.40635102  0.40630054  1
  O  O0  1  0.26917107  0.76532037  0.26920377  1
  O  O1  1  0.23467552  0.73077539  0.73084919  1
  O  O2  1  0.67748033  0.67760087  0.67755346  1
  O  O3  1  0.32239757  0.32251493  0.32245296  1
  O  O4  1  0.73076236  0.73087273  0.23468941  1
  O  O5  1  0.26921920  0.26916092  0.76530569  1
  O  O6  1  0.76531957  0.26921094  0.26913417  1
  O  O7  1  0.73086318  0.23468764  0.73077996  1
loop_
_geom_bond_atom_site_label_1
_geom_bond_atom_site_label_2
_geom_bond_distance
_geom_bond_site_symmetry_2
As0 O2 1.685583 1_555
As0 O1 1.700563 1_555
As0 O4 1.700576 1_555
As0 O7 1.700798 1_555
As1 O3 1.685590 1_555
As1 O0 1.700541 1_555
As1 O6 1.700679 1_555
As1 O5 1.700702 1_555
O0 Sr0 2.605751 1_554
O0 Sr1 2.614694 1_565
O0 Sr2 2.858704 1_455
O0 Sr2 2.858816 1_554
O1 Sr0 2.605754 1_555
O1 Sr2 2.614637 1_455
O1 Sr1 2.858523 1_556
O1 Sr1 2.858994 1_565
O2 Sr2 2.400392 1_555
O3 Sr1 2.400391 1_555
O4 Sr0 2.605792 1_654
O4 Sr2 2.614788 1_554
O4 Sr1 2.858506 1_565
O4 Sr1 2.859058 1_655
O5 Sr0 2.605785 1_545
O5 Sr1 2.614748 1_556
O5 Sr2 2.858548 1_545
O5 Sr2 2.858989 1_455
O6 Sr0 2.605810 1_644
O6 Sr1 2.614761 1_655
O6 Sr2 2.858624 1_554
O6 Sr2 2.858990 1_545
O7 Sr0 2.605798 1_645
O7 Sr2 2.614773 1_545
O7 Sr1 2.858574 1_655
O7 Sr1 2.859016 1_556
