# generated using pymatgen
data_MnZn4O5
_symmetry_space_group_name_H-M   'P 1'
_cell_length_a   6.28958743
_cell_length_b   6.61999108
_cell_length_c   12.67964593
_cell_angle_alpha   90.01630731
_cell_angle_beta   86.81166445
_cell_angle_gamma   105.26397256
_symmetry_Int_Tables_number   1
_chemical_formula_structural   MnZn4O5
_chemical_formula_sum   'Mn4 Zn16 O20'
_cell_volume   508.47356028
_cell_formula_units_Z   4
loop_
 _symmetry_equiv_pos_site_id
 _symmetry_equiv_pos_as_xyz
  1  'x, y, z'
loop_
 _atom_site_type_symbol
 _atom_site_label
 _atom_site_symmetry_multiplicity
 _atom_site_fract_x
 _atom_site_fract_y
 _atom_site_fract_z
 _atom_site_occupancy
  Mn  Mn0  1  0.26799700  0.57013800  0.76900700  1
  Mn  Mn1  1  0.86871800  0.96246300  0.36553000  1
  Mn  Mn2  1  0.26803300  0.07011800  0.76894000  1
  Mn  Mn3  1  0.86874900  0.46250000  0.36547200  1
  Zn  Zn0  1  0.13904000  0.03330300  0.13092500  1
  Zn  Zn1  1  0.13903600  0.53330100  0.13092600  1
  Zn  Zn2  1  0.53460200  0.13013700  0.53388700  1
  Zn  Zn3  1  0.53460300  0.63013300  0.53388600  1
  Zn  Zn4  1  0.93175200  0.23435300  0.93497600  1
  Zn  Zn5  1  0.93175300  0.73435700  0.93497500  1
  Zn  Zn6  1  0.66898800  0.16822700  0.16510300  1
  Zn  Zn7  1  0.66899000  0.66822900  0.16510400  1
  Zn  Zn8  1  0.33702500  0.33526300  0.33155200  1
  Zn  Zn9  1  0.33702400  0.83526200  0.33155100  1
  Zn  Zn10  1  0.73793700  0.43607000  0.73195000  1
  Zn  Zn11  1  0.73793700  0.93607100  0.73195100  1
  Zn  Zn12  1  0.47124800  0.36715100  0.96818700  1
  Zn  Zn13  1  0.47124800  0.86715600  0.96818700  1
  Zn  Zn14  1  0.06878300  0.26340700  0.56618000  1
  Zn  Zn15  1  0.06878200  0.76340200  0.56618000  1
  O  O0  1  0.44187600  0.11002000  0.05659300  1
  O  O1  1  0.44187700  0.61002100  0.05659700  1
  O  O2  1  0.03633500  0.00561000  0.65464600  1
  O  O3  1  0.03629700  0.50559500  0.65462800  1
  O  O4  1  0.83647000  0.20463400  0.46163700  1
  O  O5  1  0.83647100  0.70454200  0.46163500  1
  O  O6  1  0.97310300  0.24202300  0.09121200  1
  O  O7  1  0.97310400  0.74201800  0.09121300  1
  O  O8  1  0.57881900  0.14597700  0.68953700  1
  O  O9  1  0.57886300  0.64599300  0.68952500  1
  O  O10  1  0.18072300  0.04586100  0.28719500  1
  O  O11  1  0.18067900  0.54584400  0.28720800  1
  O  O12  1  0.63368000  0.40938300  0.25283800  1
  O  O13  1  0.63364300  0.90937300  0.25282300  1
  O  O14  1  0.23589100  0.31191400  0.86505800  1
  O  O15  1  0.23589100  0.81199700  0.86505800  1
  O  O16  1  0.37209900  0.33972800  0.48954400  1
  O  O17  1  0.37209100  0.83972500  0.48954700  1
  O  O18  1  0.77199900  0.44421600  0.88974600  1
  O  O19  1  0.77200700  0.94422500  0.88974300  1
loop_
_geom_bond_atom_site_label_1
_geom_bond_atom_site_label_2
_geom_bond_distance
_geom_bond_site_symmetry_2
Mn0 O15 2.056537 1_555
Mn0 O14 2.058713 1_555
Mn0 O3 2.077618 1_555
Mn0 O9 2.086827 1_555
Mn1 O5 2.057365 1_555
Mn1 O4 2.058856 1_565
Mn1 O13 2.076773 1_555
Mn1 O10 2.086949 1_665
Mn2 O14 2.056761 1_555
Mn2 O15 2.058628 1_545
Mn2 O2 2.076811 1_555
Mn2 O8 2.085969 1_555
Mn3 O4 2.057489 1_555
Mn3 O5 2.058637 1_555
Mn3 O12 2.076069 1_555
Mn3 O11 2.086164 1_655
O0 Zn12 2.000163 1_554
O0 Zn13 2.001970 1_544
O0 Zn6 2.002608 1_555
O0 Zn0 2.016288 1_555
O1 Zn13 2.000214 1_554
O1 Zn12 2.002029 1_554
O1 Zn7 2.002585 1_555
O1 Zn1 2.016300 1_555
O2 Zn14 2.001167 1_555
O2 Zn15 2.004156 1_545
O2 Zn11 2.008930 1_445
O3 Zn15 2.001059 1_555
O3 Zn14 2.003990 1_555
O3 Zn10 2.008823 1_455
O4 Zn14 1.989799 1_655
O4 Zn2 2.000251 1_555
O5 Zn15 1.989809 1_655
O5 Zn3 2.000258 1_555
O6 Zn4 2.011206 1_554
O6 Zn1 2.014759 1_655
O6 Zn0 2.017457 1_655
O6 Zn6 2.020893 1_555
O7 Zn5 2.011232 1_554
O7 Zn0 2.014795 1_665
O7 Zn1 2.017419 1_655
O7 Zn7 2.020888 1_555
O8 Zn11 2.003558 1_545
O8 Zn10 2.006513 1_555
O8 Zn2 2.007228 1_555
O9 Zn10 2.003500 1_555
O9 Zn11 2.006407 1_555
O9 Zn3 2.007141 1_555
O10 Zn9 2.002504 1_545
O10 Zn8 2.005596 1_555
O10 Zn0 2.011963 1_555
O11 Zn8 2.002554 1_555
O11 Zn9 2.005698 1_555
O11 Zn1 2.012070 1_555
O12 Zn6 1.998422 1_555
O12 Zn7 1.999086 1_555
O12 Zn8 2.007318 1_555
O13 Zn7 1.998316 1_555
O13 Zn6 1.999000 1_565
O13 Zn9 2.007208 1_555
O14 Zn12 1.991219 1_555
O14 Zn4 2.000815 1_455
O15 Zn13 1.991226 1_555
O15 Zn5 2.000808 1_455
O16 Zn3 2.021237 1_555
O16 Zn2 2.024094 1_555
O16 Zn8 2.026912 1_555
O16 Zn14 2.031136 1_555
O17 Zn2 2.021279 1_565
O17 Zn3 2.024123 1_555
O17 Zn9 2.026955 1_555
O17 Zn15 2.031082 1_555
O18 Zn4 2.016971 1_555
O18 Zn5 2.018661 1_555
O18 Zn10 2.023248 1_555
O18 Zn12 2.027448 1_555
O19 Zn5 2.016976 1_555
O19 Zn4 2.018592 1_565
O19 Zn11 2.023205 1_555
O19 Zn13 2.027507 1_555
