# generated using pymatgen
data_Li3Cr2(PO4)3
_symmetry_space_group_name_H-M   'P 1'
_cell_length_a   8.99786595
_cell_length_b   8.37831659
_cell_length_c   8.38618229
_cell_angle_alpha   59.88374192
_cell_angle_beta   89.75074642
_cell_angle_gamma   62.11752336
_symmetry_Int_Tables_number   1
_chemical_formula_structural   Li3Cr2(PO4)3
_chemical_formula_sum   'Li6 Cr4 P6 O24'
_cell_volume   460.93098185
_cell_formula_units_Z   2
loop_
 _symmetry_equiv_pos_site_id
 _symmetry_equiv_pos_as_xyz
  1  'x, y, z'
loop_
 _atom_site_type_symbol
 _atom_site_label
 _atom_site_symmetry_multiplicity
 _atom_site_fract_x
 _atom_site_fract_y
 _atom_site_fract_z
 _atom_site_occupancy
  Li  Li0  1  0.84836900  0.81439900  0.91786200  1
  Li  Li1  1  0.85653600  0.40829200  0.67151000  1
  Li  Li2  1  0.62657200  0.18750500  0.25439000  1
  Li  Li3  1  0.13782600  0.94219900  0.73081500  1
  Li  Li4  1  0.13507100  0.60197400  0.32813000  1
  Li  Li5  1  0.13441500  0.18738700  0.07879000  1
  Cr  Cr0  1  0.95517600  0.69714700  0.64775000  1
  Cr  Cr1  1  0.56390900  0.29432400  0.85326500  1
  Cr  Cr2  1  0.43204100  0.71280100  0.14354900  1
  Cr  Cr3  1  0.04128500  0.30675600  0.34551900  1
  P  P0  1  0.75176400  0.49777800  0.96177600  1
  P  P1  1  0.74701400  0.20939300  0.53946500  1
  P  P2  1  0.74739200  0.79165100  0.25048000  1
  P  P3  1  0.24975200  0.21281200  0.74735700  1
  P  P4  1  0.25095300  0.78836800  0.46333400  1
  P  P5  1  0.24363900  0.50610400  0.03866800  1
  O  O0  1  0.80085200  0.66555700  0.82652200  1
  O  O1  1  0.73686600  0.38458900  0.86748200  1
  O  O2  1  0.89977800  0.25437000  0.53639500  1
  O  O3  1  0.73052700  0.13409200  0.74594300  1
  O  O4  1  0.58024300  0.60908500  0.00029300  1
  O  O5  1  0.79867800  0.02445300  0.50879700  1
  O  O6  1  0.80297000  0.70078400  0.46796400  1
  O  O7  1  0.90545300  0.64223200  0.20612400  1
  O  O8  1  0.90852800  0.30975400  0.15423300  1
  O  O9  1  0.41807500  0.19738700  0.80241700  1
  O  O10  1  0.26696500  0.98802800  0.87523700  1
  O  O11  1  0.57545300  0.40677900  0.37975200  1
  O  O12  1  0.42732300  0.58904200  0.61347800  1
  O  O13  1  0.71866300  0.02208100  0.12755600  1
  O  O14  1  0.58246700  0.79827000  0.20010300  1
  O  O15  1  0.09300900  0.69820600  0.84054800  1
  O  O16  1  0.09223200  0.36615600  0.78966000  1
  O  O17  1  0.19353300  0.30052800  0.53097900  1
  O  O18  1  0.19043900  0.97613200  0.49296700  1
  O  O19  1  0.42109200  0.38308300  0.01276900  1
  O  O20  1  0.26656500  0.86853800  0.25529200  1
  O  O21  1  0.10792600  0.72850900  0.47594200  1
  O  O22  1  0.25853500  0.61896800  0.13270400  1
  O  O23  1  0.19274700  0.34023900  0.16755700  1
loop_
_geom_bond_atom_site_label_1
_geom_bond_atom_site_label_2
_geom_bond_distance
_geom_bond_site_symmetry_2
Li0 O0 1.945454 1_555
Li0 O3 1.964406 1_565
Li0 O7 2.001742 1_556
Li0 O15 2.197776 1_655
Li1 O1 1.938278 1_555
Li1 O6 1.963693 1_555
Li1 O2 2.022776 1_555
Li1 O16 2.137989 1_655
Li2 O5 1.985302 1_555
Li2 O19 2.018965 1_555
Li2 O13 2.033823 1_555
Li2 O11 2.415688 1_555
Li3 O18 1.957578 1_555
Li3 O10 1.964874 1_555
Li3 O15 2.017032 1_555
Li3 O2 2.144320 1_465
Li4 O21 1.947835 1_555
Li4 O22 1.959147 1_555
Li4 O17 2.000735 1_555
Li4 O7 2.109398 1_455
Li5 O20 1.953841 1_545
Li5 O23 2.014559 1_555
Li5 O16 2.024458 1_554
Li5 O8 2.067165 1_455
Cr0 O21 1.993656 1_655
Cr0 O5 2.014099 1_565
Cr0 O6 2.020540 1_555
Cr0 O16 2.032161 1_655
Cr0 O0 2.042868 1_555
Cr0 O15 2.048044 1_655
Cr1 O12 1.962539 1_555
Cr1 O9 1.978007 1_555
Cr1 O19 2.020661 1_556
Cr1 O3 2.044062 1_555
Cr1 O1 2.049625 1_555
Cr1 O13 2.055435 1_556
Cr2 O14 1.955160 1_555
Cr2 O4 1.981535 1_555
Cr2 O11 1.998450 1_555
Cr2 O20 2.048263 1_555
Cr2 O10 2.050673 1_554
Cr2 O22 2.069919 1_555
Cr3 O8 1.987217 1_455
Cr3 O23 2.020666 1_555
Cr3 O18 2.025690 1_545
Cr3 O17 2.041707 1_555
Cr3 O2 2.043543 1_455
Cr3 O7 2.064604 1_455
O0 P0 1.560120 1_555
O1 P0 1.554022 1_555
O2 P1 1.583187 1_555
O3 P1 1.551572 1_555
O4 P0 1.519096 1_554
O5 P1 1.551872 1_555
O6 P2 1.553893 1_555
O7 P2 1.589240 1_555
O8 P0 1.570415 1_554
O9 P3 1.512247 1_555
O10 P3 1.556523 1_565
O11 P1 1.522911 1_555
O12 P4 1.523549 1_555
O13 P2 1.547618 1_545
O14 P2 1.512846 1_555
O15 P5 1.575966 1_556
O16 P3 1.592224 1_555
O17 P3 1.552653 1_555
O18 P4 1.556595 1_555
O19 P5 1.530140 1_555
O20 P4 1.557217 1_555
O21 P4 1.571046 1_555
O22 P5 1.549785 1_555
O23 P5 1.546844 1_555
