# generated using pymatgen
data_Mn2CuH12(NO2)4
_symmetry_space_group_name_H-M   'P 1'
_cell_length_a   11.74932600
_cell_length_b   6.47161400
_cell_length_c   10.44462610
_cell_angle_alpha   87.61743518
_cell_angle_beta   90.00000000
_cell_angle_gamma   90.00000000
_symmetry_Int_Tables_number   1
_chemical_formula_structural   Mn2CuH12(NO2)4
_chemical_formula_sum   'Mn4 Cu2 H24 N8 O16'
_cell_volume   793.49256012
_cell_formula_units_Z   2
loop_
 _symmetry_equiv_pos_site_id
 _symmetry_equiv_pos_as_xyz
  1  'x, y, z'
loop_
 _atom_site_type_symbol
 _atom_site_label
 _atom_site_symmetry_multiplicity
 _atom_site_fract_x
 _atom_site_fract_y
 _atom_site_fract_z
 _atom_site_occupancy
  Mn  Mn0  1  0.25000000  0.30196500  0.67126800  1
  Mn  Mn1  1  0.75000000  0.69803500  0.32873200  1
  Mn  Mn2  1  0.25000000  0.39215300  0.02572200  1
  Mn  Mn3  1  0.75000000  0.60784700  0.97427800  1
  Cu  Cu0  1  0.25000000  0.24970300  0.29931700  1
  Cu  Cu1  1  0.75000000  0.75029700  0.70068300  1
  H  H0  1  0.92199700  0.34645900  0.30574100  1
  H  H1  1  0.42199700  0.65354100  0.69425900  1
  H  H2  1  0.07800300  0.65354100  0.69425900  1
  H  H3  1  0.57800300  0.34645900  0.30574100  1
  H  H4  1  0.68340300  0.05557000  0.55512400  1
  H  H5  1  0.18340300  0.94443000  0.44487600  1
  H  H6  1  0.31659700  0.94443000  0.44487600  1
  H  H7  1  0.81659700  0.05557000  0.55512400  1
  H  H8  1  0.05183400  0.25618000  0.75327300  1
  H  H9  1  0.55183400  0.74382000  0.24672700  1
  H  H10  1  0.94816600  0.74382000  0.24672700  1
  H  H11  1  0.44816600  0.25618000  0.75327300  1
  H  H12  1  0.18403900  0.78602600  0.92168100  1
  H  H13  1  0.68403900  0.21397400  0.07831900  1
  H  H14  1  0.81596100  0.21397400  0.07831900  1
  H  H15  1  0.31596100  0.78602600  0.92168100  1
  H  H16  1  0.28426500  0.02824000  0.64759700  1
  H  H17  1  0.78426500  0.97176000  0.35240300  1
  H  H18  1  0.71573500  0.97176000  0.35240300  1
  H  H19  1  0.21573500  0.02824000  0.64759700  1
  H  H20  1  0.04953500  0.20017200  0.29876100  1
  H  H21  1  0.54953500  0.79982800  0.70123900  1
  H  H22  1  0.95046500  0.79982800  0.70123900  1
  H  H23  1  0.45046500  0.20017200  0.29876100  1
  N  N0  1  0.86956700  0.69405200  0.21489000  1
  N  N1  1  0.36956700  0.30594800  0.78511000  1
  N  N2  1  0.13043300  0.30594800  0.78511000  1
  N  N3  1  0.63043300  0.69405200  0.21489000  1
  N  N4  1  0.53579400  0.20852000  0.32202400  1
  N  N5  1  0.03579400  0.79148000  0.67797600  1
  N  N6  1  0.46420600  0.79148000  0.67797600  1
  N  N7  1  0.96420600  0.20852000  0.32202400  1
  O  O0  1  0.07567600  0.92519000  0.59449800  1
  O  O1  1  0.57567600  0.07481000  0.40550200  1
  O  O2  1  0.92432400  0.07481000  0.40550200  1
  O  O3  1  0.42432400  0.92519000  0.59449800  1
  O  O4  1  0.75000000  0.01082600  0.60740400  1
  O  O5  1  0.25000000  0.98917400  0.39259600  1
  O  O6  1  0.75000000  0.54210300  0.45521400  1
  O  O7  1  0.25000000  0.45789700  0.54478600  1
  O  O8  1  0.88232200  0.61448200  0.10082500  1
  O  O9  1  0.38232200  0.38551800  0.89917500  1
  O  O10  1  0.11767800  0.38551800  0.89917500  1
  O  O11  1  0.61767800  0.61448200  0.10082500  1
  O  O12  1  0.25000000  0.47209000  0.19624900  1
  O  O13  1  0.75000000  0.52791000  0.80375100  1
  O  O14  1  0.25000000  0.85053900  0.88068300  1
  O  O15  1  0.75000000  0.14946100  0.11931700  1
loop_
_geom_bond_atom_site_label_1
_geom_bond_atom_site_label_2
_geom_bond_distance
_geom_bond_site_symmetry_2
Mn0 O7 1.628711 1_555
Mn0 N1 1.841351 1_555
Mn0 N2 1.841351 1_555
Mn1 O6 1.628711 1_555
Mn1 N0 1.841351 1_555
Mn1 N3 1.841351 1_555
Mn2 O12 1.875237 1_555
Mn2 O9 2.042210 1_554
Mn2 O10 2.042210 1_554
Mn3 O13 1.875237 1_555
Mn3 O8 2.042210 1_556
Mn3 O11 2.042210 1_556
Cu0 O12 1.761067 1_555
Cu0 O5 1.911899 1_545
Cu1 O13 1.761067 1_555
Cu1 O4 1.911899 1_565
H0 N7 1.029144 1_555
H1 N6 1.029144 1_555
H2 N5 1.029144 1_555
H3 N4 1.029144 1_555
H4 O4 0.990518 1_555
H5 O5 0.990518 1_555
H6 O5 0.990518 1_555
H7 O4 0.990518 1_555
H8 N2 1.037323 1_555
H9 N3 1.037323 1_555
H10 N0 1.037323 1_555
H11 N1 1.037323 1_555
H12 O14 0.971302 1_555
H13 O15 0.971302 1_555
H14 O15 0.971302 1_555
H15 O14 0.971302 1_555
H16 H19 0.805181 1_555
H16 Mn0 1.843265 1_555
H17 H18 0.805181 1_555
H17 Mn1 1.843265 1_555
H18 Mn1 1.843265 1_555
H19 Mn0 1.843265 1_555
H20 N7 1.033523 1_455
H21 N6 1.033523 1_555
H22 N5 1.033523 1_655
H23 N4 1.033523 1_555
N0 O8 1.325892 1_555
N1 O9 1.325892 1_555
N2 O10 1.325892 1_555
N3 O11 1.325892 1_555
N4 O1 1.290669 1_555
N5 O0 1.290669 1_555
N6 O3 1.290669 1_555
N7 O2 1.290669 1_555
