# generated using pymatgen
data_LiFe2(BO3)2
_symmetry_space_group_name_H-M   'P 1'
_cell_length_a   5.25419300
_cell_length_b   9.13929596
_cell_length_c   10.10471982
_cell_angle_alpha   91.11799077
_cell_angle_beta   90.02741542
_cell_angle_gamma   90.04609093
_symmetry_Int_Tables_number   1
_chemical_formula_structural   LiFe2(BO3)2
_chemical_formula_sum   'Li4 Fe8 B8 O24'
_cell_volume   485.13226879
_cell_formula_units_Z   4
loop_
 _symmetry_equiv_pos_site_id
 _symmetry_equiv_pos_as_xyz
  1  'x, y, z'
loop_
 _atom_site_type_symbol
 _atom_site_label
 _atom_site_symmetry_multiplicity
 _atom_site_fract_x
 _atom_site_fract_y
 _atom_site_fract_z
 _atom_site_occupancy
  Li  Li0  1  0.84694400  0.17204500  0.35501800  1
  Li  Li1  1  0.66424800  0.31938500  0.08945800  1
  Li  Li2  1  0.34492700  0.68104700  0.33799700  1
  Li  Li3  1  0.31135100  0.67371600  0.83407400  1
  Fe  Fe0  1  0.85212400  0.83991600  0.37552200  1
  Fe  Fe1  1  0.81839500  0.48832100  0.85993500  1
  Fe  Fe2  1  0.67224900  0.98623400  0.11917700  1
  Fe  Fe3  1  0.67707500  0.66277200  0.61992600  1
  Fe  Fe4  1  0.34922800  0.34148600  0.37597600  1
  Fe  Fe5  1  0.31353600  0.00553400  0.87129100  1
  Fe  Fe6  1  0.16588800  0.16490000  0.62902500  1
  Fe  Fe7  1  0.16543500  0.49998200  0.11972700  1
  B  B0  1  0.83722800  0.50245000  0.36788400  1
  B  B1  1  0.82818700  0.82779700  0.87352800  1
  B  B2  1  0.66345800  0.99951300  0.61946800  1
  B  B3  1  0.67146700  0.65880600  0.12792400  1
  B  B4  1  0.33944100  0.00317300  0.36752500  1
  B  B5  1  0.32936500  0.33833200  0.87687400  1
  B  B6  1  0.17194800  0.49330400  0.62276700  1
  B  B7  1  0.17101900  0.16726100  0.12384700  1
  O  O0  1  0.91513900  0.50585900  0.65304500  1
  O  O1  1  0.91114900  0.15317400  0.13827400  1
  O  O2  1  0.79129600  0.78916000  0.16163200  1
  O  O3  1  0.75231300  0.86215600  0.57866000  1
  O  O4  1  0.82008500  0.11740000  0.61024900  1
  O  O5  1  0.80938500  0.53593200  0.08613000  1
  O  O6  1  0.72006800  0.37010200  0.35637500  1
  O  O7  1  0.68582300  0.94311900  0.92742100  1
  O  O8  1  0.70415900  0.62683400  0.41496900  1
  O  O9  1  0.68871700  0.70510500  0.82452200  1
  O  O10  1  0.58380300  0.32983700  0.89737100  1
  O  O11  1  0.59412500  0.01312000  0.32183800  1
  O  O12  1  0.41260400  0.01261100  0.66184100  1
  O  O13  1  0.41357700  0.64701600  0.14166000  1
  O  O14  1  0.29008800  0.30229900  0.15379100  1
  O  O15  1  0.26675000  0.36062200  0.57777100  1
  O  O16  1  0.32863000  0.61166200  0.64075400  1
  O  O17  1  0.32438800  0.05412800  0.08146100  1
  O  O18  1  0.19854700  0.46910200  0.91616200  1
  O  O19  1  0.22175700  0.87122000  0.37000600  1
  O  O20  1  0.21366500  0.13108100  0.40964500  1
  O  O21  1  0.18898200  0.22154800  0.82465900  1
  O  O22  1  0.08549000  0.83108500  0.86843400  1
  O  O23  1  0.09258200  0.51827200  0.32751300  1
loop_
_geom_bond_atom_site_label_1
_geom_bond_atom_site_label_2
_geom_bond_distance
_geom_bond_site_symmetry_2
Li0 O6 1.929257 1_555
Li0 O11 1.990995 1_555
Li0 O20 2.041007 1_655
Li0 O1 2.219529 1_555
Li1 O10 1.990406 1_554
Li1 O1 2.065316 1_555
Li1 O14 2.077609 1_555
Li1 O5 2.121234 1_555
Li2 O19 1.877315 1_555
Li2 O23 1.993187 1_555
Li2 O13 2.034602 1_555
Li2 O8 2.104312 1_555
Li3 O22 1.892363 1_555
Li3 O9 2.005810 1_555
Li3 O16 2.025548 1_555
Li3 O18 2.143721 1_555
Fe0 O19 1.963831 1_655
Fe0 O3 2.124768 1_555
Fe0 O8 2.141001 1_555
Fe0 O11 2.161916 1_565
Fe0 O2 2.224525 1_555
Fe1 O10 1.944039 1_555
Fe1 O18 2.084851 1_655
Fe1 O9 2.132430 1_555
Fe1 O0 2.160671 1_555
Fe1 O5 2.318845 1_556
Fe2 O2 1.962400 1_555
Fe2 O17 1.970088 1_565
Fe2 O7 1.971088 1_554
Fe2 O1 1.981371 1_565
Fe2 O11 2.098528 1_565
Fe3 O16 1.901876 1_555
Fe3 O3 1.918155 1_555
Fe3 O0 1.937618 1_555
Fe3 O8 2.095500 1_555
Fe3 O9 2.096697 1_555
Fe4 O6 1.976288 1_555
Fe4 O20 2.084320 1_555
Fe4 O15 2.088849 1_555
Fe4 O23 2.168504 1_555
Fe4 O14 2.287607 1_555
Fe5 O22 1.993372 1_545
Fe5 O7 2.118169 1_545
Fe5 O21 2.141477 1_555
Fe5 O17 2.161867 1_556
Fe5 O12 2.181917 1_555
Fe6 O4 1.876386 1_455
Fe6 O12 1.935970 1_555
Fe6 O15 1.945155 1_555
Fe6 O21 2.037237 1_555
Fe6 O20 2.246453 1_555
Fe7 O13 1.881495 1_555
Fe7 O5 1.930715 1_455
Fe7 O14 1.958954 1_555
Fe7 O18 2.078172 1_554
Fe7 O23 2.137766 1_555
B0 O6 1.359692 1_555
B0 O8 1.409954 1_555
B0 O23 1.410652 1_655
B1 O22 1.353256 1_655
B1 O7 1.395053 1_555
B1 O9 1.419941 1_555
B2 O4 1.359884 1_565
B2 O12 1.390564 1_565
B2 O3 1.394567 1_555
B3 O13 1.366543 1_555
B3 O2 1.383644 1_555
B3 O5 1.395582 1_555
B4 O19 1.355468 1_545
B4 O20 1.402320 1_555
B4 O11 1.419187 1_555
B5 O10 1.355237 1_555
B5 O21 1.392120 1_555
B5 O18 1.428806 1_555
B6 O16 1.368064 1_555
B6 O15 1.380203 1_555
B6 O0 1.388064 1_455
B7 O17 1.373411 1_555
B7 O1 1.379422 1_455
B7 O14 1.410701 1_555
