# generated using pymatgen
data_CaZrSi2O7
_symmetry_space_group_name_H-M   'P 1'
_cell_length_a   5.59458406
_cell_length_b   5.59458406
_cell_length_c   4.74677746
_cell_angle_alpha   82.77736448
_cell_angle_beta   82.77736448
_cell_angle_gamma   103.67626296
_symmetry_Int_Tables_number   1
_chemical_formula_structural   CaZrSi2O7
_chemical_formula_sum   'Ca1 Zr1 Si2 O7'
_cell_volume   141.33872206
_cell_formula_units_Z   1
loop_
 _symmetry_equiv_pos_site_id
 _symmetry_equiv_pos_as_xyz
  1  'x, y, z'
loop_
 _atom_site_type_symbol
 _atom_site_label
 _atom_site_symmetry_multiplicity
 _atom_site_fract_x
 _atom_site_fract_y
 _atom_site_fract_z
 _atom_site_occupancy
  Ca  Ca0  1  0.29540700  0.70459300  0.50000000  1
  Zr  Zr0  1  0.68447100  0.31552900  0.50000000  1
  Si  Si0  1  0.79497300  0.78031600  0.91670400  1
  Si  Si1  1  0.21968400  0.20502700  0.08329600  1
  O  O0  1  0.88370400  0.59180700  0.70928800  1
  O  O1  1  0.40819300  0.11629600  0.29071200  1
  O  O2  1  0.65626900  0.96343700  0.73644500  1
  O  O3  1  0.03656300  0.34373100  0.26355500  1
  O  O4  1  0.05850100  0.94149900  0.00000000  1
  O  O5  1  0.37675800  0.37512300  0.78253100  1
  O  O6  1  0.62487700  0.62324200  0.21746900  1
loop_
_geom_bond_atom_site_label_1
_geom_bond_atom_site_label_2
_geom_bond_distance
_geom_bond_site_symmetry_2
Ca0 O1 2.295660 1_565
Ca0 O0 2.295660 1_455
Ca0 O5 2.309084 1_555
Ca0 O6 2.309084 1_555
Ca0 O3 2.651141 1_555
Ca0 O2 2.651141 1_555
O0 Si0 1.647356 1_555
O0 Zr0 2.113824 1_555
O1 Si1 1.647356 1_555
O1 Zr0 2.113824 1_555
O2 Si0 1.645094 1_555
O2 Zr0 2.101739 1_565
O3 Si1 1.645094 1_555
O3 Zr0 2.101739 1_455
O4 Si0 1.658522 1_454
O4 Si1 1.658522 1_565
O5 Si1 1.632025 1_556
O5 Zr0 2.162567 1_555
O6 Si0 1.632025 1_554
O6 Zr0 2.162567 1_555
