# generated using pymatgen
data_Li4Cr3GaO8
_symmetry_space_group_name_H-M   'P 1'
_cell_length_a   5.11267938
_cell_length_b   5.16807149
_cell_length_c   11.48098923
_cell_angle_alpha   98.91555211
_cell_angle_beta   94.24003492
_cell_angle_gamma   80.55216358
_symmetry_Int_Tables_number   1
_chemical_formula_structural   Li4Cr3GaO8
_chemical_formula_sum   'Li8 Cr6 Ga2 O16'
_cell_volume   295.26194042
_cell_formula_units_Z   2
loop_
 _symmetry_equiv_pos_site_id
 _symmetry_equiv_pos_as_xyz
  1  'x, y, z'
loop_
 _atom_site_type_symbol
 _atom_site_label
 _atom_site_symmetry_multiplicity
 _atom_site_fract_x
 _atom_site_fract_y
 _atom_site_fract_z
 _atom_site_occupancy
  Li  Li0  1  0.99985900  0.99993000  0.99999500  1
  Li  Li1  1  0.99985500  0.49993900  0.49999300  1
  Li  Li2  1  0.50014700  0.12505900  0.12500800  1
  Li  Li3  1  0.50014900  0.62505800  0.62500400  1
  Li  Li4  1  0.00002700  0.25015000  0.24999300  1
  Li  Li5  1  0.00003000  0.75015100  0.74999500  1
  Li  Li6  1  0.49998200  0.37485400  0.37500200  1
  Li  Li7  1  0.49997900  0.87485000  0.87500200  1
  Cr  Cr0  1  0.75005700  0.06250200  0.56252200  1
  Cr  Cr1  1  0.25004200  0.68778400  0.18787200  1
  Cr  Cr2  1  0.24989800  0.43717800  0.93712900  1
  Cr  Cr3  1  0.75001400  0.56248700  0.06250300  1
  Cr  Cr4  1  0.25012200  0.18776800  0.68784400  1
  Cr  Cr5  1  0.24987900  0.93725300  0.43713600  1
  Ga  Ga0  1  0.74998400  0.81250200  0.31250700  1
  Ga  Ga1  1  0.74999300  0.31250900  0.81250600  1
  O  O0  1  0.12221200  0.36450300  0.09076000  1
  O  O1  1  0.12223200  0.86450900  0.59076000  1
  O  O2  1  0.37779100  0.76047300  0.03424000  1
  O  O3  1  0.37779600  0.26048700  0.53423800  1
  O  O4  1  0.62185800  0.49032900  0.21634400  1
  O  O5  1  0.62186700  0.99032600  0.71634000  1
  O  O6  1  0.87814200  0.13468600  0.40867000  1
  O  O7  1  0.87813200  0.63467800  0.90866400  1
  O  O8  1  0.87826800  0.88605600  0.15978900  1
  O  O9  1  0.87829400  0.38605600  0.65978600  1
  O  O10  1  0.62170100  0.73897400  0.46521900  1
  O  O11  1  0.62171400  0.23895500  0.96521500  1
  O  O12  1  0.11919400  0.61437900  0.34081500  1
  O  O13  1  0.11920600  0.11435900  0.84079800  1
  O  O14  1  0.38078100  0.01063500  0.28418200  1
  O  O15  1  0.38080100  0.51061400  0.78416800  1
loop_
_geom_bond_atom_site_label_1
_geom_bond_atom_site_label_2
_geom_bond_distance
_geom_bond_site_symmetry_2
Li0 O2 2.161730 1_656
Li0 O11 2.162838 1_565
Li0 O13 2.163582 1_665
Li0 O0 2.170066 1_666
Li0 O8 2.173002 1_556
Li0 O7 2.173870 1_555
Li1 O3 2.161754 1_655
Li1 O10 2.162883 1_555
Li1 O12 2.163394 1_655
Li1 O1 2.170109 1_655
Li1 O9 2.172952 1_555
Li1 O6 2.173816 1_555
Li2 O0 2.161718 1_555
Li2 O8 2.162692 1_545
Li2 O14 2.163368 1_555
Li2 O2 2.170140 1_545
Li2 O11 2.172994 1_554
Li2 O4 2.173935 1_555
Li3 O1 2.161653 1_555
Li3 O9 2.162789 1_555
Li3 O15 2.163275 1_555
Li3 O3 2.170061 1_555
Li3 O10 2.172927 1_555
Li3 O5 2.173940 1_555
Li4 O12 2.162395 1_555
Li4 O4 2.162989 1_455
Li4 O8 2.164700 1_445
Li4 O6 2.165676 1_455
Li4 O0 2.169470 1_555
Li4 O14 2.173099 1_555
Li5 O13 2.162251 1_565
Li5 O5 2.162970 1_455
Li5 O9 2.164676 1_455
Li5 O7 2.165641 1_455
Li5 O1 2.169537 1_555
Li5 O15 2.173182 1_555
Li6 O14 2.162412 1_555
Li6 O6 2.162971 1_555
Li6 O10 2.164780 1_555
Li6 O4 2.165487 1_555
Li6 O3 2.169536 1_555
Li6 O12 2.173255 1_555
Li7 O15 2.162493 1_555
Li7 O7 2.162939 1_555
Li7 O11 2.164733 1_565
Li7 O5 2.165555 1_555
Li7 O2 2.169584 1_556
Li7 O13 2.173197 1_565
Cr0 O5 2.035426 1_545
Cr0 O6 2.035577 1_555
Cr0 O1 2.035980 1_645
Cr0 O9 2.036128 1_555
Cr0 O3 2.036423 1_555
Cr0 O10 2.036454 1_545
Cr1 O0 2.033456 1_555
Cr1 O2 2.033508 1_555
Cr1 O4 2.033852 1_555
Cr1 O12 2.034272 1_555
Cr1 O14 2.034305 1_565
Cr1 O8 2.034499 1_455
Cr2 O0 2.033337 1_556
Cr2 O2 2.033643 1_556
Cr2 O7 2.033711 1_455
Cr2 O13 2.034167 1_555
Cr2 O11 2.034590 1_555
Cr2 O15 2.034641 1_555
Cr3 O7 2.035523 1_554
Cr3 O4 2.035562 1_555
Cr3 O0 2.036098 1_655
Cr3 O2 2.036221 1_555
Cr3 O11 2.036282 1_554
Cr3 O8 2.036326 1_555
Cr4 O3 2.033132 1_555
Cr4 O1 2.033366 1_545
Cr4 O5 2.033569 1_545
Cr4 O15 2.034217 1_555
Cr4 O13 2.034543 1_555
Cr4 O9 2.034714 1_455
Cr5 O1 2.033313 1_555
Cr5 O3 2.033404 1_565
Cr5 O6 2.033459 1_465
Cr5 O12 2.034331 1_555
Cr5 O14 2.034460 1_565
Cr5 O10 2.034719 1_555
Ga0 O12 2.023648 1_655
Ga0 O14 2.023671 1_565
Ga0 O4 2.025254 1_555
Ga0 O6 2.025367 1_565
Ga0 O10 2.026559 1_555
Ga0 O8 2.026674 1_555
Ga1 O15 2.023595 1_555
Ga1 O13 2.023683 1_655
Ga1 O7 2.025242 1_555
Ga1 O5 2.025308 1_545
Ga1 O11 2.026569 1_555
Ga1 O9 2.026718 1_555
