# generated using pymatgen
data_LiZn(Fe5O8)2
_symmetry_space_group_name_H-M   'P 1'
_cell_length_a   10.50360406
_cell_length_b   10.50360406
_cell_length_c   10.50360343
_cell_angle_alpha   33.54181901
_cell_angle_beta   33.54181901
_cell_angle_gamma   33.54182090
_symmetry_Int_Tables_number   1
_chemical_formula_structural   LiZn(Fe5O8)2
_chemical_formula_sum   'Li1 Zn1 Fe10 O16'
_cell_volume   315.12505775
_cell_formula_units_Z   1
loop_
 _symmetry_equiv_pos_site_id
 _symmetry_equiv_pos_as_xyz
  1  'x, y, z'
loop_
 _atom_site_type_symbol
 _atom_site_label
 _atom_site_symmetry_multiplicity
 _atom_site_fract_x
 _atom_site_fract_y
 _atom_site_fract_z
 _atom_site_occupancy
  Li  Li0  1  0.49907000  0.49907000  0.49907000  1
  Zn  Zn0  1  0.68812100  0.68812100  0.68812100  1
  Fe  Fe0  1  0.99864100  0.99864100  0.99864100  1
  Fe  Fe1  1  0.37705600  0.37705600  0.37705600  1
  Fe  Fe2  1  0.43653900  0.93962300  0.93962300  1
  Fe  Fe3  1  0.93962300  0.93962300  0.43653900  1
  Fe  Fe4  1  0.93962300  0.43653900  0.93962300  1
  Fe  Fe5  1  0.87624800  0.87624800  0.87624800  1
  Fe  Fe6  1  0.93557700  0.43758500  0.43758500  1
  Fe  Fe7  1  0.18562600  0.18562600  0.18562600  1
  Fe  Fe8  1  0.43758500  0.93557700  0.43758500  1
  Fe  Fe9  1  0.43758500  0.43758500  0.93557700  1
  O  O0  1  0.57146700  0.57146700  0.05136100  1
  O  O1  1  0.57146700  0.05136100  0.57146700  1
  O  O2  1  0.05136100  0.57146700  0.57146700  1
  O  O3  1  0.80511400  0.80511400  0.80511400  1
  O  O4  1  0.84153700  0.29405400  0.29405400  1
  O  O5  1  0.06418400  0.06418400  0.06418400  1
  O  O6  1  0.29405400  0.84153700  0.29405400  1
  O  O7  1  0.29405400  0.29405400  0.84153700  1
  O  O8  1  0.08165800  0.53174600  0.08165800  1
  O  O9  1  0.08165800  0.08165800  0.53174600  1
  O  O10  1  0.53174600  0.08165800  0.08165800  1
  O  O11  1  0.31007200  0.31007200  0.31007200  1
  O  O12  1  0.56997700  0.56997700  0.56997700  1
  O  O13  1  0.32346200  0.80344700  0.80344700  1
  O  O14  1  0.80344700  0.80344700  0.32346200  1
  O  O15  1  0.80344700  0.32346200  0.80344700  1
loop_
_geom_bond_atom_site_label_1
_geom_bond_atom_site_label_2
_geom_bond_distance
_geom_bond_site_symmetry_2
Li0 O7 2.029469 1_555
Li0 O6 2.029469 1_555
Li0 O4 2.029469 1_555
Li0 O12 2.106671 1_555
Fe0 O14 1.932236 1_556
Fe0 O13 1.932236 1_655
Fe0 O15 1.932236 1_565
Fe0 O5 1.947305 1_666
Fe1 O0 1.924551 1_555
Fe1 O1 1.924551 1_555
Fe1 O2 1.924551 1_555
Fe1 O11 1.990118 1_555
Fe2 O6 2.012369 1_556
Fe2 O7 2.012369 1_565
Fe2 O3 2.017884 1_555
Fe2 O1 2.100253 1_565
Fe2 O0 2.100253 1_556
Fe2 O5 2.124536 1_566
Fe3 O6 2.012369 1_655
Fe3 O4 2.012369 1_565
Fe3 O3 2.017884 1_555
Fe3 O1 2.100253 1_565
Fe3 O2 2.100253 1_655
Fe3 O5 2.124536 1_665
Fe4 O4 2.012369 1_556
Fe4 O7 2.012369 1_655
Fe4 O3 2.017884 1_555
Fe4 O2 2.100253 1_655
Fe4 O0 2.100253 1_556
Fe4 O5 2.124536 1_656
Fe5 O9 2.033474 1_665
Fe5 O10 2.033474 1_566
Fe5 O8 2.033474 1_656
Fe5 O3 2.113416 1_555
Fe6 O12 2.008523 1_555
Fe6 O8 2.028023 1_655
Fe6 O9 2.028023 1_655
Fe6 O15 2.081969 1_555
Fe6 O14 2.081969 1_555
Fe6 O11 2.118101 1_655
Fe7 O7 2.023768 1_554
Fe7 O6 2.023769 1_545
Fe7 O4 2.023769 1_455
Fe7 O9 2.086590 1_555
Fe7 O8 2.086591 1_555
Fe7 O10 2.086591 1_555
Fe8 O12 2.008523 1_555
Fe8 O10 2.028023 1_565
Fe8 O9 2.028023 1_565
Fe8 O13 2.081969 1_555
Fe8 O14 2.081969 1_555
Fe8 O11 2.118101 1_565
Fe9 O12 2.008523 1_555
Fe9 O10 2.028023 1_556
Fe9 O8 2.028023 1_556
Fe9 O15 2.081969 1_555
Fe9 O13 2.081969 1_555
Fe9 O11 2.118101 1_556
O0 Zn0 2.115738 1_554
O1 Zn0 2.115738 1_545
O2 Zn0 2.115738 1_455
O13 Zn0 2.140773 1_555
O14 Zn0 2.140772 1_555
O15 Zn0 2.140773 1_555
