# generated using pymatgen
data_Li2FeOF3
_symmetry_space_group_name_H-M   'P 1'
_cell_length_a   5.95473232
_cell_length_b   5.98694442
_cell_length_c   8.53103091
_cell_angle_alpha   89.99996215
_cell_angle_beta   91.20105345
_cell_angle_gamma   89.99994592
_symmetry_Int_Tables_number   1
_chemical_formula_structural   Li2FeOF3
_chemical_formula_sum   'Li8 Fe4 O4 F12'
_cell_volume   304.06998989
_cell_formula_units_Z   4
loop_
 _symmetry_equiv_pos_site_id
 _symmetry_equiv_pos_as_xyz
  1  'x, y, z'
loop_
 _atom_site_type_symbol
 _atom_site_label
 _atom_site_symmetry_multiplicity
 _atom_site_fract_x
 _atom_site_fract_y
 _atom_site_fract_z
 _atom_site_occupancy
  Li  Li0  1  0.25000800  0.24999800  0.25000500  1
  Li  Li1  1  0.75000800  0.74999700  0.75000500  1
  Li  Li2  1  0.75000200  0.24999800  0.25000300  1
  Li  Li3  1  0.25000200  0.74999600  0.75000400  1
  Li  Li4  1  0.46761700  0.74999500  0.37399100  1
  Li  Li5  1  0.96762200  0.24999600  0.87399200  1
  Li  Li6  1  0.03239700  0.74999600  0.12602300  1
  Li  Li7  1  0.53239100  0.24999700  0.62602300  1
  Fe  Fe0  1  0.99999500  0.50005100  0.50003200  1
  Fe  Fe1  1  0.50004100  0.49992500  0.99993100  1
  Fe  Fe2  1  0.49991000  0.00005000  0.99991300  1
  Fe  Fe3  1  0.99996800  0.00005500  0.49999000  1
  O  O0  1  0.80227700  0.24999300  0.49531500  1
  O  O1  1  0.30229700  0.75000000  0.99530500  1
  O  O2  1  0.69771200  0.24999500  0.00469700  1
  O  O3  1  0.19768700  0.74999800  0.50470400  1
  F  F0  1  0.25208100  0.24999100  0.49577300  1
  F  F1  1  0.75207900  0.75000300  0.99577100  1
  F  F2  1  0.24793300  0.24999100  0.00423600  1
  F  F3  1  0.74793300  0.75000000  0.50424100  1
  F  F4  1  0.00535200  0.48733300  0.26163700  1
  F  F5  1  0.50535200  0.98733600  0.76163500  1
  F  F6  1  0.00535300  0.01265900  0.26163800  1
  F  F7  1  0.50535600  0.51265900  0.76163100  1
  F  F8  1  0.49465800  0.48733400  0.23837300  1
  F  F9  1  0.99465700  0.98733700  0.73837700  1
  F  F10  1  0.49465700  0.01265800  0.23837200  1
  F  F11  1  0.99465500  0.51265700  0.73838000  1
loop_
_geom_bond_atom_site_label_1
_geom_bond_atom_site_label_2
_geom_bond_distance
_geom_bond_site_symmetry_2
Li2 O2 2.109285 1_555
Li2 O0 2.109325 1_555
Li3 O1 2.109247 1_555
Li3 O3 2.109254 1_555
Li4 O3 1.975407 1_555
Li5 O2 1.975269 1_556
Li6 O1 1.975285 1_554
Li7 O0 1.975166 1_555
Fe0 O3 1.903865 1_655
Fe0 O0 1.904486 1_555
Fe1 O2 1.903712 1_556
Fe1 O1 1.904654 1_555
Fe2 O1 1.904055 1_545
Fe2 O2 1.904268 1_556
Fe3 O0 1.903817 1_555
Fe3 O3 1.904483 1_645
F0 Li7 1.985717 1_555
F0 Li0 2.096432 1_555
F0 Fe3 2.120479 1_455
F0 Fe0 2.120899 1_455
F1 Li6 1.985765 1_656
F1 Li1 2.096415 1_555
F1 Fe1 2.120748 1_555
F1 Fe2 2.121162 1_565
F2 Li5 1.985694 1_454
F2 Li0 2.096440 1_555
F2 Fe2 2.119954 1_554
F2 Fe1 2.120474 1_554
F3 Li4 1.985746 1_555
F3 Li1 2.096398 1_555
F3 Fe0 2.120315 1_555
F3 Fe3 2.120662 1_565
F4 Li6 1.960902 1_555
F4 Fe0 2.036098 1_455
F4 Li0 2.038955 1_555
F4 Li2 2.081961 1_455
F5 Li7 1.960878 1_565
F5 Fe2 2.035118 1_565
F5 Li1 2.038971 1_555
F5 Li3 2.081981 1_555
F6 Li6 1.960907 1_545
F6 Fe3 2.035712 1_455
F6 Li0 2.038970 1_555
F6 Li2 2.081980 1_455
F7 Li7 1.960862 1_555
F7 Fe1 2.035283 1_555
F7 Li1 2.038949 1_555
F7 Li3 2.081983 1_555
F8 Li4 1.960911 1_555
F8 Fe1 2.036476 1_554
F8 Li0 2.038935 1_555
F8 Li2 2.081936 1_555
F9 Li5 1.960883 1_565
F9 Fe3 2.036020 1_565
F9 Li1 2.038946 1_555
F9 Li3 2.081960 1_655
F10 Li4 1.960924 1_545
F10 Fe2 2.036596 1_554
F10 Li0 2.038947 1_555
F10 Li2 2.081959 1_555
F11 Li5 1.960875 1_555
F11 Fe0 2.035669 1_555
F11 Li1 2.038934 1_555
F11 Li3 2.081962 1_655
