# generated using pymatgen
data_Li2V3SnO8
_symmetry_space_group_name_H-M   'P 1'
_cell_length_a   8.56883700
_cell_length_b   8.58529200
_cell_length_c   8.58893800
_cell_angle_alpha   90.00000000
_cell_angle_beta   90.00000000
_cell_angle_gamma   90.00000000
_symmetry_Int_Tables_number   1
_chemical_formula_structural   Li2V3SnO8
_chemical_formula_sum   'Li8 V12 Sn4 O32'
_cell_volume   631.85353588
_cell_formula_units_Z   4
loop_
 _symmetry_equiv_pos_site_id
 _symmetry_equiv_pos_as_xyz
  1  'x, y, z'
loop_
 _atom_site_type_symbol
 _atom_site_label
 _atom_site_symmetry_multiplicity
 _atom_site_fract_x
 _atom_site_fract_y
 _atom_site_fract_z
 _atom_site_occupancy
  Li  Li0  1  0.62538900  0.37469000  0.87441200  1
  Li  Li1  1  0.50136300  0.99677700  0.00185300  1
  Li  Li2  1  0.49863700  0.49677700  0.49814700  1
  Li  Li3  1  0.37461100  0.87469000  0.62558800  1
  Li  Li4  1  0.12538900  0.12531000  0.12558800  1
  Li  Li5  1  0.00136300  0.50322300  0.99814700  1
  Li  Li6  1  0.99863700  0.00322300  0.50185300  1
  Li  Li7  1  0.87461100  0.62531000  0.37441200  1
  V  V0  1  0.63673600  0.62559700  0.12756200  1
  V  V1  1  0.63562900  0.85868100  0.37157200  1
  V  V2  1  0.62553000  0.13104700  0.63241700  1
  V  V3  1  0.37447000  0.63104700  0.86758300  1
  V  V4  1  0.36437100  0.35868100  0.12842800  1
  V  V5  1  0.36326400  0.12559700  0.37243800  1
  V  V6  1  0.13673600  0.87440300  0.87243800  1
  V  V7  1  0.13562900  0.64131900  0.62842800  1
  V  V8  1  0.12553000  0.36895300  0.36758300  1
  V  V9  1  0.87447000  0.86895300  0.13241700  1
  V  V10  1  0.86437100  0.14131900  0.87157200  1
  V  V11  1  0.86326400  0.37440300  0.62756200  1
  Sn  Sn0  1  0.74539000  0.24697300  0.25117800  1
  Sn  Sn1  1  0.25461000  0.74697300  0.24882200  1
  Sn  Sn2  1  0.24539000  0.25302700  0.74882200  1
  Sn  Sn3  1  0.75461000  0.75302700  0.75117800  1
  O  O0  1  0.63889700  0.35735700  0.62477100  1
  O  O1  1  0.65018600  0.11813000  0.86485200  1
  O  O2  1  0.63598200  0.86512700  0.14393400  1
  O  O3  1  0.61902500  0.64685100  0.36259000  1
  O  O4  1  0.62446200  0.88461700  0.60955200  1
  O  O5  1  0.61017900  0.10935400  0.38650600  1
  O  O6  1  0.60911400  0.38396200  0.12240000  1
  O  O7  1  0.61665800  0.62135000  0.88429800  1
  O  O8  1  0.38334200  0.12135000  0.61570200  1
  O  O9  1  0.39088600  0.88396200  0.37760000  1
  O  O10  1  0.38982100  0.60935400  0.11349400  1
  O  O11  1  0.37553800  0.38461700  0.89044800  1
  O  O12  1  0.38097500  0.14685100  0.13741000  1
  O  O13  1  0.36401800  0.36512700  0.35606600  1
  O  O14  1  0.34981400  0.61813000  0.63514800  1
  O  O15  1  0.36110300  0.85735700  0.87522900  1
  O  O16  1  0.13889700  0.14264300  0.37522900  1
  O  O17  1  0.15018600  0.38187000  0.13514800  1
  O  O18  1  0.13598200  0.63487300  0.85606600  1
  O  O19  1  0.11902500  0.85314900  0.63741000  1
  O  O20  1  0.12446200  0.61538300  0.39044800  1
  O  O21  1  0.11017900  0.39064600  0.61349400  1
  O  O22  1  0.10911400  0.11603800  0.87760000  1
  O  O23  1  0.11665800  0.87865000  0.11570200  1
  O  O24  1  0.88334200  0.37865000  0.38429800  1
  O  O25  1  0.89088600  0.61603800  0.62240000  1
  O  O26  1  0.88982100  0.89064600  0.88650600  1
  O  O27  1  0.87553800  0.11538300  0.10955200  1
  O  O28  1  0.88097500  0.35314900  0.86259000  1
  O  O29  1  0.86401800  0.13487300  0.64393400  1
  O  O30  1  0.84981400  0.88187000  0.36485200  1
  O  O31  1  0.86110300  0.64264300  0.12477100  1
loop_
_geom_bond_atom_site_label_1
_geom_bond_atom_site_label_2
_geom_bond_distance
_geom_bond_site_symmetry_2
Li0 O7 2.120670 1_555
Li0 O6 2.135998 1_556
Li0 O11 2.147050 1_555
Li0 O0 2.152423 1_555
Li0 O28 2.200213 1_555
Li0 O1 2.214390 1_555
Li1 O15 2.014943 1_554
Li1 O12 2.019849 1_565
Li1 O1 2.023931 1_564
Li1 O2 2.024177 1_555
Li2 O0 2.014943 1_555
Li2 O3 2.019849 1_555
Li2 O14 2.023931 1_555
Li2 O13 2.024177 1_555
Li3 O8 2.120670 1_565
Li3 O9 2.135998 1_555
Li3 O4 2.147050 1_555
Li3 O15 2.152423 1_555
Li3 O19 2.200213 1_555
Li3 O14 2.214390 1_555
Li4 O23 2.120670 1_545
Li4 O22 2.135998 1_554
Li4 O27 2.147050 1_455
Li4 O16 2.152423 1_555
Li4 O12 2.200213 1_555
Li4 O17 2.214390 1_555
Li5 O31 2.014943 1_456
Li5 O28 2.019849 1_455
Li5 O17 2.023931 1_556
Li5 O18 2.024177 1_555
Li6 O16 2.014943 1_655
Li6 O19 2.019849 1_645
Li6 O30 2.023931 1_545
Li6 O29 2.024177 1_555
Li7 O24 2.120670 1_555
Li7 O25 2.135998 1_555
Li7 O20 2.147050 1_655
Li7 O31 2.152423 1_555
Li7 O3 2.200213 1_555
Li7 O30 2.214390 1_555
O0 V11 1.928275 1_555
O0 V2 1.947418 1_555
O1 V10 1.846985 1_555
O1 V2 2.010579 1_555
O2 V1 1.955954 1_555
O2 V9 2.046221 1_555
O2 V0 2.061247 1_555
O3 V1 1.825810 1_555
O3 V0 2.032545 1_555
O4 Sn3 1.999922 1_555
O4 V1 2.058314 1_555
O4 V2 2.124788 1_565
O5 Sn0 2.022200 1_555
O5 V5 2.123805 1_555
O5 V2 2.124386 1_555
O5 V1 2.166921 1_545
O6 Sn0 1.992525 1_555
O6 V0 2.088436 1_555
O6 V4 2.109000 1_555
O7 Sn3 1.995645 1_555
O7 V3 2.081895 1_555
O7 V0 2.096768 1_556
O8 Sn2 1.995645 1_555
O8 V2 2.081895 1_555
O8 V5 2.096768 1_555
O9 Sn1 1.992525 1_555
O9 V5 2.088436 1_565
O9 V1 2.109000 1_555
O10 Sn1 2.022200 1_555
O10 V0 2.123805 1_555
O10 V3 2.124386 1_554
O10 V4 2.166921 1_555
O11 Sn2 1.999922 1_555
O11 V4 2.058314 1_556
O11 V3 2.124788 1_555
O12 V4 1.825810 1_555
O12 V5 2.032545 1_555
O13 V4 1.955954 1_555
O13 V8 2.046221 1_555
O13 V5 2.061247 1_555
O14 V7 1.846985 1_555
O14 V3 2.010579 1_555
O15 V6 1.928275 1_555
O15 V3 1.947418 1_555
O16 V5 1.928275 1_555
O16 V8 1.947418 1_555
O17 V4 1.846985 1_555
O17 V8 2.010579 1_555
O18 V7 1.955954 1_555
O18 V3 2.046221 1_555
O18 V6 2.061247 1_555
O19 V7 1.825810 1_555
O19 V6 2.032545 1_555
O20 Sn1 1.999922 1_555
O20 V7 2.058314 1_555
O20 V8 2.124788 1_555
O21 Sn2 2.022200 1_555
O21 V11 2.123805 1_455
O21 V8 2.124386 1_555
O21 V7 2.166921 1_555
O22 Sn2 1.992525 1_555
O22 V6 2.088436 1_545
O22 V10 2.109000 1_455
O23 Sn1 1.995645 1_555
O23 V9 2.081895 1_455
O23 V6 2.096768 1_554
O24 Sn0 1.995645 1_555
O24 V8 2.081895 1_655
O24 V11 2.096768 1_555
O25 Sn3 1.992525 1_555
O25 V11 2.088436 1_555
O25 V7 2.109000 1_655
O26 Sn3 2.022200 1_555
O26 V6 2.123805 1_655
O26 V9 2.124386 1_556
O26 V10 2.166921 1_565
O27 Sn0 1.999922 1_555
O27 V10 2.058314 1_554
O27 V9 2.124788 1_545
O28 V10 1.825810 1_555
O28 V11 2.032545 1_555
O29 V10 1.955954 1_555
O29 V2 2.046221 1_555
O29 V11 2.061247 1_555
O30 V1 1.846985 1_555
O30 V9 2.010579 1_555
O31 V0 1.928275 1_555
O31 V9 1.947418 1_555
