# generated using pymatgen
data_LiNi(SO4)2
_symmetry_space_group_name_H-M   'P 1'
_cell_length_a   9.02793318
_cell_length_b   8.98515330
_cell_length_c   9.03036809
_cell_angle_alpha   55.94758214
_cell_angle_beta   55.84087217
_cell_angle_gamma   55.75874687
_symmetry_Int_Tables_number   1
_chemical_formula_structural   LiNi(SO4)2
_chemical_formula_sum   'Li3 Ni3 S6 O24'
_cell_volume   468.12246113
_cell_formula_units_Z   3
loop_
 _symmetry_equiv_pos_site_id
 _symmetry_equiv_pos_as_xyz
  1  'x, y, z'
loop_
 _atom_site_type_symbol
 _atom_site_label
 _atom_site_symmetry_multiplicity
 _atom_site_fract_x
 _atom_site_fract_y
 _atom_site_fract_z
 _atom_site_occupancy
  Li  Li0  1  0.16163500  0.13225600  0.15359800  1
  Li  Li1  1  0.18096600  0.41558200  0.77155900  1
  Li  Li2  1  0.77246300  0.17966800  0.41785600  1
  Ni  Ni0  1  0.35507200  0.35637400  0.35191000  1
  Ni  Ni1  1  0.64147800  0.64432000  0.64551900  1
  Ni  Ni2  1  0.84733700  0.84997800  0.84980200  1
  S  S0  1  0.03747000  0.74454100  0.46621000  1
  S  S1  1  0.46362300  0.04041200  0.74644100  1
  S  S2  1  0.74833600  0.46780200  0.03627300  1
  S  S3  1  0.24726000  0.54963400  0.95600000  1
  S  S4  1  0.54587200  0.95666200  0.24883400  1
  S  S5  1  0.95646000  0.24694800  0.54951600  1
  O  O0  1  0.10532200  0.29698200  0.51476200  1
  O  O1  1  0.29867900  0.51309100  0.10435600  1
  O  O2  1  0.00152600  0.95087200  0.34812700  1
  O  O3  1  0.52291700  0.10425100  0.29603100  1
  O  O4  1  0.02822500  0.70298300  0.65897400  1
  O  O5  1  0.23345300  0.62008900  0.37966100  1
  O  O6  1  0.37815400  0.24245500  0.61948800  1
  O  O7  1  0.34078400  0.01293400  0.94700200  1
  O  O8  1  0.63082200  0.37295000  0.23656400  1
  O  O9  1  0.04352400  0.68359200  0.98659300  1
  O  O10  1  0.26838900  0.36902000  0.96142500  1
  O  O11  1  0.35882200  0.97359800  0.27866100  1
  O  O12  1  0.65757600  0.02823200  0.70394800  1
  O  O13  1  0.71343400  0.65567100  0.02729800  1
  O  O14  1  0.95448900  0.34270100  0.00059200  1
  O  O15  1  0.37421700  0.63472300  0.76018300  1
  O  O16  1  0.67649900  0.98779400  0.04480200  1
  O  O17  1  0.63102300  0.75960500  0.37536900  1
  O  O18  1  0.75940800  0.37480900  0.63452200  1
  O  O19  1  0.96235900  0.26947400  0.36907000  1
  O  O20  1  0.48889500  0.90129700  0.68824000  1
  O  O21  1  0.98529600  0.04321600  0.68282400  1
  O  O22  1  0.68836400  0.49407700  0.89909200  1
  O  O23  1  0.89324800  0.69161100  0.49410100  1
loop_
_geom_bond_atom_site_label_1
_geom_bond_atom_site_label_2
_geom_bond_distance
_geom_bond_site_symmetry_2
Li0 O11 2.018811 1_545
Li0 O7 2.036185 1_554
Li0 O2 2.103499 1_545
Li0 O10 2.181909 1_554
Li0 O19 2.191393 1_455
Li0 O14 2.231188 1_455
Li1 O6 2.001345 1_555
Li1 O10 2.020493 1_555
Li1 O14 2.031763 1_456
Li1 O4 2.056812 1_555
Li2 O8 1.999777 1_555
Li2 O19 2.023552 1_555
Li2 O2 2.025427 1_645
Li2 O12 2.060092 1_555
Ni0 O1 2.045854 1_555
Ni0 O3 2.059400 1_555
Ni0 O0 2.069496 1_555
Ni0 O5 2.076337 1_555
Ni0 O6 2.117860 1_555
Ni0 O8 2.153154 1_555
Ni1 O23 2.040247 1_555
Ni1 O20 2.049190 1_555
Ni1 O22 2.056348 1_555
Ni1 O15 2.056647 1_555
Ni1 O18 2.063179 1_555
Ni1 O17 2.086112 1_555
Ni2 O13 2.035641 1_556
Ni2 O21 2.057218 1_565
Ni2 O16 2.062956 1_556
Ni2 O9 2.075309 1_655
Ni2 O12 2.078113 1_565
Ni2 O4 2.083812 1_655
O0 S5 1.467981 1_455
O1 S3 1.467090 1_554
O2 S0 1.475471 1_555
O3 S4 1.485824 1_545
O4 S0 1.523326 1_555
O5 S0 1.480235 1_555
O6 S1 1.513797 1_555
O7 S1 1.456994 1_555
O8 S2 1.503202 1_555
O9 S3 1.489466 1_555
O10 S3 1.498501 1_555
O11 S4 1.480968 1_555
O12 S1 1.517250 1_555
O13 S2 1.494056 1_555
O14 S2 1.486288 1_555
O15 S3 1.490357 1_555
O16 S4 1.489199 1_555
O17 S4 1.490147 1_555
O18 S5 1.492641 1_555
O19 S5 1.498124 1_555
O20 S1 1.473376 1_565
O21 S5 1.488511 1_555
O22 S2 1.471501 1_556
O23 S0 1.476253 1_655
