# generated using pymatgen
data_LiV4O5F7
_symmetry_space_group_name_H-M   'P 1'
_cell_length_a   5.23879919
_cell_length_b   5.39053197
_cell_length_c   17.24309023
_cell_angle_alpha   95.58655358
_cell_angle_beta   81.28075324
_cell_angle_gamma   119.31707557
_symmetry_Int_Tables_number   1
_chemical_formula_structural   LiV4O5F7
_chemical_formula_sum   'Li2 V8 O10 F14'
_cell_volume   419.51942783
_cell_formula_units_Z   2
loop_
 _symmetry_equiv_pos_site_id
 _symmetry_equiv_pos_as_xyz
  1  'x, y, z'
loop_
 _atom_site_type_symbol
 _atom_site_label
 _atom_site_symmetry_multiplicity
 _atom_site_fract_x
 _atom_site_fract_y
 _atom_site_fract_z
 _atom_site_occupancy
  Li  Li0  1  0.63006100  0.21395200  0.92573100  1
  Li  Li1  1  0.62701700  0.54062700  0.32189100  1
  V  V0  1  0.78026900  0.29015700  0.74580500  1
  V  V1  1  0.84521800  0.12954200  0.37002000  1
  V  V2  1  0.52220000  0.52904800  0.49707700  1
  V  V3  1  0.62484000  0.34400600  0.12831300  1
  V  V4  1  0.32785600  0.64035100  0.87153400  1
  V  V5  1  0.25716100  0.74528200  0.25220100  1
  V  V6  1  0.97817400  0.95451900  0.00431000  1
  V  V7  1  0.13643000  0.91060900  0.61996500  1
  O  O0  1  0.96383800  0.45565300  0.31540400  1
  O  O1  1  0.51487100  0.05013500  0.18316600  1
  O  O2  1  0.76370800  0.80784500  0.43920100  1
  O  O3  1  0.73506000  0.68369000  0.06372500  1
  O  O4  1  0.23351800  0.18633600  0.56160700  1
  O  O5  1  0.48049100  0.92503700  0.81292400  1
  O  O6  1  0.22332400  0.79265900  0.95708100  1
  O  O7  1  0.98327900  0.41061300  0.84077400  1
  O  O8  1  0.50880000  0.91817000  0.33667900  1
  O  O9  1  0.01212100  0.56788200  0.68891400  1
  F  F0  1  0.97429800  0.05290600  0.71205000  1
  F  F1  1  0.51018700  0.07583200  0.66375800  1
  F  F2  1  0.72396300  0.30060600  0.46453000  1
  F  F3  1  0.76135400  0.84401700  0.91399100  1
  F  F4  1  0.78115600  0.20523400  0.02931300  1
  F  F5  1  0.52514400  0.44591100  0.79404400  1
  F  F6  1  0.73323600  0.67545600  0.58973800  1
  F  F7  1  0.30270800  0.31245300  0.93869600  1
  F  F8  1  0.28005400  0.33593500  0.40615400  1
  F  F9  1  0.48758900  0.52787400  0.22071800  1
  F  F10  1  0.23975400  0.17235800  0.08541600  1
  F  F11  1  0.26742200  0.69669300  0.53870200  1
  F  F12  1  0.01945500  0.56450600  0.16122000  1
  F  F13  1  0.02432300  0.95867800  0.28681700  1
loop_
_geom_bond_atom_site_label_1
_geom_bond_atom_site_label_2
_geom_bond_distance
_geom_bond_site_symmetry_2
Li0 O7 2.062382 1_555
Li0 O6 2.267370 1_545
Li0 O5 2.345271 1_545
Li1 O0 2.014352 1_555
Li1 O2 2.353952 1_555
Li1 O8 2.382397 1_555
O0 V1 1.854299 1_555
O0 V5 1.860284 1_655
O1 V3 1.723003 1_555
O1 V5 1.913421 1_545
O2 V2 1.703653 1_555
O2 V1 2.033634 1_565
O3 V6 1.696408 1_555
O3 V3 2.023179 1_555
O4 V7 1.695914 1_545
O4 V2 2.022910 1_555
O5 V4 1.694412 1_555
O5 V0 2.131918 1_565
O6 V4 1.763365 1_555
O6 V6 1.927638 1_456
O7 V4 1.745505 1_655
O7 V0 1.969530 1_555
O8 V1 1.716987 1_565
O8 V5 1.960369 1_555
O9 V0 1.680134 1_455
O9 V7 2.065297 1_555
F0 V7 1.955253 1_645
F0 V0 1.989060 1_555
F1 V7 1.951134 1_545
F1 V0 2.006510 1_555
F2 V1 1.968950 1_555
F2 V2 1.977080 1_555
F3 V6 1.939997 1_556
F3 V4 2.191966 1_555
F3 Li0 2.390204 1_565
F4 V3 2.017848 1_555
F4 V6 2.048259 1_545
F4 Li0 2.073701 1_554
F5 V0 1.951677 1_555
F5 V4 2.078858 1_555
F6 V2 1.957955 1_555
F6 V7 1.980707 1_655
F7 Li0 2.006313 1_555
F7 V6 2.126685 1_446
F7 V4 2.146383 1_555
F8 V2 2.035409 1_555
F8 Li1 2.044468 1_555
F8 V1 2.151463 1_455
F9 Li1 1.973697 1_555
F9 V3 2.020200 1_555
F9 V5 2.046528 1_555
F10 V6 1.974367 1_445
F10 V3 1.991057 1_555
F11 V2 1.969212 1_555
F11 V7 1.983140 1_555
F12 V3 1.956153 1_455
F12 V5 2.016870 1_555
F13 V1 1.991966 1_465
F13 V5 2.046229 1_555
F13 Li1 2.250942 1_455
