# generated using pymatgen
data_Ti3CrSb2(PO4)6
_symmetry_space_group_name_H-M   'P 1'
_cell_length_a   8.85085968
_cell_length_b   8.85085968
_cell_length_c   8.85085952
_cell_angle_alpha   58.48335028
_cell_angle_beta   58.48335028
_cell_angle_gamma   58.48335067
_symmetry_Int_Tables_number   1
_chemical_formula_structural   Ti3CrSb2(PO4)6
_chemical_formula_sum   'Ti3 Cr1 Sb2 P6 O24'
_cell_volume   473.26524366
_cell_formula_units_Z   1
loop_
 _symmetry_equiv_pos_site_id
 _symmetry_equiv_pos_as_xyz
  1  'x, y, z'
loop_
 _atom_site_type_symbol
 _atom_site_label
 _atom_site_symmetry_multiplicity
 _atom_site_fract_x
 _atom_site_fract_y
 _atom_site_fract_z
 _atom_site_occupancy
  Ti  Ti0  1  0.14760000  0.14760000  0.14760000  1
  Ti  Ti1  1  0.35156900  0.35156900  0.35156900  1
  Ti  Ti2  1  0.64747700  0.64747700  0.64747700  1
  Cr  Cr0  1  0.85336600  0.85336600  0.85336600  1
  Sb  Sb0  1  0.99917800  0.99917800  0.99917800  1
  Sb  Sb1  1  0.49790900  0.49790900  0.49790900  1
  P  P0  1  0.46139600  0.74996900  0.04078900  1
  P  P1  1  0.74996900  0.04078900  0.46139600  1
  P  P2  1  0.95892200  0.54119900  0.24988300  1
  P  P3  1  0.24988300  0.95892200  0.54119900  1
  P  P4  1  0.54119900  0.24988300  0.95892200  1
  P  P5  1  0.04078900  0.46139600  0.74996900  1
  O  O0  1  0.50412900  0.30285600  0.11750700  1
  O  O1  1  0.11750700  0.50412900  0.30285600  1
  O  O2  1  0.26692500  0.91676000  0.06254100  1
  O  O3  1  0.30285600  0.11750700  0.50412900  1
  O  O4  1  0.61503400  0.79957200  0.01171100  1
  O  O5  1  0.43571100  0.58061800  0.23292400  1
  O  O6  1  0.91676000  0.06254100  0.26692500  1
  O  O7  1  0.58061800  0.23292400  0.43571100  1
  O  O8  1  0.99476400  0.38299200  0.19745800  1
  O  O9  1  0.23292400  0.43571100  0.58061800  1
  O  O10  1  0.94016100  0.73326400  0.08282800  1
  O  O11  1  0.19745800  0.99476400  0.38299200  1
  O  O12  1  0.79957200  0.01171100  0.61503400  1
  O  O13  1  0.06254100  0.26692500  0.91676000  1
  O  O14  1  0.76870900  0.56200100  0.41819000  1
  O  O15  1  0.01171100  0.61503400  0.79957200  1
  O  O16  1  0.41819000  0.76870900  0.56200100  1
  O  O17  1  0.08282800  0.94016100  0.73326400  1
  O  O18  1  0.56200100  0.41819000  0.76870900  1
  O  O19  1  0.38299200  0.19745800  0.99476400  1
  O  O20  1  0.69754700  0.88297900  0.49355900  1
  O  O21  1  0.73326400  0.08282800  0.94016100  1
  O  O22  1  0.88297900  0.49355900  0.69754700  1
  O  O23  1  0.49355900  0.69754700  0.88297900  1
loop_
_geom_bond_atom_site_label_1
_geom_bond_atom_site_label_2
_geom_bond_distance
_geom_bond_site_symmetry_2
Cr0 O12 1.975391 1_565
Cr0 O4 1.975391 1_556
Cr0 O15 1.975391 1_655
Cr0 O10 2.089287 1_556
Cr0 O21 2.089287 1_565
Cr0 O17 2.089287 1_655
O0 P4 1.530794 1_554
O0 Ti1 1.923925 1_555
O1 P2 1.530794 1_455
O1 Ti1 1.923925 1_555
O2 P0 1.572623 1_555
O2 Ti0 2.092239 1_565
O2 Sb0 2.370018 1_454
O3 P3 1.530794 1_545
O3 Ti1 1.923925 1_555
O4 P0 1.499418 1_555
O5 P0 1.573986 1_555
O5 Ti1 2.074208 1_555
O5 Sb1 2.339470 1_555
O6 P1 1.572623 1_555
O6 Ti0 2.092239 1_655
O6 Sb0 2.370018 1_544
O7 P1 1.573986 1_555
O7 Ti1 2.074208 1_555
O7 Sb1 2.339470 1_555
O8 P2 1.528943 1_555
O8 Ti0 1.938002 1_655
O9 P5 1.573986 1_555
O9 Ti1 2.074207 1_555
O9 Sb1 2.339470 1_555
O10 P2 1.561184 1_555
O10 Sb0 2.327978 1_554
O11 P3 1.528943 1_555
O11 Ti0 1.938002 1_565
O12 P1 1.499418 1_555
O13 P5 1.572623 1_555
O13 Ti0 2.092239 1_556
O13 Sb0 2.370018 1_445
O14 P2 1.558203 1_555
O14 Ti2 2.078929 1_555
O14 Sb1 2.408173 1_555
O15 P5 1.499418 1_555
O16 P3 1.558203 1_555
O16 Ti2 2.078929 1_555
O16 Sb1 2.408173 1_555
O17 P3 1.561184 1_555
O17 Sb0 2.327978 1_455
O18 P4 1.558202 1_555
O18 Ti2 2.078929 1_555
O18 Sb1 2.408173 1_555
O19 P4 1.528943 1_555
O19 Ti0 1.938002 1_556
O20 P1 1.539802 1_565
O20 Ti2 1.939786 1_555
O21 P4 1.561184 1_555
O21 Sb0 2.327978 1_545
O22 P5 1.539802 1_655
O22 Ti2 1.939786 1_555
O23 P0 1.539802 1_556
O23 Ti2 1.939786 1_555
