# generated using pymatgen
data_Li4MnSn3(PO4)4
_symmetry_space_group_name_H-M   'P 1'
_cell_length_a   4.88103872
_cell_length_b   11.00126268
_cell_length_c   13.59203324
_cell_angle_alpha   90.02048278
_cell_angle_beta   89.99209968
_cell_angle_gamma   91.47691449
_symmetry_Int_Tables_number   1
_chemical_formula_structural   Li4MnSn3(PO4)4
_chemical_formula_sum   'Li8 Mn2 Sn6 P8 O32'
_cell_volume   729.61689844
_cell_formula_units_Z   2
loop_
 _symmetry_equiv_pos_site_id
 _symmetry_equiv_pos_as_xyz
  1  'x, y, z'
loop_
 _atom_site_type_symbol
 _atom_site_label
 _atom_site_symmetry_multiplicity
 _atom_site_fract_x
 _atom_site_fract_y
 _atom_site_fract_z
 _atom_site_occupancy
  Li  Li0  1  0.96114700  0.99772600  0.01307100  1
  Li  Li1  1  0.96103100  0.99771200  0.51308300  1
  Li  Li2  1  0.96101700  0.99772400  0.23691000  1
  Li  Li3  1  0.96101700  0.99765900  0.73693100  1
  Li  Li4  1  0.50147600  0.50981800  0.25395700  1
  Li  Li5  1  0.50144600  0.50981100  0.75394700  1
  Li  Li6  1  0.50142700  0.50977100  0.99606100  1
  Li  Li7  1  0.50147000  0.50978000  0.49605600  1
  Mn  Mn0  1  0.04569500  0.72322000  0.87501100  1
  Mn  Mn1  1  0.04590900  0.72329200  0.37509500  1
  Sn  Sn0  1  0.46383400  0.21491400  0.37502600  1
  Sn  Sn1  1  0.46385500  0.21487500  0.87500200  1
  Sn  Sn2  1  0.54163800  0.78571900  0.12483900  1
  Sn  Sn3  1  0.54162600  0.78566900  0.62481700  1
  Sn  Sn4  1  0.95013600  0.29612800  0.12502000  1
  Sn  Sn5  1  0.95020000  0.29607900  0.62500600  1
  P  P0  1  0.09627200  0.58490800  0.12501300  1
  P  P1  1  0.09621000  0.58484900  0.62509500  1
  P  P2  1  0.38231600  0.07268900  0.12502900  1
  P  P3  1  0.38220500  0.07242000  0.62497200  1
  P  P4  1  0.62180200  0.90305700  0.37497500  1
  P  P5  1  0.62180100  0.90302500  0.87498200  1
  P  P6  1  0.91266900  0.43582700  0.37500100  1
  P  P7  1  0.91258000  0.43585100  0.87500400  1
  O  O0  1  0.23936600  0.45694100  0.12500100  1
  O  O1  1  0.23935100  0.45690300  0.62499000  1
  O  O2  1  0.22661700  0.44382500  0.37498700  1
  O  O3  1  0.22640800  0.44393500  0.87502900  1
  O  O4  1  0.30952600  0.88477800  0.37500700  1
  O  O5  1  0.30953500  0.88473200  0.87502600  1
  O  O6  1  0.22570100  0.94601100  0.12507000  1
  O  O7  1  0.22519800  0.94584000  0.62486400  1
  O  O8  1  0.72189900  0.04056200  0.37499700  1
  O  O9  1  0.72188200  0.04054300  0.87500300  1
  O  O10  1  0.69360100  0.05551700  0.12503900  1
  O  O11  1  0.69351300  0.05529900  0.62499900  1
  O  O12  1  0.78339200  0.56726400  0.12501000  1
  O  O13  1  0.78334700  0.56725100  0.62501900  1
  O  O14  1  0.78118200  0.56388700  0.37501100  1
  O  O15  1  0.78104600  0.56388100  0.87500600  1
  O  O16  1  0.21176300  0.65464800  0.03207100  1
  O  O17  1  0.21169000  0.65464000  0.53219300  1
  O  O18  1  0.21174900  0.65471200  0.21793100  1
  O  O19  1  0.21172800  0.65454800  0.71803500  1
  O  O20  1  0.27640200  0.14327700  0.03279700  1
  O  O21  1  0.27638600  0.14316200  0.53278400  1
  O  O22  1  0.27609900  0.14382600  0.21708600  1
  O  O23  1  0.27631600  0.14312600  0.71721600  1
  O  O24  1  0.76186400  0.84287900  0.28429500  1
  O  O25  1  0.76193100  0.84282400  0.78432600  1
  O  O26  1  0.76177400  0.84290400  0.46567200  1
  O  O27  1  0.76179200  0.84291300  0.96569900  1
  O  O28  1  0.78999100  0.36421100  0.28395800  1
  O  O29  1  0.79014800  0.36420500  0.78391500  1
  O  O30  1  0.79006500  0.36422100  0.46604800  1
  O  O31  1  0.78994900  0.36421400  0.96601400  1
loop_
_geom_bond_atom_site_label_1
_geom_bond_atom_site_label_2
_geom_bond_distance
_geom_bond_site_symmetry_2
Li0 O27 2.043543 1_554
Li0 O6 2.085077 1_655
Li0 O10 2.113586 1_565
Li0 O20 2.208276 1_665
Li0 O9 2.266516 1_564
Li1 O26 2.043448 1_555
Li1 O7 2.082230 1_655
Li1 O11 2.112282 1_565
Li1 O21 2.207781 1_665
Li1 O8 2.266461 1_565
Li2 O24 2.043739 1_555
Li2 O6 2.083334 1_655
Li2 O10 2.112833 1_565
Li2 O22 2.212245 1_665
Li2 O8 2.265862 1_565
Li3 O25 2.043543 1_555
Li3 O7 2.084385 1_655
Li3 O11 2.113166 1_565
Li3 O23 2.207838 1_665
Li3 O9 2.265848 1_565
Li4 O28 2.198255 1_555
Li4 O14 2.209761 1_555
Li4 O18 2.213027 1_555
Li4 O2 2.232303 1_555
Li4 O0 2.238062 1_555
Li4 O12 2.306508 1_555
Li5 O29 2.198765 1_555
Li5 O15 2.209498 1_555
Li5 O19 2.211382 1_555
Li5 O3 2.232943 1_555
Li5 O1 2.238114 1_555
Li5 O13 2.306251 1_555
Li6 O31 2.197699 1_555
Li6 O15 2.209662 1_555
Li6 O16 2.212300 1_556
Li6 O3 2.232142 1_555
Li6 O0 2.237679 1_556
Li6 O12 2.306748 1_556
Li7 O30 2.197852 1_555
Li7 O14 2.209830 1_555
Li7 O17 2.212916 1_555
Li7 O2 2.232437 1_555
Li7 O1 2.237902 1_555
Li7 O13 2.306577 1_555
Mn0 O15 2.150509 1_455
Mn0 O5 2.167407 1_555
Mn0 O25 2.294467 1_455
Mn0 O27 2.294775 1_455
Mn0 O19 2.410352 1_555
Mn0 O16 2.411743 1_556
Mn1 O14 2.151310 1_455
Mn1 O4 2.166554 1_555
Mn1 O26 2.294141 1_455
Mn1 O24 2.296046 1_455
Mn1 O18 2.411965 1_555
Mn1 O17 2.412002 1_555
O0 P0 1.587580 1_555
O0 Sn4 2.234759 1_455
O1 P1 1.587479 1_555
O1 Sn5 2.234618 1_455
O2 P6 1.532651 1_455
O3 P7 1.532096 1_455
O4 P4 1.532292 1_555
O5 P5 1.532260 1_555
O6 P2 1.572142 1_565
O6 Sn2 2.372317 1_555
O7 P3 1.572088 1_565
O7 Sn3 2.372909 1_555
O8 P4 1.577643 1_545
O8 Sn0 2.321697 1_555
O9 P5 1.577757 1_545
O9 Sn1 2.321408 1_555
O10 P2 1.535918 1_555
O11 P3 1.535946 1_555
O12 P0 1.534495 1_655
O12 Sn2 2.704511 1_555
O13 P1 1.534362 1_655
O13 Sn3 2.704071 1_555
O14 P6 1.563101 1_555
O15 P7 1.562900 1_555
O16 P0 1.574951 1_555
O16 Sn2 2.478144 1_555
O17 P1 1.574764 1_555
O17 Sn3 2.477077 1_555
O18 P0 1.574687 1_555
O18 Sn2 2.480333 1_555
O19 P1 1.574444 1_555
O19 Sn3 2.481943 1_555
O20 P2 1.569533 1_555
O20 Sn1 2.453787 1_554
O20 Sn4 2.659131 1_455
O21 P3 1.569750 1_555
O21 Sn0 2.453868 1_555
O21 Sn5 2.659354 1_455
O22 P2 1.570633 1_555
O22 Sn0 2.454003 1_555
O22 Sn4 2.654078 1_455
O23 P3 1.569717 1_555
O23 Sn1 2.454079 1_555
O23 Sn5 2.660098 1_455
O24 P4 1.564384 1_555
O24 Sn2 2.492600 1_555
O25 P5 1.564386 1_555
O25 Sn3 2.493377 1_555
O26 P4 1.564771 1_555
O26 Sn3 2.489097 1_555
O27 P5 1.564831 1_555
O27 Sn2 2.488941 1_556
O28 P6 1.576637 1_555
O28 Sn4 2.422277 1_555
O28 Sn0 2.574946 1_555
O29 P7 1.576849 1_555
O29 Sn5 2.421926 1_555
O29 Sn1 2.575695 1_555
O30 P6 1.576806 1_555
O30 Sn5 2.423379 1_555
O30 Sn0 2.574578 1_555
O31 P7 1.576627 1_555
O31 Sn4 2.423849 1_556
O31 Sn1 2.574329 1_555
