# generated using pymatgen
data_KH3(SeO3)2
_symmetry_space_group_name_H-M   'P 1'
_cell_length_a   6.40290200
_cell_length_b   6.47790400
_cell_length_c   16.25214100
_cell_angle_alpha   90.00000000
_cell_angle_beta   90.00000000
_cell_angle_gamma   90.00000000
_symmetry_Int_Tables_number   1
_chemical_formula_structural   KH3(SeO3)2
_chemical_formula_sum   'K4 H12 Se8 O24'
_cell_volume   674.09630084
_cell_formula_units_Z   4
loop_
 _symmetry_equiv_pos_site_id
 _symmetry_equiv_pos_as_xyz
  1  'x, y, z'
loop_
 _atom_site_type_symbol
 _atom_site_label
 _atom_site_symmetry_multiplicity
 _atom_site_fract_x
 _atom_site_fract_y
 _atom_site_fract_z
 _atom_site_occupancy
  K  K0  1  0.81138700  0.75000000  0.50000000  1
  K  K1  1  0.68861300  0.25000000  0.00000000  1
  K  K2  1  0.18861300  0.25000000  0.50000000  1
  K  K3  1  0.31138700  0.75000000  0.00000000  1
  H  H0  1  0.55846300  0.96902600  0.17199100  1
  H  H1  1  0.94153700  0.46902600  0.32800900  1
  H  H2  1  0.94153700  0.03097400  0.67199100  1
  H  H3  1  0.55846300  0.53097400  0.82800900  1
  H  H4  1  0.44153700  0.03097400  0.82800900  1
  H  H5  1  0.05846300  0.53097400  0.67199100  1
  H  H6  1  0.05846300  0.96902600  0.32800900  1
  H  H7  1  0.44153700  0.46902600  0.17199100  1
  H  H8  1  0.87665700  0.75000000  0.00000000  1
  H  H9  1  0.62334300  0.25000000  0.50000000  1
  H  H10  1  0.12334300  0.25000000  0.00000000  1
  H  H11  1  0.37665700  0.75000000  0.50000000  1
  Se  Se0  1  0.80798700  0.70919400  0.15020100  1
  Se  Se1  1  0.69201300  0.20919400  0.34979900  1
  Se  Se2  1  0.69201300  0.29080600  0.65020100  1
  Se  Se3  1  0.80798700  0.79080600  0.84979900  1
  Se  Se4  1  0.19201300  0.29080600  0.84979900  1
  Se  Se5  1  0.30798700  0.79080600  0.65020100  1
  Se  Se6  1  0.30798700  0.70919400  0.34979900  1
  Se  Se7  1  0.19201300  0.20919400  0.15020100  1
  O  O0  1  0.60909200  0.56721900  0.11117900  1
  O  O1  1  0.89090800  0.06721900  0.38882100  1
  O  O2  1  0.89090800  0.43278100  0.61117900  1
  O  O3  1  0.60909200  0.93278100  0.88882100  1
  O  O4  1  0.39090800  0.43278100  0.88882100  1
  O  O5  1  0.10909200  0.93278100  0.61117900  1
  O  O6  1  0.10909200  0.56721900  0.38882100  1
  O  O7  1  0.39090800  0.06721900  0.11117900  1
  O  O8  1  0.88658500  0.85088500  0.06344500  1
  O  O9  1  0.61341500  0.35088500  0.43655500  1
  O  O10  1  0.61341500  0.14911500  0.56344500  1
  O  O11  1  0.88658500  0.64911500  0.93655500  1
  O  O12  1  0.11341500  0.14911500  0.93655500  1
  O  O13  1  0.38658500  0.64911500  0.56344500  1
  O  O14  1  0.38658500  0.85088500  0.43655500  1
  O  O15  1  0.11341500  0.35088500  0.06344500  1
  O  O16  1  0.67852900  0.90859100  0.20686500  1
  O  O17  1  0.82147100  0.40859100  0.29313500  1
  O  O18  1  0.82147100  0.09140900  0.70686500  1
  O  O19  1  0.67852900  0.59140900  0.79313500  1
  O  O20  1  0.32147100  0.09140900  0.79313500  1
  O  O21  1  0.17852900  0.59140900  0.70686500  1
  O  O22  1  0.17852900  0.90859100  0.29313500  1
  O  O23  1  0.32147100  0.40859100  0.20686500  1
loop_
_geom_bond_atom_site_label_1
_geom_bond_atom_site_label_2
_geom_bond_distance
_geom_bond_site_symmetry_2
K0 O2 2.783307 1_555
K0 O1 2.783307 1_565
K0 O5 2.881029 1_655
K0 O6 2.881029 1_655
K0 O13 2.981360 1_555
K0 O14 2.981360 1_555
K0 O10 3.058503 1_565
K0 O9 3.058503 1_555
K1 O0 2.783307 1_555
K1 O3 2.783307 1_544
K1 O4 2.881029 1_554
K1 O7 2.881029 1_555
K1 O15 2.981360 1_655
K1 O12 2.981360 1_654
K1 O8 3.058503 1_545
K1 O11 3.058503 1_554
K2 O5 2.783307 1_545
K2 O6 2.783307 1_555
K2 O2 2.881029 1_455
K2 O1 2.881029 1_455
K2 O10 2.981360 1_555
K2 O9 2.981360 1_555
K2 O13 3.058503 1_555
K2 O14 3.058503 1_545
K3 O7 2.783307 1_565
K3 O4 2.783307 1_554
K3 O0 2.881029 1_555
K3 O3 2.881029 1_554
K3 O8 2.981360 1_455
K3 O11 2.981360 1_454
K3 O15 3.058503 1_555
K3 O12 3.058503 1_564
H0 O16 1.032236 1_555
H0 O7 1.591343 1_565
H1 O17 1.032236 1_555
H1 O6 1.591343 1_655
H2 O18 1.032236 1_555
H2 O5 1.591343 1_645
H3 O19 1.032236 1_555
H3 O4 1.591343 1_555
H4 O20 1.032236 1_555
H4 O3 1.591343 1_545
H5 O21 1.032236 1_555
H5 O2 1.591343 1_455
H6 O22 1.032236 1_555
H6 O1 1.591343 1_465
H7 O23 1.032236 1_555
H7 O0 1.591343 1_555
H8 O8 1.222430 1_555
H8 O11 1.222430 1_554
H8 K3 2.783534 1_655
H9 O10 1.222430 1_555
H9 O9 1.222430 1_555
H9 K2 2.783534 1_555
H10 O15 1.222430 1_555
H10 O12 1.222430 1_554
H10 K1 2.783534 1_455
H11 O13 1.222430 1_555
H11 O14 1.222430 1_555
H11 K0 2.783534 1_555
O0 Se0 1.694067 1_555
O1 Se1 1.694067 1_555
O2 Se2 1.694067 1_555
O3 Se3 1.694067 1_555
O4 Se4 1.694067 1_555
O5 Se5 1.694067 1_555
O6 Se6 1.694067 1_555
O7 Se7 1.694067 1_555
O8 Se0 1.756061 1_555
O9 Se1 1.756061 1_555
O10 Se2 1.756061 1_555
O11 Se3 1.756061 1_555
O12 Se4 1.756061 1_555
O13 Se5 1.756061 1_555
O14 Se6 1.756061 1_555
O15 Se7 1.756061 1_555
O16 Se0 1.789857 1_555
O17 Se1 1.789857 1_555
O18 Se2 1.789857 1_555
O19 Se3 1.789857 1_555
O20 Se4 1.789857 1_555
O21 Se5 1.789857 1_555
O22 Se6 1.789857 1_555
O23 Se7 1.789857 1_555
