# generated using pymatgen
data_LiFe2OF3
_symmetry_space_group_name_H-M   'P 1'
_cell_length_a   8.25902675
_cell_length_b   8.25902675
_cell_length_c   8.25902675
_cell_angle_alpha   136.45994484
_cell_angle_beta   115.28639689
_cell_angle_gamma   81.25505571
_symmetry_Int_Tables_number   1
_chemical_formula_structural   LiFe2OF3
_chemical_formula_sum   'Li4 Fe8 O4 F12'
_cell_volume   339.47559129
_cell_formula_units_Z   4
loop_
 _symmetry_equiv_pos_site_id
 _symmetry_equiv_pos_as_xyz
  1  'x, y, z'
loop_
 _atom_site_type_symbol
 _atom_site_label
 _atom_site_symmetry_multiplicity
 _atom_site_fract_x
 _atom_site_fract_y
 _atom_site_fract_z
 _atom_site_occupancy
  Li  Li0  1  0.28036400  0.13478600  0.14557800  1
  Li  Li1  1  0.01079200  0.86521400  0.14557800  1
  Li  Li2  1  0.49346800  0.62883900  0.86462900  1
  Li  Li3  1  0.23579000  0.37116100  0.86462900  1
  Fe  Fe0  1  0.02330500  0.50000000  0.52330500  1
  Fe  Fe1  1  0.23209700  0.74801200  0.48408500  1
  Fe  Fe2  1  0.73607200  0.25198800  0.48408500  1
  Fe  Fe3  1  0.63022100  0.62250400  0.49059900  1
  Fe  Fe4  1  0.86809400  0.37749600  0.00771700  1
  Fe  Fe5  1  0.63022100  0.13962200  0.00771700  1
  Fe  Fe6  1  0.86809400  0.86037800  0.49059900  1
  Fe  Fe7  1  0.48274900  0.00000000  0.48274900  1
  O  O0  1  0.79030100  0.50000000  0.29030100  1
  O  O1  1  0.99622800  0.73175200  0.26447500  1
  O  O2  1  0.53272300  0.26824800  0.26447500  1
  O  O3  1  0.71763700  0.00000000  0.71763700  1
  F  F0  1  0.25818000  0.00000000  0.25818000  1
  F  F1  1  0.13019800  0.87534000  0.75623500  1
  F  F2  1  0.88089500  0.12466000  0.25485800  1
  F  F3  1  0.88089500  0.62603800  0.75623500  1
  F  F4  1  0.13019800  0.37396200  0.25485800  1
  F  F5  1  0.96659000  0.24216800  0.72442200  1
  F  F6  1  0.48225400  0.75783200  0.72442200  1
  F  F7  1  0.62482500  0.88183700  0.25297500  1
  F  F8  1  0.37113800  0.62815000  0.25297500  1
  F  F9  1  0.62482500  0.37185000  0.74298800  1
  F  F10  1  0.37113800  0.11816300  0.74298800  1
  F  F11  1  0.25069600  0.50000000  0.75069600  1
loop_
_geom_bond_atom_site_label_1
_geom_bond_atom_site_label_2
_geom_bond_distance
_geom_bond_site_symmetry_2
Li0 O2 1.975906 1_555
Li1 O1 1.975903 1_455
Fe0 O0 2.059825 1_455
Fe1 O1 1.952085 1_455
Fe2 O2 1.952086 1_555
Fe3 O2 2.050956 1_555
Fe3 O0 2.131515 1_555
Fe3 O3 2.193158 1_565
Fe4 O1 2.050961 1_555
Fe4 O0 2.131509 1_555
Fe4 O3 2.193156 1_554
Fe5 O2 2.050956 1_555
Fe5 O0 2.131515 1_555
Fe5 O3 2.193158 1_554
Fe6 O1 2.050969 1_555
Fe6 O0 2.131514 1_555
Fe6 O3 2.193151 1_565
Fe7 O3 2.076480 1_555
F0 Li1 1.961157 1_545
F0 Li0 1.961157 1_555
F0 Fe7 1.985257 1_555
F1 Li0 1.970119 1_566
F1 Fe1 2.187765 1_555
F1 Fe0 2.196653 1_555
F1 Fe6 2.268395 1_455
F2 Li1 1.970119 1_645
F2 Fe2 2.187772 1_555
F2 Fe0 2.196653 1_655
F2 Fe5 2.268390 1_555
F3 Li1 1.970120 1_656
F3 Fe2 2.187774 1_555
F3 Fe0 2.196651 1_655
F3 Fe3 2.268386 1_555
F4 Li0 1.970115 1_555
F4 Fe1 2.187772 1_555
F4 Fe0 2.196651 1_555
F4 Fe4 2.268399 1_455
F5 Li3 2.037493 1_655
F5 Fe2 2.128218 1_555
F5 Fe6 2.223410 1_545
F5 Fe4 2.223414 1_556
F6 Li2 2.037493 1_555
F6 Fe1 2.128214 1_555
F6 Fe5 2.223408 1_566
F6 Fe3 2.223408 1_555
F7 Li2 1.957217 1_554
F7 Fe2 2.174711 1_565
F7 Fe7 2.190823 1_565
F7 Fe6 2.224232 1_555
F8 Li3 1.957217 1_554
F8 Fe1 2.174714 1_555
F8 Fe7 2.190823 1_565
F8 Fe3 2.224236 1_555
F9 Li2 1.957217 1_555
F9 Fe2 2.174707 1_555
F9 Fe7 2.190823 1_555
F9 Fe4 2.224232 1_556
F10 Li3 1.957217 1_555
F10 Fe1 2.174714 1_545
F10 Fe7 2.190823 1_555
F10 Fe5 2.224236 1_556
F11 Li2 1.903497 1_555
F11 Li3 1.903497 1_555
F11 Fe0 2.010204 1_555
