# generated using pymatgen
data_K2H2C2S2N2O
_symmetry_space_group_name_H-M   'P 1'
_cell_length_a   8.11829500
_cell_length_b   9.88007500
_cell_length_c   10.36120500
_cell_angle_alpha   90.00000000
_cell_angle_beta   90.00000000
_cell_angle_gamma   90.00000000
_symmetry_Int_Tables_number   1
_chemical_formula_structural   K2H2C2S2N2O
_chemical_formula_sum   'K8 H8 C8 S8 N8 O4'
_cell_volume   831.06565785
_cell_formula_units_Z   4
loop_
 _symmetry_equiv_pos_site_id
 _symmetry_equiv_pos_as_xyz
  1  'x, y, z'
loop_
 _atom_site_type_symbol
 _atom_site_label
 _atom_site_symmetry_multiplicity
 _atom_site_fract_x
 _atom_site_fract_y
 _atom_site_fract_z
 _atom_site_occupancy
  K  K0  1  0.49891600  0.76653700  0.66587200  1
  K  K1  1  0.00108400  0.73346300  0.16587200  1
  K  K2  1  0.99891600  0.23346300  0.33412800  1
  K  K3  1  0.50108400  0.26653700  0.83412800  1
  K  K4  1  0.50108400  0.23346300  0.33412800  1
  K  K5  1  0.99891600  0.26653700  0.83412800  1
  K  K6  1  0.00108400  0.76653700  0.66587200  1
  K  K7  1  0.49891600  0.73346300  0.16587200  1
  H  H0  1  0.25000000  0.49069400  0.99479800  1
  H  H1  1  0.25000000  0.00930600  0.49479800  1
  H  H2  1  0.75000000  0.50930600  0.00520200  1
  H  H3  1  0.75000000  0.99069400  0.50520200  1
  H  H4  1  0.25000000  0.33857300  0.04499600  1
  H  H5  1  0.25000000  0.16142700  0.54499600  1
  H  H6  1  0.75000000  0.66142700  0.95500400  1
  H  H7  1  0.75000000  0.83857300  0.45500400  1
  C  C0  1  0.25000000  0.61308900  0.43298600  1
  C  C1  1  0.25000000  0.88691100  0.93298600  1
  C  C2  1  0.75000000  0.38691100  0.56701400  1
  C  C3  1  0.75000000  0.11308900  0.06701400  1
  C  C4  1  0.25000000  0.44379500  0.58994500  1
  C  C5  1  0.25000000  0.05620500  0.08994500  1
  C  C6  1  0.75000000  0.55620500  0.41005500  1
  C  C7  1  0.75000000  0.94379500  0.91005500  1
  S  S0  1  0.25000000  0.50290900  0.30417100  1
  S  S1  1  0.25000000  0.99709100  0.80417100  1
  S  S2  1  0.75000000  0.49709100  0.69582900  1
  S  S3  1  0.75000000  0.00290900  0.19582900  1
  S  S4  1  0.25000000  0.78545700  0.40667700  1
  S  S5  1  0.25000000  0.71454300  0.90667700  1
  S  S6  1  0.75000000  0.21454300  0.59332300  1
  S  S7  1  0.75000000  0.28545700  0.09332300  1
  N  N0  1  0.25000000  0.57075200  0.55814800  1
  N  N1  1  0.25000000  0.92924800  0.05814800  1
  N  N2  1  0.75000000  0.42924800  0.44185200  1
  N  N3  1  0.75000000  0.07075200  0.94185200  1
  N  N4  1  0.25000000  0.33151600  0.63139300  1
  N  N5  1  0.25000000  0.16848400  0.13139300  1
  N  N6  1  0.75000000  0.66848400  0.36860700  1
  N  N7  1  0.75000000  0.83151600  0.86860700  1
  O  O0  1  0.25000000  0.39587100  0.96674200  1
  O  O1  1  0.25000000  0.10412900  0.46674200  1
  O  O2  1  0.75000000  0.60412900  0.03325800  1
  O  O3  1  0.75000000  0.89587100  0.53325800  1
loop_
_geom_bond_atom_site_label_1
_geom_bond_atom_site_label_2
_geom_bond_distance
_geom_bond_site_symmetry_2
K0 O3 2.770524 1_555
K0 N7 2.996592 1_555
K0 N0 3.011828 1_555
K0 S5 3.251552 1_555
K0 S1 3.365359 1_555
K0 S4 3.366121 1_555
K0 S2 3.367245 1_555
K1 O2 2.770524 1_455
K1 N6 2.996592 1_455
K1 N1 3.011828 1_555
K1 S4 3.251552 1_555
K1 S0 3.365359 1_555
K1 S5 3.366121 1_554
K1 S3 3.367245 1_465
K2 O1 2.770524 1_655
K2 N5 2.996592 1_655
K2 N2 3.011828 1_555
K2 S7 3.251552 1_555
K2 S3 3.365359 1_555
K2 S6 3.366121 1_555
K2 S0 3.367245 1_655
K3 O0 2.770524 1_555
K3 N4 2.996592 1_555
K3 N3 3.011828 1_555
K3 S6 3.251552 1_555
K3 S2 3.365359 1_555
K3 S7 3.366121 1_556
K3 S1 3.367245 1_545
K4 O1 2.770524 1_555
K4 N5 2.996592 1_555
K4 N2 3.011828 1_555
K4 S7 3.251552 1_555
K4 S3 3.365359 1_555
K4 S6 3.366121 1_555
K4 S0 3.367245 1_555
K5 O0 2.770524 1_655
K5 N4 2.996592 1_655
K5 N3 3.011828 1_555
K5 S6 3.251552 1_555
K5 S2 3.365359 1_555
K5 S7 3.366121 1_556
K5 S1 3.367245 1_645
K6 O3 2.770524 1_455
K6 N7 2.996592 1_455
K6 N0 3.011828 1_555
K6 S5 3.251552 1_555
K6 S1 3.365359 1_555
K6 S4 3.366121 1_555
K6 S2 3.367245 1_455
K7 O2 2.770524 1_555
K7 N6 2.996592 1_555
K7 N1 3.011828 1_555
K7 S4 3.251552 1_555
K7 S0 3.365359 1_555
K7 S5 3.366121 1_554
K7 S3 3.367245 1_565
H0 O0 0.980921 1_555
H1 O1 0.980921 1_555
H2 O2 0.980921 1_555
H3 O3 0.980921 1_555
H4 O0 0.988881 1_554
H5 O1 0.988881 1_555
H6 O2 0.988881 1_556
H7 O3 0.988881 1_555
C0 N0 1.362621 1_555
C0 S0 1.722321 1_555
C0 S4 1.724687 1_555
C1 N1 1.362621 1_556
C1 S1 1.722321 1_555
C1 S5 1.724687 1_555
C2 N2 1.362621 1_555
C2 S2 1.722321 1_555
C2 S6 1.724687 1_555
C3 N3 1.362621 1_554
C3 S3 1.722321 1_555
C3 S7 1.724687 1_555
C4 N4 1.189550 1_555
C4 N0 1.296889 1_555
C5 N5 1.189550 1_555
C5 N1 1.296889 1_545
C6 N6 1.189550 1_555
C6 N2 1.296889 1_555
C7 N7 1.189550 1_555
C7 N3 1.296889 1_565
