# generated using pymatgen
data_Zr2N2O
_symmetry_space_group_name_H-M   'P 1'
_cell_length_a   6.74049768
_cell_length_b   6.74049768
_cell_length_c   12.15906667
_cell_angle_alpha   63.33206898
_cell_angle_beta   63.33206898
_cell_angle_gamma   30.15173738
_symmetry_Int_Tables_number   1
_chemical_formula_structural   Zr2N2O
_chemical_formula_sum   'Zr8 N8 O4'
_cell_volume   245.68751983
_cell_formula_units_Z   4
loop_
 _symmetry_equiv_pos_site_id
 _symmetry_equiv_pos_as_xyz
  1  'x, y, z'
loop_
 _atom_site_type_symbol
 _atom_site_label
 _atom_site_symmetry_multiplicity
 _atom_site_fract_x
 _atom_site_fract_y
 _atom_site_fract_z
 _atom_site_occupancy
  Zr  Zr0  1  0.36859000  0.36859000  0.65049800  1
  Zr  Zr1  1  0.88101900  0.88101900  0.39284200  1
  Zr  Zr2  1  0.63125700  0.63125700  0.85020500  1
  Zr  Zr3  1  0.87660100  0.87660100  0.90031600  1
  Zr  Zr4  1  0.12494900  0.12494900  0.59657000  1
  Zr  Zr5  1  0.12329900  0.12329900  0.11209000  1
  Zr  Zr6  1  0.37743400  0.37743400  0.13799300  1
  Zr  Zr7  1  0.62332600  0.62332600  0.35608900  1
  N  N0  1  0.68465200  0.68465200  0.49116200  1
  N  N1  1  0.18263000  0.18263000  0.24453900  1
  N  N2  1  0.31786700  0.31786700  0.00354400  1
  N  N3  1  0.82209200  0.82209200  0.76102400  1
  N  N4  1  0.99467200  0.99467200  0.50014300  1
  N  N5  1  0.17492900  0.17492900  0.74049600  1
  N  N6  1  0.49720300  0.49720300  0.25316400  1
  N  N7  1  0.99676400  0.99676400  0.00434600  1
  O  O0  1  0.82469000  0.82469000  0.25418400  1
  O  O1  1  0.50010100  0.50010100  0.74775900  1
  O  O2  1  0.67461300  0.67461300  0.99901600  1
  O  O3  1  0.32254700  0.32254700  0.50402200  1
loop_
_geom_bond_atom_site_label_1
_geom_bond_atom_site_label_2
_geom_bond_distance
_geom_bond_site_symmetry_2
N0 Zr4 2.096268 1_655
N0 Zr4 2.096268 1_565
N0 Zr7 2.133873 1_555
N0 Zr1 2.263210 1_555
N1 Zr5 2.084776 1_555
N1 Zr7 2.129764 1_545
N1 Zr7 2.129764 1_455
N1 Zr6 2.248222 1_555
N2 Zr3 2.083631 1_454
N2 Zr3 2.083631 1_544
N2 Zr6 2.109998 1_555
N2 Zr5 2.246992 1_555
N3 Zr3 2.118751 1_555
N3 Zr0 2.118936 1_655
N3 Zr0 2.118936 1_565
N3 Zr2 2.200563 1_555
N4 Zr1 2.384373 1_555
N4 Zr4 2.469582 1_665
N4 Zr7 2.493855 1_565
N4 Zr7 2.493855 1_655
N4 Zr0 2.513997 1_655
N4 Zr0 2.513997 1_565
N5 Zr2 2.114550 1_455
N5 Zr2 2.114550 1_545
N5 Zr4 2.131715 1_555
N5 Zr0 2.233354 1_555
N6 Zr1 2.420235 1_455
N6 Zr1 2.420235 1_545
N6 Zr5 2.468357 1_565
N6 Zr5 2.468357 1_655
N6 Zr7 2.484256 1_555
N6 Zr6 2.534015 1_555
N7 Zr6 2.404290 1_655
N7 Zr6 2.404290 1_565
N7 Zr3 2.426087 1_554
N7 Zr5 2.536773 1_665
N7 Zr2 2.569238 1_564
N7 Zr2 2.569238 1_654
O0 Zr1 2.128210 1_555
O0 Zr6 2.153895 1_565
O0 Zr6 2.153895 1_655
O0 Zr7 2.320883 1_555
O1 Zr0 2.492208 1_555
O1 Zr4 2.513339 1_655
O1 Zr4 2.513339 1_565
O1 Zr3 2.515295 1_545
O1 Zr3 2.515295 1_455
O1 Zr2 2.538380 1_555
O2 Zr2 2.131140 1_555
O2 Zr5 2.134568 1_656
O2 Zr5 2.134568 1_566
O2 Zr3 2.328087 1_555
O3 Zr0 2.126861 1_555
O3 Zr1 2.126957 1_545
O3 Zr1 2.126957 1_455
O3 Zr4 2.278470 1_555
