# generated using pymatgen
data_V4OF12
_symmetry_space_group_name_H-M   'P 1'
_cell_length_a   8.08884749
_cell_length_b   3.92096399
_cell_length_c   8.43752788
_cell_angle_alpha   88.52990884
_cell_angle_beta   79.39981181
_cell_angle_gamma   76.78031294
_symmetry_Int_Tables_number   1
_chemical_formula_structural   V4OF12
_chemical_formula_sum   'V4 O1 F12'
_cell_volume   256.03046354
_cell_formula_units_Z   1
loop_
 _symmetry_equiv_pos_site_id
 _symmetry_equiv_pos_as_xyz
  1  'x, y, z'
loop_
 _atom_site_type_symbol
 _atom_site_label
 _atom_site_symmetry_multiplicity
 _atom_site_fract_x
 _atom_site_fract_y
 _atom_site_fract_z
 _atom_site_occupancy
  V  V0  1  0.17303600  0.92997600  0.63547100  1
  V  V1  1  0.21218500  0.90013200  0.00195800  1
  V  V2  1  0.79943700  0.07766000  0.37825200  1
  V  V3  1  0.80958800  0.10524400  0.97715200  1
  O  O0  1  0.02588500  0.99996000  0.85847300  1
  F  F0  1  0.20155000  0.40498200  0.00681100  1
  F  F1  1  0.16787200  0.43284500  0.64268700  1
  F  F2  1  0.37123000  0.81815100  0.12499700  1
  F  F3  1  0.33528000  0.86531900  0.46236900  1
  F  F4  1  0.34433300  0.84397800  0.78524800  1
  F  F5  1  0.67014600  0.15675900  0.18773200  1
  F  F6  1  0.61452600  0.13302600  0.53591000  1
  F  F7  1  0.65577800  0.19669200  0.84997700  1
  F  F8  1  0.82884300  0.56374700  0.36089100  1
  F  F9  1  0.99214400  0.99727100  0.16323900  1
  F  F10  1  0.80607600  0.60589100  0.99177100  1
  F  F11  1  0.97787100  0.01015500  0.53103600  1
loop_
_geom_bond_atom_site_label_1
_geom_bond_atom_site_label_2
_geom_bond_distance
_geom_bond_site_symmetry_2
O0 V3 1.811219 1_465
O0 V0 2.021278 1_555
O0 V1 2.065655 1_556
F0 V1 1.961983 1_555
F0 V1 1.962771 1_545
F1 V0 1.958360 1_555
F1 V0 1.964874 1_545
F2 V1 1.766702 1_555
F3 V0 1.755397 1_555
F4 V1 1.930908 1_556
F4 V0 2.009801 1_555
F5 V3 1.909670 1_554
F5 V2 2.053927 1_555
F6 V2 1.785535 1_555
F7 V3 1.759340 1_555
F8 V2 1.972513 1_555
F8 V2 1.980280 1_565
F9 V1 1.997567 1_655
F9 V2 2.141166 1_565
F9 V3 2.314738 1_564
F10 V3 1.963439 1_555
F10 V3 1.965027 1_565
F11 V0 1.907367 1_645
F11 V2 2.075422 1_555
