# generated using pymatgen
data_LiFeF3
_symmetry_space_group_name_H-M   'P 1'
_cell_length_a   5.65255300
_cell_length_b   9.13832400
_cell_length_c   19.70490600
_cell_angle_alpha   90.00000000
_cell_angle_beta   90.00000000
_cell_angle_gamma   90.00000000
_symmetry_Int_Tables_number   1
_chemical_formula_structural   LiFeF3
_chemical_formula_sum   'Li16 Fe16 F48'
_cell_volume   1017.85417535
_cell_formula_units_Z   16
loop_
 _symmetry_equiv_pos_site_id
 _symmetry_equiv_pos_as_xyz
  1  'x, y, z'
loop_
 _atom_site_type_symbol
 _atom_site_label
 _atom_site_symmetry_multiplicity
 _atom_site_fract_x
 _atom_site_fract_y
 _atom_site_fract_z
 _atom_site_occupancy
  Li  Li0  1  0.17446300  0.33455000  0.03208400  1
  Li  Li1  1  0.67446300  0.16545000  0.03208400  1
  Li  Li2  1  0.96450100  0.33552800  0.22696400  1
  Li  Li3  1  0.46450100  0.16447200  0.22696400  1
  Li  Li4  1  0.96450100  0.83552800  0.27303600  1
  Li  Li5  1  0.46450100  0.66447200  0.27303600  1
  Li  Li6  1  0.17446300  0.83455000  0.46791600  1
  Li  Li7  1  0.67446300  0.66545000  0.46791600  1
  Li  Li8  1  0.32553700  0.33455000  0.53208400  1
  Li  Li9  1  0.82553700  0.16545000  0.53208400  1
  Li  Li10  1  0.53549900  0.33552800  0.72696400  1
  Li  Li11  1  0.03549900  0.16447200  0.72696400  1
  Li  Li12  1  0.53549900  0.83552800  0.77303600  1
  Li  Li13  1  0.03549900  0.66447200  0.77303600  1
  Li  Li14  1  0.32553700  0.83455000  0.96791600  1
  Li  Li15  1  0.82553700  0.66545000  0.96791600  1
  Fe  Fe0  1  0.16678500  0.03204700  0.12121900  1
  Fe  Fe1  1  0.66678500  0.46795300  0.12121900  1
  Fe  Fe2  1  0.16338100  0.65816000  0.12192300  1
  Fe  Fe3  1  0.66338100  0.84184000  0.12192300  1
  Fe  Fe4  1  0.66338100  0.34184000  0.37807700  1
  Fe  Fe5  1  0.16338100  0.15816000  0.37807700  1
  Fe  Fe6  1  0.66678500  0.96795300  0.37878100  1
  Fe  Fe7  1  0.16678500  0.53204700  0.37878100  1
  Fe  Fe8  1  0.83321500  0.46795300  0.62121900  1
  Fe  Fe9  1  0.33321500  0.03204700  0.62121900  1
  Fe  Fe10  1  0.83661900  0.84184000  0.62192300  1
  Fe  Fe11  1  0.33661900  0.65816000  0.62192300  1
  Fe  Fe12  1  0.83661900  0.34184000  0.87807700  1
  Fe  Fe13  1  0.33661900  0.15816000  0.87807700  1
  Fe  Fe14  1  0.83321500  0.96795300  0.87878100  1
  Fe  Fe15  1  0.33321500  0.53204700  0.87878100  1
  F  F0  1  0.34682300  0.16333600  0.05325700  1
  F  F1  1  0.84682300  0.33666400  0.05325700  1
  F  F2  1  0.31698100  0.83069600  0.06884600  1
  F  F3  1  0.81698100  0.66930400  0.06884600  1
  F  F4  1  0.35038500  0.49214400  0.07111700  1
  F  F5  1  0.85038500  0.00785600  0.07111700  1
  F  F6  1  0.99474200  0.84176100  0.17574600  1
  F  F7  1  0.49474200  0.65823900  0.17574600  1
  F  F8  1  0.48291900  0.98323800  0.17817300  1
  F  F9  1  0.98291900  0.51676200  0.17817300  1
  F  F10  1  0.15179300  0.18575600  0.19384500  1
  F  F11  1  0.65179300  0.31424400  0.19384500  1
  F  F12  1  0.65179300  0.81424400  0.30615500  1
  F  F13  1  0.15179300  0.68575600  0.30615500  1
  F  F14  1  0.48291900  0.48323800  0.32182700  1
  F  F15  1  0.98291900  0.01676200  0.32182700  1
  F  F16  1  0.99474200  0.34176100  0.32425400  1
  F  F17  1  0.49474200  0.15823900  0.32425400  1
  F  F18  1  0.35038500  0.99214400  0.42888300  1
  F  F19  1  0.85038500  0.50785600  0.42888300  1
  F  F20  1  0.31698100  0.33069600  0.43115400  1
  F  F21  1  0.81698100  0.16930400  0.43115400  1
  F  F22  1  0.84682300  0.83666400  0.44674300  1
  F  F23  1  0.34682300  0.66333600  0.44674300  1
  F  F24  1  0.65317700  0.33666400  0.55325700  1
  F  F25  1  0.15317700  0.16333600  0.55325700  1
  F  F26  1  0.18301900  0.83069600  0.56884600  1
  F  F27  1  0.68301900  0.66930400  0.56884600  1
  F  F28  1  0.14961500  0.49214400  0.57111700  1
  F  F29  1  0.64961500  0.00785600  0.57111700  1
  F  F30  1  0.50525800  0.84176100  0.67574600  1
  F  F31  1  0.00525800  0.65823900  0.67574600  1
  F  F32  1  0.01708100  0.98323800  0.67817300  1
  F  F33  1  0.51708100  0.51676200  0.67817300  1
  F  F34  1  0.84820700  0.31424400  0.69384500  1
  F  F35  1  0.34820700  0.18575600  0.69384500  1
  F  F36  1  0.84820700  0.81424400  0.80615500  1
  F  F37  1  0.34820700  0.68575600  0.80615500  1
  F  F38  1  0.01708100  0.48323800  0.82182700  1
  F  F39  1  0.51708100  0.01676200  0.82182700  1
  F  F40  1  0.50525800  0.34176100  0.82425400  1
  F  F41  1  0.00525800  0.15823900  0.82425400  1
  F  F42  1  0.14961500  0.99214400  0.92888300  1
  F  F43  1  0.64961500  0.50785600  0.92888300  1
  F  F44  1  0.18301900  0.33069600  0.93115400  1
  F  F45  1  0.68301900  0.16930400  0.93115400  1
  F  F46  1  0.65317700  0.83666400  0.94674300  1
  F  F47  1  0.15317700  0.66333600  0.94674300  1
loop_
_geom_bond_atom_site_label_1
_geom_bond_atom_site_label_2
_geom_bond_distance
_geom_bond_site_symmetry_2
F0 Li0 1.889782 1_555
F0 Li1 1.898513 1_555
F0 Fe0 2.066036 1_555
F1 Li1 1.889782 1_555
F1 Li0 1.898513 1_655
F1 Fe1 2.066036 1_555
F2 Li14 1.989716 1_554
F2 Fe2 2.081739 1_555
F2 Fe3 2.222199 1_555
F2 Fe0 2.274084 1_565
F3 Li15 1.989716 1_554
F3 Fe3 2.081739 1_555
F3 Fe2 2.222199 1_655
F3 Fe1 2.274084 1_555
F4 Li0 1.911660 1_555
F4 Fe1 2.054789 1_555
F4 Fe2 2.102672 1_555
F5 Li1 1.911660 1_555
F5 Fe0 2.054789 1_655
F5 Fe3 2.102672 1_545
F6 Li4 1.925539 1_555
F6 Fe3 2.152461 1_555
F6 Fe2 2.201936 1_655
F6 Fe0 2.263608 1_665
F7 Li5 1.925539 1_555
F7 Fe2 2.152461 1_555
F7 Fe3 2.201936 1_555
F7 Fe1 2.263608 1_555
F8 Li3 1.917834 1_565
F8 Fe3 1.984622 1_555
F8 Fe0 2.156776 1_565
F9 Li2 1.917834 1_555
F9 Fe2 1.984622 1_655
F9 Fe1 2.156776 1_555
F10 Li2 1.849308 1_455
F10 Li3 1.894236 1_555
F10 Fe0 2.007042 1_555
F11 Li3 1.849308 1_555
F11 Li2 1.894236 1_555
F11 Fe1 2.007042 1_555
F12 Li5 1.849308 1_555
F12 Li4 1.894236 1_555
F12 Fe6 2.007042 1_555
F13 Li4 1.849308 1_455
F13 Li5 1.894236 1_555
F13 Fe7 2.007042 1_555
F14 Li5 1.917834 1_555
F14 Fe4 1.984622 1_555
F14 Fe7 2.156776 1_555
F15 Li4 1.917834 1_545
F15 Fe5 1.984622 1_655
F15 Fe6 2.156776 1_545
F16 Li2 1.925539 1_555
F16 Fe4 2.152461 1_555
F16 Fe5 2.201936 1_655
F16 Fe7 2.263608 1_655
F17 Li3 1.925539 1_555
F17 Fe5 2.152461 1_555
F17 Fe4 2.201936 1_555
F17 Fe6 2.263608 1_545
F18 Li6 1.911660 1_555
F18 Fe6 2.054789 1_555
F18 Fe5 2.102672 1_565
F19 Li7 1.911660 1_555
F19 Fe7 2.054789 1_655
F19 Fe4 2.102672 1_555
F20 Li8 1.989716 1_555
F20 Fe5 2.081739 1_555
F20 Fe4 2.222199 1_555
F20 Fe7 2.274084 1_555
F21 Li9 1.989716 1_555
F21 Fe4 2.081739 1_555
F21 Fe5 2.222199 1_655
F21 Fe6 2.274084 1_545
F22 Li7 1.889782 1_555
F22 Li6 1.898513 1_655
F22 Fe6 2.066036 1_555
F23 Li6 1.889782 1_555
F23 Li7 1.898513 1_555
F23 Fe7 2.066036 1_555
F24 Li9 1.889782 1_555
F24 Li8 1.898513 1_555
F24 Fe8 2.066036 1_555
F25 Li8 1.889782 1_555
F25 Li9 1.898513 1_455
F25 Fe9 2.066036 1_555
F26 Li6 1.989716 1_555
F26 Fe11 2.081739 1_555
F26 Fe10 2.222199 1_455
F26 Fe9 2.274084 1_565
F27 Li7 1.989716 1_555
F27 Fe10 2.081739 1_555
F27 Fe11 2.222199 1_555
F27 Fe8 2.274084 1_555
F28 Li8 1.911660 1_555
F28 Fe8 2.054789 1_455
F28 Fe11 2.102672 1_555
F29 Li9 1.911660 1_555
F29 Fe9 2.054789 1_555
F29 Fe10 2.102672 1_545
F30 Li12 1.925539 1_555
F30 Fe10 2.152461 1_555
F30 Fe11 2.201936 1_555
F30 Fe9 2.263608 1_565
F31 Li13 1.925539 1_555
F31 Fe11 2.152461 1_555
F31 Fe10 2.201936 1_455
F31 Fe8 2.263608 1_455
F32 Li11 1.917834 1_565
F32 Fe10 1.984622 1_455
F32 Fe9 2.156776 1_565
F33 Li10 1.917834 1_555
F33 Fe11 1.984622 1_555
F33 Fe8 2.156776 1_555
F34 Li11 1.849308 1_655
F34 Li10 1.894236 1_555
F34 Fe8 2.007042 1_555
F35 Li10 1.849308 1_555
F35 Li11 1.894236 1_555
F35 Fe9 2.007042 1_555
F36 Li13 1.849308 1_655
F36 Li12 1.894236 1_555
F36 Fe14 2.007042 1_555
F37 Li12 1.849308 1_555
F37 Li13 1.894236 1_555
F37 Fe15 2.007042 1_555
F38 Li13 1.917834 1_555
F38 Fe12 1.984622 1_455
F38 Fe15 2.156776 1_555
F39 Li12 1.917834 1_545
F39 Fe13 1.984622 1_555
F39 Fe14 2.156776 1_545
F40 Li10 1.925539 1_555
F40 Fe12 2.152461 1_555
F40 Fe13 2.201936 1_555
F40 Fe15 2.263608 1_555
F41 Li11 1.925539 1_555
F41 Fe13 2.152461 1_555
F41 Fe12 2.201936 1_455
F41 Fe14 2.263608 1_445
F42 Li14 1.911660 1_555
F42 Fe14 2.054789 1_455
F42 Fe13 2.102672 1_565
F43 Li15 1.911660 1_555
F43 Fe15 2.054789 1_555
F43 Fe12 2.102672 1_555
F44 Li0 1.989716 1_556
F44 Fe13 2.081739 1_555
F44 Fe12 2.222199 1_455
F44 Fe15 2.274084 1_555
F45 Li1 1.989716 1_556
F45 Fe12 2.081739 1_555
F45 Fe13 2.222199 1_555
F45 Fe14 2.274084 1_545
F46 Li15 1.889782 1_555
F46 Li14 1.898513 1_555
F46 Fe14 2.066036 1_555
F47 Li14 1.889782 1_555
F47 Li15 1.898513 1_455
F47 Fe15 2.066036 1_555
