# generated using pymatgen
data_Cr2O3
_symmetry_space_group_name_H-M   'P 1'
_cell_length_a   8.03925767
_cell_length_b   9.28228689
_cell_length_c   9.28228937
_cell_angle_alpha   89.99752166
_cell_angle_beta   54.73463681
_cell_angle_gamma   54.73164730
_symmetry_Int_Tables_number   1
_chemical_formula_structural   Cr2O3
_chemical_formula_sum   'Cr16 O24'
_cell_volume   399.88146755
_cell_formula_units_Z   8
loop_
 _symmetry_equiv_pos_site_id
 _symmetry_equiv_pos_as_xyz
  1  'x, y, z'
loop_
 _atom_site_type_symbol
 _atom_site_label
 _atom_site_symmetry_multiplicity
 _atom_site_fract_x
 _atom_site_fract_y
 _atom_site_fract_z
 _atom_site_occupancy
  Cr  Cr0  1  0.99799575  0.00171935  0.00139444  1
  Cr  Cr1  1  0.99799917  0.00171646  0.50141858  1
  Cr  Cr2  1  0.99798322  0.50169612  0.00141245  1
  Cr  Cr3  1  0.99797720  0.50169093  0.50141628  1
  Cr  Cr4  1  0.99797689  0.25169927  0.29033460  1
  Cr  Cr5  1  0.99801739  0.25171768  0.79034871  1
  Cr  Cr6  1  0.49797912  0.54061391  0.75140769  1
  Cr  Cr7  1  0.49792943  0.46279062  0.25139428  1
  Cr  Cr8  1  0.42014274  0.29057182  0.04033908  1
  Cr  Cr9  1  0.42016041  0.79053421  0.54031093  1
  Cr  Cr10  1  0.57587268  0.71278361  0.96243624  1
  Cr  Cr11  1  0.57589728  0.21273674  0.46239404  1
  Cr  Cr12  1  0.49797053  0.96277817  0.25145229  1
  Cr  Cr13  1  0.49800933  0.04062568  0.75140541  1
  Cr  Cr14  1  0.99795377  0.75173864  0.71248952  1
  Cr  Cr15  1  0.99795391  0.75170848  0.21248647  1
  O  O0  1  0.18274496  0.54989647  0.27443501  1
  O  O1  1  0.18276962  0.76869596  0.77446072  1
  O  O2  1  0.18274843  0.04989892  0.54361553  1
  O  O3  1  0.18278800  0.26868588  0.04355418  1
  O  O4  1  0.26712628  0.95950260  0.22625219  1
  O  O5  1  0.26716869  0.27473070  0.72620831  1
  O  O6  1  0.26712221  0.77477082  0.00741249  1
  O  O7  1  0.26715273  0.45948576  0.50737737  1
  O  O8  1  0.27921355  0.99563880  0.76841952  1
  O  O9  1  0.27917531  0.22651170  0.26842869  1
  O  O10  1  0.27921218  0.49560780  0.95317261  1
  O  O11  1  0.27918714  0.72650436  0.45321367  1
  O  O12  1  0.71683393  0.77686195  0.73434303  1
  O  O13  1  0.71685609  0.00769562  0.23431782  1
  O  O14  1  0.71678054  0.27687350  0.54959612  1
  O  O15  1  0.71680475  0.50774393  0.04963819  1
  O  O16  1  0.72885510  0.72863757  0.27661257  1
  O  O17  1  0.72887591  0.04386426  0.77658504  1
  O  O18  1  0.72886489  0.22864311  0.99533744  1
  O  O19  1  0.72887637  0.54385615  0.49536294  1
  O  O20  1  0.81321677  0.45348349  0.72835858  1
  O  O21  1  0.81324182  0.23468646  0.22831919  1
  O  O22  1  0.81323554  0.73468613  0.95922138  1
  O  O23  1  0.81329436  0.95344835  0.45919540  1
loop_
_geom_bond_atom_site_label_1
_geom_bond_atom_site_label_2
_geom_bond_distance
_geom_bond_site_symmetry_2
Cr0 O21 1.999449 1_555
Cr0 O8 1.999513 1_644
Cr0 O6 1.999526 1_645
Cr0 O13 1.999605 1_555
Cr0 O18 1.999681 1_554
Cr0 O1 1.999763 1_644
Cr1 O4 1.999568 1_645
Cr1 O2 1.999570 1_655
Cr1 O14 1.999743 1_555
Cr1 O17 1.999824 1_555
Cr1 O11 1.999889 1_645
Cr1 O23 1.999889 1_545
Cr2 O15 1.999563 1_555
Cr2 O3 1.999619 1_655
Cr2 O10 1.999671 1_654
Cr2 O22 1.999677 1_554
Cr2 O5 1.999795 1_654
Cr2 O16 1.999797 1_555
Cr3 O12 1.999500 1_555
Cr3 O20 1.999598 1_555
Cr3 O7 1.999643 1_655
Cr3 O9 1.999687 1_655
Cr3 O19 1.999769 1_555
Cr3 O0 1.999828 1_655
Cr4 O21 1.954471 1_555
Cr4 O3 1.954500 1_655
Cr4 O14 2.016038 1_555
Cr4 O9 2.016258 1_655
Cr4 O19 2.031638 1_555
Cr4 O4 2.031922 1_645
Cr5 O20 1.954409 1_555
Cr5 O2 1.954536 1_655
Cr5 O15 2.016046 1_556
Cr5 O8 2.016246 1_645
Cr5 O5 2.031799 1_655
Cr5 O18 2.032069 1_555
Cr6 O14 1.954243 1_555
Cr6 O10 1.954510 1_555
Cr6 O6 2.016160 1_556
Cr6 O19 2.016272 1_555
Cr6 O1 2.031710 1_555
Cr6 O20 2.032092 1_555
Cr7 O11 1.954272 1_555
Cr7 O15 1.954525 1_555
Cr7 O7 2.015978 1_555
Cr7 O18 2.016184 1_554
Cr7 O0 2.031804 1_555
Cr7 O21 2.032134 1_555
Cr8 O17 1.954064 1_554
Cr8 O18 1.954495 1_554
Cr8 O0 2.016140 1_555
Cr8 O3 2.016214 1_555
Cr8 O9 2.031717 1_555
Cr8 O10 2.031936 1_554
Cr9 O19 1.954066 1_555
Cr9 O16 1.954323 1_555
Cr9 O1 2.015970 1_555
Cr9 O2 2.016395 1_565
Cr9 O11 2.031548 1_555
Cr9 O8 2.032358 1_555
Cr10 O4 1.954396 1_556
Cr10 O6 1.954602 1_556
Cr10 O20 2.016061 1_555
Cr10 O22 2.016380 1_555
Cr10 O12 2.031839 1_555
Cr10 O15 2.032197 1_556
Cr11 O7 1.954292 1_555
Cr11 O5 1.954588 1_555
Cr11 O21 2.016128 1_555
Cr11 O23 2.016429 1_545
Cr11 O13 2.031724 1_555
Cr11 O14 2.032167 1_555
Cr12 O9 1.954235 1_565
Cr12 O13 1.954398 1_565
Cr12 O16 2.016241 1_555
Cr12 O4 2.016464 1_555
Cr12 O2 2.031820 1_565
Cr12 O22 2.032053 1_554
Cr13 O12 1.954121 1_545
Cr13 O8 1.954656 1_545
Cr13 O5 2.016153 1_555
Cr13 O17 2.016332 1_555
Cr13 O3 2.031533 1_556
Cr13 O23 2.032043 1_545
Cr14 O22 1.954391 1_555
Cr14 O1 1.954537 1_655
Cr14 O11 2.015923 1_655
Cr14 O12 2.016212 1_555
Cr14 O17 2.031336 1_565
Cr14 O7 2.032335 1_655
Cr15 O23 1.954261 1_555
Cr15 O0 1.954320 1_655
Cr15 O13 2.015987 1_565
Cr15 O10 2.016446 1_654
Cr15 O16 2.031825 1_555
Cr15 O6 2.032316 1_655
