# generated using pymatgen
data_HfZrO4
_symmetry_space_group_name_H-M   'P 1'
_cell_length_a   7.27767637
_cell_length_b   7.27767637
_cell_length_c   7.24383602
_cell_angle_alpha   60.18050186
_cell_angle_beta   60.18050186
_cell_angle_gamma   59.69672453
_symmetry_Int_Tables_number   1
_chemical_formula_structural   HfZrO4
_chemical_formula_sum   'Hf4 Zr4 O16'
_cell_volume   271.39880929
_cell_formula_units_Z   4
loop_
 _symmetry_equiv_pos_site_id
 _symmetry_equiv_pos_as_xyz
  1  'x, y, z'
loop_
 _atom_site_type_symbol
 _atom_site_label
 _atom_site_symmetry_multiplicity
 _atom_site_fract_x
 _atom_site_fract_y
 _atom_site_fract_z
 _atom_site_occupancy
  Hf  Hf0  1  0.13591300  0.13591300  0.62167600  1
  Hf  Hf1  1  0.63635000  0.13485200  0.12340800  1
  Hf  Hf2  1  0.13485200  0.63635000  0.12340800  1
  Hf  Hf3  1  0.13499100  0.13499100  0.12366900  1
  Zr  Zr0  1  0.13349100  0.63489200  0.62550700  1
  Zr  Zr1  1  0.63405200  0.63405200  0.12658300  1
  Zr  Zr2  1  0.63454500  0.63454500  0.62528000  1
  Zr  Zr3  1  0.63489200  0.13349100  0.62550700  1
  O  O0  1  0.05281900  0.50522900  0.98405700  1
  O  O1  1  0.74499700  0.74499700  0.25018300  1
  O  O2  1  0.26030600  0.79357200  0.73321200  1
  O  O3  1  0.49180300  0.49180300  0.53737800  1
  O  O4  1  0.98928600  0.98928600  0.04353500  1
  O  O5  1  0.23979700  0.23979700  0.75603700  1
  O  O6  1  0.76615900  0.28882800  0.22614200  1
  O  O7  1  0.99287300  0.99287300  0.49476000  1
  O  O8  1  0.01028100  0.54757100  0.47628900  1
  O  O9  1  0.74325200  0.74325200  0.77947500  1
  O  O10  1  0.28882800  0.76615900  0.22614200  1
  O  O11  1  0.48854100  0.48854100  0.99953700  1
  O  O12  1  0.24169200  0.24169200  0.28121500  1
  O  O13  1  0.79357200  0.26030600  0.73321200  1
  O  O14  1  0.50522900  0.05281900  0.98405700  1
  O  O15  1  0.54757100  0.01028100  0.47628900  1
loop_
_geom_bond_atom_site_label_1
_geom_bond_atom_site_label_2
_geom_bond_distance
_geom_bond_site_symmetry_2
Hf0 O12 2.022192 1_555
Hf0 O13 2.031988 1_455
Hf0 O2 2.031988 1_545
Hf0 O5 2.032469 1_555
Hf0 O15 2.444596 1_555
Hf0 O8 2.444596 1_555
Hf0 O7 2.451494 1_445
Hf0 O4 2.505730 1_446
Hf1 O15 2.101750 1_555
Hf1 O14 2.101964 1_554
Hf1 O4 2.107158 1_545
Hf1 O11 2.111063 1_554
Hf1 O6 2.301934 1_555
Hf1 O1 2.320643 1_545
Hf1 O13 2.324484 1_554
Hf1 O12 2.350688 1_555
Hf2 O8 2.101750 1_555
Hf2 O0 2.101964 1_554
Hf2 O4 2.107158 1_455
Hf2 O11 2.111063 1_554
Hf2 O10 2.301934 1_555
Hf2 O1 2.320643 1_455
Hf2 O2 2.324484 1_554
Hf2 O12 2.350688 1_555
Hf3 O5 2.191413 1_554
Hf3 O10 2.195854 1_545
Hf3 O6 2.195854 1_455
Hf3 O12 2.209006 1_555
Hf3 O14 2.214921 1_554
Hf3 O0 2.214921 1_554
Hf3 O7 2.216942 1_445
Hf3 O4 2.223713 1_445
O0 Zr0 2.141502 1_555
O0 Zr1 2.486559 1_456
O1 Zr1 2.049713 1_555
O1 Zr2 2.232222 1_555
O2 Zr2 2.229308 1_555
O2 Zr0 2.341336 1_555
O3 Zr3 2.134739 1_555
O3 Zr0 2.134739 1_555
O3 Zr2 2.229024 1_555
O3 Zr1 2.439757 1_555
O5 Zr3 2.353517 1_555
O5 Zr0 2.353517 1_555
O6 Zr1 2.051017 1_555
O6 Zr3 2.376641 1_555
O7 Zr0 2.133336 1_655
O7 Zr3 2.133336 1_565
O8 Zr0 2.144391 1_555
O8 Zr2 2.245101 1_455
O9 Zr1 2.061078 1_556
O9 Zr2 2.211041 1_555
O9 Zr3 2.322919 1_565
O9 Zr0 2.322919 1_655
O10 Zr1 2.051017 1_555
O10 Zr0 2.376641 1_555
O11 Zr2 2.239959 1_555
O11 Zr1 2.481948 1_556
O13 Zr2 2.229308 1_555
O13 Zr3 2.341336 1_555
O14 Zr3 2.141502 1_555
O14 Zr1 2.486559 1_546
O15 Zr3 2.144391 1_555
O15 Zr2 2.245101 1_545
