# generated using pymatgen
data_Li2MnP2O7
_symmetry_space_group_name_H-M   'P 1'
_cell_length_a   7.35005589
_cell_length_b   7.35005589
_cell_length_c   11.63824669
_cell_angle_alpha   89.06021983
_cell_angle_beta   89.06021983
_cell_angle_gamma   120.07062803
_symmetry_Int_Tables_number   1
_chemical_formula_structural   Li2MnP2O7
_chemical_formula_sum   'Li8 Mn4 P8 O28'
_cell_volume   543.82061029
_cell_formula_units_Z   4
loop_
 _symmetry_equiv_pos_site_id
 _symmetry_equiv_pos_as_xyz
  1  'x, y, z'
loop_
 _atom_site_type_symbol
 _atom_site_label
 _atom_site_symmetry_multiplicity
 _atom_site_fract_x
 _atom_site_fract_y
 _atom_site_fract_z
 _atom_site_occupancy
  Li  Li0  1  0.74635400  0.30824600  0.49128200  1
  Li  Li1  1  0.30824600  0.74635400  0.99128200  1
  Li  Li2  1  0.72880500  0.27119500  0.25000000  1
  Li  Li3  1  0.28927200  0.71072800  0.25000000  1
  Li  Li4  1  0.71072800  0.28927200  0.75000000  1
  Li  Li5  1  0.27119500  0.72880500  0.75000000  1
  Li  Li6  1  0.69175400  0.25364600  0.00871800  1
  Li  Li7  1  0.25364600  0.69175400  0.50871800  1
  Mn  Mn0  1  0.67406500  0.67759200  0.38075200  1
  Mn  Mn1  1  0.67759200  0.67406500  0.88075200  1
  Mn  Mn2  1  0.32240800  0.32593500  0.11924800  1
  Mn  Mn3  1  0.32593500  0.32240800  0.61924800  1
  P  P0  1  0.72891900  0.92851300  0.12170300  1
  P  P1  1  0.92851300  0.72891900  0.62170300  1
  P  P2  1  0.90626800  0.66469800  0.13517100  1
  P  P3  1  0.66469800  0.90626800  0.63517100  1
  P  P4  1  0.33530200  0.09373200  0.36482900  1
  P  P5  1  0.09373200  0.33530200  0.86482900  1
  P  P6  1  0.07148700  0.27108100  0.37829700  1
  P  P7  1  0.27108100  0.07148700  0.87829700  1
  O  O0  1  0.93837100  0.90257700  0.12331400  1
  O  O1  1  0.90257700  0.93837100  0.62331400  1
  O  O2  1  0.61749100  0.84615800  0.00713500  1
  O  O3  1  0.84615800  0.61749100  0.50713500  1
  O  O4  1  0.82015500  0.57710700  0.25741900  1
  O  O5  1  0.57710700  0.82015500  0.75741900  1
  O  O6  1  0.58904300  0.78996400  0.22447000  1
  O  O7  1  0.78996400  0.58904300  0.72447000  1
  O  O8  1  0.73754900  0.53812100  0.04483400  1
  O  O9  1  0.53812100  0.73754900  0.54483400  1
  O  O10  1  0.31075700  0.87853300  0.38318500  1
  O  O11  1  0.87853300  0.31075700  0.88318500  1
  O  O12  1  0.83750900  0.18611900  0.37188900  1
  O  O13  1  0.18611900  0.83750900  0.87188900  1
  O  O14  1  0.81388100  0.16249100  0.12811100  1
  O  O15  1  0.16249100  0.81388100  0.62811100  1
  O  O16  1  0.12146700  0.68924300  0.11681500  1
  O  O17  1  0.68924300  0.12146700  0.61681500  1
  O  O18  1  0.46187900  0.26245100  0.45516600  1
  O  O19  1  0.26245100  0.46187900  0.95516600  1
  O  O20  1  0.21003600  0.41095700  0.27553000  1
  O  O21  1  0.41095700  0.21003600  0.77553000  1
  O  O22  1  0.42289300  0.17984500  0.24258100  1
  O  O23  1  0.17984500  0.42289300  0.74258100  1
  O  O24  1  0.15384200  0.38250900  0.49286500  1
  O  O25  1  0.38250900  0.15384200  0.99286500  1
  O  O26  1  0.09742300  0.06162900  0.37668600  1
  O  O27  1  0.06162900  0.09742300  0.87668600  1
loop_
_geom_bond_atom_site_label_1
_geom_bond_atom_site_label_2
_geom_bond_distance
_geom_bond_site_symmetry_2
Li0 O17 1.879347 1_555
Li0 O12 1.948975 1_555
Li0 O18 1.997509 1_555
Li0 O3 2.021339 1_555
Li1 O16 1.879347 1_556
Li1 O13 1.948975 1_555
Li1 O19 1.997509 1_555
Li1 O2 2.021339 1_556
Li2 O12 1.884277 1_555
Li2 O14 1.884277 1_555
Li2 O22 2.002312 1_555
Li2 O4 2.002312 1_555
Li3 O10 1.955590 1_555
Li3 O16 1.955590 1_555
Li3 O6 1.992248 1_555
Li3 O20 1.992248 1_555
Li4 O11 1.955590 1_555
Li4 O17 1.955590 1_555
Li4 O21 1.992248 1_555
Li4 O7 1.992248 1_555
Li5 O13 1.884277 1_555
Li5 O15 1.884277 1_555
Li5 O23 2.002312 1_555
Li5 O5 2.002312 1_555
Li6 O11 1.879347 1_554
Li6 O14 1.948975 1_555
Li6 O8 1.997509 1_555
Li6 O25 2.021339 1_554
Li7 O10 1.879347 1_555
Li7 O15 1.948975 1_555
Li7 O9 1.997509 1_555
Li7 O24 2.021339 1_555
Mn0 O4 2.130199 1_555
Mn0 O3 2.135004 1_555
Mn0 O6 2.210466 1_555
Mn0 O9 2.290319 1_555
Mn0 O18 2.755524 1_555
Mn1 O5 2.130199 1_555
Mn1 O2 2.135004 1_556
Mn1 O7 2.210466 1_555
Mn1 O8 2.290319 1_556
Mn1 O19 2.755524 1_555
Mn2 O22 2.130199 1_555
Mn2 O25 2.135004 1_554
Mn2 O20 2.210466 1_555
Mn2 O19 2.290319 1_554
Mn2 O8 2.755524 1_555
Mn3 O23 2.130199 1_555
Mn3 O24 2.135004 1_555
Mn3 O21 2.210466 1_555
Mn3 O18 2.290319 1_555
Mn3 O9 2.755524 1_555
O0 P0 1.643664 1_555
O0 P2 1.645991 1_555
O1 P1 1.643664 1_555
O1 P3 1.645991 1_555
O2 P0 1.542898 1_555
O3 P1 1.542898 1_555
O4 P2 1.539925 1_555
O5 P3 1.539925 1_555
O6 P0 1.547582 1_555
O7 P1 1.547582 1_555
O8 P2 1.558018 1_555
O9 P3 1.558018 1_555
O10 P4 1.510538 1_565
O11 P5 1.510538 1_655
O12 P6 1.510820 1_655
O13 P7 1.510820 1_565
O14 P0 1.510820 1_545
O15 P1 1.510820 1_455
O16 P2 1.510538 1_455
O17 P3 1.510538 1_545
O18 P4 1.558018 1_555
O19 P5 1.558018 1_555
O20 P6 1.547582 1_555
O21 P7 1.547582 1_555
O22 P4 1.539925 1_555
O23 P5 1.539925 1_555
O24 P6 1.542898 1_555
O25 P7 1.542898 1_555
O26 P6 1.643664 1_555
O26 P4 1.645991 1_555
O27 P7 1.643664 1_555
O27 P5 1.645991 1_555
