# generated using pymatgen
data_LiCrPO5
_symmetry_space_group_name_H-M   'P 1'
_cell_length_a   7.14511038
_cell_length_b   10.33096300
_cell_length_c   4.98055701
_cell_angle_alpha   90.00000000
_cell_angle_beta   109.46889180
_cell_angle_gamma   90.00000000
_symmetry_Int_Tables_number   1
_chemical_formula_structural   LiCrPO5
_chemical_formula_sum   'Li4 Cr4 P4 O20'
_cell_volume   346.62321252
_cell_formula_units_Z   4
loop_
 _symmetry_equiv_pos_site_id
 _symmetry_equiv_pos_as_xyz
  1  'x, y, z'
loop_
 _atom_site_type_symbol
 _atom_site_label
 _atom_site_symmetry_multiplicity
 _atom_site_fract_x
 _atom_site_fract_y
 _atom_site_fract_z
 _atom_site_occupancy
  Li  Li0  1  0.16695800  0.10215300  0.12564000  1
  Li  Li1  1  0.33304200  0.60215300  0.37436000  1
  Li  Li2  1  0.66695800  0.39784700  0.62564000  1
  Li  Li3  1  0.83304200  0.89784700  0.87436000  1
  Cr  Cr0  1  0.17840400  0.92700300  0.61747500  1
  Cr  Cr1  1  0.32159600  0.42700300  0.88252500  1
  Cr  Cr2  1  0.67840400  0.57299700  0.11747500  1
  Cr  Cr3  1  0.82159600  0.07299700  0.38252500  1
  P  P0  1  0.02839100  0.34866300  0.21825500  1
  P  P1  1  0.52839100  0.15133700  0.71825500  1
  P  P2  1  0.47160900  0.84866300  0.28174500  1
  P  P3  1  0.97160900  0.65133700  0.78174500  1
  O  O0  1  0.03076700  0.78188800  0.68594900  1
  O  O1  1  0.14828400  0.31044100  0.02045900  1
  O  O2  1  0.99946700  0.95603500  0.27061000  1
  O  O3  1  0.15986800  0.57369800  0.94843800  1
  O  O4  1  0.15903400  0.42995100  0.47238700  1
  O  O5  1  0.34013200  0.07369800  0.55156200  1
  O  O6  1  0.35171600  0.81044100  0.47954100  1
  O  O7  1  0.46923300  0.28188800  0.81405100  1
  O  O8  1  0.34096600  0.92995100  0.02761300  1
  O  O9  1  0.49946700  0.54396500  0.77061000  1
  O  O10  1  0.50053300  0.45603500  0.22939000  1
  O  O11  1  0.65903400  0.07004900  0.97238700  1
  O  O12  1  0.53076700  0.71811200  0.18594900  1
  O  O13  1  0.64828400  0.18955900  0.52045900  1
  O  O14  1  0.65986800  0.92630200  0.44843800  1
  O  O15  1  0.84096600  0.57004900  0.52761300  1
  O  O16  1  0.84013200  0.42630200  0.05156200  1
  O  O17  1  0.00053300  0.04396500  0.72939000  1
  O  O18  1  0.85171600  0.68955900  0.97954100  1
  O  O19  1  0.96923300  0.21811200  0.31405100  1
loop_
_geom_bond_atom_site_label_1
_geom_bond_atom_site_label_2
_geom_bond_distance
_geom_bond_site_symmetry_2
Li0 O17 2.026307 1_554
Li0 O5 2.089929 1_555
Li0 O2 2.192765 1_445
Li0 O1 2.208155 1_555
Li0 O19 2.279328 1_455
Li0 O8 2.313806 1_545
Li1 O9 2.026307 1_555
Li1 O3 2.089929 1_554
Li1 O10 2.192765 1_555
Li1 O6 2.208155 1_555
Li1 O12 2.279328 1_555
Li1 O4 2.313806 1_555
Li2 O10 2.026307 1_555
Li2 O16 2.089929 1_556
Li2 O9 2.192765 1_555
Li2 O13 2.208155 1_555
Li2 O7 2.279328 1_555
Li2 O15 2.313806 1_555
Li3 O2 2.026307 1_556
Li3 O14 2.089929 1_555
Li3 O17 2.192765 1_665
Li3 O18 2.208155 1_555
Li3 O0 2.279328 1_655
Li3 O11 2.313806 1_565
Cr0 O2 1.799107 1_455
Cr0 O0 1.927804 1_555
Cr0 O17 1.964224 1_565
Cr0 O8 1.985235 1_556
Cr0 O5 1.998178 1_565
Cr0 O6 2.005641 1_555
Cr1 O10 1.799107 1_556
Cr1 O7 1.927804 1_555
Cr1 O9 1.964224 1_555
Cr1 O4 1.985235 1_555
Cr1 O3 1.998178 1_555
Cr1 O1 2.005641 1_556
Cr2 O9 1.799107 1_554
Cr2 O12 1.927804 1_555
Cr2 O10 1.964224 1_555
Cr2 O15 1.985235 1_555
Cr2 O16 1.998178 1_555
Cr2 O18 2.005641 1_554
Cr3 O17 1.799107 1_655
Cr3 O19 1.927804 1_555
Cr3 O2 1.964224 1_545
Cr3 O11 1.985235 1_554
Cr3 O14 1.998178 1_545
Cr3 O13 2.005641 1_555
O0 P3 1.536158 1_455
O1 P0 1.556536 1_555
O3 P3 1.548409 1_455
O4 P0 1.546303 1_555
O5 P1 1.548409 1_555
O6 P2 1.556536 1_555
O7 P1 1.536158 1_555
O8 P2 1.546303 1_555
O11 P1 1.546303 1_555
O12 P2 1.536158 1_555
O13 P1 1.556536 1_555
O14 P2 1.548409 1_555
O15 P3 1.546303 1_555
O16 P0 1.548409 1_655
O18 P3 1.556536 1_555
O19 P0 1.536158 1_655
