# generated using pymatgen
data_Li3MnAl2O6
_symmetry_space_group_name_H-M   'P 1'
_cell_length_a   7.91000813
_cell_length_b   7.99276990
_cell_length_c   8.62159946
_cell_angle_alpha   107.62819117
_cell_angle_beta   107.28525161
_cell_angle_gamma   96.36680957
_symmetry_Int_Tables_number   1
_chemical_formula_structural   Li3MnAl2O6
_chemical_formula_sum   'Li12 Mn4 Al8 O24'
_cell_volume   483.78895610
_cell_formula_units_Z   4
loop_
 _symmetry_equiv_pos_site_id
 _symmetry_equiv_pos_as_xyz
  1  'x, y, z'
loop_
 _atom_site_type_symbol
 _atom_site_label
 _atom_site_symmetry_multiplicity
 _atom_site_fract_x
 _atom_site_fract_y
 _atom_site_fract_z
 _atom_site_occupancy
  Li  Li0  1  0.45588700  0.62186800  0.91705400  1
  Li  Li1  1  0.95589800  0.12187600  0.91706000  1
  Li  Li2  1  0.04410400  0.87812500  0.08294200  1
  Li  Li3  1  0.54411400  0.37813000  0.08294700  1
  Li  Li4  1  0.94992000  0.29015900  0.24333200  1
  Li  Li5  1  0.44991000  0.79016300  0.24333200  1
  Li  Li6  1  0.55009100  0.20984000  0.75667000  1
  Li  Li7  1  0.05007900  0.70983800  0.75667000  1
  Li  Li8  1  0.28920200  0.63514700  0.59747800  1
  Li  Li9  1  0.78921100  0.13514700  0.59747500  1
  Li  Li10  1  0.21078800  0.86485300  0.40252200  1
  Li  Li11  1  0.71079900  0.36485000  0.40252500  1
  Mn  Mn0  1  0.29485400  0.46553500  0.25789900  1
  Mn  Mn1  1  0.70515300  0.53447600  0.74211600  1
  Mn  Mn2  1  0.79481900  0.96553600  0.25787200  1
  Mn  Mn3  1  0.20516600  0.03445700  0.74210500  1
  Al  Al0  1  0.62160100  0.79706500  0.58145400  1
  Al  Al1  1  0.12159700  0.29705800  0.58146000  1
  Al  Al2  1  0.87840300  0.70294000  0.41853700  1
  Al  Al3  1  0.37840600  0.20293800  0.41854500  1
  Al  Al4  1  0.62453900  0.95763300  0.91294000  1
  Al  Al5  1  0.12454000  0.45763100  0.91294900  1
  Al  Al6  1  0.87546300  0.54236900  0.08705200  1
  Al  Al7  1  0.37545700  0.04237100  0.08705700  1
  O  O0  1  0.22765200  0.36427700  0.42146100  1
  O  O1  1  0.72763900  0.86427000  0.42145100  1
  O  O2  1  0.27235500  0.13572600  0.57854500  1
  O  O3  1  0.77235000  0.63572600  0.57854200  1
  O  O4  1  0.55424200  0.72585000  0.75792000  1
  O  O5  1  0.05425000  0.22584900  0.75792400  1
  O  O6  1  0.94575000  0.77415100  0.24207800  1
  O  O7  1  0.44575600  0.27415000  0.24208000  1
  O  O8  1  0.34953700  0.53038200  0.08044400  1
  O  O9  1  0.84952300  0.03037200  0.08043100  1
  O  O10  1  0.15047100  0.96962400  0.91956500  1
  O  O11  1  0.65046600  0.46962200  0.91956100  1
  O  O12  1  0.39554500  0.71189900  0.42678400  1
  O  O13  1  0.89554900  0.21188300  0.42677400  1
  O  O14  1  0.10445200  0.78811000  0.57322300  1
  O  O15  1  0.60445900  0.28810800  0.57322500  1
  O  O16  1  0.69684900  0.01899400  0.74548000  1
  O  O17  1  0.19684400  0.51899800  0.74548000  1
  O  O18  1  0.80315600  0.48100100  0.25452000  1
  O  O19  1  0.30315100  0.98100500  0.25451900  1
  O  O20  1  0.03542400  0.39095500  0.07973400  1
  O  O21  1  0.53540700  0.89094500  0.07972000  1
  O  O22  1  0.46458800  0.10905100  0.92027600  1
  O  O23  1  0.96457900  0.60904600  0.92027000  1
loop_
_geom_bond_atom_site_label_1
_geom_bond_atom_site_label_2
_geom_bond_distance
_geom_bond_site_symmetry_2
Li0 O17 2.037452 1_555
Li0 O11 2.064382 1_555
Li0 O21 2.082495 1_556
Li0 O4 2.088035 1_555
Li0 O8 2.102004 1_556
Li1 O16 2.037510 1_555
Li1 O10 2.064377 1_645
Li1 O20 2.082526 1_656
Li1 O5 2.087998 1_655
Li1 O9 2.102041 1_556
Li2 O19 2.037489 1_555
Li2 O9 2.064399 1_465
Li2 O23 2.082521 1_454
Li2 O6 2.088011 1_455
Li2 O10 2.102031 1_554
Li3 O18 2.037444 1_555
Li3 O8 2.064403 1_555
Li3 O22 2.082519 1_554
Li3 O7 2.088031 1_555
Li3 O11 2.102006 1_554
Li4 O13 2.005388 1_555
Li4 O18 2.013425 1_555
Li4 O9 2.029745 1_555
Li4 O20 2.056753 1_655
Li4 O0 2.165890 1_655
Li5 O12 2.005400 1_555
Li5 O19 2.013399 1_555
Li5 O8 2.029664 1_555
Li5 O21 2.056772 1_555
Li5 O1 2.165849 1_555
Li6 O15 2.005369 1_555
Li6 O16 2.013419 1_555
Li6 O11 2.029678 1_555
Li6 O22 2.056780 1_555
Li6 O2 2.165905 1_555
Li7 O14 2.005419 1_555
Li7 O17 2.013418 1_555
Li7 O10 2.029722 1_555
Li7 O23 2.056735 1_455
Li7 O3 2.165872 1_455
Li8 O14 2.010870 1_555
Li8 O17 2.035874 1_555
Li8 O4 2.041170 1_555
Li8 O12 2.101828 1_555
Li8 O0 2.136453 1_555
Li9 O15 2.010867 1_555
Li9 O16 2.035932 1_555
Li9 O5 2.041180 1_655
Li9 O13 2.101801 1_555
Li9 O1 2.136500 1_545
Li10 O12 2.010864 1_555
Li10 O19 2.035916 1_555
Li10 O6 2.041162 1_455
Li10 O14 2.101818 1_555
Li10 O2 2.136477 1_565
Li11 O13 2.010889 1_555
Li11 O18 2.035902 1_555
Li11 O7 2.041195 1_555
Li11 O15 2.101824 1_555
Li11 O3 2.136490 1_555
Mn0 O8 1.902709 1_555
Mn0 O12 1.964271 1_555
Mn0 O0 1.991845 1_555
Mn0 O7 2.039284 1_555
Mn0 O20 2.055929 1_555
Mn1 O11 1.902668 1_555
Mn1 O15 1.964313 1_555
Mn1 O3 1.991884 1_555
Mn1 O4 2.039261 1_555
Mn1 O23 2.055874 1_555
Mn2 O9 1.902623 1_565
Mn2 O13 1.964241 1_565
Mn2 O1 1.991941 1_555
Mn2 O6 2.039439 1_555
Mn2 O21 2.055778 1_555
Mn3 O10 1.902736 1_545
Mn3 O14 1.964177 1_545
Mn3 O2 1.991837 1_555
Mn3 O5 2.039405 1_555
Mn3 O22 2.055895 1_555
Al0 O12 1.789468 1_555
Al0 O16 1.801917 1_565
Al0 O3 1.850583 1_555
Al0 O4 1.965089 1_555
Al0 O1 1.982800 1_555
Al1 O13 1.789470 1_455
Al1 O17 1.801960 1_555
Al1 O2 1.850592 1_555
Al1 O5 1.965004 1_555
Al1 O0 1.982898 1_555
Al2 O14 1.789474 1_655
Al2 O18 1.801944 1_555
Al2 O1 1.850614 1_555
Al2 O6 1.964971 1_555
Al2 O3 1.982918 1_555
Al3 O15 1.789480 1_555
Al3 O19 1.801939 1_545
Al3 O0 1.850611 1_555
Al3 O7 1.965035 1_555
Al3 O2 1.982862 1_555
Al4 O9 1.823515 1_566
Al4 O4 1.832426 1_555
Al4 O22 1.846690 1_565
Al4 O16 1.873383 1_565
Al4 O21 1.957571 1_556
Al5 O8 1.823599 1_556
Al5 O5 1.832436 1_555
Al5 O23 1.846729 1_455
Al5 O17 1.873455 1_555
Al5 O20 1.957498 1_556
Al6 O11 1.823586 1_554
Al6 O6 1.832439 1_555
Al6 O20 1.846722 1_655
Al6 O18 1.873462 1_555
Al6 O23 1.957478 1_554
Al7 O10 1.823528 1_544
Al7 O7 1.832410 1_555
Al7 O21 1.846731 1_545
Al7 O19 1.873402 1_545
Al7 O22 1.957546 1_554
