# generated using pymatgen
data_Li4FeCo3O8
_symmetry_space_group_name_H-M   'P 1'
_cell_length_a   4.98664811
_cell_length_b   5.48260199
_cell_length_c   6.28417632
_cell_angle_alpha   90.67044350
_cell_angle_beta   89.94612563
_cell_angle_gamma   89.87947553
_symmetry_Int_Tables_number   1
_chemical_formula_structural   Li4FeCo3O8
_chemical_formula_sum   'Li4 Fe1 Co3 O8'
_cell_volume   171.79594441
_cell_formula_units_Z   1
loop_
 _symmetry_equiv_pos_site_id
 _symmetry_equiv_pos_as_xyz
  1  'x, y, z'
loop_
 _atom_site_type_symbol
 _atom_site_label
 _atom_site_symmetry_multiplicity
 _atom_site_fract_x
 _atom_site_fract_y
 _atom_site_fract_z
 _atom_site_occupancy
  Li  Li0  1  0.00158424  0.07933725  0.62557995  1
  Li  Li1  1  0.48911090  0.41854231  0.12489861  1
  Li  Li2  1  0.99445053  0.58379485  0.87306185  1
  Li  Li3  1  0.49571918  0.92094346  0.37638564  1
  Fe  Fe0  1  0.49651410  0.91945367  0.87699876  1
  Co  Co0  1  0.99325210  0.08665578  0.13399675  1
  Co  Co1  1  0.49968758  0.41873999  0.62333276  1
  Co  Co2  1  -0.00071023  0.57931332  0.37130126  1
  O  O0  1  0.37447572  0.08105042  0.12445055  1
  O  O1  1  0.39512821  0.09382206  0.63076102  1
  O  O2  1  0.89101299  0.40402489  0.13388174  1
  O  O3  1  0.86782704  0.41850945  0.60431974  1
  O  O4  1  0.36749127  0.58221402  0.39267469  1
  O  O5  1  0.38415227  0.58943728  0.86621024  1
  O  O6  1  0.89936505  0.89927865  0.35888877  1
  O  O7  1  0.87733804  0.92488160  0.88325666  1
loop_
_geom_bond_atom_site_label_1
_geom_bond_atom_site_label_2
_geom_bond_distance
_geom_bond_site_symmetry_2
Li0 O7 1.937903 1_445
Li0 O1 1.964523 1_555
Li0 O3 1.980256 1_455
Li0 O6 2.002032 1_445
Li1 O0 1.937744 1_555
Li1 O5 1.956965 1_554
Li1 O4 1.991269 1_555
Li1 O2 2.006430 1_555
Li2 O5 1.944061 1_655
Li2 O7 1.958252 1_555
Li2 O2 1.990547 1_556
Li2 O3 2.010126 1_555
Li3 O1 1.914771 1_565
Li3 O0 1.916952 1_565
Li3 O4 1.969151 1_555
Li3 O6 2.018909 1_555
Fe0 O0 1.880724 1_566
Fe0 O5 1.895719 1_555
Fe0 O1 1.896849 1_565
Fe0 O7 1.899768 1_555
Co0 O2 1.812141 1_555
Co0 O6 1.818415 1_545
Co0 O7 1.890703 1_544
Co0 O0 1.902090 1_655
Co1 O4 1.835376 1_555
Co1 O3 1.839551 1_555
Co1 O1 1.858283 1_555
Co1 O5 1.870821 1_555
Co2 O6 1.825196 1_455
Co2 O3 1.839053 1_455
Co2 O4 1.841212 1_555
Co2 O2 1.846968 1_455
