# generated using pymatgen
data_Fe6O7F5
_symmetry_space_group_name_H-M   'P 1'
_cell_length_a   4.76224089
_cell_length_b   4.76224089
_cell_length_c   9.10017900
_cell_angle_alpha   90.00000000
_cell_angle_beta   90.00000000
_cell_angle_gamma   95.70257609
_symmetry_Int_Tables_number   1
_chemical_formula_structural   Fe6O7F5
_chemical_formula_sum   'Fe6 O7 F5'
_cell_volume   205.36103262
_cell_formula_units_Z   1
loop_
 _symmetry_equiv_pos_site_id
 _symmetry_equiv_pos_as_xyz
  1  'x, y, z'
loop_
 _atom_site_type_symbol
 _atom_site_label
 _atom_site_symmetry_multiplicity
 _atom_site_fract_x
 _atom_site_fract_y
 _atom_site_fract_z
 _atom_site_occupancy
  Fe  Fe0  1  0.98942500  0.01057500  0.65895500  1
  Fe  Fe1  1  0.98942500  0.01057500  0.34104500  1
  Fe  Fe2  1  0.00079000  0.99921000  0.00000000  1
  Fe  Fe3  1  0.53117900  0.46882100  0.50000000  1
  Fe  Fe4  1  0.49600100  0.50399900  0.83214100  1
  Fe  Fe5  1  0.49600100  0.50399900  0.16785900  1
  O  O0  1  0.81119400  0.18880600  0.50000000  1
  O  O1  1  0.30617600  0.30154600  0.67203300  1
  O  O2  1  0.30617600  0.30154600  0.32796700  1
  O  O3  1  0.30040800  0.30720700  0.00000000  1
  O  O4  1  0.69845400  0.69382400  0.67203300  1
  O  O5  1  0.69845400  0.69382400  0.32796700  1
  O  O6  1  0.69279300  0.69959200  0.00000000  1
  F  F0  1  0.80690300  0.19309700  0.16386200  1
  F  F1  1  0.80690300  0.19309700  0.83613800  1
  F  F2  1  0.19263000  0.80737000  0.50000000  1
  F  F3  1  0.18854400  0.81145600  0.83354300  1
  F  F4  1  0.18854400  0.81145600  0.16645700  1
loop_
_geom_bond_atom_site_label_1
_geom_bond_atom_site_label_2
_geom_bond_distance
_geom_bond_site_symmetry_2
Fe0 O0 1.917404 1_555
Fe0 O4 1.947890 1_545
Fe0 O1 1.947890 1_655
Fe1 O0 1.917404 1_555
Fe1 O2 1.947890 1_655
Fe1 O5 1.947890 1_545
Fe2 O3 1.942002 1_565
Fe2 O6 1.942002 1_455
Fe3 O0 1.977327 1_555
Fe3 O2 2.015933 1_555
Fe3 O1 2.015933 1_555
Fe3 O4 2.015933 1_555
Fe3 O5 2.015933 1_555
Fe4 O1 1.922609 1_555
Fe4 O4 1.922609 1_555
Fe4 O3 1.976317 1_556
Fe4 O6 1.976317 1_556
Fe5 O2 1.922609 1_555
Fe5 O5 1.922609 1_555
Fe5 O3 1.976317 1_555
Fe5 O6 1.976317 1_555
F0 Fe2 2.024383 1_645
F0 Fe1 2.064228 1_555
F0 Fe5 2.195737 1_555
F1 Fe2 2.024383 1_646
F1 Fe0 2.064228 1_555
F1 Fe4 2.195737 1_555
F2 Fe0 2.037511 1_465
F2 Fe1 2.037511 1_465
F2 Fe3 2.390665 1_555
F3 Fe2 2.013057 1_556
F3 Fe0 2.121624 1_465
F3 Fe4 2.171146 1_555
F4 Fe2 2.013057 1_555
F4 Fe1 2.121624 1_465
F4 Fe5 2.171146 1_555
