# generated using pymatgen
data_Li3V(BO3)2
_symmetry_space_group_name_H-M   'P 1'
_cell_length_a   5.03412200
_cell_length_b   6.93879834
_cell_length_c   8.40481017
_cell_angle_alpha   112.07853704
_cell_angle_beta   90.13814709
_cell_angle_gamma   91.26321414
_symmetry_Int_Tables_number   1
_chemical_formula_structural   Li3V(BO3)2
_chemical_formula_sum   'Li6 V2 B4 O12'
_cell_volume   271.97329719
_cell_formula_units_Z   2
loop_
 _symmetry_equiv_pos_site_id
 _symmetry_equiv_pos_as_xyz
  1  'x, y, z'
loop_
 _atom_site_type_symbol
 _atom_site_label
 _atom_site_symmetry_multiplicity
 _atom_site_fract_x
 _atom_site_fract_y
 _atom_site_fract_z
 _atom_site_occupancy
  Li  Li0  1  0.88749700  0.26247200  0.82129900  1
  Li  Li1  1  0.66263600  0.40891400  0.56514100  1
  Li  Li2  1  0.84435000  0.43359500  0.26946400  1
  Li  Li3  1  0.15565000  0.56640500  0.73053600  1
  Li  Li4  1  0.33736400  0.59108600  0.43485900  1
  Li  Li5  1  0.11250300  0.73752800  0.17870100  1
  V  V0  1  0.60903700  0.03220800  0.21015400  1
  V  V1  1  0.39096300  0.96779200  0.78984600  1
  B  B0  1  0.14436300  0.18863300  0.40860400  1
  B  B1  1  0.67167800  0.67583000  0.92373100  1
  B  B2  1  0.32832200  0.32417000  0.07626900  1
  B  B3  1  0.85563700  0.81136700  0.59139600  1
  O  O0  1  0.72984800  0.99413600  0.69582300  1
  O  O1  1  0.22345500  0.22972000  0.91001900  1
  O  O2  1  0.87048300  0.19849700  0.38282800  1
  O  O3  1  0.28198700  0.35272800  0.52398400  1
  O  O4  1  0.79538000  0.51832000  0.80115100  1
  O  O5  1  0.57071000  0.24048100  0.10446900  1
  O  O6  1  0.42929000  0.75951900  0.89553100  1
  O  O7  1  0.20462000  0.48168000  0.19884900  1
  O  O8  1  0.71801300  0.64727200  0.47601600  1
  O  O9  1  0.12951700  0.80150300  0.61717200  1
  O  O10  1  0.77654500  0.77028000  0.08998100  1
  O  O11  1  0.27015200  0.00586400  0.30417700  1
loop_
_geom_bond_atom_site_label_1
_geom_bond_atom_site_label_2
_geom_bond_distance
_geom_bond_site_symmetry_2
Li0 O1 1.899019 1_655
Li0 O4 1.912393 1_555
Li0 O0 1.914021 1_545
Li1 O4 1.948541 1_555
Li1 O3 1.950919 1_555
Li1 O2 1.991915 1_555
Li1 O8 2.070342 1_555
Li2 O8 1.930933 1_555
Li2 O7 1.969835 1_655
Li2 O5 2.031923 1_555
Li2 O2 2.182564 1_555
Li3 O3 1.930933 1_555
Li3 O4 1.969835 1_455
Li3 O6 2.031923 1_555
Li3 O9 2.182564 1_555
Li4 O7 1.948541 1_555
Li4 O8 1.950919 1_555
Li4 O9 1.991915 1_555
Li4 O3 2.070342 1_555
Li5 O10 1.899019 1_455
Li5 O7 1.912393 1_555
Li5 O11 1.914021 1_565
B0 O3 1.359696 1_555
B0 O2 1.402293 1_455
B0 O11 1.407471 1_555
B1 O4 1.352905 1_555
B1 O10 1.397648 1_556
B1 O6 1.419725 1_555
B2 O7 1.352905 1_555
B2 O1 1.397648 1_554
B2 O5 1.419725 1_555
B3 O8 1.359696 1_555
B3 O9 1.402293 1_655
B3 O0 1.407471 1_555
O0 V1 1.915631 1_555
O1 V1 1.930314 1_545
O2 V0 1.958272 1_555
O5 V0 1.972618 1_555
O6 V1 1.972618 1_555
O9 V1 1.958272 1_555
O10 V0 1.930314 1_565
O11 V0 1.915631 1_555
