# generated using pymatgen
data_KLiSb(PO4)2
_symmetry_space_group_name_H-M   'P 1'
_cell_length_a   5.03997400
_cell_length_b   8.60573685
_cell_length_c   13.21739460
_cell_angle_alpha   108.10860658
_cell_angle_beta   100.97712690
_cell_angle_gamma   89.85422603
_symmetry_Int_Tables_number   1
_chemical_formula_structural   KLiSb(PO4)2
_chemical_formula_sum   'K3 Li3 Sb3 P6 O24'
_cell_volume   533.92319882
_cell_formula_units_Z   3
loop_
 _symmetry_equiv_pos_site_id
 _symmetry_equiv_pos_as_xyz
  1  'x, y, z'
loop_
 _atom_site_type_symbol
 _atom_site_label
 _atom_site_symmetry_multiplicity
 _atom_site_fract_x
 _atom_site_fract_y
 _atom_site_fract_z
 _atom_site_occupancy
  K  K0  1  0.17920400  0.79231600  0.34898400  1
  K  K1  1  0.50647100  0.50252300  0.00224700  1
  K  K2  1  0.81464500  0.16398500  0.65965100  1
  Li  Li0  1  0.02811900  0.74343300  0.08593500  1
  Li  Li1  1  0.97219400  0.25938600  0.90517700  1
  Li  Li2  1  0.70312300  0.05492600  0.40521300  1
  Sb  Sb0  1  0.33522100  0.66552800  0.66946100  1
  Sb  Sb1  1  0.66311500  0.34630300  0.32325900  1
  Sb  Sb2  1  0.99943700  0.00327600  0.00259700  1
  P  P0  1  0.08942400  0.41339500  0.16150200  1
  P  P1  1  0.25139400  0.27645000  0.49298900  1
  P  P2  1  0.41012900  0.06447200  0.82965300  1
  P  P3  1  0.58333100  0.92060200  0.17678400  1
  P  P4  1  0.75428500  0.73438100  0.51441100  1
  P  P5  1  0.91192100  0.59333800  0.82492400  1
  O  O0  1  0.06741500  0.72846400  0.92666100  1
  O  O1  1  0.05056100  0.56801500  0.72401000  1
  O  O2  1  0.05471700  0.68418200  0.54331300  1
  O  O3  1  0.29814800  0.10884100  0.93847800  1
  O  O4  1  0.26713300  0.88853400  0.75821000  1
  O  O5  1  0.09819100  0.56653900  0.12856800  1
  O  O6  1  0.29899000  0.13207700  0.53473900  1
  O  O7  1  0.32682300  0.19370900  0.77678500  1
  O  O8  1  0.40092500  0.44044000  0.58005600  1
  O  O9  1  0.38237200  0.24144900  0.38970000  1
  O  O10  1  0.27428300  0.94065800  0.14207000  1
  O  O11  1  0.61641700  0.65005500  0.79487000  1
  O  O12  1  0.38346400  0.35266000  0.18386600  1
  O  O13  1  0.72333700  0.05400900  0.85391500  1
  O  O14  1  0.62178100  0.76514200  0.61727500  1
  O  O15  1  0.59076100  0.59084700  0.41994800  1
  O  O16  1  0.63321500  0.80195200  0.24233200  1
  O  O17  1  0.75738400  0.88874800  0.48270200  1
  O  O18  1  0.89327000  0.43489400  0.85121400  1
  O  O19  1  0.72719500  0.09148800  0.25618300  1
  O  O20  1  0.70748200  0.86272500  0.07311500  1
  O  O21  1  0.94043800  0.29762000  0.46316000  1
  O  O22  1  0.97512100  0.44973000  0.26811000  1
  O  O23  1  0.91646700  0.27759900  0.06373500  1
loop_
_geom_bond_atom_site_label_1
_geom_bond_atom_site_label_2
_geom_bond_distance
_geom_bond_site_symmetry_2
K0 O16 2.856657 1_455
K0 O15 2.905158 1_555
K0 O5 2.908877 1_555
K0 O22 2.920642 1_455
K0 O16 2.920950 1_555
K0 O17 2.973605 1_455
K0 O17 3.072949 1_555
K0 O6 3.150165 1_565
K0 O2 3.155860 1_555
K1 O5 2.838352 1_555
K1 O18 2.979636 1_554
K1 O23 2.999178 1_555
K1 O20 3.059763 1_555
K1 O5 3.086309 1_655
K1 O0 3.165298 1_554
K1 O12 3.210224 1_555
K1 O7 3.290068 1_554
K2 O7 2.713115 1_655
K2 O17 2.732464 1_545
K2 O6 2.764631 1_555
K2 O18 2.820684 1_555
Li0 O5 1.792871 1_555
Li0 O20 1.920803 1_455
Li0 O10 1.961574 1_555
Li0 O0 2.116059 1_554
Li1 O18 1.872634 1_555
Li1 O13 2.024641 1_555
Li1 O23 2.124913 1_556
Li1 O3 2.153893 1_655
Li2 O17 1.992680 1_545
Li2 O19 2.114301 1_555
Li2 O21 2.246932 1_555
Li2 O9 2.301540 1_555
Li2 O16 2.509963 1_545
O0 P5 1.551087 1_455
O0 Sb2 2.317123 1_466
O1 P5 1.577427 1_455
O1 Sb0 2.014577 1_555
O2 P4 1.582478 1_455
O2 Sb0 2.017919 1_555
O3 P2 1.581112 1_555
O3 Sb2 2.186670 1_456
O4 P2 1.600349 1_565
O4 Sb0 1.981752 1_555
O5 P0 1.514132 1_555
O6 P1 1.509959 1_555
O7 P2 1.506826 1_555
O8 P1 1.596708 1_555
O8 Sb0 1.995258 1_555
O9 P1 1.573807 1_555
O9 Sb1 2.135363 1_555
O10 P3 1.562723 1_555
O10 Sb2 2.291032 1_465
O11 P5 1.582928 1_555
O11 Sb0 2.003852 1_555
O12 P0 1.575443 1_555
O12 Sb1 2.111234 1_555
O13 P2 1.557960 1_555
O13 Sb2 2.340467 1_556
O14 P4 1.576610 1_555
O14 Sb0 2.012408 1_555
O15 P4 1.555143 1_555
O15 Sb1 2.167196 1_555
O16 P3 1.523830 1_555
O17 P4 1.513063 1_555
O18 P5 1.515393 1_555
O19 P3 1.595615 1_545
O19 Sb1 2.143801 1_555
O20 P3 1.554934 1_555
O20 Sb2 2.393549 1_565
O21 P1 1.566099 1_655
O21 Sb1 2.245592 1_555
O22 P0 1.565082 1_655
O22 Sb1 2.154826 1_555
O23 P0 1.559755 1_655
O23 Sb2 2.310581 1_555
