# generated using pymatgen
data_Li3Fe4(BO3)4
_symmetry_space_group_name_H-M   'P 1'
_cell_length_a   5.23972100
_cell_length_b   9.02723822
_cell_length_c   10.25711474
_cell_angle_alpha   90.29004075
_cell_angle_beta   91.50471079
_cell_angle_gamma   90.01276379
_symmetry_Int_Tables_number   1
_chemical_formula_structural   Li3Fe4(BO3)4
_chemical_formula_sum   'Li6 Fe8 B8 O24'
_cell_volume   484.99013385
_cell_formula_units_Z   2
loop_
 _symmetry_equiv_pos_site_id
 _symmetry_equiv_pos_as_xyz
  1  'x, y, z'
loop_
 _atom_site_type_symbol
 _atom_site_label
 _atom_site_symmetry_multiplicity
 _atom_site_fract_x
 _atom_site_fract_y
 _atom_site_fract_z
 _atom_site_occupancy
  Li  Li0  1  0.66433700  0.00891700  0.16737200  1
  Li  Li1  1  0.34096100  0.00565000  0.91120700  1
  Li  Li2  1  0.83687100  0.50092200  0.89830700  1
  Li  Li3  1  0.16326600  0.51126700  0.15654100  1
  Li  Li4  1  0.66015500  0.99108700  0.66251300  1
  Li  Li5  1  0.34116100  0.99545800  0.41542700  1
  Fe  Fe0  1  0.84011500  0.16387800  0.88539100  1
  Fe  Fe1  1  0.15135800  0.17643200  0.63624500  1
  Fe  Fe2  1  0.66335300  0.34397000  0.13181100  1
  Fe  Fe3  1  0.33887000  0.33507900  0.37942800  1
  Fe  Fe4  1  0.66809400  0.66021000  0.63241900  1
  Fe  Fe5  1  0.85214200  0.82240300  0.37815300  1
  Fe  Fe6  1  0.33280400  0.65771400  0.87706800  1
  Fe  Fe7  1  0.15918900  0.84016400  0.12700800  1
  B  B0  1  0.82921700  0.16547300  0.37314700  1
  B  B1  1  0.65870500  0.32931700  0.62833800  1
  B  B2  1  0.16562000  0.16827800  0.12985700  1
  B  B3  1  0.33628500  0.33100800  0.88373900  1
  B  B4  1  0.66448200  0.67073200  0.12359700  1
  B  B5  1  0.34794600  0.66921600  0.37931500  1
  B  B6  1  0.83728600  0.83231600  0.87264300  1
  B  B7  1  0.17714000  0.83591400  0.62927300  1
  O  O0  1  0.70158100  0.03209000  0.36841400  1
  O  O1  1  0.90518100  0.16217000  0.09882300  1
  O  O2  1  0.31557900  0.04354500  0.11441200  1
  O  O3  1  0.77891700  0.19857100  0.66677900  1
  O  O4  1  0.69783400  0.29492700  0.34066400  1
  O  O5  1  0.22555300  0.19559200  0.84521000  1
  O  O6  1  0.08938000  0.17221700  0.40648400  1
  O  O7  1  0.59510000  0.33464600  0.92037900  1
  O  O8  1  0.77434300  0.46324300  0.65100900  1
  O  O9  1  0.41754200  0.32074600  0.56899700  1
  O  O10  1  0.27694400  0.30096800  0.17339500  1
  O  O11  1  0.81228900  0.54507200  0.11030500  1
  O  O12  1  0.19026300  0.45587100  0.88811800  1
  O  O13  1  0.72457900  0.69657300  0.83830400  1
  O  O14  1  0.58568900  0.67780400  0.44098300  1
  O  O15  1  0.23628200  0.53484900  0.34999500  1
  O  O16  1  0.40466400  0.66661300  0.09188100  1
  O  O17  1  0.91347900  0.82674200  0.60399100  1
  O  O18  1  0.77800400  0.80287600  0.16629800  1
  O  O19  1  0.31156900  0.71137500  0.66964200  1
  O  O20  1  0.22378000  0.80041600  0.34384600  1
  O  O21  1  0.69160600  0.95980600  0.86270900  1
  O  O22  1  0.09213800  0.83812200  0.91351200  1
  O  O23  1  0.30251400  0.96854300  0.61009200  1
loop_
_geom_bond_atom_site_label_1
_geom_bond_atom_site_label_2
_geom_bond_distance
_geom_bond_site_symmetry_2
Li0 O2 1.918857 1_555
Li0 O18 1.953203 1_545
Li0 O1 2.014078 1_555
Li0 O0 2.075723 1_555
Li1 O5 1.937695 1_555
Li1 O21 1.959740 1_545
Li1 O22 1.997137 1_545
Li1 O2 2.118104 1_556
Li2 O12 1.901338 1_655
Li2 O13 1.958788 1_555
Li2 O7 1.981607 1_555
Li2 O11 2.215804 1_556
Li2 O8 2.569973 1_555
Li3 O11 1.912054 1_455
Li3 O10 1.996769 1_555
Li3 O16 2.014693 1_555
Li3 O15 2.021107 1_555
Li4 O23 1.946273 1_555
Li4 O3 1.973455 1_565
Li4 O21 2.076440 1_555
Li4 O17 2.087317 1_555
Li5 O0 1.989342 1_565
Li5 O20 1.995017 1_555
Li5 O23 2.028048 1_555
Li5 O6 2.071477 1_565
Fe0 O21 2.009696 1_545
Fe0 O7 2.042757 1_555
Fe0 O5 2.091700 1_655
Fe0 O1 2.206852 1_556
Fe0 O3 2.279986 1_555
Fe1 O3 1.994485 1_455
Fe1 O9 2.043782 1_555
Fe1 O23 2.056171 1_545
Fe1 O5 2.174299 1_555
Fe1 O6 2.370604 1_555
Fe2 O11 1.991427 1_555
Fe2 O1 2.105056 1_555
Fe2 O10 2.116273 1_555
Fe2 O7 2.189879 1_554
Fe2 O4 2.192511 1_555
Fe3 O15 1.905165 1_555
Fe3 O4 1.966028 1_555
Fe3 O9 1.981907 1_555
Fe3 O6 1.992420 1_555
Fe3 O10 2.150235 1_555
Fe4 O8 1.872462 1_555
Fe4 O19 1.971022 1_555
Fe4 O17 2.005349 1_555
Fe4 O14 2.006482 1_555
Fe4 O13 2.148279 1_555
Fe5 O20 1.997642 1_655
Fe5 O14 2.030608 1_555
Fe5 O0 2.052761 1_565
Fe5 O18 2.203578 1_555
Fe5 O17 2.330392 1_555
Fe6 O12 1.973979 1_555
Fe6 O22 2.098026 1_555
Fe6 O13 2.130506 1_555
Fe6 O19 2.184424 1_555
Fe6 O16 2.226579 1_556
Fe7 O2 2.016494 1_565
Fe7 O16 2.063542 1_555
Fe7 O18 2.075640 1_455
Fe7 O22 2.208712 1_554
Fe7 O20 2.271267 1_555
B0 O0 1.377234 1_555
B0 O4 1.393854 1_555
B0 O6 1.397915 1_655
B1 O8 1.368308 1_555
B1 O9 1.390073 1_555
B1 O3 1.391856 1_555
B2 O2 1.384008 1_555
B2 O1 1.394113 1_455
B2 O10 1.398231 1_555
B3 O12 1.363672 1_555
B3 O7 1.398022 1_555
B3 O5 1.403535 1_555
B4 O11 1.381860 1_555
B4 O16 1.391814 1_555
B4 O18 1.396195 1_555
B5 O15 1.375064 1_555
B5 O14 1.384188 1_555
B5 O20 1.396656 1_555
B6 O21 1.383860 1_555
B6 O22 1.389961 1_655
B6 O13 1.399558 1_555
B7 O23 1.382947 1_555
B7 O19 1.386096 1_555
B7 O17 1.401281 1_455
