# generated using pymatgen
data_Hf2P2O9
_symmetry_space_group_name_H-M   'P 1'
_cell_length_a   5.42192214
_cell_length_b   5.42192214
_cell_length_c   11.81853649
_cell_angle_alpha   90.00000000
_cell_angle_beta   90.00000000
_cell_angle_gamma   105.36229525
_symmetry_Int_Tables_number   1
_chemical_formula_structural   Hf2P2O9
_chemical_formula_sum   'Hf4 P4 O18'
_cell_volume   335.01857556
_cell_formula_units_Z   2
loop_
 _symmetry_equiv_pos_site_id
 _symmetry_equiv_pos_as_xyz
  1  'x, y, z'
loop_
 _atom_site_type_symbol
 _atom_site_label
 _atom_site_symmetry_multiplicity
 _atom_site_fract_x
 _atom_site_fract_y
 _atom_site_fract_z
 _atom_site_occupancy
  Hf  Hf0  1  0.20604227  0.79395773  0.56207869  1
  Hf  Hf1  1  0.79395773  0.20604227  0.43792131  1
  Hf  Hf2  1  0.29395773  0.70604227  0.06207869  1
  Hf  Hf3  1  0.70604227  0.29395773  0.93792131  1
  P  P0  1  0.10632458  0.89367542  0.85252868  1
  P  P1  1  0.89367542  0.10632458  0.14747132  1
  P  P2  1  0.39367542  0.60632458  0.35252868  1
  P  P3  1  0.60632458  0.39367542  0.64747132  1
  O  O0  1  0.63242370  0.01458431  0.08493654  1
  O  O1  1  0.13242370  0.51458431  0.41506346  1
  O  O2  1  0.51458431  0.13242370  0.58493654  1
  O  O3  1  0.01458431  0.63242370  0.91506346  1
  O  O4  1  0.50000000  0.50000000  0.00000000  1
  O  O5  1  0.86211949  0.13788051  0.27237753  1
  O  O6  1  0.63788051  0.36211949  0.77237753  1
  O  O7  1  0.00000000  0.00000000  0.50000000  1
  O  O8  1  0.56452694  0.43547306  0.37693925  1
  O  O9  1  0.93547306  0.06452694  0.87693925  1
  O  O10  1  0.43547306  0.56452694  0.62306075  1
  O  O11  1  0.06452694  0.93547306  0.12306075  1
  O  O12  1  0.13788051  0.86211949  0.72762247  1
  O  O13  1  0.36211949  0.63788051  0.22762247  1
  O  O14  1  0.48541569  0.86757630  0.41506346  1
  O  O15  1  0.36757630  0.98541569  0.91506346  1
  O  O16  1  0.98541569  0.36757630  0.08493654  1
  O  O17  1  0.86757630  0.48541569  0.58493654  1
loop_
_geom_bond_atom_site_label_1
_geom_bond_atom_site_label_2
_geom_bond_distance
_geom_bond_site_symmetry_2
Hf0 O7 1.922385 1_565
Hf0 O12 2.042881 1_555
Hf0 O10 2.105750 1_555
Hf0 O17 2.147710 1_455
Hf0 O2 2.147710 1_565
Hf0 O14 2.269876 1_555
Hf0 O1 2.269876 1_555
Hf1 O7 1.922385 1_655
Hf1 O5 2.042881 1_555
Hf1 O8 2.105750 1_555
Hf1 O1 2.147710 1_655
Hf1 O14 2.147710 1_545
Hf1 O2 2.269876 1_555
Hf1 O17 2.269876 1_555
Hf2 O4 1.922385 1_555
Hf2 O13 2.042881 1_555
Hf2 O11 2.105750 1_555
Hf2 O16 2.147710 1_455
Hf2 O0 2.147710 1_565
Hf2 O3 2.269876 1_554
Hf2 O15 2.269876 1_554
Hf3 O4 1.922385 1_556
Hf3 O6 2.042881 1_555
Hf3 O9 2.105750 1_555
Hf3 O15 2.147710 1_545
Hf3 O3 2.147710 1_655
Hf3 O16 2.269876 1_556
Hf3 O0 2.269876 1_556
O0 P1 1.557806 1_555
O1 P2 1.557806 1_555
O2 P3 1.557806 1_555
O3 P0 1.557806 1_555
O5 P1 1.501082 1_555
O6 P3 1.501082 1_555
O8 P2 1.501373 1_555
O9 P0 1.501373 1_645
O10 P3 1.501373 1_555
O11 P1 1.501373 1_465
O12 P0 1.501082 1_555
O13 P2 1.501082 1_555
O14 P2 1.557806 1_555
O15 P0 1.557806 1_555
O16 P1 1.557806 1_555
O17 P3 1.557806 1_555
