# generated using pymatgen
data_UP3H7O8
_symmetry_space_group_name_H-M   'P 1'
_cell_length_a   7.25255200
_cell_length_b   7.34379800
_cell_length_c   17.74345900
_cell_angle_alpha   90.00000000
_cell_angle_beta   90.00000000
_cell_angle_gamma   90.00000000
_symmetry_Int_Tables_number   1
_chemical_formula_structural   UP3H7O8
_chemical_formula_sum   'U4 P12 H28 O32'
_cell_volume   945.03928247
_cell_formula_units_Z   4
loop_
 _symmetry_equiv_pos_site_id
 _symmetry_equiv_pos_as_xyz
  1  'x, y, z'
loop_
 _atom_site_type_symbol
 _atom_site_label
 _atom_site_symmetry_multiplicity
 _atom_site_fract_x
 _atom_site_fract_y
 _atom_site_fract_z
 _atom_site_occupancy
  U  U0  1  0.80452300  0.52104700  0.12321000  1
  U  U1  1  0.69547700  0.47895300  0.62321000  1
  U  U2  1  0.30452300  0.97895300  0.87679000  1
  U  U3  1  0.19547700  0.02104700  0.37679000  1
  P  P0  1  0.36781300  0.80522600  0.12674900  1
  P  P1  1  0.13218700  0.19477400  0.62674900  1
  P  P2  1  0.86781300  0.69477400  0.87325100  1
  P  P3  1  0.63218700  0.30522600  0.37325100  1
  P  P4  1  0.44142500  0.38799700  0.97483800  1
  P  P5  1  0.05857500  0.61200300  0.47483800  1
  P  P6  1  0.94142500  0.11200300  0.02516200  1
  P  P7  1  0.55857500  0.88799700  0.52516200  1
  P  P8  1  0.21142900  0.35470500  0.22761000  1
  P  P9  1  0.28857100  0.64529500  0.72761000  1
  P  P10  1  0.71142900  0.14529500  0.77239000  1
  P  P11  1  0.78857100  0.85470500  0.27239000  1
  H  H0  1  0.22670900  0.80393100  0.18087900  1
  H  H1  1  0.27329100  0.19606900  0.68087900  1
  H  H2  1  0.72670900  0.69606900  0.81912100  1
  H  H3  1  0.77329100  0.30393100  0.31912100  1
  H  H4  1  0.29452000  0.73179200  0.05990100  1
  H  H5  1  0.20548000  0.26820800  0.55990100  1
  H  H6  1  0.79452000  0.76820800  0.94009900  1
  H  H7  1  0.70548000  0.23179200  0.44009900  1
  H  H8  1  0.41692100  0.06667400  0.06002200  1
  H  H9  1  0.08307900  0.93332600  0.56002200  1
  H  H10  1  0.91692100  0.43332600  0.93997800  1
  H  H11  1  0.58307900  0.56667400  0.43997800  1
  H  H12  1  0.48576900  0.44017400  0.90031100  1
  H  H13  1  0.01423100  0.55982600  0.40031100  1
  H  H14  1  0.98576900  0.05982600  0.09968900  1
  H  H15  1  0.51423100  0.94017400  0.59968900  1
  H  H16  1  0.26238300  0.45686500  0.98796700  1
  H  H17  1  0.23761700  0.54313500  0.48796700  1
  H  H18  1  0.76238300  0.04313500  0.01203300  1
  H  H19  1  0.73761700  0.95686500  0.51203300  1
  H  H20  1  0.22694900  0.49511800  0.28185600  1
  H  H21  1  0.27305100  0.50488200  0.78185600  1
  H  H22  1  0.72694900  0.00488200  0.71814400  1
  H  H23  1  0.77305100  0.99511800  0.21814400  1
  H  H24  1  0.39230200  0.31976100  0.20260700  1
  H  H25  1  0.10769800  0.68023900  0.70260700  1
  H  H26  1  0.89230200  0.18023900  0.79739300  1
  H  H27  1  0.60769800  0.81976100  0.29739300  1
  O  O0  1  0.71298200  0.32807600  0.17437900  1
  O  O1  1  0.78701800  0.67192400  0.67437900  1
  O  O2  1  0.21298200  0.17192400  0.82562100  1
  O  O3  1  0.28701800  0.82807600  0.32562100  1
  O  O4  1  0.89706100  0.71038900  0.06891400  1
  O  O5  1  0.60293900  0.28961100  0.56891400  1
  O  O6  1  0.39706100  0.78961100  0.93108600  1
  O  O7  1  0.10293900  0.21038900  0.43108600  1
  O  O8  1  0.53248000  0.69911500  0.15572900  1
  O  O9  1  0.96752000  0.30088500  0.65572900  1
  O  O10  1  0.03248000  0.80088500  0.84427100  1
  O  O11  1  0.46752000  0.19911500  0.34427100  1
  O  O12  1  0.40163700  0.01431800  0.11242400  1
  O  O13  1  0.09836300  0.98568200  0.61242400  1
  O  O14  1  0.90163700  0.48568200  0.88757600  1
  O  O15  1  0.59836300  0.51431800  0.38757600  1
  O  O16  1  0.57640900  0.47451400  0.02982400  1
  O  O17  1  0.92359100  0.52548600  0.52982400  1
  O  O18  1  0.07640900  0.02548600  0.97017600  1
  O  O19  1  0.42359100  0.97451400  0.47017600  1
  O  O20  1  0.43007700  0.17781900  0.97765300  1
  O  O21  1  0.06992300  0.82218100  0.47765300  1
  O  O22  1  0.93007700  0.32218100  0.02234700  1
  O  O23  1  0.56992300  0.67781900  0.52234700  1
  O  O24  1  0.10179300  0.43054300  0.16048600  1
  O  O25  1  0.39820700  0.56945700  0.66048600  1
  O  O26  1  0.60179300  0.06945700  0.83951400  1
  O  O27  1  0.89820700  0.93054300  0.33951400  1
  O  O28  1  0.13201000  0.18313400  0.26520900  1
  O  O29  1  0.36799000  0.81686600  0.76520900  1
  O  O30  1  0.63201000  0.31686600  0.73479100  1
  O  O31  1  0.86799000  0.68313400  0.23479100  1
loop_
_geom_bond_atom_site_label_1
_geom_bond_atom_site_label_2
_geom_bond_distance
_geom_bond_site_symmetry_2
H0 P0 1.403508 1_555
H1 P1 1.403508 1_555
H2 P2 1.403508 1_555
H3 P3 1.403508 1_555
H4 P0 1.407215 1_555
H5 P1 1.407215 1_555
H6 P2 1.407215 1_555
H7 P3 1.407215 1_555
H8 O12 1.012243 1_555
H8 O20 1.676706 1_554
H9 O13 1.012243 1_555
H9 O21 1.676706 1_555
H10 O14 1.012243 1_555
H10 O22 1.676706 1_556
H11 O15 1.012243 1_555
H11 O23 1.676706 1_555
H12 P4 1.413828 1_555
H13 P5 1.413828 1_555
H14 P6 1.413828 1_555
H15 P7 1.413828 1_555
H16 P4 1.412864 1_555
H17 P5 1.412864 1_555
H18 P6 1.412864 1_555
H19 P7 1.412864 1_555
H20 P8 1.415062 1_555
H21 P9 1.415062 1_555
H22 P10 1.415062 1_555
H23 P11 1.415062 1_555
H24 P8 1.408356 1_555
H25 P9 1.408356 1_555
H26 P10 1.408356 1_555
H27 P11 1.408356 1_555
O0 U0 1.809245 1_555
O1 U1 1.809245 1_555
O2 U2 1.809245 1_545
O3 U3 1.809245 1_565
O4 U0 1.819896 1_555
O5 U1 1.819896 1_555
O6 U2 1.819896 1_555
O7 U3 1.819896 1_555
O8 P0 1.515882 1_555
O8 U0 2.436339 1_555
O9 P1 1.515882 1_655
O9 U1 2.436339 1_555
O10 P2 1.515882 1_455
O10 U2 2.436339 1_555
O11 P3 1.515882 1_555
O11 U3 2.436339 1_555
O12 P0 1.575637 1_545
O13 P1 1.575637 1_565
O14 P2 1.575637 1_555
O15 P3 1.575637 1_555
O16 P4 1.521171 1_554
O16 U0 2.366319 1_555
O17 P5 1.521171 1_655
O17 U1 2.366319 1_555
O18 P6 1.521171 1_456
O18 U2 2.366319 1_545
O19 P7 1.521171 1_555
O19 U3 2.366319 1_565
O20 P4 1.546504 1_555
O20 U2 2.482923 1_545
O21 P5 1.546504 1_555
O21 U3 2.482923 1_565
O22 P6 1.546504 1_555
O22 U0 2.482923 1_555
O23 P7 1.546504 1_555
O23 U1 2.482923 1_555
O24 P8 1.536535 1_555
O24 U0 2.351042 1_455
O25 P9 1.536535 1_555
O25 U1 2.351042 1_555
O26 P10 1.536535 1_555
O26 U2 2.351042 1_545
O27 P11 1.536535 1_555
O27 U3 2.351042 1_665
O28 P8 1.537658 1_555
O28 U3 2.355527 1_555
O29 P9 1.537658 1_555
O29 U2 2.355527 1_555
O30 P10 1.537658 1_555
O30 U1 2.355527 1_555
O31 P11 1.537658 1_555
O31 U0 2.355527 1_555
