# generated using pymatgen
data_CsLa3O5
_symmetry_space_group_name_H-M   'P 1'
_cell_length_a   3.80008000
_cell_length_b   10.95194600
_cell_length_c   18.68272900
_cell_angle_alpha   90.00000000
_cell_angle_beta   90.00000000
_cell_angle_gamma   90.00000000
_symmetry_Int_Tables_number   1
_chemical_formula_structural   CsLa3O5
_chemical_formula_sum   'Cs4 La12 O20'
_cell_volume   777.54287771
_cell_formula_units_Z   4
loop_
 _symmetry_equiv_pos_site_id
 _symmetry_equiv_pos_as_xyz
  1  'x, y, z'
loop_
 _atom_site_type_symbol
 _atom_site_label
 _atom_site_symmetry_multiplicity
 _atom_site_fract_x
 _atom_site_fract_y
 _atom_site_fract_z
 _atom_site_occupancy
  Cs  Cs0  1  0.75000000  0.03116000  0.62583500  1
  Cs  Cs1  1  0.25000000  0.46884000  0.12583500  1
  Cs  Cs2  1  0.75000000  0.53116000  0.87416500  1
  Cs  Cs3  1  0.25000000  0.96884000  0.37416500  1
  La  La0  1  0.75000000  0.11140900  0.16412800  1
  La  La1  1  0.25000000  0.15415000  0.98914100  1
  La  La2  1  0.75000000  0.18465100  0.81679000  1
  La  La3  1  0.25000000  0.31534900  0.31679000  1
  La  La4  1  0.75000000  0.34585000  0.48914100  1
  La  La5  1  0.25000000  0.38859100  0.66412800  1
  La  La6  1  0.75000000  0.61140900  0.33587200  1
  La  La7  1  0.25000000  0.65415000  0.51085900  1
  La  La8  1  0.75000000  0.68465100  0.68321000  1
  La  La9  1  0.25000000  0.81534900  0.18321000  1
  La  La10  1  0.75000000  0.84585000  0.01085900  1
  La  La11  1  0.25000000  0.88859100  0.83587200  1
  O  O0  1  0.75000000  0.02324800  0.92043900  1
  O  O1  1  0.25000000  0.06981700  0.77128300  1
  O  O2  1  0.25000000  0.19278700  0.21426300  1
  O  O3  1  0.75000000  0.22518900  0.05223300  1
  O  O4  1  0.75000000  0.22980200  0.38476700  1
  O  O5  1  0.25000000  0.27019800  0.88476700  1
  O  O6  1  0.25000000  0.27481100  0.55223300  1
  O  O7  1  0.75000000  0.30721300  0.71426300  1
  O  O8  1  0.75000000  0.43018300  0.27128300  1
  O  O9  1  0.25000000  0.47675200  0.42043900  1
  O  O10  1  0.75000000  0.52324800  0.57956100  1
  O  O11  1  0.25000000  0.56981700  0.72871700  1
  O  O12  1  0.25000000  0.69278700  0.28573700  1
  O  O13  1  0.75000000  0.72518900  0.44776700  1
  O  O14  1  0.75000000  0.72980200  0.11523300  1
  O  O15  1  0.25000000  0.77019800  0.61523300  1
  O  O16  1  0.25000000  0.77481100  0.94776700  1
  O  O17  1  0.75000000  0.80721300  0.78573700  1
  O  O18  1  0.75000000  0.93018300  0.22871700  1
  O  O19  1  0.25000000  0.97675200  0.07956100  1
loop_
_geom_bond_atom_site_label_1
_geom_bond_atom_site_label_2
_geom_bond_distance
_geom_bond_site_symmetry_2
Cs0 O1 3.342674 1_555
Cs0 O1 3.342674 1_655
Cs0 O15 3.437701 1_545
Cs0 O15 3.437701 1_645
Cs0 O7 3.445258 1_555
Cs0 O6 3.552697 1_555
Cs0 O6 3.552697 1_655
Cs1 O8 3.342674 1_555
Cs1 O8 3.342674 1_455
Cs1 O14 3.437701 1_455
Cs1 O14 3.437701 1_555
Cs1 O2 3.445258 1_555
Cs1 O3 3.552697 1_555
Cs1 O3 3.552697 1_455
Cs2 O11 3.342674 1_655
Cs2 O11 3.342674 1_555
Cs2 O5 3.437701 1_655
Cs2 O5 3.437701 1_555
Cs2 O17 3.445258 1_555
Cs2 O16 3.552697 1_655
Cs2 O16 3.552697 1_555
Cs3 O18 3.342674 1_455
Cs3 O18 3.342674 1_555
Cs3 O4 3.437701 1_565
Cs3 O4 3.437701 1_465
Cs3 O12 3.445258 1_555
Cs3 O13 3.552697 1_455
Cs3 O13 3.552697 1_555
La0 O2 2.298217 1_655
La0 O2 2.298217 1_555
La0 O18 2.322814 1_545
La0 O3 2.433722 1_555
La0 O19 2.877721 1_545
La0 O19 2.877721 1_645
La1 O5 2.327613 1_555
La1 O3 2.367460 1_456
La1 O3 2.367460 1_556
La1 O19 2.574566 1_546
La1 O0 2.704243 1_455
La1 O0 2.704243 1_555
La2 O7 2.338980 1_555
La2 O1 2.432012 1_555
La2 O1 2.432012 1_655
La2 O5 2.469987 1_555
La2 O5 2.469987 1_655
La2 O0 2.621928 1_555
La3 O2 2.338980 1_555
La3 O8 2.432012 1_555
La3 O8 2.432012 1_455
La3 O4 2.469987 1_455
La3 O4 2.469987 1_555
La3 O9 2.621928 1_555
La4 O4 2.327613 1_555
La4 O6 2.367460 1_555
La4 O6 2.367460 1_655
La4 O10 2.574566 1_555
La4 O9 2.704243 1_555
La4 O9 2.704243 1_655
La5 O7 2.298217 1_555
La5 O7 2.298217 1_455
La5 O11 2.322814 1_555
La5 O6 2.433722 1_555
La5 O10 2.877721 1_455
La5 O10 2.877721 1_555
La6 O12 2.298217 1_655
La6 O12 2.298217 1_555
La6 O8 2.322814 1_555
La6 O13 2.433722 1_555
La6 O9 2.877721 1_555
La6 O9 2.877721 1_655
La7 O15 2.327613 1_555
La7 O13 2.367460 1_455
La7 O13 2.367460 1_555
La7 O9 2.574566 1_555
La7 O10 2.704243 1_455
La7 O10 2.704243 1_555
La8 O17 2.338980 1_555
La8 O11 2.432012 1_655
La8 O11 2.432012 1_555
La8 O15 2.469987 1_555
La8 O15 2.469987 1_655
La8 O10 2.621928 1_555
La9 O12 2.338980 1_555
La9 O18 2.432012 1_555
La9 O18 2.432012 1_455
La9 O14 2.469987 1_455
La9 O14 2.469987 1_555
La9 O19 2.621928 1_555
La10 O14 2.327613 1_555
La10 O16 2.367460 1_654
La10 O16 2.367460 1_554
La10 O0 2.574566 1_564
La10 O19 2.704243 1_655
La10 O19 2.704243 1_555
La11 O17 2.298217 1_455
La11 O17 2.298217 1_555
La11 O1 2.322814 1_565
La11 O16 2.433722 1_555
La11 O0 2.877721 1_465
La11 O0 2.877721 1_565
