# generated using pymatgen
data_RbLuO2
_symmetry_space_group_name_H-M   'P 1'
_cell_length_a   6.76151104
_cell_length_b   6.76151104
_cell_length_c   6.76150990
_cell_angle_alpha   28.92188970
_cell_angle_beta   28.92188970
_cell_angle_gamma   28.92188970
_symmetry_Int_Tables_number   1
_chemical_formula_structural   RbLuO2
_chemical_formula_sum   'Rb1 Lu1 O2'
_cell_volume   63.94085687
_cell_formula_units_Z   1
loop_
 _symmetry_equiv_pos_site_id
 _symmetry_equiv_pos_as_xyz
  1  'x, y, z'
loop_
 _atom_site_type_symbol
 _atom_site_label
 _atom_site_symmetry_multiplicity
 _atom_site_fract_x
 _atom_site_fract_y
 _atom_site_fract_z
 _atom_site_occupancy
  Rb  Rb0  1  0.00000000  0.00000000  0.00000000  1
  Lu  Lu0  1  0.50000000  0.50000000  0.50000000  1
  O  O0  1  0.77607584  0.77607584  0.77607584  1
  O  O1  1  0.22392416  0.22392416  0.22392416  1
loop_
_geom_bond_atom_site_label_1
_geom_bond_atom_site_label_2
_geom_bond_distance
_geom_bond_site_symmetry_2
Lu0 O1 2.244569 1_556
Lu0 O0 2.244569 1_554
Lu0 O1 2.244570 1_565
Lu0 O0 2.244570 1_455
Lu0 O1 2.244570 1_655
Lu0 O0 2.244570 1_545
O0 Rb0 2.883943 1_665
O0 Rb0 2.883944 1_656
O0 Rb0 2.883944 1_566
O1 Rb0 2.883943 1_556
O1 Rb0 2.883944 1_655
O1 Rb0 2.883944 1_565
