# generated using pymatgen
data_Na2B5H3O10
_symmetry_space_group_name_H-M   'P 1'
_cell_length_a   6.62523500
_cell_length_b   11.27941000
_cell_length_c   21.07645144
_cell_angle_alpha   86.23622001
_cell_angle_beta   90.00000000
_cell_angle_gamma   90.00000000
_symmetry_Int_Tables_number   1
_chemical_formula_structural   Na2B5H3O10
_chemical_formula_sum   'Na16 B40 H24 O80'
_cell_volume   1571.61964804
_cell_formula_units_Z   8
loop_
 _symmetry_equiv_pos_site_id
 _symmetry_equiv_pos_as_xyz
  1  'x, y, z'
loop_
 _atom_site_type_symbol
 _atom_site_label
 _atom_site_symmetry_multiplicity
 _atom_site_fract_x
 _atom_site_fract_y
 _atom_site_fract_z
 _atom_site_occupancy
  Na  Na0  1  0.00435000  0.06025800  0.27464300  1
  Na  Na1  1  0.50435000  0.93974200  0.22535700  1
  Na  Na2  1  0.99565000  0.93974200  0.72535700  1
  Na  Na3  1  0.49565000  0.06025800  0.77464300  1
  Na  Na4  1  0.61079100  0.43815400  0.23521300  1
  Na  Na5  1  0.11079100  0.56184600  0.26478700  1
  Na  Na6  1  0.38920900  0.56184600  0.76478700  1
  Na  Na7  1  0.88920900  0.43815400  0.73521300  1
  Na  Na8  1  0.04960700  0.15456900  0.45756200  1
  Na  Na9  1  0.54960700  0.84543100  0.04243800  1
  Na  Na10  1  0.95039300  0.84543100  0.54243800  1
  Na  Na11  1  0.45039300  0.15456900  0.95756200  1
  Na  Na12  1  0.34992900  0.47073600  0.40404800  1
  Na  Na13  1  0.84992900  0.52926400  0.09595200  1
  Na  Na14  1  0.65007100  0.52926400  0.59595200  1
  Na  Na15  1  0.15007100  0.47073600  0.90404800  1
  B  B0  1  0.28756200  0.25853800  0.33654000  1
  B  B1  1  0.78756200  0.74146200  0.16346000  1
  B  B2  1  0.71243800  0.74146200  0.66346000  1
  B  B3  1  0.21243800  0.25853800  0.83654000  1
  B  B4  1  0.64179900  0.20260200  0.33075900  1
  B  B5  1  0.14179900  0.79739800  0.16924100  1
  B  B6  1  0.35820100  0.79739800  0.66924100  1
  B  B7  1  0.85820100  0.20260200  0.83075900  1
  B  B8  1  0.38765900  0.04228100  0.35504000  1
  B  B9  1  0.88765900  0.95771900  0.14496000  1
  B  B10  1  0.61234100  0.95771900  0.64496000  1
  B  B11  1  0.11234100  0.04228100  0.85504000  1
  B  B12  1  0.33370500  0.88995000  0.44624400  1
  B  B13  1  0.83370500  0.11005000  0.05375600  1
  B  B14  1  0.66629500  0.11005000  0.55375600  1
  B  B15  1  0.16629500  0.88995000  0.94624400  1
  B  B16  1  0.21548800  0.83954300  0.33891300  1
  B  B17  1  0.71548800  0.16045700  0.16108700  1
  B  B18  1  0.78451200  0.16045700  0.66108700  1
  B  B19  1  0.28451200  0.83954300  0.83891300  1
  B  B20  1  0.50259900  0.70378900  0.31516700  1
  B  B21  1  0.00259900  0.29621100  0.18483300  1
  B  B22  1  0.49740100  0.29621100  0.68483300  1
  B  B23  1  0.99740100  0.70378900  0.81516700  1
  B  B24  1  0.85401200  0.76133200  0.32678000  1
  B  B25  1  0.35401200  0.23866800  0.17322000  1
  B  B26  1  0.14598800  0.23866800  0.67322000  1
  B  B27  1  0.64598800  0.76133200  0.82678000  1
  B  B28  1  0.75533700  0.54879100  0.35405400  1
  B  B29  1  0.25533700  0.45120900  0.14594600  1
  B  B30  1  0.24466300  0.45120900  0.64594600  1
  B  B31  1  0.74466300  0.54879100  0.85405400  1
  B  B32  1  0.81411900  0.42241600  0.45444100  1
  B  B33  1  0.31411900  0.57758400  0.04555900  1
  B  B34  1  0.18588100  0.57758400  0.54555900  1
  B  B35  1  0.68588100  0.42241600  0.95444100  1
  B  B36  1  0.93007300  0.34656000  0.35076700  1
  B  B37  1  0.43007300  0.65344000  0.14923300  1
  B  B38  1  0.06992700  0.65344000  0.64923300  1
  B  B39  1  0.56992700  0.34656000  0.85076700  1
  H  H0  1  0.31331700  0.36162600  0.51976200  1
  H  H1  1  0.81331700  0.63837400  0.98023800  1
  H  H2  1  0.68668300  0.63837400  0.48023800  1
  H  H3  1  0.18668300  0.36162600  0.01976200  1
  H  H4  1  0.46215000  0.27009600  0.49029300  1
  H  H5  1  0.96215000  0.72990400  0.00970700  1
  H  H6  1  0.53785000  0.72990400  0.50970700  1
  H  H7  1  0.03785000  0.27009600  0.99029300  1
  H  H8  1  0.73156800  0.97346700  0.43144700  1
  H  H9  1  0.23156800  0.02653300  0.06855300  1
  H  H10  1  0.26843200  0.02653300  0.56855300  1
  H  H11  1  0.76843200  0.97346700  0.93144700  1
  H  H12  1  0.92086500  0.93005000  0.39783200  1
  H  H13  1  0.42086500  0.06995000  0.10216800  1
  H  H14  1  0.07913500  0.06995000  0.60216800  1
  H  H15  1  0.57913500  0.93005000  0.89783200  1
  H  H16  1  0.44323000  0.90585800  0.53365000  1
  H  H17  1  0.94323000  0.09414200  0.96635000  1
  H  H18  1  0.55677000  0.09414200  0.46635000  1
  H  H19  1  0.05677000  0.90585800  0.03365000  1
  H  H20  1  0.82361300  0.33137100  0.54210100  1
  H  H21  1  0.32361300  0.66862900  0.95789900  1
  H  H22  1  0.17638700  0.66862900  0.45789900  1
  H  H23  1  0.67638700  0.33137100  0.04210100  1
  O  O0  1  0.15056000  0.34945800  0.33199200  1
  O  O1  1  0.65056000  0.65054200  0.16800800  1
  O  O2  1  0.84944000  0.65054200  0.66800800  1
  O  O3  1  0.34944000  0.34945800  0.83199200  1
  O  O4  1  0.48983800  0.29100500  0.32500700  1
  O  O5  1  0.98983800  0.70899500  0.17499300  1
  O  O6  1  0.51016200  0.70899500  0.67499300  1
  O  O7  1  0.01016200  0.29100500  0.82500700  1
  O  O8  1  0.84002100  0.23316500  0.33265900  1
  O  O9  1  0.34002100  0.76683500  0.16734100  1
  O  O10  1  0.15997900  0.76683500  0.66734100  1
  O  O11  1  0.65997900  0.23316500  0.83265900  1
  O  O12  1  0.23916300  0.14325500  0.35448200  1
  O  O13  1  0.73916300  0.85674500  0.14551800  1
  O  O14  1  0.76083700  0.85674500  0.64551800  1
  O  O15  1  0.26083700  0.14325500  0.85448200  1
  O  O16  1  0.58829400  0.08477400  0.33373500  1
  O  O17  1  0.08829400  0.91522600  0.16626500  1
  O  O18  1  0.41170600  0.91522600  0.66626500  1
  O  O19  1  0.91170600  0.08477400  0.83373500  1
  O  O20  1  0.30892000  0.95149700  0.31710600  1
  O  O21  1  0.80892000  0.04850300  0.18289400  1
  O  O22  1  0.69108000  0.04850300  0.68289400  1
  O  O23  1  0.19108000  0.95149700  0.81710600  1
  O  O24  1  0.41183400  0.99846700  0.42437400  1
  O  O25  1  0.91183400  0.00153300  0.07562600  1
  O  O26  1  0.58816600  0.00153300  0.57562600  1
  O  O27  1  0.08816600  0.99846700  0.92437400  1
  O  O28  1  0.23368500  0.81504400  0.40951000  1
  O  O29  1  0.73368500  0.18495600  0.09049000  1
  O  O30  1  0.76631500  0.18495600  0.59049000  1
  O  O31  1  0.26631500  0.81504400  0.90951000  1
  O  O32  1  0.35628500  0.85193600  0.50997500  1
  O  O33  1  0.85628500  0.14806400  0.99002500  1
  O  O34  1  0.64371500  0.14806400  0.49002500  1
  O  O35  1  0.14371500  0.85193600  0.00997500  1
  O  O36  1  0.99436800  0.85084500  0.32307300  1
  O  O37  1  0.49436800  0.14915500  0.17692700  1
  O  O38  1  0.00563200  0.14915500  0.67692700  1
  O  O39  1  0.50563200  0.85084500  0.82307300  1
  O  O40  1  0.30416700  0.73566600  0.30922000  1
  O  O41  1  0.80416700  0.26433400  0.19078000  1
  O  O42  1  0.69583300  0.26433400  0.69078000  1
  O  O43  1  0.19583300  0.73566600  0.80922000  1
  O  O44  1  0.65449000  0.79095400  0.30946800  1
  O  O45  1  0.15449000  0.20904600  0.19053200  1
  O  O46  1  0.34551000  0.20904600  0.69053200  1
  O  O47  1  0.84551000  0.79095400  0.80946800  1
  O  O48  1  0.55259700  0.58559000  0.32677400  1
  O  O49  1  0.05259700  0.41441000  0.17322600  1
  O  O50  1  0.44740300  0.41441000  0.67322600  1
  O  O51  1  0.94740300  0.58559000  0.82677400  1
  O  O52  1  0.90165000  0.64780300  0.34687600  1
  O  O53  1  0.40165000  0.35219700  0.15312400  1
  O  O54  1  0.09835000  0.35219700  0.65312400  1
  O  O55  1  0.59835000  0.64780300  0.84687600  1
  O  O56  1  0.83410300  0.45088000  0.32059800  1
  O  O57  1  0.33410300  0.54912000  0.17940200  1
  O  O58  1  0.16589700  0.54912000  0.67940200  1
  O  O59  1  0.66589700  0.45088000  0.82059800  1
  O  O60  1  0.71908100  0.51929100  0.42370900  1
  O  O61  1  0.21908100  0.48070900  0.07629100  1
  O  O62  1  0.28091900  0.48070900  0.57629100  1
  O  O63  1  0.78091900  0.51929100  0.92370900  1
  O  O64  1  0.78926700  0.40898600  0.52005100  1
  O  O65  1  0.28926700  0.59101400  0.97994900  1
  O  O66  1  0.21073300  0.59101400  0.47994900  1
  O  O67  1  0.71073300  0.40898600  0.02005100  1
  O  O68  1  0.92568000  0.34514500  0.42179500  1
  O  O69  1  0.42568000  0.65485500  0.07820500  1
  O  O70  1  0.07432000  0.65485500  0.57820500  1
  O  O71  1  0.57432000  0.34514500  0.92179500  1
  O  O72  1  0.33327200  0.31279800  0.48293600  1
  O  O73  1  0.83327200  0.68720200  0.01706400  1
  O  O74  1  0.66672800  0.68720200  0.51706400  1
  O  O75  1  0.16672800  0.31279800  0.98293600  1
  O  O76  1  0.87596500  0.96005100  0.43843800  1
  O  O77  1  0.37596500  0.03994900  0.06156200  1
  O  O78  1  0.12403500  0.03994900  0.56156200  1
  O  O79  1  0.62403500  0.96005100  0.93843800  1
loop_
_geom_bond_atom_site_label_1
_geom_bond_atom_site_label_2
_geom_bond_distance
_geom_bond_site_symmetry_2
Na0 O21 2.338169 1_455
Na0 O20 2.496694 1_545
Na0 O36 2.511780 1_445
Na0 O12 2.516930 1_555
Na0 O45 2.560866 1_555
Na0 O8 2.607142 1_455
Na1 O20 2.338169 1_555
Na1 O21 2.496694 1_565
Na1 O37 2.511780 1_565
Na1 O13 2.516930 1_555
Na1 O44 2.560866 1_555
Na1 O9 2.607142 1_555
Na2 O23 2.338169 1_655
Na2 O22 2.496694 1_565
Na2 O38 2.511780 1_665
Na2 O14 2.516930 1_555
Na2 O47 2.560866 1_555
Na2 O10 2.607142 1_655
Na3 O22 2.338169 1_555
Na3 O23 2.496694 1_545
Na3 O39 2.511780 1_545
Na3 O15 2.516930 1_555
Na3 O46 2.560866 1_555
Na3 O11 2.607142 1_555
Na4 O56 2.341373 1_555
Na4 O53 2.464458 1_555
Na4 O57 2.473319 1_555
Na4 O4 2.562469 1_555
Na4 O41 2.569697 1_555
Na4 O48 2.656985 1_555
Na4 O1 2.714627 1_555
Na5 O57 2.341373 1_555
Na5 O52 2.464458 1_455
Na5 O56 2.473319 1_455
Na5 O5 2.562469 1_455
Na5 O40 2.569697 1_555
Na5 O49 2.656985 1_555
Na5 O0 2.714627 1_555
Na6 O58 2.341373 1_555
Na6 O55 2.464458 1_555
Na6 O59 2.473319 1_555
Na6 O6 2.562469 1_555
Na6 O43 2.569697 1_555
Na6 O50 2.656985 1_555
Na6 O3 2.714627 1_555
Na7 O59 2.341373 1_555
Na7 O54 2.464458 1_655
Na7 O58 2.473319 1_655
Na7 O7 2.562469 1_655
Na7 O42 2.569697 1_555
Na7 O51 2.656985 1_555
Na7 O2 2.714627 1_555
Na8 O68 2.377050 1_455
Na8 O78 2.519366 1_555
Na8 O12 2.519895 1_555
Na8 O76 2.532958 1_445
Na8 O72 2.669929 1_555
Na8 O34 2.774590 1_455
Na9 O69 2.377050 1_555
Na9 O79 2.519366 1_554
Na9 O13 2.519895 1_555
Na9 O77 2.532958 1_565
Na9 O73 2.669929 1_555
Na9 O35 2.774590 1_555
Na10 O70 2.377050 1_655
Na10 O76 2.519366 1_555
Na10 O14 2.519895 1_555
Na10 O78 2.532958 1_665
Na10 O74 2.669929 1_555
Na10 O32 2.774590 1_655
Na11 O71 2.377050 1_555
Na11 O77 2.519366 1_556
Na11 O15 2.519895 1_555
Na11 O79 2.532958 1_545
Na11 O75 2.669929 1_555
Na11 O33 2.774590 1_555
Na12 O66 2.352668 1_555
Na12 O72 2.358255 1_555
Na12 O48 2.420067 1_555
Na12 O0 2.488997 1_555
Na12 O60 2.546172 1_555
Na12 O4 2.861398 1_555
Na13 O67 2.352668 1_555
Na13 O73 2.358255 1_555
Na13 O49 2.420067 1_655
Na13 O1 2.488997 1_555
Na13 O61 2.546172 1_655
Na13 O5 2.861398 1_555
Na14 O64 2.352668 1_555
Na14 O74 2.358255 1_555
Na14 O50 2.420067 1_555
Na14 O2 2.488997 1_555
Na14 O62 2.546172 1_555
Na14 O6 2.861398 1_555
Na15 O65 2.352668 1_555
Na15 O75 2.358255 1_555
Na15 O51 2.420067 1_455
Na15 O3 2.488997 1_555
Na15 O63 2.546172 1_455
Na15 O7 2.861398 1_555
B0 O0 1.368155 1_555
B0 O12 1.368249 1_555
B0 O4 1.406217 1_555
B1 O1 1.368155 1_555
B1 O13 1.368249 1_555
B1 O5 1.406217 1_555
B2 O2 1.368155 1_555
B2 O14 1.368249 1_555
B2 O6 1.406217 1_555
B3 O3 1.368155 1_555
B3 O15 1.368249 1_555
B3 O7 1.406217 1_555
B4 O8 1.359017 1_555
B4 O16 1.372942 1_555
B4 O4 1.416581 1_555
B5 O9 1.359017 1_555
B5 O17 1.372942 1_555
B5 O5 1.416581 1_455
B6 O10 1.359017 1_555
B6 O18 1.372942 1_555
B6 O6 1.416581 1_555
B7 O11 1.359017 1_555
B7 O19 1.372942 1_555
B7 O7 1.416581 1_655
B8 O20 1.437844 1_545
B8 O16 1.473098 1_555
B8 O12 1.504473 1_555
B8 O24 1.520037 1_545
B9 O21 1.437844 1_565
B9 O17 1.473098 1_655
B9 O13 1.504473 1_555
B9 O25 1.520037 1_565
B10 O22 1.437844 1_565
B10 O18 1.473098 1_555
B10 O14 1.504473 1_555
B10 O26 1.520037 1_565
B11 O23 1.437844 1_545
B11 O19 1.473098 1_455
B11 O15 1.504473 1_555
B11 O27 1.520037 1_545
B12 O28 1.355825 1_555
B12 O24 1.380045 1_555
B12 O32 1.390994 1_555
B13 O29 1.355825 1_555
B13 O25 1.380045 1_555
B13 O33 1.390994 1_554
B14 O30 1.355825 1_555
B14 O26 1.380045 1_555
B14 O34 1.390994 1_555
B15 O31 1.355825 1_555
B15 O27 1.380045 1_555
B15 O35 1.390994 1_556
B16 O20 1.453555 1_555
B16 O40 1.485232 1_555
B16 O28 1.500288 1_555
B16 O36 1.506075 1_455
B17 O21 1.453555 1_555
B17 O41 1.485232 1_555
B17 O29 1.500288 1_555
B17 O37 1.506075 1_555
B18 O22 1.453555 1_555
B18 O42 1.485232 1_555
B18 O30 1.500288 1_555
B18 O38 1.506075 1_655
B19 O23 1.453555 1_555
B19 O43 1.485232 1_555
B19 O31 1.500288 1_555
B19 O39 1.506075 1_555
B20 O40 1.366528 1_555
B20 O48 1.379933 1_555
B20 O44 1.406490 1_555
B21 O41 1.366528 1_455
B21 O49 1.379933 1_555
B21 O45 1.406490 1_555
B22 O42 1.366528 1_555
B22 O50 1.379933 1_555
B22 O46 1.406490 1_555
B23 O43 1.366528 1_655
B23 O51 1.379933 1_555
B23 O47 1.406490 1_555
B24 O52 1.359259 1_555
B24 O36 1.371075 1_555
B24 O44 1.405749 1_555
B25 O53 1.359259 1_555
B25 O37 1.371075 1_555
B25 O45 1.405749 1_555
B26 O54 1.359259 1_555
B26 O38 1.371075 1_555
B26 O46 1.405749 1_555
B27 O55 1.359259 1_555
B27 O39 1.371075 1_555
B27 O47 1.405749 1_555
B28 O56 1.446175 1_555
B28 O52 1.479053 1_555
B28 O60 1.503178 1_555
B28 O48 1.508550 1_555
B29 O57 1.446175 1_555
B29 O53 1.479053 1_555
B29 O61 1.503178 1_555
B29 O49 1.508550 1_555
B30 O58 1.446175 1_555
B30 O54 1.479053 1_555
B30 O62 1.503178 1_555
B30 O50 1.508550 1_555
B31 O59 1.446175 1_555
B31 O55 1.479053 1_555
B31 O63 1.503178 1_555
B31 O51 1.508550 1_555
B32 O68 1.363119 1_555
B32 O60 1.384579 1_555
B32 O64 1.390958 1_555
B33 O69 1.363119 1_555
B33 O61 1.384579 1_555
B33 O65 1.390958 1_554
B34 O70 1.363119 1_555
B34 O62 1.384579 1_555
B34 O66 1.390958 1_555
B35 O71 1.363119 1_555
B35 O63 1.384579 1_555
B35 O67 1.390958 1_556
B36 O56 1.447379 1_555
B36 O8 1.483782 1_555
B36 O68 1.496338 1_555
B36 O0 1.513218 1_655
B37 O57 1.447379 1_555
B37 O9 1.483782 1_555
B37 O69 1.496338 1_555
B37 O1 1.513218 1_555
B38 O58 1.447379 1_555
B38 O10 1.483782 1_555
B38 O70 1.496338 1_555
B38 O2 1.513218 1_455
B39 O59 1.447379 1_555
B39 O11 1.483782 1_555
B39 O71 1.496338 1_555
B39 O3 1.513218 1_555
H0 O72 0.989623 1_555
H1 O73 0.989623 1_556
H2 O74 0.989623 1_555
H3 O75 0.989623 1_554
H4 O72 0.987564 1_555
H5 O73 0.987564 1_555
H6 O74 0.987564 1_555
H7 O75 0.987564 1_555
H8 O76 0.978207 1_555
H9 O77 0.978207 1_555
H10 O78 0.978207 1_555
H11 O79 0.978207 1_555
H12 O76 0.986645 1_555
H13 O77 0.986645 1_555
H14 O78 0.986645 1_555
H15 O79 0.986645 1_555
H16 O32 0.995268 1_555
H17 O33 0.995268 1_555
H18 O34 0.995268 1_555
H19 O35 0.995268 1_555
H20 O64 0.990333 1_555
H21 O65 0.990333 1_555
H22 O66 0.990333 1_555
H23 O67 0.990333 1_555
