# generated using pymatgen
data_Ba2GeO4
_symmetry_space_group_name_H-M   'P 1'
_cell_length_a   23.15515108
_cell_length_b   10.55775513
_cell_length_c   6.15039296
_cell_angle_alpha   90.00000000
_cell_angle_beta   90.00000000
_cell_angle_gamma   90.00000000
_symmetry_Int_Tables_number   1
_chemical_formula_structural   Ba2GeO4
_chemical_formula_sum   'Ba24 Ge12 O48'
_cell_volume   1503.56451839
_cell_formula_units_Z   12
loop_
 _symmetry_equiv_pos_site_id
 _symmetry_equiv_pos_as_xyz
  1  'x, y, z'
loop_
 _atom_site_type_symbol
 _atom_site_label
 _atom_site_symmetry_multiplicity
 _atom_site_fract_x
 _atom_site_fract_y
 _atom_site_fract_z
 _atom_site_occupancy
  Ba  Ba0  1  0.99787108  0.29927473  0.78846711  1
  Ba  Ba1  1  0.00212892  0.70072527  0.28846711  1
  Ba  Ba2  1  0.05444363  0.07841227  0.28146223  1
  Ba  Ba3  1  0.11041717  0.57919890  0.76318461  1
  Ba  Ba4  1  0.16905002  0.80398805  0.24449359  1
  Ba  Ba5  1  0.16474553  0.20092491  0.73533192  1
  Ba  Ba6  1  0.22012716  0.42457265  0.23455667  1
  Ba  Ba7  1  0.27987284  0.92457265  0.73455667  1
  Ba  Ba8  1  0.33525447  0.70092491  0.23533192  1
  Ba  Ba9  1  0.33094998  0.30398805  0.74449359  1
  Ba  Ba10  1  0.38958283  0.07919890  0.26318461  1
  Ba  Ba11  1  0.44555637  0.57841227  0.78146223  1
  Ba  Ba12  1  0.49787108  0.20072527  0.78846711  1
  Ba  Ba13  1  0.50212892  0.79927473  0.28846711  1
  Ba  Ba14  1  0.55444363  0.42158773  0.28146223  1
  Ba  Ba15  1  0.61041717  0.92080110  0.76318461  1
  Ba  Ba16  1  0.66905002  0.69601195  0.24449359  1
  Ba  Ba17  1  0.66474553  0.29907509  0.73533192  1
  Ba  Ba18  1  0.72012716  0.07542735  0.23455667  1
  Ba  Ba19  1  0.77987284  0.57542735  0.73455667  1
  Ba  Ba20  1  0.83525447  0.79907509  0.23533192  1
  Ba  Ba21  1  0.83094998  0.19601195  0.74449359  1
  Ba  Ba22  1  0.88958283  0.42080110  0.26318461  1
  Ba  Ba23  1  0.94555637  0.92158773  0.78146223  1
  Ge  Ge0  1  0.07271872  0.41748779  0.25385731  1
  Ge  Ge1  1  0.09437361  0.91685651  0.77956977  1
  Ge  Ge2  1  0.24096908  0.08626815  0.24377470  1
  Ge  Ge3  1  0.25903092  0.58626815  0.74377470  1
  Ge  Ge4  1  0.40562639  0.41685651  0.27956977  1
  Ge  Ge5  1  0.42728128  0.91748779  0.75385731  1
  Ge  Ge6  1  0.57271872  0.08251221  0.25385731  1
  Ge  Ge7  1  0.59437361  0.58314349  0.77956977  1
  Ge  Ge8  1  0.74096908  0.41373185  0.24377470  1
  Ge  Ge9  1  0.75903092  0.91373185  0.74377470  1
  Ge  Ge10  1  0.90562639  0.08314349  0.27956977  1
  Ge  Ge11  1  0.92728128  0.58251221  0.75385731  1
  O  O0  1  0.00047649  0.55624954  0.68148838  1
  O  O1  1  0.05728874  0.06500816  0.82221511  1
  O  O2  1  0.07072556  0.80652433  0.98124479  1
  O  O3  1  0.07347084  0.86002138  0.51849849  1
  O  O4  1  0.08187389  0.30737718  0.47017344  1
  O  O5  1  0.10753375  0.35963126  0.01110004  1
  O  O6  1  0.10873013  0.56355568  0.32000715  1
  O  O7  1  0.16670317  0.06646805  0.30828917  1
  O  O8  1  0.16973048  0.93996978  0.81147701  1
  O  O9  1  0.22419462  0.43821705  0.67917374  1
  O  O10  1  0.22468511  0.63941566  0.98939849  1
  O  O11  1  0.24717450  0.69721991  0.53043428  1
  O  O12  1  0.25282550  0.19721991  0.03043428  1
  O  O13  1  0.27531489  0.13941566  0.48939849  1
  O  O14  1  0.27580538  0.93821705  0.17917374  1
  O  O15  1  0.33026952  0.43996978  0.31147701  1
  O  O16  1  0.33329683  0.56646805  0.80828917  1
  O  O17  1  0.39126987  0.06355568  0.82000715  1
  O  O18  1  0.39246625  0.85963126  0.51110004  1
  O  O19  1  0.41812611  0.80737718  0.97017344  1
  O  O20  1  0.42652916  0.36002138  0.01849849  1
  O  O21  1  0.42927444  0.30652433  0.48124479  1
  O  O22  1  0.44271126  0.56500816  0.32221511  1
  O  O23  1  0.49952351  0.05624954  0.18148838  1
  O  O24  1  0.50047649  0.94375046  0.68148838  1
  O  O25  1  0.55728874  0.43499184  0.82221511  1
  O  O26  1  0.57072556  0.69347567  0.98124479  1
  O  O27  1  0.57347084  0.63997862  0.51849849  1
  O  O28  1  0.58187389  0.19262282  0.47017344  1
  O  O29  1  0.60753375  0.14036874  0.01110004  1
  O  O30  1  0.60873013  0.93644432  0.32000715  1
  O  O31  1  0.66670317  0.43353195  0.30828917  1
  O  O32  1  0.66973048  0.56003022  0.81147701  1
  O  O33  1  0.72419462  0.06178295  0.67917374  1
  O  O34  1  0.72468511  0.86058434  0.98939849  1
  O  O35  1  0.74717450  0.80278009  0.53043428  1
  O  O36  1  0.75282550  0.30278009  0.03043428  1
  O  O37  1  0.77531489  0.36058434  0.48939849  1
  O  O38  1  0.77580538  0.56178295  0.17917374  1
  O  O39  1  0.83026952  0.06003022  0.31147701  1
  O  O40  1  0.83329683  0.93353195  0.80828917  1
  O  O41  1  0.89126987  0.43644432  0.82000715  1
  O  O42  1  0.89246625  0.64036874  0.51110004  1
  O  O43  1  0.91812611  0.69262282  0.97017344  1
  O  O44  1  0.92652916  0.13997862  0.01849849  1
  O  O45  1  0.92927444  0.19347567  0.48124479  1
  O  O46  1  0.94271126  0.93499184  0.32221511  1
  O  O47  1  0.99952351  0.44375046  0.18148838  1
loop_
_geom_bond_atom_site_label_1
_geom_bond_atom_site_label_2
_geom_bond_distance
_geom_bond_site_symmetry_2
Ba0 O45 2.709419 1_555
Ba0 O44 2.749359 1_556
Ba0 O4 2.760986 1_655
Ba0 O0 2.792372 1_655
Ba0 O1 2.837840 1_655
Ba0 O47 2.858522 1_556
Ba0 O41 2.868407 1_555
Ba0 O5 2.954456 1_656
Ba1 O2 2.709419 1_554
Ba1 O3 2.749359 1_555
Ba1 O43 2.760986 1_454
Ba1 O47 2.792372 1_455
Ba1 O46 2.837840 1_455
Ba1 O0 2.858522 1_555
Ba1 O6 2.868407 1_555
Ba1 O42 2.954456 1_455
Ba2 O7 2.607669 1_555
Ba2 O4 2.755745 1_555
Ba2 O3 2.763298 1_545
Ba2 O1 2.828860 1_554
Ba2 O46 3.008175 1_445
Ba3 O0 2.606095 1_555
Ba3 O6 2.730994 1_555
Ba3 O5 2.775461 1_556
Ba3 O2 2.898897 1_555
Ba3 O10 3.056248 1_555
Ba3 O9 3.069729 1_555
Ba4 O10 2.672092 1_554
Ba4 O11 2.763316 1_555
Ba4 O2 2.793849 1_554
Ba4 O7 2.799366 1_565
Ba4 O3 2.843947 1_555
Ba4 O14 2.877534 1_555
Ba4 O6 2.934302 1_555
Ba4 O8 3.025578 1_554
Ba5 O5 2.727495 1_556
Ba5 O12 2.730443 1_556
Ba5 O4 2.757706 1_555
Ba5 O8 2.797003 1_545
Ba5 O9 2.879337 1_555
Ba5 O1 2.921598 1_555
Ba5 O7 2.985902 1_555
Ba5 O13 3.043768 1_555
Ba6 O15 2.598960 1_555
Ba6 O10 2.725740 1_554
Ba6 O9 2.739981 1_555
Ba6 O12 2.812645 1_555
Ba6 O6 3.013752 1_555
Ba6 O5 3.025886 1_555
Ba7 O8 2.598960 1_555
Ba7 O13 2.725740 1_565
Ba7 O14 2.739981 1_556
Ba7 O11 2.812645 1_555
Ba7 O17 3.013752 1_565
Ba7 O18 3.025886 1_555
Ba8 O18 2.727495 1_555
Ba8 O11 2.730443 1_555
Ba8 O19 2.757706 1_554
Ba8 O15 2.797003 1_555
Ba8 O14 2.879337 1_555
Ba8 O22 2.921598 1_555
Ba8 O16 2.985902 1_554
Ba8 O10 3.043768 1_554
Ba9 O13 2.672092 1_555
Ba9 O12 2.763316 1_556
Ba9 O21 2.793849 1_555
Ba9 O16 2.799366 1_555
Ba9 O20 2.843947 1_556
Ba9 O9 2.877534 1_555
Ba9 O17 2.934302 1_555
Ba9 O15 3.025578 1_555
Ba10 O23 2.606095 1_555
Ba10 O17 2.730994 1_554
Ba10 O18 2.775461 1_545
Ba10 O21 2.898897 1_555
Ba10 O13 3.056248 1_555
Ba10 O14 3.069729 1_545
Ba11 O16 2.607669 1_555
Ba11 O19 2.755745 1_555
Ba11 O20 2.763298 1_556
Ba11 O22 2.828860 1_555
Ba11 O25 3.008175 1_555
Ba12 O21 2.709419 1_555
Ba12 O20 2.749359 1_556
Ba12 O28 2.760986 1_555
Ba12 O24 2.792372 1_545
Ba12 O25 2.837840 1_555
Ba12 O23 2.858522 1_556
Ba12 O17 2.868407 1_555
Ba12 O29 2.954456 1_556
Ba13 O26 2.709419 1_554
Ba13 O27 2.749359 1_555
Ba13 O19 2.760986 1_554
Ba13 O23 2.792372 1_565
Ba13 O22 2.837840 1_555
Ba13 O24 2.858522 1_555
Ba13 O30 2.868407 1_555
Ba13 O18 2.954456 1_555
Ba14 O31 2.607669 1_555
Ba14 O28 2.755745 1_555
Ba14 O27 2.763298 1_555
Ba14 O25 2.828860 1_554
Ba14 O22 3.008175 1_555
Ba15 O24 2.606095 1_555
Ba15 O30 2.730994 1_555
Ba15 O29 2.775461 1_566
Ba15 O26 2.898897 1_555
Ba15 O34 3.056248 1_555
Ba15 O33 3.069729 1_565
Ba16 O34 2.672092 1_554
Ba16 O35 2.763316 1_555
Ba16 O26 2.793849 1_554
Ba16 O31 2.799366 1_555
Ba16 O27 2.843947 1_555
Ba16 O38 2.877534 1_555
Ba16 O30 2.934302 1_555
Ba16 O32 3.025578 1_554
Ba17 O29 2.727495 1_556
Ba17 O36 2.730443 1_556
Ba17 O28 2.757706 1_555
Ba17 O32 2.797003 1_555
Ba17 O33 2.879337 1_555
Ba17 O25 2.921598 1_555
Ba17 O31 2.985902 1_555
Ba17 O37 3.043768 1_555
Ba18 O39 2.598960 1_555
Ba18 O34 2.725740 1_544
Ba18 O33 2.739981 1_555
Ba18 O36 2.812645 1_555
Ba18 O30 3.013752 1_545
Ba18 O29 3.025886 1_555
Ba19 O32 2.598960 1_555
Ba19 O37 2.725740 1_555
Ba19 O38 2.739981 1_556
Ba19 O35 2.812645 1_555
Ba19 O41 3.013752 1_555
Ba19 O42 3.025886 1_555
Ba20 O42 2.727495 1_555
Ba20 O35 2.730443 1_555
Ba20 O43 2.757706 1_554
Ba20 O39 2.797003 1_565
Ba20 O38 2.879337 1_555
Ba20 O46 2.921598 1_555
Ba20 O40 2.985902 1_554
Ba20 O34 3.043768 1_554
Ba21 O37 2.672092 1_555
Ba21 O36 2.763316 1_556
Ba21 O45 2.793849 1_555
Ba21 O40 2.799366 1_545
Ba21 O44 2.843947 1_556
Ba21 O33 2.877534 1_555
Ba21 O41 2.934302 1_555
Ba21 O39 3.025578 1_555
Ba22 O47 2.606095 1_555
Ba22 O41 2.730994 1_554
Ba22 O42 2.775461 1_555
Ba22 O45 2.898897 1_555
Ba22 O37 3.056248 1_555
Ba22 O38 3.069729 1_555
Ba23 O40 2.607669 1_555
Ba23 O43 2.755745 1_555
Ba23 O44 2.763298 1_566
Ba23 O46 2.828860 1_555
Ba23 O1 3.008175 1_665
Ge0 O47 1.774119 1_455
Ge0 O4 1.779448 1_555
Ge0 O6 1.799737 1_555
Ge0 O5 1.803385 1_555
Ge1 O8 1.772776 1_555
Ge1 O3 1.781170 1_555
Ge1 O2 1.787535 1_555
Ge1 O1 1.803533 1_565
Ge2 O7 1.777160 1_555
Ge2 O12 1.780233 1_555
Ge2 O13 1.797078 1_555
Ge2 O14 1.803268 1_545
Ge3 O16 1.777160 1_555
Ge3 O11 1.780233 1_555
Ge3 O10 1.797078 1_555
Ge3 O9 1.803268 1_555
Ge4 O15 1.772776 1_555
Ge4 O20 1.781170 1_555
Ge4 O21 1.787535 1_555
Ge4 O22 1.803533 1_555
Ge5 O24 1.774119 1_555
Ge5 O19 1.779448 1_555
Ge5 O17 1.799737 1_565
Ge5 O18 1.803385 1_555
Ge6 O23 1.774119 1_555
Ge6 O28 1.779448 1_555
Ge6 O30 1.799737 1_545
Ge6 O29 1.803385 1_555
Ge7 O32 1.772776 1_555
Ge7 O27 1.781170 1_555
Ge7 O26 1.787535 1_555
Ge7 O25 1.803533 1_555
Ge8 O31 1.777160 1_555
Ge8 O36 1.780233 1_555
Ge8 O37 1.797078 1_555
Ge8 O38 1.803268 1_555
Ge9 O40 1.777160 1_555
Ge9 O35 1.780233 1_555
Ge9 O34 1.797078 1_555
Ge9 O33 1.803268 1_565
Ge10 O39 1.772776 1_555
Ge10 O44 1.781170 1_555
Ge10 O45 1.787535 1_555
Ge10 O46 1.803533 1_545
Ge11 O0 1.774119 1_655
Ge11 O43 1.779448 1_555
Ge11 O41 1.799737 1_555
Ge11 O42 1.803385 1_555
