# generated using pymatgen
data_LiVTe2WO12
_symmetry_space_group_name_H-M   'P 1'
_cell_length_a   5.13804000
_cell_length_b   5.28614405
_cell_length_c   7.38880559
_cell_angle_alpha   87.22127849
_cell_angle_beta   89.85567489
_cell_angle_gamma   89.96391743
_symmetry_Int_Tables_number   1
_chemical_formula_structural   LiVTe2WO12
_chemical_formula_sum   'Li1 V1 Te2 W1 O12'
_cell_volume   200.44643689
_cell_formula_units_Z   1
loop_
 _symmetry_equiv_pos_site_id
 _symmetry_equiv_pos_as_xyz
  1  'x, y, z'
loop_
 _atom_site_type_symbol
 _atom_site_label
 _atom_site_symmetry_multiplicity
 _atom_site_fract_x
 _atom_site_fract_y
 _atom_site_fract_z
 _atom_site_occupancy
  Li  Li0  1  0.49946000  0.05133100  0.28703700  1
  V  V0  1  0.49155200  0.49090700  0.50900700  1
  Te  Te0  1  0.50196600  0.49483700  0.99884600  1
  Te  Te1  1  0.99255700  0.99192200  0.49528500  1
  W  W0  1  0.00543100  0.99355600  0.99070200  1
  O  O0  1  0.69627100  0.79238600  0.43441000  1
  O  O1  1  0.89214900  0.98908900  0.74703200  1
  O  O2  1  0.68731000  0.17776600  0.05502500  1
  O  O3  1  0.78623400  0.28767500  0.43898100  1
  O  O4  1  0.19164300  0.30294400  0.93996400  1
  O  O5  1  0.60663900  0.48557800  0.74543100  1
  O  O6  1  0.39552000  0.49161000  0.24499800  1
  O  O7  1  0.81119000  0.68827400  0.04825500  1
  O  O8  1  0.20707300  0.68953300  0.54663200  1
  O  O9  1  0.31334700  0.80512800  0.94090600  1
  O  O10  1  0.11926100  0.99391200  0.24432800  1
  O  O11  1  0.30239600  0.18795300  0.54036000  1
loop_
_geom_bond_atom_site_label_1
_geom_bond_atom_site_label_2
_geom_bond_distance
_geom_bond_site_symmetry_2
Li0 O0 1.985259 1_545
Li0 O10 2.005225 1_545
Li0 O2 2.049013 1_555
Li0 O3 2.266939 1_555
Li0 O11 2.273949 1_555
Li0 O6 2.393232 1_555
O0 Te1 1.919329 1_555
O0 V0 1.965701 1_555
O1 W0 1.894810 1_655
O1 Te1 1.928434 1_555
O2 Te0 1.954730 1_554
O2 W0 1.970963 1_644
O3 Te1 1.917849 1_545
O3 V0 1.939645 1_555
O4 W0 1.916095 1_545
O4 Te0 1.951624 1_555
O5 V0 1.844585 1_555
O5 Te0 1.949725 1_555
O6 Te0 1.897190 1_554
O6 V0 2.013179 1_555
O7 W0 1.927295 1_654
O7 Te0 1.935025 1_554
O8 V0 1.827703 1_555
O8 Te1 1.963407 1_455
O9 W0 1.913404 1_555
O9 Te0 1.935173 1_555
O10 Te1 1.963234 1_455
O10 W0 1.964633 1_554
O11 V0 1.878234 1_555
O11 Te1 1.938375 1_445
