# generated using pymatgen
data_Li3V3P8O29
_symmetry_space_group_name_H-M   'P 1'
_cell_length_a   9.73176700
_cell_length_b   9.74869212
_cell_length_c   14.34718059
_cell_angle_alpha   89.41872469
_cell_angle_beta   89.54216979
_cell_angle_gamma   60.11632752
_symmetry_Int_Tables_number   1
_chemical_formula_structural   Li3V3P8O29
_chemical_formula_sum   'Li6 V6 P16 O58'
_cell_volume   1180.09860820
_cell_formula_units_Z   2
loop_
 _symmetry_equiv_pos_site_id
 _symmetry_equiv_pos_as_xyz
  1  'x, y, z'
loop_
 _atom_site_type_symbol
 _atom_site_label
 _atom_site_symmetry_multiplicity
 _atom_site_fract_x
 _atom_site_fract_y
 _atom_site_fract_z
 _atom_site_occupancy
  Li  Li0  1  0.22920100  0.09137500  0.54680500  1
  Li  Li1  1  0.23183000  0.66962800  0.06048000  1
  Li  Li2  1  0.67723100  0.23006500  0.55531700  1
  Li  Li3  1  0.31664400  0.91442300  0.94724000  1
  Li  Li4  1  0.92884500  0.05329900  0.00241700  1
  Li  Li5  1  0.02900200  0.94425900  0.49314000  1
  V  V0  1  0.43881900  0.56237400  0.25492800  1
  V  V1  1  0.56552300  0.43847900  0.74905900  1
  V  V2  1  0.43917500  0.00217100  0.75147400  1
  V  V3  1  0.56787300  0.99977100  0.24549400  1
  V  V4  1  0.00054300  0.43759300  0.24958600  1
  V  V5  1  0.00119200  0.56146600  0.75033100  1
  P  P0  1  0.08286200  0.22015800  0.84505800  1
  P  P1  1  0.22282100  0.08801500  0.33719500  1
  P  P2  1  0.08300600  0.69395100  0.34202400  1
  P  P3  1  0.33262400  0.33708100  0.13218700  1
  P  P4  1  0.33444000  0.33255300  0.63326100  1
  P  P5  1  0.22603600  0.68541800  0.83959600  1
  P  P6  1  0.30712100  0.78253900  0.65900500  1
  P  P7  1  0.69488200  0.08643000  0.84248600  1
  P  P8  1  0.31292000  0.90927200  0.15897300  1
  P  P9  1  0.69010300  0.21945100  0.34264100  1
  P  P10  1  0.77933300  0.30968400  0.16368500  1
  P  P11  1  0.66764100  0.66892900  0.36576600  1
  P  P12  1  0.66451500  0.66812700  0.86571600  1
  P  P13  1  0.91938500  0.30425900  0.66045300  1
  P  P14  1  0.78248000  0.91269300  0.66206500  1
  P  P15  1  0.91788700  0.78079900  0.15919400  1
  O  O0  1  0.00982500  0.20819100  0.57896300  1
  O  O1  1  0.08401800  0.26087000  0.32898900  1
  O  O2  1  0.23034700  0.98191100  0.06948500  1
  O  O3  1  0.26022100  0.08289600  0.83598600  1
  O  O4  1  0.07822200  0.38146800  0.82995300  1
  O  O5  1  0.18629700  0.33888200  0.18136100  1
  O  O6  1  0.07546700  0.54044300  0.33103100  1
  O  O7  1  0.00507800  0.79746500  0.07770400  1
  O  O8  1  0.08499700  0.65589300  0.83250900  1
  O  O9  1  0.33264500  0.18514200  0.68133100  1
  O  O10  1  0.38197700  0.08458000  0.32369800  1
  O  O11  1  0.18946400  0.47774900  0.68036600  1
  O  O12  1  0.32537300  0.34073000  0.02877900  1
  O  O13  1  0.32993700  0.31826600  0.53054600  1
  O  O14  1  0.33201100  0.48696500  0.17154100  1
  O  O15  1  0.53833300  0.08096700  0.82919700  1
  O  O16  1  0.47917200  0.18636100  0.17536100  1
  O  O17  1  0.26032500  0.64960700  0.32908400  1
  O  O18  1  0.20861100  0.80105400  0.75479200  1
  O  O19  1  0.20726700  0.80463100  0.57706400  1
  O  O20  1  0.23348200  0.75985900  0.92892300  1
  O  O21  1  0.38187300  0.52567300  0.82120200  1
  O  O22  1  0.48810000  0.32965300  0.66779800  1
  O  O23  1  0.34383200  0.73654900  0.16509500  1
  O  O24  1  0.53097100  0.37799300  0.32782700  1
  O  O25  1  0.65681700  0.08156900  0.32847700  1
  O  O26  1  0.20328500  0.99747700  0.24851300  1
  O  O27  1  0.20884000  0.01517600  0.42645400  1
  O  O28  1  0.79092000  0.00125100  0.57944300  1
  O  O29  1  0.34711200  0.91912600  0.66507500  1
  O  O30  1  0.46198300  0.61990100  0.67047300  1
  O  O31  1  0.65323300  0.26133700  0.82504300  1
  O  O32  1  0.52016200  0.66414100  0.32090800  1
  O  O33  1  0.61738600  0.46340300  0.17576600  1
  O  O34  1  0.79122000  0.21470800  0.08158300  1
  O  O35  1  0.76683200  0.20924900  0.43377900  1
  O  O36  1  0.80403600  0.20709500  0.25848500  1
  O  O37  1  0.74384300  0.34145300  0.66044000  1
  O  O38  1  0.51193400  0.81625700  0.82359200  1
  O  O39  1  0.46925500  0.91173300  0.17231600  1
  O  O40  1  0.66315000  0.52195000  0.81790100  1
  O  O41  1  0.65351800  0.66942500  0.96860900  1
  O  O42  1  0.66096300  0.67094400  0.46878700  1
  O  O43  1  0.81318700  0.52377500  0.32057600  1
  O  O44  1  0.62038900  0.91741600  0.67560700  1
  O  O45  1  0.66357900  0.81696300  0.31914500  1
  O  O46  1  0.91228100  0.35300900  0.16910700  1
  O  O47  1  0.99573000  0.20293800  0.75405800  1
  O  O48  1  0.00934700  0.19683000  0.92959300  1
  O  O49  1  0.92029500  0.46240500  0.67417200  1
  O  O50  1  0.81166100  0.66706400  0.82106800  1
  O  O51  1  0.92327200  0.62022900  0.16998100  1
  O  O52  1  0.74183500  0.91527600  0.16337400  1
  O  O53  1  0.78343300  0.01900900  0.92931200  1
  O  O54  1  0.80356000  0.99284200  0.75452100  1
  O  O55  1  0.91650400  0.73797100  0.66783300  1
  O  O56  1  0.01270300  0.78763500  0.42709000  1
  O  O57  1  0.99552000  0.80323900  0.25255500  1
loop_
_geom_bond_atom_site_label_1
_geom_bond_atom_site_label_2
_geom_bond_distance
_geom_bond_site_symmetry_2
Li0 O0 1.907835 1_555
Li0 O27 1.936679 1_555
Li0 O29 2.251429 1_545
Li0 O9 2.560863 1_555
Li1 O7 1.934123 1_555
Li1 O20 2.077615 1_554
Li1 O23 2.149665 1_555
Li1 O14 2.213078 1_555
Li2 O35 1.910147 1_555
Li2 O28 1.962355 1_555
Li2 O37 2.150445 1_555
Li2 O22 2.266774 1_555
Li3 O2 1.914029 1_556
Li3 O20 2.054532 1_555
Li3 O3 2.146837 1_565
Li3 O38 2.417242 1_555
Li4 O34 1.863264 1_555
Li4 O53 1.927849 1_554
Li4 O48 2.170916 1_654
Li4 O7 2.460033 1_645
Li5 O56 1.878197 1_555
Li5 O19 1.989793 1_555
Li5 O27 2.371046 1_565
Li5 O28 2.428061 1_465
O0 P13 1.484269 1_455
O1 P1 1.551900 1_555
O1 V4 1.872478 1_555
O2 P8 1.492179 1_555
O3 P0 1.576419 1_555
O3 V2 1.934517 1_555
O4 P0 1.563469 1_555
O4 V5 1.899545 1_555
O5 P3 1.576441 1_555
O5 V4 1.846447 1_555
O6 P2 1.544072 1_555
O6 V4 1.915271 1_555
O7 P15 1.493643 1_455
O8 P5 1.540649 1_555
O8 V5 1.920457 1_555
O9 P4 1.595561 1_555
O9 V2 1.845740 1_555
O10 P1 1.543136 1_555
O10 V3 1.926452 1_545
O11 P4 1.570034 1_555
O11 V5 1.878263 1_555
O12 P3 1.485077 1_555
O13 P4 1.484690 1_555
O14 P3 1.569030 1_555
O14 V0 1.962472 1_555
O15 P7 1.563948 1_555
O15 V2 1.880943 1_555
O16 P3 1.576096 1_555
O16 V3 1.865064 1_545
O17 P2 1.565978 1_555
O17 V0 1.841014 1_555
O18 P5 1.601528 1_555
O18 P6 1.628440 1_555
O19 P6 1.475585 1_555
O20 P5 1.499042 1_555
O21 P5 1.563111 1_555
O21 V1 1.860787 1_555
O22 P4 1.565864 1_555
O22 V1 1.971842 1_555
O23 P8 1.557606 1_555
O23 V0 1.951750 1_555
O24 P9 1.563885 1_555
O24 V0 1.870722 1_555
O25 P9 1.547094 1_555
O25 V3 1.877796 1_545
O26 P8 1.616902 1_555
O26 P1 1.621075 1_565
O27 P1 1.495910 1_555
O28 P14 1.485117 1_545
O29 P6 1.565677 1_555
O29 V2 1.937930 1_565
O30 P6 1.558778 1_555
O30 V1 1.901692 1_555
O31 P7 1.561604 1_555
O31 V1 1.845818 1_555
O32 P11 1.599499 1_555
O32 V0 1.822258 1_555
O33 P10 1.551462 1_555
O33 V0 1.886961 1_555
O34 P10 1.473568 1_555
O35 P9 1.488682 1_555
O36 P9 1.596924 1_555
O36 P10 1.626641 1_555
O37 P13 1.559690 1_555
O37 V1 1.968807 1_555
O38 P12 1.585994 1_555
O38 V2 1.884585 1_565
O39 P8 1.546948 1_555
O39 V3 1.901353 1_555
O40 P12 1.593849 1_555
O40 V1 1.828126 1_555
O41 P12 1.478972 1_555
O42 P11 1.478870 1_555
O43 P11 1.560664 1_555
O43 V4 1.878529 1_655
O44 P14 1.565589 1_555
O44 V2 1.874326 1_565
O45 P11 1.567035 1_555
O45 V3 1.866435 1_555
O46 P10 1.550877 1_555
O46 V4 1.868658 1_655
O47 P13 1.609024 1_555
O47 P0 1.617330 1_655
O48 P0 1.475535 1_555
O49 P13 1.560609 1_555
O49 V5 1.881245 1_655
O50 P12 1.559399 1_555
O50 V5 1.894990 1_655
O51 P15 1.546118 1_555
O51 V4 1.917872 1_655
O52 P15 1.555444 1_555
O52 V3 1.879083 1_555
O53 P7 1.470560 1_555
O54 P7 1.607557 1_565
O54 P14 1.611599 1_555
O55 P14 1.547372 1_555
O55 V5 1.897919 1_655
O56 P2 1.475919 1_555
O57 P2 1.610435 1_655
O57 P15 1.612337 1_555
