# generated using pymatgen
data_PH10SN3O2
_symmetry_space_group_name_H-M   'P 1'
_cell_length_a   6.92653100
_cell_length_b   7.10093593
_cell_length_c   7.90109122
_cell_angle_alpha   75.47502792
_cell_angle_beta   86.06949383
_cell_angle_gamma   87.97901709
_symmetry_Int_Tables_number   1
_chemical_formula_structural   PH10SN3O2
_chemical_formula_sum   'P2 H20 S2 N6 O4'
_cell_volume   375.24272725
_cell_formula_units_Z   2
loop_
 _symmetry_equiv_pos_site_id
 _symmetry_equiv_pos_as_xyz
  1  'x, y, z'
loop_
 _atom_site_type_symbol
 _atom_site_label
 _atom_site_symmetry_multiplicity
 _atom_site_fract_x
 _atom_site_fract_y
 _atom_site_fract_z
 _atom_site_occupancy
  P  P0  1  0.20186800  0.36048500  0.22099700  1
  P  P1  1  0.79813200  0.63951500  0.77900300  1
  H  H0  1  0.14948700  0.60437700  0.96766800  1
  H  H1  1  0.85051300  0.39562300  0.03233200  1
  H  H2  1  0.35883600  0.63765300  0.05704000  1
  H  H3  1  0.64116400  0.36234700  0.94296000  1
  H  H4  1  0.21341300  0.72904000  0.58370300  1
  H  H5  1  0.78658700  0.27096000  0.41629700  1
  H  H6  1  0.31624200  0.84154800  0.38870000  1
  H  H7  1  0.68375800  0.15845200  0.61130000  1
  H  H8  1  0.46351200  0.70811200  0.54792500  1
  H  H9  1  0.53648800  0.29188800  0.45207500  1
  H  H10  1  0.30833200  0.59776300  0.44738000  1
  H  H11  1  0.69166800  0.40223700  0.55262000  1
  H  H12  1  0.87436200  0.78010800  0.37464800  1
  H  H13  1  0.12563800  0.21989200  0.62535200  1
  H  H14  1  0.74477800  0.87896500  0.99371300  1
  H  H15  1  0.25522200  0.12103500  0.00628700  1
  H  H16  1  0.95743000  0.99044900  0.24784000  1
  H  H17  1  0.04257000  0.00955100  0.75216000  1
  H  H18  1  0.02189200  0.77757000  0.19862200  1
  H  H19  1  0.97810800  0.22243000  0.80137800  1
  S  S0  1  0.37736700  0.14440400  0.12572700  1
  S  S1  1  0.62263300  0.85559600  0.87427300  1
  N  N0  1  0.22562700  0.57530300  0.07949100  1
  N  N1  1  0.77437300  0.42469700  0.92050900  1
  N  N2  1  0.32806300  0.72138900  0.49357000  1
  N  N3  1  0.67193700  0.27861100  0.50643000  1
  N  N4  1  0.98879100  0.84632800  0.29659300  1
  N  N5  1  0.01120900  0.15367200  0.70340700  1
  O  O0  1  0.30458400  0.36658500  0.38390400  1
  O  O1  1  0.69541600  0.63341500  0.61609600  1
  O  O2  1  0.99235900  0.30304300  0.23320100  1
  O  O3  1  0.00764100  0.69695700  0.76679900  1
loop_
_geom_bond_atom_site_label_1
_geom_bond_atom_site_label_2
_geom_bond_distance
_geom_bond_site_symmetry_2
P0 S0 2.172776 1_555
P1 S1 2.172776 1_555
H0 N0 1.032510 1_556
H1 N1 1.032510 1_554
H2 N0 1.022643 1_555
H3 N1 1.022643 1_555
H4 N2 1.039028 1_555
H5 N3 1.039028 1_555
H6 N2 1.034905 1_555
H7 N3 1.034905 1_555
H8 N2 1.049867 1_555
H9 N3 1.049867 1_555
H10 N2 1.048097 1_555
H11 N3 1.048097 1_555
H12 N4 1.021505 1_555
H13 N5 1.021505 1_555
H14 S1 1.353445 1_555
H15 S0 1.353445 1_555
H16 N4 1.020272 1_555
H17 N5 1.020272 1_555
H18 N4 1.023474 1_455
H19 N5 1.023474 1_655
N0 P0 1.655596 1_555
N1 P1 1.655596 1_555
O0 P0 1.523312 1_555
O1 P1 1.523312 1_555
O2 P0 1.511425 1_655
O3 P1 1.511425 1_455
