# generated using pymatgen
data_Li2FePO5
_symmetry_space_group_name_H-M   'P 1'
_cell_length_a   7.84509754
_cell_length_b   7.84510352
_cell_length_c   7.84508885
_cell_angle_alpha   70.83514212
_cell_angle_beta   110.08500959
_cell_angle_gamma   70.83445700
_symmetry_Int_Tables_number   1
_chemical_formula_structural   Li2FePO5
_chemical_formula_sum   'Li8 Fe4 P4 O20'
_cell_volume   371.65123183
_cell_formula_units_Z   4
loop_
 _symmetry_equiv_pos_site_id
 _symmetry_equiv_pos_as_xyz
  1  'x, y, z'
loop_
 _atom_site_type_symbol
 _atom_site_label
 _atom_site_symmetry_multiplicity
 _atom_site_fract_x
 _atom_site_fract_y
 _atom_site_fract_z
 _atom_site_occupancy
  Li  Li0  1  0.00000000  0.74999900  0.75000100  1
  Li  Li1  1  0.50000000  0.75000200  0.24999900  1
  Li  Li2  1  0.24999900  0.25000000  0.00000000  1
  Li  Li3  1  0.75000000  0.25000000  0.50000000  1
  Li  Li4  1  0.50000100  0.24999800  0.75000300  1
  Li  Li5  1  0.99999900  0.25000200  0.24999700  1
  Li  Li6  1  0.25000000  0.75000100  0.49999900  1
  Li  Li7  1  0.75000000  0.75000100  0.00000000  1
  Fe  Fe0  1  0.28471400  0.49999000  0.28472500  1
  Fe  Fe1  1  0.21528500  0.00000100  0.71528700  1
  Fe  Fe2  1  0.78472800  0.50000400  0.78472600  1
  Fe  Fe3  1  0.71526700  0.00000500  0.21526800  1
  P  P0  1  0.99999500  0.00000200  0.00000200  1
  P  P1  1  0.50000600  0.99999400  0.50000000  1
  P  P2  1  0.99999700  0.50000600  0.50000100  1
  P  P3  1  0.50000400  0.49999600  0.99999700  1
  O  O0  1  0.08387000  0.50000100  0.08386800  1
  O  O1  1  0.58386200  0.50000000  0.58386200  1
  O  O2  1  0.41613600  0.00000000  0.91613200  1
  O  O3  1  0.91614100  0.99999900  0.41614000  1
  O  O4  1  0.00567900  0.19396100  0.00568500  1
  O  O5  1  0.50568100  0.19395800  0.50568500  1
  O  O6  1  0.69964500  0.80604300  0.69963900  1
  O  O7  1  0.19964600  0.80603800  0.19964100  1
  O  O8  1  0.49432100  0.99999300  0.30036200  1
  O  O9  1  0.99431900  0.99999600  0.80035200  1
  O  O10  1  0.00568200  0.50000500  0.69963800  1
  O  O11  1  0.50568100  0.50000600  0.19963900  1
  O  O12  1  0.49431800  0.30604100  0.99431600  1
  O  O13  1  0.99432100  0.30603400  0.49431500  1
  O  O14  1  0.30035100  0.69396400  0.80035500  1
  O  O15  1  0.80035700  0.69395800  0.30036400  1
  O  O16  1  0.19964800  0.49999400  0.50568500  1
  O  O17  1  0.69964200  0.49999600  0.00568600  1
  O  O18  1  0.80035800  0.00000700  0.99431400  1
  O  O19  1  0.30035100  0.00000500  0.49431700  1
loop_
_geom_bond_atom_site_label_1
_geom_bond_atom_site_label_2
_geom_bond_distance
_geom_bond_site_symmetry_2
Li0 O9 2.113737 1_455
Li0 O6 2.113746 1_455
Li0 O14 2.113747 1_555
Li0 O10 2.113759 1_555
Li0 O0 2.394995 1_556
Li0 O3 2.394998 1_455
Li1 O8 2.113741 1_555
Li1 O15 2.113755 1_555
Li1 O7 2.113760 1_555
Li1 O11 2.113764 1_555
Li1 O1 2.395007 1_555
Li1 O2 2.395012 1_564
Li2 O12 2.113805 1_554
Li2 O4 2.113807 1_555
Li2 O10 2.113812 1_554
Li2 O8 2.113825 1_545
Li2 O0 2.394993 1_555
Li2 O2 2.395011 1_554
Li3 O9 2.113774 1_545
Li3 O13 2.113795 1_555
Li3 O5 2.113811 1_555
Li3 O11 2.113814 1_555
Li3 O1 2.394979 1_555
Li3 O3 2.394982 1_545
Li4 O18 2.113750 1_555
Li4 O16 2.113756 1_555
Li4 O12 2.113758 1_555
Li4 O5 2.113778 1_555
Li4 O2 2.394977 1_555
Li4 O1 2.395012 1_555
Li5 O4 2.113736 1_655
Li5 O13 2.113743 1_555
Li5 O17 2.113756 1_555
Li5 O19 2.113758 1_655
Li5 O3 2.395006 1_545
Li5 O0 2.395017 1_655
Li6 O14 2.113790 1_555
Li6 O19 2.113794 1_565
Li6 O7 2.113800 1_555
Li6 O16 2.113814 1_555
Li6 O3 2.394965 1_455
Li6 O1 2.394979 1_555
Li7 O6 2.113812 1_554
Li7 O17 2.113822 1_555
Li7 O15 2.113829 1_555
Li7 O18 2.113830 1_564
Li7 O2 2.394971 1_564
Li7 O0 2.395008 1_655
Fe0 O0 1.805593 1_555
Fe0 O16 2.060283 1_555
Fe0 O5 2.060319 1_555
Fe0 O7 2.060420 1_555
Fe0 O11 2.060449 1_555
Fe1 O2 1.805616 1_555
Fe1 O9 2.060326 1_445
Fe1 O13 2.060336 1_455
Fe1 O19 2.060347 1_555
Fe1 O14 2.060361 1_545
Fe2 O1 1.805791 1_555
Fe2 O6 2.060328 1_555
Fe2 O10 2.060342 1_655
Fe2 O4 2.060349 1_656
Fe2 O17 2.060364 1_556
Fe3 O3 1.805818 1_545
Fe3 O12 2.060303 1_554
Fe3 O8 2.060325 1_545
Fe3 O18 2.060351 1_554
Fe3 O15 2.060367 1_545
O4 P0 1.551469 1_455
O5 P1 1.551490 1_545
O6 P1 1.551429 1_555
O7 P0 1.551494 1_465
O8 P1 1.551430 1_555
O9 P0 1.551560 1_566
O10 P2 1.551417 1_455
O11 P3 1.551505 1_554
O12 P3 1.551438 1_555
O13 P2 1.551558 1_555
O14 P3 1.551517 1_555
O15 P2 1.551429 1_555
O16 P2 1.551501 1_455
O17 P3 1.551419 1_554
O18 P0 1.551400 1_556
O19 P1 1.551538 1_545
