# generated using pymatgen
data_LiVP2HO8
_symmetry_space_group_name_H-M   'P 1'
_cell_length_a   7.47448600
_cell_length_b   7.98374634
_cell_length_c   9.71584410
_cell_angle_alpha   90.04069245
_cell_angle_beta   105.46432266
_cell_angle_gamma   90.04382721
_symmetry_Int_Tables_number   1
_chemical_formula_structural   LiVP2HO8
_chemical_formula_sum   'Li4 V4 P8 H4 O32'
_cell_volume   558.79652952
_cell_formula_units_Z   4
loop_
 _symmetry_equiv_pos_site_id
 _symmetry_equiv_pos_as_xyz
  1  'x, y, z'
loop_
 _atom_site_type_symbol
 _atom_site_label
 _atom_site_symmetry_multiplicity
 _atom_site_fract_x
 _atom_site_fract_y
 _atom_site_fract_z
 _atom_site_occupancy
  Li  Li0  1  0.14365100  0.13095700  0.79746800  1
  Li  Li1  1  0.64556100  0.36908400  0.54604800  1
  Li  Li2  1  0.85722100  0.86976700  0.20870300  1
  Li  Li3  1  0.64781700  0.36859500  0.04676400  1
  V  V0  1  0.00027600  0.50953000  0.75367600  1
  V  V1  1  0.50000400  0.99404700  0.50146700  1
  V  V2  1  0.01016400  0.49680200  0.25376000  1
  V  V3  1  0.49937500  0.99411900  0.00086000  1
  P  P0  1  0.73342600  0.64987900  0.93458600  1
  P  P1  1  0.76716900  0.15156600  0.81414000  1
  P  P2  1  0.23620600  0.84478400  0.68296500  1
  P  P3  1  0.26413400  0.34266400  0.56623400  1
  P  P4  1  0.73250700  0.65256600  0.43246000  1
  P  P5  1  0.76924100  0.15199600  0.31732900  1
  P  P6  1  0.23808600  0.84569900  0.18708000  1
  P  P7  1  0.26432800  0.34778500  0.06402400  1
  H  H0  1  0.49174200  0.49621300  0.74026300  1
  H  H1  1  0.00832400  0.99320200  0.51246200  1
  H  H2  1  0.50070900  0.49770600  0.24998100  1
  H  H3  1  0.00997800  0.99420800  0.01378200  1
  O  O0  1  0.14579800  0.44475900  0.93009200  1
  O  O1  1  0.68742900  0.82341700  0.98852700  1
  O  O2  1  0.64423000  0.17083500  0.92036800  1
  O  O3  1  0.55979700  0.54648400  0.87064100  1
  O  O4  1  0.34604900  0.94700500  0.81862200  1
  O  O5  1  0.18191900  0.67334800  0.72770100  1
  O  O6  1  0.94862200  0.06201900  0.88220500  1
  O  O7  1  0.86287100  0.67223700  0.83542400  1
  O  O8  1  0.14420400  0.32707900  0.67265400  1
  O  O9  1  0.06216500  0.95521800  0.62436400  1
  O  O10  1  0.80917200  0.32390800  0.75574400  1
  O  O11  1  0.64843900  0.05185300  0.68205900  1
  O  O12  1  0.44470700  0.44312500  0.62882100  1
  O  O13  1  0.36239700  0.82747900  0.58255100  1
  O  O14  1  0.31770600  0.17250000  0.51735100  1
  O  O15  1  0.14599300  0.44176900  0.43385000  1
  O  O16  1  0.84350800  0.55147400  0.56747500  1
  O  O17  1  0.68116700  0.82560800  0.47757400  1
  O  O18  1  0.64482700  0.17415600  0.42101000  1
  O  O19  1  0.56091100  0.54325200  0.36906000  1
  O  O20  1  0.34890600  0.94514000  0.32019100  1
  O  O21  1  0.18429300  0.67291600  0.23207400  1
  O  O22  1  0.93978200  0.04431900  0.37703100  1
  O  O23  1  0.86015000  0.67231700  0.33068800  1
  O  O24  1  0.14139000  0.33074300  0.16759700  1
  O  O25  1  0.05312300  0.94012200  0.12090400  1
  O  O26  1  0.81309800  0.32222000  0.25923600  1
  O  O27  1  0.64985300  0.05077000  0.18250700  1
  O  O28  1  0.44690300  0.44045900  0.12863800  1
  O  O29  1  0.36016200  0.83204800  0.08271600  1
  O  O30  1  0.31159800  0.17637800  0.00757200  1
  O  O31  1  0.84505500  0.54989700  0.07060700  1
loop_
_geom_bond_atom_site_label_1
_geom_bond_atom_site_label_2
_geom_bond_distance
_geom_bond_site_symmetry_2
Li0 O6 1.935243 1_455
Li0 O8 1.981829 1_555
Li0 O4 2.079844 1_545
Li0 O30 2.122757 1_556
Li0 O9 2.148773 1_545
Li1 O18 1.972706 1_555
Li1 O12 1.973463 1_555
Li1 O16 2.045683 1_555
Li1 O10 2.109391 1_555
Li1 O19 2.171490 1_555
Li2 O25 1.962852 1_655
Li2 O23 1.969524 1_555
Li2 O27 2.085431 1_565
Li2 O22 2.110643 1_565
Li2 O1 2.207738 1_554
Li3 O28 1.963382 1_555
Li3 O2 1.995307 1_554
Li3 O31 2.033811 1_555
Li3 O26 2.136955 1_555
Li3 O3 2.186901 1_554
H0 O12 1.127704 1_555
H0 O3 1.296067 1_555
H1 O9 1.096949 1_555
H1 O22 1.342389 1_465
H2 O19 1.181005 1_555
H2 O28 1.227461 1_555
H3 O25 1.093410 1_555
H3 O6 1.351442 1_464
O0 P7 1.570125 1_556
O0 V0 1.842907 1_555
O1 P0 1.551841 1_555
O1 V3 1.984929 1_556
O2 P1 1.561737 1_555
O2 V3 2.055520 1_546
O3 P0 1.522930 1_555
O4 P2 1.580400 1_555
O4 V3 1.872479 1_556
O5 P2 1.523469 1_555
O5 V0 1.948855 1_555
O6 P1 1.520446 1_555
O7 P0 1.547026 1_555
O7 V0 1.951574 1_655
O8 P3 1.543502 1_555
O8 V0 2.085949 1_555
O9 P2 1.549603 1_555
O10 P1 1.552129 1_555
O10 V0 2.061323 1_655
O11 P1 1.567885 1_555
O11 V1 1.866146 1_545
O12 P3 1.547482 1_555
O13 P2 1.533388 1_555
O13 V1 1.969389 1_555
O14 P3 1.527379 1_555
O14 V1 2.006261 1_545
O15 P3 1.567482 1_555
O15 V2 1.827506 1_555
O16 P4 1.575650 1_555
O16 V0 1.904995 1_655
O17 P4 1.528933 1_555
O17 V1 1.966181 1_555
O18 P5 1.552538 1_555
O18 V1 2.073879 1_545
O19 P4 1.536994 1_555
O20 P6 1.554111 1_555
O20 V1 1.862137 1_555
O21 P6 1.532778 1_555
O21 V2 1.964484 1_555
O22 P5 1.519357 1_555
O23 P4 1.554319 1_555
O23 V2 2.056037 1_655
O24 P7 1.539039 1_555
O24 V2 1.964393 1_555
O25 P6 1.556039 1_555
O26 P5 1.540148 1_555
O26 V2 2.038124 1_655
O27 P5 1.593531 1_555
O27 V3 1.877193 1_545
O28 P7 1.531260 1_555
O29 P6 1.538183 1_555
O29 V3 1.957093 1_555
O30 P7 1.549642 1_555
O30 V3 2.035513 1_545
O31 P0 1.579352 1_554
O31 V2 1.923547 1_655
