# generated using pymatgen
data_Li3Sb2(PO4)3
_symmetry_space_group_name_H-M   'P 1'
_cell_length_a   9.37977300
_cell_length_b   8.49529700
_cell_length_c   12.83660500
_cell_angle_alpha   80.76599412
_cell_angle_beta   90.00000000
_cell_angle_gamma   90.00000000
_symmetry_Int_Tables_number   1
_chemical_formula_structural   Li3Sb2(PO4)3
_chemical_formula_sum   'Li12 Sb8 P12 O48'
_cell_volume   1009.61629907
_cell_formula_units_Z   4
loop_
 _symmetry_equiv_pos_site_id
 _symmetry_equiv_pos_as_xyz
  1  'x, y, z'
loop_
 _atom_site_type_symbol
 _atom_site_label
 _atom_site_symmetry_multiplicity
 _atom_site_fract_x
 _atom_site_fract_y
 _atom_site_fract_z
 _atom_site_occupancy
  Li  Li0  1  0.18336200  0.70543400  0.94541200  1
  Li  Li1  1  0.61145500  0.50000000  0.75000000  1
  Li  Li2  1  0.18336200  0.29456600  0.55458800  1
  Li  Li3  1  0.50000000  0.50000000  0.50000000  1
  Li  Li4  1  0.00000000  0.00000000  0.50000000  1
  Li  Li5  1  0.81663800  0.70543400  0.44541200  1
  Li  Li6  1  0.88263400  0.00000000  0.75000000  1
  Li  Li7  1  0.38854500  0.50000000  0.25000000  1
  Li  Li8  1  0.11736600  0.00000000  0.25000000  1
  Li  Li9  1  0.00000000  0.00000000  0.00000000  1
  Li  Li10  1  0.50000000  0.50000000  0.00000000  1
  Li  Li11  1  0.81663800  0.29456600  0.05458800  1
  Sb  Sb0  1  0.50332200  0.81616000  0.84800700  1
  Sb  Sb1  1  0.01034900  0.68824200  0.65607800  1
  Sb  Sb2  1  0.01034900  0.31175800  0.84392200  1
  Sb  Sb3  1  0.50332200  0.18384000  0.65199300  1
  Sb  Sb4  1  0.98965100  0.68824200  0.15607800  1
  Sb  Sb5  1  0.98965100  0.31175800  0.34392200  1
  Sb  Sb6  1  0.49667800  0.81616000  0.34800700  1
  Sb  Sb7  1  0.49667800  0.18384000  0.15199300  1
  P  P0  1  0.32989900  0.50000000  0.75000000  1
  P  P1  1  0.82997000  0.67436400  0.92239600  1
  P  P2  1  0.66665200  0.82258800  0.58665500  1
  P  P3  1  0.16052800  0.00000000  0.75000000  1
  P  P4  1  0.17003000  0.67436400  0.42239600  1
  P  P5  1  0.66665200  0.17741200  0.91334500  1
  P  P6  1  0.82997000  0.32563600  0.57760400  1
  P  P7  1  0.33334800  0.82258800  0.08665500  1
  P  P8  1  0.33334800  0.17741200  0.41334500  1
  P  P9  1  0.17003000  0.32563600  0.07760400  1
  P  P10  1  0.67010100  0.50000000  0.25000000  1
  P  P11  1  0.83947200  0.00000000  0.25000000  1
  O  O0  1  0.24331100  0.86861300  0.81895200  1
  O  O1  1  0.60985000  0.00810800  0.91802100  1
  O  O2  1  0.05646500  0.92824200  0.67109500  1
  O  O3  1  0.43062100  0.56830400  0.83083900  1
  O  O4  1  0.23873800  0.36958100  0.81535000  1
  O  O5  1  0.66195100  0.67739200  0.93421900  1
  O  O6  1  0.90703600  0.76563100  0.00602500  1
  O  O7  1  0.23873800  0.63041900  0.68465000  1
  O  O8  1  0.05646500  0.07175800  0.82890500  1
  O  O9  1  0.60422300  0.26013000  0.00726600  1
  O  O10  1  0.09296400  0.76563100  0.50602500  1
  O  O11  1  0.63570600  0.71327100  0.68932900  1
  O  O12  1  0.86990100  0.49717500  0.94319000  1
  O  O13  1  0.39015000  0.00810800  0.41802100  1
  O  O14  1  0.87661300  0.76908900  0.81626600  1
  O  O15  1  0.43062100  0.43169600  0.66916100  1
  O  O16  1  0.12338700  0.76908900  0.31626600  1
  O  O17  1  0.63570600  0.28672900  0.81067100  1
  O  O18  1  0.83287400  0.83407300  0.56436200  1
  O  O19  1  0.60422300  0.73987000  0.49273400  1
  O  O20  1  0.24331100  0.13138700  0.68104800  1
  O  O21  1  0.13009900  0.49717500  0.44319000  1
  O  O22  1  0.33804900  0.67739200  0.43421900  1
  O  O23  1  0.83287400  0.16592700  0.93563800  1
  O  O24  1  0.66195100  0.32260800  0.56578100  1
  O  O25  1  0.16712600  0.83407300  0.06436200  1
  O  O26  1  0.75668900  0.86861300  0.31895200  1
  O  O27  1  0.86990100  0.50282500  0.55681000  1
  O  O28  1  0.16712600  0.16592700  0.43563800  1
  O  O29  1  0.39577700  0.26013000  0.50726600  1
  O  O30  1  0.87661300  0.23091100  0.68373400  1
  O  O31  1  0.36429400  0.71327100  0.18932900  1
  O  O32  1  0.56937900  0.56830400  0.33083900  1
  O  O33  1  0.12338700  0.23091100  0.18373400  1
  O  O34  1  0.60985000  0.99189200  0.58197900  1
  O  O35  1  0.13009900  0.50282500  0.05681000  1
  O  O36  1  0.36429400  0.28672900  0.31067100  1
  O  O37  1  0.39577700  0.73987000  0.99273400  1
  O  O38  1  0.94353500  0.92824200  0.17109500  1
  O  O39  1  0.90703600  0.23436900  0.49397500  1
  O  O40  1  0.76126200  0.36958100  0.31535000  1
  O  O41  1  0.33804900  0.32260800  0.06578100  1
  O  O42  1  0.09296400  0.23436900  0.99397500  1
  O  O43  1  0.76126200  0.63041900  0.18465000  1
  O  O44  1  0.56937900  0.43169600  0.16916100  1
  O  O45  1  0.94353500  0.07175800  0.32890500  1
  O  O46  1  0.39015000  0.99189200  0.08197900  1
  O  O47  1  0.75668900  0.13138700  0.18104800  1
loop_
_geom_bond_atom_site_label_1
_geom_bond_atom_site_label_2
_geom_bond_distance
_geom_bond_site_symmetry_2
Li0 O25 2.021004 1_556
Li0 O0 2.037361 1_555
Li0 O35 2.113554 1_556
Li0 O37 2.116906 1_555
Li1 O17 1.867633 1_555
Li1 O11 1.867633 1_555
Li1 O3 2.117499 1_555
Li1 O15 2.117499 1_555
Li2 O28 2.021004 1_555
Li2 O20 2.037361 1_555
Li2 O21 2.113554 1_555
Li2 O29 2.116906 1_555
Li3 O24 2.209801 1_555
Li3 O22 2.209801 1_555
Li3 O29 2.248527 1_555
Li3 O19 2.248527 1_555
Li3 O32 2.251892 1_555
Li3 O15 2.251892 1_555
Li4 O10 2.163592 1_545
Li4 O39 2.163592 1_455
Li4 O18 2.180179 1_445
Li4 O28 2.180179 1_555
Li4 O2 2.246348 1_545
Li4 O45 2.246348 1_455
Li5 O18 2.021004 1_555
Li5 O26 2.037361 1_555
Li5 O27 2.113554 1_555
Li5 O19 2.116906 1_555
Li6 O30 2.009810 1_555
Li6 O14 2.009810 1_545
Li6 O2 2.062573 1_645
Li6 O8 2.062573 1_655
Li7 O36 1.867633 1_555
Li7 O31 1.867633 1_555
Li7 O32 2.117499 1_555
Li7 O44 2.117499 1_555
Li8 O33 2.009810 1_555
Li8 O16 2.009810 1_545
Li8 O38 2.062573 1_445
Li8 O45 2.062573 1_455
Li9 O42 2.163592 1_554
Li9 O6 2.163592 1_445
Li9 O23 2.180179 1_454
Li9 O25 2.180179 1_545
Li9 O8 2.246348 1_554
Li9 O38 2.246348 1_445
Li10 O41 2.209801 1_555
Li10 O5 2.209801 1_554
Li10 O9 2.248527 1_555
Li10 O37 2.248527 1_554
Li10 O3 2.251892 1_554
Li10 O44 2.251892 1_555
Li11 O23 2.021004 1_554
Li11 O47 2.037361 1_555
Li11 O12 2.113554 1_554
Li11 O9 2.116906 1_555
O0 P3 1.521554 1_565
O0 Sb0 2.496456 1_555
O1 P5 1.525920 1_555
O1 Sb0 2.221606 1_545
O2 P3 1.596383 1_565
O2 Sb1 2.123063 1_555
O3 P0 1.580924 1_555
O3 Sb0 2.257454 1_555
O4 P0 1.537568 1_555
O4 Sb2 2.215215 1_555
O5 P1 1.583875 1_555
O5 Sb0 2.099910 1_555
O6 P1 1.594753 1_554
O6 Sb4 2.082411 1_555
O7 P0 1.537568 1_555
O7 Sb1 2.215215 1_555
O8 P3 1.596383 1_555
O8 Sb2 2.123063 1_555
O9 P5 1.600667 1_554
O9 Sb7 2.121939 1_555
O10 P4 1.594753 1_555
O10 Sb1 2.082411 1_555
O11 P2 1.513595 1_555
O11 Sb0 2.650697 1_555
O12 P1 1.532459 1_555
O12 Sb2 2.546479 1_655
O13 P8 1.525920 1_555
O13 Sb6 2.221606 1_545
O14 P1 1.530728 1_555
O14 Sb1 2.593602 1_655
O15 P0 1.580924 1_555
O15 Sb3 2.257454 1_555
O16 P4 1.530728 1_555
O16 Sb4 2.593602 1_455
O17 P5 1.513595 1_555
O17 Sb3 2.650697 1_555
O18 P2 1.585345 1_555
O18 Sb1 2.285596 1_655
O19 P2 1.600667 1_555
O19 Sb6 2.121939 1_555
O20 P3 1.521554 1_555
O20 Sb3 2.496456 1_555
O21 P4 1.532459 1_555
O21 Sb5 2.546479 1_455
O22 P4 1.583875 1_555
O22 Sb6 2.099910 1_555
O23 P5 1.585345 1_555
O23 Sb2 2.285596 1_655
O24 P6 1.583875 1_555
O24 Sb3 2.099910 1_555
O25 P7 1.585345 1_555
O25 Sb4 2.285596 1_455
O26 P11 1.521554 1_565
O26 Sb6 2.496456 1_555
O27 P6 1.532459 1_555
O27 Sb1 2.546479 1_655
O28 P8 1.585345 1_555
O28 Sb5 2.285596 1_455
O29 P8 1.600667 1_555
O29 Sb3 2.121939 1_555
O30 P6 1.530728 1_555
O30 Sb2 2.593602 1_655
O31 P7 1.513595 1_555
O31 Sb6 2.650697 1_555
O32 P10 1.580924 1_555
O32 Sb6 2.257454 1_555
O33 P9 1.530728 1_555
O33 Sb5 2.593602 1_455
O34 P2 1.525920 1_555
O34 Sb3 2.221606 1_565
O35 P9 1.532459 1_555
O35 Sb4 2.546479 1_455
O36 P8 1.513595 1_555
O36 Sb7 2.650697 1_555
O37 P7 1.600667 1_556
O37 Sb0 2.121939 1_555
O38 P11 1.596383 1_565
O38 Sb4 2.123063 1_555
O39 P6 1.594753 1_555
O39 Sb5 2.082411 1_555
O40 P10 1.537568 1_555
O40 Sb5 2.215215 1_555
O41 P9 1.583875 1_555
O41 Sb7 2.099910 1_555
O42 P9 1.594753 1_556
O42 Sb2 2.082411 1_555
O43 P10 1.537568 1_555
O43 Sb4 2.215215 1_555
O44 P10 1.580924 1_555
O44 Sb7 2.257454 1_555
O45 P11 1.596383 1_555
O45 Sb5 2.123063 1_555
O46 P7 1.525920 1_555
O46 Sb7 2.221606 1_565
O47 P11 1.521554 1_555
O47 Sb7 2.496456 1_555
