# generated using pymatgen
data_Li2Cr2P4H3O16
_symmetry_space_group_name_H-M   'P 1'
_cell_length_a   4.90246700
_cell_length_b   7.47102931
_cell_length_c   8.07367584
_cell_angle_alpha   89.95316513
_cell_angle_beta   90.88218684
_cell_angle_gamma   103.48804242
_symmetry_Int_Tables_number   1
_chemical_formula_structural   Li2Cr2P4H3O16
_chemical_formula_sum   'Li2 Cr2 P4 H3 O16'
_cell_volume   287.51893091
_cell_formula_units_Z   1
loop_
 _symmetry_equiv_pos_site_id
 _symmetry_equiv_pos_as_xyz
  1  'x, y, z'
loop_
 _atom_site_type_symbol
 _atom_site_label
 _atom_site_symmetry_multiplicity
 _atom_site_fract_x
 _atom_site_fract_y
 _atom_site_fract_z
 _atom_site_occupancy
  Li  Li0  1  0.39344000  0.84808500  0.12819300  1
  Li  Li1  1  0.58996100  0.15243600  0.87504600  1
  Cr  Cr0  1  0.99932100  0.49874100  0.00143200  1
  Cr  Cr1  1  0.49875500  0.00134600  0.49998700  1
  P  P0  1  0.11066400  0.25322700  0.66215000  1
  P  P1  1  0.37256000  0.23679400  0.15714100  1
  P  P2  1  0.62406700  0.75535900  0.84029800  1
  P  P3  1  0.88501400  0.74894700  0.33879400  1
  H  H0  1  0.45590000  0.48204900  0.60125100  1
  H  H1  1  0.55063300  0.50975800  0.38206800  1
  H  H2  1  0.95660500  0.97932100  0.98651300  1
  O  O0  1  0.98784400  0.70087500  0.16827200  1
  O  O1  1  0.12955800  0.84291400  0.44872200  1
  O  O2  1  0.17944300  0.37323800  0.17023700  1
  O  O3  1  0.25372100  0.44103300  0.57605100  1
  O  O4  1  0.36700900  0.66092900  0.94372700  1
  O  O5  1  0.54693000  0.81512400  0.67002700  1
  O  O6  1  0.25401800  0.06260200  0.05312600  1
  O  O7  1  0.33249200  0.13584600  0.68124400  1
  O  O8  1  0.66441800  0.86703100  0.31815900  1
  O  O9  1  0.74925600  0.93751300  0.94644900  1
  O  O10  1  0.45066000  0.18940100  0.33356200  1
  O  O11  1  0.63634300  0.34250600  0.06003000  1
  O  O12  1  0.73937200  0.56255800  0.42811400  1
  O  O13  1  0.82833500  0.62944200  0.82950800  1
  O  O14  1  0.86712500  0.15871600  0.55126000  1
  O  O15  1  0.00308200  0.29727300  0.83279600  1
loop_
_geom_bond_atom_site_label_1
_geom_bond_atom_site_label_2
_geom_bond_distance
_geom_bond_site_symmetry_2
Li0 O6 1.974764 1_565
Li0 O8 1.996760 1_555
Li0 O4 2.025562 1_554
Li0 O0 2.065718 1_455
Li0 O9 2.275055 1_554
Li1 O7 1.980754 1_555
Li1 O9 2.022383 1_545
Li1 O11 2.034966 1_556
Li1 O15 2.094634 1_655
Li1 O6 2.187636 1_556
Cr0 O11 1.951649 1_555
Cr0 O2 1.965566 1_655
Cr0 O13 1.981580 1_554
Cr0 O4 1.985101 1_654
Cr0 O15 2.033881 1_654
Cr0 O0 2.035548 1_555
Cr1 O14 1.949958 1_555
Cr1 O1 1.956195 1_545
Cr1 O10 1.994150 1_555
Cr1 O5 2.004070 1_545
Cr1 O7 2.058373 1_555
Cr1 O8 2.059353 1_545
H0 O3 0.984851 1_555
H1 O12 0.984556 1_555
H2 O9 1.037995 1_555
H2 O6 1.534766 1_666
O0 P3 1.544401 1_555
O1 P3 1.514421 1_455
O2 P1 1.549227 1_555
O3 P0 1.580556 1_555
O4 P2 1.549155 1_555
O5 P2 1.514584 1_555
O6 P1 1.539659 1_555
O7 P0 1.554022 1_555
O8 P3 1.553991 1_555
O9 P2 1.599766 1_555
O10 P1 1.531799 1_555
O11 P1 1.569898 1_555
O12 P3 1.587248 1_555
O13 P2 1.528946 1_555
O14 P0 1.516729 1_655
O15 P0 1.545543 1_555
