# generated using pymatgen
data_Li3MnV(PO4)3
_symmetry_space_group_name_H-M   'P 1'
_cell_length_a   8.57017900
_cell_length_b   8.73288299
_cell_length_c   12.11376287
_cell_angle_alpha   89.82269431
_cell_angle_beta   88.24107212
_cell_angle_gamma   89.25916577
_symmetry_Int_Tables_number   1
_chemical_formula_structural   Li3MnV(PO4)3
_chemical_formula_sum   'Li12 Mn4 V4 P12 O48'
_cell_volume   906.11649472
_cell_formula_units_Z   4
loop_
 _symmetry_equiv_pos_site_id
 _symmetry_equiv_pos_as_xyz
  1  'x, y, z'
loop_
 _atom_site_type_symbol
 _atom_site_label
 _atom_site_symmetry_multiplicity
 _atom_site_fract_x
 _atom_site_fract_y
 _atom_site_fract_z
 _atom_site_occupancy
  Li  Li0  1  0.93602400  0.51294400  0.34522800  1
  Li  Li1  1  0.91842200  0.08751700  0.69062200  1
  Li  Li2  1  0.82055900  0.77986700  0.17692400  1
  Li  Li3  1  0.68100000  0.27984500  0.32191200  1
  Li  Li4  1  0.57872100  0.58588800  0.80983600  1
  Li  Li5  1  0.56483600  0.01329900  0.15360800  1
  Li  Li6  1  0.43485800  0.98638800  0.84644600  1
  Li  Li7  1  0.42104500  0.41509200  0.19077100  1
  Li  Li8  1  0.31947200  0.71940700  0.67787800  1
  Li  Li9  1  0.17938600  0.22045800  0.82295300  1
  Li  Li10  1  0.08148200  0.91598300  0.30853900  1
  Li  Li11  1  0.06346000  0.48430500  0.65407200  1
  Mn  Mn0  1  0.75407500  0.46392500  0.10821100  1
  Mn  Mn1  1  0.25338200  0.47091900  0.39407200  1
  Mn  Mn2  1  0.24575700  0.53585500  0.89102600  1
  Mn  Mn3  1  0.24757000  0.96964200  0.10489900  1
  V  V0  1  0.75589800  0.02632800  0.89528400  1
  V  V1  1  0.74291500  0.52717300  0.60481000  1
  V  V2  1  0.74567300  0.96511700  0.39097200  1
  V  V3  1  0.25486700  0.03513700  0.61003600  1
  P  P0  1  0.95887700  0.24737000  0.49029200  1
  P  P1  1  0.88330800  0.38224400  0.84801400  1
  P  P2  1  0.88608700  0.11090700  0.14594900  1
  P  P3  1  0.61352800  0.88341500  0.65204000  1
  P  P4  1  0.61580800  0.61131200  0.35230700  1
  P  P5  1  0.54363200  0.74742000  0.00985600  1
  P  P6  1  0.45376700  0.24911000  0.99012500  1
  P  P7  1  0.38283500  0.38981400  0.64992700  1
  P  P8  1  0.38577000  0.11924100  0.35083100  1
  P  P9  1  0.11599200  0.88944400  0.85175200  1
  P  P10  1  0.11745800  0.62034300  0.14855900  1
  P  P11  1  0.04304300  0.74950200  0.51030900  1
  O  O0  1  0.94851400  0.89279700  0.89871700  1
  O  O1  1  0.95118500  0.86884300  0.44372100  1
  O  O2  1  0.94550300  0.66402700  0.59920400  1
  O  O3  1  0.94734600  0.58635400  0.19075300  1
  O  O4  1  0.90014100  0.35907200  0.58249300  1
  O  O5  1  0.87034500  0.20466200  0.83117900  1
  O  O6  1  0.86092100  0.41908600  0.97138000  1
  O  O7  1  0.87372400  0.99600800  0.24677200  1
  O  O8  1  0.82708600  0.27180400  0.18677500  1
  O  O9  1  0.81377300  0.17658100  0.43553600  1
  O  O10  1  0.76731500  0.47222900  0.77674400  1
  O  O11  1  0.76465300  0.04958700  0.06419200  1
  O  O12  1  0.73579300  0.54884900  0.43688000  1
  O  O13  1  0.72865500  0.97194700  0.72226100  1
  O  O14  1  0.69010100  0.67637100  0.06597800  1
  O  O15  1  0.67477300  0.77003800  0.31182200  1
  O  O16  1  0.63864200  0.92020600  0.52939200  1
  O  O17  1  0.63055300  0.49354800  0.25259800  1
  O  O18  1  0.62330400  0.70585700  0.67007700  1
  O  O19  1  0.60243800  0.86108600  0.91896600  1
  O  O20  1  0.55347100  0.16407600  0.90062800  1
  O  O21  1  0.55855500  0.08106400  0.31089500  1
  O  O22  1  0.55099900  0.39209300  0.60533300  1
  O  O23  1  0.54230300  0.36621700  0.05674800  1
  O  O24  1  0.45535700  0.62792300  0.94630500  1
  O  O25  1  0.44815200  0.61256600  0.39702800  1
  O  O26  1  0.44028900  0.92197500  0.68971900  1
  O  O27  1  0.44726700  0.83239900  0.10202400  1
  O  O28  1  0.39434000  0.13425200  0.08203800  1
  O  O29  1  0.37850400  0.29886700  0.33370800  1
  O  O30  1  0.37188600  0.50653100  0.75066000  1
  O  O31  1  0.36396500  0.08193600  0.47308300  1
  O  O32  1  0.32837600  0.22961600  0.68975400  1
  O  O33  1  0.30923500  0.32081900  0.93404200  1
  O  O34  1  0.27002100  0.03132500  0.28194200  1
  O  O35  1  0.26238100  0.45294500  0.56754800  1
  O  O36  1  0.23794600  0.95029800  0.93190800  1
  O  O37  1  0.23474000  0.53061200  0.21785500  1
  O  O38  1  0.18593400  0.82128000  0.56509400  1
  O  O39  1  0.17038700  0.72798700  0.81095500  1
  O  O40  1  0.12407500  0.00532400  0.75136200  1
  O  O41  1  0.13589500  0.58415800  0.02531700  1
  O  O42  1  0.12628900  0.80001000  0.16521400  1
  O  O43  1  0.10348500  0.63711100  0.41642000  1
  O  O44  1  0.05429400  0.41668200  0.80859600  1
  O  O45  1  0.05349800  0.33153700  0.39818100  1
  O  O46  1  0.05032100  0.12494800  0.55334000  1
  O  O47  1  0.05376300  0.11128300  0.10079800  1
loop_
_geom_bond_atom_site_label_1
_geom_bond_atom_site_label_2
_geom_bond_distance
_geom_bond_site_symmetry_2
Li0 O3 1.976133 1_555
Li0 O45 1.981637 1_655
Li0 O43 2.025154 1_655
Li0 O12 2.036410 1_555
Li1 O13 1.952500 1_545
Li1 O46 2.010227 1_655
Li1 O5 2.017978 1_555
Li1 O40 2.050993 1_655
Li2 O14 1.999770 1_555
Li2 O3 2.006620 1_555
Li2 O15 2.028626 1_555
Li2 O7 2.131220 1_555
Li3 O9 2.016052 1_555
Li3 O8 2.030970 1_555
Li3 O21 2.046850 1_555
Li3 O17 2.089622 1_555
Li4 O10 1.918194 1_555
Li4 O24 1.967708 1_555
Li4 O18 2.017312 1_555
Li4 O30 2.061344 1_555
Li5 O21 1.995814 1_555
Li5 O27 1.996829 1_545
Li5 O28 2.008631 1_555
Li5 O11 2.025896 1_555
Li6 O36 1.980780 1_555
Li6 O26 1.980808 1_555
Li6 O20 1.989987 1_565
Li6 O19 2.015597 1_555
Li7 O37 1.898144 1_555
Li7 O23 1.946070 1_555
Li7 O29 2.030062 1_555
Li7 O17 2.090885 1_555
Li8 O38 2.007477 1_555
Li8 O39 2.026986 1_555
Li8 O26 2.068840 1_555
Li8 O30 2.104197 1_555
Li9 O33 1.985425 1_555
Li9 O44 2.019427 1_555
Li9 O32 2.028713 1_555
Li9 O40 2.136542 1_555
Li10 O34 1.933227 1_565
Li10 O1 1.998372 1_455
Li10 O42 2.036538 1_555
Li10 O7 2.065157 1_455
Li11 O44 1.960645 1_555
Li11 O2 1.980096 1_455
Li11 O35 1.989949 1_555
Li11 O4 2.006726 1_455
Mn0 O6 1.908093 1_554
Mn0 O14 1.997345 1_555
Mn0 O8 2.027734 1_555
Mn0 O17 2.031961 1_555
Mn0 O23 2.126843 1_555
Mn0 O3 2.245111 1_555
Mn1 O43 1.939805 1_555
Mn1 O29 1.964461 1_555
Mn1 O25 2.091657 1_555
Mn1 O35 2.110512 1_555
Mn1 O45 2.113502 1_555
Mn1 O37 2.205879 1_555
Mn2 O41 1.900199 1_556
Mn2 O30 2.001988 1_555
Mn2 O33 2.019620 1_555
Mn2 O39 2.042952 1_555
Mn2 O24 2.106208 1_555
Mn2 O44 2.218968 1_555
Mn3 O28 1.936037 1_565
Mn3 O42 1.948118 1_555
Mn3 O47 2.059811 1_565
Mn3 O27 2.076117 1_555
Mn3 O36 2.107113 1_554
Mn3 O34 2.227533 1_565
O0 P9 1.527597 1_655
O0 V0 2.010141 1_565
O1 P11 1.539196 1_655
O1 V2 2.060273 1_555
O2 P11 1.539960 1_655
O2 V1 2.119743 1_555
O3 P10 1.561828 1_655
O4 P0 1.553046 1_555
O4 V1 1.993165 1_555
O5 P1 1.570581 1_555
O5 V0 1.993922 1_555
O6 P1 1.535387 1_555
O7 P2 1.580172 1_565
O7 V2 2.053166 1_555
O8 P2 1.563693 1_555
O9 P0 1.562576 1_555
O9 V2 2.023782 1_545
O10 P1 1.542524 1_555
O10 V1 2.151705 1_555
O11 P2 1.559381 1_555
O11 V0 2.060546 1_554
O12 P4 1.565644 1_555
O12 V1 2.045172 1_555
O13 P3 1.539529 1_555
O13 V0 2.170751 1_565
O14 P5 1.566045 1_555
O15 P4 1.554333 1_555
O15 V2 2.064804 1_555
O16 P3 1.528446 1_555
O16 V2 1.928119 1_555
O17 P4 1.589804 1_555
O18 P3 1.566770 1_555
O18 V1 2.006825 1_555
O19 P5 1.556812 1_556
O19 V0 1.979321 1_565
O20 P6 1.545528 1_555
O20 V0 2.097743 1_555
O21 P8 1.575503 1_555
O21 V2 2.141331 1_545
O22 P7 1.523857 1_555
O22 V1 2.036244 1_555
O23 P6 1.528304 1_554
O24 P5 1.521559 1_556
O25 P4 1.519856 1_555
O26 P3 1.572403 1_555
O26 V3 2.116888 1_565
O27 P5 1.553072 1_555
O28 P6 1.573738 1_554
O29 P8 1.582349 1_555
O30 P7 1.592152 1_555
O31 P8 1.521779 1_555
O31 V3 1.924585 1_555
O32 P7 1.551339 1_555
O32 V3 2.070997 1_555
O33 P6 1.554661 1_555
O34 P8 1.531136 1_555
O35 P7 1.552604 1_555
O36 P9 1.548378 1_555
O37 P10 1.535036 1_555
O38 P11 1.550907 1_555
O38 V3 2.046424 1_565
O39 P9 1.556531 1_555
O40 P9 1.580127 1_545
O40 V3 2.035219 1_555
O41 P10 1.529965 1_555
O42 P10 1.585621 1_555
O43 P11 1.575696 1_555
O44 P1 1.559919 1_455
O45 P0 1.548441 1_455
O46 P0 1.533126 1_455
O46 V3 2.048134 1_555
O47 P2 1.521852 1_455
