# generated using pymatgen
data_KTh6F25
_symmetry_space_group_name_H-M   'P 1'
_cell_length_a   9.78572603
_cell_length_b   9.78572603
_cell_length_c   9.78572645
_cell_angle_alpha   50.66213880
_cell_angle_beta   50.66213880
_cell_angle_gamma   50.66214123
_symmetry_Int_Tables_number   1
_chemical_formula_structural   KTh6F25
_chemical_formula_sum   'K1 Th6 F25'
_cell_volume   516.64134749
_cell_formula_units_Z   1
loop_
 _symmetry_equiv_pos_site_id
 _symmetry_equiv_pos_as_xyz
  1  'x, y, z'
loop_
 _atom_site_type_symbol
 _atom_site_label
 _atom_site_symmetry_multiplicity
 _atom_site_fract_x
 _atom_site_fract_y
 _atom_site_fract_z
 _atom_site_occupancy
  K  K0  1  0.00206100  0.00547800  0.99460800  1
  Th  Th0  1  0.08638600  0.59004000  0.59845300  1
  Th  Th1  1  0.58695000  0.09512300  0.58886100  1
  Th  Th2  1  0.41419800  0.90294100  0.40901500  1
  Th  Th3  1  0.40916700  0.41421000  0.90306200  1
  Th  Th4  1  0.91375300  0.40511500  0.41064700  1
  Th  Th5  1  0.59121700  0.59328400  0.08559300  1
  F  F0  1  0.75041500  0.74571300  0.30581100  1
  F  F1  1  0.31645500  0.74938400  0.74454200  1
  F  F2  1  0.75439300  0.30755900  0.74484000  1
  F  F3  1  0.25538000  0.68673500  0.24748300  1
  F  F4  1  0.24549700  0.25538300  0.69132500  1
  F  F5  1  0.68738000  0.25760100  0.25401500  1
  F  F6  1  0.45413200  0.44598700  0.45375400  1
  F  F7  1  0.49949000  0.49594100  0.99900500  1
  F  F8  1  0.50049400  0.99871700  0.50552700  1
  F  F9  1  0.00250400  0.50068100  0.50259600  1
  F  F10  1  0.44904700  0.87507300  0.87639400  1
  F  F11  1  0.87407000  0.87763500  0.44848800  1
  F  F12  1  0.87329000  0.45218900  0.87485900  1
  F  F13  1  0.11984500  0.55288800  0.13099000  1
  F  F14  1  0.54922000  0.13389800  0.12442200  1
  F  F15  1  0.12357200  0.13221300  0.55348500  1
  F  F16  1  0.81842800  0.18492900  0.49649400  1
  F  F17  1  0.17298100  0.50536900  0.81929700  1
  F  F18  1  0.50561200  0.82011600  0.17250300  1
  F  F19  1  0.17816800  0.82051300  0.49583800  1
  F  F20  1  0.81844800  0.49602000  0.18455000  1
  F  F21  1  0.50278200  0.17762300  0.82512900  1
  F  F22  1  0.78587900  0.79399300  0.78633100  1
  F  F23  1  0.20290600  0.21333800  0.21295200  1
  F  F24  1  0.54591000  0.54773000  0.55091600  1
loop_
_geom_bond_atom_site_label_1
_geom_bond_atom_site_label_2
_geom_bond_distance
_geom_bond_site_symmetry_2
F0 Th2 2.356229 1_555
F0 Th4 2.388744 1_555
F0 K0 3.227113 1_664
F1 Th2 2.353527 1_555
F1 Th3 2.355544 1_555
F1 K0 3.192052 1_565
F2 Th4 2.345637 1_555
F2 Th3 2.417993 1_555
F2 K0 3.139010 1_655
F3 Th5 2.360607 1_555
F3 Th0 2.467597 1_555
F3 K0 3.191610 1_564
F4 Th0 2.351860 1_555
F4 Th1 2.394209 1_555
F4 K0 3.111993 1_555
F5 Th1 2.350341 1_555
F5 Th5 2.361362 1_555
F5 K0 3.226689 1_654
F6 Th1 2.447833 1_555
F6 Th0 2.565458 1_555
F6 Th5 2.568556 1_555
F7 Th3 2.280937 1_555
F7 Th5 2.345762 1_556
F8 Th1 2.265547 1_565
F8 Th2 2.370704 1_555
F9 Th0 2.290067 1_555
F9 Th4 2.350676 1_455
F10 Th5 2.306652 1_556
F10 Th1 2.358777 1_565
F10 K0 3.237174 1_565
F11 Th1 2.354370 1_565
F11 Th0 2.367943 1_655
F11 K0 3.278796 1_664
F12 Th0 2.296519 1_655
F12 Th5 2.310773 1_556
F12 K0 3.234873 1_655
F13 Th4 2.308851 1_455
F13 Th3 2.406823 1_554
F13 K0 3.272576 1_564
F14 Th3 2.357867 1_554
F14 Th2 2.398083 1_545
F14 K0 3.264532 1_654
F15 Th4 2.292562 1_455
F15 Th2 2.440314 1_545
F15 K0 3.187630 1_555
F16 Th4 2.340599 1_555
F16 Th1 2.375149 1_555
F17 Th0 2.288336 1_555
F17 Th3 2.381285 1_555
F18 Th5 2.341988 1_555
F18 Th2 2.376546 1_555
F19 Th0 2.335614 1_555
F19 Th2 2.390093 1_555
F20 Th4 2.371785 1_555
F20 Th5 2.380408 1_555
F21 Th3 2.333392 1_555
F21 Th1 2.405182 1_555
F22 Th0 2.523498 1_655
F22 Th5 2.537965 1_556
F22 Th1 2.546467 1_565
F23 Th4 2.490330 1_455
F23 Th3 2.616654 1_554
F23 Th2 2.619402 1_545
F24 Th3 2.456637 1_555
F24 Th2 2.478270 1_555
F24 Th4 2.566073 1_555
