# generated using pymatgen
data_NaV6O13
_symmetry_space_group_name_H-M   'P 1'
_cell_length_a   3.72891302
_cell_length_b   11.32267117
_cell_length_c   11.91037438
_cell_angle_alpha   69.04023961
_cell_angle_beta   89.98871624
_cell_angle_gamma   80.51891635
_symmetry_Int_Tables_number   1
_chemical_formula_structural   NaV6O13
_chemical_formula_sum   'Na2 V12 O26'
_cell_volume   462.23986287
_cell_formula_units_Z   2
loop_
 _symmetry_equiv_pos_site_id
 _symmetry_equiv_pos_as_xyz
  1  'x, y, z'
loop_
 _atom_site_type_symbol
 _atom_site_label
 _atom_site_symmetry_multiplicity
 _atom_site_fract_x
 _atom_site_fract_y
 _atom_site_fract_z
 _atom_site_occupancy
  Na  Na0  1  0.17304600  0.65214900  0.71866300  1
  Na  Na1  1  0.82233900  0.34937100  0.28181700  1
  V  V0  1  0.05503700  0.89169200  0.96599900  1
  V  V1  1  0.56236100  0.87509700  0.77245500  1
  V  V2  1  0.57531400  0.85541500  0.48393700  1
  V  V3  1  0.07541900  0.85557500  0.28389200  1
  V  V4  1  0.77257500  0.45188600  0.92083700  1
  V  V5  1  0.75125000  0.49093900  0.60552500  1
  V  V6  1  0.24142900  0.50884900  0.39321500  1
  V  V7  1  0.22199200  0.54795000  0.07749400  1
  V  V8  1  0.92791000  0.14417600  0.71614600  1
  V  V9  1  0.42861000  0.14392700  0.51579500  1
  V  V10  1  0.44034000  0.12436400  0.22785800  1
  V  V11  1  0.94887300  0.10854500  0.03404200  1
  O  O0  1  0.55401800  0.89369400  0.93329200  1
  O  O1  1  0.04236700  0.91600400  0.78390800  1
  O  O2  1  0.54643100  0.91451900  0.60663100  1
  O  O3  1  0.06605600  0.87519400  0.44305200  1
  O  O4  1  0.64224400  0.71714900  0.81447300  1
  O  O5  1  0.55652600  0.89355200  0.30306200  1
  O  O6  1  0.04565600  0.91087300  0.11256000  1
  O  O7  1  0.65579700  0.69253500  0.55499700  1
  O  O8  1  0.24980500  0.49396800  0.93356600  1
  O  O9  1  0.15440000  0.69379600  0.32923400  1
  O  O10  1  0.75081900  0.49173000  0.76008900  1
  O  O11  1  0.14276700  0.70998200  0.02495500  1
  O  O12  1  0.24729800  0.49879200  0.57015800  1
  O  O13  1  0.74650700  0.50062000  0.42871000  1
  O  O14  1  0.85481800  0.28991900  0.97358400  1
  O  O15  1  0.24075400  0.50922700  0.23819700  1
  O  O16  1  0.84473300  0.30583100  0.67109700  1
  O  O17  1  0.74307800  0.50454100  0.06532600  1
  O  O18  1  0.34752200  0.30657400  0.44374900  1
  O  O19  1  0.95523400  0.08906700  0.88767900  1
  O  O20  1  0.44735600  0.10702100  0.69679700  1
  O  O21  1  0.35766900  0.28179400  0.18677700  1
  O  O22  1  0.93964100  0.12402000  0.55711200  1
  O  O23  1  0.46226200  0.08288900  0.39419400  1
  O  O24  1  0.96048100  0.08334700  0.21566600  1
  O  O25  1  0.44955300  0.10640300  0.06766200  1
loop_
_geom_bond_atom_site_label_1
_geom_bond_atom_site_label_2
_geom_bond_distance
_geom_bond_site_symmetry_2
Na0 O4 2.425196 1_455
Na0 O4 2.435319 1_555
Na0 O10 2.500882 1_555
Na0 O10 2.514400 1_455
Na0 O8 2.528407 1_555
Na0 O7 2.608130 1_455
Na0 O7 2.623270 1_555
Na0 O12 2.873838 1_555
Na1 O21 2.434396 1_555
Na1 O21 2.442779 1_655
Na1 O15 2.497522 1_655
Na1 O15 2.506731 1_555
Na1 O17 2.531990 1_555
Na1 O18 2.588845 1_555
Na1 O18 2.609596 1_655
Na1 O13 2.838573 1_555
O0 V0 1.903050 1_555
O0 V0 1.903330 1_655
O0 V1 2.000335 1_555
O1 V1 1.934459 1_555
O1 V1 1.937861 1_455
O1 V0 2.085718 1_555
O1 V8 2.377654 1_465
O2 V2 1.808529 1_555
O2 V1 1.861211 1_555
O2 V9 2.392551 1_565
O3 V2 1.917196 1_555
O3 V2 1.921609 1_455
O3 V3 1.985638 1_555
O4 V1 1.649783 1_555
O5 V3 1.943415 1_655
O5 V3 1.944230 1_555
O5 V2 2.038848 1_555
O5 V10 2.402569 1_565
O6 V0 1.834174 1_554
O6 V3 1.905681 1_555
O6 V11 2.061749 1_465
O7 V2 1.705480 1_555
O7 V5 2.109218 1_555
O8 V4 1.935961 1_455
O8 V4 1.948231 1_555
O8 V7 2.012860 1_556
O9 V3 1.687714 1_555
O9 V6 1.925046 1_555
O10 V4 1.801596 1_555
O10 V5 1.844137 1_555
O11 V7 1.686688 1_555
O11 V0 1.891541 1_554
O12 V5 1.906276 1_455
O12 V5 1.906615 1_555
O12 V6 2.069380 1_555
O13 V6 1.903028 1_655
O13 V6 1.910207 1_555
O13 V5 2.069180 1_555
O14 V4 1.685958 1_555
O14 V11 1.887805 1_556
O15 V7 1.802835 1_555
O15 V6 1.844797 1_555
O16 V8 1.686641 1_555
O16 V5 1.926828 1_555
O17 V7 1.942776 1_555
O17 V7 1.947305 1_655
O17 V4 2.010337 1_554
O18 V9 1.704503 1_555
O18 V6 2.116508 1_555
O19 V11 1.833410 1_556
O19 V8 1.908083 1_555
O19 V0 2.058579 1_645
O20 V8 1.938823 1_555
O20 V8 1.944909 1_455
O20 V9 2.042775 1_555
O20 V1 2.414127 1_545
O21 V10 1.645265 1_555
O22 V9 1.916549 1_655
O22 V9 1.924514 1_555
O22 V8 1.986898 1_555
O23 V9 1.810651 1_555
O23 V10 1.863837 1_555
O23 V2 2.372108 1_545
O24 V10 1.936505 1_555
O24 V10 1.939247 1_655
O24 V11 2.077781 1_555
O24 V3 2.373157 1_645
O25 V11 1.903948 1_455
O25 V11 1.906650 1_555
O25 V10 1.989536 1_555
