# generated using pymatgen
data_Li5Mn3(PO4)4
_symmetry_space_group_name_H-M   'P 1'
_cell_length_a   4.77856651
_cell_length_b   10.54724653
_cell_length_c   6.00961200
_cell_angle_alpha   89.99942387
_cell_angle_beta   89.99915350
_cell_angle_gamma   90.86574350
_symmetry_Int_Tables_number   1
_chemical_formula_structural   Li5Mn3(PO4)4
_chemical_formula_sum   'Li5 Mn3 P4 O16'
_cell_volume   302.85418930
_cell_formula_units_Z   1
loop_
 _symmetry_equiv_pos_site_id
 _symmetry_equiv_pos_as_xyz
  1  'x, y, z'
loop_
 _atom_site_type_symbol
 _atom_site_label
 _atom_site_symmetry_multiplicity
 _atom_site_fract_x
 _atom_site_fract_y
 _atom_site_fract_z
 _atom_site_occupancy
  Li  Li0  1  0.99835500  0.01129300  0.00771300  1
  Li  Li1  1  0.99839500  0.01130500  0.49228300  1
  Li  Li2  1  0.49232900  0.49355200  0.49247200  1
  Li  Li3  1  0.49238800  0.49354800  0.00751800  1
  Li  Li4  1  0.98354600  0.27905400  0.24999300  1
  Mn  Mn0  1  0.01652600  0.72125300  0.75017900  1
  Mn  Mn1  1  0.50121500  0.22349100  0.74996200  1
  Mn  Mn2  1  0.51018800  0.78237400  0.25003600  1
  P  P0  1  0.07853300  0.58945600  0.25002300  1
  P  P1  1  0.42765600  0.09649300  0.24997800  1
  P  P2  1  0.58943200  0.90899000  0.75000000  1
  P  P3  1  0.90864800  0.40349900  0.74998600  1
  O  O0  1  0.19332400  0.45406900  0.24992700  1
  O  O1  1  0.21647400  0.66212600  0.04624800  1
  O  O2  1  0.21643400  0.66204600  0.45385400  1
  O  O3  1  0.22846200  0.39990400  0.74996200  1
  O  O4  1  0.26939600  0.90425100  0.74997500  1
  O  O5  1  0.29923200  0.16462400  0.03982000  1
  O  O6  1  0.29922400  0.16464800  0.46011200  1
  O  O7  1  0.29058100  0.96070600  0.25000200  1
  O  O8  1  0.71746200  0.04532700  0.74995100  1
  O  O9  1  0.72249600  0.83809000  0.54586600  1
  O  O10  1  0.72245300  0.83814900  0.95419100  1
  O  O11  1  0.74689000  0.09567200  0.24998100  1
  O  O12  1  0.75729900  0.59658600  0.24998300  1
  O  O13  1  0.76662100  0.33010200  0.54912800  1
  O  O14  1  0.76664800  0.33007500  0.95083600  1
  O  O15  1  0.78978900  0.53931700  0.75001800  1
loop_
_geom_bond_atom_site_label_1
_geom_bond_atom_site_label_2
_geom_bond_distance
_geom_bond_site_symmetry_2
Li0 O8 2.084394 1_554
Li0 O7 2.092212 1_645
Li0 O11 2.094762 1_555
Li0 O5 2.156278 1_655
Li0 O10 2.259186 1_544
Li0 O4 2.322804 1_644
Li1 O8 2.084051 1_555
Li1 O7 2.092062 1_645
Li1 O11 2.094972 1_555
Li1 O6 2.156249 1_655
Li1 O9 2.259818 1_545
Li1 O4 2.322585 1_645
Li2 O0 2.078852 1_555
Li2 O15 2.151359 1_555
Li2 O12 2.205930 1_555
Li2 O13 2.207759 1_555
Li2 O3 2.218617 1_555
Li2 O2 2.240770 1_555
Li3 O0 2.078429 1_555
Li3 O15 2.150947 1_554
Li3 O12 2.205735 1_555
Li3 O14 2.207882 1_554
Li3 O3 2.219073 1_554
Li3 O1 2.241605 1_555
Li4 O0 2.087201 1_655
Li4 O14 2.147761 1_554
Li4 O13 2.147770 1_555
Li4 O11 2.225717 1_555
Li4 O6 2.319723 1_655
Li4 O5 2.320048 1_655
Mn0 O1 2.117929 1_556
Mn0 O2 2.119376 1_555
Mn0 O15 2.189376 1_455
Mn0 O10 2.247294 1_455
Mn0 O9 2.247814 1_455
Mn0 O4 2.261643 1_555
Mn1 O13 2.070362 1_555
Mn1 O14 2.070464 1_555
Mn1 O6 2.081582 1_555
Mn1 O5 2.081644 1_556
Mn1 O8 2.158161 1_555
Mn1 O3 2.287827 1_555
Mn2 O9 2.125397 1_555
Mn2 O10 2.125508 1_554
Mn2 O7 2.167655 1_555
Mn2 O1 2.241561 1_555
Mn2 O2 2.242211 1_555
Mn2 O12 2.303072 1_555
O0 P0 1.537411 1_555
O1 P0 1.583137 1_555
O2 P0 1.582943 1_555
O3 P3 1.529295 1_455
O4 P2 1.529375 1_555
O5 P1 1.581583 1_555
O6 P1 1.581596 1_555
O7 P1 1.565836 1_565
O8 P2 1.554188 1_545
O9 P2 1.575702 1_555
O10 P2 1.575588 1_555
O11 P1 1.525636 1_555
O12 P0 1.538014 1_655
O13 P3 1.581488 1_555
O14 P3 1.581508 1_555
O15 P3 1.548953 1_555
