# generated using pymatgen
data_LiP3W2O13
_symmetry_space_group_name_H-M   'P 1'
_cell_length_a   19.04374300
_cell_length_b   6.48898500
_cell_length_c   9.82190568
_cell_angle_alpha   72.87569725
_cell_angle_beta   90.00000000
_cell_angle_gamma   90.00000000
_symmetry_Int_Tables_number   1
_chemical_formula_structural   LiP3W2O13
_chemical_formula_sum   'Li4 P12 W8 O52'
_cell_volume   1159.93053174
_cell_formula_units_Z   4
loop_
 _symmetry_equiv_pos_site_id
 _symmetry_equiv_pos_as_xyz
  1  'x, y, z'
loop_
 _atom_site_type_symbol
 _atom_site_label
 _atom_site_symmetry_multiplicity
 _atom_site_fract_x
 _atom_site_fract_y
 _atom_site_fract_z
 _atom_site_occupancy
  Li  Li0  1  0.07488900  0.81519900  0.61993300  1
  Li  Li1  1  0.84533200  0.76561300  0.02995400  1
  Li  Li2  1  0.34533200  0.23438700  0.97004600  1
  Li  Li3  1  0.57488900  0.18480100  0.38006700  1
  P  P0  1  0.66820300  0.90826300  0.96463800  1
  P  P1  1  0.93285300  0.97993100  0.29296200  1
  P  P2  1  0.30742300  0.75566000  0.70265200  1
  P  P3  1  0.37274000  0.74300000  0.30873400  1
  P  P4  1  0.51209800  0.40899200  0.97255500  1
  P  P5  1  0.74752200  0.52071600  0.69679300  1
  P  P6  1  0.24752200  0.47928400  0.30320700  1
  P  P7  1  0.01209800  0.59100800  0.02744500  1
  P  P8  1  0.87274000  0.25700000  0.69126600  1
  P  P9  1  0.80742300  0.24434000  0.29734800  1
  P  P10  1  0.43285300  0.02006900  0.70703800  1
  P  P11  1  0.16820300  0.09173700  0.03536200  1
  W  W0  1  0.21317100  0.93316300  0.39301700  1
  W  W1  1  0.18005100  0.62963400  0.94378500  1
  W  W2  1  0.50276000  0.86785600  0.07361800  1
  W  W3  1  0.46765800  0.56232300  0.62030300  1
  W  W4  1  0.96765800  0.43767700  0.37969700  1
  W  W5  1  0.00276000  0.13214400  0.92638200  1
  W  W6  1  0.68005100  0.37036600  0.05621500  1
  W  W7  1  0.71317100  0.06683700  0.60698300  1
  O  O0  1  0.19413900  0.93565100  0.95433200  1
  O  O1  1  0.44802600  0.97781800  0.86542300  1
  O  O2  1  0.58863700  0.91732400  0.93918100  1
  O  O3  1  0.70622700  0.95995100  0.82069300  1
  O  O4  1  0.34927400  0.97387200  0.69884100  1
  O  O5  1  0.98879400  0.81556100  0.93150400  1
  O  O6  1  0.47113000  0.87880500  0.63073700  1
  O  O7  1  0.12474700  0.92467300  0.44841000  1
  O  O8  1  0.24646700  0.83062300  0.60136800  1
  O  O9  1  0.12779000  0.70180100  0.78804500  1
  O  O10  1  0.28049800  0.65726600  0.85652200  1
  O  O11  1  0.32183500  0.89689100  0.34904500  1
  O  O12  1  0.73942000  0.75761700  0.61228400  1
  O  O13  1  0.94063000  0.74437700  0.38242600  1
  O  O14  1  0.40006300  0.84650000  0.15570400  1
  O  O15  1  0.35660000  0.59688000  0.66427500  1
  O  O16  1  0.55265000  0.80340900  0.22916400  1
  O  O17  1  0.99189200  0.43631400  0.94140600  1
  O  O18  1  0.43366900  0.67010600  0.41093100  1
  O  O19  1  0.72993500  0.47132700  0.85496200  1
  O  O20  1  0.46510400  0.45631900  0.83868600  1
  O  O21  1  0.59022000  0.42100200  0.93007400  1
  O  O22  1  0.55699400  0.54990300  0.58779300  1
  O  O23  1  0.21044700  0.62103300  0.37972800  1
  O  O24  1  0.83123400  0.47455000  0.69155100  1
  O  O25  1  0.19545000  0.31557500  0.94520400  1
  O  O26  1  0.69545000  0.68442500  0.05479600  1
  O  O27  1  0.33123400  0.52545000  0.30844900  1
  O  O28  1  0.71044700  0.37896700  0.62027200  1
  O  O29  1  0.05699400  0.45009700  0.41220700  1
  O  O30  1  0.09022000  0.57899800  0.06992600  1
  O  O31  1  0.96510400  0.54368100  0.16131400  1
  O  O32  1  0.22993500  0.52867300  0.14503800  1
  O  O33  1  0.93366900  0.32989400  0.58906900  1
  O  O34  1  0.49189200  0.56368600  0.05859400  1
  O  O35  1  0.05265000  0.19659100  0.77083600  1
  O  O36  1  0.85660000  0.40312000  0.33572500  1
  O  O37  1  0.90006300  0.15350000  0.84429600  1
  O  O38  1  0.44063000  0.25562300  0.61757400  1
  O  O39  1  0.23942000  0.24238300  0.38771600  1
  O  O40  1  0.82183500  0.10310900  0.65095500  1
  O  O41  1  0.78049800  0.34273400  0.14347800  1
  O  O42  1  0.62779000  0.29819900  0.21195500  1
  O  O43  1  0.74646700  0.16937700  0.39863200  1
  O  O44  1  0.62474700  0.07532700  0.55159000  1
  O  O45  1  0.97113000  0.12119500  0.36926300  1
  O  O46  1  0.48879400  0.18443900  0.06849600  1
  O  O47  1  0.84927400  0.02612800  0.30115900  1
  O  O48  1  0.20622700  0.04004900  0.17930700  1
  O  O49  1  0.08863700  0.08267600  0.06081900  1
  O  O50  1  0.94802600  0.02218200  0.13457700  1
  O  O51  1  0.69413900  0.06434900  0.04566800  1
loop_
_geom_bond_atom_site_label_1
_geom_bond_atom_site_label_2
_geom_bond_distance
_geom_bond_site_symmetry_2
Li0 O7 1.881368 1_555
Li0 O9 1.888722 1_555
Li3 O44 1.881368 1_555
Li3 O42 1.888722 1_555
O0 P11 1.542046 1_566
O0 W1 2.036421 1_555
O1 P10 1.525621 1_565
O1 W2 2.217625 1_556
O2 P0 1.534032 1_555
O2 W2 2.066776 1_556
O3 P0 1.535078 1_555
O3 W7 2.011758 1_565
O4 P2 1.615667 1_555
O4 P10 1.626016 1_565
O5 P7 1.549043 1_656
O5 W5 2.057320 1_665
O6 P10 1.528985 1_565
O6 W3 2.087170 1_555
O7 W0 1.765500 1_555
O8 P2 1.512881 1_555
O8 W0 2.056867 1_555
O9 W1 1.768570 1_555
O10 P2 1.544781 1_555
O10 W1 2.082159 1_555
O11 P3 1.525309 1_555
O11 W0 2.141046 1_555
O12 P5 1.524627 1_555
O12 W7 2.053584 1_565
O13 P1 1.529525 1_555
O13 W4 2.063455 1_555
O14 P3 1.544827 1_555
O14 W2 2.104361 1_555
O15 P2 1.519673 1_555
O15 W3 2.183323 1_555
O16 W2 1.742230 1_555
O17 P7 1.539280 1_656
O17 W5 2.032692 1_655
O18 P3 1.515923 1_555
O18 W3 2.071246 1_555
O19 P5 1.528108 1_555
O19 W6 2.115737 1_556
O20 P4 1.544755 1_555
O20 W3 2.051198 1_555
O21 P4 1.540900 1_555
O21 W6 2.080811 1_556
O22 W3 1.737240 1_555
O23 P6 1.522015 1_555
O23 W0 2.068256 1_555
O24 P8 1.618626 1_555
O24 P5 1.625705 1_555
O25 P11 1.551019 1_556
O25 W1 2.054897 1_555
O26 P0 1.551019 1_554
O26 W6 2.054897 1_555
O27 P3 1.618626 1_555
O27 P6 1.625705 1_555
O28 P5 1.522015 1_555
O28 W7 2.068256 1_555
O29 W4 1.737240 1_455
O30 P7 1.540900 1_555
O30 W1 2.080811 1_554
O31 P7 1.544755 1_655
O31 W4 2.051198 1_555
O32 P6 1.528108 1_555
O32 W1 2.115737 1_554
O33 P8 1.515923 1_555
O33 W4 2.071246 1_555
O34 P4 1.539280 1_554
O34 W2 2.032692 1_555
O35 W5 1.742230 1_555
O36 P9 1.519673 1_555
O36 W4 2.183323 1_555
O37 P8 1.544827 1_555
O37 W5 2.104361 1_655
O38 P10 1.529525 1_555
O38 W3 2.063455 1_555
O39 P6 1.524627 1_555
O39 W0 2.053584 1_545
O40 P8 1.525309 1_555
O40 W7 2.141046 1_555
O41 P9 1.544781 1_555
O41 W6 2.082159 1_555
O42 W6 1.768570 1_555
O43 P9 1.512881 1_555
O43 W7 2.056867 1_555
O44 W7 1.765500 1_555
O45 P1 1.528985 1_545
O45 W4 2.087170 1_555
O46 P4 1.549043 1_554
O46 W2 2.057320 1_545
O47 P9 1.615667 1_555
O47 P1 1.626016 1_545
O48 P11 1.535078 1_555
O48 W0 2.011758 1_545
O49 P11 1.534032 1_555
O49 W5 2.066776 1_554
O50 P1 1.525621 1_545
O50 W5 2.217625 1_654
O51 P0 1.542046 1_544
O51 W6 2.036421 1_555
