# generated using pymatgen
data_ZrO2
_symmetry_space_group_name_H-M   'P 1'
_cell_length_a   8.07932247
_cell_length_b   8.07932247
_cell_length_c   5.02963387
_cell_angle_alpha   90.00000000
_cell_angle_beta   90.00000000
_cell_angle_gamma   90.00000000
_symmetry_Int_Tables_number   1
_chemical_formula_structural   ZrO2
_chemical_formula_sum   'Zr10 O20'
_cell_volume   328.31162212
_cell_formula_units_Z   10
loop_
 _symmetry_equiv_pos_site_id
 _symmetry_equiv_pos_as_xyz
  1  'x, y, z'
loop_
 _atom_site_type_symbol
 _atom_site_label
 _atom_site_symmetry_multiplicity
 _atom_site_fract_x
 _atom_site_fract_y
 _atom_site_fract_z
 _atom_site_occupancy
  Zr  Zr0  1  0.07544133  0.88246232  0.75401964  1
  Zr  Zr1  1  0.11753768  0.57544133  0.24598036  1
  Zr  Zr2  1  0.25000000  0.25000000  0.81923190  1
  Zr  Zr3  1  0.38246232  0.92455867  0.24598036  1
  Zr  Zr4  1  0.42455867  0.61753768  0.75401964  1
  Zr  Zr5  1  0.57544133  0.38246232  0.24598036  1
  Zr  Zr6  1  0.61753768  0.07544133  0.75401964  1
  Zr  Zr7  1  0.75000000  0.75000000  0.18076810  1
  Zr  Zr8  1  0.88246232  0.42455867  0.75401964  1
  Zr  Zr9  1  0.92455867  0.11753768  0.24598036  1
  O  O0  1  0.04577105  0.14057327  0.61224102  1
  O  O1  1  0.04316844  0.33922786  0.07602076  1
  O  O2  1  0.14057327  0.45422895  0.61224102  1
  O  O3  1  0.16077214  0.04316844  0.07602076  1
  O  O4  1  0.25000000  0.75000000  0.50000000  1
  O  O5  1  0.25000000  0.75000000  -0.00000000  1
  O  O6  1  0.33922786  0.45683156  0.07602076  1
  O  O7  1  0.35942673  0.04577105  0.61224102  1
  O  O8  1  0.45683156  0.16077214  0.07602076  1
  O  O9  1  0.45422895  0.35942673  0.61224102  1
  O  O10  1  0.54577105  0.64057327  0.38775898  1
  O  O11  1  0.54316844  0.83922786  0.92397924  1
  O  O12  1  0.64057327  0.95422895  0.38775898  1
  O  O13  1  0.66077214  0.54316844  0.92397924  1
  O  O14  1  0.75000000  0.25000000  0.50000000  1
  O  O15  1  0.75000000  0.25000000  -0.00000000  1
  O  O16  1  0.83922786  0.95683156  0.92397924  1
  O  O17  1  0.85942673  0.54577105  0.38775898  1
  O  O18  1  0.95683156  0.66077214  0.92397924  1
  O  O19  1  0.95422895  0.85942673  0.38775898  1
loop_
_geom_bond_atom_site_label_1
_geom_bond_atom_site_label_2
_geom_bond_distance
_geom_bond_site_symmetry_2
O0 Zr9 2.094573 1_455
O0 Zr2 2.141983 1_555
O0 Zr0 2.216912 1_545
O1 Zr1 2.175759 1_555
O1 Zr8 2.187250 1_454
O1 Zr9 2.203887 1_455
O1 Zr2 2.231647 1_554
O2 Zr1 2.094573 1_555
O2 Zr2 2.141983 1_555
O2 Zr8 2.216912 1_455
O3 Zr9 2.175759 1_455
O3 Zr0 2.187250 1_544
O3 Zr3 2.203887 1_545
O3 Zr2 2.231647 1_554
O4 Zr1 2.183268 1_555
O4 Zr4 2.183268 1_555
O4 Zr3 2.183268 1_555
O4 Zr0 2.183268 1_555
O5 Zr1 2.159855 1_555
O5 Zr3 2.159855 1_555
O5 Zr0 2.159855 1_554
O5 Zr4 2.159855 1_554
O6 Zr5 2.175759 1_555
O6 Zr4 2.187250 1_554
O6 Zr1 2.203887 1_555
O6 Zr2 2.231647 1_554
O7 Zr3 2.094573 1_545
O7 Zr2 2.141983 1_555
O7 Zr6 2.216912 1_555
O8 Zr3 2.175759 1_545
O8 Zr6 2.187250 1_554
O8 Zr5 2.203887 1_555
O8 Zr2 2.231647 1_554
O9 Zr5 2.094573 1_555
O9 Zr2 2.141983 1_555
O9 Zr4 2.216912 1_555
O10 Zr4 2.094573 1_555
O10 Zr7 2.141983 1_555
O10 Zr5 2.216912 1_555
O11 Zr6 2.175759 1_565
O11 Zr3 2.187250 1_556
O11 Zr4 2.203887 1_555
O11 Zr7 2.231647 1_556
O12 Zr6 2.094573 1_565
O12 Zr7 2.141983 1_555
O12 Zr3 2.216912 1_555
O13 Zr4 2.175759 1_555
O13 Zr5 2.187250 1_556
O13 Zr8 2.203887 1_555
O13 Zr7 2.231647 1_556
O14 Zr6 2.183268 1_555
O14 Zr8 2.183268 1_555
O14 Zr5 2.183268 1_555
O14 Zr9 2.183268 1_555
O15 Zr9 2.159855 1_555
O15 Zr6 2.159855 1_554
O15 Zr8 2.159855 1_554
O15 Zr5 2.159855 1_555
O16 Zr0 2.175759 1_655
O16 Zr9 2.187250 1_566
O16 Zr6 2.203887 1_565
O16 Zr7 2.231647 1_556
O17 Zr8 2.094573 1_555
O17 Zr7 2.141983 1_555
O17 Zr1 2.216912 1_655
O18 Zr8 2.175759 1_555
O18 Zr1 2.187250 1_656
O18 Zr0 2.203887 1_655
O18 Zr7 2.231647 1_556
O19 Zr0 2.094573 1_655
O19 Zr7 2.141983 1_555
O19 Zr9 2.216912 1_565
