# generated using pymatgen
data_Li5SbS
_symmetry_space_group_name_H-M   'P 1'
_cell_length_a   8.02491900
_cell_length_b   7.90483500
_cell_length_c   8.50776064
_cell_angle_alpha   87.87265201
_cell_angle_beta   90.00000000
_cell_angle_gamma   90.00000000
_symmetry_Int_Tables_number   1
_chemical_formula_structural   Li5SbS
_chemical_formula_sum   'Li20 Sb4 S4'
_cell_volume   539.32345241
_cell_formula_units_Z   4
loop_
 _symmetry_equiv_pos_site_id
 _symmetry_equiv_pos_as_xyz
  1  'x, y, z'
loop_
 _atom_site_type_symbol
 _atom_site_label
 _atom_site_symmetry_multiplicity
 _atom_site_fract_x
 _atom_site_fract_y
 _atom_site_fract_z
 _atom_site_occupancy
  Li  Li0  1  0.74053200  0.40091600  0.42563400  1
  Li  Li1  1  0.25217000  0.99772000  0.97747900  1
  Li  Li2  1  0.24967500  0.48137600  0.26660200  1
  Li  Li3  1  0.90408400  0.33906600  0.01692600  1
  Li  Li4  1  0.92462100  0.84530700  0.73426900  1
  Li  Li5  1  0.56849700  0.84584800  0.73336800  1
  Li  Li6  1  0.58931700  0.33759700  0.01359800  1
  Li  Li7  1  0.91795100  0.74471400  0.28758500  1
  Li  Li8  1  0.57244300  0.75010100  0.28387600  1
  Li  Li9  1  0.24589200  0.98650500  0.53303000  1
  Li  Li10  1  0.08931700  0.66240300  0.98640200  1
  Li  Li11  1  0.74589200  0.01349500  0.46697000  1
  Li  Li12  1  0.07244300  0.24989900  0.71612400  1
  Li  Li13  1  0.41795100  0.25528600  0.71241500  1
  Li  Li14  1  0.40408400  0.66093400  0.98307400  1
  Li  Li15  1  0.74967500  0.51862400  0.73339800  1
  Li  Li16  1  0.06849700  0.15415200  0.26663200  1
  Li  Li17  1  0.42462100  0.15469300  0.26573100  1
  Li  Li18  1  0.24053200  0.59908400  0.57436600  1
  Li  Li19  1  0.75217000  0.00228000  0.02252100  1
  Sb  Sb0  1  0.24651100  0.33548100  0.98936600  1
  Sb  Sb1  1  0.24484300  0.82413400  0.26267700  1
  Sb  Sb2  1  0.74651100  0.66451900  0.01063400  1
  Sb  Sb3  1  0.74484300  0.17586600  0.73732300  1
  S  S0  1  0.74662800  0.18284900  0.23463500  1
  S  S1  1  0.74325200  0.70851100  0.51435200  1
  S  S2  1  0.24325200  0.29148900  0.48564800  1
  S  S3  1  0.24662800  0.81715100  0.76536500  1
loop_
_geom_bond_atom_site_label_1
_geom_bond_atom_site_label_2
_geom_bond_distance
_geom_bond_site_symmetry_2
Li0 S0 2.412949 1_555
Li0 S1 2.572659 1_555
Li0 Sb3 3.138098 1_555
Li1 S3 2.342483 1_555
Li1 Sb0 2.675994 1_565
Li1 Sb1 2.743451 1_556
Li1 Li14 2.926870 1_555
Li1 Li10 2.953740 1_555
Li2 S2 2.349687 1_555
Li2 Sb0 2.663814 1_554
Li2 Sb1 2.708689 1_555
Li3 Li6 2.526170 1_555
Li3 S0 2.526344 1_555
Li3 Sb0 2.758169 1_654
Li3 Sb2 2.865339 1_555
Li3 Sb3 3.030478 1_554
Li4 S3 2.606267 1_655
Li4 S1 2.634116 1_555
Li4 Sb3 2.985792 1_565
Li4 Sb2 3.060094 1_556
Li5 S1 2.601441 1_555
Li5 S3 2.606286 1_555
Li5 Sb3 2.969149 1_565
Li5 Sb2 3.067370 1_556
Li6 S0 2.540796 1_555
Li6 Sb0 2.758802 1_554
Li6 Sb2 2.874983 1_555
Li6 Sb3 2.989987 1_554
Li7 S1 2.393424 1_555
Li7 Sb1 2.703844 1_655
Li7 Sb2 2.820886 1_555
Li8 S1 2.404994 1_555
Li8 Sb1 2.697892 1_555
Li8 Sb2 2.815995 1_555
Li9 S3 2.345823 1_555
Li9 S2 2.429607 1_565
Li9 Sb1 2.675278 1_555
Li10 Li14 2.526170 1_555
Li10 S3 2.540796 1_555
Li10 Sb2 2.758802 1_456
Li10 Li4 2.865026 1_455
Li10 Sb0 2.874983 1_555
Li10 Li3 2.959821 1_456
Li10 Sb1 2.989987 1_556
Li10 Li7 3.000693 1_456
Li10 Li2 3.022141 1_556
Li11 S0 2.345823 1_555
Li11 S1 2.429607 1_545
Li11 Sb3 2.675278 1_555
Li12 S2 2.404994 1_555
Li12 Sb3 2.697892 1_455
Li12 Sb0 2.815995 1_555
Li12 Li3 3.000895 1_456
Li13 S2 2.393424 1_555
Li13 Sb3 2.703844 1_555
Li13 Sb0 2.820886 1_555
Li13 Li6 3.000693 1_556
Li14 S3 2.526344 1_555
Li14 Sb2 2.758169 1_556
Li14 Li5 2.856593 1_555
Li14 Sb0 2.865339 1_555
Li14 Li6 2.959821 1_556
Li14 Li8 3.000895 1_556
Li14 Li2 3.019025 1_556
Li14 Sb1 3.030478 1_556
Li15 S1 2.349687 1_555
Li15 Sb2 2.663814 1_556
Li15 Sb3 2.708689 1_555
Li15 Li3 3.019025 1_556
Li15 Li6 3.022141 1_556
Li16 S2 2.601441 1_555
Li16 S0 2.606286 1_455
Li16 Li3 2.856593 1_455
Li16 Sb1 2.969149 1_545
Li16 Sb0 3.067370 1_554
Li17 S0 2.606267 1_555
Li17 S2 2.634116 1_555
Li17 Li6 2.865026 1_555
Li17 Sb1 2.985792 1_545
Li17 Sb0 3.060094 1_554
Li18 S3 2.412949 1_555
Li18 S2 2.572659 1_555
Li18 Sb1 3.138098 1_555
Li19 S0 2.342483 1_555
Li19 Sb2 2.675994 1_545
Li19 Sb3 2.743451 1_554
Li19 Li3 2.926870 1_555
Li19 Li6 2.953740 1_555
