# generated using pymatgen
data_Cs3ScO3
_symmetry_space_group_name_H-M   'P 1'
_cell_length_a   7.32418222
_cell_length_b   7.32418222
_cell_length_c   7.44391154
_cell_angle_alpha   83.17073300
_cell_angle_beta   83.17073300
_cell_angle_gamma   115.61349048
_symmetry_Int_Tables_number   1
_chemical_formula_structural   Cs3ScO3
_chemical_formula_sum   'Cs6 Sc2 O6'
_cell_volume   350.99472875
_cell_formula_units_Z   2
loop_
 _symmetry_equiv_pos_site_id
 _symmetry_equiv_pos_as_xyz
  1  'x, y, z'
loop_
 _atom_site_type_symbol
 _atom_site_label
 _atom_site_symmetry_multiplicity
 _atom_site_fract_x
 _atom_site_fract_y
 _atom_site_fract_z
 _atom_site_occupancy
  Cs  Cs0  1  0.63837407  0.63837407  0.65262309  1
  Cs  Cs1  1  0.79357651  0.20642349  0.50000000  1
  Cs  Cs2  1  0.20642349  0.79357651  0.50000000  1
  Cs  Cs3  1  0.73545538  0.26454462  0.00000000  1
  Cs  Cs4  1  0.26454462  0.73545538  0.00000000  1
  Cs  Cs5  1  0.36162593  0.36162593  0.34737691  1
  Sc  Sc0  1  0.83744821  0.83744821  0.14980964  1
  Sc  Sc1  1  0.16255179  0.16255179  0.85019036  1
  O  O0  1  0.89818064  0.89818064  0.86694027  1
  O  O1  1  0.58697843  0.84737095  0.26661301  1
  O  O2  1  0.84737095  0.58697843  0.26661301  1
  O  O3  1  0.15262905  0.41302157  0.73338699  1
  O  O4  1  0.41302157  0.15262905  0.73338699  1
  O  O5  1  0.10181936  0.10181936  0.13305973  1
loop_
_geom_bond_atom_site_label_1
_geom_bond_atom_site_label_2
_geom_bond_distance
_geom_bond_site_symmetry_2
Cs0 O0 2.846105 1_555
Cs0 O4 3.149791 1_555
Cs0 O3 3.149791 1_555
Cs0 O2 3.232769 1_555
Cs0 O1 3.232769 1_555
Cs1 O4 2.945910 1_555
Cs1 O2 2.945910 1_555
Cs1 O3 3.239578 1_655
Cs1 O1 3.239578 1_545
Cs2 O1 2.945910 1_555
Cs2 O3 2.945910 1_555
Cs2 O2 3.239578 1_455
Cs2 O4 3.239578 1_565
Cs3 O1 3.103059 1_545
Cs3 O3 3.103059 1_654
Cs3 O2 3.164739 1_555
Cs3 O4 3.164739 1_554
Cs4 O2 3.103059 1_455
Cs4 O4 3.103059 1_564
Cs4 O1 3.164739 1_555
Cs4 O3 3.164739 1_554
Cs5 O5 2.846105 1_555
Cs5 O1 3.149791 1_555
Cs5 O2 3.149791 1_555
Cs5 O3 3.232769 1_555
Cs5 O4 3.232769 1_555
O0 Sc1 2.039030 1_665
O0 Sc0 2.052543 1_556
O1 Sc0 1.969155 1_555
O2 Sc0 1.969155 1_555
O3 Sc1 1.969155 1_555
O4 Sc1 1.969155 1_555
O5 Sc0 2.039030 1_445
O5 Sc1 2.052543 1_554
