# generated using pymatgen
data_Mn2Fe3Ni(PO4)6
_symmetry_space_group_name_H-M   'P 1'
_cell_length_a   8.58175481
_cell_length_b   8.58175481
_cell_length_c   8.58175546
_cell_angle_alpha   60.74852137
_cell_angle_beta   60.74852137
_cell_angle_gamma   60.74852039
_symmetry_Int_Tables_number   1
_chemical_formula_structural   Mn2Fe3Ni(PO4)6
_chemical_formula_sum   'Mn2 Fe3 Ni1 P6 O24'
_cell_volume   454.45073529
_cell_formula_units_Z   1
loop_
 _symmetry_equiv_pos_site_id
 _symmetry_equiv_pos_as_xyz
  1  'x, y, z'
loop_
 _atom_site_type_symbol
 _atom_site_label
 _atom_site_symmetry_multiplicity
 _atom_site_fract_x
 _atom_site_fract_y
 _atom_site_fract_z
 _atom_site_occupancy
  Mn  Mn0  1  0.00091600  0.00091600  0.00091600  1
  Mn  Mn1  1  0.50034100  0.50034100  0.50034100  1
  Fe  Fe0  1  0.85467200  0.85467200  0.85467200  1
  Fe  Fe1  1  0.64619400  0.64619400  0.64619400  1
  Fe  Fe2  1  0.35450800  0.35450800  0.35450800  1
  Ni  Ni0  1  0.14343500  0.14343500  0.14343500  1
  P  P0  1  0.95445300  0.24991300  0.54534300  1
  P  P1  1  0.54534300  0.95445300  0.24991300  1
  P  P2  1  0.24991300  0.54534300  0.95445300  1
  P  P3  1  0.75037200  0.45419500  0.04598100  1
  P  P4  1  0.45419500  0.04598100  0.75037200  1
  P  P5  1  0.04598100  0.75037200  0.45419500  1
  O  O0  1  0.89128700  0.68077500  0.49675600  1
  O  O1  1  0.68077500  0.49675600  0.89128700  1
  O  O2  1  0.94097800  0.09029700  0.74358200  1
  O  O3  1  0.49675600  0.89128700  0.68077500  1
  O  O4  1  0.98744200  0.18495100  0.39288500  1
  O  O5  1  0.75641400  0.40965300  0.56402900  1
  O  O6  1  0.74358200  0.94097800  0.09029700  1
  O  O7  1  0.56402900  0.75641400  0.40965300  1
  O  O8  1  0.81905900  0.60887400  0.00412900  1
  O  O9  1  0.40965300  0.56402900  0.75641400  1
  O  O10  1  0.90849400  0.25723900  0.05820800  1
  O  O11  1  0.60887400  0.00412900  0.81905900  1
  O  O12  1  0.39288500  0.98744200  0.18495100  1
  O  O13  1  0.09029700  0.74358200  0.94097800  1
  O  O14  1  0.59044300  0.44078800  0.24269900  1
  O  O15  1  0.18495100  0.39288500  0.98744200  1
  O  O16  1  0.44078800  0.24269900  0.59044300  1
  O  O17  1  0.25723900  0.05820800  0.90849400  1
  O  O18  1  0.24269900  0.59044300  0.44078800  1
  O  O19  1  0.00412900  0.81905900  0.60887400  1
  O  O20  1  0.50407000  0.10983100  0.31679800  1
  O  O21  1  0.05820800  0.90849400  0.25723900  1
  O  O22  1  0.31679800  0.50407000  0.10983100  1
  O  O23  1  0.10983100  0.31679800  0.50407000  1
loop_
_geom_bond_atom_site_label_1
_geom_bond_atom_site_label_2
_geom_bond_distance
_geom_bond_site_symmetry_2
Mn0 O17 2.163399 1_554
Mn0 O10 2.163399 1_455
Mn0 O21 2.163399 1_545
Mn0 O6 2.190653 1_445
Mn0 O13 2.190653 1_544
Mn0 O2 2.190653 1_454
Mn1 O16 2.189751 1_555
Mn1 O18 2.189751 1_555
Mn1 O14 2.189751 1_555
Mn1 O7 2.195527 1_555
Mn1 O5 2.195527 1_555
Mn1 O9 2.195527 1_555
Fe0 O11 1.947010 1_565
Fe0 O8 1.947010 1_556
Fe0 O19 1.947010 1_655
Fe0 O2 2.106148 1_565
Fe0 O13 2.106148 1_655
Fe0 O6 2.106149 1_556
Fe1 O3 1.938727 1_555
Fe1 O0 1.938727 1_555
Fe1 O1 1.938727 1_555
Fe1 O9 2.093583 1_555
Fe1 O5 2.093583 1_555
Fe1 O7 2.093583 1_555
Fe2 O20 1.945614 1_555
Fe2 O23 1.945614 1_555
Fe2 O22 1.945614 1_555
Fe2 O14 2.107282 1_555
Fe2 O18 2.107282 1_555
Fe2 O16 2.107282 1_555
Ni0 O12 1.995067 1_545
Ni0 O15 1.995067 1_554
Ni0 O4 1.995067 1_455
Ni0 O21 2.091062 1_545
Ni0 O10 2.091062 1_455
Ni0 O17 2.091062 1_554
O0 P5 1.529814 1_655
O1 P3 1.529814 1_556
O2 P0 1.571316 1_555
O3 P4 1.529814 1_565
O4 P0 1.516356 1_555
O5 P0 1.570012 1_555
O6 P1 1.571316 1_555
O7 P1 1.570012 1_555
O8 P3 1.526545 1_555
O9 P2 1.570012 1_555
O10 P3 1.559991 1_555
O11 P4 1.526545 1_555
O12 P1 1.516356 1_555
O13 P2 1.571316 1_555
O14 P3 1.564297 1_555
O15 P2 1.516356 1_555
O16 P4 1.564297 1_555
O17 P4 1.559991 1_555
O18 P5 1.564297 1_555
O19 P5 1.526545 1_555
O20 P1 1.523369 1_545
O21 P5 1.559991 1_555
O22 P2 1.523369 1_554
O23 P0 1.523369 1_455
