# generated using pymatgen
data_Li4(NiO2)5
_symmetry_space_group_name_H-M   'P 1'
_cell_length_a   4.96382100
_cell_length_b   5.67396740
_cell_length_c   7.53654634
_cell_angle_alpha   74.36151086
_cell_angle_beta   74.22585564
_cell_angle_gamma   64.76761805
_symmetry_Int_Tables_number   1
_chemical_formula_structural   Li4(NiO2)5
_chemical_formula_sum   'Li4 Ni5 O10'
_cell_volume   181.87743616
_cell_formula_units_Z   1
loop_
 _symmetry_equiv_pos_site_id
 _symmetry_equiv_pos_as_xyz
  1  'x, y, z'
loop_
 _atom_site_type_symbol
 _atom_site_label
 _atom_site_symmetry_multiplicity
 _atom_site_fract_x
 _atom_site_fract_y
 _atom_site_fract_z
 _atom_site_occupancy
  Li  Li0  1  0.03844500  0.44319100  0.75652100  1
  Li  Li1  1  0.47237000  0.44976800  0.95372300  1
  Li  Li2  1  0.93944800  0.54784200  0.23953800  1
  Li  Li3  1  0.36267100  0.55206500  0.43956200  1
  Ni  Ni0  1  0.99951100  0.00269200  0.00255600  1
  Ni  Ni1  1  0.59526300  0.00263800  0.80412300  1
  Ni  Ni2  1  0.79993100  0.99764000  0.39946600  1
  Ni  Ni3  1  0.20538900  0.99649200  0.59848300  1
  Ni  Ni4  1  0.39877600  0.00008300  0.19803700  1
  O  O0  1  0.42439200  0.20511700  0.58805500  1
  O  O1  1  0.82324500  0.20841400  0.79423700  1
  O  O2  1  0.22713800  0.22679700  0.98829300  1
  O  O3  1  0.98268600  0.79072700  0.60951900  1
  O  O4  1  0.62144900  0.20098400  0.18812300  1
  O  O5  1  0.35869400  0.80728500  0.82124200  1
  O  O6  1  0.06102600  0.18657500  0.36971700  1
  O  O7  1  0.73481300  0.80666400  0.03213000  1
  O  O8  1  0.17461300  0.79105800  0.21217700  1
  O  O9  1  0.57984900  0.78396900  0.40459700  1
loop_
_geom_bond_atom_site_label_1
_geom_bond_atom_site_label_2
_geom_bond_distance
_geom_bond_site_symmetry_2
Li0 O3 1.927697 1_455
Li0 O1 1.959693 1_455
Li0 O2 2.046644 1_555
Li0 O0 2.121969 1_555
Li1 O5 1.915393 1_555
Li1 O1 2.017243 1_555
Li1 O2 2.028074 1_555
Li1 O4 2.033885 1_556
Li2 O6 1.926525 1_655
Li2 O7 1.996420 1_555
Li2 O9 2.044751 1_555
Li2 O8 2.097303 1_655
Li3 O0 1.925107 1_555
Li3 O9 1.957283 1_555
Li3 O8 2.045643 1_555
Li3 O3 2.115664 1_455
Ni0 O1 1.865759 1_554
Ni0 O8 1.878078 1_645
Ni0 O7 1.991546 1_545
Ni0 O2 1.997577 1_654
Ni0 O5 2.020447 1_644
Ni0 O4 2.089197 1_555
Ni1 O5 1.890624 1_545
Ni1 O0 1.898029 1_555
Ni1 O7 1.905107 1_546
Ni1 O1 1.919163 1_555
Ni1 O2 2.115320 1_555
Ni1 O3 2.177360 1_545
Ni2 O4 1.886279 1_565
Ni2 O3 1.891601 1_555
Ni2 O9 1.935384 1_555
Ni2 O6 1.943230 1_665
Ni2 O8 2.105086 1_655
Ni2 O0 2.114588 1_565
Ni3 O5 1.891158 1_555
Ni3 O0 1.894645 1_565
Ni3 O3 1.894741 1_455
Ni3 O6 1.912992 1_565
Ni3 O9 2.146284 1_555
Ni3 O1 2.170445 1_465
Ni4 O4 1.873516 1_555
Ni4 O9 1.877997 1_545
Ni4 O2 1.892330 1_554
Ni4 O7 1.896121 1_545
Ni4 O8 1.910126 1_545
Ni4 O6 1.910706 1_555
