# generated using pymatgen
data_NiH18(I5N3)2
_symmetry_space_group_name_H-M   'P 1'
_cell_length_a   17.02501500
_cell_length_b   9.32398700
_cell_length_c   10.73805824
_cell_angle_alpha   57.25121415
_cell_angle_beta   90.00000000
_cell_angle_gamma   90.00000000
_symmetry_Int_Tables_number   1
_chemical_formula_structural   NiH18(I5N3)2
_chemical_formula_sum   'Ni2 H36 I20 N12'
_cell_volume   1433.62966490
_cell_formula_units_Z   2
loop_
 _symmetry_equiv_pos_site_id
 _symmetry_equiv_pos_as_xyz
  1  'x, y, z'
loop_
 _atom_site_type_symbol
 _atom_site_label
 _atom_site_symmetry_multiplicity
 _atom_site_fract_x
 _atom_site_fract_y
 _atom_site_fract_z
 _atom_site_occupancy
  Ni  Ni0  1  0.00000000  0.50000000  0.50000000  1
  Ni  Ni1  1  0.50000000  0.50000000  0.00000000  1
  H  H0  1  0.91492700  0.27568900  0.74215500  1
  H  H1  1  0.50791400  0.28370800  0.90220100  1
  H  H2  1  0.14567400  0.62245800  0.39585600  1
  H  H3  1  0.85919100  0.65130900  0.38977100  1
  H  H4  1  0.92392700  0.75455300  0.25944500  1
  H  H5  1  0.46050000  0.45356300  0.77793200  1
  H  H6  1  0.55629100  0.45564800  0.78498600  1
  H  H7  1  0.05629100  0.54435200  0.71501400  1
  H  H8  1  0.96050000  0.54643700  0.72206800  1
  H  H9  1  0.09432900  0.78005000  0.37742000  1
  H  H10  1  0.91551400  0.79230000  0.39087700  1
  H  H11  1  0.00791400  0.71629200  0.59779900  1
  H  H12  1  0.35432600  0.62245800  0.89585600  1
  H  H13  1  0.41492700  0.72431100  0.75784500  1
  H  H14  1  0.64080900  0.65130900  0.88977100  1
  H  H15  1  0.57607300  0.75455300  0.75944500  1
  H  H16  1  0.41551400  0.20770000  0.10912300  1
  H  H17  1  0.59432900  0.21995000  0.12258000  1
  H  H18  1  0.40567100  0.78005000  0.87742000  1
  H  H19  1  0.58448600  0.79230000  0.89087700  1
  H  H20  1  0.42392700  0.24544700  0.24055500  1
  H  H21  1  0.35919100  0.34869100  0.11022900  1
  H  H22  1  0.58507300  0.27568900  0.24215500  1
  H  H23  1  0.64567400  0.37754200  0.10414400  1
  H  H24  1  0.99208600  0.28370800  0.40220100  1
  H  H25  1  0.08448600  0.20770000  0.60912300  1
  H  H26  1  0.90567100  0.21995000  0.62258000  1
  H  H27  1  0.03950000  0.45356300  0.27793200  1
  H  H28  1  0.94370900  0.45564800  0.28498600  1
  H  H29  1  0.44370900  0.54435200  0.21501400  1
  H  H30  1  0.53950000  0.54643700  0.22206800  1
  H  H31  1  0.07607300  0.24544700  0.74055500  1
  H  H32  1  0.14080900  0.34869100  0.61022900  1
  H  H33  1  0.85432600  0.37754200  0.60414400  1
  H  H34  1  0.49208600  0.71629200  0.09779900  1
  H  H35  1  0.08507300  0.72431100  0.25784500  1
  I  I0  1  0.64244000  0.00763300  0.98951500  1
  I  I1  1  0.29319300  0.49827200  0.64906000  1
  I  I2  1  0.33252700  0.73781200  0.34374300  1
  I  I3  1  0.79319300  0.50172800  0.85094000  1
  I  I4  1  0.52699300  0.80952600  0.43039600  1
  I  I5  1  0.18054700  0.11237600  0.02507600  1
  I  I6  1  0.68054700  0.88762400  0.47492400  1
  I  I7  1  0.02699300  0.19047400  0.06960400  1
  I  I8  1  0.16747300  0.73781200  0.84374300  1
  I  I9  1  0.14244000  0.99236700  0.51048500  1
  I  I10  1  0.85756000  0.00763300  0.48951500  1
  I  I11  1  0.83252700  0.26218800  0.15625700  1
  I  I12  1  0.97300700  0.80952600  0.93039600  1
  I  I13  1  0.31945300  0.11237600  0.52507600  1
  I  I14  1  0.81945300  0.88762400  0.97492400  1
  I  I15  1  0.47300700  0.19047400  0.56960400  1
  I  I16  1  0.20680700  0.49827200  0.14906000  1
  I  I17  1  0.66747300  0.26218800  0.65625700  1
  I  I18  1  0.70680700  0.50172800  0.35094000  1
  I  I19  1  0.35756000  0.99236700  0.01048500  1
  N  N0  1  0.09107000  0.67646800  0.36821600  1
  N  N1  1  0.91570500  0.69641400  0.37110000  1
  N  N2  1  0.50701300  0.41359200  0.84967300  1
  N  N3  1  0.00701300  0.58640800  0.65032700  1
  N  N4  1  0.40893000  0.67646800  0.86821600  1
  N  N5  1  0.58429500  0.69641400  0.87110000  1
  N  N6  1  0.41570500  0.30358600  0.12890000  1
  N  N7  1  0.59107000  0.32353200  0.13178400  1
  N  N8  1  0.99298700  0.41359200  0.34967300  1
  N  N9  1  0.49298700  0.58640800  0.15032700  1
  N  N10  1  0.08429500  0.30358600  0.62890000  1
  N  N11  1  0.90893000  0.32353200  0.63178400  1
loop_
_geom_bond_atom_site_label_1
_geom_bond_atom_site_label_2
_geom_bond_distance
_geom_bond_site_symmetry_2
H0 N11 1.020809 1_555
H1 N2 1.022721 1_555
H2 N0 1.021862 1_555
H3 N1 1.025464 1_555
H4 N1 1.023609 1_555
H5 N2 1.024114 1_555
H6 N2 1.022455 1_555
H7 N3 1.022455 1_555
H8 N3 1.024114 1_655
H9 N0 1.024150 1_555
H10 N1 1.024614 1_555
H11 N3 1.022721 1_555
H12 N4 1.021862 1_555
H13 N4 1.020809 1_555
H14 N5 1.025464 1_555
H15 N5 1.023609 1_555
H16 N6 1.024614 1_555
H17 N7 1.024150 1_555
H18 N4 1.024150 1_555
H19 N5 1.024614 1_555
H20 N6 1.023609 1_555
H21 N6 1.025464 1_555
H22 N7 1.020809 1_555
H23 N7 1.021862 1_555
H24 N8 1.022721 1_555
H25 N10 1.024614 1_555
H26 N11 1.024150 1_555
H27 N8 1.024114 1_455
H28 N8 1.022455 1_555
H29 N9 1.022455 1_555
H30 N9 1.024114 1_555
H31 N10 1.023609 1_555
H32 N10 1.025464 1_555
H33 N11 1.021862 1_555
H34 N9 1.022721 1_555
H35 N0 1.020809 1_555
I0 I17 3.071102 1_555
I0 I14 3.247828 1_545
I1 I2 2.874580 1_555
I4 I6 2.823105 1_555
I5 I7 2.823105 1_555
I8 I9 3.071102 1_555
I10 I11 3.071102 1_555
I10 I6 3.247828 1_545
I11 I3 2.874580 1_554
I12 I14 2.823105 1_555
I13 I15 2.823105 1_555
I13 I9 3.247828 1_545
I16 I8 2.874580 1_554
I17 I18 2.874580 1_555
I19 I2 3.071102 1_555
I19 I5 3.247828 1_565
N0 Ni0 2.143513 1_555
N1 Ni0 2.141683 1_655
N2 Ni1 2.162433 1_556
N3 Ni0 2.162433 1_555
N4 Ni1 2.143513 1_556
N5 Ni1 2.141683 1_556
N6 Ni1 2.141683 1_555
N7 Ni1 2.143513 1_555
N8 Ni0 2.162433 1_655
N9 Ni1 2.162433 1_555
N10 Ni0 2.141683 1_555
N11 Ni0 2.143513 1_655
