# generated using pymatgen
data_BaH6C4O7
_symmetry_space_group_name_H-M   'P 1'
_cell_length_a   6.63192400
_cell_length_b   8.39124781
_cell_length_c   8.64560435
_cell_angle_alpha   103.97947529
_cell_angle_beta   109.45226327
_cell_angle_gamma   109.08207745
_symmetry_Int_Tables_number   1
_chemical_formula_structural   BaH6C4O7
_chemical_formula_sum   'Ba2 H12 C8 O14'
_cell_volume   394.19082880
_cell_formula_units_Z   2
loop_
 _symmetry_equiv_pos_site_id
 _symmetry_equiv_pos_as_xyz
  1  'x, y, z'
loop_
 _atom_site_type_symbol
 _atom_site_label
 _atom_site_symmetry_multiplicity
 _atom_site_fract_x
 _atom_site_fract_y
 _atom_site_fract_z
 _atom_site_occupancy
  Ba  Ba0  1  0.77979400  0.92695700  0.18533300  1
  Ba  Ba1  1  0.22020600  0.07304300  0.81466700  1
  H  H0  1  0.64837900  0.90733200  0.51853000  1
  H  H1  1  0.35162100  0.09266800  0.48147000  1
  H  H2  1  0.26050000  0.88215900  0.44685600  1
  H  H3  1  0.73950000  0.11784100  0.55314400  1
  H  H4  1  0.30127000  0.64691500  0.20491200  1
  H  H5  1  0.69873000  0.35308500  0.79508700  1
  H  H6  1  0.27750700  0.56420700  0.00805700  1
  H  H7  1  0.72249300  0.43579300  0.99194300  1
  H  H8  1  0.09579000  0.75617000  0.01955200  1
  H  H9  1  0.90421000  0.24383000  0.98044800  1
  H  H10  1  0.89949000  0.73309200  0.84028800  1
  H  H11  1  0.10051000  0.26690800  0.15971200  1
  C  C0  1  0.27425200  0.48954500  0.69935900  1
  C  C1  1  0.72574800  0.51045500  0.30064100  1
  C  C2  1  0.22165100  0.43099200  0.50842400  1
  C  C3  1  0.77834900  0.56900800  0.49157600  1
  C  C4  1  0.32134500  0.62341800  0.53083500  1
  C  C5  1  0.67865500  0.37658200  0.46916500  1
  C  C6  1  0.36846900  0.68380600  0.71828700  1
  C  C7  1  0.63153100  0.31619400  0.28171300  1
  O  O0  1  0.21660300  0.98499700  0.46693600  1
  O  O1  1  0.78339700  0.01500300  0.53306400  1
  O  O2  1  0.31050200  0.67669300  0.10259200  1
  O  O3  1  0.68949800  0.32330700  0.89740800  1
  O  O4  1  0.96909700  0.79429500  0.97091400  1
  O  O5  1  0.03090300  0.20570500  0.02908600  1
  O  O6  1  0.75318400  0.59105500  0.19851700  1
  O  O7  1  0.24681600  0.40894500  0.80148300  1
  O  O8  1  0.12495700  0.27978000  0.37799100  1
  O  O9  1  0.87504300  0.72022000  0.62200900  1
  O  O10  1  0.35125000  0.70610800  0.42881100  1
  O  O11  1  0.64875000  0.29389200  0.57118900  1
  O  O12  1  0.45025800  0.83836400  0.84142000  1
  O  O13  1  0.54974200  0.16163600  0.15858000  1
loop_
_geom_bond_atom_site_label_1
_geom_bond_atom_site_label_2
_geom_bond_distance
_geom_bond_site_symmetry_2
Ba0 O8 2.725133 1_665
Ba0 O12 2.776932 1_554
Ba0 O4 2.778254 1_554
Ba0 O6 2.798613 1_555
Ba0 O2 2.850639 1_555
Ba0 O13 2.865073 1_565
Ba0 O0 2.892004 1_655
Ba0 O1 2.907233 1_565
Ba1 O9 2.725133 1_445
Ba1 O13 2.776932 1_556
Ba1 O5 2.778254 1_556
Ba1 O7 2.798613 1_555
Ba1 O3 2.850639 1_555
Ba1 O12 2.865073 1_545
Ba1 O1 2.892004 1_455
Ba1 O0 2.907233 1_545
H0 O1 0.987483 1_565
H1 O0 0.987483 1_545
H2 O0 0.992519 1_555
H3 O1 0.992519 1_555
H4 O2 0.990759 1_555
H5 O3 0.990767 1_555
H6 O2 0.989914 1_555
H7 O3 0.989914 1_555
H8 O4 0.995271 1_454
H9 O5 0.995271 1_656
H10 O4 0.984783 1_555
H11 O5 0.984783 1_555
C0 O7 1.259024 1_555
C1 O6 1.259024 1_555
C2 O8 1.260116 1_555
C3 O9 1.260116 1_555
C4 O10 1.273210 1_555
C5 O11 1.273210 1_555
C6 O12 1.264086 1_555
C7 O13 1.264086 1_555
