# generated using pymatgen
data_LiV(SiO3)2
_symmetry_space_group_name_H-M   'P 1'
_cell_length_a   7.37672372
_cell_length_b   7.48084203
_cell_length_c   7.03092346
_cell_angle_alpha   117.80807923
_cell_angle_beta   77.57030657
_cell_angle_gamma   98.89210766
_symmetry_Int_Tables_number   1
_chemical_formula_structural   LiV(SiO3)2
_chemical_formula_sum   'Li3 V3 Si6 O18'
_cell_volume   334.48416103
_cell_formula_units_Z   3
loop_
 _symmetry_equiv_pos_site_id
 _symmetry_equiv_pos_as_xyz
  1  'x, y, z'
loop_
 _atom_site_type_symbol
 _atom_site_label
 _atom_site_symmetry_multiplicity
 _atom_site_fract_x
 _atom_site_fract_y
 _atom_site_fract_z
 _atom_site_occupancy
  Li  Li0  1  0.20523400  0.74603500  0.41170000  1
  Li  Li1  1  0.50000000  0.50000000  0.50000000  1
  Li  Li2  1  0.79476600  0.25396500  0.58830000  1
  V  V0  1  0.22467000  0.75085500  0.94861600  1
  V  V1  1  0.50000000  0.50000000  0.00000000  1
  V  V2  1  0.77533000  0.24914500  0.05138400  1
  Si  Si0  1  0.16566200  0.28428500  0.24306100  1
  Si  Si1  1  0.16778600  0.25085000  0.68380700  1
  Si  Si2  1  0.60520300  0.97439200  0.20344700  1
  Si  Si3  1  0.39479700  0.02560800  0.79655300  1
  Si  Si4  1  0.83221400  0.74915000  0.31619300  1
  Si  Si5  1  0.83433800  0.71571500  0.75693900  1
  O  O0  1  0.04500400  0.75859000  0.20536600  1
  O  O1  1  0.04533000  0.68457800  0.75484800  1
  O  O2  1  0.16912600  0.24219800  0.44901600  1
  O  O3  1  0.23846200  0.07015200  0.02483900  1
  O  O4  1  0.31244900  0.47221200  0.24478600  1
  O  O5  1  0.43219200  0.80462900  0.14099700  1
  O  O6  1  0.29479600  0.45181000  0.82614900  1
  O  O7  1  0.42390500  0.78932400  0.71402800  1
  O  O8  1  0.28273000  0.05092200  0.63015100  1
  O  O9  1  0.71727000  0.94907800  0.36984900  1
  O  O10  1  0.57609500  0.21067600  0.28597200  1
  O  O11  1  0.70520400  0.54819000  0.17385100  1
  O  O12  1  0.56780800  0.19537100  0.85900300  1
  O  O13  1  0.68755100  0.52778800  0.75521400  1
  O  O14  1  0.76153800  0.92984800  0.97516100  1
  O  O15  1  0.83087400  0.75780200  0.55098400  1
  O  O16  1  0.95467000  0.31542200  0.24515200  1
  O  O17  1  0.95499600  0.24141000  0.79463400  1
loop_
_geom_bond_atom_site_label_1
_geom_bond_atom_site_label_2
_geom_bond_distance
_geom_bond_site_symmetry_2
Li0 O4 2.014239 1_555
Li0 O0 2.100016 1_555
Li0 O8 2.143437 1_565
Li0 O5 2.407782 1_555
Li1 O7 2.058457 1_555
Li1 O10 2.058457 1_555
Li1 O13 2.410169 1_555
Li1 O4 2.410169 1_555
Li1 O6 2.605400 1_555
Li1 O11 2.605400 1_555
Li2 O13 2.014239 1_555
Li2 O17 2.100016 1_555
Li2 O9 2.143437 1_545
Li2 O12 2.407782 1_555
O0 Si4 1.602073 1_455
O0 V0 1.978615 1_554
O1 Si5 1.604986 1_455
O1 V0 1.948053 1_555
O2 Si1 1.619538 1_555
O2 Si0 1.624942 1_555
O3 Si0 1.681255 1_555
O3 Si3 1.685280 1_554
O3 V0 2.181055 1_544
O4 Si0 1.633456 1_555
O4 V1 2.034520 1_555
O5 Si2 1.629213 1_555
O5 V1 2.111245 1_555
O5 V0 2.127946 1_554
O6 Si1 1.644354 1_555
O6 V1 2.032762 1_556
O6 V0 2.093425 1_555
O7 Si3 1.616779 1_565
O7 V0 2.057145 1_555
O8 Si3 1.661190 1_555
O8 Si1 1.681098 1_555
O9 Si2 1.661190 1_555
O9 Si4 1.681098 1_555
O10 Si2 1.616779 1_545
O10 V2 2.057145 1_555
O11 Si4 1.644354 1_555
O11 V1 2.032762 1_555
O11 V2 2.093425 1_555
O12 Si3 1.629213 1_555
O12 V1 2.111245 1_556
O12 V2 2.127946 1_556
O13 Si5 1.633456 1_555
O13 V1 2.034520 1_556
O14 Si5 1.681255 1_555
O14 Si2 1.685280 1_556
O14 V2 2.181055 1_566
O15 Si4 1.619538 1_555
O15 Si5 1.624942 1_555
O16 Si0 1.604986 1_655
O16 V2 1.948053 1_555
O17 Si1 1.602073 1_655
O17 V2 1.978615 1_556
