# generated using pymatgen
data_BaCaI4
_symmetry_space_group_name_H-M   'P 1'
_cell_length_a   7.83710649
_cell_length_b   7.83710649
_cell_length_c   4.96636114
_cell_angle_alpha   89.09118370
_cell_angle_beta   89.09118370
_cell_angle_gamma   90.02584770
_symmetry_Int_Tables_number   1
_chemical_formula_structural   BaCaI4
_chemical_formula_sum   'Ba1 Ca1 I4'
_cell_volume   304.95826863
_cell_formula_units_Z   1
loop_
 _symmetry_equiv_pos_site_id
 _symmetry_equiv_pos_as_xyz
  1  'x, y, z'
loop_
 _atom_site_type_symbol
 _atom_site_label
 _atom_site_symmetry_multiplicity
 _atom_site_fract_x
 _atom_site_fract_y
 _atom_site_fract_z
 _atom_site_occupancy
  Ba  Ba0  1  0.99806800  0.99806800  0.48439000  1
  Ca  Ca0  1  0.49853500  0.49853500  0.98738600  1
  I  I0  1  0.79674100  0.22605600  0.98080100  1
  I  I1  1  0.22605600  0.79674100  0.98080100  1
  I  I2  1  0.68276900  0.68276900  0.47487600  1
  I  I3  1  0.31520100  0.31520100  0.49632900  1
loop_
_geom_bond_atom_site_label_1
_geom_bond_atom_site_label_2
_geom_bond_distance
_geom_bond_site_symmetry_2
Ba0 I0 3.432043 1_565
Ba0 I1 3.432043 1_655
Ba0 I0 3.452976 1_564
Ba0 I1 3.452976 1_654
Ba0 I2 3.495158 1_555
Ba0 I3 3.515931 1_665
Ca0 I0 3.166608 1_555
Ca0 I1 3.166608 1_555
Ca0 I2 3.201697 1_556
Ca0 I3 3.207070 1_556
Ca0 I3 3.208873 1_555
Ca0 I2 3.226922 1_555
