# generated using pymatgen
data_Co6O7F5
_symmetry_space_group_name_H-M   'P 1'
_cell_length_a   4.63322726
_cell_length_b   4.63322726
_cell_length_c   8.74889500
_cell_angle_alpha   90.00000000
_cell_angle_beta   90.00000000
_cell_angle_gamma   97.51407898
_symmetry_Int_Tables_number   1
_chemical_formula_structural   Co6O7F5
_chemical_formula_sum   'Co6 O7 F5'
_cell_volume   186.19795817
_cell_formula_units_Z   1
loop_
 _symmetry_equiv_pos_site_id
 _symmetry_equiv_pos_as_xyz
  1  'x, y, z'
loop_
 _atom_site_type_symbol
 _atom_site_label
 _atom_site_symmetry_multiplicity
 _atom_site_fract_x
 _atom_site_fract_y
 _atom_site_fract_z
 _atom_site_occupancy
  Co  Co0  1  0.99139100  0.00860900  0.65760100  1
  Co  Co1  1  0.99139100  0.00860900  0.34239900  1
  Co  Co2  1  0.99980100  0.00019900  0.00000000  1
  Co  Co3  1  0.53665500  0.46334500  0.50000000  1
  Co  Co4  1  0.49342100  0.50657900  0.83115900  1
  Co  Co5  1  0.49342100  0.50657900  0.16884100  1
  O  O0  1  0.81987700  0.18012300  0.50000000  1
  O  O1  1  0.30858200  0.30309200  0.33811900  1
  O  O2  1  0.30858200  0.30309200  0.66188100  1
  O  O3  1  0.30892800  0.31426500  0.00000000  1
  O  O4  1  0.68573500  0.69107200  0.00000000  1
  O  O5  1  0.69690800  0.69141800  0.66188100  1
  O  O6  1  0.69690800  0.69141800  0.33811900  1
  F  F0  1  0.81163400  0.18836600  0.81868200  1
  F  F1  1  0.81163400  0.18836600  0.18131800  1
  F  F2  1  0.17609900  0.82390100  0.50000000  1
  F  F3  1  0.18451600  0.81548400  0.82031200  1
  F  F4  1  0.18451600  0.81548400  0.17968800  1
loop_
_geom_bond_atom_site_label_1
_geom_bond_atom_site_label_2
_geom_bond_distance
_geom_bond_site_symmetry_2
Co0 O0 1.824644 1_555
Co0 O2 1.870389 1_655
Co0 O5 1.870389 1_545
Co0 F0 1.885413 1_555
Co0 F2 1.886133 1_645
Co0 F3 1.958872 1_645
Co1 O0 1.824644 1_555
Co1 O1 1.870389 1_655
Co1 O6 1.870389 1_545
Co1 F1 1.885413 1_555
Co1 F2 1.886133 1_645
Co1 F4 1.958872 1_645
Co2 O3 1.903603 1_655
Co2 O4 1.903603 1_545
Co2 F3 2.031711 1_644
Co2 F4 2.031711 1_645
Co2 F0 2.058004 1_554
Co2 F1 2.058004 1_555
Co3 O1 1.862412 1_555
Co3 O6 1.862412 1_555
Co3 O5 1.862412 1_555
Co3 O2 1.862412 1_555
Co3 O0 1.973389 1_555
Co3 F2 2.512224 1_555
Co4 O3 1.872821 1_556
Co4 O4 1.872821 1_556
Co4 O5 1.898545 1_555
Co4 O2 1.898545 1_555
Co4 F3 2.154430 1_555
Co4 F0 2.219879 1_555
Co5 O4 1.872821 1_555
Co5 O3 1.872821 1_555
Co5 O6 1.898545 1_555
Co5 O1 1.898545 1_555
Co5 F4 2.154430 1_555
Co5 F1 2.219879 1_555
