# generated using pymatgen
data_LiFePO4
_symmetry_space_group_name_H-M   'P 1'
_cell_length_a   7.65516084
_cell_length_b   7.65516084
_cell_length_c   9.85071900
_cell_angle_alpha   90.00000000
_cell_angle_beta   90.00000000
_cell_angle_gamma   120.00000726
_symmetry_Int_Tables_number   1
_chemical_formula_structural   LiFePO4
_chemical_formula_sum   'Li6 Fe6 P6 O24'
_cell_volume   499.92766505
_cell_formula_units_Z   6
loop_
 _symmetry_equiv_pos_site_id
 _symmetry_equiv_pos_as_xyz
  1  'x, y, z'
loop_
 _atom_site_type_symbol
 _atom_site_label
 _atom_site_symmetry_multiplicity
 _atom_site_fract_x
 _atom_site_fract_y
 _atom_site_fract_z
 _atom_site_occupancy
  Li  Li0  1  0.04639200  0.59325600  0.48360500  1
  Li  Li1  1  0.54686400  0.95360800  0.48360500  1
  Li  Li2  1  0.40674400  0.45313600  0.48360500  1
  Li  Li3  1  0.45313600  0.40674400  0.98360500  1
  Li  Li4  1  0.59325600  0.04639200  0.98360500  1
  Li  Li5  1  0.95360800  0.54686400  0.98360500  1
  Fe  Fe0  1  0.22800600  0.94465600  0.26000600  1
  Fe  Fe1  1  0.05534400  0.28335100  0.26000600  1
  Fe  Fe2  1  0.28335100  0.05534400  0.76000600  1
  Fe  Fe3  1  0.71664900  0.77199400  0.26000600  1
  Fe  Fe4  1  0.77199400  0.71664900  0.76000600  1
  Fe  Fe5  1  0.94465600  0.22800600  0.76000600  1
  P  P0  1  0.33333300  0.66666700  0.17042800  1
  P  P1  1  0.00000000  0.00000000  0.99553700  1
  P  P2  1  0.00000000  0.00000000  0.49553700  1
  P  P3  1  0.33333300  0.66666700  0.76438900  1
  P  P4  1  0.66666700  0.33333300  0.67042800  1
  P  P5  1  0.66666700  0.33333300  0.26438900  1
  O  O0  1  0.08765500  0.86820400  0.44453700  1
  O  O1  1  0.18714900  0.73845700  0.11797100  1
  O  O2  1  0.38444400  0.87734600  0.82230300  1
  O  O3  1  0.12265400  0.50709800  0.82230300  1
  O  O4  1  0.26154300  0.44869100  0.11797100  1
  O  O5  1  0.33333300  0.66666700  0.32760700  1
  O  O6  1  0.00000000  0.00000000  0.15816500  1
  O  O7  1  0.00000000  0.00000000  0.65816500  1
  O  O8  1  0.33333300  0.66666700  0.60817100  1
  O  O9  1  0.13179600  0.21945100  0.44453700  1
  O  O10  1  0.55130900  0.81285100  0.11797100  1
  O  O11  1  0.21945100  0.13179600  0.94453700  1
  O  O12  1  0.49290200  0.61555600  0.82230300  1
  O  O13  1  0.78054900  0.91234500  0.44453700  1
  O  O14  1  0.44869100  0.26154300  0.61797100  1
  O  O15  1  0.50709800  0.12265400  0.32230300  1
  O  O16  1  0.61555600  0.49290200  0.32230300  1
  O  O17  1  0.81285100  0.55130900  0.61797100  1
  O  O18  1  0.66666700  0.33333300  0.82760700  1
  O  O19  1  0.66666700  0.33333300  0.10817100  1
  O  O20  1  0.91234500  0.78054900  0.94453700  1
  O  O21  1  0.73845700  0.18714900  0.61797100  1
  O  O22  1  0.87734600  0.38444400  0.32230300  1
  O  O23  1  0.86820400  0.08765500  0.94453700  1
loop_
_geom_bond_atom_site_label_1
_geom_bond_atom_site_label_2
_geom_bond_distance
_geom_bond_site_symmetry_2
Li0 O0 2.003273 1_555
Li0 O17 2.115930 1_455
Li0 O22 2.164709 1_455
Li0 O8 2.326380 1_555
Li0 O5 2.503554 1_555
Li1 O13 2.003273 1_555
Li1 O21 2.115928 1_565
Li1 O15 2.164709 1_565
Li1 O8 2.326382 1_555
Li1 O5 2.503555 1_555
Li2 O9 2.003273 1_555
Li2 O14 2.115924 1_555
Li2 O16 2.164709 1_555
Li2 O8 2.326386 1_555
Li2 O5 2.503559 1_555
Li3 O11 2.003273 1_555
Li3 O4 2.115924 1_556
Li3 O12 2.164709 1_555
Li3 O19 2.326386 1_556
Li3 O18 2.503559 1_555
Li4 O23 2.003273 1_555
Li4 O10 2.115930 1_546
Li4 O2 2.164709 1_545
Li4 O19 2.326380 1_556
Li4 O18 2.503554 1_555
Li5 O20 2.003273 1_555
Li5 O1 2.115928 1_656
Li5 O3 2.164709 1_655
Li5 O19 2.326382 1_556
Li5 O18 2.503555 1_555
Fe0 O15 1.971469 1_565
Fe0 O1 2.013295 1_555
Fe0 O0 2.042630 1_555
Fe0 O6 2.229775 1_565
Fe1 O22 1.971464 1_455
Fe1 O4 2.013291 1_555
Fe1 O9 2.042633 1_555
Fe1 O6 2.229782 1_555
Fe2 O2 1.971464 1_545
Fe2 O14 2.013291 1_555
Fe2 O11 2.042633 1_555
Fe2 O7 2.229782 1_555
Fe3 O16 1.971471 1_555
Fe3 O10 2.013284 1_555
Fe3 O13 2.042630 1_555
Fe3 O6 2.229779 1_665
Fe4 O12 1.971471 1_555
Fe4 O17 2.013284 1_555
Fe4 O20 2.042630 1_555
Fe4 O7 2.229779 1_665
Fe5 O3 1.971469 1_655
Fe5 O21 2.013295 1_555
Fe5 O23 2.042630 1_555
Fe5 O7 2.229775 1_655
O0 P2 1.548408 1_565
O1 P0 1.560877 1_555
O2 P3 1.564798 1_555
O3 P3 1.564800 1_555
O4 P0 1.560890 1_555
O5 P0 1.548326 1_555
O6 P1 1.602003 1_554
O7 P2 1.602003 1_555
O8 P3 1.538860 1_555
O9 P2 1.548408 1_555
O10 P0 1.560887 1_555
O11 P1 1.548408 1_555
O12 P3 1.564805 1_555
O13 P2 1.548408 1_665
O14 P4 1.560890 1_555
O15 P5 1.564800 1_555
O16 P5 1.564805 1_555
O17 P4 1.560887 1_555
O18 P4 1.548326 1_555
O19 P5 1.538860 1_555
O20 P1 1.548408 1_665
O21 P4 1.560877 1_555
O22 P5 1.564798 1_555
O23 P1 1.548408 1_655
