# generated using pymatgen
data_Li3Mn4(BO3)4
_symmetry_space_group_name_H-M   'P 1'
_cell_length_a   5.30025400
_cell_length_b   5.88717574
_cell_length_c   9.01846064
_cell_angle_alpha   103.51847093
_cell_angle_beta   90.56787435
_cell_angle_gamma   113.10827901
_symmetry_Int_Tables_number   1
_chemical_formula_structural   Li3Mn4(BO3)4
_chemical_formula_sum   'Li3 Mn4 B4 O12'
_cell_volume   250.02686062
_cell_formula_units_Z   1
loop_
 _symmetry_equiv_pos_site_id
 _symmetry_equiv_pos_as_xyz
  1  'x, y, z'
loop_
 _atom_site_type_symbol
 _atom_site_label
 _atom_site_symmetry_multiplicity
 _atom_site_fract_x
 _atom_site_fract_y
 _atom_site_fract_z
 _atom_site_occupancy
  Li  Li0  1  0.58510800  0.31752000  0.96826500  1
  Li  Li1  1  0.91723300  0.65757000  0.53175700  1
  Li  Li2  1  0.40706600  0.67931100  0.03059400  1
  Mn  Mn0  1  0.54046000  0.24302100  0.30601600  1
  Mn  Mn1  1  0.03524300  0.23873600  0.78806900  1
  Mn  Mn2  1  0.95328400  0.75992900  0.20644300  1
  Mn  Mn3  1  0.45279500  0.74457200  0.69384400  1
  B  B0  1  0.55701800  0.26082300  0.63840000  1
  B  B1  1  0.93964300  0.73944900  0.86579900  1
  B  B2  1  0.05803800  0.26009300  0.12850200  1
  B  B3  1  0.44632100  0.74387900  0.36859600  1
  O  O0  1  0.60556500  0.14578800  0.75217100  1
  O  O1  1  0.71670700  0.29262600  0.52297800  1
  O  O2  1  0.83294100  0.32974100  0.14187300  1
  O  O3  1  0.35672100  0.36014200  0.66250200  1
  O  O4  1  0.12832700  0.15774100  0.23682900  1
  O  O5  1  0.77214300  0.70112200  0.98092500  1
  O  O6  1  0.21922500  0.30296800  0.00968500  1
  O  O7  1  0.87388500  0.82745800  0.74483900  1
  O  O8  1  0.65868400  0.65867300  0.36212800  1
  O  O9  1  0.16676500  0.67580700  0.85880500  1
  O  O10  1  0.28917900  0.73851900  0.48849100  1
  O  O11  1  0.38801500  0.83302800  0.24685300  1
loop_
_geom_bond_atom_site_label_1
_geom_bond_atom_site_label_2
_geom_bond_distance
_geom_bond_site_symmetry_2
Li0 O6 1.951042 1_556
Li0 O0 2.000238 1_555
Li0 O2 2.003595 1_556
Li0 O5 2.053232 1_555
Li1 O10 1.905399 1_655
Li1 O1 1.969340 1_555
Li1 O7 2.009103 1_555
Li1 O8 2.046536 1_555
Li2 O5 1.952026 1_554
Li2 O11 1.970631 1_555
Li2 O9 1.987006 1_554
Li2 O6 2.001286 1_555
Mn0 O1 2.066143 1_555
Mn0 O4 2.092538 1_555
Mn0 O11 2.149888 1_545
Mn0 O2 2.152385 1_555
Mn0 O8 2.201778 1_555
Mn1 O3 2.038937 1_555
Mn1 O6 2.099295 1_556
Mn1 O0 2.124894 1_455
Mn1 O7 2.161620 1_445
Mn1 O9 2.308599 1_555
Mn2 O4 2.100033 1_665
Mn2 O8 2.113988 1_555
Mn2 O5 2.132904 1_554
Mn2 O11 2.181505 1_655
Mn2 O2 2.279281 1_555
Mn3 O10 2.023896 1_555
Mn3 O3 2.062707 1_555
Mn3 O0 2.102603 1_565
Mn3 O7 2.109691 1_555
Mn3 O9 2.126030 1_555
B0 O1 1.348762 1_555
B0 O3 1.395915 1_555
B0 O0 1.426191 1_555
B1 O5 1.373910 1_555
B1 O9 1.392118 1_655
B1 O7 1.406552 1_555
B2 O4 1.378587 1_555
B2 O6 1.384607 1_555
B2 O2 1.403499 1_455
B3 O10 1.370044 1_555
B3 O8 1.397413 1_555
B3 O11 1.402285 1_555
