# generated using pymatgen
data_Mo3P5Pb3O23
_symmetry_space_group_name_H-M   'P 1'
_cell_length_a   8.28060900
_cell_length_b   14.57787900
_cell_length_c   15.93083700
_cell_angle_alpha   90.00000000
_cell_angle_beta   90.00000000
_cell_angle_gamma   90.00000000
_symmetry_Int_Tables_number   1
_chemical_formula_structural   Mo3P5Pb3O23
_chemical_formula_sum   'Mo12 P20 Pb12 O92'
_cell_volume   1923.07053403
_cell_formula_units_Z   4
loop_
 _symmetry_equiv_pos_site_id
 _symmetry_equiv_pos_as_xyz
  1  'x, y, z'
loop_
 _atom_site_type_symbol
 _atom_site_label
 _atom_site_symmetry_multiplicity
 _atom_site_fract_x
 _atom_site_fract_y
 _atom_site_fract_z
 _atom_site_occupancy
  Mo  Mo0  1  0.94369800  0.65319600  0.75000000  1
  Mo  Mo1  1  0.44369800  0.84680400  0.25000000  1
  Mo  Mo2  1  0.50466400  0.15175600  0.41699200  1
  Mo  Mo3  1  0.99533600  0.65175600  0.08300800  1
  Mo  Mo4  1  0.50466400  0.15175600  0.08300800  1
  Mo  Mo5  1  0.05630200  0.34680400  0.25000000  1
  Mo  Mo6  1  0.55630200  0.15319600  0.75000000  1
  Mo  Mo7  1  0.49533600  0.84824400  0.58300800  1
  Mo  Mo8  1  0.99533600  0.65175600  0.41699200  1
  Mo  Mo9  1  0.00466400  0.34824400  0.58300800  1
  Mo  Mo10  1  0.00466400  0.34824400  0.91699200  1
  Mo  Mo11  1  0.49533600  0.84824400  0.91699200  1
  P  P0  1  0.71418900  0.64517200  0.92798200  1
  P  P1  1  0.82039900  0.43768800  0.40541600  1
  P  P2  1  0.17960100  0.56231200  0.59458400  1
  P  P3  1  0.28581100  0.35482800  0.07201800  1
  P  P4  1  0.21418900  0.85482800  0.07201800  1
  P  P5  1  0.78581100  0.14517200  0.92798200  1
  P  P6  1  0.67960100  0.93768800  0.40541600  1
  P  P7  1  0.79869700  0.43299400  0.75000000  1
  P  P8  1  0.78581100  0.14517200  0.57201800  1
  P  P9  1  0.17960100  0.56231200  0.90541600  1
  P  P10  1  0.67960100  0.93768800  0.09458400  1
  P  P11  1  0.71418900  0.64517200  0.57201800  1
  P  P12  1  0.29869700  0.06700600  0.25000000  1
  P  P13  1  0.70130300  0.93299400  0.75000000  1
  P  P14  1  0.28581100  0.35482800  0.42798200  1
  P  P15  1  0.21418900  0.85482800  0.42798200  1
  P  P16  1  0.32039900  0.06231200  0.90541600  1
  P  P17  1  0.20130300  0.56700600  0.25000000  1
  P  P18  1  0.32039900  0.06231200  0.59458400  1
  P  P19  1  0.82039900  0.43768800  0.09458400  1
  Pb  Pb0  1  0.95680300  0.90342200  0.91514600  1
  Pb  Pb1  1  0.54528300  0.39024700  0.25000000  1
  Pb  Pb2  1  0.45471700  0.60975300  0.75000000  1
  Pb  Pb3  1  0.95680300  0.90342200  0.58485400  1
  Pb  Pb4  1  0.04319700  0.09657800  0.41514600  1
  Pb  Pb5  1  0.04528300  0.10975300  0.75000000  1
  Pb  Pb6  1  0.54319700  0.40342200  0.91514600  1
  Pb  Pb7  1  0.95471700  0.89024700  0.25000000  1
  Pb  Pb8  1  0.54319700  0.40342200  0.58485400  1
  Pb  Pb9  1  0.04319700  0.09657800  0.08485400  1
  Pb  Pb10  1  0.45680300  0.59657800  0.08485400  1
  Pb  Pb11  1  0.45680300  0.59657800  0.41514600  1
  O  O0  1  0.91777000  0.21852400  0.94423300  1
  O  O1  1  0.24971300  0.35676900  0.16744700  1
  O  O2  1  0.55708600  0.01703700  0.08423600  1
  O  O3  1  0.31881500  0.12894900  0.16956800  1
  O  O4  1  0.37014900  0.82746000  0.02531200  1
  O  O5  1  0.57269300  0.00771000  0.75000000  1
  O  O6  1  0.79999800  0.38817300  0.00867400  1
  O  O7  1  0.46479900  0.72892300  0.25000000  1
  O  O8  1  0.35729200  0.44628400  0.04145300  1
  O  O9  1  0.84230200  0.97330600  0.36894100  1
  O  O10  1  0.08223000  0.78147600  0.44423300  1
  O  O11  1  0.87014900  0.67254000  0.52531200  1
  O  O12  1  0.74971300  0.14323100  0.66744700  1
  O  O13  1  0.07269300  0.49229000  0.25000000  1
  O  O14  1  0.65769800  0.47330600  0.36894100  1
  O  O15  1  0.38475900  0.13279300  0.84025700  1
  O  O16  1  0.11524100  0.63279300  0.65974300  1
  O  O17  1  0.58223000  0.71852400  0.55576700  1
  O  O18  1  0.18118500  0.62894900  0.33043200  1
  O  O19  1  0.85729200  0.05371600  0.95854700  1
  O  O20  1  0.12985100  0.32746000  0.02531200  1
  O  O21  1  0.35729200  0.44628400  0.45854700  1
  O  O22  1  0.87014900  0.67254000  0.97468800  1
  O  O23  1  0.87871000  0.96734400  0.75000000  1
  O  O24  1  0.20000200  0.61182700  0.50867400  1
  O  O25  1  0.29999800  0.11182700  0.50867400  1
  O  O26  1  0.29999800  0.11182700  0.99132600  1
  O  O27  1  0.31881500  0.12894900  0.33043200  1
  O  O28  1  0.20000200  0.61182700  0.99132600  1
  O  O29  1  0.65769800  0.47330600  0.13105900  1
  O  O30  1  0.79999800  0.38817300  0.49132600  1
  O  O31  1  0.70000200  0.88817300  0.00867400  1
  O  O32  1  0.58223000  0.71852400  0.94423300  1
  O  O33  1  0.14270800  0.94628400  0.45854700  1
  O  O34  1  0.38475900  0.13279300  0.65974300  1
  O  O35  1  0.74971300  0.14323100  0.83255300  1
  O  O36  1  0.70000200  0.88817300  0.49132600  1
  O  O37  1  0.14270800  0.94628400  0.04145300  1
  O  O38  1  0.25028700  0.85676900  0.33255300  1
  O  O39  1  0.88475900  0.36720700  0.15974300  1
  O  O40  1  0.85729200  0.05371600  0.54145300  1
  O  O41  1  0.11524100  0.63279300  0.84025700  1
  O  O42  1  0.03520100  0.22892300  0.25000000  1
  O  O43  1  0.61524100  0.86720700  0.34025700  1
  O  O44  1  0.44291400  0.98296300  0.58423600  1
  O  O45  1  0.64270800  0.55371600  0.54145300  1
  O  O46  1  0.37871000  0.53265600  0.25000000  1
  O  O47  1  0.05708600  0.48296300  0.58423600  1
  O  O48  1  0.08223000  0.78147600  0.05576700  1
  O  O49  1  0.68118500  0.87105100  0.83043200  1
  O  O50  1  0.34230200  0.52669400  0.63105900  1
  O  O51  1  0.62985100  0.17254000  0.52531200  1
  O  O52  1  0.41777000  0.28147600  0.05576700  1
  O  O53  1  0.75028700  0.64323100  0.83255300  1
  O  O54  1  0.62129000  0.46734400  0.75000000  1
  O  O55  1  0.42730700  0.99229000  0.25000000  1
  O  O56  1  0.64769100  0.18866100  0.15298100  1
  O  O57  1  0.14769100  0.31133900  0.84701900  1
  O  O58  1  0.15769800  0.02669400  0.63105900  1
  O  O59  1  0.18118500  0.62894900  0.16956800  1
  O  O60  1  0.53520100  0.27107700  0.75000000  1
  O  O61  1  0.81881500  0.37105100  0.83043200  1
  O  O62  1  0.92730700  0.50771000  0.75000000  1
  O  O63  1  0.64769100  0.18866100  0.34701900  1
  O  O64  1  0.24971300  0.35676900  0.33255300  1
  O  O65  1  0.81881500  0.37105100  0.66956800  1
  O  O66  1  0.88475900  0.36720700  0.34025700  1
  O  O67  1  0.25028700  0.85676900  0.16744700  1
  O  O68  1  0.61524100  0.86720700  0.15974300  1
  O  O69  1  0.37014900  0.82746000  0.47468800  1
  O  O70  1  0.96479900  0.77107700  0.75000000  1
  O  O71  1  0.15769800  0.02669400  0.86894100  1
  O  O72  1  0.35230900  0.81133900  0.65298100  1
  O  O73  1  0.14769100  0.31133900  0.65298100  1
  O  O74  1  0.12129000  0.03265600  0.25000000  1
  O  O75  1  0.94291400  0.51703700  0.41576400  1
  O  O76  1  0.75028700  0.64323100  0.66744700  1
  O  O77  1  0.85230900  0.68866100  0.34701900  1
  O  O78  1  0.62985100  0.17254000  0.97468800  1
  O  O79  1  0.34230200  0.52669400  0.86894100  1
  O  O80  1  0.94291400  0.51703700  0.08423600  1
  O  O81  1  0.41777000  0.28147600  0.44423300  1
  O  O82  1  0.68118500  0.87105100  0.66956800  1
  O  O83  1  0.12985100  0.32746000  0.47468800  1
  O  O84  1  0.84230200  0.97330600  0.13105900  1
  O  O85  1  0.05708600  0.48296300  0.91576400  1
  O  O86  1  0.35230900  0.81133900  0.84701900  1
  O  O87  1  0.85230900  0.68866100  0.15298100  1
  O  O88  1  0.64270800  0.55371600  0.95854700  1
  O  O89  1  0.44291400  0.98296300  0.91576400  1
  O  O90  1  0.55708600  0.01703700  0.41576400  1
  O  O91  1  0.91777000  0.21852400  0.55576700  1
loop_
_geom_bond_atom_site_label_1
_geom_bond_atom_site_label_2
_geom_bond_distance
_geom_bond_site_symmetry_2
Mo0 O70 1.727315 1_555
Mo0 O16 2.042963 1_655
Mo0 O41 2.042963 1_655
Mo0 O76 2.077424 1_555
Mo0 O53 2.077424 1_555
Mo0 O62 2.125216 1_555
Mo1 O7 1.727315 1_555
Mo1 O43 2.042963 1_555
Mo1 O68 2.042963 1_555
Mo1 O38 2.077424 1_555
Mo1 O67 2.077424 1_555
Mo1 O55 2.125216 1_555
Mo2 O63 1.713110 1_555
Mo2 O90 2.011414 1_555
Mo2 O51 2.035727 1_555
Mo2 O81 2.069325 1_555
Mo2 O27 2.092953 1_555
Mo2 O25 2.311773 1_555
Mo3 O87 1.713110 1_555
Mo3 O80 2.011414 1_555
Mo3 O22 2.035727 1_554
Mo3 O48 2.069325 1_655
Mo3 O59 2.092953 1_655
Mo3 O28 2.311773 1_654
Mo4 O56 1.713110 1_555
Mo4 O2 2.011414 1_555
Mo4 O78 2.035727 1_554
Mo4 O52 2.069325 1_555
Mo4 O3 2.092953 1_555
Mo4 O26 2.311773 1_554
Mo5 O42 1.727315 1_555
Mo5 O39 2.042963 1_455
Mo5 O66 2.042963 1_455
Mo5 O64 2.077424 1_555
Mo5 O1 2.077424 1_555
Mo5 O13 2.125216 1_555
Mo6 O60 1.727315 1_555
Mo6 O15 2.042963 1_555
Mo6 O34 2.042963 1_555
Mo6 O35 2.077424 1_555
Mo6 O12 2.077424 1_555
Mo6 O5 2.125216 1_555
Mo7 O72 1.713110 1_555
Mo7 O44 2.011414 1_555
Mo7 O69 2.035727 1_555
Mo7 O17 2.069325 1_555
Mo7 O82 2.092953 1_555
Mo7 O36 2.311773 1_555
Mo8 O77 1.713110 1_555
Mo8 O75 2.011414 1_555
Mo8 O11 2.035727 1_555
Mo8 O10 2.069325 1_655
Mo8 O18 2.092953 1_655
Mo8 O24 2.311773 1_655
Mo9 O73 1.713110 1_555
Mo9 O47 2.011414 1_555
Mo9 O83 2.035727 1_555
Mo9 O91 2.069325 1_455
Mo9 O65 2.092953 1_455
Mo9 O30 2.311773 1_455
Mo10 O57 1.713110 1_555
Mo10 O85 2.011414 1_555
Mo10 O20 2.035727 1_556
Mo10 O0 2.069325 1_455
Mo10 O61 2.092953 1_455
Mo10 O6 2.311773 1_456
Mo11 O86 1.713110 1_555
Mo11 O89 2.011414 1_555
Mo11 O4 2.035727 1_556
Mo11 O32 2.069325 1_555
Mo11 O49 2.092953 1_555
Mo11 O31 2.311773 1_556
O0 P5 1.550632 1_555
O1 P3 1.549630 1_555
O1 Pb1 2.820997 1_555
O2 P10 1.547395 1_545
O3 P12 1.576392 1_555
O3 Pb9 2.693110 1_555
O4 P4 1.542931 1_555
O5 P13 1.523325 1_545
O6 P19 1.556497 1_555
O6 Pb6 2.606017 1_554
O8 P3 1.537844 1_555
O8 Pb10 2.440776 1_555
O8 Pb6 2.609415 1_554
O9 P6 1.556398 1_555
O9 Pb7 2.433718 1_555
O9 Pb4 2.557055 1_665
O10 P15 1.550632 1_555
O11 P11 1.542931 1_555
O12 P8 1.549630 1_555
O12 Pb5 2.820997 1_655
O13 P17 1.523325 1_555
O14 P1 1.556398 1_555
O14 Pb1 2.433718 1_555
O14 Pb11 2.557055 1_555
O15 P16 1.554744 1_555
O16 P2 1.554744 1_555
O17 P11 1.550632 1_555
O18 P17 1.576392 1_555
O18 Pb11 2.693110 1_555
O19 P5 1.537844 1_555
O19 Pb0 2.440776 1_545
O19 Pb9 2.609415 1_656
O20 P3 1.542931 1_555
O21 P14 1.537844 1_555
O21 Pb11 2.440776 1_555
O21 Pb8 2.609415 1_555
O22 P0 1.542931 1_555
O23 P13 1.552038 1_555
O23 Pb5 2.492469 1_665
O24 P2 1.556497 1_555
O24 Pb11 2.606017 1_555
O25 P18 1.556497 1_555
O25 Pb4 2.606017 1_555
O26 P16 1.556497 1_555
O26 Pb9 2.606017 1_556
O27 P12 1.576392 1_555
O27 Pb4 2.693110 1_555
O28 P9 1.556497 1_555
O28 Pb10 2.606017 1_556
O29 P19 1.556398 1_555
O29 Pb1 2.433718 1_555
O29 Pb10 2.557055 1_555
O30 P1 1.556497 1_555
O30 Pb8 2.606017 1_555
O31 P10 1.556497 1_555
O31 Pb0 2.606017 1_554
O32 P0 1.550632 1_555
O33 P15 1.537844 1_555
O33 Pb4 2.440776 1_565
O33 Pb3 2.609415 1_455
O34 P18 1.554744 1_555
O35 P5 1.549630 1_555
O35 Pb5 2.820997 1_655
O36 P6 1.556497 1_555
O36 Pb3 2.606017 1_555
O37 P4 1.537844 1_555
O37 Pb9 2.440776 1_565
O37 Pb0 2.609415 1_454
O38 P15 1.549630 1_555
O38 Pb7 2.820997 1_455
O39 P19 1.554744 1_555
O40 P8 1.537844 1_555
O40 Pb3 2.440776 1_545
O40 Pb4 2.609415 1_655
O41 P9 1.554744 1_555
O43 P6 1.554744 1_555
O44 P18 1.547395 1_565
O45 P11 1.537844 1_555
O45 Pb8 2.440776 1_555
O45 Pb11 2.609415 1_555
O46 P17 1.552038 1_555
O46 Pb1 2.492469 1_555
O47 P2 1.547395 1_555
O48 P4 1.550632 1_555
O49 P13 1.576392 1_555
O49 Pb0 2.693110 1_555
O50 P2 1.556398 1_555
O50 Pb2 2.433718 1_555
O50 Pb8 2.557055 1_555
O51 P8 1.542931 1_555
O52 P3 1.550632 1_555
O53 P0 1.549630 1_555
O53 Pb2 2.820997 1_555
O54 P7 1.552038 1_555
O54 Pb2 2.492469 1_555
O55 P12 1.523325 1_565
O58 P18 1.556398 1_555
O58 Pb5 2.433718 1_555
O58 Pb3 2.557055 1_445
O59 P17 1.576392 1_555
O59 Pb10 2.693110 1_555
O61 P7 1.576392 1_555
O61 Pb6 2.693110 1_555
O62 P7 1.523325 1_555
O64 P14 1.549630 1_555
O64 Pb1 2.820997 1_555
O65 P7 1.576392 1_555
O65 Pb8 2.693110 1_555
O66 P1 1.554744 1_555
O67 P4 1.549630 1_555
O67 Pb7 2.820997 1_455
O68 P10 1.554744 1_555
O69 P15 1.542931 1_555
O71 P16 1.556398 1_555
O71 Pb5 2.433718 1_555
O71 Pb0 2.557055 1_445
O74 P12 1.552038 1_555
O74 Pb7 2.492469 1_445
O75 P1 1.547395 1_555
O76 P11 1.549630 1_555
O76 Pb2 2.820997 1_555
O78 P5 1.542931 1_555
O79 P9 1.556398 1_555
O79 Pb2 2.433718 1_555
O79 Pb6 2.557055 1_555
O80 P19 1.547395 1_555
O81 P14 1.550632 1_555
O82 P13 1.576392 1_555
O82 Pb3 2.693110 1_555
O83 P14 1.542931 1_555
O84 P10 1.556398 1_555
O84 Pb7 2.433718 1_555
O84 Pb9 2.557055 1_665
O85 P9 1.547395 1_555
O88 P0 1.537844 1_555
O88 Pb6 2.440776 1_555
O88 Pb10 2.609415 1_556
O89 P16 1.547395 1_565
O90 P6 1.547395 1_545
O91 P8 1.550632 1_555
