# generated using pymatgen
data_Na4Ti5O12
_symmetry_space_group_name_H-M   'P 1'
_cell_length_a   5.95568900
_cell_length_b   6.45297205
_cell_length_c   13.43561113
_cell_angle_alpha   95.87291625
_cell_angle_beta   96.35716592
_cell_angle_gamma   90.00708542
_symmetry_Int_Tables_number   1
_chemical_formula_structural   Na4Ti5O12
_chemical_formula_sum   'Na8 Ti10 O24'
_cell_volume   510.45311263
_cell_formula_units_Z   2
loop_
 _symmetry_equiv_pos_site_id
 _symmetry_equiv_pos_as_xyz
  1  'x, y, z'
loop_
 _atom_site_type_symbol
 _atom_site_label
 _atom_site_symmetry_multiplicity
 _atom_site_fract_x
 _atom_site_fract_y
 _atom_site_fract_z
 _atom_site_occupancy
  Na  Na0  1  0.21982800  0.59237500  0.87975200  1
  Na  Na1  1  0.70084500  0.67452100  0.80346600  1
  Na  Na2  1  0.15555400  0.41078600  0.62390100  1
  Na  Na3  1  0.65413200  0.40013200  0.61456900  1
  Na  Na4  1  0.84444600  0.58921400  0.37609900  1
  Na  Na5  1  0.34586800  0.59986800  0.38543100  1
  Na  Na6  1  0.29915500  0.32547900  0.19653400  1
  Na  Na7  1  0.78017200  0.40762500  0.12024800  1
  Ti  Ti0  1  0.74812800  0.98079000  0.99252200  1
  Ti  Ti1  1  0.25187200  0.01921000  0.00747800  1
  Ti  Ti2  1  0.95103100  0.16497100  0.81110400  1
  Ti  Ti3  1  0.45433900  0.16497400  0.81103800  1
  Ti  Ti4  1  0.64801900  0.90157500  0.58442000  1
  Ti  Ti5  1  0.14665700  0.90235300  0.58868300  1
  Ti  Ti6  1  0.85334300  0.09764700  0.41131700  1
  Ti  Ti7  1  0.35198100  0.09842500  0.41558000  1
  Ti  Ti8  1  0.04896900  0.83502900  0.18889600  1
  Ti  Ti9  1  0.54566100  0.83502600  0.18896200  1
  O  O0  1  0.72733000  0.22546900  0.90957100  1
  O  O1  1  0.22707000  0.22938100  0.90833300  1
  O  O2  1  0.97603200  0.87744000  0.91571700  1
  O  O3  1  0.48187100  0.87744000  0.91570100  1
  O  O4  1  0.93819000  0.40170500  0.76084500  1
  O  O5  1  0.44209000  0.40190800  0.76085900  1
  O  O6  1  0.18231500  0.01460400  0.72946400  1
  O  O7  1  0.68261100  0.00942100  0.73046900  1
  O  O8  1  0.89703000  0.71317200  0.59160600  1
  O  O9  1  0.39835400  0.71358300  0.59040900  1
  O  O10  1  0.88992700  0.11297700  0.56264900  1
  O  O11  1  0.39134200  0.11531500  0.56325300  1
  O  O12  1  0.11007300  0.88702300  0.43735100  1
  O  O13  1  0.60865800  0.88468500  0.43674700  1
  O  O14  1  0.60164600  0.28641700  0.40959100  1
  O  O15  1  0.10297000  0.28682800  0.40839400  1
  O  O16  1  0.31738900  0.99057900  0.26953100  1
  O  O17  1  0.81768500  0.98539600  0.27053600  1
  O  O18  1  0.06181000  0.59829500  0.23915500  1
  O  O19  1  0.55791000  0.59809200  0.23914100  1
  O  O20  1  0.02396800  0.12256000  0.08428300  1
  O  O21  1  0.51812900  0.12256000  0.08429900  1
  O  O22  1  0.77293000  0.77061900  0.09166700  1
  O  O23  1  0.27267000  0.77453100  0.09042900  1
loop_
_geom_bond_atom_site_label_1
_geom_bond_atom_site_label_2
_geom_bond_distance
_geom_bond_site_symmetry_2
Na0 O2 2.387398 1_455
Na0 O3 2.388151 1_555
Na0 O1 2.411751 1_555
Na0 O5 2.425169 1_555
Na0 O4 2.425581 1_455
Na0 O23 2.935066 1_556
Na1 O5 2.322740 1_555
Na1 O4 2.323549 1_555
Na1 O3 2.391890 1_555
Na1 O2 2.392320 1_555
Na1 O7 2.460540 1_565
Na2 O4 2.369419 1_455
Na2 O5 2.372279 1_555
Na2 O11 2.491479 1_555
Na2 O10 2.502075 1_455
Na2 O8 2.528340 1_455
Na2 O9 2.536679 1_555
Na2 O15 2.906339 1_555
Na3 O11 2.409112 1_555
Na3 O10 2.417728 1_555
Na3 O4 2.446266 1_555
Na3 O5 2.450138 1_555
Na3 O8 2.548356 1_555
Na3 O9 2.557893 1_555
Na3 O14 2.759792 1_555
Na4 O18 2.369419 1_655
Na4 O19 2.372279 1_555
Na4 O13 2.491479 1_555
Na4 O12 2.502075 1_655
Na4 O15 2.528340 1_655
Na4 O14 2.536679 1_555
Na4 O8 2.906339 1_555
Na5 O13 2.409112 1_555
Na5 O12 2.417728 1_555
Na5 O18 2.446266 1_555
Na5 O19 2.450138 1_555
Na5 O15 2.548356 1_555
Na5 O14 2.557893 1_555
Na5 O9 2.759792 1_555
Na6 O19 2.322740 1_555
Na6 O18 2.323549 1_555
Na6 O21 2.391890 1_555
Na6 O20 2.392320 1_555
Na6 O16 2.460540 1_545
Na7 O20 2.387398 1_655
Na7 O21 2.388151 1_555
Na7 O22 2.411751 1_555
Na7 O19 2.425169 1_555
Na7 O18 2.425581 1_655
Na7 O0 2.935066 1_554
O0 Ti2 1.990580 1_555
O0 Ti3 1.991430 1_555
O0 Ti0 2.019896 1_545
O1 Ti1 1.990422 1_556
O1 Ti3 1.998605 1_555
O1 Ti2 1.998780 1_455
O2 Ti0 1.876575 1_555
O2 Ti1 2.091895 1_666
O2 Ti2 2.434695 1_565
O3 Ti0 1.876456 1_555
O3 Ti1 2.092195 1_566
O3 Ti3 2.435153 1_565
O4 Ti2 1.730664 1_555
O5 Ti3 1.731343 1_555
O6 Ti5 1.943734 1_545
O6 Ti3 2.038679 1_555
O6 Ti2 2.039403 1_455
O7 Ti4 2.002047 1_545
O7 Ti2 2.032333 1_555
O7 Ti3 2.032616 1_555
O8 Ti4 1.918211 1_555
O8 Ti5 1.929875 1_655
O9 Ti5 1.931319 1_555
O9 Ti4 1.932636 1_555
O10 Ti6 2.012969 1_555
O10 Ti4 2.048590 1_545
O10 Ti5 2.070473 1_645
O11 Ti7 1.963704 1_555
O11 Ti4 2.074762 1_545
O11 Ti5 2.082006 1_545
O12 Ti5 2.012969 1_555
O12 Ti7 2.048590 1_565
O12 Ti6 2.070473 1_465
O13 Ti4 1.963704 1_555
O13 Ti7 2.074762 1_565
O13 Ti6 2.082006 1_565
O14 Ti6 1.931319 1_555
O14 Ti7 1.932636 1_555
O15 Ti7 1.918211 1_555
O15 Ti6 1.929875 1_455
O16 Ti7 2.002047 1_565
O16 Ti8 2.032333 1_555
O16 Ti9 2.032616 1_555
O17 Ti6 1.943734 1_565
O17 Ti9 2.038679 1_555
O17 Ti8 2.039403 1_655
O18 Ti8 1.730664 1_555
O19 Ti9 1.731343 1_555
O20 Ti1 1.876575 1_555
O20 Ti0 2.091895 1_444
O20 Ti8 2.434695 1_545
O21 Ti1 1.876456 1_555
O21 Ti0 2.092195 1_544
O21 Ti9 2.435153 1_545
O22 Ti0 1.990422 1_554
O22 Ti9 1.998605 1_555
O22 Ti8 1.998780 1_655
O23 Ti8 1.990580 1_555
O23 Ti9 1.991430 1_555
O23 Ti1 2.019896 1_565
