# generated using pymatgen
data_Na2NiPCO7
_symmetry_space_group_name_H-M   'P 1'
_cell_length_a   5.14857400
_cell_length_b   11.07423468
_cell_length_c   11.17065211
_cell_angle_alpha   73.19497280
_cell_angle_beta   88.64773197
_cell_angle_gamma   88.75992648
_symmetry_Int_Tables_number   1
_chemical_formula_structural   Na2NiPCO7
_chemical_formula_sum   'Na8 Ni4 P4 C4 O28'
_cell_volume   609.46892619
_cell_formula_units_Z   4
loop_
 _symmetry_equiv_pos_site_id
 _symmetry_equiv_pos_as_xyz
  1  'x, y, z'
loop_
 _atom_site_type_symbol
 _atom_site_label
 _atom_site_symmetry_multiplicity
 _atom_site_fract_x
 _atom_site_fract_y
 _atom_site_fract_z
 _atom_site_occupancy
  Na  Na0  1  0.24327800  0.13203100  0.11945200  1
  Na  Na1  1  0.74934900  0.35219500  0.37937300  1
  Na  Na2  1  0.75690700  0.63111000  0.11577500  1
  Na  Na3  1  0.21252700  0.31466900  0.59544400  1
  Na  Na4  1  0.24903300  0.63826900  0.62337700  1
  Na  Na5  1  0.24798200  0.37295100  0.88864900  1
  Na  Na6  1  0.24442300  0.86875100  0.38490900  1
  Na  Na7  1  0.75872300  0.87355800  0.87740300  1
  Ni  Ni0  1  0.78058900  0.04829800  0.29849100  1
  Ni  Ni1  1  0.21950100  0.45029300  0.19985300  1
  Ni  Ni2  1  0.78013800  0.55153600  0.80116100  1
  Ni  Ni3  1  0.21679900  0.95668400  0.69807100  1
  P  P0  1  0.71702300  0.33549600  0.08547200  1
  P  P1  1  0.28435800  0.16294000  0.41251200  1
  P  P2  1  0.71929400  0.83826000  0.58710800  1
  P  P3  1  0.28501300  0.66726500  0.91562800  1
  C  C0  1  0.28513700  0.08825600  0.83917600  1
  C  C1  1  0.28671500  0.58758200  0.33831800  1
  C  C2  1  0.71746500  0.91194900  0.16282600  1
  C  C3  1  0.71214700  0.41338900  0.65825800  1
  O  O0  1  0.78993300  0.19342900  0.12940600  1
  O  O1  1  0.13945200  0.08882500  0.33728600  1
  O  O2  1  0.41446900  0.35099400  0.10284100  1
  O  O3  1  0.58129400  0.14818400  0.38659000  1
  O  O4  1  0.85375500  0.41039000  0.16307900  1
  O  O5  1  0.20880100  0.61900500  0.05648200  1
  O  O6  1  0.22285100  0.11883800  0.55385400  1
  O  O7  1  0.21521500  0.30671500  0.37149700  1
  O  O8  1  0.48152400  0.53977100  0.28904700  1
  O  O9  1  0.47291600  0.03867200  0.78803000  1
  O  O10  1  0.05684600  0.06216900  0.80672300  1
  O  O11  1  0.06063200  0.55614100  0.30710700  1
  O  O12  1  0.68416100  0.34804500  0.58350900  1
  O  O13  1  0.68832000  0.84440500  0.09138700  1
  O  O14  1  0.32017000  0.15797000  0.90843900  1
  O  O15  1  0.31219200  0.65513900  0.41028300  1
  O  O16  1  0.94368600  0.94179000  0.19517300  1
  O  O17  1  0.94095900  0.44124400  0.69053800  1
  O  O18  1  0.51431900  0.45756200  0.70898200  1
  O  O19  1  0.52399800  0.96036800  0.21271400  1
  O  O20  1  0.78862100  0.38466700  0.94481200  1
  O  O21  1  0.79138300  0.88176400  0.44583600  1
  O  O22  1  0.78745900  0.69494000  0.63315800  1
  O  O23  1  0.15041900  0.59078200  0.83897000  1
  O  O24  1  0.41863300  0.85523000  0.60424500  1
  O  O25  1  0.58646800  0.65257400  0.90058300  1
  O  O26  1  0.86295000  0.91108700  0.66316500  1
  O  O27  1  0.20624400  0.80873000  0.86976800  1
loop_
_geom_bond_atom_site_label_1
_geom_bond_atom_site_label_2
_geom_bond_distance
_geom_bond_site_symmetry_2
Na0 O14 2.316196 1_554
Na0 O19 2.365408 1_545
Na0 O1 2.390045 1_555
Na0 O0 2.425981 1_455
Na0 O2 2.552603 1_555
Na0 O16 2.565509 1_445
Na0 O0 2.921878 1_555
Na1 O12 2.284429 1_555
Na1 O4 2.365451 1_555
Na1 O3 2.415663 1_555
Na1 O8 2.442181 1_555
Na1 O7 2.444955 1_655
Na1 O11 2.713408 1_655
Na1 O7 2.814438 1_555
Na2 O13 2.318335 1_555
Na2 O8 2.362256 1_555
Na2 O4 2.390672 1_555
Na2 O5 2.415551 1_655
Na2 O25 2.522915 1_554
Na2 O11 2.603492 1_655
Na2 O5 2.928495 1_555
Na3 O6 2.344839 1_555
Na3 O17 2.398792 1_455
Na3 O12 2.458826 1_555
Na3 O7 2.528211 1_555
Na3 O12 2.738557 1_455
Na3 O18 2.808360 1_555
Na4 O15 2.348594 1_555
Na4 O23 2.357081 1_555
Na4 O18 2.370978 1_555
Na4 O22 2.452784 1_455
Na4 O24 2.523111 1_555
Na4 O17 2.643197 1_455
Na4 O22 2.867008 1_555
Na5 O14 2.348665 1_555
Na5 O23 2.359270 1_555
Na5 O18 2.371639 1_555
Na5 O20 2.442882 1_455
Na5 O2 2.504012 1_556
Na5 O17 2.667164 1_455
Na5 O20 2.881587 1_555
Na6 O15 2.319337 1_555
Na6 O19 2.367557 1_555
Na6 O1 2.392001 1_565
Na6 O21 2.427306 1_455
Na6 O16 2.579390 1_455
Na6 O24 2.591487 1_555
Na6 O21 2.928981 1_555
Na7 O9 2.324390 1_565
Na7 O13 2.338223 1_556
Na7 O26 2.358370 1_555
Na7 O27 2.405425 1_655
Na7 O10 2.543633 1_665
Na7 O25 2.561094 1_555
Ni0 O3 1.943609 1_555
Ni0 O1 1.997280 1_655
Ni0 O16 2.031471 1_545
Ni0 O19 2.065553 1_545
Ni0 O21 2.087600 1_545
Ni0 O0 2.096832 1_555
Ni1 O2 1.995297 1_555
Ni1 O4 2.021748 1_455
Ni1 O11 2.050075 1_555
Ni1 O5 2.080441 1_555
Ni1 O7 2.107524 1_555
Ni1 O8 2.118186 1_555
Ni2 O25 2.024274 1_555
Ni2 O23 2.044925 1_655
Ni2 O20 2.068079 1_555
Ni2 O22 2.078791 1_555
Ni2 O17 2.117806 1_555
Ni2 O18 2.182692 1_555
Ni3 O26 1.978189 1_455
Ni3 O24 2.004902 1_555
Ni3 O6 2.036716 1_565
Ni3 O9 2.053036 1_565
Ni3 O10 2.060807 1_565
Ni3 O27 2.132598 1_555
C0 O14 1.259048 1_555
C0 O10 1.300673 1_555
C0 O9 1.301916 1_555
C1 O15 1.257044 1_555
C1 O11 1.305598 1_555
C1 O8 1.307179 1_555
C2 O13 1.254799 1_555
C2 O16 1.304571 1_555
C2 O19 1.309090 1_555
C3 O12 1.265386 1_555
C3 O18 1.307377 1_555
C3 O17 1.308851 1_555
O0 P0 1.547145 1_555
O1 P1 1.546387 1_555
O2 P0 1.577028 1_555
O3 P1 1.563146 1_555
O4 P0 1.550762 1_555
O5 P3 1.552088 1_554
O6 P1 1.539120 1_555
O7 P1 1.559836 1_555
O20 P0 1.545278 1_556
O21 P2 1.549431 1_555
O22 P2 1.555369 1_555
O23 P3 1.550381 1_555
O24 P2 1.569209 1_555
O25 P3 1.567222 1_555
O26 P2 1.539808 1_555
O27 P3 1.549012 1_555
