# generated using pymatgen
data_Li2MnO2F
_symmetry_space_group_name_H-M   'P 1'
_cell_length_a   3.91538600
_cell_length_b   3.91778602
_cell_length_c   15.15531806
_cell_angle_alpha   89.98985373
_cell_angle_beta   89.99918553
_cell_angle_gamma   89.99508462
_symmetry_Int_Tables_number   1
_chemical_formula_structural   Li2MnO2F
_chemical_formula_sum   'Li8 Mn4 O8 F4'
_cell_volume   232.47718747
_cell_formula_units_Z   4
loop_
 _symmetry_equiv_pos_site_id
 _symmetry_equiv_pos_as_xyz
  1  'x, y, z'
loop_
 _atom_site_type_symbol
 _atom_site_label
 _atom_site_symmetry_multiplicity
 _atom_site_fract_x
 _atom_site_fract_y
 _atom_site_fract_z
 _atom_site_occupancy
  Li  Li0  1  0.50023100  0.50039200  0.00303600  1
  Li  Li1  1  0.99990400  0.49995800  0.50296100  1
  Li  Li2  1  0.49993500  0.99996300  0.16394100  1
  Li  Li3  1  0.00000400  0.99973600  0.66382800  1
  Li  Li4  1  0.49991500  0.49998100  0.31353700  1
  Li  Li5  1  0.99995800  0.50001800  0.81340400  1
  Li  Li6  1  0.99991400  0.99997800  0.35327500  1
  Li  Li7  1  0.50001600  0.99996200  0.85315800  1
  Mn  Mn0  1  0.49993400  0.00001000  0.50232200  1
  Mn  Mn1  1  0.99992200  0.50001800  0.16396700  1
  Mn  Mn2  1  0.00018800  0.00037300  0.00248200  1
  Mn  Mn3  1  0.50011300  0.49955500  0.66415000  1
  O  O0  1  0.99989600  0.99994400  0.48651600  1
  O  O1  1  0.50026100  0.00043500  0.98641000  1
  O  O2  1  0.49991800  0.49996800  0.18020000  1
  O  O3  1  0.00003000  0.49971400  0.68015800  1
  O  O4  1  0.00024000  0.50040800  0.01616400  1
  O  O5  1  0.49989700  0.49992600  0.51625000  1
  O  O6  1  0.99994200  0.00005800  0.15023800  1
  O  O7  1  0.49999300  0.99964800  0.65023300  1
  F  F0  1  0.99990000  0.49998500  0.31978100  1
  F  F1  1  0.49996900  0.49997300  0.81963700  1
  F  F2  1  0.49989800  0.99997600  0.34722700  1
  F  F3  1  0.00001400  0.00001900  0.84712500  1
loop_
_geom_bond_atom_site_label_1
_geom_bond_atom_site_label_2
_geom_bond_distance
_geom_bond_site_symmetry_2
Li0 O4 1.967739 1_555
Li0 O4 1.967815 1_655
Li0 O1 1.974909 1_554
Li0 O1 1.975155 1_564
Li1 O5 1.968001 1_655
Li1 O5 1.968050 1_555
Li1 O0 1.974586 1_555
Li1 O0 1.974782 1_545
Li2 O6 1.968653 1_465
Li2 O6 1.968702 1_565
Li2 O2 1.974268 1_555
Li2 O2 1.974393 1_565
Li3 O7 1.968460 1_555
Li3 O7 1.968551 1_455
Li3 O3 1.974423 1_565
Li3 O3 1.974507 1_555
Li4 O2 2.020765 1_555
Li5 O3 2.019386 1_655
Li6 O0 2.019310 1_555
Li7 O1 2.019478 1_565
Mn0 O5 1.969943 1_555
Mn0 O5 1.970523 1_545
Mn0 O0 1.972143 1_545
Mn0 O0 1.972445 1_445
Mn0 O7 2.241638 1_545
Mn1 O6 1.969793 1_555
Mn1 O6 1.970031 1_565
Mn1 O2 1.973078 1_655
Mn1 O2 1.973103 1_555
Mn1 O4 2.240002 1_655
Mn2 O4 1.969664 1_545
Mn2 O4 1.970010 1_555
Mn2 O1 1.972507 1_454
Mn2 O1 1.973068 1_554
Mn2 O6 2.239289 1_455
Mn3 O7 1.969890 1_545
Mn3 O7 1.970540 1_555
Mn3 O3 1.972349 1_655
Mn3 O3 1.972987 1_555
Mn3 O5 2.241472 1_555
F0 Li4 1.959921 1_555
F0 Li4 1.960036 1_655
F0 Li6 2.023533 1_545
F0 Li6 2.023654 1_555
F0 Mn1 2.361411 1_555
F1 Li5 1.959926 1_555
F1 Li5 1.960015 1_455
F1 Li7 2.023651 1_545
F1 Li7 2.023742 1_555
F1 Mn3 2.356456 1_555
F2 Li6 1.959774 1_455
F2 Li6 1.959901 1_555
F2 Li4 2.024272 1_565
F2 Li4 2.024410 1_555
F2 Mn0 2.350514 1_565
F3 Li7 1.959818 1_445
F3 Li7 1.959836 1_545
F3 Li5 2.024368 1_455
F3 Li5 2.024551 1_445
F3 Mn2 2.354486 1_556
