# generated using pymatgen
data_CrHSe3O8
_symmetry_space_group_name_H-M   'P 1'
_cell_length_a   12.16198700
_cell_length_b   7.63475600
_cell_length_c   10.76091924
_cell_angle_alpha   48.89588716
_cell_angle_beta   90.00000000
_cell_angle_gamma   90.00000000
_symmetry_Int_Tables_number   1
_chemical_formula_structural   CrHSe3O8
_chemical_formula_sum   'Cr4 H4 Se12 O32'
_cell_volume   752.90757046
_cell_formula_units_Z   4
loop_
 _symmetry_equiv_pos_site_id
 _symmetry_equiv_pos_as_xyz
  1  'x, y, z'
loop_
 _atom_site_type_symbol
 _atom_site_label
 _atom_site_symmetry_multiplicity
 _atom_site_fract_x
 _atom_site_fract_y
 _atom_site_fract_z
 _atom_site_occupancy
  Cr  Cr0  1  0.32529800  0.75603400  0.62444700  1
  Cr  Cr1  1  0.82529800  0.24396600  0.87555300  1
  Cr  Cr2  1  0.17470200  0.75603400  0.12444700  1
  Cr  Cr3  1  0.67470200  0.24396600  0.37555300  1
  H  H0  1  0.81907300  0.30921300  0.15299600  1
  H  H1  1  0.31907300  0.69078700  0.34700400  1
  H  H2  1  0.68092700  0.30921300  0.65299600  1
  H  H3  1  0.18092700  0.69078700  0.84700400  1
  Se  Se0  1  0.65806300  0.48460600  0.97678900  1
  Se  Se1  1  0.87397600  0.85990400  0.57961400  1
  Se  Se2  1  0.54654200  0.84315200  0.40898300  1
  Se  Se3  1  0.04654200  0.15684800  0.09101700  1
  Se  Se4  1  0.37397600  0.14009600  0.92038600  1
  Se  Se5  1  0.15806300  0.51539400  0.52321100  1
  Se  Se6  1  0.84193700  0.48460600  0.47678900  1
  Se  Se7  1  0.62602400  0.85990400  0.07961400  1
  Se  Se8  1  0.95345800  0.84315200  0.90898300  1
  Se  Se9  1  0.45345800  0.15684800  0.59101700  1
  Se  Se10  1  0.12602400  0.14009600  0.42038600  1
  Se  Se11  1  0.34193700  0.51539400  0.02321100  1
  O  O0  1  0.26259800  0.28545900  0.12381000  1
  O  O1  1  0.74072700  0.28093400  0.18522700  1
  O  O2  1  0.04270600  0.09762600  0.28407000  1
  O  O3  1  0.40914100  0.77305200  0.45337500  1
  O  O4  1  0.54585500  0.12445600  0.33232700  1
  O  O5  1  0.73651100  0.91390300  0.54964600  1
  O  O6  1  0.38769900  0.42940100  0.80370300  1
  O  O7  1  0.18549700  0.65573900  0.59524900  1
  O  O8  1  0.68549700  0.34426100  0.90475100  1
  O  O9  1  0.88769900  0.57059900  0.69629700  1
  O  O10  1  0.23651100  0.08609700  0.95035400  1
  O  O11  1  0.04585500  0.87554400  0.16767300  1
  O  O12  1  0.90914100  0.22694800  0.04662500  1
  O  O13  1  0.54270600  0.90237400  0.21593000  1
  O  O14  1  0.24072700  0.71906600  0.31477300  1
  O  O15  1  0.76259800  0.71454100  0.37619000  1
  O  O16  1  0.23740200  0.28545900  0.62381000  1
  O  O17  1  0.75927300  0.28093400  0.68522700  1
  O  O18  1  0.45729400  0.09762600  0.78407000  1
  O  O19  1  0.09085900  0.77305200  0.95337500  1
  O  O20  1  0.95414500  0.12445600  0.83232700  1
  O  O21  1  0.76348900  0.91390300  0.04964600  1
  O  O22  1  0.11230100  0.42940100  0.30370300  1
  O  O23  1  0.31450300  0.65573900  0.09524900  1
  O  O24  1  0.81450300  0.34426100  0.40475100  1
  O  O25  1  0.61230100  0.57059900  0.19629700  1
  O  O26  1  0.26348900  0.08609700  0.45035400  1
  O  O27  1  0.45414500  0.87554400  0.66767300  1
  O  O28  1  0.59085900  0.22694800  0.54662500  1
  O  O29  1  0.95729400  0.90237400  0.71593000  1
  O  O30  1  0.25927300  0.71906600  0.81477300  1
  O  O31  1  0.73740200  0.71454100  0.87619000  1
loop_
_geom_bond_atom_site_label_1
_geom_bond_atom_site_label_2
_geom_bond_distance
_geom_bond_site_symmetry_2
Cr0 O7 1.972886 1_555
Cr0 O27 2.015575 1_555
Cr0 O3 2.032500 1_555
Cr0 O30 2.039374 1_555
Cr0 O6 2.047131 1_555
Cr0 O26 2.053674 1_565
Cr1 O8 1.972886 1_555
Cr1 O20 2.015575 1_555
Cr1 O12 2.032500 1_556
Cr1 O17 2.039374 1_555
Cr1 O9 2.047131 1_555
Cr1 O21 2.053674 1_546
Cr2 O23 1.972886 1_555
Cr2 O11 2.015575 1_555
Cr2 O19 2.032500 1_554
Cr2 O14 2.039374 1_555
Cr2 O22 2.047131 1_555
Cr2 O10 2.053674 1_564
Cr3 O24 1.972886 1_555
Cr3 O4 2.015575 1_555
Cr3 O28 2.032500 1_555
Cr3 O1 2.039374 1_555
Cr3 O25 2.047131 1_555
Cr3 O5 2.053674 1_545
H0 O1 0.988108 1_555
H1 O14 0.988108 1_555
H2 O17 0.988108 1_555
H3 O30 0.988108 1_555
O0 Se11 1.638897 1_555
O1 Se0 1.968179 1_554
O2 Se3 1.813084 1_555
O2 Se10 1.977140 1_555
O3 Se2 1.723642 1_555
O4 Se2 1.721530 1_545
O5 Se1 1.701242 1_555
O6 Se4 1.684196 1_555
O7 Se5 1.718288 1_555
O8 Se0 1.718288 1_555
O9 Se1 1.684196 1_555
O10 Se4 1.701242 1_555
O11 Se3 1.721530 1_565
O12 Se3 1.723642 1_655
O13 Se2 1.813084 1_555
O13 Se7 1.977140 1_555
O14 Se5 1.968179 1_555
O15 Se6 1.638897 1_555
O16 Se5 1.638897 1_555
O17 Se6 1.968179 1_555
O18 Se9 1.813084 1_555
O18 Se4 1.977140 1_555
O19 Se8 1.723642 1_455
O20 Se8 1.721530 1_545
O21 Se7 1.701242 1_555
O22 Se10 1.684196 1_555
O23 Se11 1.718288 1_555
O24 Se6 1.718288 1_555
O25 Se7 1.684196 1_555
O26 Se10 1.701242 1_555
O27 Se9 1.721530 1_565
O28 Se9 1.723642 1_555
O29 Se8 1.813084 1_555
O29 Se1 1.977140 1_555
O30 Se11 1.968179 1_556
O31 Se0 1.638897 1_555
