# generated using pymatgen
data_Fe2P3C8N3(ClO2)4
_symmetry_space_group_name_H-M   'P 1'
_cell_length_a   16.97499700
_cell_length_b   8.24762600
_cell_length_c   15.72523199
_cell_angle_alpha   82.51549591
_cell_angle_beta   90.00000000
_cell_angle_gamma   90.00000000
_symmetry_Int_Tables_number   1
_chemical_formula_structural   Fe2P3C8N3(ClO2)4
_chemical_formula_sum   'Fe8 P12 C32 N12 Cl16 O32'
_cell_volume   2182.82912511
_cell_formula_units_Z   4
loop_
 _symmetry_equiv_pos_site_id
 _symmetry_equiv_pos_as_xyz
  1  'x, y, z'
loop_
 _atom_site_type_symbol
 _atom_site_label
 _atom_site_symmetry_multiplicity
 _atom_site_fract_x
 _atom_site_fract_y
 _atom_site_fract_z
 _atom_site_occupancy
  Fe  Fe0  1  0.49804400  0.89968900  0.89894200  1
  Fe  Fe1  1  0.49043800  0.36175600  0.25509800  1
  Fe  Fe2  1  0.41608200  0.68987700  0.80311700  1
  Fe  Fe3  1  0.91608200  0.31012300  0.19688300  1
  Fe  Fe4  1  0.99043800  0.63824400  0.74490200  1
  Fe  Fe5  1  0.90132600  0.60404800  0.59772400  1
  Fe  Fe6  1  0.40132600  0.39595200  0.40227600  1
  Fe  Fe7  1  0.99804400  0.10031100  0.10105800  1
  P  P0  1  0.73447800  0.95269200  0.08354100  1
  P  P1  1  0.63799000  0.64673300  0.44677500  1
  P  P2  1  0.03397000  0.58043400  0.61580500  1
  P  P3  1  0.23447800  0.04730800  0.91645900  1
  P  P4  1  0.15700200  0.68354300  0.49908400  1
  P  P5  1  0.25838500  0.78576100  0.04160400  1
  P  P6  1  0.86682100  0.15993500  0.09690700  1
  P  P7  1  0.75838500  0.21423900  0.95839600  1
  P  P8  1  0.65700200  0.31645700  0.50091600  1
  P  P9  1  0.13799000  0.35326700  0.55322500  1
  P  P10  1  0.36682100  0.84006500  0.90309300  1
  P  P11  1  0.53397000  0.41956600  0.38419500  1
  C  C0  1  0.48193600  0.57948700  0.22153300  1
  C  C1  1  0.30503200  0.35705900  0.35657400  1
  C  C2  1  0.98193600  0.42051300  0.77846700  1
  C  C3  1  0.49903000  0.02166700  0.98417700  1
  C  C4  1  0.41288600  0.18047800  0.44187000  1
  C  C5  1  0.51936700  0.72242600  0.97541900  1
  C  C6  1  0.89668400  0.56405200  0.48975200  1
  C  C7  1  0.80503200  0.64294100  0.64342600  1
  C  C8  1  0.47721600  0.08200800  0.82466500  1
  C  C9  1  0.40179400  0.86268300  0.72068200  1
  C  C10  1  0.39668400  0.43594800  0.51024800  1
  C  C11  1  0.09603500  0.11744000  0.14701000  1
  C  C12  1  0.07974500  0.64024200  0.80368700  1
  C  C13  1  0.57974500  0.35975800  0.19631300  1
  C  C14  1  0.01936700  0.27757400  0.02458100  1
  C  C15  1  0.88848700  0.38625300  0.62956100  1
  C  C16  1  0.97721600  0.91799200  0.17533500  1
  C  C17  1  0.50248500  0.61769000  0.74991100  1
  C  C18  1  0.33007100  0.59967000  0.76436600  1
  C  C19  1  0.92498600  0.48351500  0.11406100  1
  C  C20  1  0.00248500  0.38231000  0.25008900  1
  C  C21  1  0.50462400  0.14625900  0.29250400  1
  C  C22  1  0.90179400  0.13731700  0.27931800  1
  C  C23  1  0.83007100  0.40033000  0.23563400  1
  C  C24  1  0.90771600  0.67960000  0.81333500  1
  C  C25  1  0.59603500  0.88256000  0.85299000  1
  C  C26  1  0.91288600  0.81952200  0.55813000  1
  C  C27  1  0.42498600  0.51648500  0.88593900  1
  C  C28  1  0.00462400  0.85374100  0.70749600  1
  C  C29  1  0.38848700  0.61374700  0.37043900  1
  C  C30  1  0.99903000  0.97833300  0.01582300  1
  C  C31  1  0.40771600  0.32040000  0.18666500  1
  N  N0  1  0.83404100  0.26479300  0.00782000  1
  N  N1  1  0.70385200  0.06631800  0.99966700  1
  N  N2  1  0.20385200  0.93368200  0.00033300  1
  N  N3  1  0.08598600  0.72290900  0.55821300  1
  N  N4  1  0.81057200  0.00365800  0.13178500  1
  N  N5  1  0.68366600  0.50146600  0.50417900  1
  N  N6  1  0.18366600  0.49853400  0.49582100  1
  N  N7  1  0.33404100  0.73520700  0.99218000  1
  N  N8  1  0.31057200  0.99634200  0.86821500  1
  N  N9  1  0.58598600  0.27709100  0.44178700  1
  N  N10  1  0.06975200  0.39577200  0.61525400  1
  N  N11  1  0.56975200  0.60422800  0.38474600  1
  Cl  Cl0  1  0.24760000  0.27738800  0.94736400  1
  Cl  Cl1  1  0.29048600  0.82877300  0.16121400  1
  Cl  Cl2  1  0.18628300  0.59029100  0.07031500  1
  Cl  Cl3  1  0.79048600  0.17122700  0.83878600  1
  Cl  Cl4  1  0.68628300  0.40970900  0.92968500  1
  Cl  Cl5  1  0.64401800  0.91788000  0.16710000  1
  Cl  Cl6  1  0.09641400  0.19448700  0.47530200  1
  Cl  Cl7  1  0.74760000  0.72261200  0.05263600  1
  Cl  Cl8  1  0.75376600  0.18853300  0.47309200  1
  Cl  Cl9  1  0.59641400  0.80551300  0.52469800  1
  Cl  Cl10  1  0.14401800  0.08212000  0.83290000  1
  Cl  Cl11  1  0.13659400  0.78703100  0.37592100  1
  Cl  Cl12  1  0.22092200  0.21233600  0.61939500  1
  Cl  Cl13  1  0.72092200  0.78766400  0.38060500  1
  Cl  Cl14  1  0.63659400  0.21296900  0.62407900  1
  Cl  Cl15  1  0.25376600  0.81146700  0.52690800  1
  O  O0  1  0.53754600  0.61547600  0.02678700  1
  O  O1  1  0.99920700  0.90102300  0.95938600  1
  O  O2  1  0.13817400  0.64218700  0.84170800  1
  O  O3  1  0.63817400  0.35781300  0.15829200  1
  O  O4  1  0.41719200  0.04560100  0.47236500  1
  O  O5  1  0.88979800  0.03364800  0.33479100  1
  O  O6  1  0.37586100  0.75215800  0.35513400  1
  O  O7  1  0.89550000  0.53543300  0.41944300  1
  O  O8  1  0.46734700  0.20492400  0.78139100  1
  O  O9  1  0.55767100  0.56901300  0.71831800  1
  O  O10  1  0.03754600  0.38452400  0.97321300  1
  O  O11  1  0.47860600  0.71724300  0.19603500  1
  O  O12  1  0.91719200  0.95439900  0.52763500  1
  O  O13  1  0.77463800  0.45814700  0.26240800  1
  O  O14  1  0.96734700  0.79507600  0.21860900  1
  O  O15  1  0.87586100  0.24784200  0.64486600  1
  O  O16  1  0.65742900  0.86801100  0.82318300  1
  O  O17  1  0.97860600  0.28275700  0.80396500  1
  O  O18  1  0.49920700  0.09897700  0.04061400  1
  O  O19  1  0.38979800  0.96635200  0.66520900  1
  O  O20  1  0.05767100  0.43098700  0.28168200  1
  O  O21  1  0.35537600  0.29431800  0.14331600  1
  O  O22  1  0.85537600  0.70568200  0.85668400  1
  O  O23  1  0.51714100  0.00901900  0.31296700  1
  O  O24  1  0.39550000  0.46456700  0.58055700  1
  O  O25  1  0.74513400  0.66866600  0.67383900  1
  O  O26  1  0.01714100  0.99098100  0.68703300  1
  O  O27  1  0.42989800  0.39897200  0.93453500  1
  O  O28  1  0.27463800  0.54185300  0.73759200  1
  O  O29  1  0.24513400  0.33133400  0.32616100  1
  O  O30  1  0.92989800  0.60102800  0.06546500  1
  O  O31  1  0.15742900  0.13198900  0.17681700  1
loop_
_geom_bond_atom_site_label_1
_geom_bond_atom_site_label_2
_geom_bond_distance
_geom_bond_site_symmetry_2
Fe0 P10 2.280246 1_555
Fe1 P11 2.268651 1_555
Fe2 P10 2.283107 1_555
Fe3 P6 2.283107 1_555
Fe4 P2 2.268651 1_655
Fe5 P2 2.274685 1_655
Fe6 P11 2.274685 1_555
Fe7 P6 2.280246 1_555
C0 O11 1.155918 1_555
C0 Fe1 1.810321 1_555
C1 O29 1.154986 1_555
C1 Fe6 1.830665 1_555
C2 O17 1.155918 1_555
C2 Fe4 1.810321 1_555
C3 O18 1.158285 1_556
C3 Fe0 1.777687 1_545
C4 O4 1.154902 1_555
C4 Fe6 1.815535 1_555
C5 O0 1.157658 1_556
C5 Fe0 1.804633 1_555
C6 O7 1.160393 1_555
C6 Fe5 1.773062 1_555
C7 O25 1.154986 1_555
C7 Fe5 1.830665 1_555
C8 O8 1.157211 1_555
C8 Fe0 1.814616 1_545
C9 O19 1.157227 1_555
C9 Fe2 1.813624 1_555
C10 O24 1.160393 1_555
C10 Fe6 1.773062 1_555
C11 O31 1.155359 1_555
C11 Fe7 1.826363 1_455
C12 O2 1.159292 1_555
C12 Fe4 1.776790 1_455
C13 O3 1.159292 1_555
C13 Fe1 1.776790 1_555
C14 O10 1.157658 1_554
C14 Fe7 1.804633 1_455
C15 O15 1.155616 1_555
C15 Fe5 1.813980 1_555
C16 O14 1.157211 1_555
C16 Fe7 1.814616 1_565
C17 O9 1.156511 1_555
C17 Fe2 1.826321 1_555
C18 O28 1.158616 1_555
C18 Fe2 1.781761 1_555
C19 O30 1.156431 1_555
C19 Fe3 1.810792 1_555
C20 O20 1.156511 1_555
C20 Fe3 1.826321 1_455
C21 O23 1.155427 1_555
C21 Fe1 1.813990 1_555
C22 O5 1.157227 1_555
C22 Fe3 1.813624 1_555
C23 O13 1.158616 1_555
C23 Fe3 1.781761 1_555
C24 O22 1.156951 1_555
C24 Fe4 1.828060 1_555
C25 O16 1.155359 1_555
C25 Fe0 1.826363 1_555
C26 O12 1.154902 1_555
C26 Fe5 1.815535 1_555
C27 O27 1.156431 1_555
C27 Fe2 1.810792 1_555
C28 O26 1.155427 1_555
C28 Fe4 1.813990 1_455
C29 O6 1.155616 1_555
C29 Fe6 1.813980 1_555
C30 O1 1.158285 1_554
C30 Fe7 1.777687 1_565
C31 O21 1.156951 1_555
C31 Fe1 1.828060 1_555
N0 P7 1.584815 1_554
N0 P6 1.644532 1_555
N1 P7 1.600073 1_555
N1 P0 1.601906 1_546
N2 P5 1.600073 1_555
N2 P3 1.601906 1_564
N3 P4 1.581722 1_555
N3 P2 1.644204 1_555
N4 P0 1.582338 1_545
N4 P6 1.640013 1_555
N5 P8 1.598819 1_555
N5 P1 1.603037 1_555
N6 P4 1.598819 1_555
N6 P9 1.603037 1_555
N7 P5 1.584815 1_556
N7 P10 1.644532 1_555
N8 P3 1.582338 1_565
N8 P10 1.640013 1_555
N9 P8 1.581722 1_555
N9 P11 1.644204 1_555
N10 P9 1.582775 1_555
N10 P2 1.640746 1_555
N11 P1 1.582775 1_555
N11 P11 1.640746 1_555
Cl0 P3 2.031500 1_555
Cl1 P5 2.033315 1_555
Cl2 P5 2.027633 1_555
Cl3 P7 2.033315 1_555
Cl4 P7 2.027633 1_555
Cl5 P0 2.017089 1_555
Cl6 P9 2.032873 1_555
Cl7 P0 2.031500 1_555
Cl8 P8 2.030494 1_555
Cl9 P1 2.032873 1_555
Cl10 P3 2.017089 1_555
Cl11 P4 2.041797 1_555
Cl12 P9 2.024970 1_555
Cl13 P1 2.024970 1_555
Cl14 P8 2.041797 1_555
Cl15 P4 2.030494 1_555
