# generated using pymatgen
data_Li3V8O11
_symmetry_space_group_name_H-M   'P 1'
_cell_length_a   10.87877344
_cell_length_b   4.14439609
_cell_length_c   5.02559578
_cell_angle_alpha   65.84274916
_cell_angle_beta   84.57962573
_cell_angle_gamma   101.30653028
_symmetry_Int_Tables_number   1
_chemical_formula_structural   Li3V8O11
_chemical_formula_sum   'Li3 V8 O11'
_cell_volume   198.82648192
_cell_formula_units_Z   1
loop_
 _symmetry_equiv_pos_site_id
 _symmetry_equiv_pos_as_xyz
  1  'x, y, z'
loop_
 _atom_site_type_symbol
 _atom_site_label
 _atom_site_symmetry_multiplicity
 _atom_site_fract_x
 _atom_site_fract_y
 _atom_site_fract_z
 _atom_site_occupancy
  Li  Li0  1  0.09552800  0.36114500  0.36915100  1
  Li  Li1  1  0.36088700  0.45318500  0.44968700  1
  Li  Li2  1  0.73006300  0.90795200  0.91114100  1
  V  V0  1  0.99094300  0.98162800  0.01202300  1
  V  V1  1  0.18627500  0.73677400  0.70847200  1
  V  V2  1  0.27289000  0.07991600  0.11234700  1
  V  V3  1  0.46708200  0.81941000  0.82381200  1
  V  V4  1  0.62285500  0.52181400  0.58357100  1
  V  V5  1  0.54420200  0.19629900  0.14008700  1
  V  V6  1  0.91360900  0.63441100  0.64051000  1
  V  V7  1  0.82944800  0.29258300  0.25687800  1
  O  O0  1  0.09365600  0.86588200  0.35722600  1
  O  O1  1  0.17900500  0.21117800  0.75183300  1
  O  O2  1  0.01220200  0.49910000  0.00105000  1
  O  O3  1  0.43979500  0.31212800  0.80674900  1
  O  O4  1  0.36999500  0.95243300  0.45744200  1
  O  O5  1  0.27809500  0.60284900  0.07038300  1
  O  O6  1  0.64285200  0.06209800  0.52083700  1
  O  O7  1  0.72826500  0.40711400  0.91010500  1
  O  O8  1  0.55023700  0.67313500  0.19410200  1
  O  O9  1  0.91054800  0.13622200  0.63317900  1
  O  O10  1  0.80889200  0.76326600  0.28994700  1
loop_
_geom_bond_atom_site_label_1
_geom_bond_atom_site_label_2
_geom_bond_distance
_geom_bond_site_symmetry_2
Li0 O2 2.055523 1_555
Li0 O0 2.072218 1_555
Li0 O0 2.074019 1_545
Li0 O9 2.103991 1_455
Li0 O1 2.117223 1_555
Li0 O5 2.151266 1_555
Li1 O3 1.981886 1_555
Li1 O4 2.068521 1_555
Li1 O4 2.081688 1_545
Li1 O5 2.098887 1_555
Li1 O8 2.128257 1_555
Li1 O1 2.152772 1_555
Li2 O7 2.070532 1_565
Li2 O10 2.072410 1_556
Li2 O7 2.074070 1_555
Li2 O9 2.091253 1_565
Li2 O8 2.095603 1_556
Li2 O6 2.172412 1_565
O0 V2 2.019463 1_565
O0 V1 2.047406 1_555
O0 V0 2.093715 1_455
O0 V6 2.098128 1_455
O1 V1 2.080326 1_545
O1 V1 2.083101 1_555
O1 V2 2.093434 1_556
O1 V0 2.124559 1_446
O2 V1 2.067715 1_554
O2 V7 2.070609 1_455
O2 V0 2.079635 1_455
O2 V0 2.088584 1_445
O2 V6 2.125869 1_454
O3 V4 2.020091 1_555
O3 V2 2.039599 1_556
O3 V5 2.059603 1_556
O3 V3 2.089136 1_545
O3 V3 2.103121 1_555
O4 V2 2.053755 1_565
O4 V1 2.070094 1_555
O4 V5 2.124937 1_565
O4 V3 2.138804 1_555
O5 V2 2.078496 1_555
O5 V2 2.083207 1_565
O5 V1 2.085260 1_554
O5 V3 2.110172 1_554
O6 V4 2.092546 1_545
O6 V4 2.101878 1_555
O6 V3 2.104454 1_545
O6 V7 2.118163 1_555
O6 V5 2.207597 1_555
O7 V5 2.039359 1_556
O7 V4 2.040764 1_555
O7 V7 2.089096 1_556
O7 V6 2.117325 1_555
O8 V3 2.063643 1_554
O8 V4 2.080907 1_555
O8 V5 2.087231 1_565
O8 V5 2.091633 1_555
O9 V6 2.071788 1_545
O9 V6 2.073874 1_555
O9 V7 2.076314 1_555
O9 V0 2.082358 1_546
O10 V7 2.076588 1_555
O10 V7 2.095750 1_565
O10 V0 2.105285 1_555
O10 V6 2.129436 1_555
O10 V4 2.169769 1_555
