# generated using pymatgen
data_Li4CrP2(O4F)2
_symmetry_space_group_name_H-M   'P 1'
_cell_length_a   6.47076600
_cell_length_b   10.01715550
_cell_length_c   10.06442118
_cell_angle_alpha   60.24158481
_cell_angle_beta   89.90335153
_cell_angle_gamma   89.85182931
_symmetry_Int_Tables_number   1
_chemical_formula_structural   Li4CrP2(O4F)2
_chemical_formula_sum   'Li12 Cr3 P6 O24 F6'
_cell_volume   566.33074570
_cell_formula_units_Z   3
loop_
 _symmetry_equiv_pos_site_id
 _symmetry_equiv_pos_as_xyz
  1  'x, y, z'
loop_
 _atom_site_type_symbol
 _atom_site_label
 _atom_site_symmetry_multiplicity
 _atom_site_fract_x
 _atom_site_fract_y
 _atom_site_fract_z
 _atom_site_occupancy
  Li  Li0  1  0.57227000  0.99985800  0.00099500  1
  Li  Li1  1  0.73830500  0.13993100  0.18160800  1
  Li  Li2  1  0.73638000  0.67669300  0.14375900  1
  Li  Li3  1  0.07048300  0.32879200  0.34106100  1
  Li  Li4  1  0.50507000  0.32737700  0.34238800  1
  Li  Li5  1  0.48376000  0.83191400  0.34016900  1
  Li  Li6  1  0.73546300  0.18125900  0.67201300  1
  Li  Li7  1  0.49271500  0.34016500  0.82181200  1
  Li  Li8  1  0.44393100  0.66978800  0.66177200  1
  Li  Li9  1  0.05220400  0.66908700  0.66068600  1
  Li  Li10  1  0.26149600  0.47799300  0.99798700  1
  Li  Li11  1  0.49429200  0.83445200  0.83037100  1
  Cr  Cr0  1  0.99936600  0.83219900  0.33329900  1
  Cr  Cr1  1  0.99435600  0.33172100  0.83031400  1
  Cr  Cr2  1  0.99696800  0.83506500  0.83372700  1
  P  P0  1  0.25207100  0.14506400  0.15277700  1
  P  P1  1  0.25123900  0.70374500  0.13964400  1
  P  P2  1  0.73110500  0.53268800  0.50843900  1
  P  P3  1  0.25553900  0.15362900  0.69824200  1
  P  P4  1  0.73309100  0.95777500  0.53352300  1
  P  P5  1  0.73103500  0.50807900  0.96335400  1
  O  O0  1  0.45062800  0.05645900  0.16336700  1
  O  O1  1  0.05856900  0.03967600  0.18992600  1
  O  O2  1  0.73722000  0.38736300  0.13278600  1
  O  O3  1  0.25572900  0.23411900  0.23879100  1
  O  O4  1  0.05468900  0.77708600  0.03754400  1
  O  O5  1  0.44956300  0.78500100  0.05405600  1
  O  O6  1  0.25398600  0.53050000  0.19902800  1
  O  O7  1  0.73738100  0.12766600  0.48707400  1
  O  O8  1  0.73732600  0.48096100  0.38965400  1
  O  O9  1  0.21690500  0.74768500  0.26819400  1
  O  O10  1  0.25763400  0.24847400  0.52544500  1
  O  O11  1  0.92122700  0.64032200  0.49156600  1
  O  O12  1  0.53837400  0.62016700  0.50827000  1
  O  O13  1  0.77072100  0.93414000  0.39231100  1
  O  O14  1  0.45190600  0.16374400  0.77812800  1
  O  O15  1  0.05838700  0.19243100  0.76526500  1
  O  O16  1  0.76571600  0.39323800  0.67536900  1
  O  O17  1  0.54146400  0.86987400  0.62114400  1
  O  O18  1  0.92270400  0.86563200  0.64221100  1
  O  O19  1  0.21643100  0.26865800  0.97743100  1
  O  O20  1  0.92099200  0.48877700  0.87429500  1
  O  O21  1  0.53112000  0.50508700  0.88237500  1
  O  O22  1  0.21978800  0.97725200  0.75651700  1
  O  O23  1  0.76563700  0.67493100  0.93587300  1
  F  F0  1  0.77488000  0.83088600  0.20502900  1
  F  F1  1  0.20936800  0.82382800  0.47276100  1
  F  F2  1  0.20492400  0.47536200  0.70473400  1
  F  F3  1  0.77382300  0.20239800  0.96314600  1
  F  F4  1  0.20730800  0.69373700  0.83333900  1
  F  F5  1  0.77485600  0.96689100  0.82950700  1
loop_
_geom_bond_atom_site_label_1
_geom_bond_atom_site_label_2
_geom_bond_distance
_geom_bond_site_symmetry_2
Li0 O5 2.101021 1_555
Li0 O0 2.127132 1_565
Li0 O14 2.162580 1_564
Li1 O0 2.087962 1_555
Li1 O13 2.109556 1_545
Li1 O2 2.275021 1_555
Li1 O1 2.283983 1_655
Li2 O23 2.109260 1_554
Li2 O5 2.111758 1_555
Li2 O8 2.269821 1_555
Li2 O4 2.309236 1_655
Li3 O10 2.019400 1_555
Li3 O3 2.086769 1_555
Li3 O6 2.162269 1_555
Li4 O10 2.265744 1_555
Li4 O7 2.341431 1_555
Li4 O3 2.354424 1_555
Li4 O8 2.364891 1_555
Li4 O2 2.409021 1_555
Li4 O6 2.436806 1_555
Li5 O12 1.980429 1_555
Li5 O0 2.072981 1_565
Li5 O9 2.199270 1_555
Li5 O13 2.306185 1_555
Li6 O14 2.084953 1_555
Li6 O16 2.149831 1_555
Li6 O7 2.178218 1_555
Li6 O15 2.317700 1_655
Li7 O14 2.039669 1_555
Li7 O21 2.040784 1_555
Li7 O16 2.189467 1_555
Li7 O19 2.246271 1_555
Li8 O12 1.940315 1_555
Li8 O17 1.942886 1_555
Li8 O21 2.081560 1_555
Li9 O11 2.047300 1_455
Li9 O18 2.059515 1_455
Li9 O20 2.179951 1_455
Li10 O21 2.038026 1_555
Li10 O19 2.226885 1_555
Li10 O6 2.330017 1_556
Li10 O3 2.442495 1_556
Li10 O20 2.508101 1_455
Li11 O17 1.977354 1_555
Li11 O5 2.070951 1_556
Li11 O22 2.165545 1_555
Li11 O23 2.251936 1_555
Cr0 O11 1.857499 1_555
Cr0 O1 1.890393 1_665
Cr0 O9 1.915441 1_655
Cr0 F1 1.926832 1_655
Cr0 F0 1.949378 1_555
Cr0 O13 2.043460 1_555
Cr1 O15 1.857416 1_655
Cr1 O20 1.892921 1_555
Cr1 F2 1.929593 1_655
Cr1 O19 1.931402 1_655
Cr1 F3 1.945698 1_555
Cr1 O16 2.012348 1_555
Cr2 O18 1.859144 1_555
Cr2 O4 1.871752 1_656
Cr2 O22 1.902492 1_655
Cr2 F5 1.935443 1_555
Cr2 F4 1.962709 1_655
Cr2 O23 2.059334 1_555
O0 P0 1.533150 1_555
O1 P0 1.560601 1_555
O2 P5 1.524697 1_554
O3 P0 1.520708 1_555
O4 P1 1.569513 1_555
O5 P1 1.535274 1_555
O6 P1 1.529532 1_555
O7 P4 1.525111 1_545
O8 P2 1.521181 1_555
O9 P1 1.575052 1_555
O10 P3 1.512314 1_555
O11 P2 1.590347 1_555
O12 P2 1.521862 1_555
O13 P4 1.570909 1_555
O14 P3 1.534996 1_555
O15 P3 1.577456 1_555
O16 P2 1.579242 1_555
O17 P4 1.523700 1_555
O18 P4 1.596966 1_555
O19 P0 1.591018 1_556
O20 P5 1.587051 1_555
O21 P5 1.538359 1_555
O22 P3 1.578630 1_565
O23 P5 1.569389 1_555
F0 Li2 1.943201 1_555
F0 Li0 2.312540 1_555
F0 Li5 2.324595 1_555
F1 Li9 2.026212 1_555
F1 Li5 2.196655 1_555
F1 Li8 2.321030 1_555
F2 Li9 2.019031 1_555
F2 Li7 2.258467 1_555
F2 Li8 2.355694 1_555
F3 Li1 1.977855 1_556
F3 Li0 2.281926 1_546
F3 Li7 2.298613 1_555
F4 Li10 1.995606 1_555
F4 Li9 2.126217 1_555
F4 Li11 2.325465 1_555
F4 Li8 2.404970 1_555
F5 Li6 1.951484 1_565
F5 Li11 2.248771 1_555
F5 Li0 2.315648 1_556
