# generated using pymatgen
data_FeOF
_symmetry_space_group_name_H-M   'P 1'
_cell_length_a   3.10301300
_cell_length_b   14.22311600
_cell_length_c   14.26320692
_cell_angle_alpha   89.76801167
_cell_angle_beta   90.00000000
_cell_angle_gamma   90.00000000
_symmetry_Int_Tables_number   1
_chemical_formula_structural   FeOF
_chemical_formula_sum   'Fe18 O18 F18'
_cell_volume   629.49454313
_cell_formula_units_Z   18
loop_
 _symmetry_equiv_pos_site_id
 _symmetry_equiv_pos_as_xyz
  1  'x, y, z'
loop_
 _atom_site_type_symbol
 _atom_site_label
 _atom_site_symmetry_multiplicity
 _atom_site_fract_x
 _atom_site_fract_y
 _atom_site_fract_z
 _atom_site_occupancy
  Fe  Fe0  1  0.00000000  0.98784700  0.99605700  1
  Fe  Fe1  1  0.00000000  0.99207000  0.32661400  1
  Fe  Fe2  1  0.00000000  0.99392100  0.67015100  1
  Fe  Fe3  1  0.50000000  0.84575700  0.16348000  1
  Fe  Fe4  1  0.50000000  0.83380800  0.52059200  1
  Fe  Fe5  1  0.50000000  0.84675700  0.82983800  1
  Fe  Fe6  1  0.00000000  0.65469500  0.99592100  1
  Fe  Fe7  1  0.00000000  0.65657100  0.33453500  1
  Fe  Fe8  1  0.00000000  0.66342000  0.65570600  1
  Fe  Fe9  1  0.50000000  0.51295300  0.49999900  1
  Fe  Fe10  1  0.50000000  0.51748600  0.16772000  1
  Fe  Fe11  1  0.50000000  0.49565100  0.84731900  1
  Fe  Fe12  1  0.00000000  0.33261600  0.99787800  1
  Fe  Fe13  1  0.00000000  0.32011800  0.33125300  1
  Fe  Fe14  1  0.00000000  0.31969900  0.66636900  1
  Fe  Fe15  1  0.50000000  0.18360700  0.15997500  1
  Fe  Fe16  1  0.50000000  0.18011700  0.49960800  1
  Fe  Fe17  1  0.50000000  0.16182000  0.81350100  1
  O  O0  1  0.50000000  0.93497400  0.27031200  1
  O  O1  1  0.50000000  0.93763700  0.60045100  1
  O  O2  1  0.50000000  0.93594800  0.93552600  1
  O  O3  1  0.00000000  0.89931100  0.10276300  1
  O  O4  1  0.00000000  0.89358600  0.76800800  1
  O  O5  1  0.00000000  0.76653100  0.56741200  1
  O  O6  1  0.50000000  0.60427400  0.27056300  1
  O  O7  1  0.50000000  0.59716800  0.60702100  1
  O  O8  1  0.50000000  0.60232400  0.93273200  1
  O  O9  1  0.00000000  0.56527800  0.10135500  1
  O  O10  1  0.00000000  0.56592500  0.43689200  1
  O  O11  1  0.00000000  0.42924300  0.90225600  1
  O  O12  1  0.50000000  0.26880200  0.26579000  1
  O  O13  1  0.50000000  0.26877700  0.60284300  1
  O  O14  1  0.00000000  0.23600000  0.09536800  1
  O  O15  1  0.00000000  0.23118000  0.43385600  1
  O  O16  1  0.00000000  0.23425300  0.77188700  1
  O  O17  1  0.50000000  0.06262200  0.72928400  1
  F  F0  1  0.00000000  0.90061500  0.43521500  1
  F  F1  1  0.00000000  0.76852100  0.23199600  1
  F  F2  1  0.00000000  0.76747200  0.90217500  1
  F  F3  1  0.50000000  0.73196900  0.06630900  1
  F  F4  1  0.50000000  0.72614700  0.73748400  1
  F  F5  1  0.50000000  0.73689000  0.39673700  1
  F  F6  1  0.00000000  0.56178100  0.77172700  1
  F  F7  1  0.00000000  0.43567000  0.23293200  1
  F  F8  1  0.00000000  0.43311900  0.56481300  1
  F  F9  1  0.50000000  0.39794100  0.06788300  1
  F  F10  1  0.50000000  0.39873900  0.39815200  1
  F  F11  1  0.50000000  0.40298600  0.73106200  1
  F  F12  1  0.50000000  0.26554100  0.93616400  1
  F  F13  1  0.00000000  0.10317700  0.23004300  1
  F  F14  1  0.00000000  0.10256400  0.55961900  1
  F  F15  1  0.00000000  0.10283600  0.90233200  1
  F  F16  1  0.50000000  0.06772500  0.06754900  1
  F  F17  1  0.50000000  0.06356400  0.39697300  1
loop_
_geom_bond_atom_site_label_1
_geom_bond_atom_site_label_2
_geom_bond_distance
_geom_bond_site_symmetry_2
Fe0 O2 1.924220 1_455
Fe0 O2 1.924220 1_555
Fe0 O3 1.971447 1_556
Fe1 O0 1.927905 1_555
Fe1 O0 1.927905 1_455
Fe2 O4 1.992122 1_555
Fe2 O1 2.010671 1_455
Fe2 O1 2.010671 1_555
Fe2 O17 2.019906 1_465
Fe2 O17 2.019906 1_565
Fe3 O3 1.931842 1_555
Fe3 O3 1.931842 1_655
Fe3 O0 1.986892 1_555
Fe4 O1 1.868663 1_555
Fe4 O5 1.939999 1_655
Fe4 O5 1.939999 1_555
Fe5 O4 1.903623 1_555
Fe5 O4 1.903623 1_655
Fe5 O2 1.974125 1_555
Fe6 O8 1.944159 1_455
Fe6 O8 1.944159 1_555
Fe6 O9 1.965567 1_556
Fe7 O10 1.943809 1_555
Fe7 O6 1.948975 1_455
Fe7 O6 1.948975 1_555
Fe8 O5 1.929201 1_555
Fe8 O7 1.944895 1_455
Fe8 O7 1.944895 1_555
Fe9 O10 1.944101 1_655
Fe9 O10 1.944101 1_555
Fe9 O7 1.944135 1_555
Fe10 O6 1.920965 1_555
Fe10 O9 1.939080 1_655
Fe10 O9 1.939080 1_555
Fe11 O8 1.949640 1_555
Fe11 O11 1.976691 1_655
Fe11 O11 1.976691 1_555
Fe12 O11 1.932300 1_555
Fe12 O14 1.951011 1_556
Fe13 O15 1.930505 1_555
Fe13 O12 1.953772 1_455
Fe13 O12 1.953772 1_555
Fe14 O16 1.930612 1_555
Fe14 O13 1.938567 1_455
Fe14 O13 1.938567 1_555
Fe15 O12 1.939327 1_555
Fe15 O14 1.950920 1_555
Fe15 O14 1.950920 1_655
Fe16 O13 1.942513 1_555
Fe16 O15 1.951580 1_655
Fe16 O15 1.951580 1_555
Fe17 O17 1.856682 1_555
Fe17 O16 1.953428 1_555
Fe17 O16 1.953428 1_655
F0 Fe1 2.018687 1_555
F0 Fe4 2.187145 1_455
F0 Fe4 2.187145 1_555
F1 Fe3 2.135485 1_555
F1 Fe3 2.135485 1_455
F1 Fe7 2.157661 1_555
F2 Fe6 2.084098 1_555
F2 Fe5 2.175761 1_455
F2 Fe5 2.175761 1_555
F3 Fe3 2.135032 1_555
F3 Fe6 2.152211 1_654
F3 Fe6 2.152211 1_554
F4 Fe8 2.138247 1_655
F4 Fe8 2.138247 1_555
F4 Fe5 2.167084 1_555
F5 Fe7 2.123099 1_555
F5 Fe7 2.123099 1_655
F5 Fe4 2.245147 1_555
F6 Fe11 2.108583 1_555
F6 Fe11 2.108583 1_455
F6 Fe8 2.192925 1_555
F7 Fe10 2.148884 1_455
F7 Fe10 2.148884 1_555
F7 Fe13 2.156179 1_555
F8 Fe9 2.131343 1_555
F8 Fe9 2.131343 1_455
F8 Fe14 2.163710 1_555
F9 Fe12 2.067596 1_654
F9 Fe12 2.067596 1_554
F9 Fe10 2.222251 1_555
F10 Fe13 2.139334 1_555
F10 Fe13 2.139334 1_655
F10 Fe9 2.183638 1_555
F11 Fe11 2.122358 1_555
F11 Fe14 2.161188 1_555
F11 Fe14 2.161188 1_655
F12 Fe12 2.024584 1_555
F12 Fe12 2.024584 1_655
F12 Fe17 2.293078 1_555
F13 Fe1 2.092115 1_545
F13 Fe15 2.169184 1_555
F13 Fe15 2.169184 1_455
F14 Fe16 2.085398 1_455
F14 Fe16 2.085398 1_555
F14 Fe2 2.203072 1_545
F15 Fe0 2.108138 1_545
F15 Fe17 2.169725 1_555
F15 Fe17 2.169725 1_455
F16 Fe15 2.114725 1_555
F16 Fe0 2.178786 1_644
F16 Fe0 2.178786 1_544
F17 Fe1 2.111056 1_645
F17 Fe1 2.111056 1_545
F17 Fe16 2.216031 1_555
