# generated using pymatgen
data_Rb3IrBr6O
_symmetry_space_group_name_H-M   'P 1'
_cell_length_a   7.42741900
_cell_length_b   12.97686400
_cell_length_c   15.38270800
_cell_angle_alpha   90.00000000
_cell_angle_beta   90.00000000
_cell_angle_gamma   90.00000000
_symmetry_Int_Tables_number   1
_chemical_formula_structural   Rb3IrBr6O
_chemical_formula_sum   'Rb12 Ir4 Br24 O4'
_cell_volume   1482.65625339
_cell_formula_units_Z   4
loop_
 _symmetry_equiv_pos_site_id
 _symmetry_equiv_pos_as_xyz
  1  'x, y, z'
loop_
 _atom_site_type_symbol
 _atom_site_label
 _atom_site_symmetry_multiplicity
 _atom_site_fract_x
 _atom_site_fract_y
 _atom_site_fract_z
 _atom_site_occupancy
  Rb  Rb0  1  0.25000000  0.11063800  0.46463600  1
  Rb  Rb1  1  0.25000000  0.61063800  0.03536400  1
  Rb  Rb2  1  0.75000000  0.88936200  0.53536400  1
  Rb  Rb3  1  0.75000000  0.38936200  0.96463600  1
  Rb  Rb4  1  0.75000000  0.05836700  0.85438400  1
  Rb  Rb5  1  0.75000000  0.55836700  0.64561600  1
  Rb  Rb6  1  0.25000000  0.94163300  0.14561600  1
  Rb  Rb7  1  0.25000000  0.44163300  0.35438400  1
  Rb  Rb8  1  0.25000000  0.32803500  0.72629500  1
  Rb  Rb9  1  0.25000000  0.82803500  0.77370500  1
  Rb  Rb10  1  0.75000000  0.67196500  0.27370500  1
  Rb  Rb11  1  0.75000000  0.17196500  0.22629500  1
  Ir  Ir0  1  0.25000000  0.27397700  0.09680300  1
  Ir  Ir1  1  0.25000000  0.77397700  0.40319700  1
  Ir  Ir2  1  0.75000000  0.72602300  0.90319700  1
  Ir  Ir3  1  0.75000000  0.22602300  0.59680300  1
  Br  Br0  1  0.25000000  0.36217500  0.95188200  1
  Br  Br1  1  0.25000000  0.86217500  0.54811800  1
  Br  Br2  1  0.75000000  0.63782500  0.04811800  1
  Br  Br3  1  0.75000000  0.13782500  0.45188200  1
  Br  Br4  1  0.25000000  0.18597800  0.24452200  1
  Br  Br5  1  0.25000000  0.68597800  0.25547800  1
  Br  Br6  1  0.75000000  0.81402200  0.75547800  1
  Br  Br7  1  0.75000000  0.31402200  0.74452200  1
  Br  Br8  1  0.01507100  0.39659100  0.15286800  1
  Br  Br9  1  0.48492900  0.89659100  0.34713200  1
  Br  Br10  1  0.51507100  0.60340900  0.84713200  1
  Br  Br11  1  0.98492900  0.10340900  0.65286800  1
  Br  Br12  1  0.98492900  0.60340900  0.84713200  1
  Br  Br13  1  0.51507100  0.10340900  0.65286800  1
  Br  Br14  1  0.48492900  0.39659100  0.15286800  1
  Br  Br15  1  0.01507100  0.89659100  0.34713200  1
  Br  Br16  1  0.01457800  0.15302400  0.04142300  1
  Br  Br17  1  0.48542200  0.65302400  0.45857700  1
  Br  Br18  1  0.51457800  0.84697600  0.95857700  1
  Br  Br19  1  0.98542200  0.34697600  0.54142300  1
  Br  Br20  1  0.98542200  0.84697600  0.95857700  1
  Br  Br21  1  0.51457800  0.34697600  0.54142300  1
  Br  Br22  1  0.48542200  0.15302400  0.04142300  1
  Br  Br23  1  0.01457800  0.65302400  0.45857700  1
  O  O0  1  0.25000000  0.06161500  0.84459400  1
  O  O1  1  0.25000000  0.56161500  0.65540600  1
  O  O2  1  0.75000000  0.93838500  0.15540600  1
  O  O3  1  0.75000000  0.43838500  0.34459400  1
loop_
_geom_bond_atom_site_label_1
_geom_bond_atom_site_label_2
_geom_bond_distance
_geom_bond_site_symmetry_2
Br0 Ir0 2.505920 1_556
Br0 Rb1 3.470596 1_556
Br0 Rb8 3.498305 1_555
Br0 Rb3 3.735585 1_555
Br0 Rb3 3.735585 1_455
Br1 Ir1 2.505920 1_555
Br1 Rb0 3.470596 1_565
Br1 Rb9 3.498305 1_555
Br1 Rb2 3.735585 1_455
Br1 Rb2 3.735585 1_555
Br2 Ir2 2.505920 1_554
Br2 Rb3 3.470596 1_554
Br2 Rb10 3.498305 1_555
Br2 Rb1 3.735585 1_655
Br2 Rb1 3.735585 1_555
Br3 Ir3 2.505920 1_555
Br3 Rb2 3.470596 1_545
Br3 Rb11 3.498305 1_555
Br3 Rb0 3.735585 1_655
Br3 Rb0 3.735585 1_555
Br4 Ir0 2.543125 1_555
Br4 Rb6 3.516953 1_545
Br4 Rb0 3.524274 1_555
Br4 Rb7 3.723236 1_555
Br4 Rb11 3.728715 1_555
Br4 Rb11 3.728715 1_455
Br5 Ir1 2.543125 1_555
Br5 Rb7 3.516953 1_555
Br5 Rb1 3.524274 1_555
Br5 Rb6 3.723236 1_555
Br5 Rb10 3.728715 1_555
Br5 Rb10 3.728715 1_455
Br6 Ir2 2.543125 1_555
Br6 Rb4 3.516953 1_565
Br6 Rb2 3.524274 1_555
Br6 Rb5 3.723236 1_555
Br6 Rb9 3.728715 1_555
Br6 Rb9 3.728715 1_655
Br7 Ir3 2.543125 1_555
Br7 Rb5 3.516953 1_555
Br7 Rb3 3.524274 1_555
Br7 Rb4 3.723236 1_555
Br7 Rb8 3.728715 1_555
Br7 Rb8 3.728715 1_655
Br8 Ir0 2.514013 1_555
Br8 Rb3 3.502709 1_454
Br8 Rb7 3.604930 1_555
Br8 Rb11 3.694430 1_455
Br8 Rb1 3.745302 1_555
Br9 Ir1 2.514013 1_555
Br9 Rb2 3.502709 1_555
Br9 Rb6 3.604930 1_555
Br9 Rb10 3.694430 1_555
Br9 Rb0 3.745302 1_565
Br10 Ir2 2.514013 1_555
Br10 Rb1 3.502709 1_556
Br10 Rb5 3.604930 1_555
Br10 Rb9 3.694430 1_555
Br10 Rb3 3.745302 1_555
Br11 Ir3 2.514013 1_555
Br11 Rb0 3.502709 1_655
Br11 Rb4 3.604930 1_555
Br11 Rb8 3.694430 1_655
Br11 Rb2 3.745302 1_545
Br12 Ir2 2.514013 1_555
Br12 Rb1 3.502709 1_656
Br12 Rb5 3.604930 1_555
Br12 Rb9 3.694430 1_655
Br12 Rb3 3.745302 1_555
Br13 Ir3 2.514013 1_555
Br13 Rb0 3.502709 1_555
Br13 Rb4 3.604930 1_555
Br13 Rb8 3.694430 1_555
Br13 Rb2 3.745302 1_545
Br14 Ir0 2.514013 1_555
Br14 Rb3 3.502709 1_554
Br14 Rb7 3.604930 1_555
Br14 Rb11 3.694430 1_555
Br14 Rb1 3.745302 1_555
Br15 Ir1 2.514013 1_555
Br15 Rb2 3.502709 1_455
Br15 Rb6 3.604930 1_555
Br15 Rb10 3.694430 1_455
Br15 Rb0 3.745302 1_565
Br16 Ir0 2.499373 1_555
Br16 Rb11 3.465478 1_455
Br16 Rb6 3.626500 1_545
Br16 Rb4 3.694411 1_454
Br16 Rb3 3.829229 1_454
Br17 Ir1 2.499373 1_555
Br17 Rb10 3.465478 1_555
Br17 Rb7 3.626500 1_555
Br17 Rb5 3.694411 1_555
Br17 Rb2 3.829229 1_555
Br18 Ir2 2.499373 1_555
Br18 Rb9 3.465478 1_555
Br18 Rb4 3.626500 1_565
Br18 Rb6 3.694411 1_556
Br18 Rb1 3.829229 1_556
Br19 Ir3 2.499373 1_555
Br19 Rb8 3.465478 1_655
Br19 Rb5 3.626500 1_555
Br19 Rb7 3.694411 1_655
Br19 Rb0 3.829229 1_655
Br20 Ir2 2.499373 1_555
Br20 Rb9 3.465478 1_655
Br20 Rb4 3.626500 1_565
Br20 Rb6 3.694411 1_656
Br20 Rb1 3.829229 1_656
Br21 Ir3 2.499373 1_555
Br21 Rb8 3.465478 1_555
Br21 Rb5 3.626500 1_555
Br21 Rb7 3.694411 1_555
Br21 Rb0 3.829229 1_555
Br22 Ir0 2.499373 1_555
Br22 Rb11 3.465478 1_555
Br22 Rb6 3.626500 1_545
Br22 Rb4 3.694411 1_554
Br22 Rb3 3.829229 1_554
Br23 Ir1 2.499373 1_555
Br23 Rb10 3.465478 1_455
Br23 Rb7 3.626500 1_555
Br23 Rb5 3.694411 1_455
Br23 Rb2 3.829229 1_455
O0 Rb9 3.221319 1_545
O1 Rb8 3.221319 1_555
O2 Rb11 3.221319 1_565
O3 Rb10 3.221319 1_555
