# generated using pymatgen
data_Li4Mn3Fe5O16
_symmetry_space_group_name_H-M   'P 1'
_cell_length_a   5.85239261
_cell_length_b   5.85239261
_cell_length_c   9.54030578
_cell_angle_alpha   89.83182832
_cell_angle_beta   89.83182832
_cell_angle_gamma   59.96845550
_symmetry_Int_Tables_number   1
_chemical_formula_structural   Li4Mn3Fe5O16
_chemical_formula_sum   'Li4 Mn3 Fe5 O16'
_cell_volume   282.89104861
_cell_formula_units_Z   1
loop_
 _symmetry_equiv_pos_site_id
 _symmetry_equiv_pos_as_xyz
  1  'x, y, z'
loop_
 _atom_site_type_symbol
 _atom_site_label
 _atom_site_symmetry_multiplicity
 _atom_site_fract_x
 _atom_site_fract_y
 _atom_site_fract_z
 _atom_site_occupancy
  Li  Li0  1  0.66947500  0.66947500  0.89143200  1
  Li  Li1  1  0.99833800  0.99833800  0.99613900  1
  Li  Li2  1  0.00076700  0.00076700  0.49751900  1
  Li  Li3  1  0.33383700  0.33383700  0.39269400  1
  Mn  Mn0  1  0.82985000  0.82985000  0.21482300  1
  Mn  Mn1  1  0.66224600  0.16900300  0.71488300  1
  Mn  Mn2  1  0.16900300  0.66224600  0.71488300  1
  Fe  Fe0  1  0.82950300  0.33878900  0.21453000  1
  Fe  Fe1  1  0.66387900  0.66387900  0.49263700  1
  Fe  Fe2  1  0.33878900  0.82950300  0.21453000  1
  Fe  Fe3  1  0.16958600  0.16958600  0.71384000  1
  Fe  Fe4  1  0.33065200  0.33065200  0.98898300  1
  O  O0  1  0.83800400  0.32228200  0.60364300  1
  O  O1  1  0.51784200  0.51784200  0.34144400  1
  O  O2  1  0.67204900  0.67204900  0.10271600  1
  O  O3  1  0.99411500  0.99411500  0.31137300  1
  O  O4  1  0.99689200  0.99689200  0.80905900  1
  O  O5  1  0.32228200  0.83800400  0.60364300  1
  O  O6  1  0.96417400  0.52679900  0.33827800  1
  O  O7  1  0.52679900  0.96417400  0.33827800  1
  O  O8  1  0.16257300  0.16257300  0.09812000  1
  O  O9  1  0.83870800  0.83870800  0.60395700  1
  O  O10  1  0.48384300  0.03909200  0.83322800  1
  O  O11  1  0.03909200  0.48384300  0.83322800  1
  O  O12  1  0.33775000  0.33775000  0.60891400  1
  O  O13  1  0.67169600  0.15555600  0.10052400  1
  O  O14  1  0.48192100  0.48192100  0.83403000  1
  O  O15  1  0.15555600  0.67169600  0.10052400  1
loop_
_geom_bond_atom_site_label_1
_geom_bond_atom_site_label_2
_geom_bond_distance
_geom_bond_site_symmetry_2
Li0 O11 1.952436 1_655
Li0 O10 1.952436 1_565
Li0 O14 1.980542 1_555
Li0 O2 2.015971 1_556
Li1 O4 1.784910 1_555
Li1 O13 1.930367 1_566
Li1 O15 1.930367 1_656
Li1 O8 1.931316 1_666
Li2 O3 1.777398 1_445
Li2 O0 1.919485 1_455
Li2 O5 1.919485 1_545
Li2 O9 1.928540 1_445
Li3 O1 1.926897 1_555
Li3 O6 1.944959 1_455
Li3 O7 1.944959 1_545
Li3 O12 2.063321 1_555
Mn0 O3 1.905853 1_555
Mn0 O2 1.927420 1_555
Mn0 O7 1.936068 1_555
Mn0 O6 1.936068 1_555
Mn0 O13 1.976602 1_565
Mn0 O15 1.976602 1_655
Mn1 O4 1.920390 1_545
Mn1 O10 1.930157 1_555
Mn1 O12 1.931842 1_555
Mn1 O14 1.957096 1_555
Mn1 O0 1.974993 1_555
Mn1 O9 1.982528 1_545
Mn2 O4 1.920390 1_455
Mn2 O11 1.930157 1_555
Mn2 O12 1.931842 1_555
Mn2 O14 1.957096 1_555
Mn2 O5 1.974993 1_555
Mn2 O9 1.982528 1_455
Fe0 O3 1.974794 1_545
Fe0 O1 1.993062 1_555
Fe0 O2 1.996400 1_555
Fe0 O8 2.019508 1_655
Fe0 O6 2.026518 1_555
Fe0 O13 2.046930 1_555
Fe1 O5 2.027651 1_555
Fe1 O0 2.027651 1_555
Fe1 O9 2.069366 1_555
Fe1 O1 2.070538 1_555
Fe1 O6 2.116920 1_555
Fe1 O7 2.116920 1_555
Fe2 O3 1.974794 1_455
Fe2 O1 1.993062 1_555
Fe2 O2 1.996400 1_555
Fe2 O8 2.019508 1_565
Fe2 O7 2.026518 1_555
Fe2 O15 2.046930 1_555
Fe3 O10 1.965791 1_555
Fe3 O11 1.965791 1_555
Fe3 O4 1.969721 1_445
Fe3 O12 1.974116 1_555
Fe3 O0 1.985003 1_455
Fe3 O5 1.985003 1_545
Fe4 O8 1.993936 1_556
Fe4 O15 2.031010 1_556
Fe4 O13 2.031010 1_556
Fe4 O10 2.097425 1_555
Fe4 O11 2.097425 1_555
Fe4 O14 2.126486 1_555
