# generated using pymatgen
data_LiCo3P4O15
_symmetry_space_group_name_H-M   'P 1'
_cell_length_a   6.35089100
_cell_length_b   10.48186235
_cell_length_c   17.54807214
_cell_angle_alpha   90.02186622
_cell_angle_beta   90.21955401
_cell_angle_gamma   90.06304697
_symmetry_Int_Tables_number   1
_chemical_formula_structural   LiCo3P4O15
_chemical_formula_sum   'Li4 Co12 P16 O60'
_cell_volume   1168.15114333
_cell_formula_units_Z   4
loop_
 _symmetry_equiv_pos_site_id
 _symmetry_equiv_pos_as_xyz
  1  'x, y, z'
loop_
 _atom_site_type_symbol
 _atom_site_label
 _atom_site_symmetry_multiplicity
 _atom_site_fract_x
 _atom_site_fract_y
 _atom_site_fract_z
 _atom_site_occupancy
  Li  Li0  1  0.31245000  0.54218100  0.53247900  1
  Li  Li1  1  0.67642700  0.03120900  0.49771000  1
  Li  Li2  1  0.31142700  0.96070400  0.03126200  1
  Li  Li3  1  0.17592800  0.52986500  0.00235200  1
  Co  Co0  1  0.42025200  0.49070100  0.86703900  1
  Co  Co1  1  0.39824900  0.01282800  0.84108400  1
  Co  Co2  1  0.68080800  0.74342700  0.75776300  1
  Co  Co3  1  0.18349800  0.24292800  0.74157200  1
  Co  Co4  1  0.89301300  0.50809800  0.65938300  1
  Co  Co5  1  0.91854500  0.99016900  0.63338000  1
  Co  Co6  1  0.40207800  0.00496100  0.36750300  1
  Co  Co7  1  0.39544400  0.48673800  0.34156800  1
  Co  Co8  1  0.68013600  0.75571900  0.25808600  1
  Co  Co9  1  0.18314900  0.25632800  0.24030400  1
  Co  Co10  1  0.89021100  0.99229200  0.15929100  1
  Co  Co11  1  0.90073900  0.50561900  0.13303800  1
  P  P0  1  0.35262600  0.22646100  0.95081200  1
  P  P1  1  0.53752300  0.76189300  0.92990500  1
  P  P2  1  0.91453900  0.48017600  0.82039300  1
  P  P3  1  0.90128500  0.00437300  0.79282800  1
  P  P4  1  0.39993700  0.50511200  0.70610200  1
  P  P5  1  0.41370900  0.98044400  0.67978100  1
  P  P6  1  0.03093800  0.25871100  0.57047800  1
  P  P7  1  0.86730600  0.72773600  0.55161400  1
  P  P8  1  0.35875000  0.27458600  0.45155100  1
  P  P9  1  0.54328600  0.73556500  0.42921400  1
  P  P10  1  0.91062000  0.01977300  0.32011600  1
  P  P11  1  0.90005100  0.49579100  0.29232900  1
  P  P12  1  0.39806000  0.99503100  0.20649800  1
  P  P13  1  0.41052400  0.52023400  0.17959000  1
  P  P14  1  0.03609100  0.23864000  0.07071400  1
  P  P15  1  0.87318900  0.77286400  0.05151300  1
  O  O0  1  0.49769600  0.13584600  0.98980000  1
  O  O1  1  0.12098900  0.19923700  0.98893300  1
  O  O2  1  0.38410600  0.37220000  0.95582400  1
  O  O3  1  0.41627500  0.63596500  0.94086500  1
  O  O4  1  0.39583700  0.87851900  0.91904300  1
  O  O5  1  0.70711000  0.75284500  0.86799700  1
  O  O6  1  0.10238800  0.50368600  0.87321500  1
  O  O7  1  0.31652400  0.18991500  0.86533700  1
  O  O8  1  0.71297300  0.45756600  0.86631400  1
  O  O9  1  0.09294700  0.97952700  0.84254000  1
  O  O10  1  0.70159600  0.03255000  0.83823000  1
  O  O11  1  0.88293200  0.59616300  0.76379700  1
  O  O12  1  0.95117500  0.36968600  0.76183000  1
  O  O13  1  0.44601500  0.61094800  0.76801600  1
  O  O14  1  0.36506700  0.38805100  0.76243800  1
  O  O15  1  0.86795200  0.88720000  0.73671600  1
  O  O16  1  0.94745900  0.11153500  0.73187600  1
  O  O17  1  0.45309500  0.86869600  0.73767100  1
  O  O18  1  0.38026300  0.09725000  0.73568900  1
  O  O19  1  0.20808600  0.53342900  0.65574800  1
  O  O20  1  0.58596100  0.48234600  0.65486500  1
  O  O21  1  0.21205300  0.95674100  0.63382300  1
  O  O22  1  0.81727700  0.68837200  0.63540800  1
  O  O23  1  0.60102000  0.00390600  0.62763400  1
  O  O24  1  0.20821700  0.24919200  0.63019900  1
  O  O25  1  0.89533200  0.37537300  0.58857400  1
  O  O26  1  0.90693300  0.13403200  0.56036700  1
  O  O27  1  0.88204600  0.87445800  0.54570200  1
  O  O28  1  0.64399000  0.69452300  0.50921300  1
  O  O29  1  0.03923400  0.64972200  0.51830000  1
  O  O30  1  0.49159000  0.37090200  0.49160000  1
  O  O31  1  0.12253900  0.28702000  0.48803400  1
  O  O32  1  0.41854800  0.13220000  0.45510200  1
  O  O33  1  0.44679100  0.86783800  0.44258500  1
  O  O34  1  0.38860100  0.62594700  0.41624000  1
  O  O35  1  0.71383200  0.73980400  0.36706800  1
  O  O36  1  0.10524400  0.99696000  0.37051000  1
  O  O37  1  0.31712000  0.31061500  0.36632700  1
  O  O38  1  0.71654600  0.03891300  0.37012600  1
  O  O39  1  0.09073000  0.51994800  0.34260000  1
  O  O40  1  0.69948600  0.46673600  0.33714000  1
  O  O41  1  0.87854400  0.90405900  0.26368800  1
  O  O42  1  0.94653400  0.13062100  0.26190000  1
  O  O43  1  0.44440700  0.88979400  0.26890500  1
  O  O44  1  0.36572900  0.11303600  0.26235100  1
  O  O45  1  0.86882900  0.61328500  0.23637000  1
  O  O46  1  0.94707400  0.38877400  0.23103900  1
  O  O47  1  0.44930300  0.63372200  0.23601800  1
  O  O48  1  0.37599300  0.40461000  0.23594900  1
  O  O49  1  0.20552500  0.96627500  0.15646800  1
  O  O50  1  0.58325500  0.01603500  0.15452500  1
  O  O51  1  0.21604700  0.53947400  0.12945400  1
  O  O52  1  0.81841400  0.81198200  0.13483900  1
  O  O53  1  0.60405400  0.49576300  0.12992700  1
  O  O54  1  0.21538200  0.24346100  0.13053100  1
  O  O55  1  0.88762700  0.12923100  0.09137100  1
  O  O56  1  0.93782700  0.36998000  0.05798800  1
  O  O57  1  0.91360700  0.62812400  0.04654000  1
  O  O58  1  0.64478400  0.79374500  0.01026600  1
  O  O59  1  0.03668100  0.85684800  0.01728100  1
loop_
_geom_bond_atom_site_label_1
_geom_bond_atom_site_label_2
_geom_bond_distance
_geom_bond_site_symmetry_2
Li0 O29 2.084362 1_555
Li0 O30 2.245417 1_555
Li0 O19 2.266688 1_555
Li0 O34 2.274528 1_555
Li1 O32 2.087322 1_555
Li1 O26 2.120582 1_555
Li1 O38 2.255741 1_555
Li1 O27 2.260855 1_545
Li1 O23 2.349006 1_555
Li1 O33 2.444894 1_545
Li2 O59 2.069347 1_555
Li2 O4 2.217013 1_554
Li2 O49 2.300963 1_555
Li2 O0 2.302574 1_564
Li3 O57 2.109637 1_455
Li3 O3 2.177331 1_554
Li3 O51 2.246139 1_555
Li3 O2 2.271087 1_554
Li3 O6 2.328045 1_554
Li3 O56 2.460768 1_455
Co0 O8 1.891670 1_555
Co0 O3 1.999055 1_555
Co0 O2 2.006616 1_555
Co0 O6 2.026763 1_555
Co0 O13 2.153666 1_555
Co0 O14 2.154644 1_555
Co1 O10 1.938197 1_555
Co1 O4 1.963479 1_545
Co1 O9 1.969994 1_545
Co1 O7 1.974642 1_555
Co1 O18 2.053417 1_555
Co1 O17 2.387635 1_545
Co2 O5 1.943417 1_555
Co2 O15 1.954466 1_555
Co2 O17 1.985064 1_555
Co2 O11 2.011259 1_555
Co2 O13 2.044959 1_555
Co2 O22 2.389272 1_555
Co3 O14 1.941693 1_555
Co3 O24 1.962394 1_555
Co3 O18 1.977111 1_555
Co3 O12 2.019074 1_455
Co3 O16 2.041139 1_455
Co3 O7 2.393175 1_555
Co4 O25 1.865072 1_555
Co4 O20 1.969644 1_555
Co4 O22 1.995000 1_555
Co4 O19 2.019497 1_655
Co4 O11 2.052588 1_555
Co4 O12 2.339078 1_555
Co5 O21 1.897049 1_655
Co5 O27 1.971606 1_555
Co5 O26 1.980385 1_565
Co5 O23 2.023989 1_565
Co5 O15 2.135783 1_555
Co5 O16 2.152872 1_565
Co6 O36 1.887873 1_545
Co6 O33 1.970249 1_545
Co6 O38 2.028572 1_555
Co6 O32 2.037047 1_555
Co6 O43 2.127395 1_545
Co6 O44 2.177226 1_555
Co7 O40 1.944362 1_555
Co7 O37 1.960745 1_555
Co7 O34 1.961427 1_555
Co7 O39 1.966792 1_555
Co7 O48 2.046522 1_555
Co7 O47 2.434577 1_555
Co8 O35 1.930848 1_555
Co8 O45 1.953786 1_555
Co8 O47 1.981279 1_555
Co8 O41 2.002425 1_555
Co8 O43 2.063722 1_555
Co8 O52 2.410576 1_555
Co9 O44 1.936741 1_555
Co9 O54 1.942583 1_555
Co9 O48 1.979441 1_555
Co9 O42 2.034292 1_455
Co9 O46 2.050488 1_455
Co9 O37 2.433480 1_555
Co10 O55 1.866098 1_565
Co10 O50 1.967002 1_565
Co10 O52 1.989988 1_555
Co10 O49 2.022098 1_655
Co10 O41 2.054048 1_555
Co10 O42 2.337594 1_565
Co11 O53 1.887510 1_555
Co11 O56 1.952685 1_555
Co11 O57 1.990399 1_555
Co11 O51 2.034516 1_655
Co11 O46 2.131338 1_555
Co11 O45 2.145788 1_555
O0 P0 1.488844 1_555
O1 P14 1.589582 1_556
O1 P0 1.643115 1_555
O2 P0 1.542857 1_555
O3 P1 1.539911 1_555
O4 P1 1.530267 1_555
O5 P1 1.535672 1_555
O6 P2 1.527707 1_455
O7 P0 1.563908 1_555
O8 P2 1.533500 1_555
O9 P3 1.517626 1_465
O10 P3 1.529286 1_555
O11 P2 1.582607 1_555
O12 P2 1.566220 1_555
O13 P4 1.578816 1_555
O14 P4 1.591831 1_555
O15 P3 1.587364 1_565
O16 P3 1.579341 1_555
O17 P5 1.570397 1_555
O18 P5 1.583636 1_545
O19 P4 1.531724 1_555
O20 P4 1.506549 1_555
O21 P5 1.530863 1_555
O22 P7 1.561120 1_555
O23 P5 1.523433 1_545
O24 P6 1.538546 1_555
O25 P6 1.530352 1_655
O26 P6 1.534958 1_655
O27 P7 1.544216 1_555
O28 P9 1.599695 1_555
O28 P7 1.636122 1_555
O29 P7 1.486327 1_455
O30 P8 1.489271 1_555
O31 P6 1.589313 1_555
O31 P8 1.638606 1_555
O32 P8 1.541659 1_555
O33 P9 1.534806 1_555
O34 P9 1.527326 1_555
O35 P9 1.540580 1_555
O36 P10 1.536039 1_465
O37 P8 1.564197 1_555
O38 P10 1.529136 1_555
O39 P11 1.516497 1_455
O40 P11 1.529895 1_555
O41 P10 1.578010 1_565
O42 P10 1.564529 1_555
O43 P12 1.581734 1_555
O44 P12 1.591826 1_545
O45 P11 1.587541 1_555
O46 P11 1.583194 1_555
O47 P13 1.566145 1_555
O48 P13 1.580198 1_555
O49 P12 1.532167 1_555
O50 P12 1.507117 1_545
O51 P13 1.527264 1_555
O52 P15 1.559151 1_555
O53 P13 1.531234 1_555
O54 P14 1.546474 1_555
O55 P14 1.528447 1_655
O56 P14 1.528284 1_655
O57 P15 1.541480 1_555
O58 P1 1.598716 1_554
O58 P15 1.633628 1_555
O59 P15 1.488983 1_455
