# generated using pymatgen
data_Li2MnCoO4
_symmetry_space_group_name_H-M   'P 1'
_cell_length_a   5.81472730
_cell_length_b   5.81472730
_cell_length_c   6.05196658
_cell_angle_alpha   60.85026419
_cell_angle_beta   60.85026419
_cell_angle_gamma   88.48442247
_symmetry_Int_Tables_number   1
_chemical_formula_structural   Li2MnCoO4
_chemical_formula_sum   'Li4 Mn2 Co2 O8'
_cell_volume   149.99471009
_cell_formula_units_Z   2
loop_
 _symmetry_equiv_pos_site_id
 _symmetry_equiv_pos_as_xyz
  1  'x, y, z'
loop_
 _atom_site_type_symbol
 _atom_site_label
 _atom_site_symmetry_multiplicity
 _atom_site_fract_x
 _atom_site_fract_y
 _atom_site_fract_z
 _atom_site_occupancy
  Li  Li0  1  0.50000000  0.50000000  0.50000000  1
  Li  Li1  1  0.50000000  0.00000000  0.00000000  1
  Li  Li2  1  0.00000000  0.50000000  0.50000000  1
  Li  Li3  1  0.50000000  0.50000000  0.00000000  1
  Mn  Mn0  1  0.50000000  0.00000000  0.50000000  1
  Mn  Mn1  1  0.00000000  0.50000000  0.00000000  1
  Co  Co0  1  0.00000000  0.00000000  0.50000000  1
  Co  Co1  1  0.00000000  0.00000000  0.00000000  1
  O  O0  1  0.77664500  0.75563900  0.97668300  1
  O  O1  1  0.73984300  0.22016400  0.51347200  1
  O  O2  1  0.22016400  0.73984300  0.01347200  1
  O  O3  1  0.75563900  0.77664500  0.47668300  1
  O  O4  1  0.24436100  0.22335500  0.52331700  1
  O  O5  1  0.77983600  0.26015700  0.98652800  1
  O  O6  1  0.26015700  0.77983600  0.48652800  1
  O  O7  1  0.22335500  0.24436100  0.02331700  1
loop_
_geom_bond_atom_site_label_1
_geom_bond_atom_site_label_2
_geom_bond_distance
_geom_bond_site_symmetry_2
Li0 O1 2.112058 1_555
Li0 O6 2.112058 1_555
Li0 O3 2.125595 1_555
Li0 O4 2.125595 1_555
Li0 O7 2.324826 1_556
Li0 O0 2.324826 1_554
Li1 O0 2.116549 1_544
Li1 O7 2.116549 1_555
Li1 O6 2.162298 1_545
Li1 O1 2.162298 1_554
Li1 O5 2.196253 1_554
Li1 O2 2.196253 1_545
Li2 O3 2.116549 1_455
Li2 O4 2.116549 1_555
Li2 O5 2.162298 1_455
Li2 O2 2.162298 1_555
Li2 O6 2.196253 1_555
Li2 O1 2.196253 1_455
Li3 O2 2.112058 1_555
Li3 O5 2.112058 1_554
Li3 O0 2.125595 1_554
Li3 O7 2.125595 1_555
Li3 O4 2.324826 1_555
Li3 O3 2.324826 1_554
Mn0 O4 1.946363 1_555
Mn0 O3 1.946363 1_545
Mn0 O1 1.974186 1_555
Mn0 O6 1.974186 1_545
Mn0 O2 2.284177 1_546
Mn0 O5 2.284177 1_554
Mn1 O7 1.946363 1_555
Mn1 O0 1.946363 1_454
Mn1 O2 1.974186 1_555
Mn1 O5 1.974186 1_454
Mn1 O1 2.284177 1_455
Mn1 O6 2.284177 1_554
Co0 O6 1.952695 1_545
Co0 O1 1.952695 1_455
Co0 O4 2.048679 1_555
Co0 O3 2.048679 1_445
Co0 O0 2.117188 1_445
Co0 O7 2.117188 1_555
Co1 O5 1.952695 1_454
Co1 O2 1.952695 1_545
Co1 O7 2.048679 1_555
Co1 O0 2.048679 1_444
Co1 O3 2.117188 1_445
Co1 O4 2.117188 1_554
