# generated using pymatgen
data_TeH18(Br3O4)2
_symmetry_space_group_name_H-M   'P 1'
_cell_length_a   9.88300700
_cell_length_b   7.72754700
_cell_length_c   14.05407482
_cell_angle_alpha   59.39441157
_cell_angle_beta   90.00000000
_cell_angle_gamma   90.00000000
_symmetry_Int_Tables_number   1
_chemical_formula_structural   TeH18(Br3O4)2
_chemical_formula_sum   'Te2 H36 Br12 O16'
_cell_volume   923.80641491
_cell_formula_units_Z   2
loop_
 _symmetry_equiv_pos_site_id
 _symmetry_equiv_pos_as_xyz
  1  'x, y, z'
loop_
 _atom_site_type_symbol
 _atom_site_label
 _atom_site_symmetry_multiplicity
 _atom_site_fract_x
 _atom_site_fract_y
 _atom_site_fract_z
 _atom_site_occupancy
  Te  Te0  1  0.00000000  0.00000000  0.50000000  1
  Te  Te1  1  0.50000000  0.00000000  0.00000000  1
  H  H0  1  0.52880100  0.68900800  0.50382900  1
  H  H1  1  0.97119900  0.68900800  0.00382900  1
  H  H2  1  0.47119900  0.31099200  0.49617100  1
  H  H3  1  0.02880100  0.31099200  0.99617100  1
  H  H4  1  0.63089800  0.50732600  0.60520700  1
  H  H5  1  0.86910200  0.50732600  0.10520700  1
  H  H6  1  0.36910200  0.49267400  0.39479300  1
  H  H7  1  0.13089800  0.49267400  0.89479300  1
  H  H8  1  0.51123200  0.64316900  0.63515600  1
  H  H9  1  0.98876800  0.64316900  0.13515600  1
  H  H10  1  0.48876800  0.35683100  0.36484400  1
  H  H11  1  0.01123200  0.35683100  0.86484400  1
  H  H12  1  0.53474700  0.67053700  0.76844100  1
  H  H13  1  0.96525300  0.67053700  0.26844100  1
  H  H14  1  0.46525300  0.32946300  0.23155900  1
  H  H15  1  0.03474700  0.32946300  0.73155900  1
  H  H16  1  0.48131200  0.87766500  0.67152600  1
  H  H17  1  0.01868800  0.87766500  0.17152600  1
  H  H18  1  0.51868800  0.12233500  0.32847400  1
  H  H19  1  0.98131200  0.12233500  0.82847400  1
  H  H20  1  0.80589200  0.33092100  0.69176600  1
  H  H21  1  0.69410800  0.33092100  0.19176600  1
  H  H22  1  0.19410800  0.66907900  0.30823400  1
  H  H23  1  0.30589200  0.66907900  0.80823400  1
  H  H24  1  0.80143500  0.39364900  0.56539700  1
  H  H25  1  0.69856500  0.39364900  0.06539700  1
  H  H26  1  0.19856500  0.60635100  0.43460300  1
  H  H27  1  0.30143500  0.60635100  0.93460300  1
  H  H28  1  0.40810900  0.82101900  0.36277400  1
  H  H29  1  0.09189100  0.82101900  0.86277400  1
  H  H30  1  0.59189100  0.17898100  0.63722600  1
  H  H31  1  0.90810900  0.17898100  0.13722600  1
  H  H32  1  0.56004300  0.82484200  0.33209800  1
  H  H33  1  0.93995700  0.82484200  0.83209800  1
  H  H34  1  0.43995700  0.17515800  0.66790200  1
  H  H35  1  0.06004300  0.17515800  0.16790200  1
  Br  Br0  1  0.16766700  0.18530300  0.31988300  1
  Br  Br1  1  0.33233300  0.18530300  0.81988300  1
  Br  Br2  1  0.83233300  0.81469700  0.68011700  1
  Br  Br3  1  0.66766700  0.81469700  0.18011700  1
  Br  Br4  1  0.83461500  0.33294400  0.40306700  1
  Br  Br5  1  0.66538500  0.33294400  0.90306700  1
  Br  Br6  1  0.16538500  0.66705600  0.59693300  1
  Br  Br7  1  0.33461500  0.66705600  0.09693300  1
  Br  Br8  1  0.86006500  0.83085400  0.40045800  1
  Br  Br9  1  0.63993500  0.83085400  0.90045800  1
  Br  Br10  1  0.13993500  0.16914600  0.59954200  1
  Br  Br11  1  0.36006500  0.16914600  0.09954200  1
  O  O0  1  0.53829900  0.58277700  0.58675800  1
  O  O1  1  0.96170100  0.58277700  0.08675800  1
  O  O2  1  0.46170100  0.41722300  0.41324200  1
  O  O3  1  0.03829900  0.41722300  0.91324200  1
  O  O4  1  0.46813000  0.73000400  0.70784800  1
  O  O5  1  0.03187000  0.73000400  0.20784800  1
  O  O6  1  0.53187000  0.26999600  0.29215200  1
  O  O7  1  0.96813000  0.26999600  0.79215200  1
  O  O8  1  0.74411500  0.35930800  0.63037000  1
  O  O9  1  0.75588500  0.35930800  0.13037000  1
  O  O10  1  0.25588500  0.64069200  0.36963000  1
  O  O11  1  0.24411500  0.64069200  0.86963000  1
  O  O12  1  0.49972000  0.84638300  0.38156500  1
  O  O13  1  0.00028000  0.84638300  0.88156500  1
  O  O14  1  0.50028000  0.15361700  0.61843500  1
  O  O15  1  0.99972000  0.15361700  0.11843500  1
loop_
_geom_bond_atom_site_label_1
_geom_bond_atom_site_label_2
_geom_bond_distance
_geom_bond_site_symmetry_2
H0 O0 1.032882 1_555
H0 O12 1.544774 1_555
H1 O1 1.032882 1_555
H1 O13 1.544774 1_654
H2 O2 1.032882 1_555
H2 O14 1.544774 1_555
H3 O3 1.032882 1_555
H3 O15 1.544774 1_456
H4 O0 1.044391 1_555
H4 O8 1.507808 1_555
H5 O1 1.044391 1_555
H5 O9 1.507808 1_555
H6 O2 1.044391 1_555
H6 O10 1.507808 1_555
H7 O3 1.044391 1_555
H7 O11 1.507808 1_555
H8 O0 1.036934 1_555
H8 O4 1.540607 1_555
H9 O1 1.036934 1_555
H9 O5 1.540607 1_655
H10 O2 1.036934 1_555
H10 O6 1.540607 1_555
H11 O3 1.036934 1_555
H11 O7 1.540607 1_455
H12 O4 0.985569 1_555
H13 O5 0.985569 1_655
H14 O6 0.985569 1_555
H15 O7 0.985569 1_455
H16 O4 0.993206 1_555
H17 O5 0.993206 1_555
H18 O6 0.993206 1_555
H19 O7 0.993206 1_555
H20 O8 0.986246 1_555
H21 O9 0.986246 1_555
H22 O10 0.986246 1_555
H23 O11 0.986246 1_555
H24 O8 0.989147 1_555
H25 O9 0.989147 1_555
H26 O10 0.989147 1_555
H27 O11 0.989147 1_555
H28 O12 0.990253 1_555
H29 O13 0.990253 1_555
H30 O14 0.990253 1_555
H31 O15 0.990253 1_555
H32 O12 0.992113 1_555
H33 O13 0.992113 1_655
H34 O14 0.992113 1_555
H35 O15 0.992113 1_455
Br0 Te0 2.741025 1_555
Br1 Te1 2.741025 1_556
Br2 Te0 2.741025 1_665
Br3 Te1 2.741025 1_565
Br4 Te0 2.752819 1_655
Br5 Te1 2.752819 1_556
Br6 Te0 2.752819 1_565
Br7 Te1 2.752819 1_565
Br8 Te0 2.727666 1_665
Br9 Te1 2.727666 1_566
Br10 Te0 2.727666 1_555
Br11 Te1 2.727666 1_555
