# generated using pymatgen
data_Bi3O5
_symmetry_space_group_name_H-M   'P 1'
_cell_length_a   6.72979664
_cell_length_b   6.72979664
_cell_length_c   8.30862702
_cell_angle_alpha   71.21979172
_cell_angle_beta   71.21979172
_cell_angle_gamma   50.36880005
_symmetry_Int_Tables_number   1
_chemical_formula_structural   Bi3O5
_chemical_formula_sum   'Bi6 O10'
_cell_volume   270.85290715
_cell_formula_units_Z   2
loop_
 _symmetry_equiv_pos_site_id
 _symmetry_equiv_pos_as_xyz
  1  'x, y, z'
loop_
 _atom_site_type_symbol
 _atom_site_label
 _atom_site_symmetry_multiplicity
 _atom_site_fract_x
 _atom_site_fract_y
 _atom_site_fract_z
 _atom_site_occupancy
  Bi  Bi0  1  0.68090000  0.68851000  0.15826700  1
  Bi  Bi1  1  0.68851000  0.68090000  0.65826700  1
  Bi  Bi2  1  0.00000000  0.00000000  0.00000000  1
  Bi  Bi3  1  0.00000000  0.00000000  0.50000000  1
  Bi  Bi4  1  0.31910000  0.31149000  0.84173300  1
  Bi  Bi5  1  0.31149000  0.31910000  0.34173300  1
  O  O0  1  0.91121600  0.41383600  0.88863900  1
  O  O1  1  0.92063600  0.39439100  0.45137900  1
  O  O2  1  0.39439100  0.92063600  0.95137900  1
  O  O3  1  0.41383600  0.91121600  0.38863900  1
  O  O4  1  0.60560900  0.07936400  0.04862100  1
  O  O5  1  0.89105300  0.10894700  0.25000000  1
  O  O6  1  0.58616400  0.08878400  0.61136100  1
  O  O7  1  0.10894700  0.89105300  0.75000000  1
  O  O8  1  0.07936400  0.60560900  0.54862100  1
  O  O9  1  0.08878400  0.58616400  0.11136100  1
loop_
_geom_bond_atom_site_label_1
_geom_bond_atom_site_label_2
_geom_bond_distance
_geom_bond_site_symmetry_2
Bi0 O4 2.249353 1_565
Bi0 O9 2.287647 1_655
Bi0 O3 2.309975 1_555
Bi0 O2 2.382333 1_554
Bi0 O0 2.759282 1_554
Bi0 O1 2.793579 1_555
Bi1 O8 2.249353 1_655
Bi1 O6 2.287647 1_565
Bi1 O0 2.309975 1_555
Bi1 O1 2.382333 1_555
Bi1 O3 2.759282 1_555
Bi1 O2 2.793579 1_555
Bi2 O5 2.168859 1_455
Bi2 O7 2.168859 1_544
Bi2 O2 2.265661 1_544
Bi2 O4 2.265661 1_455
Bi2 O0 2.354458 1_454
Bi2 O9 2.354458 1_545
Bi3 O7 2.168859 1_545
Bi3 O5 2.168859 1_455
Bi3 O1 2.265661 1_455
Bi3 O8 2.265661 1_545
Bi3 O3 2.354458 1_545
Bi3 O6 2.354458 1_455
Bi4 O2 2.249353 1_545
Bi4 O0 2.287647 1_455
Bi4 O6 2.309975 1_555
Bi4 O4 2.382333 1_556
Bi4 O9 2.759282 1_556
Bi4 O8 2.793579 1_555
Bi5 O1 2.249353 1_455
Bi5 O3 2.287647 1_545
Bi5 O9 2.309975 1_555
Bi5 O8 2.382333 1_555
Bi5 O6 2.759282 1_555
Bi5 O4 2.793579 1_555
