# generated using pymatgen
data_Li3V4(OF3)3
_symmetry_space_group_name_H-M   'P 1'
_cell_length_a   5.19496900
_cell_length_b   5.54465849
_cell_length_c   17.27893727
_cell_angle_alpha   88.62731253
_cell_angle_beta   97.57609879
_cell_angle_gamma   117.45402352
_symmetry_Int_Tables_number   1
_chemical_formula_structural   Li3V4(OF3)3
_chemical_formula_sum   'Li6 V8 O6 F18'
_cell_volume   437.41755204
_cell_formula_units_Z   2
loop_
 _symmetry_equiv_pos_site_id
 _symmetry_equiv_pos_as_xyz
  1  'x, y, z'
loop_
 _atom_site_type_symbol
 _atom_site_label
 _atom_site_symmetry_multiplicity
 _atom_site_fract_x
 _atom_site_fract_y
 _atom_site_fract_z
 _atom_site_occupancy
  Li  Li0  1  0.81947300  0.33011200  0.29530400  1
  Li  Li1  1  0.69814300  0.41292100  0.95464300  1
  Li  Li2  1  0.31875600  0.06999500  0.55480300  1
  Li  Li3  1  0.56966100  0.72431600  0.43205000  1
  Li  Li4  1  0.42601100  0.81616300  0.06011800  1
  Li  Li5  1  0.17889400  0.66297200  0.69861100  1
  V  V0  1  0.99992900  0.00909000  0.99971100  1
  V  V1  1  0.75893800  0.37327900  0.12456800  1
  V  V2  1  0.51843100  0.72088600  0.24488000  1
  V  V3  1  0.50382400  0.24733100  0.75030300  1
  V  V4  1  0.25514300  0.09138200  0.37653300  1
  V  V5  1  0.71946200  0.88257500  0.62931900  1
  V  V6  1  0.02915200  0.52146500  0.50363000  1
  V  V7  1  0.24012900  0.63943700  0.88003100  1
  O  O0  1  0.80594200  0.19669000  0.03698000  1
  O  O1  1  0.66345600  0.04940600  0.71067000  1
  O  O2  1  0.69613400  0.52187000  0.21753500  1
  O  O3  1  0.30479600  0.67463600  0.59364000  1
  O  O4  1  0.25430600  0.81421000  0.43996400  1
  O  O5  1  0.15577800  0.77337100  0.96523100  1
  F  F0  1  0.77323200  0.08087100  0.19749500  1
  F  F1  1  0.73226200  0.19398700  0.55485500  1
  F  F2  1  0.72049300  0.66418600  0.05719200  1
  F  F3  1  0.70394900  0.34701800  0.40191400  1
  F  F4  1  0.79322600  0.39454800  0.84924800  1
  F  F5  1  0.80164900  0.89768000  0.34782000  1
  F  F6  1  0.81926300  0.74575400  0.52888700  1
  F  F7  1  0.31603700  0.12131900  0.09198500  1
  F  F8  1  0.76147000  0.57460700  0.68931600  1
  F  F9  1  0.24915100  0.42439200  0.31807600  1
  F  F10  1  0.67906900  0.84800600  0.90846200  1
  F  F11  1  0.22963600  0.29431600  0.47044700  1
  F  F12  1  0.17523700  0.09581600  0.65160400  1
  F  F13  1  0.21563700  0.60966000  0.14968700  1
  F  F14  1  0.30587300  0.47387300  0.77987300  1
  F  F15  1  0.34019500  0.96409000  0.28354700  1
  F  F16  1  0.27566200  0.33138100  0.93744800  1
  F  F17  1  0.23149700  0.91346100  0.80289500  1
loop_
_geom_bond_atom_site_label_1
_geom_bond_atom_site_label_2
_geom_bond_distance
_geom_bond_site_symmetry_2
Li0 O2 1.918177 1_555
Li1 O0 2.025435 1_556
Li1 O5 2.280674 1_655
Li2 O3 2.248730 1_545
Li2 O4 2.362782 1_545
Li3 O4 1.940694 1_555
Li4 O5 1.954430 1_554
Li4 O0 2.198843 1_565
Li5 O3 1.997496 1_555
Li5 O1 2.425038 1_565
O0 V0 1.918857 1_554
O0 V1 1.922934 1_555
O1 V5 1.826059 1_545
O1 V3 1.840093 1_555
O2 V2 1.836419 1_555
O2 V1 1.953236 1_555
O3 V6 1.882908 1_555
O3 V5 1.934837 1_555
O4 V4 1.864806 1_565
O4 V6 1.927720 1_555
O5 V7 1.852921 1_555
O5 V0 1.964399 1_465
F0 V2 2.043968 1_545
F0 V1 2.051937 1_555
F0 Li0 2.126611 1_555
F1 Li2 1.930017 1_555
F1 V6 2.039580 1_655
F1 V5 2.109873 1_545
F2 V1 2.035359 1_555
F2 Li4 2.064970 1_555
F2 V0 2.116686 1_564
F2 Li1 2.238094 1_554
F3 Li0 2.028294 1_555
F3 V4 2.085757 1_555
F3 V6 2.161117 1_655
F3 Li3 2.574473 1_555
F4 Li1 1.965530 1_555
F4 V3 2.026593 1_555
F4 V7 2.078196 1_655
F5 Li3 1.954974 1_555
F5 V4 2.081850 1_665
F5 V2 2.086386 1_555
F5 Li0 2.508803 1_565
F6 Li3 1.946929 1_555
F6 V6 2.080315 1_655
F6 V5 2.125740 1_555
F6 Li2 2.365703 1_665
F7 V0 2.010208 1_454
F7 V1 2.072398 1_555
F7 Li4 2.123985 1_545
F8 Li5 1.974974 1_655
F8 V3 2.058058 1_555
F8 V5 2.058470 1_555
F9 Li0 2.028046 1_455
F9 V4 2.094245 1_555
F9 V2 2.122616 1_555
F9 Li3 2.480989 1_555
F10 V0 2.015888 1_565
F10 V7 2.019576 1_555
F11 Li2 2.037659 1_555
F11 V4 2.049038 1_555
F11 V6 2.097933 1_555
F11 Li3 2.365325 1_555
F12 Li2 1.952631 1_555
F12 V5 2.086257 1_445
F12 V3 2.122915 1_555
F12 Li5 2.522801 1_545
F13 V2 2.007989 1_555
F13 Li4 2.026799 1_555
F13 V1 2.103234 1_455
F14 Li5 1.956783 1_555
F14 V3 2.063174 1_555
F14 V7 2.115537 1_555
F15 V4 1.950364 1_565
F15 V2 2.116539 1_555
F15 Li0 2.363554 1_565
F16 Li1 2.007299 1_555
F16 V7 2.024125 1_555
F16 V0 2.087246 1_455
F17 V7 2.009220 1_555
F17 V3 2.024284 1_565
F17 Li5 2.211483 1_555
