# generated using pymatgen
data_Mg7Cu17O24
_symmetry_space_group_name_H-M   'P 1'
_cell_length_a   8.08846072
_cell_length_b   9.42752560
_cell_length_c   6.47254130
_cell_angle_alpha   90.01265395
_cell_angle_beta   90.00814830
_cell_angle_gamma   90.00055308
_symmetry_Int_Tables_number   1
_chemical_formula_structural   Mg7Cu17O24
_chemical_formula_sum   'Mg7 Cu17 O24'
_cell_volume   493.55825041
_cell_formula_units_Z   1
loop_
 _symmetry_equiv_pos_site_id
 _symmetry_equiv_pos_as_xyz
  1  'x, y, z'
loop_
 _atom_site_type_symbol
 _atom_site_label
 _atom_site_symmetry_multiplicity
 _atom_site_fract_x
 _atom_site_fract_y
 _atom_site_fract_z
 _atom_site_occupancy
  Mg  Mg0  1  0.12582833  0.25001955  0.18484499  1
  Mg  Mg1  1  0.12462532  0.24999883  0.68473653  1
  Mg  Mg2  1  0.37494602  0.74998047  0.31512505  1
  Mg  Mg3  1  0.37496897  0.75000241  0.81442797  1
  Mg  Mg4  1  0.62417587  0.24999773  0.18485771  1
  Mg  Mg5  1  0.62536860  0.24998880  0.68467879  1
  Mg  Mg6  1  0.87508382  0.75000119  0.31740530  1
  Cu  Cu0  1  0.12462385  0.58515019  0.08565935  1
  Cu  Cu1  1  0.12372746  0.58514317  0.58473316  1
  Cu  Cu2  1  0.12461705  0.91483076  0.08565578  1
  Cu  Cu3  1  0.12377007  0.91486532  0.58470864  1
  Cu  Cu4  1  0.37502573  0.08514552  0.41602768  1
  Cu  Cu5  1  0.37505922  0.08540995  0.91559885  1
  Cu  Cu6  1  0.37505578  0.41484124  0.41604266  1
  Cu  Cu7  1  0.37501335  0.41460923  0.91559969  1
  Cu  Cu8  1  0.62523451  0.58521983  0.08558758  1
  Cu  Cu9  1  0.62626841  0.58520039  0.58470900  1
  Cu  Cu10  1  0.62524258  0.91479244  0.08566012  1
  Cu  Cu11  1  0.62622618  0.91478999  0.58457465  1
  Cu  Cu12  1  0.87503344  0.08568443  0.40727413  1
  Cu  Cu13  1  0.87508448  0.08621870  0.91510131  1
  Cu  Cu14  1  0.87501557  0.41431711  0.40726819  1
  Cu  Cu15  1  0.87511094  0.41374003  0.91518418  1
  Cu  Cu16  1  0.87486358  0.74995577  0.82230540  1
  O  O0  1  0.12510350  0.09626252  0.93984218  1
  O  O1  1  0.12496849  0.40365841  0.93979660  1
  O  O2  1  0.12391024  0.09626744  0.44007122  1
  O  O3  1  0.12398341  0.40368558  0.44006618  1
  O  O4  1  0.12492973  0.75008206  0.26047868  1
  O  O5  1  0.11936869  0.75003970  0.75756213  1
  O  O6  1  0.37499811  0.24998335  0.23855687  1
  O  O7  1  0.37502082  0.24996932  0.73916919  1
  O  O8  1  0.37553462  0.59773199  0.05839837  1
  O  O9  1  0.37502351  0.59775368  0.56292238  1
  O  O10  1  0.37506256  0.90229466  0.05836942  1
  O  O11  1  0.37522094  0.90227510  0.56293668  1
  O  O12  1  0.62491871  0.09630426  0.93984812  1
  O  O13  1  0.62608459  0.09627748  0.44001105  1
  O  O14  1  0.62601436  0.40358498  0.44001077  1
  O  O15  1  0.62504605  0.40386976  0.93992839  1
  O  O16  1  0.62509581  0.74986306  0.26008334  1
  O  O17  1  0.63063054  0.75014080  0.75751140  1
  O  O18  1  0.87500114  0.24996422  0.23351816  1
  O  O19  1  0.87499001  0.25000701  0.73877873  1
  O  O20  1  0.87443082  0.59047025  0.07140619  1
  O  O21  1  0.87498292  0.59145015  0.55577185  1
  O  O22  1  0.87490839  0.90951806  0.07138202  1
  O  O23  1  0.87480289  0.90864312  0.55581434  1
loop_
_geom_bond_atom_site_label_1
_geom_bond_atom_site_label_2
_geom_bond_distance
_geom_bond_site_symmetry_2
Mg0 O6 2.045116 1_555
Mg0 O18 2.053165 1_455
Mg0 O1 2.148183 1_554
Mg0 O0 2.148241 1_554
Mg0 O3 2.196986 1_555
Mg0 O2 2.198031 1_555
Mg1 O19 2.049288 1_455
Mg1 O7 2.055681 1_555
Mg1 O2 2.146466 1_555
Mg1 O3 2.146677 1_555
Mg1 O1 2.196111 1_555
Mg1 O0 2.197293 1_555
Mg2 O4 2.052897 1_555
Mg2 O16 2.054502 1_555
Mg2 O9 2.152445 1_555
Mg2 O11 2.152469 1_555
Mg2 O8 2.195517 1_555
Mg2 O10 2.196538 1_555
Mg3 O5 2.099870 1_555
Mg3 O17 2.100519 1_555
Mg3 O10 2.133855 1_556
Mg3 O8 2.134329 1_556
Mg3 O9 2.170053 1_555
Mg3 O11 2.170610 1_555
Mg4 O6 2.045263 1_555
Mg4 O18 2.053048 1_555
Mg4 O12 2.147871 1_554
Mg4 O15 2.149099 1_554
Mg4 O14 2.196161 1_555
Mg4 O13 2.197475 1_555
Mg5 O19 2.049143 1_555
Mg5 O7 2.055463 1_555
Mg5 O14 2.146090 1_555
Mg5 O13 2.146351 1_555
Mg5 O12 2.197281 1_555
Mg5 O15 2.198410 1_555
Mg6 O4 2.054236 1_655
Mg6 O16 2.055724 1_555
Mg6 O21 2.148401 1_555
Mg6 O23 2.148722 1_555
Mg6 O20 2.190013 1_555
Mg6 O22 2.190513 1_555
Cu0 O4 1.922834 1_555
Cu0 O1 1.954024 1_554
Cu0 O20 2.026387 1_455
Cu0 O8 2.040614 1_555
Cu1 O5 1.915339 1_555
Cu1 O3 1.950014 1_555
Cu1 O21 2.021524 1_455
Cu1 O9 2.040981 1_555
Cu2 O4 1.921856 1_555
Cu2 O0 1.953742 1_564
Cu2 O22 2.022477 1_455
Cu2 O10 2.036859 1_555
Cu3 O5 1.915296 1_555
Cu3 O2 1.949825 1_565
Cu3 O23 2.023249 1_455
Cu3 O11 2.042198 1_555
Cu4 O6 1.932673 1_555
Cu4 O11 1.969040 1_545
Cu4 O13 2.039282 1_555
Cu4 O2 2.039809 1_555
Cu5 O7 1.926560 1_555
Cu5 O10 1.958274 1_546
Cu5 O12 2.029640 1_555
Cu5 O0 2.030438 1_555
Cu6 O6 1.932475 1_555
Cu6 O9 1.968927 1_555
Cu6 O14 2.038533 1_555
Cu6 O3 2.039469 1_555
Cu7 O7 1.926768 1_555
Cu7 O8 1.958067 1_556
Cu7 O15 2.031006 1_555
Cu7 O1 2.031181 1_555
Cu8 O16 1.919401 1_555
Cu8 O15 1.952216 1_554
Cu8 O20 2.018324 1_555
Cu8 O8 2.030748 1_555
Cu9 O17 1.915569 1_555
Cu9 O14 1.951416 1_555
Cu9 O21 2.021304 1_555
Cu9 O9 2.040489 1_555
Cu10 O16 1.921710 1_555
Cu10 O12 1.954395 1_564
Cu10 O22 2.022150 1_555
Cu10 O10 2.034652 1_555
Cu11 O17 1.914257 1_555
Cu11 O13 1.950302 1_565
Cu11 O23 2.020059 1_555
Cu11 O11 2.038465 1_555
Cu12 O18 1.914216 1_555
Cu12 O23 1.926352 1_545
Cu12 O2 2.026616 1_655
Cu12 O13 2.027221 1_555
Cu13 O19 1.920298 1_555
Cu13 O22 1.949103 1_546
Cu13 O0 2.030783 1_655
Cu13 O12 2.032033 1_555
Cu13 O18 2.574730 1_556
Cu14 O18 1.914349 1_555
Cu14 O21 1.926614 1_555
Cu14 O3 2.027377 1_655
Cu14 O14 2.027713 1_555
Cu15 O19 1.919792 1_555
Cu15 O20 1.948770 1_556
Cu15 O1 2.029439 1_655
Cu15 O15 2.031127 1_555
Cu15 O18 2.575018 1_556
Cu16 O17 2.019438 1_555
Cu16 O5 2.021638 1_655
Cu16 O22 2.204730 1_556
Cu16 O20 2.204840 1_556
Cu16 O21 2.282101 1_555
Cu16 O23 2.283514 1_555
