# generated using pymatgen
data_Li5Fe3Co2(PO4)6
_symmetry_space_group_name_H-M   'P 1'
_cell_length_a   8.44224900
_cell_length_b   8.54114331
_cell_length_c   8.55198567
_cell_angle_alpha   62.01585369
_cell_angle_beta   62.32951847
_cell_angle_gamma   62.47597124
_symmetry_Int_Tables_number   1
_chemical_formula_structural   Li5Fe3Co2(PO4)6
_chemical_formula_sum   'Li5 Fe3 Co2 P6 O24'
_cell_volume   458.15754826
_cell_formula_units_Z   1
loop_
 _symmetry_equiv_pos_site_id
 _symmetry_equiv_pos_as_xyz
  1  'x, y, z'
loop_
 _atom_site_type_symbol
 _atom_site_label
 _atom_site_symmetry_multiplicity
 _atom_site_fract_x
 _atom_site_fract_y
 _atom_site_fract_z
 _atom_site_occupancy
  Li  Li0  1  0.15813700  0.15832800  0.16101800  1
  Li  Li1  1  0.24573100  0.64444100  0.85860200  1
  Li  Li2  1  0.80964800  0.32886400  0.14756400  1
  Li  Li3  1  0.33106300  0.14372500  0.81317600  1
  Li  Li4  1  0.14303000  0.81186300  0.33308800  1
  Fe  Fe0  1  0.64612700  0.64554900  0.64283900  1
  Fe  Fe1  1  0.85356800  0.85757700  0.85375200  1
  Fe  Fe2  1  0.35189000  0.34646600  0.34882800  1
  Co  Co0  1  0.99219000  0.00307200  0.00288400  1
  Co  Co1  1  0.50881800  0.49960600  0.49582800  1
  P  P0  1  0.94406400  0.54789200  0.24974700  1
  P  P1  1  0.55303500  0.24309600  0.94654800  1
  P  P2  1  0.24711500  0.94578500  0.54744000  1
  P  P3  1  0.74473400  0.04341200  0.45796900  1
  P  P4  1  0.44763800  0.74346900  0.03940000  1
  P  P5  1  0.05206300  0.46127500  0.74749700  1
  O  O0  1  0.50937900  0.30602300  0.10919600  1
  O  O1  1  0.31097300  0.10810500  0.50446800  1
  O  O2  1  0.10739200  0.50113800  0.31671700  1
  O  O3  1  0.94729500  0.73991800  0.08718000  1
  O  O4  1  0.96926600  0.39781400  0.18653200  1
  O  O5  1  0.74780100  0.57561000  0.40617300  1
  O  O6  1  0.75115500  0.08907700  0.93486500  1
  O  O7  1  0.56809200  0.40772000  0.75548700  1
  O  O8  1  0.81478500  0.00413100  0.61263700  1
  O  O9  1  0.39998700  0.74524900  0.57878500  1
  O  O10  1  0.90321100  0.04358900  0.26672400  1
  O  O11  1  0.62067200  0.79716000  0.98387400  1
  O  O12  1  0.40106600  0.17696500  0.97470400  1
  O  O13  1  0.09884300  0.92687400  0.75043900  1
  O  O14  1  0.60107300  0.24889600  0.42428100  1
  O  O15  1  0.18218300  0.97288100  0.39795400  1
  O  O16  1  0.42554500  0.59640100  0.24235100  1
  O  O17  1  0.25924200  0.90859900  0.05018600  1
  O  O18  1  0.25423400  0.42247400  0.59726600  1
  O  O19  1  0.04005500  0.61003900  0.81025100  1
  O  O20  1  0.04378700  0.27118700  0.90519000  1
  O  O21  1  0.89184900  0.53604200  0.66916900  1
  O  O22  1  0.65329700  0.89857200  0.51618900  1
  O  O23  1  0.46996100  0.66812100  0.89620100  1
loop_
_geom_bond_atom_site_label_1
_geom_bond_atom_site_label_2
_geom_bond_distance
_geom_bond_site_symmetry_2
Li0 O15 1.930994 1_545
Li0 O12 1.949071 1_554
Li0 O4 1.963497 1_455
Li0 O17 2.374806 1_545
Li0 O10 2.391722 1_455
Li0 O20 2.402119 1_554
Li1 O9 2.090943 1_555
Li1 O13 2.102169 1_555
Li1 O19 2.127135 1_555
Li1 O23 2.169792 1_555
Li1 O3 2.420080 1_456
Li1 O7 2.574998 1_555
Li2 O4 1.899591 1_555
Li2 O10 2.058615 1_555
Li2 O20 2.167767 1_654
Li2 O14 2.211746 1_555
Li3 O12 1.902482 1_555
Li3 O20 2.068201 1_555
Li3 O17 2.161714 1_546
Li3 O18 2.249002 1_555
Li4 O15 1.901257 1_555
Li4 O17 2.041390 1_555
Li4 O10 2.155904 1_465
Li4 O16 2.289511 1_555
Fe0 O21 1.916186 1_555
Fe0 O22 1.926273 1_555
Fe0 O23 2.019386 1_555
Fe0 O5 2.058452 1_555
Fe0 O7 2.073476 1_555
Fe0 O9 2.080192 1_555
Fe1 O11 1.933172 1_555
Fe1 O8 1.936997 1_565
Fe1 O19 2.050569 1_655
Fe1 O6 2.070856 1_565
Fe1 O13 2.088400 1_655
Fe1 O3 2.114376 1_556
Fe2 O1 1.927606 1_555
Fe2 O2 1.935704 1_555
Fe2 O0 1.948340 1_555
Fe2 O16 2.156300 1_555
Fe2 O14 2.161499 1_555
Fe2 O18 2.188177 1_555
Co0 O6 2.082195 1_554
Co0 O10 2.166446 1_555
Co0 O3 2.174443 1_545
Co0 O17 2.181045 1_645
Co0 O13 2.206065 1_644
Co0 O20 2.218185 1_654
Co1 O5 2.094391 1_555
Co1 O9 2.181563 1_555
Co1 O14 2.193608 1_555
Co1 O7 2.197950 1_555
Co1 O18 2.201486 1_555
Co1 O16 2.252365 1_555
O0 P1 1.549794 1_554
O1 P2 1.541569 1_545
O2 P0 1.548755 1_455
O3 P0 1.577925 1_555
O4 P0 1.507340 1_555
O5 P0 1.570661 1_555
O6 P1 1.572447 1_555
O7 P1 1.574558 1_555
O8 P3 1.529236 1_555
O9 P2 1.586994 1_555
O10 P3 1.559539 1_555
O11 P4 1.529784 1_556
O12 P1 1.509374 1_555
O13 P2 1.585000 1_555
O14 P3 1.586470 1_555
O15 P2 1.498108 1_555
O16 P4 1.579540 1_555
O17 P4 1.562029 1_555
O18 P5 1.585473 1_555
O19 P5 1.543732 1_555
O20 P5 1.556312 1_555
O21 P5 1.525680 1_655
O22 P3 1.523747 1_565
O23 P4 1.537071 1_556
