# generated using pymatgen
data_Ti3(BiO3)4
_symmetry_space_group_name_H-M   'P 1'
_cell_length_a   5.40610869
_cell_length_b   5.44690420
_cell_length_c   16.74622258
_cell_angle_alpha   80.68139684
_cell_angle_beta   90.00000000
_cell_angle_gamma   90.00000000
_symmetry_Int_Tables_number   1
_chemical_formula_structural   Ti3(BiO3)4
_chemical_formula_sum   'Ti6 Bi8 O24'
_cell_volume   486.61099238
_cell_formula_units_Z   2
loop_
 _symmetry_equiv_pos_site_id
 _symmetry_equiv_pos_as_xyz
  1  'x, y, z'
loop_
 _atom_site_type_symbol
 _atom_site_label
 _atom_site_symmetry_multiplicity
 _atom_site_fract_x
 _atom_site_fract_y
 _atom_site_fract_z
 _atom_site_occupancy
  Ti  Ti0  1  0.75209027  0.05181979  0.99667788  1
  Ti  Ti1  1  0.24790973  0.55181979  0.99667788  1
  Ti  Ti2  1  0.75220084  0.18491198  0.74306974  1
  Ti  Ti3  1  0.24779916  0.68491198  0.74306974  1
  Ti  Ti4  1  0.75038303  0.92863137  0.25536953  1
  Ti  Ti5  1  0.24961697  0.42863137  0.25536953  1
  Bi  Bi0  1  0.25139503  0.07600451  0.86663465  1
  Bi  Bi1  1  0.74860497  0.57600451  0.86663465  1
  Bi  Bi2  1  0.27233586  0.20463772  0.57768450  1
  Bi  Bi3  1  0.72766414  0.70463772  0.57768450  1
  Bi  Bi4  1  0.25228809  0.94239492  0.13188901  1
  Bi  Bi5  1  0.74771191  0.44239492  0.13188901  1
  Bi  Bi6  1  0.22910853  0.78489815  0.42341755  1
  Bi  Bi7  1  0.77089147  0.28489815  0.42341755  1
  O  O0  1  0.47248132  0.31288957  0.97706991  1
  O  O1  1  0.52751868  0.81288957  0.97706991  1
  O  O2  1  0.50758596  0.01569379  0.49867503  1
  O  O3  1  0.49241404  0.51569379  0.49867503  1
  O  O4  1  0.82452948  0.15678897  0.87958390  1
  O  O5  1  0.17547052  0.65678897  0.87958390  1
  O  O6  1  0.69012267  0.24471534  0.63736786  1
  O  O7  1  0.30987733  0.74471534  0.63736786  1
  O  O8  1  0.46974413  0.40617568  0.77839826  1
  O  O9  1  0.53025587  0.90617568  0.77839826  1
  O  O10  1  0.94883231  0.49696914  0.74977270  1
  O  O11  1  0.05116769  0.99696914  0.74977270  1
  O  O12  1  0.96254879  0.35793735  0.01276570  1
  O  O13  1  0.03745121  0.85793735  0.01276570  1
  O  O14  1  0.99222058  0.51529605  0.50052763  1
  O  O15  1  0.00777942  0.01529605  0.50052763  1
  O  O16  1  0.68328048  0.03913360  0.11317221  1
  O  O17  1  0.31671952  0.53913360  0.11317221  1
  O  O18  1  0.80701401  0.88088186  0.36041475  1
  O  O19  1  0.19298599  0.38088186  0.36041475  1
  O  O20  1  0.01995903  0.19217611  0.21880453  1
  O  O21  1  0.98004097  0.69217611  0.21880453  1
  O  O22  1  0.53991801  0.23644309  0.24450266  1
  O  O23  1  0.46008199  0.73644309  0.24450266  1
loop_
_geom_bond_atom_site_label_1
_geom_bond_atom_site_label_2
_geom_bond_distance
_geom_bond_site_symmetry_2
Bi0 O5 2.295469 1_545
Bi0 O11 2.336600 1_545
Bi0 O4 2.365786 1_455
Bi0 O9 2.398844 1_545
Bi0 O8 2.439357 1_555
Bi0 O1 2.616124 1_545
Bi0 O0 2.699324 1_555
Bi0 O13 2.792089 1_546
Bi1 O4 2.295469 1_555
Bi1 O10 2.336600 1_555
Bi1 O5 2.365786 1_655
Bi1 O8 2.398844 1_555
Bi1 O9 2.439357 1_555
Bi1 O0 2.616124 1_555
Bi1 O1 2.699324 1_555
Bi1 O12 2.792089 1_556
Bi2 O2 2.206403 1_555
Bi2 O15 2.282586 1_555
Bi2 O3 2.304519 1_555
Bi2 O14 2.473445 1_455
Bi2 O6 2.493699 1_555
Bi2 O7 2.550503 1_545
Bi3 O3 2.206403 1_555
Bi3 O14 2.282586 1_555
Bi3 O2 2.304519 1_565
Bi3 O15 2.473445 1_665
Bi3 O7 2.493699 1_555
Bi3 O6 2.550503 1_555
Bi4 O17 2.295050 1_555
Bi4 O23 2.322001 1_555
Bi4 O21 2.345166 1_455
Bi4 O16 2.398180 1_565
Bi4 O13 2.416038 1_555
Bi4 O20 2.487647 1_565
Bi5 O16 2.295050 1_555
Bi5 O22 2.322001 1_555
Bi5 O20 2.345166 1_655
Bi5 O17 2.398180 1_555
Bi5 O12 2.416038 1_555
Bi5 O21 2.487647 1_555
Bi6 O14 2.202245 1_455
Bi6 O3 2.272926 1_555
Bi6 O15 2.280101 1_565
Bi6 O2 2.438894 1_565
Bi6 O18 2.532759 1_455
Bi6 O19 2.597307 1_555
Bi7 O15 2.202245 1_655
Bi7 O2 2.272926 1_555
Bi7 O14 2.280101 1_555
Bi7 O3 2.438894 1_555
Bi7 O19 2.532759 1_655
Bi7 O18 2.597307 1_545
O0 Ti1 1.847666 1_555
O0 Ti0 2.064867 1_555
O1 Ti0 1.847666 1_565
O1 Ti1 2.064867 1_555
O4 Ti0 1.990538 1_555
O4 Ti2 2.299823 1_555
O5 Ti1 1.990538 1_555
O5 Ti3 2.299823 1_555
O6 Ti2 1.779125 1_555
O7 Ti3 1.779125 1_555
O8 Ti3 1.950351 1_555
O8 Ti2 2.089292 1_555
O9 Ti2 1.950351 1_565
O9 Ti3 2.089292 1_555
O10 Ti3 1.906729 1_655
O10 Ti2 2.023244 1_555
O11 Ti2 1.906729 1_465
O11 Ti3 2.023244 1_555
O12 Ti1 1.864297 1_654
O12 Ti0 2.071898 1_554
O13 Ti0 1.864297 1_464
O13 Ti1 2.071898 1_554
O16 Ti0 1.976177 1_554
O16 Ti4 2.387498 1_545
O17 Ti1 1.976177 1_554
O17 Ti5 2.387498 1_555
O18 Ti4 1.762861 1_555
O19 Ti5 1.762861 1_555
O20 Ti5 1.957196 1_555
O20 Ti4 2.067569 1_445
O21 Ti4 1.957196 1_555
O21 Ti5 2.067569 1_655
O22 Ti5 1.911460 1_555
O22 Ti4 2.009962 1_545
O23 Ti4 1.911460 1_555
O23 Ti5 2.009962 1_555
