# generated using pymatgen
data_NaV2O5
_symmetry_space_group_name_H-M   'P 1'
_cell_length_a   5.89915652
_cell_length_b   5.89915652
_cell_length_c   11.42386300
_cell_angle_alpha   90.00000000
_cell_angle_beta   90.00000000
_cell_angle_gamma   143.53575800
_symmetry_Int_Tables_number   1
_chemical_formula_structural   NaV2O5
_chemical_formula_sum   'Na2 V4 O10'
_cell_volume   236.27288953
_cell_formula_units_Z   2
loop_
 _symmetry_equiv_pos_site_id
 _symmetry_equiv_pos_as_xyz
  1  'x, y, z'
loop_
 _atom_site_type_symbol
 _atom_site_label
 _atom_site_symmetry_multiplicity
 _atom_site_fract_x
 _atom_site_fract_y
 _atom_site_fract_z
 _atom_site_occupancy
  Na  Na0  1  0.90345200  0.09654800  0.75000000  1
  Na  Na1  1  0.09654800  0.90345200  0.25000000  1
  V  V0  1  0.79584000  0.20416000  0.40033000  1
  V  V1  1  0.79584000  0.20416000  0.09967000  1
  V  V2  1  0.20416000  0.79584000  0.59967000  1
  V  V3  1  0.20416000  0.79584000  0.90033000  1
  O  O0  1  0.94090300  0.05909700  0.11650200  1
  O  O1  1  0.94090300  0.05909700  0.38349800  1
  O  O2  1  0.73197000  0.26803000  0.25000000  1
  O  O3  1  0.75679800  0.24320200  0.57086100  1
  O  O4  1  0.75679800  0.24320200  0.92913900  1
  O  O5  1  0.26803000  0.73197000  0.75000000  1
  O  O6  1  0.24320200  0.75679800  0.07086100  1
  O  O7  1  0.24320200  0.75679800  0.42913900  1
  O  O8  1  0.05909700  0.94090300  0.61650200  1
  O  O9  1  0.05909700  0.94090300  0.88349800  1
loop_
_geom_bond_atom_site_label_1
_geom_bond_atom_site_label_2
_geom_bond_distance
_geom_bond_site_symmetry_2
Na0 O9 2.316874 1_645
Na0 O8 2.316874 1_645
Na0 O5 2.389427 1_655
Na0 O5 2.389427 1_545
Na0 O4 2.624648 1_555
Na0 O3 2.624648 1_555
Na1 O0 2.316874 1_465
Na1 O1 2.316874 1_465
Na1 O2 2.389427 1_565
Na1 O2 2.389427 1_455
Na1 O6 2.624648 1_555
Na1 O7 2.624648 1_555
O0 V1 1.636909 1_555
O1 V0 1.636909 1_555
O2 V1 1.860525 1_555
O2 V0 1.860525 1_555
O3 V2 1.965372 1_655
O3 V2 1.965372 1_545
O3 V0 1.996645 1_555
O4 V3 1.965372 1_655
O4 V3 1.965372 1_545
O4 V1 1.996645 1_556
O5 V2 1.860525 1_555
O5 V3 1.860525 1_555
O6 V1 1.965372 1_565
O6 V1 1.965372 1_455
O6 V3 1.996645 1_554
O7 V0 1.965372 1_565
O7 V0 1.965372 1_455
O7 V2 1.996645 1_555
O8 V2 1.636909 1_555
O9 V3 1.636909 1_555
