# generated using pymatgen
data_Li3Mn2P2(CO7)2
_symmetry_space_group_name_H-M   'P 1'
_cell_length_a   5.03537000
_cell_length_b   6.35970349
_cell_length_c   8.30543416
_cell_angle_alpha   89.73295988
_cell_angle_beta   85.74686760
_cell_angle_gamma   89.91207027
_symmetry_Int_Tables_number   1
_chemical_formula_structural   Li3Mn2P2(CO7)2
_chemical_formula_sum   'Li3 Mn2 P2 C2 O14'
_cell_volume   265.23322786
_cell_formula_units_Z   1
loop_
 _symmetry_equiv_pos_site_id
 _symmetry_equiv_pos_as_xyz
  1  'x, y, z'
loop_
 _atom_site_type_symbol
 _atom_site_label
 _atom_site_symmetry_multiplicity
 _atom_site_fract_x
 _atom_site_fract_y
 _atom_site_fract_z
 _atom_site_occupancy
  Li  Li0  1  0.24351600  0.04733500  0.27385700  1
  Li  Li1  1  0.74814000  0.52972300  0.73023400  1
  Li  Li2  1  0.23401700  0.75655800  0.90239700  1
  Mn  Mn0  1  0.80603200  0.74623900  0.32844500  1
  Mn  Mn1  1  0.20424500  0.24429000  0.67305000  1
  P  P0  1  0.72636300  0.25082500  0.42161800  1
  P  P1  1  0.28116300  0.74903600  0.57934000  1
  C  C0  1  0.70912400  0.74983100  0.04173400  1
  C  C1  1  0.29330900  0.25017900  0.95325400  1
  O  O0  1  0.95634300  0.75273600  0.07157400  1
  O  O1  1  0.34332600  0.23185200  0.09562100  1
  O  O2  1  0.53870900  0.76717500  0.16975400  1
  O  O3  1  0.82810100  0.05857900  0.32347300  1
  O  O4  1  0.79538500  0.44046200  0.31459000  1
  O  O5  1  0.15111900  0.76492400  0.41852500  1
  O  O6  1  0.41842900  0.22881900  0.46451100  1
  O  O7  1  0.58132700  0.72561700  0.54748000  1
  O  O8  1  0.85703800  0.26574100  0.58499200  1
  O  O9  1  0.20465100  0.93686600  0.69455400  1
  O  O10  1  0.17053900  0.56179500  0.68914800  1
  O  O11  1  0.47662800  0.26762300  0.82987800  1
  O  O12  1  0.62389200  0.72804000  0.90360300  1
  O  O13  1  0.05303400  0.24812500  0.89920400  1
loop_
_geom_bond_atom_site_label_1
_geom_bond_atom_site_label_2
_geom_bond_distance
_geom_bond_site_symmetry_2
Li0 O1 1.922566 1_555
Li0 O3 2.102946 1_455
Li0 O5 2.187571 1_545
Li0 O6 2.200509 1_555
Li0 O2 2.438679 1_545
Li1 O12 1.984024 1_555
Li1 O8 2.119505 1_555
Li1 O10 2.138908 1_655
Li1 O7 2.174803 1_555
Li1 O11 2.271306 1_555
Li2 O0 1.907404 1_456
Li2 O12 1.972008 1_555
Li2 O9 2.082197 1_555
Li2 O10 2.208824 1_555
Mn0 O5 1.946160 1_655
Mn0 O4 1.949642 1_555
Mn0 O2 1.956454 1_555
Mn0 O3 1.989731 1_565
Mn0 O7 2.073590 1_555
Mn0 O0 2.210392 1_555
Mn1 O8 1.948872 1_455
Mn1 O9 1.962449 1_545
Mn1 O11 1.966506 1_555
Mn1 O13 1.973983 1_555
Mn1 O6 1.974051 1_555
Mn1 O10 2.030296 1_555
C0 O12 1.262635 1_554
C0 O0 1.287347 1_555
C0 O2 1.320797 1_555
C1 O1 1.232042 1_556
C1 O13 1.321418 1_555
C1 O11 1.331665 1_555
O3 P0 1.538549 1_555
O4 P0 1.520181 1_555
O5 P1 1.533360 1_555
O6 P0 1.571308 1_555
O7 P1 1.522169 1_555
O8 P0 1.554650 1_555
O9 P1 1.563837 1_555
O10 P1 1.573720 1_555
