# generated using pymatgen
data_Na3(W3O8)4
_symmetry_space_group_name_H-M   'P 1'
_cell_length_a   17.87694000
_cell_length_b   17.87694000
_cell_length_c   3.88802800
_cell_angle_alpha   90.00000000
_cell_angle_beta   90.00000000
_cell_angle_gamma   90.00000000
_symmetry_Int_Tables_number   1
_chemical_formula_structural   Na3(W3O8)4
_chemical_formula_sum   'Na6 W24 O64'
_cell_volume   1242.55536525
_cell_formula_units_Z   2
loop_
 _symmetry_equiv_pos_site_id
 _symmetry_equiv_pos_as_xyz
  1  'x, y, z'
loop_
 _atom_site_type_symbol
 _atom_site_label
 _atom_site_symmetry_multiplicity
 _atom_site_fract_x
 _atom_site_fract_y
 _atom_site_fract_z
 _atom_site_occupancy
  Na  Na0  1  0.50000000  0.00000000  0.57749400  1
  Na  Na1  1  0.42808700  0.26585500  0.54592800  1
  Na  Na2  1  0.73414500  0.42808700  0.54592800  1
  Na  Na3  1  0.00000000  0.50000000  0.57749400  1
  Na  Na4  1  0.26585500  0.57191300  0.54592800  1
  Na  Na5  1  0.57191300  0.73414500  0.54592800  1
  W  W0  1  0.36359400  0.06730700  0.07404000  1
  W  W1  1  0.14180400  0.07287700  0.06820700  1
  W  W2  1  0.74832100  0.07895300  0.07100400  1
  W  W3  1  0.92712300  0.14180400  0.06820700  1
  W  W4  1  0.56743400  0.14552600  0.07601500  1
  W  W5  1  0.26479600  0.25065500  0.07262000  1
  W  W6  1  0.07895300  0.25167900  0.07100400  1
  W  W7  1  0.74934500  0.26479600  0.07262000  1
  W  W8  1  0.55991300  0.35968000  0.07973900  1
  W  W9  1  0.93269300  0.36359400  0.07404000  1
  W  W10  1  0.14552600  0.43256600  0.07601500  1
  W  W11  1  0.35968000  0.44008700  0.07973900  1
  W  W12  1  0.64032000  0.55991300  0.07973900  1
  W  W13  1  0.85447400  0.56743400  0.07601500  1
  W  W14  1  0.06730700  0.63640600  0.07404000  1
  W  W15  1  0.44008700  0.64032000  0.07973900  1
  W  W16  1  0.25065500  0.73520400  0.07262000  1
  W  W17  1  0.92104700  0.74832100  0.07100400  1
  W  W18  1  0.73520400  0.74934500  0.07262000  1
  W  W19  1  0.43256600  0.85447400  0.07601500  1
  W  W20  1  0.07287700  0.85819600  0.06820700  1
  W  W21  1  0.25167900  0.92104700  0.07100400  1
  W  W22  1  0.85819600  0.92712300  0.06820700  1
  W  W23  1  0.63640600  0.93269300  0.07404000  1
  O  O0  1  0.25244000  0.03549600  0.07090300  1
  O  O1  1  0.63165700  0.04692200  0.07394700  1
  O  O2  1  0.86702500  0.04191300  0.06870600  1
  O  O3  1  0.36714300  0.06691000  0.57412900  1
  O  O4  1  0.14110200  0.07290900  0.56869600  1
  O  O5  1  0.74825900  0.07941000  0.57102800  1
  O  O6  1  0.47809100  0.08704600  0.07572700  1
  O  O7  1  0.92709100  0.14110200  0.56869600  1
  O  O8  1  0.04191300  0.13297500  0.06870600  1
  O  O9  1  0.56640900  0.14488600  0.57600600  1
  O  O10  1  0.81607800  0.17349600  0.07064500  1
  O  O11  1  0.34256400  0.17777800  0.07467300  1
  O  O12  1  0.67704800  0.17576200  0.07354500  1
  O  O13  1  0.17349600  0.18392200  0.07064500  1
  O  O14  1  0.53024800  0.25025300  0.07952900  1
  O  O15  1  0.96450300  0.25244000  0.07090300  1
  O  O16  1  0.07941000  0.25174100  0.57102800  1
  O  O17  1  0.26393300  0.24997100  0.57337700  1
  O  O18  1  0.75002900  0.26393300  0.57337700  1
  O  O19  1  0.17576200  0.32295200  0.07354500  1
  O  O20  1  0.66670300  0.33043400  0.07746500  1
  O  O21  1  0.33043400  0.33329700  0.07746500  1
  O  O22  1  0.82222200  0.34256400  0.07467300  1
  O  O23  1  0.55885800  0.35705000  0.58003800  1
  O  O24  1  0.93309000  0.36714300  0.57412900  1
  O  O25  1  0.04692200  0.36834300  0.07394700  1
  O  O26  1  0.45909000  0.39674200  0.08188900  1
  O  O27  1  0.14488600  0.43359100  0.57600600  1
  O  O28  1  0.35705000  0.44114200  0.58003800  1
  O  O29  1  0.60325800  0.45909000  0.08188900  1
  O  O30  1  0.25025300  0.46975200  0.07952900  1
  O  O31  1  0.91295400  0.47809100  0.07572700  1
  O  O32  1  0.08704600  0.52190900  0.07572700  1
  O  O33  1  0.74974700  0.53024800  0.07952900  1
  O  O34  1  0.39674200  0.54091000  0.08188900  1
  O  O35  1  0.64295000  0.55885800  0.58003800  1
  O  O36  1  0.85511400  0.56640900  0.57600600  1
  O  O37  1  0.54091000  0.60325800  0.08188900  1
  O  O38  1  0.95307800  0.63165700  0.07394700  1
  O  O39  1  0.06691000  0.63285700  0.57412900  1
  O  O40  1  0.44114200  0.64295000  0.58003800  1
  O  O41  1  0.17777800  0.65743600  0.07467300  1
  O  O42  1  0.66956600  0.66670300  0.07746500  1
  O  O43  1  0.33329700  0.66956600  0.07746500  1
  O  O44  1  0.82423800  0.67704800  0.07354500  1
  O  O45  1  0.24997100  0.73606700  0.57337700  1
  O  O46  1  0.73606700  0.75002900  0.57337700  1
  O  O47  1  0.92059000  0.74825900  0.57102800  1
  O  O48  1  0.03549600  0.74756000  0.07090300  1
  O  O49  1  0.46975200  0.74974700  0.07952900  1
  O  O50  1  0.82650400  0.81607800  0.07064500  1
  O  O51  1  0.32295200  0.82423800  0.07354500  1
  O  O52  1  0.65743600  0.82222200  0.07467300  1
  O  O53  1  0.18392200  0.82650400  0.07064500  1
  O  O54  1  0.43359100  0.85511400  0.57600600  1
  O  O55  1  0.95808700  0.86702500  0.06870600  1
  O  O56  1  0.07290900  0.85889800  0.56869600  1
  O  O57  1  0.52190900  0.91295400  0.07572700  1
  O  O58  1  0.25174100  0.92059000  0.57102800  1
  O  O59  1  0.85889800  0.92709100  0.56869600  1
  O  O60  1  0.63285700  0.93309000  0.57412900  1
  O  O61  1  0.13297500  0.95808700  0.06870600  1
  O  O62  1  0.36834300  0.95307800  0.07394700  1
  O  O63  1  0.74756000  0.96450300  0.07090300  1
loop_
_geom_bond_atom_site_label_1
_geom_bond_atom_site_label_2
_geom_bond_distance
_geom_bond_site_symmetry_2
Na0 O6 2.515438 1_556
Na0 O57 2.515438 1_546
Na0 O6 2.526034 1_555
Na0 O57 2.526034 1_545
Na0 O60 2.659309 1_545
Na0 O3 2.659309 1_555
Na0 O9 2.849240 1_555
Na0 O54 2.849240 1_545
Na1 O14 2.588741 1_555
Na1 O14 2.778031 1_556
Na1 O21 2.796193 1_555
Na1 O23 2.853185 1_555
Na1 O11 2.858995 1_555
Na1 O17 2.950208 1_555
Na1 O21 2.961785 1_556
Na1 O26 3.006201 1_555
Na1 O11 3.007144 1_556
Na2 O33 2.588741 1_555
Na2 O33 2.778031 1_556
Na2 O20 2.796193 1_555
Na2 O35 2.853185 1_555
Na2 O22 2.858995 1_555
Na2 O18 2.950208 1_555
Na2 O20 2.961785 1_556
Na2 O29 3.006201 1_555
Na2 O22 3.007144 1_556
Na3 O32 2.515438 1_556
Na3 O31 2.515438 1_456
Na3 O32 2.526034 1_555
Na3 O31 2.526034 1_455
Na3 O24 2.659309 1_455
Na3 O39 2.659309 1_555
Na3 O27 2.849240 1_555
Na3 O36 2.849240 1_455
Na4 O30 2.588741 1_555
Na4 O30 2.778031 1_556
Na4 O43 2.796193 1_555
Na4 O28 2.853185 1_555
Na4 O41 2.858995 1_555
Na4 O45 2.950208 1_555
Na4 O43 2.961785 1_556
Na4 O34 3.006201 1_555
Na4 O41 3.007144 1_556
Na5 O49 2.588741 1_555
Na5 O49 2.778031 1_556
Na5 O42 2.796193 1_555
Na5 O40 2.853185 1_555
Na5 O52 2.858995 1_555
Na5 O46 2.950208 1_555
Na5 O42 2.961785 1_556
Na5 O37 3.006201 1_555
Na5 O52 3.007144 1_556
O0 W21 2.046043 1_545
O0 W0 2.066903 1_555
O0 W1 2.087703 1_555
O1 W23 2.043829 1_545
O1 W4 2.103679 1_555
O1 W2 2.162806 1_555
O2 W22 2.058156 1_545
O2 W3 2.084024 1_555
O2 W2 2.222992 1_555
O3 W0 1.944716 1_556
O3 W0 1.945408 1_555
O4 W1 1.942153 1_556
O4 W1 1.945956 1_555
O5 W2 1.943938 1_556
O5 W2 1.944125 1_555
O6 W4 1.908909 1_555
O6 W0 2.077061 1_555
O7 W3 1.942153 1_556
O7 W3 1.945956 1_555
O8 W3 2.058156 1_455
O8 W1 2.084024 1_555
O8 W6 2.222992 1_555
O9 W4 1.944099 1_555
O9 W4 1.944169 1_556
O10 W7 2.021689 1_555
O10 W3 2.064431 1_555
O10 W2 2.079373 1_555
O11 W5 1.905309 1_555
O11 W0 2.010351 1_555
O12 W4 2.032769 1_555
O12 W7 2.050318 1_555
O12 W2 2.149112 1_555
O13 W5 2.021689 1_555
O13 W1 2.064431 1_555
O13 W6 2.079373 1_555
O14 W4 1.986765 1_555
O14 W8 2.026829 1_555
O15 W6 2.046061 1_655
O15 W9 2.066898 1_555
O15 W3 2.087697 1_555
O16 W6 1.943938 1_556
O16 W6 1.944125 1_555
O17 W5 1.941171 1_556
O17 W5 1.947057 1_555
O18 W7 1.941171 1_556
O18 W7 1.947057 1_555
O19 W10 2.032769 1_555
O19 W5 2.050318 1_555
O19 W6 2.149112 1_555
O20 W7 1.886772 1_555
O20 W8 1.979396 1_555
O21 W5 1.886772 1_555
O21 W11 1.979396 1_555
O22 W7 1.905309 1_555
O22 W9 2.010351 1_555
O23 W8 1.943512 1_556
O23 W8 1.945836 1_555
O24 W9 1.944716 1_556
O24 W9 1.945408 1_555
O25 W9 2.043829 1_455
O25 W10 2.103679 1_555
O25 W6 2.162806 1_555
O26 W8 1.920344 1_555
O26 W11 1.938750 1_555
O27 W10 1.944099 1_555
O27 W10 1.944169 1_556
O28 W11 1.943512 1_556
O28 W11 1.945836 1_555
O29 W12 1.920344 1_555
O29 W8 1.938750 1_555
O30 W10 1.986765 1_555
O30 W11 2.026829 1_555
O31 W13 1.908909 1_555
O31 W9 2.077061 1_555
O32 W10 1.908909 1_555
O32 W14 2.077061 1_555
O33 W13 1.986765 1_555
O33 W12 2.026829 1_555
O34 W11 1.920344 1_555
O34 W15 1.938750 1_555
O35 W12 1.943512 1_556
O35 W12 1.945836 1_555
O36 W13 1.944099 1_555
O36 W13 1.944169 1_556
O37 W15 1.920344 1_555
O37 W12 1.938750 1_555
O38 W14 2.043829 1_655
O38 W13 2.103679 1_555
O38 W17 2.162806 1_555
O39 W14 1.944716 1_556
O39 W14 1.945408 1_555
O40 W15 1.943512 1_556
O40 W15 1.945836 1_555
O41 W16 1.905309 1_555
O41 W14 2.010351 1_555
O42 W18 1.886772 1_555
O42 W12 1.979396 1_555
O43 W16 1.886772 1_555
O43 W15 1.979396 1_555
O44 W13 2.032769 1_555
O44 W18 2.050318 1_555
O44 W17 2.149112 1_555
O45 W16 1.941171 1_556
O45 W16 1.947057 1_555
O46 W18 1.941171 1_556
O46 W18 1.947057 1_555
O47 W17 1.943938 1_556
O47 W17 1.944125 1_555
O48 W17 2.046043 1_455
O48 W14 2.066903 1_555
O48 W20 2.087703 1_555
O49 W19 1.986765 1_555
O49 W15 2.026829 1_555
O50 W18 2.021689 1_555
O50 W22 2.064431 1_555
O50 W17 2.079373 1_555
O51 W19 2.032769 1_555
O51 W16 2.050318 1_555
O51 W21 2.149112 1_555
O52 W18 1.905309 1_555
O52 W23 2.010351 1_555
O53 W16 2.021689 1_555
O53 W20 2.064431 1_555
O53 W21 2.079373 1_555
O54 W19 1.944099 1_555
O54 W19 1.944169 1_556
O55 W20 2.058156 1_655
O55 W22 2.084024 1_555
O55 W17 2.222992 1_555
O56 W20 1.942153 1_556
O56 W20 1.945956 1_555
O57 W19 1.908909 1_555
O57 W23 2.077061 1_555
O58 W21 1.943938 1_556
O58 W21 1.944125 1_555
O59 W22 1.942153 1_556
O59 W22 1.945956 1_555
O60 W23 1.944716 1_556
O60 W23 1.945408 1_555
O61 W1 2.058156 1_565
O61 W20 2.084024 1_555
O61 W21 2.222992 1_555
O62 W0 2.043829 1_565
O62 W19 2.103679 1_555
O62 W21 2.162806 1_555
O63 W2 2.046061 1_565
O63 W23 2.066898 1_555
O63 W22 2.087697 1_555
