# generated using pymatgen
data_Co2OF3
_symmetry_space_group_name_H-M   'P 1'
_cell_length_a   7.12766152
_cell_length_b   7.12766152
_cell_length_c   6.83188700
_cell_angle_alpha   90.00000000
_cell_angle_beta   90.00000000
_cell_angle_gamma   128.51113324
_symmetry_Int_Tables_number   1
_chemical_formula_structural   Co2OF3
_chemical_formula_sum   'Co8 O4 F12'
_cell_volume   271.58891529
_cell_formula_units_Z   4
loop_
 _symmetry_equiv_pos_site_id
 _symmetry_equiv_pos_as_xyz
  1  'x, y, z'
loop_
 _atom_site_type_symbol
 _atom_site_label
 _atom_site_symmetry_multiplicity
 _atom_site_fract_x
 _atom_site_fract_y
 _atom_site_fract_z
 _atom_site_occupancy
  Co  Co0  1  0.75947400  0.75947400  0.00000000  1
  Co  Co1  1  0.24052600  0.24052600  0.00000000  1
  Co  Co2  1  0.76050600  0.23949400  0.00000000  1
  Co  Co3  1  0.50000000  0.50000000  0.50000000  1
  Co  Co4  1  0.00000000  0.00000000  0.50000000  1
  Co  Co5  1  0.23949400  0.76050600  0.00000000  1
  Co  Co6  1  0.50000000  0.00000000  0.50000000  1
  Co  Co7  1  0.00000000  0.50000000  0.50000000  1
  O  O0  1  0.90870300  0.09129700  0.00000000  1
  O  O1  1  0.09129700  0.90870300  0.00000000  1
  O  O2  1  0.34634000  0.65366000  0.50000000  1
  O  O3  1  0.65366000  0.34634000  0.50000000  1
  F  F0  1  0.40174700  0.59825300  0.00000000  1
  F  F1  1  0.74851000  0.74851000  0.69539200  1
  F  F2  1  0.25149000  0.25149000  0.69539200  1
  F  F3  1  0.50000000  0.00000000  0.80321000  1
  F  F4  1  0.00000000  0.50000000  0.80321000  1
  F  F5  1  0.74851000  0.74851000  0.30460800  1
  F  F6  1  0.25149000  0.25149000  0.30460800  1
  F  F7  1  0.84776600  0.15223400  0.50000000  1
  F  F8  1  0.59825300  0.40174700  0.00000000  1
  F  F9  1  0.15223400  0.84776600  0.50000000  1
  F  F10  1  0.50000000  0.00000000  0.19679000  1
  F  F11  1  0.00000000  0.50000000  0.19679000  1
loop_
_geom_bond_atom_site_label_1
_geom_bond_atom_site_label_2
_geom_bond_distance
_geom_bond_site_symmetry_2
Co0 O1 1.895340 1_655
Co0 O0 1.895340 1_565
Co0 F8 2.042776 1_555
Co0 F0 2.042776 1_555
Co0 F5 2.082154 1_555
Co0 F1 2.082154 1_554
Co1 O0 1.895340 1_455
Co1 O1 1.895340 1_545
Co1 F8 2.042776 1_555
Co1 F0 2.042776 1_555
Co1 F6 2.082154 1_555
Co1 F2 2.082154 1_554
Co2 O0 1.902901 1_555
Co2 F4 2.054743 1_654
Co2 F3 2.054743 1_554
Co2 F11 2.054743 1_655
Co2 F10 2.054743 1_555
Co2 F8 2.083385 1_555
Co3 O2 1.973048 1_555
Co3 O3 1.973048 1_555
Co3 F1 2.037082 1_555
Co3 F2 2.037082 1_555
Co3 F5 2.037082 1_555
Co3 F6 2.037082 1_555
Co4 F9 1.954737 1_545
Co4 F7 1.954737 1_455
Co4 F6 2.051056 1_555
Co4 F1 2.051056 1_445
Co4 F5 2.051056 1_445
Co4 F2 2.051056 1_555
Co5 O1 1.902901 1_555
Co5 F10 2.054743 1_565
Co5 F4 2.054743 1_554
Co5 F3 2.054743 1_564
Co5 F11 2.054743 1_555
Co5 F0 2.083385 1_555
Co6 O2 1.981540 1_545
Co6 O3 1.981540 1_555
Co6 F9 1.993022 1_545
Co6 F7 1.993022 1_555
Co6 F3 2.071496 1_555
Co6 F10 2.071496 1_555
Co7 O2 1.981540 1_555
Co7 O3 1.981540 1_455
Co7 F9 1.993022 1_555
Co7 F7 1.993022 1_455
Co7 F11 2.071496 1_555
Co7 F4 2.071496 1_555
