# generated using pymatgen
data_Rb2PrO3
_symmetry_space_group_name_H-M   'P 1'
_cell_length_a   6.57640900
_cell_length_b   7.53520700
_cell_length_c   11.33607500
_cell_angle_alpha   90.00000000
_cell_angle_beta   90.00000000
_cell_angle_gamma   90.00000000
_symmetry_Int_Tables_number   1
_chemical_formula_structural   Rb2PrO3
_chemical_formula_sum   'Rb8 Pr4 O12'
_cell_volume   561.75469770
_cell_formula_units_Z   4
loop_
 _symmetry_equiv_pos_site_id
 _symmetry_equiv_pos_as_xyz
  1  'x, y, z'
loop_
 _atom_site_type_symbol
 _atom_site_label
 _atom_site_symmetry_multiplicity
 _atom_site_fract_x
 _atom_site_fract_y
 _atom_site_fract_z
 _atom_site_occupancy
  Rb  Rb0  1  0.76908700  0.88715600  0.08456000  1
  Rb  Rb1  1  0.26908700  0.61284400  0.08456000  1
  Rb  Rb2  1  0.26908700  0.61284400  0.41544000  1
  Rb  Rb3  1  0.76908700  0.88715600  0.41544000  1
  Rb  Rb4  1  0.73091300  0.38715600  0.58456000  1
  Rb  Rb5  1  0.23091300  0.11284400  0.58456000  1
  Rb  Rb6  1  0.73091300  0.38715600  0.91544000  1
  Rb  Rb7  1  0.23091300  0.11284400  0.91544000  1
  Pr  Pr0  1  0.73565700  0.35055200  0.25000000  1
  Pr  Pr1  1  0.23565700  0.14944800  0.25000000  1
  Pr  Pr2  1  0.76434300  0.85055200  0.75000000  1
  Pr  Pr3  1  0.26434300  0.64944800  0.75000000  1
  O  O0  1  0.99993400  0.27471300  0.11737800  1
  O  O1  1  0.49993400  0.22528700  0.11737800  1
  O  O2  1  0.64341200  0.63252700  0.25000000  1
  O  O3  1  0.14341200  0.86747300  0.25000000  1
  O  O4  1  0.99993400  0.27471300  0.38262200  1
  O  O5  1  0.49993400  0.22528700  0.38262200  1
  O  O6  1  0.50006600  0.77471300  0.61737800  1
  O  O7  1  0.00006600  0.72528700  0.61737800  1
  O  O8  1  0.35658800  0.36747300  0.75000000  1
  O  O9  1  0.85658800  0.13252700  0.75000000  1
  O  O10  1  0.50006600  0.77471300  0.88262200  1
  O  O11  1  0.00006600  0.72528700  0.88262200  1
loop_
_geom_bond_atom_site_label_1
_geom_bond_atom_site_label_2
_geom_bond_distance
_geom_bond_site_symmetry_2
O0 Pr1 2.356766 1_655
O0 Pr0 2.368004 1_555
O0 Rb7 3.005906 1_654
O0 Rb6 3.014679 1_554
O0 Rb1 3.124619 1_655
O0 Rb0 3.312318 1_545
O1 Pr0 2.356766 1_555
O1 Pr1 2.368004 1_555
O1 Rb6 3.005906 1_554
O1 Rb7 3.014679 1_554
O1 Rb0 3.124619 1_545
O1 Rb1 3.312318 1_555
O2 Pr0 2.209645 1_555
O2 Rb0 2.807437 1_555
O2 Rb3 2.807437 1_555
O2 Rb1 3.098275 1_555
O2 Rb2 3.098275 1_555
O3 Pr1 2.209645 1_565
O3 Rb1 2.807437 1_555
O3 Rb2 2.807437 1_555
O3 Rb0 3.098275 1_455
O3 Rb3 3.098275 1_455
O4 Pr1 2.356766 1_655
O4 Pr0 2.368004 1_555
O4 Rb5 3.005906 1_655
O4 Rb4 3.014679 1_555
O4 Rb2 3.124619 1_655
O4 Rb3 3.312318 1_545
O5 Pr0 2.356766 1_555
O5 Pr1 2.368004 1_555
O5 Rb4 3.005906 1_555
O5 Rb5 3.014679 1_555
O5 Rb3 3.124619 1_545
O5 Rb2 3.312318 1_555
O6 Pr3 2.356766 1_555
O6 Pr2 2.368004 1_555
O6 Rb2 3.005906 1_555
O6 Rb3 3.014679 1_555
O6 Rb5 3.124619 1_565
O6 Rb4 3.312318 1_555
O7 Pr2 2.356766 1_455
O7 Pr3 2.368004 1_555
O7 Rb3 3.005906 1_455
O7 Rb2 3.014679 1_555
O7 Rb4 3.124619 1_455
O7 Rb5 3.312318 1_565
O8 Pr3 2.209645 1_555
O8 Rb5 2.807437 1_555
O8 Rb7 2.807437 1_555
O8 Rb4 3.098275 1_555
O8 Rb6 3.098275 1_555
O9 Pr2 2.209645 1_545
O9 Rb4 2.807437 1_555
O9 Rb6 2.807437 1_555
O9 Rb5 3.098275 1_655
O9 Rb7 3.098275 1_655
O10 Pr3 2.356766 1_555
O10 Pr2 2.368004 1_555
O10 Rb1 3.005906 1_556
O10 Rb0 3.014679 1_556
O10 Rb7 3.124619 1_565
O10 Rb6 3.312318 1_555
O11 Pr2 2.356766 1_455
O11 Pr3 2.368004 1_555
O11 Rb0 3.005906 1_456
O11 Rb1 3.014679 1_556
O11 Rb6 3.124619 1_455
O11 Rb7 3.312318 1_565
