# generated using pymatgen
data_Li10Co(SiO5)2
_symmetry_space_group_name_H-M   'P 1'
_cell_length_a   5.18435300
_cell_length_b   6.17534200
_cell_length_c   15.34257844
_cell_angle_alpha   101.56726024
_cell_angle_beta   99.12685890
_cell_angle_gamma   89.99801447
_symmetry_Int_Tables_number   1
_chemical_formula_structural   Li10Co(SiO5)2
_chemical_formula_sum   'Li20 Co2 Si4 O20'
_cell_volume   474.87000474
_cell_formula_units_Z   2
loop_
 _symmetry_equiv_pos_site_id
 _symmetry_equiv_pos_as_xyz
  1  'x, y, z'
loop_
 _atom_site_type_symbol
 _atom_site_label
 _atom_site_symmetry_multiplicity
 _atom_site_fract_x
 _atom_site_fract_y
 _atom_site_fract_z
 _atom_site_occupancy
  Li  Li0  1  0.73386900  0.49032000  0.98114900  1
  Li  Li1  1  0.10850100  0.22634100  0.86489400  1
  Li  Li2  1  0.10484600  0.63459900  0.86596900  1
  Li  Li3  1  0.22248100  0.86631700  0.73602400  1
  Li  Li4  1  0.75567400  0.08329900  0.73752200  1
  Li  Li5  1  0.75697700  0.65066800  0.73782300  1
  Li  Li6  1  0.06757300  0.32812900  0.65116800  1
  Li  Li7  1  0.39430600  0.04926700  0.60989500  1
  Li  Li8  1  0.39565300  0.56185900  0.60999000  1
  Li  Li9  1  0.67456300  0.26947600  0.53921400  1
  Li  Li10  1  0.32250100  0.72963900  0.45978000  1
  Li  Li11  1  0.60101100  0.43738400  0.38891200  1
  Li  Li12  1  0.60227500  0.95127800  0.38975800  1
  Li  Li13  1  0.92730500  0.67491000  0.34810200  1
  Li  Li14  1  0.23900400  0.34874400  0.26106400  1
  Li  Li15  1  0.24052000  0.91607300  0.26125500  1
  Li  Li16  1  0.77598300  0.13282800  0.26302600  1
  Li  Li17  1  0.89240400  0.77724800  0.13361100  1
  Li  Li18  1  0.89656900  0.36058900  0.13279200  1
  Li  Li19  1  0.26449300  0.51003600  0.01857300  1
  Co  Co0  1  0.87304600  0.96635100  0.93001400  1
  Co  Co1  1  0.13426700  0.03471300  0.07142300  1
  Si  Si0  1  0.49006300  0.39859700  0.79964900  1
  Si  Si1  1  0.86881700  0.78113500  0.56220300  1
  Si  Si2  1  0.12822800  0.21851200  0.43660000  1
  Si  Si3  1  0.50847200  0.60116200  0.19973400  1
  O  O0  1  0.39473100  0.44949300  0.89933300  1
  O  O1  1  0.94693700  0.90534600  0.81472200  1
  O  O2  1  0.81361800  0.40231600  0.80885600  1
  O  O3  1  0.37282500  0.15409900  0.74259500  1
  O  O4  1  0.37375000  0.58423800  0.74158000  1
  O  O5  1  0.77946100  0.03033300  0.61282800  1
  O  O6  1  0.78192200  0.58250300  0.61337200  1
  O  O7  1  0.18983200  0.78723500  0.57324200  1
  O  O8  1  0.27782000  0.27268500  0.54354500  1
  O  O9  1  0.71962900  0.72721700  0.45618100  1
  O  O10  1  0.80791100  0.21279100  0.42594100  1
  O  O11  1  0.21803200  0.96983100  0.38659500  1
  O  O12  1  0.21629000  0.41729600  0.38616400  1
  O  O13  1  0.62292700  0.41407000  0.25741400  1
  O  O14  1  0.62550300  0.84443500  0.25735300  1
  O  O15  1  0.18430300  0.59738400  0.18987200  1
  O  O16  1  0.05264000  0.09487300  0.18541900  1
  O  O17  1  0.60458900  0.55078600  0.09988400  1
  O  O18  1  0.99924500  0.25080600  0.99895900  1
  O  O19  1  0.99825800  0.74908600  0.99883800  1
loop_
_geom_bond_atom_site_label_1
_geom_bond_atom_site_label_2
_geom_bond_distance
_geom_bond_site_symmetry_2
Li0 O0 1.975733 1_555
Li0 O17 2.005434 1_556
Li0 O18 2.048868 1_555
Li0 O19 2.052841 1_555
Li1 O0 1.959486 1_555
Li1 O2 2.053019 1_455
Li1 O1 2.099308 1_445
Li1 O18 2.195333 1_455
Li1 O3 2.465292 1_555
Li2 O0 1.953916 1_555
Li2 O2 2.044837 1_455
Li2 O1 2.099224 1_455
Li2 O19 2.177210 1_455
Li2 O4 2.507663 1_555
Li3 O3 1.918142 1_565
Li3 O4 1.922204 1_555
Li3 O1 1.996772 1_455
Li3 O7 2.425158 1_555
Li4 O5 1.898984 1_555
Li4 O1 1.934707 1_545
Li4 O3 2.042558 1_555
Li4 O2 2.049433 1_555
Li5 O6 1.896239 1_555
Li5 O1 1.929426 1_555
Li5 O4 2.040782 1_555
Li5 O2 2.048124 1_555
Li6 O8 2.091901 1_555
Li6 O6 2.256026 1_455
Li6 O5 2.290546 1_455
Li6 O4 2.316673 1_555
Li6 O3 2.351007 1_555
Li7 O7 1.872010 1_545
Li7 O8 1.916422 1_555
Li7 O5 1.994094 1_555
Li7 O3 2.029773 1_555
Li8 O7 1.875431 1_555
Li8 O8 1.916709 1_555
Li8 O6 1.998392 1_555
Li8 O4 2.017153 1_555
Li9 O10 1.938536 1_555
Li9 O5 2.055786 1_555
Li9 O6 2.063527 1_555
Li9 O8 2.068403 1_555
Li10 O7 1.939454 1_555
Li10 O12 2.056295 1_555
Li10 O11 2.056487 1_555
Li10 O9 2.068303 1_555
Li11 O10 1.876030 1_555
Li11 O9 1.924767 1_555
Li11 O12 1.991621 1_555
Li11 O13 2.015006 1_555
Li12 O10 1.872316 1_565
Li12 O9 1.921446 1_555
Li12 O11 1.988793 1_555
Li12 O14 2.028949 1_555
Li13 O9 2.089202 1_555
Li13 O12 2.282825 1_655
Li13 O11 2.285583 1_655
Li13 O14 2.318611 1_555
Li13 O13 2.329266 1_555
Li14 O12 1.903379 1_555
Li14 O16 1.911272 1_555
Li14 O13 2.042551 1_555
Li14 O15 2.050689 1_555
Li15 O11 1.907086 1_555
Li15 O16 1.917623 1_565
Li15 O15 2.047408 1_555
Li15 O14 2.051849 1_555
Li16 O13 1.921355 1_555
Li16 O14 1.924651 1_545
Li16 O16 1.989900 1_655
Li16 O10 2.427485 1_555
Li17 O17 1.978626 1_555
Li17 O15 2.058853 1_655
Li17 O16 2.081959 1_665
Li17 O19 2.196095 1_554
Li17 O14 2.491713 1_555
Li18 O17 1.980164 1_555
Li18 O15 2.050023 1_655
Li18 O16 2.079214 1_655
Li18 O18 2.178908 1_554
Li18 O13 2.526804 1_555
Li19 O17 1.976045 1_555
Li19 O0 2.014972 1_554
Li19 O18 2.054243 1_454
Li19 O19 2.054879 1_454
Co0 O1 1.834478 1_555
Co0 O18 1.915203 1_565
Co0 O19 1.920198 1_555
Co1 O16 1.830380 1_555
Co1 O19 1.952372 1_444
Co1 O18 1.963376 1_454
O0 Si0 1.652017 1_555
O2 Si0 1.660651 1_555
O3 Si0 1.648207 1_555
O4 Si0 1.646425 1_555
O5 Si1 1.679525 1_545
O6 Si1 1.679968 1_555
O7 Si1 1.645562 1_455
O8 Si2 1.667881 1_555
O9 Si1 1.654918 1_555
O10 Si2 1.642327 1_655
O11 Si2 1.674658 1_565
O12 Si2 1.675468 1_555
O13 Si3 1.647271 1_555
O14 Si3 1.644327 1_555
O15 Si3 1.663067 1_555
O17 Si3 1.656205 1_555
