# generated using pymatgen
data_HoBO3
_symmetry_space_group_name_H-M   'P 1'
_cell_length_a   7.22801800
_cell_length_b   9.02110111
_cell_length_c   9.87402696
_cell_angle_alpha   81.34804878
_cell_angle_beta   85.64533365
_cell_angle_gamma   77.17694495
_symmetry_Int_Tables_number   1
_chemical_formula_structural   HoBO3
_chemical_formula_sum   'Ho12 B12 O36'
_cell_volume   620.02711106
_cell_formula_units_Z   12
loop_
 _symmetry_equiv_pos_site_id
 _symmetry_equiv_pos_as_xyz
  1  'x, y, z'
loop_
 _atom_site_type_symbol
 _atom_site_label
 _atom_site_symmetry_multiplicity
 _atom_site_fract_x
 _atom_site_fract_y
 _atom_site_fract_z
 _atom_site_occupancy
  Ho  Ho0  1  0.09878200  0.43553100  0.67052000  1
  Ho  Ho1  1  0.24965400  0.04508900  0.47886000  1
  Ho  Ho2  1  0.09819800  0.93220800  0.16271900  1
  Ho  Ho3  1  0.26247000  0.56069200  0.97110200  1
  Ho  Ho4  1  0.43388300  0.44154900  0.34236700  1
  Ho  Ho5  1  0.57392900  0.05617000  0.15538800  1
  Ho  Ho6  1  0.42607100  0.94383000  0.84461200  1
  Ho  Ho7  1  0.56611700  0.55845100  0.65763300  1
  Ho  Ho8  1  0.73753000  0.43930800  0.02889800  1
  Ho  Ho9  1  0.90180200  0.06779200  0.83728100  1
  Ho  Ho10  1  0.75034600  0.95491100  0.52114000  1
  Ho  Ho11  1  0.90121800  0.56446900  0.32948000  1
  B  B0  1  0.16801000  0.27132300  0.20559800  1
  B  B1  1  0.11577300  0.25705300  0.94809300  1
  B  B2  1  0.10766100  0.75271400  0.44769100  1
  B  B3  1  0.22009000  0.78277700  0.69173600  1
  B  B4  1  0.47767300  0.28469700  0.92303400  1
  B  B5  1  0.53346200  0.22092800  0.61372100  1
  B  B6  1  0.46653800  0.77907200  0.38627900  1
  B  B7  1  0.52232700  0.71530300  0.07696600  1
  B  B8  1  0.77991000  0.21722300  0.30826400  1
  B  B9  1  0.89233900  0.24728600  0.55230900  1
  B  B10  1  0.88422700  0.74294700  0.05190700  1
  B  B11  1  0.83199000  0.72867700  0.79440200  1
  O  O0  1  0.06335400  0.18456000  0.63001100  1
  O  O1  1  0.08177000  0.33527400  0.08067200  1
  O  O2  1  0.05688700  0.68040600  0.12756100  1
  O  O3  1  0.15300500  0.09106400  0.96398500  1
  O  O4  1  0.16688800  0.36657500  0.30291400  1
  O  O5  1  0.24577400  0.11607800  0.23794200  1
  O  O6  1  0.14984200  0.58788900  0.46461900  1
  O  O7  1  0.08105500  0.83876500  0.57243000  1
  O  O8  1  0.27233800  0.32337900  0.87262900  1
  O  O9  1  0.15645100  0.87167100  0.80481600  1
  O  O10  1  0.24711200  0.61625100  0.73489300  1
  O  O11  1  0.26897000  0.81729700  0.36384600  1
  O  O12  1  0.45280100  0.09487700  0.62633800  1
  O  O13  1  0.47186100  0.31106800  0.07210900  1
  O  O14  1  0.43416400  0.36868300  0.58350100  1
  O  O15  1  0.43447800  0.59420500  0.14843500  1
  O  O16  1  0.42841100  0.87261100  0.08713700  1
  O  O17  1  0.59219300  0.18488000  0.36737400  1
  O  O18  1  0.40780700  0.81512000  0.63262600  1
  O  O19  1  0.57158900  0.12738900  0.91286300  1
  O  O20  1  0.56552200  0.40579500  0.85156500  1
  O  O21  1  0.56583600  0.63131700  0.41649900  1
  O  O22  1  0.52813900  0.68893200  0.92789100  1
  O  O23  1  0.54719900  0.90512300  0.37366200  1
  O  O24  1  0.73103000  0.18270300  0.63615400  1
  O  O25  1  0.75288800  0.38374900  0.26510700  1
  O  O26  1  0.84354900  0.12832900  0.19518400  1
  O  O27  1  0.72766200  0.67662100  0.12737100  1
  O  O28  1  0.91894500  0.16123500  0.42757000  1
  O  O29  1  0.85015800  0.41211100  0.53538100  1
  O  O30  1  0.75422600  0.88392200  0.76205800  1
  O  O31  1  0.83311200  0.63342500  0.69708600  1
  O  O32  1  0.84699500  0.90893600  0.03601500  1
  O  O33  1  0.94311300  0.31959400  0.87243900  1
  O  O34  1  0.91823000  0.66472600  0.91932800  1
  O  O35  1  0.93664600  0.81544000  0.36998900  1
loop_
_geom_bond_atom_site_label_1
_geom_bond_atom_site_label_2
_geom_bond_distance
_geom_bond_site_symmetry_2
Ho0 O10 2.324317 1_555
Ho0 O6 2.330058 1_555
Ho0 O31 2.342216 1_455
Ho0 O29 2.381615 1_455
Ho0 O8 2.406071 1_555
Ho0 O33 2.426780 1_455
Ho0 O0 2.428327 1_555
Ho0 O14 2.483770 1_555
Ho1 O0 2.265278 1_555
Ho1 O12 2.300550 1_555
Ho1 O5 2.369295 1_555
Ho1 O28 2.445533 1_455
Ho1 O11 2.466302 1_545
Ho1 O7 2.474161 1_545
Ho1 O23 2.479627 1_545
Ho1 O18 2.485769 1_545
Ho2 O26 2.292665 1_465
Ho2 O3 2.312814 1_564
Ho2 O32 2.345043 1_455
Ho2 O5 2.391059 1_565
Ho2 O11 2.393123 1_555
Ho2 O16 2.413167 1_555
Ho2 O2 2.433843 1_555
Ho2 O35 2.489200 1_455
Ho3 O2 2.280799 1_556
Ho3 O15 2.315127 1_556
Ho3 O10 2.316512 1_555
Ho3 O22 2.433297 1_555
Ho3 O8 2.466089 1_555
Ho3 O34 2.519011 1_455
Ho3 O13 2.529227 1_556
Ho3 O20 2.624649 1_555
Ho3 O1 2.704448 1_556
Ho3 O9 3.000702 1_555
Ho4 O15 2.184327 1_555
Ho4 O4 2.259716 1_555
Ho4 O17 2.329465 1_555
Ho4 O25 2.342931 1_555
Ho4 O21 2.363025 1_555
Ho4 O14 2.372834 1_555
Ho4 O6 2.512964 1_555
Ho5 O26 2.265479 1_555
Ho5 O13 2.297433 1_555
Ho5 O16 2.349248 1_545
Ho5 O19 2.384550 1_554
Ho5 O23 2.389387 1_545
Ho5 O5 2.419176 1_555
Ho5 O32 2.450130 1_545
Ho5 O17 2.566731 1_555
Ho6 O9 2.265479 1_555
Ho6 O22 2.297433 1_555
Ho6 O19 2.349248 1_565
Ho6 O16 2.384550 1_556
Ho6 O12 2.389387 1_565
Ho6 O30 2.419176 1_555
Ho6 O3 2.450130 1_565
Ho6 O18 2.566731 1_555
Ho7 O20 2.184327 1_555
Ho7 O31 2.259716 1_555
Ho7 O18 2.329465 1_555
Ho7 O10 2.342931 1_555
Ho7 O14 2.363025 1_555
Ho7 O21 2.372834 1_555
Ho7 O29 2.512964 1_555
Ho8 O33 2.280799 1_554
Ho8 O20 2.315127 1_554
Ho8 O25 2.316512 1_555
Ho8 O13 2.433297 1_555
Ho8 O27 2.466089 1_555
Ho8 O1 2.519011 1_655
Ho8 O22 2.529227 1_554
Ho8 O15 2.624649 1_555
Ho8 O34 2.704448 1_554
Ho8 O26 3.000702 1_555
Ho9 O9 2.292665 1_645
Ho9 O32 2.312814 1_546
Ho9 O3 2.345043 1_655
Ho9 O30 2.391059 1_545
Ho9 O24 2.393123 1_555
Ho9 O19 2.413167 1_555
Ho9 O33 2.433843 1_555
Ho9 O0 2.489200 1_655
Ho10 O35 2.265278 1_555
Ho10 O23 2.300550 1_555
Ho10 O30 2.369295 1_555
Ho10 O7 2.445533 1_655
Ho10 O24 2.466302 1_565
Ho10 O28 2.474161 1_565
Ho10 O12 2.479627 1_565
Ho10 O17 2.485769 1_565
Ho11 O25 2.324317 1_555
Ho11 O29 2.330058 1_555
Ho11 O4 2.342216 1_655
Ho11 O6 2.381615 1_655
Ho11 O27 2.406071 1_555
Ho11 O2 2.426780 1_655
Ho11 O35 2.428327 1_555
Ho11 O21 2.483770 1_555
B0 O4 1.380542 1_555
B0 O5 1.386562 1_555
B0 O1 1.409254 1_555
B1 O3 1.447795 1_555
B1 O33 1.461522 1_455
B1 O8 1.494066 1_555
B1 O1 1.556960 1_556
B2 O6 1.436493 1_555
B2 O35 1.462774 1_455
B2 O7 1.530372 1_555
B2 O11 1.547281 1_555
B3 O9 1.459116 1_555
B3 O10 1.471831 1_555
B3 O18 1.506976 1_555
B3 O7 1.558282 1_555
B4 O19 1.445558 1_555
B4 O20 1.450008 1_555
B4 O13 1.522033 1_556
B4 O8 1.549921 1_555
B5 O14 1.367129 1_555
B5 O12 1.374444 1_555
B5 O24 1.419050 1_555
B6 O21 1.367129 1_555
B6 O23 1.374444 1_555
B6 O11 1.419050 1_555
B7 O16 1.445558 1_555
B7 O15 1.450008 1_555
B7 O22 1.522033 1_554
B7 O27 1.549921 1_555
B8 O26 1.459116 1_555
B8 O25 1.471831 1_555
B8 O17 1.506976 1_555
B8 O28 1.558282 1_555
B9 O29 1.436493 1_555
B9 O0 1.462774 1_655
B9 O28 1.530372 1_555
B9 O24 1.547281 1_555
B10 O32 1.447795 1_555
B10 O2 1.461522 1_655
B10 O27 1.494066 1_555
B10 O34 1.556960 1_554
B11 O31 1.380542 1_555
B11 O30 1.386562 1_555
B11 O34 1.409254 1_555
