# generated using pymatgen
data_Li4Mn5Nb3O16
_symmetry_space_group_name_H-M   'P 1'
_cell_length_a   6.13794500
_cell_length_b   6.15643455
_cell_length_c   9.96394551
_cell_angle_alpha   90.33403473
_cell_angle_beta   90.11516729
_cell_angle_gamma   119.55653410
_symmetry_Int_Tables_number   1
_chemical_formula_structural   Li4Mn5Nb3O16
_chemical_formula_sum   'Li4 Mn5 Nb3 O16'
_cell_volume   327.50913865
_cell_formula_units_Z   1
loop_
 _symmetry_equiv_pos_site_id
 _symmetry_equiv_pos_as_xyz
  1  'x, y, z'
loop_
 _atom_site_type_symbol
 _atom_site_label
 _atom_site_symmetry_multiplicity
 _atom_site_fract_x
 _atom_site_fract_y
 _atom_site_fract_z
 _atom_site_occupancy
  Li  Li0  1  0.34434200  0.67559700  0.89514300  1
  Li  Li1  1  0.00274900  0.00025100  0.00475700  1
  Li  Li2  1  0.01963000  0.00616800  0.49538800  1
  Li  Li3  1  0.67470100  0.34115900  0.37648800  1
  Mn  Mn0  1  0.16335200  0.82901300  0.21235400  1
  Mn  Mn1  1  0.31016800  0.65444100  0.49083000  1
  Mn  Mn2  1  0.16484700  0.33449100  0.21576600  1
  Mn  Mn3  1  0.33454800  0.16765100  0.71786800  1
  Mn  Mn4  1  0.65137500  0.32451800  0.01111100  1
  Nb  Nb0  1  0.65121300  0.82907400  0.21870000  1
  Nb  Nb1  1  0.82681100  0.65951500  0.71493200  1
  Nb  Nb2  1  0.82827500  0.16721900  0.71480600  1
  O  O0  1  0.14617800  0.83537000  0.60815800  1
  O  O1  1  0.04318600  0.52755900  0.32090300  1
  O  O2  1  0.35753900  0.69887000  0.09629100  1
  O  O3  1  0.98431700  0.96829600  0.31609200  1
  O  O4  1  0.97363800  0.98722000  0.82112800  1
  O  O5  1  0.14358800  0.30784800  0.60503300  1
  O  O6  1  0.49231500  0.97068900  0.33317800  1
  O  O7  1  0.47861700  0.51371400  0.32687200  1
  O  O8  1  0.30242000  0.14612000  0.11313300  1
  O  O9  1  0.68346900  0.84141600  0.60294500  1
  O  O10  1  0.53048900  0.49390000  0.83116900  1
  O  O11  1  0.53382500  0.04125000  0.83137100  1
  O  O12  1  0.69680800  0.34980700  0.59724100  1
  O  O13  1  0.83780200  0.68310900  0.10261600  1
  O  O14  1  0.97663700  0.48788000  0.82396700  1
  O  O15  1  0.84715800  0.15815700  0.10959600  1
loop_
_geom_bond_atom_site_label_1
_geom_bond_atom_site_label_2
_geom_bond_distance
_geom_bond_site_symmetry_2
Li0 O2 2.007129 1_556
Li0 O10 2.053913 1_555
Li0 O11 2.064132 1_565
Li0 O14 2.084017 1_455
Li1 O4 1.835452 1_444
Li1 O8 1.925330 1_555
Li1 O15 1.963772 1_455
Li1 O13 1.965672 1_445
Li2 O3 1.799066 1_445
Li2 O0 1.946175 1_545
Li2 O5 1.949560 1_555
Li2 O9 2.095598 1_445
Li3 O7 2.021531 1_555
Li3 O6 2.027066 1_545
Li3 O1 2.047180 1_655
Li3 O12 2.202196 1_555
Mn0 O1 1.958130 1_555
Mn0 O8 1.974627 1_565
Mn0 O3 1.983724 1_455
Mn0 O13 2.050428 1_455
Mn0 O2 2.082510 1_555
Mn0 O6 2.127815 1_555
Mn1 O0 2.171690 1_555
Mn1 O5 2.184920 1_555
Mn1 O1 2.207459 1_555
Mn1 O9 2.279399 1_555
Mn1 O7 2.315711 1_555
Mn1 O6 2.324515 1_555
Mn2 O1 1.982964 1_555
Mn2 O15 1.997458 1_455
Mn2 O7 2.008196 1_555
Mn2 O8 2.014807 1_555
Mn2 O3 2.208138 1_445
Mn2 O2 2.295113 1_555
Mn3 O11 2.079525 1_555
Mn3 O10 2.083277 1_555
Mn3 O0 2.086130 1_545
Mn3 O5 2.094488 1_555
Mn3 O4 2.189665 1_445
Mn3 O12 2.283143 1_555
Mn4 O13 2.120016 1_555
Mn4 O8 2.127951 1_555
Mn4 O15 2.162690 1_555
Mn4 O11 2.342278 1_554
Mn4 O10 2.373260 1_554
Mn4 O14 2.555440 1_554
Nb0 O6 1.960661 1_555
Nb0 O2 1.983337 1_555
Nb0 O7 2.013262 1_555
Nb0 O3 2.027328 1_555
Nb0 O15 2.088039 1_565
Nb0 O13 2.113190 1_555
Nb1 O10 1.970209 1_555
Nb1 O0 2.018577 1_655
Nb1 O14 2.027458 1_555
Nb1 O12 2.028922 1_555
Nb1 O4 2.044412 1_555
Nb1 O9 2.062991 1_555
Nb2 O11 1.962893 1_555
Nb2 O5 2.014458 1_655
Nb2 O14 2.026549 1_555
Nb2 O4 2.032660 1_545
Nb2 O12 2.047772 1_555
Nb2 O9 2.065570 1_545
