# generated using pymatgen
data_LiV2P5O16
_symmetry_space_group_name_H-M   'P 1'
_cell_length_a   9.51643100
_cell_length_b   7.59029200
_cell_length_c   10.36324835
_cell_angle_alpha   68.44837215
_cell_angle_beta   90.00000000
_cell_angle_gamma   90.00000000
_symmetry_Int_Tables_number   1
_chemical_formula_structural   LiV2P5O16
_chemical_formula_sum   'Li2 V4 P10 O32'
_cell_volume   696.22889132
_cell_formula_units_Z   2
loop_
 _symmetry_equiv_pos_site_id
 _symmetry_equiv_pos_as_xyz
  1  'x, y, z'
loop_
 _atom_site_type_symbol
 _atom_site_label
 _atom_site_symmetry_multiplicity
 _atom_site_fract_x
 _atom_site_fract_y
 _atom_site_fract_z
 _atom_site_occupancy
  Li  Li0  1  0.80228900  0.99905000  0.75226200  1
  Li  Li1  1  0.19771100  0.99905000  0.25226200  1
  V  V0  1  0.14250100  0.37758000  0.46772800  1
  V  V1  1  0.36957200  0.92687500  0.86265100  1
  V  V2  1  0.63042800  0.92687500  0.36265100  1
  V  V3  1  0.85749900  0.37758000  0.96772800  1
  P  P0  1  0.86163500  0.61464300  0.37194200  1
  P  P1  1  0.29275500  0.57172600  0.12879100  1
  P  P2  1  0.87410600  0.27689600  0.30293700  1
  P  P3  1  0.41793900  0.12412400  0.52491300  1
  P  P4  1  0.58206100  0.12412400  0.02491300  1
  P  P5  1  0.13836500  0.61464300  0.87194200  1
  P  P6  1  0.54057200  0.51586800  0.99268800  1
  P  P7  1  0.70724500  0.57172600  0.62879100  1
  P  P8  1  0.45942800  0.51586800  0.49268800  1
  P  P9  1  0.12589400  0.27689600  0.80293700  1
  O  O0  1  0.29577900  0.78541100  0.06931500  1
  O  O1  1  0.81982700  0.49190400  0.28316400  1
  O  O2  1  0.06593400  0.29352500  0.66107200  1
  O  O3  1  0.22918700  0.47676300  0.26830600  1
  O  O4  1  0.25502100  0.15228200  0.84850400  1
  O  O5  1  0.49552800  0.33234300  0.45801400  1
  O  O6  1  0.44868700  0.48451500  0.13247800  1
  O  O7  1  0.69391800  0.51816400  0.02521600  1
  O  O8  1  0.21248900  0.49680000  0.02042600  1
  O  O9  1  0.53418400  0.01708200  0.93490700  1
  O  O10  1  0.98726100  0.22593500  0.41445700  1
  O  O11  1  0.25853700  0.15258600  0.50497100  1
  O  O12  1  0.46431800  0.04406400  0.67506300  1
  O  O13  1  0.93406600  0.29352500  0.16107200  1
  O  O14  1  0.74497900  0.15228200  0.34850400  1
  O  O15  1  0.46581600  0.01708200  0.43490700  1
  O  O16  1  0.20063400  0.80807100  0.80414400  1
  O  O17  1  0.74146300  0.15258600  0.00497100  1
  O  O18  1  0.48021700  0.68573700  0.87830200  1
  O  O19  1  0.53568200  0.04406400  0.17506300  1
  O  O20  1  0.70422100  0.78541100  0.56931500  1
  O  O21  1  0.98056500  0.61529800  0.89518000  1
  O  O22  1  0.79936600  0.80807100  0.30414400  1
  O  O23  1  0.18017300  0.49190400  0.78316400  1
  O  O24  1  0.51978300  0.68573700  0.37830200  1
  O  O25  1  0.77081300  0.47676300  0.76830600  1
  O  O26  1  0.50447200  0.33234300  0.95801400  1
  O  O27  1  0.01943500  0.61529800  0.39518000  1
  O  O28  1  0.55131300  0.48451500  0.63247800  1
  O  O29  1  0.30608200  0.51816400  0.52521600  1
  O  O30  1  0.78751100  0.49680000  0.52042600  1
  O  O31  1  0.01273900  0.22593500  0.91445700  1
loop_
_geom_bond_atom_site_label_1
_geom_bond_atom_site_label_2
_geom_bond_distance
_geom_bond_site_symmetry_2
O0 P1 1.508952 1_555
O0 V1 2.131549 1_554
O1 P0 1.581892 1_555
O1 P2 1.651199 1_555
O2 P9 1.538384 1_555
O2 V0 2.003371 1_555
O3 P1 1.486700 1_555
O3 V0 2.091726 1_555
O4 P9 1.516413 1_555
O4 V1 1.988155 1_545
O5 P8 1.598551 1_555
O5 P3 1.648833 1_555
O6 P1 1.619590 1_555
O6 P6 1.632980 1_554
O7 P6 1.499276 1_554
O7 V3 2.093793 1_554
O8 P1 1.623967 1_555
O8 P5 1.629197 1_554
O9 P4 1.514766 1_556
O9 V1 1.964734 1_545
O10 P2 1.521980 1_555
O10 V0 2.068572 1_655
O11 P3 1.535474 1_555
O11 V0 1.949503 1_555
O12 P3 1.513488 1_555
O12 V1 2.028048 1_545
O13 P2 1.538384 1_555
O13 V3 2.003371 1_554
O14 P2 1.516413 1_555
O14 V2 1.988155 1_545
O15 P3 1.514766 1_555
O15 V2 1.964734 1_545
O16 P5 1.497493 1_555
O16 V1 2.041357 1_555
O17 P4 1.535474 1_555
O17 V3 1.949503 1_554
O18 P6 1.508189 1_555
O18 V1 2.065654 1_555
O19 P4 1.513488 1_555
O19 V2 2.028048 1_545
O20 P7 1.508952 1_555
O20 V2 2.131549 1_555
O21 P5 1.521177 1_655
O21 V3 2.048384 1_555
O22 P0 1.497493 1_555
O22 V2 2.041357 1_555
O23 P5 1.581892 1_555
O23 P9 1.651199 1_555
O24 P8 1.508189 1_555
O24 V2 2.065654 1_555
O25 P7 1.486700 1_555
O25 V3 2.091726 1_555
O26 P6 1.598551 1_555
O26 P4 1.648833 1_556
O27 P0 1.521177 1_455
O27 V0 2.048384 1_555
O28 P7 1.619590 1_555
O28 P8 1.632980 1_555
O29 P8 1.499276 1_555
O29 V0 2.093793 1_555
O30 P7 1.623967 1_555
O30 P0 1.629197 1_555
O31 P9 1.521980 1_555
O31 V3 2.068572 1_455
