# generated using pymatgen
data_Na7Co3O8
_symmetry_space_group_name_H-M   'P 1'
_cell_length_a   5.51780800
_cell_length_b   8.24105391
_cell_length_c   10.46683023
_cell_angle_alpha   89.62461449
_cell_angle_beta   89.42248516
_cell_angle_gamma   88.88948003
_symmetry_Int_Tables_number   1
_chemical_formula_structural   Na7Co3O8
_chemical_formula_sum   'Na14 Co6 O16'
_cell_volume   475.83030625
_cell_formula_units_Z   2
loop_
 _symmetry_equiv_pos_site_id
 _symmetry_equiv_pos_as_xyz
  1  'x, y, z'
loop_
 _atom_site_type_symbol
 _atom_site_label
 _atom_site_symmetry_multiplicity
 _atom_site_fract_x
 _atom_site_fract_y
 _atom_site_fract_z
 _atom_site_occupancy
  Na  Na0  1  0.27775400  0.34999900  0.02028600  1
  Na  Na1  1  0.47609400  0.87726500  0.12625600  1
  Na  Na2  1  0.14141900  0.62153500  0.17444400  1
  Na  Na3  1  0.71365200  0.38504800  0.24069600  1
  Na  Na4  1  0.28385500  0.11407700  0.27644600  1
  Na  Na5  1  0.47998800  0.63263100  0.37927000  1
  Na  Na6  1  0.74317500  0.11749100  0.47300400  1
  Na  Na7  1  0.25682500  0.88250900  0.52699600  1
  Na  Na8  1  0.52001200  0.36736900  0.62073000  1
  Na  Na9  1  0.71614500  0.88592300  0.72355400  1
  Na  Na10  1  0.28634800  0.61495200  0.75930400  1
  Na  Na11  1  0.85858100  0.37846500  0.82555600  1
  Na  Na12  1  0.52390600  0.12273500  0.87374400  1
  Na  Na13  1  0.72224600  0.65000100  0.97971400  1
  Co  Co0  1  0.86375300  0.10860600  0.07871800  1
  Co  Co1  1  0.88183800  0.83905100  0.30356100  1
  Co  Co2  1  0.13634900  0.37835400  0.43747900  1
  Co  Co3  1  0.86365100  0.62164600  0.56252100  1
  Co  Co4  1  0.11816200  0.16094900  0.69643900  1
  Co  Co5  1  0.13624700  0.89139400  0.92128200  1
  O  O0  1  0.76017500  0.30883000  0.02612800  1
  O  O1  1  0.20571200  0.06923100  0.03918300  1
  O  O2  1  0.73850500  0.68426300  0.20899000  1
  O  O3  1  0.26050300  0.39669700  0.27730200  1
  O  O4  1  0.75682500  0.05913200  0.24470400  1
  O  O5  1  0.20548800  0.84418200  0.30774100  1
  O  O6  1  0.79550500  0.42821800  0.45979100  1
  O  O7  1  0.76607600  0.81933100  0.48604600  1
  O  O8  1  0.23392400  0.18066900  0.51395400  1
  O  O9  1  0.20449500  0.57178200  0.54020900  1
  O  O10  1  0.79451200  0.15581800  0.69225900  1
  O  O11  1  0.24317500  0.94086800  0.75529600  1
  O  O12  1  0.73949700  0.60330300  0.72269800  1
  O  O13  1  0.26149500  0.31573700  0.79101000  1
  O  O14  1  0.79428800  0.93076900  0.96081700  1
  O  O15  1  0.23982500  0.69117000  0.97387200  1
loop_
_geom_bond_atom_site_label_1
_geom_bond_atom_site_label_2
_geom_bond_distance
_geom_bond_site_symmetry_2
Na0 O1 2.361989 1_555
Na0 O13 2.420946 1_554
Na0 O0 2.678170 1_555
Na0 O3 2.720481 1_555
Na0 O15 2.854172 1_554
Na0 O0 2.882497 1_455
Na1 O2 2.300908 1_555
Na1 O1 2.340125 1_565
Na1 O5 2.421575 1_555
Na1 O14 2.496848 1_554
Na1 O4 2.517119 1_565
Na1 O15 2.597500 1_554
Na2 O3 2.228227 1_555
Na2 O15 2.237130 1_554
Na2 O2 2.298326 1_455
Na2 O5 2.346666 1_555
Na3 O0 2.346246 1_555
Na3 O6 2.372184 1_555
Na3 O2 2.492149 1_555
Na3 O3 2.525833 1_555
Na3 O4 2.691922 1_555
Na4 O5 2.294844 1_545
Na4 O3 2.330224 1_555
Na4 O1 2.555294 1_555
Na4 O8 2.560324 1_555
Na4 O4 2.657995 1_555
Na4 O4 2.973997 1_455
Na5 O2 2.314024 1_555
Na5 O9 2.316612 1_555
Na5 O5 2.407802 1_555
Na5 O7 2.502099 1_555
Na5 O6 2.544869 1_555
Na5 O3 2.555542 1_555
Na6 O10 2.339373 1_555
Na6 O4 2.440713 1_555
Na6 O7 2.460918 1_545
Na6 O6 2.585149 1_555
Na6 O8 2.805042 1_655
Na6 O8 2.876203 1_555
Na7 O5 2.339373 1_555
Na7 O11 2.440713 1_555
Na7 O8 2.460918 1_565
Na7 O9 2.585149 1_555
Na7 O7 2.805042 1_455
Na7 O7 2.876203 1_555
Na8 O13 2.314024 1_555
Na8 O6 2.316612 1_555
Na8 O10 2.407802 1_555
Na8 O8 2.502099 1_555
Na8 O9 2.544869 1_555
Na8 O12 2.555542 1_555
Na9 O10 2.294844 1_565
Na9 O12 2.330224 1_555
Na9 O14 2.555294 1_555
Na9 O7 2.560324 1_555
Na9 O11 2.657995 1_555
Na9 O11 2.973997 1_655
Na10 O15 2.346246 1_555
Na10 O9 2.372184 1_555
Na10 O13 2.492149 1_555
Na10 O12 2.525833 1_555
Na10 O11 2.691922 1_555
Na11 O12 2.228227 1_555
Na11 O0 2.237130 1_556
Na11 O13 2.298326 1_655
Na11 O10 2.346666 1_555
Na12 O13 2.300908 1_555
Na12 O14 2.340125 1_545
Na12 O10 2.421575 1_555
Na12 O1 2.496848 1_556
Na12 O11 2.517119 1_545
Na12 O0 2.597500 1_556
Na13 O14 2.361989 1_555
Na13 O2 2.420946 1_556
Na13 O15 2.678170 1_555
Na13 O12 2.720481 1_555
Na13 O0 2.854172 1_556
Na13 O15 2.882497 1_655
Co0 O0 1.819398 1_555
Co0 O4 1.874059 1_555
Co0 O1 1.949121 1_655
Co0 O14 1.967913 1_544
Co1 O5 1.788141 1_655
Co1 O2 1.817676 1_555
Co1 O7 2.014455 1_555
Co1 O4 2.022442 1_565
Co2 O3 1.811215 1_555
Co2 O8 1.882092 1_555
Co2 O6 1.929489 1_455
Co2 O9 1.972919 1_555
Co3 O12 1.811215 1_555
Co3 O7 1.882092 1_555
Co3 O9 1.929489 1_655
Co3 O6 1.972919 1_555
Co4 O10 1.788141 1_455
Co4 O13 1.817676 1_555
Co4 O8 2.014455 1_555
Co4 O11 2.022442 1_545
Co5 O15 1.819398 1_555
Co5 O11 1.874059 1_555
Co5 O14 1.949121 1_455
Co5 O1 1.967913 1_566
