# generated using pymatgen
data_FeOF
_symmetry_space_group_name_H-M   'P 1'
_cell_length_a   6.13785200
_cell_length_b   9.53862602
_cell_length_c   9.54458751
_cell_angle_alpha   89.90294745
_cell_angle_beta   89.84746460
_cell_angle_gamma   89.99675037
_symmetry_Int_Tables_number   1
_chemical_formula_structural   FeOF
_chemical_formula_sum   'Fe16 O16 F16'
_cell_volume   558.80107827
_cell_formula_units_Z   16
loop_
 _symmetry_equiv_pos_site_id
 _symmetry_equiv_pos_as_xyz
  1  'x, y, z'
loop_
 _atom_site_type_symbol
 _atom_site_label
 _atom_site_symmetry_multiplicity
 _atom_site_fract_x
 _atom_site_fract_y
 _atom_site_fract_z
 _atom_site_occupancy
  Fe  Fe0  1  0.01552600  0.23900600  0.73657700  1
  Fe  Fe1  1  0.48456000  0.26043200  0.76411400  1
  Fe  Fe2  1  0.99896200  0.26103100  0.26366100  1
  Fe  Fe3  1  0.49887700  0.23909800  0.23649400  1
  Fe  Fe4  1  0.26628700  0.51685400  0.97987800  1
  Fe  Fe5  1  0.73371300  0.48314600  0.02012200  1
  Fe  Fe6  1  0.23494100  0.48781100  0.51231900  1
  Fe  Fe7  1  0.76505900  0.51218900  0.48768100  1
  Fe  Fe8  1  0.98447400  0.76099400  0.26342300  1
  Fe  Fe9  1  0.51544000  0.73956800  0.23588600  1
  Fe  Fe10  1  0.00103800  0.73896900  0.73633900  1
  Fe  Fe11  1  0.50112300  0.76090200  0.76350600  1
  Fe  Fe12  1  0.26501900  0.01099800  0.98880700  1
  Fe  Fe13  1  0.73498100  0.98900200  0.01119300  1
  Fe  Fe14  1  0.23377900  0.01978700  0.48297800  1
  Fe  Fe15  1  0.76622100  0.98021300  0.51702200  1
  O  O0  1  0.75202300  0.33955300  0.16150800  1
  O  O1  1  0.25413400  0.34566800  0.65437800  1
  O  O2  1  0.50437500  0.40378000  0.90460200  1
  O  O3  1  0.00012400  0.40358200  0.40482900  1
  O  O4  1  0.49562500  0.59622000  0.09539800  1
  O  O5  1  0.99987600  0.59641800  0.59517100  1
  O  O6  1  0.74586600  0.65433200  0.34562200  1
  O  O7  1  0.24797700  0.66044700  0.83849200  1
  O  O8  1  0.75423100  0.84640900  0.15331000  1
  O  O9  1  0.74825300  0.83852800  0.66044900  1
  O  O10  1  0.50042600  0.90348200  0.90472600  1
  O  O11  1  0.00405500  0.90334300  0.40495600  1
  O  O12  1  0.49957400  0.09651800  0.09527400  1
  O  O13  1  0.99594500  0.09665700  0.59504400  1
  O  O14  1  0.24576900  0.15359100  0.84669000  1
  O  O15  1  0.25174700  0.16147200  0.33955100  1
  F  F0  1  0.24397300  0.35224800  0.14584800  1
  F  F1  1  0.74584000  0.34597000  0.65348700  1
  F  F2  1  0.99578000  0.40501100  0.90378300  1
  F  F3  1  0.49976600  0.40498100  0.40409200  1
  F  F4  1  0.00422000  0.59498900  0.09621700  1
  F  F5  1  0.50023400  0.59501900  0.59590800  1
  F  F6  1  0.75602700  0.64775200  0.85415200  1
  F  F7  1  0.25416000  0.65403000  0.34651300  1
  F  F8  1  0.24595000  0.84575500  0.15383800  1
  F  F9  1  0.25652900  0.85348500  0.64719100  1
  F  F10  1  0.00052800  0.90485300  0.90405400  1
  F  F11  1  0.49591900  0.90469300  0.40408500  1
  F  F12  1  0.99947200  0.09514700  0.09594600  1
  F  F13  1  0.50408100  0.09530700  0.59591500  1
  F  F14  1  0.75405000  0.15424500  0.84616200  1
  F  F15  1  0.74347100  0.14651500  0.35280900  1
loop_
_geom_bond_atom_site_label_1
_geom_bond_atom_site_label_2
_geom_bond_distance
_geom_bond_site_symmetry_2
Fe0 O13 1.920953 1_455
Fe0 O14 1.941745 1_555
Fe0 O1 1.945989 1_555
Fe1 O2 1.920815 1_555
Fe1 O1 1.939901 1_555
Fe1 O14 1.949167 1_555
Fe2 O3 1.915898 1_655
Fe2 O0 1.952989 1_555
Fe2 O15 1.958910 1_655
Fe3 O12 1.916414 1_555
Fe3 O15 1.950985 1_555
Fe3 O0 1.958706 1_555
Fe4 O7 1.924644 1_555
Fe4 O4 1.944605 1_556
Fe4 O2 1.952415 1_555
Fe5 O0 1.924644 1_555
Fe5 O2 1.944605 1_554
Fe5 O4 1.952415 1_555
Fe6 O1 1.919703 1_555
Fe6 O5 1.943386 1_455
Fe6 O3 1.945798 1_555
Fe7 O6 1.919703 1_555
Fe7 O3 1.943386 1_655
Fe7 O5 1.945798 1_555
Fe8 O11 1.920953 1_655
Fe8 O8 1.941745 1_555
Fe8 O6 1.945989 1_555
Fe9 O4 1.920815 1_555
Fe9 O6 1.939901 1_555
Fe9 O8 1.949167 1_555
Fe10 O5 1.915898 1_455
Fe10 O7 1.952989 1_555
Fe10 O9 1.958910 1_455
Fe11 O10 1.916414 1_555
Fe11 O9 1.950985 1_555
Fe11 O7 1.958706 1_555
Fe12 O14 1.923144 1_555
Fe12 O10 1.944212 1_545
Fe12 O12 1.944590 1_556
Fe13 O8 1.923144 1_555
Fe13 O12 1.944212 1_565
Fe13 O10 1.944590 1_554
Fe14 O15 1.925003 1_555
Fe14 O11 1.945496 1_545
Fe14 O13 1.951137 1_455
Fe15 O9 1.925003 1_555
Fe15 O13 1.945496 1_565
Fe15 O11 1.951137 1_655
F0 Fe2 2.066607 1_455
F0 Fe3 2.089288 1_555
F0 Fe4 2.232461 1_554
F1 Fe1 2.083430 1_555
F1 Fe0 2.100949 1_655
F1 Fe7 2.241142 1_555
F2 Fe5 2.090215 1_556
F2 Fe4 2.105131 1_655
F2 Fe0 2.253104 1_655
F3 Fe6 2.080162 1_555
F3 Fe7 2.084129 1_555
F3 Fe3 2.251934 1_555
F4 Fe4 2.090215 1_554
F4 Fe5 2.105131 1_455
F4 Fe8 2.253104 1_455
F5 Fe7 2.080162 1_555
F5 Fe6 2.084129 1_555
F5 Fe11 2.251934 1_555
F6 Fe10 2.066607 1_655
F6 Fe11 2.089288 1_555
F6 Fe5 2.232461 1_556
F7 Fe9 2.083430 1_555
F7 Fe8 2.100949 1_455
F7 Fe6 2.241142 1_555
F8 Fe8 2.076470 1_455
F8 Fe9 2.092659 1_555
F8 Fe12 2.229308 1_564
F9 Fe11 2.066794 1_555
F9 Fe10 2.089559 1_555
F9 Fe14 2.232736 1_565
F10 Fe12 2.079636 1_565
F10 Fe13 2.083332 1_456
F10 Fe10 2.252714 1_555
F11 Fe14 2.087394 1_565
F11 Fe15 2.108477 1_555
F11 Fe9 2.253882 1_555
F12 Fe13 2.079636 1_545
F12 Fe12 2.083332 1_654
F12 Fe2 2.252714 1_555
F13 Fe15 2.087394 1_545
F13 Fe14 2.108477 1_555
F13 Fe1 2.253882 1_555
F14 Fe0 2.076470 1_655
F14 Fe1 2.092659 1_555
F14 Fe13 2.229308 1_546
F15 Fe3 2.066794 1_555
F15 Fe2 2.089559 1_555
F15 Fe15 2.232736 1_545
