# generated using pymatgen
data_RbLaO2
_symmetry_space_group_name_H-M   'P 1'
_cell_length_a   6.88033966
_cell_length_b   6.88033966
_cell_length_c   6.88033923
_cell_angle_alpha   31.48251615
_cell_angle_beta   31.48251615
_cell_angle_gamma   31.48252230
_symmetry_Int_Tables_number   1
_chemical_formula_structural   RbLaO2
_chemical_formula_sum   'Rb1 La1 O2'
_cell_volume   78.86248869
_cell_formula_units_Z   1
loop_
 _symmetry_equiv_pos_site_id
 _symmetry_equiv_pos_as_xyz
  1  'x, y, z'
loop_
 _atom_site_type_symbol
 _atom_site_label
 _atom_site_symmetry_multiplicity
 _atom_site_fract_x
 _atom_site_fract_y
 _atom_site_fract_z
 _atom_site_occupancy
  Rb  Rb0  1  -0.00000000  -0.00000000  0.00000000  1
  La  La0  1  0.50000000  0.50000000  0.50000000  1
  O  O0  1  0.77248853  0.77248853  0.77248853  1
  O  O1  1  0.22751147  0.22751147  0.22751147  1
loop_
_geom_bond_atom_site_label_1
_geom_bond_atom_site_label_2
_geom_bond_distance
_geom_bond_site_symmetry_2
La0 O0 2.463341 1_554
La0 O1 2.463341 1_556
La0 O0 2.463342 1_545
La0 O0 2.463342 1_455
La0 O1 2.463342 1_655
La0 O1 2.463342 1_565
O0 Rb0 2.991387 1_665
O0 Rb0 2.991387 1_656
O0 Rb0 2.991387 1_566
O1 Rb0 2.991387 1_556
O1 Rb0 2.991387 1_565
O1 Rb0 2.991387 1_655
