# generated using pymatgen
data_CaAl2(SiO4)2
_symmetry_space_group_name_H-M   'P 1'
_cell_length_a   8.76071021
_cell_length_b   9.44434891
_cell_length_c   8.13195679
_cell_angle_alpha   82.17573783
_cell_angle_beta   84.94397759
_cell_angle_gamma   89.71413692
_symmetry_Int_Tables_number   1
_chemical_formula_structural   CaAl2(SiO4)2
_chemical_formula_sum   'Ca4 Al8 Si8 O32'
_cell_volume   663.95740088
_cell_formula_units_Z   4
loop_
 _symmetry_equiv_pos_site_id
 _symmetry_equiv_pos_as_xyz
  1  'x, y, z'
loop_
 _atom_site_type_symbol
 _atom_site_label
 _atom_site_symmetry_multiplicity
 _atom_site_fract_x
 _atom_site_fract_y
 _atom_site_fract_z
 _atom_site_occupancy
  Ca  Ca0  1  0.07623481  0.00235334  0.23048831  1
  Ca  Ca1  1  0.41826849  0.42322778  0.31187246  1
  Ca  Ca2  1  0.58173151  0.57677222  0.68812754  1
  Ca  Ca3  1  0.92376519  0.99764666  0.76951269  1
  Al  Al0  1  0.44003398  0.18910899  0.00080255  1
  Al  Al1  1  0.06743182  0.69025271  0.12005583  1
  Al  Al2  1  0.77215103  0.45258214  0.38787762  1
  Al  Al3  1  0.27822775  0.05517506  0.52235414  1
  Al  Al4  1  0.72177225  0.94482494  0.47764586  1
  Al  Al5  1  0.22784897  0.54741786  0.61212238  1
  Al  Al6  1  0.93256818  0.30974729  0.87994417  1
  Al  Al7  1  0.55996602  0.81089101  0.99919745  1
  Si  Si0  1  0.73895738  0.05435585  0.09660581  1
  Si  Si1  1  0.75433386  0.54554271  0.02286384  1
  Si  Si2  1  0.05405235  0.29376527  0.49838569  1
  Si  Si3  1  0.42994404  0.79377107  0.39283621  1
  Si  Si4  1  0.57005596  0.20622893  0.60716379  1
  Si  Si5  1  0.94594765  0.70623473  0.50161431  1
  Si  Si6  1  0.24566614  0.45445729  0.97713616  1
  Si  Si7  1  0.26104262  0.94564415  0.90339419  1
  O  O0  1  0.28507465  0.06731102  0.02419654  1
  O  O1  1  0.88902652  0.14138767  0.99895353  1
  O  O2  1  0.36766343  0.34594350  0.06806895  1
  O  O3  1  0.58506275  0.14075540  0.12796571  1
  O  O4  1  0.21919653  0.57109895  0.10560734  1
  O  O5  1  0.90455578  0.62765344  0.05419626  1
  O  O6  1  0.67498570  0.47806600  0.20664745  1
  O  O7  1  0.48967215  0.78657270  0.20437937  1
  O  O8  1  0.03406376  0.74690920  0.31701494  1
  O  O9  1  0.12267752  0.14740964  0.43282014  1
  O  O10  1  0.94054376  0.36231524  0.36623536  1
  O  O11  1  0.80082261  0.98948470  0.27325333  1
  O  O12  1  0.43507619  0.16946229  0.49385194  1
  O  O13  1  0.29359069  0.91034012  0.40936104  1
  O  O14  1  0.19968681  0.39818510  0.50980190  1
  O  O15  1  0.37959235  0.62943797  0.47445666  1
  O  O16  1  0.62040765  0.37056203  0.52554334  1
  O  O17  1  0.80031319  0.60181490  0.49019810  1
  O  O18  1  0.70640931  0.08966088  0.59063896  1
  O  O19  1  0.56492381  0.83053771  0.50614806  1
  O  O20  1  0.19917739  0.01051530  0.72674667  1
  O  O21  1  0.05945624  0.63768476  0.63376464  1
  O  O22  1  0.87732248  0.85259036  0.56717986  1
  O  O23  1  0.96593624  0.25309080  0.68298506  1
  O  O24  1  0.51032785  0.21342830  0.79562063  1
  O  O25  1  0.32501430  0.52193400  0.79335255  1
  O  O26  1  0.09544422  0.37234656  0.94580374  1
  O  O27  1  0.78080347  0.42890105  0.89439266  1
  O  O28  1  0.41493725  0.85924460  0.87203429  1
  O  O29  1  0.63233657  0.65405650  0.93193105  1
  O  O30  1  0.11097348  0.85861233  0.00104647  1
  O  O31  1  0.71492535  0.93268898  0.97580346  1
loop_
_geom_bond_atom_site_label_1
_geom_bond_atom_site_label_2
_geom_bond_distance
_geom_bond_site_symmetry_2
Ca0 O9 2.342393 1_555
Ca0 O0 2.393313 1_555
Ca0 O11 2.408499 1_445
Ca0 O8 2.439806 1_545
Ca0 O30 2.449942 1_545
Ca0 O13 2.573804 1_545
Ca0 O1 2.794417 1_454
Ca1 O2 2.283015 1_555
Ca1 O6 2.368607 1_555
Ca1 O14 2.381421 1_555
Ca1 O15 2.504233 1_555
Ca1 O16 2.588591 1_555
Ca1 O12 2.650433 1_555
Ca1 O4 2.767473 1_555
Ca2 O29 2.283015 1_555
Ca2 O25 2.368607 1_555
Ca2 O17 2.381421 1_555
Ca2 O16 2.504233 1_555
Ca2 O15 2.588591 1_555
Ca2 O19 2.650433 1_555
Ca2 O27 2.767473 1_555
Ca3 O22 2.342399 1_555
Ca3 O31 2.393308 1_555
Ca3 O20 2.408499 1_665
Ca3 O23 2.439807 1_565
Ca3 O1 2.449935 1_565
Ca3 O18 2.573811 1_565
Ca3 O30 2.794412 1_656
Al0 O24 1.712293 1_554
Al0 O3 1.728989 1_555
Al0 O2 1.745064 1_555
Al0 O0 1.764318 1_555
Al1 O5 1.703455 1_455
Al1 O4 1.743977 1_555
Al1 O8 1.756801 1_555
Al1 O30 1.769849 1_555
Al2 O10 1.707812 1_555
Al2 O6 1.754135 1_555
Al2 O17 1.760279 1_555
Al2 O16 1.769862 1_555
Al3 O12 1.731319 1_555
Al3 O20 1.740481 1_555
Al3 O13 1.747014 1_545
Al3 O9 1.770962 1_555
Al4 O19 1.731319 1_555
Al4 O11 1.740481 1_555
Al4 O18 1.747022 1_565
Al4 O22 1.770962 1_555
Al5 O21 1.707812 1_555
Al5 O25 1.754135 1_555
Al5 O14 1.760279 1_555
Al5 O15 1.769862 1_555
Al6 O26 1.703455 1_655
Al6 O27 1.743977 1_555
Al6 O23 1.756801 1_555
Al6 O1 1.769849 1_555
Al7 O7 1.712293 1_556
Al7 O28 1.728989 1_555
Al7 O29 1.745064 1_555
Al7 O31 1.764318 1_555
O0 Si7 1.635821 1_544
O1 Si0 1.638211 1_556
O2 Si6 1.631392 1_554
O3 Si0 1.591748 1_555
O4 Si6 1.620756 1_554
O5 Si1 1.587881 1_555
O6 Si1 1.638574 1_555
O7 Si3 1.585471 1_555
O8 Si5 1.624392 1_455
O9 Si2 1.640780 1_555
O10 Si2 1.598550 1_655
O11 Si0 1.620772 1_565
O12 Si4 1.628269 1_555
O13 Si3 1.629693 1_555
O14 Si2 1.633201 1_555
O15 Si3 1.648831 1_555
O16 Si4 1.648831 1_555
O17 Si5 1.633201 1_555
O18 Si4 1.629686 1_555
O19 Si3 1.628269 1_555
O20 Si7 1.620772 1_545
O21 Si5 1.598550 1_455
O22 Si5 1.640780 1_555
O23 Si2 1.624392 1_655
O24 Si4 1.585472 1_555
O25 Si6 1.638574 1_555
O26 Si6 1.587881 1_555
O27 Si1 1.620756 1_556
O28 Si7 1.591748 1_555
O29 Si1 1.631392 1_556
O30 Si7 1.638211 1_554
O31 Si0 1.635821 1_566
