# generated using pymatgen
data_Mg3(AsO4)2
_symmetry_space_group_name_H-M   'P 1'
_cell_length_a   11.56852200
_cell_length_b   6.38598100
_cell_length_c   9.16533605
_cell_angle_alpha   80.24817393
_cell_angle_beta   90.00000000
_cell_angle_gamma   90.00000000
_symmetry_Int_Tables_number   1
_chemical_formula_structural   Mg3(AsO4)2
_chemical_formula_sum   'Mg12 As8 O32'
_cell_volume   667.31800914
_cell_formula_units_Z   4
loop_
 _symmetry_equiv_pos_site_id
 _symmetry_equiv_pos_as_xyz
  1  'x, y, z'
loop_
 _atom_site_type_symbol
 _atom_site_label
 _atom_site_symmetry_multiplicity
 _atom_site_fract_x
 _atom_site_fract_y
 _atom_site_fract_z
 _atom_site_occupancy
  Mg  Mg0  1  0.38838500  0.38535100  0.08109400  1
  Mg  Mg1  1  0.11161500  0.88535100  0.08109400  1
  Mg  Mg2  1  0.08379300  0.33878100  0.26405300  1
  Mg  Mg3  1  0.70179900  0.36779100  0.36230000  1
  Mg  Mg4  1  0.41620700  0.83878100  0.26405300  1
  Mg  Mg5  1  0.79820100  0.86779100  0.36230000  1
  Mg  Mg6  1  0.20179900  0.13220900  0.63770000  1
  Mg  Mg7  1  0.58379300  0.16121900  0.73594700  1
  Mg  Mg8  1  0.29820100  0.63220900  0.63770000  1
  Mg  Mg9  1  0.91620700  0.66121900  0.73594700  1
  Mg  Mg10  1  0.88838500  0.11464900  0.91890600  1
  Mg  Mg11  1  0.61161500  0.61464900  0.91890600  1
  As  As0  1  0.63494700  0.10791800  0.08822100  1
  As  As1  1  0.86505300  0.60791800  0.08822100  1
  As  As2  1  0.41972200  0.31264300  0.39742600  1
  As  As3  1  0.08027800  0.81264300  0.39742600  1
  As  As4  1  0.91972200  0.18735700  0.60257400  1
  As  As5  1  0.58027800  0.68735700  0.60257400  1
  As  As6  1  0.13494700  0.39208200  0.91177900  1
  As  As7  1  0.36505300  0.89208200  0.91177900  1
  O  O0  1  0.21102600  0.39542300  0.07356800  1
  O  O1  1  0.56511500  0.34960200  0.07229400  1
  O  O2  1  0.28897400  0.89542300  0.07356800  1
  O  O3  1  0.94581300  0.38241500  0.12881800  1
  O  O4  1  0.93488500  0.84960200  0.07229400  1
  O  O5  1  0.72619300  0.11932300  0.23544900  1
  O  O6  1  0.55418700  0.88241500  0.12881800  1
  O  O7  1  0.08627200  0.03461800  0.26281700  1
  O  O8  1  0.77380700  0.61932300  0.23544900  1
  O  O9  1  0.38407800  0.13284100  0.28491800  1
  O  O10  1  0.41372800  0.53461800  0.26281700  1
  O  O11  1  0.11592200  0.63284100  0.28491800  1
  O  O12  1  0.55428400  0.26521600  0.47846000  1
  O  O13  1  0.81610800  0.16564400  0.47344500  1
  O  O14  1  0.94571600  0.76521600  0.47846000  1
  O  O15  1  0.68389200  0.66564400  0.47344500  1
  O  O16  1  0.31610800  0.33435600  0.52655500  1
  O  O17  1  0.05428400  0.23478400  0.52154000  1
  O  O18  1  0.18389200  0.83435600  0.52655500  1
  O  O19  1  0.44571600  0.73478400  0.52154000  1
  O  O20  1  0.88407800  0.36715900  0.71508200  1
  O  O21  1  0.58627200  0.46538200  0.73718300  1
  O  O22  1  0.61592200  0.86715900  0.71508200  1
  O  O23  1  0.22619300  0.38067700  0.76455100  1
  O  O24  1  0.91372800  0.96538200  0.73718300  1
  O  O25  1  0.44581300  0.11758500  0.87118200  1
  O  O26  1  0.27380700  0.88067700  0.76455100  1
  O  O27  1  0.06511500  0.15039800  0.92770600  1
  O  O28  1  0.05418700  0.61758500  0.87118200  1
  O  O29  1  0.71102600  0.10457700  0.92643200  1
  O  O30  1  0.43488500  0.65039800  0.92770600  1
  O  O31  1  0.78897400  0.60457700  0.92643200  1
loop_
_geom_bond_atom_site_label_1
_geom_bond_atom_site_label_2
_geom_bond_distance
_geom_bond_site_symmetry_2
Mg0 O0 2.053582 1_555
Mg0 O1 2.060306 1_555
Mg0 O10 2.075204 1_555
Mg0 O30 2.079555 1_554
Mg0 O9 2.252131 1_555
Mg1 O2 2.053582 1_555
Mg1 O4 2.060306 1_455
Mg1 O7 2.075204 1_565
Mg1 O27 2.079555 1_564
Mg1 O11 2.252131 1_555
Mg2 O7 1.944541 1_555
Mg2 O11 1.955182 1_555
Mg2 O3 2.011187 1_455
Mg2 O0 2.265263 1_555
Mg2 O17 2.365595 1_555
Mg3 O8 1.998283 1_555
Mg3 O13 2.001844 1_555
Mg3 O12 2.058773 1_555
Mg3 O5 2.138677 1_555
Mg3 O15 2.314074 1_555
Mg4 O10 1.944541 1_555
Mg4 O9 1.955182 1_565
Mg4 O6 2.011187 1_555
Mg4 O2 2.265263 1_555
Mg4 O19 2.365595 1_555
Mg5 O5 1.998283 1_565
Mg5 O15 2.001844 1_555
Mg5 O14 2.058773 1_555
Mg5 O8 2.138677 1_555
Mg5 O13 2.314074 1_565
Mg6 O26 1.998283 1_545
Mg6 O16 2.001844 1_555
Mg6 O17 2.058773 1_555
Mg6 O23 2.138677 1_555
Mg6 O18 2.314074 1_545
Mg7 O21 1.944541 1_555
Mg7 O22 1.955182 1_545
Mg7 O25 2.011187 1_555
Mg7 O29 2.265263 1_555
Mg7 O12 2.365595 1_555
Mg8 O23 1.998283 1_555
Mg8 O18 2.001844 1_555
Mg8 O19 2.058773 1_555
Mg8 O26 2.138677 1_555
Mg8 O16 2.314074 1_555
Mg9 O24 1.944541 1_555
Mg9 O20 1.955182 1_555
Mg9 O28 2.011187 1_655
Mg9 O31 2.265263 1_555
Mg9 O14 2.365595 1_555
Mg10 O29 2.053582 1_555
Mg10 O27 2.060306 1_655
Mg10 O24 2.075204 1_545
Mg10 O4 2.079555 1_546
Mg10 O20 2.252131 1_555
Mg11 O31 2.053582 1_555
Mg11 O30 2.060306 1_555
Mg11 O21 2.075204 1_555
Mg11 O1 2.079555 1_556
Mg11 O22 2.252131 1_555
As0 O6 1.703985 1_545
As0 O5 1.724446 1_555
As0 O1 1.726170 1_555
As0 O29 1.727609 1_554
As1 O3 1.703985 1_555
As1 O8 1.724446 1_555
As1 O4 1.726170 1_555
As1 O31 1.727609 1_554
As2 O16 1.706547 1_555
As2 O10 1.715767 1_555
As2 O9 1.718382 1_555
As2 O12 1.729277 1_555
As3 O18 1.706547 1_555
As3 O7 1.715767 1_565
As3 O11 1.718382 1_555
As3 O14 1.729277 1_455
As4 O13 1.706547 1_555
As4 O24 1.715767 1_545
As4 O20 1.718382 1_555
As4 O17 1.729277 1_655
As5 O15 1.706547 1_555
As5 O21 1.715767 1_555
As5 O22 1.718382 1_555
As5 O19 1.729277 1_555
As6 O28 1.703985 1_555
As6 O23 1.724446 1_555
As6 O27 1.726170 1_555
As6 O0 1.727609 1_556
As7 O25 1.703985 1_565
As7 O26 1.724446 1_555
As7 O30 1.726170 1_555
As7 O2 1.727609 1_556
