# generated using pymatgen
data_Gd2W2O9
_symmetry_space_group_name_H-M   'P 1'
_cell_length_a   5.40389000
_cell_length_b   5.50792900
_cell_length_c   23.83693400
_cell_angle_alpha   90.00000000
_cell_angle_beta   90.00000000
_cell_angle_gamma   90.00000000
_symmetry_Int_Tables_number   1
_chemical_formula_structural   Gd2W2O9
_chemical_formula_sum   'Gd8 W8 O36'
_cell_volume   709.48828269
_cell_formula_units_Z   4
loop_
 _symmetry_equiv_pos_site_id
 _symmetry_equiv_pos_as_xyz
  1  'x, y, z'
loop_
 _atom_site_type_symbol
 _atom_site_label
 _atom_site_symmetry_multiplicity
 _atom_site_fract_x
 _atom_site_fract_y
 _atom_site_fract_z
 _atom_site_occupancy
  Gd  Gd0  1  0.27257800  0.87832300  0.29893100  1
  Gd  Gd1  1  0.77257800  0.87832300  0.20106900  1
  Gd  Gd2  1  0.27257800  0.62167700  0.70106900  1
  Gd  Gd3  1  0.77257800  0.62167700  0.79893100  1
  Gd  Gd4  1  0.72742200  0.37832300  0.29893100  1
  Gd  Gd5  1  0.22742200  0.37832300  0.20106900  1
  Gd  Gd6  1  0.72742200  0.12167700  0.70106900  1
  Gd  Gd7  1  0.22742200  0.12167700  0.79893100  1
  W  W0  1  0.75106300  0.82457500  0.42207300  1
  W  W1  1  0.25106300  0.82457500  0.07792700  1
  W  W2  1  0.75106300  0.67542500  0.57792700  1
  W  W3  1  0.25106300  0.67542500  0.92207300  1
  W  W4  1  0.24893700  0.32457500  0.42207300  1
  W  W5  1  0.74893700  0.32457500  0.07792700  1
  W  W6  1  0.24893700  0.17542500  0.57792700  1
  W  W7  1  0.74893700  0.17542500  0.92207300  1
  O  O0  1  0.53791700  0.98911000  0.09646500  1
  O  O1  1  0.46208300  0.01089000  0.90353500  1
  O  O2  1  0.00480500  0.88314900  0.74204700  1
  O  O3  1  0.45249600  0.92940500  0.56083400  1
  O  O4  1  0.50480500  0.88314900  0.75795300  1
  O  O5  1  0.95249600  0.92940500  0.93916600  1
  O  O6  1  0.64309900  0.77571400  0.34870800  1
  O  O7  1  0.14309900  0.77571400  0.15129200  1
  O  O8  1  0.33509800  0.75000000  0.00000000  1
  O  O9  1  0.83509800  0.75000000  0.50000000  1
  O  O10  1  0.64309900  0.72428600  0.65129200  1
  O  O11  1  0.14309900  0.72428600  0.84870800  1
  O  O12  1  0.45249600  0.57059500  0.43916600  1
  O  O13  1  0.00480500  0.61685100  0.25795300  1
  O  O14  1  0.95249600  0.57059500  0.06083400  1
  O  O15  1  0.50480500  0.61685100  0.24204700  1
  O  O16  1  0.96208300  0.48911000  0.40353500  1
  O  O17  1  0.03791700  0.51089000  0.59646500  1
  O  O18  1  0.46208300  0.48911000  0.09646500  1
  O  O19  1  0.53791700  0.51089000  0.90353500  1
  O  O20  1  0.99519500  0.38314900  0.74204700  1
  O  O21  1  0.54750400  0.42940500  0.56083400  1
  O  O22  1  0.49519500  0.38314900  0.75795300  1
  O  O23  1  0.04750400  0.42940500  0.93916600  1
  O  O24  1  0.35690100  0.27571400  0.34870800  1
  O  O25  1  0.85690100  0.27571400  0.15129200  1
  O  O26  1  0.66490200  0.25000000  0.00000000  1
  O  O27  1  0.16490200  0.25000000  0.50000000  1
  O  O28  1  0.35690100  0.22428600  0.65129200  1
  O  O29  1  0.85690100  0.22428600  0.84870800  1
  O  O30  1  0.54750400  0.07059500  0.43916600  1
  O  O31  1  0.99519500  0.11685100  0.25795300  1
  O  O32  1  0.04750400  0.07059500  0.06083400  1
  O  O33  1  0.49519500  0.11685100  0.24204700  1
  O  O34  1  0.03791700  0.98911000  0.40353500  1
  O  O35  1  0.96208300  0.01089000  0.59646500  1
loop_
_geom_bond_atom_site_label_1
_geom_bond_atom_site_label_2
_geom_bond_distance
_geom_bond_site_symmetry_2
Gd0 O31 2.219689 1_465
Gd0 O33 2.238713 1_565
Gd0 O13 2.263197 1_555
Gd0 O15 2.342543 1_555
Gd0 O6 2.395055 1_555
Gd0 O24 2.531076 1_565
Gd0 O34 2.863149 1_555
Gd1 O33 2.219689 1_565
Gd1 O31 2.238713 1_565
Gd1 O15 2.263197 1_555
Gd1 O13 2.342543 1_655
Gd1 O7 2.395055 1_655
Gd1 O25 2.531076 1_565
Gd1 O0 2.863149 1_555
Gd2 O20 2.219689 1_455
Gd2 O22 2.238713 1_555
Gd2 O2 2.263197 1_555
Gd2 O4 2.342543 1_555
Gd2 O10 2.395055 1_555
Gd2 O28 2.531076 1_555
Gd2 O17 2.863149 1_555
Gd3 O22 2.219689 1_555
Gd3 O20 2.238713 1_555
Gd3 O4 2.263197 1_555
Gd3 O2 2.342543 1_655
Gd3 O11 2.395055 1_655
Gd3 O29 2.531076 1_555
Gd3 O19 2.863149 1_555
Gd4 O13 2.219689 1_655
Gd4 O15 2.238713 1_555
Gd4 O31 2.263197 1_555
Gd4 O33 2.342543 1_555
Gd4 O24 2.395055 1_555
Gd4 O6 2.531076 1_555
Gd4 O16 2.863149 1_555
Gd5 O15 2.219689 1_555
Gd5 O13 2.238713 1_555
Gd5 O33 2.263197 1_555
Gd5 O31 2.342543 1_455
Gd5 O25 2.395055 1_455
Gd5 O7 2.531076 1_555
Gd5 O18 2.863149 1_555
Gd6 O2 2.219689 1_645
Gd6 O4 2.238713 1_545
Gd6 O20 2.263197 1_555
Gd6 O22 2.342543 1_555
Gd6 O28 2.395055 1_555
Gd6 O10 2.531076 1_545
Gd6 O35 2.863149 1_555
Gd7 O4 2.219689 1_545
Gd7 O2 2.238713 1_545
Gd7 O22 2.263197 1_555
Gd7 O20 2.342543 1_455
Gd7 O29 2.395055 1_455
Gd7 O11 2.531076 1_545
Gd7 O1 2.863149 1_555
O0 W1 1.849174 1_555
O0 W5 2.215779 1_565
O1 W7 1.849174 1_555
O1 W3 2.215779 1_545
O3 W6 1.792268 1_565
O3 W2 2.173954 1_555
O5 W7 1.792268 1_565
O5 W3 2.173954 1_655
O6 W0 1.863089 1_555
O7 W1 1.863089 1_555
O8 W3 1.955862 1_554
O8 W1 1.955862 1_555
O9 W2 1.955862 1_555
O9 W0 1.955862 1_555
O10 W2 1.863089 1_555
O11 W3 1.863089 1_555
O12 W4 1.792268 1_555
O12 W0 2.173954 1_555
O14 W5 1.792268 1_555
O14 W1 2.173954 1_655
O16 W4 1.849174 1_655
O16 W0 2.215779 1_555
O17 W2 1.849174 1_455
O17 W6 2.215779 1_555
O18 W5 1.849174 1_555
O18 W1 2.215779 1_555
O19 W3 1.849174 1_555
O19 W7 2.215779 1_555
O21 W2 1.792268 1_555
O21 W6 2.173954 1_555
O23 W3 1.792268 1_555
O23 W7 2.173954 1_455
O24 W4 1.863089 1_555
O25 W5 1.863089 1_555
O26 W7 1.955862 1_554
O26 W5 1.955862 1_555
O27 W6 1.955862 1_555
O27 W4 1.955862 1_555
O28 W6 1.863089 1_555
O29 W7 1.863089 1_555
O30 W0 1.792268 1_545
O30 W4 2.173954 1_555
O32 W1 1.792268 1_545
O32 W5 2.173954 1_455
O34 W0 1.849174 1_455
O34 W4 2.215779 1_565
O35 W6 1.849174 1_655
O35 W2 2.215779 1_545
