# generated using pymatgen
data_Fe4O5F3
_symmetry_space_group_name_H-M   'P 1'
_cell_length_a   4.76638530
_cell_length_b   4.76638530
_cell_length_c   12.09777200
_cell_angle_alpha   90.00000000
_cell_angle_beta   90.00000000
_cell_angle_gamma   95.43838081
_symmetry_Int_Tables_number   1
_chemical_formula_structural   Fe4O5F3
_chemical_formula_sum   'Fe8 O10 F6'
_cell_volume   273.60522441
_cell_formula_units_Z   2
loop_
 _symmetry_equiv_pos_site_id
 _symmetry_equiv_pos_as_xyz
  1  'x, y, z'
loop_
 _atom_site_type_symbol
 _atom_site_label
 _atom_site_symmetry_multiplicity
 _atom_site_fract_x
 _atom_site_fract_y
 _atom_site_fract_z
 _atom_site_occupancy
  Fe  Fe0  1  0.99130000  0.00870000  0.12836900  1
  Fe  Fe1  1  0.99130000  0.00870000  0.37163100  1
  Fe  Fe2  1  0.00870000  0.99130000  0.62836900  1
  Fe  Fe3  1  0.00870000  0.99130000  0.87163100  1
  Fe  Fe4  1  0.53197700  0.46802300  0.25000000  1
  Fe  Fe5  1  0.46802300  0.53197700  0.75000000  1
  Fe  Fe6  1  0.50000000  0.50000000  0.00000000  1
  Fe  Fe7  1  0.50000000  0.50000000  0.50000000  1
  O  O0  1  0.18570600  0.81429400  0.75000000  1
  O  O1  1  0.31003900  0.30140000  0.11890100  1
  O  O2  1  0.31003900  0.30140000  0.38109900  1
  O  O3  1  0.30140000  0.31003900  0.61890100  1
  O  O4  1  0.30140000  0.31003900  0.88109900  1
  O  O5  1  0.69860000  0.68996100  0.11890100  1
  O  O6  1  0.69860000  0.68996100  0.38109900  1
  O  O7  1  0.68996100  0.69860000  0.61890100  1
  O  O8  1  0.68996100  0.69860000  0.88109900  1
  O  O9  1  0.81429400  0.18570600  0.25000000  1
  F  F0  1  0.19578900  0.80421100  0.25000000  1
  F  F1  1  0.19051500  0.80948500  0.49840300  1
  F  F2  1  0.19051500  0.80948500  0.00159700  1
  F  F3  1  0.80948500  0.19051500  0.50159700  1
  F  F4  1  0.80421100  0.19578900  0.75000000  1
  F  F5  1  0.80948500  0.19051500  0.99840300  1
loop_
_geom_bond_atom_site_label_1
_geom_bond_atom_site_label_2
_geom_bond_distance
_geom_bond_site_symmetry_2
Fe0 O9 1.929693 1_555
Fe0 O5 1.966163 1_545
Fe0 O1 1.966163 1_655
Fe1 O9 1.929693 1_555
Fe1 O6 1.966163 1_545
Fe1 O2 1.966163 1_655
Fe2 O0 1.929693 1_555
Fe2 O7 1.966163 1_455
Fe2 O3 1.966163 1_565
Fe3 O0 1.929693 1_555
Fe3 O8 1.966163 1_455
Fe3 O4 1.966163 1_565
Fe4 O9 1.991148 1_555
Fe4 O5 2.026311 1_555
Fe4 O6 2.026311 1_555
Fe4 O1 2.026311 1_555
Fe4 O2 2.026311 1_555
Fe5 O0 1.991148 1_555
Fe5 O8 2.026311 1_555
Fe5 O3 2.026311 1_555
Fe5 O4 2.026311 1_555
Fe5 O7 2.026311 1_555
Fe6 O1 1.903286 1_555
Fe6 O5 1.903286 1_555
Fe6 O4 1.903286 1_554
Fe6 O8 1.903286 1_554
Fe7 O6 1.903286 1_555
Fe7 O2 1.903286 1_555
Fe7 O3 1.903286 1_555
Fe7 O7 1.903286 1_555
F0 Fe1 2.060401 1_465
F0 Fe0 2.060401 1_465
F0 Fe4 2.371094 1_555
F1 Fe2 2.028908 1_555
F1 Fe1 2.079963 1_465
F1 Fe7 2.182847 1_555
F2 Fe3 2.028908 1_554
F2 Fe0 2.079963 1_465
F2 Fe6 2.182847 1_555
F3 Fe1 2.028908 1_555
F3 Fe2 2.079963 1_645
F3 Fe7 2.182847 1_555
F4 Fe3 2.060401 1_645
F4 Fe2 2.060401 1_645
F4 Fe5 2.371094 1_555
F5 Fe0 2.028908 1_556
F5 Fe3 2.079963 1_645
F5 Fe6 2.182847 1_556
