# generated using pymatgen
data_BaSr2I6
_symmetry_space_group_name_H-M   'P 1'
_cell_length_a   14.47838233
_cell_length_b   14.47838233
_cell_length_c   7.53092500
_cell_angle_alpha   90.00000000
_cell_angle_beta   90.00000000
_cell_angle_gamma   120.00000151
_symmetry_Int_Tables_number   1
_chemical_formula_structural   BaSr2I6
_chemical_formula_sum   'Ba3 Sr6 I18'
_cell_volume   1367.15901122
_cell_formula_units_Z   3
loop_
 _symmetry_equiv_pos_site_id
 _symmetry_equiv_pos_as_xyz
  1  'x, y, z'
loop_
 _atom_site_type_symbol
 _atom_site_label
 _atom_site_symmetry_multiplicity
 _atom_site_fract_x
 _atom_site_fract_y
 _atom_site_fract_z
 _atom_site_occupancy
  Ba  Ba0  1  0.33333300  0.66666700  0.49421800  1
  Ba  Ba1  1  0.00000000  0.00000000  0.00000000  1
  Ba  Ba2  1  0.66666700  0.33333300  0.50578200  1
  Sr  Sr0  1  0.00000000  0.64460500  0.00000000  1
  Sr  Sr1  1  0.00000000  0.31091500  0.50000000  1
  Sr  Sr2  1  0.35539500  0.35539500  0.00000000  1
  Sr  Sr3  1  0.31091500  0.00000000  0.50000000  1
  Sr  Sr4  1  0.68908500  0.68908500  0.50000000  1
  Sr  Sr5  1  0.64460500  0.00000000  0.00000000  1
  I  I0  1  0.09452700  0.86413300  0.74853100  1
  I  I1  1  0.22097100  0.78541600  0.24265500  1
  I  I2  1  0.10554300  0.53021700  0.75159900  1
  I  I3  1  0.42467400  0.89445700  0.75159900  1
  I  I4  1  0.21458400  0.43555600  0.24265500  1
  I  I5  1  0.13586700  0.23039400  0.74853100  1
  I  I6  1  0.56444400  0.77902900  0.24265500  1
  I  I7  1  0.23039400  0.13586700  0.25146900  1
  I  I8  1  0.46978300  0.57532600  0.75159900  1
  I  I9  1  0.76960600  0.90547300  0.74853100  1
  I  I10  1  0.43555600  0.21458400  0.75734500  1
  I  I11  1  0.57532600  0.46978300  0.24840100  1
  I  I12  1  0.53021700  0.10554300  0.24840100  1
  I  I13  1  0.77902900  0.56444400  0.75734500  1
  I  I14  1  0.90547300  0.76960600  0.25146900  1
  I  I15  1  0.78541600  0.22097100  0.75734500  1
  I  I16  1  0.89445700  0.42467400  0.24840100  1
  I  I17  1  0.86413300  0.09452700  0.25146900  1
loop_
_geom_bond_atom_site_label_1
_geom_bond_atom_site_label_2
_geom_bond_distance
_geom_bond_site_symmetry_2
Ba0 I4 3.462460 1_555
Ba0 I6 3.462460 1_555
Ba0 I1 3.462460 1_555
Ba0 I3 3.467198 1_555
Ba0 I2 3.467199 1_555
Ba0 I8 3.467209 1_555
Ba1 I5 3.467182 1_554
Ba1 I7 3.467182 1_555
Ba1 I14 3.467182 1_445
Ba1 I9 3.467182 1_444
Ba1 I0 3.467182 1_544
Ba1 I17 3.467182 1_455
Ba2 I10 3.462460 1_555
Ba2 I13 3.462460 1_555
Ba2 I15 3.462460 1_555
Ba2 I16 3.467198 1_555
Ba2 I12 3.467199 1_555
Ba2 I11 3.467209 1_555
I0 Sr3 3.320421 1_565
I0 Sr0 3.348409 1_556
I1 Sr3 3.325417 1_565
I1 Sr0 3.347967 1_555
I2 Sr0 3.332888 1_556
I2 Sr1 3.339885 1_555
I3 Sr5 3.332888 1_566
I3 Sr3 3.339885 1_565
I4 Sr1 3.325418 1_555
I4 Sr2 3.347976 1_555
I5 Sr1 3.320421 1_555
I5 Sr2 3.348409 1_556
I6 Sr4 3.325428 1_555
I6 Sr5 3.347965 1_565
I7 Sr3 3.320421 1_555
I7 Sr2 3.348409 1_555
I8 Sr2 3.332888 1_556
I8 Sr4 3.339885 1_555
I9 Sr4 3.320421 1_555
I9 Sr5 3.348409 1_566
I10 Sr3 3.325418 1_555
I10 Sr2 3.347976 1_556
I11 Sr2 3.332888 1_555
I11 Sr4 3.339885 1_555
I12 Sr5 3.332888 1_555
I12 Sr3 3.339885 1_555
I13 Sr4 3.325428 1_555
I13 Sr0 3.347965 1_656
I14 Sr4 3.320421 1_555
I14 Sr0 3.348409 1_655
I15 Sr1 3.325417 1_655
I15 Sr5 3.347967 1_556
I16 Sr0 3.332888 1_655
I16 Sr1 3.339885 1_655
I17 Sr1 3.320421 1_655
I17 Sr5 3.348409 1_555
