# generated using pymatgen
data_LiCrPO4
_symmetry_space_group_name_H-M   'P 1'
_cell_length_a   9.41633894
_cell_length_b   9.41633894
_cell_length_c   6.58279800
_cell_angle_alpha   90.00000000
_cell_angle_beta   90.00000000
_cell_angle_gamma   120.00000658
_symmetry_Int_Tables_number   1
_chemical_formula_structural   LiCrPO4
_chemical_formula_sum   'Li6 Cr6 P6 O24'
_cell_volume   505.48153551
_cell_formula_units_Z   6
loop_
 _symmetry_equiv_pos_site_id
 _symmetry_equiv_pos_as_xyz
  1  'x, y, z'
loop_
 _atom_site_type_symbol
 _atom_site_label
 _atom_site_symmetry_multiplicity
 _atom_site_fract_x
 _atom_site_fract_y
 _atom_site_fract_z
 _atom_site_occupancy
  Li  Li0  1  0.33333300  0.66666700  0.21862000  1
  Li  Li1  1  0.33333300  0.66666700  0.76032000  1
  Li  Li2  1  0.00000000  0.00000000  0.11371300  1
  Li  Li3  1  0.00000000  0.00000000  0.61371300  1
  Li  Li4  1  0.66666700  0.33333300  0.71862000  1
  Li  Li5  1  0.66666700  0.33333300  0.26032000  1
  Cr  Cr0  1  0.10822300  0.71836700  0.49057100  1
  Cr  Cr1  1  0.28163300  0.38985600  0.49057100  1
  Cr  Cr2  1  0.61014400  0.89177700  0.49057100  1
  Cr  Cr3  1  0.38985600  0.10822300  0.99057100  1
  Cr  Cr4  1  0.71836700  0.61014400  0.99057100  1
  Cr  Cr5  1  0.89177700  0.28163300  0.99057100  1
  P  P0  1  0.05329100  0.69076900  0.99127700  1
  P  P1  1  0.30923100  0.36252100  0.99127700  1
  P  P2  1  0.63747900  0.94670900  0.99127700  1
  P  P3  1  0.36252100  0.05329100  0.49127700  1
  P  P4  1  0.69076900  0.63747900  0.49127700  1
  P  P5  1  0.94670900  0.30923100  0.49127700  1
  O  O0  1  0.17094800  0.96331600  0.49251700  1
  O  O1  1  0.16583300  0.73281800  0.17981500  1
  O  O2  1  0.16480000  0.73243000  0.80200200  1
  O  O3  1  0.08415000  0.49229800  0.49113000  1
  O  O4  1  0.40814800  0.91585000  0.49113000  1
  O  O5  1  0.03668400  0.20763100  0.49251700  1
  O  O6  1  0.26757000  0.43237000  0.80200200  1
  O  O7  1  0.26718200  0.43301500  0.17981500  1
  O  O8  1  0.20763100  0.17094800  0.99251700  1
  O  O9  1  0.56698500  0.83416700  0.17981500  1
  O  O10  1  0.56763000  0.83520000  0.80200200  1
  O  O11  1  0.50770200  0.59185200  0.49113000  1
  O  O12  1  0.49229800  0.40814800  0.99113000  1
  O  O13  1  0.43237000  0.16480000  0.30200200  1
  O  O14  1  0.43301500  0.16583300  0.67981500  1
  O  O15  1  0.79236900  0.82905200  0.49251700  1
  O  O16  1  0.73281800  0.56698500  0.67981500  1
  O  O17  1  0.73243000  0.56763000  0.30200200  1
  O  O18  1  0.96331600  0.79236900  0.99251700  1
  O  O19  1  0.59185200  0.08415000  0.99113000  1
  O  O20  1  0.91585000  0.50770200  0.99113000  1
  O  O21  1  0.83520000  0.26757000  0.30200200  1
  O  O22  1  0.83416700  0.26718200  0.67981500  1
  O  O23  1  0.82905200  0.03668400  0.99251700  1
loop_
_geom_bond_atom_site_label_1
_geom_bond_atom_site_label_2
_geom_bond_distance
_geom_bond_site_symmetry_2
Li0 O1 1.980756 1_555
Li0 O9 1.980762 1_555
Li0 O7 1.980765 1_555
Li1 O2 1.989957 1_555
Li1 O10 1.989964 1_555
Li1 O6 1.989966 1_555
Li2 O18 1.975594 1_444
Li2 O8 1.975597 1_554
Li2 O23 1.975603 1_454
Li3 O5 1.975594 1_555
Li3 O15 1.975597 1_445
Li3 O0 1.975603 1_545
Li4 O22 1.980756 1_555
Li4 O14 1.980762 1_555
Li4 O16 1.980765 1_555
Li5 O21 1.989957 1_555
Li5 O13 1.989964 1_555
Li5 O17 1.989966 1_555
Cr0 O3 2.024944 1_555
Cr0 O0 2.075269 1_555
Cr0 O1 2.103245 1_555
Cr0 O2 2.105627 1_555
Cr0 O4 2.486423 1_555
Cr1 O11 2.024944 1_555
Cr1 O5 2.075272 1_555
Cr1 O7 2.103245 1_555
Cr1 O6 2.105627 1_555
Cr1 O3 2.486424 1_555
Cr2 O4 2.024944 1_555
Cr2 O15 2.075278 1_555
Cr2 O9 2.103245 1_555
Cr2 O10 2.105627 1_555
Cr2 O11 2.486423 1_555
Cr3 O19 2.024944 1_555
Cr3 O8 2.075278 1_555
Cr3 O14 2.103245 1_555
Cr3 O13 2.105627 1_556
Cr3 O12 2.486423 1_555
Cr4 O12 2.024944 1_555
Cr4 O18 2.075272 1_555
Cr4 O16 2.103245 1_555
Cr4 O17 2.105627 1_556
Cr4 O20 2.486424 1_555
Cr5 O20 2.024944 1_555
Cr5 O23 2.075269 1_555
Cr5 O22 2.103245 1_555
Cr5 O21 2.105627 1_556
Cr5 O19 2.486423 1_555
O0 P3 1.563217 1_565
O1 P0 1.549374 1_554
O2 P0 1.548196 1_555
O3 P5 1.554199 1_455
O4 P3 1.554206 1_565
O5 P5 1.563233 1_455
O6 P1 1.548201 1_555
O7 P1 1.549379 1_554
O8 P1 1.563217 1_555
O9 P2 1.549374 1_554
O10 P2 1.548197 1_555
O11 P4 1.554197 1_555
O12 P1 1.554197 1_555
O13 P3 1.548197 1_555
O14 P3 1.549374 1_555
O15 P4 1.563217 1_555
O16 P4 1.549379 1_555
O17 P4 1.548201 1_555
O18 P0 1.563233 1_655
O19 P2 1.554206 1_545
O20 P0 1.554199 1_655
O21 P5 1.548196 1_555
O22 P5 1.549374 1_555
O23 P2 1.563217 1_545
