# generated using pymatgen
data_Li4Ti3Mn5O16
_symmetry_space_group_name_H-M   'P 1'
_cell_length_a   5.91596945
_cell_length_b   5.91596945
_cell_length_c   9.72643304
_cell_angle_alpha   87.82038687
_cell_angle_beta   87.82038687
_cell_angle_gamma   60.40236138
_symmetry_Int_Tables_number   1
_chemical_formula_structural   Li4Ti3Mn5O16
_chemical_formula_sum   'Li4 Ti3 Mn5 O16'
_cell_volume   295.70710592
_cell_formula_units_Z   1
loop_
 _symmetry_equiv_pos_site_id
 _symmetry_equiv_pos_as_xyz
  1  'x, y, z'
loop_
 _atom_site_type_symbol
 _atom_site_label
 _atom_site_symmetry_multiplicity
 _atom_site_fract_x
 _atom_site_fract_y
 _atom_site_fract_z
 _atom_site_occupancy
  Li  Li0  1  0.67511200  0.67511200  0.10680500  1
  Li  Li1  1  0.98998700  0.98998700  0.00433900  1
  Li  Li2  1  0.98684700  0.98684700  0.50392500  1
  Li  Li3  1  0.33723500  0.33723500  0.60687200  1
  Ti  Ti0  1  0.33822600  0.83744200  0.78349900  1
  Ti  Ti1  1  0.83744200  0.33822600  0.78349900  1
  Ti  Ti2  1  0.17030800  0.17030800  0.28902400  1
  Mn  Mn0  1  0.66676100  0.66676100  0.51073400  1
  Mn  Mn1  1  0.83050900  0.83050900  0.79035300  1
  Mn  Mn2  1  0.33980200  0.33980200  0.01304900  1
  Mn  Mn3  1  0.17426800  0.66359500  0.28393600  1
  Mn  Mn4  1  0.66359500  0.17426800  0.28393600  1
  O  O0  1  0.31185000  0.83996400  0.39343500  1
  O  O1  1  0.51905000  0.51905000  0.66716900  1
  O  O2  1  0.66456600  0.66456600  0.89336000  1
  O  O3  1  0.99643000  0.99643000  0.69013200  1
  O  O4  1  0.00224400  0.00224400  0.18946900  1
  O  O5  1  0.83996400  0.31185000  0.39343500  1
  O  O6  1  0.50583900  0.96861400  0.66341600  1
  O  O7  1  0.96861400  0.50583900  0.66341600  1
  O  O8  1  0.15353100  0.15353100  0.89312600  1
  O  O9  1  0.83297200  0.83297200  0.39163500  1
  O  O10  1  0.04909600  0.48448000  0.16300100  1
  O  O11  1  0.48448000  0.04909600  0.16300100  1
  O  O12  1  0.33033000  0.33033000  0.39296700  1
  O  O13  1  0.17235100  0.66667300  0.90223600  1
  O  O14  1  0.49168400  0.49168400  0.17014900  1
  O  O15  1  0.66667300  0.17235100  0.90223600  1
loop_
_geom_bond_atom_site_label_1
_geom_bond_atom_site_label_2
_geom_bond_distance
_geom_bond_site_symmetry_2
Li0 O14 1.948387 1_555
Li0 O10 2.011473 1_655
Li0 O11 2.011473 1_565
Li0 O2 2.083591 1_554
Li1 O4 1.810505 1_665
Li1 O8 1.951347 1_664
Li1 O15 1.957869 1_564
Li1 O13 1.957869 1_654
Li2 O3 1.818080 1_555
Li2 O9 1.954497 1_555
Li2 O5 1.967305 1_565
Li2 O0 1.967305 1_655
Li3 O6 1.963382 1_545
Li3 O7 1.963382 1_455
Li3 O1 1.973991 1_555
Li3 O12 2.084834 1_555
Mn0 O9 2.014317 1_555
Mn0 O1 2.096285 1_555
Mn0 O6 2.171511 1_555
Mn0 O7 2.171511 1_555
Mn0 O5 2.174436 1_555
Mn0 O0 2.174436 1_555
Mn1 O3 1.919227 1_555
Mn1 O2 1.932277 1_555
Mn1 O13 2.089114 1_655
Mn1 O15 2.089114 1_565
Mn1 O7 2.105849 1_555
Mn1 O6 2.105849 1_555
Mn2 O15 1.978091 1_554
Mn2 O13 1.978091 1_554
Mn2 O10 2.065826 1_555
Mn2 O11 2.065826 1_555
Mn2 O14 2.226196 1_555
Mn2 O8 2.276910 1_554
Mn3 O4 1.952120 1_565
Mn3 O14 1.956132 1_555
Mn3 O0 1.968455 1_555
Mn3 O12 1.995374 1_555
Mn3 O10 1.997742 1_555
Mn3 O9 2.024488 1_455
Mn4 O4 1.952120 1_655
Mn4 O14 1.956132 1_555
Mn4 O5 1.968455 1_555
Mn4 O12 1.995374 1_555
Mn4 O11 1.997742 1_555
Mn4 O9 2.024488 1_545
O0 Ti2 1.961893 1_565
O1 Ti0 2.012999 1_555
O1 Ti1 2.012999 1_555
O2 Ti1 2.009584 1_555
O2 Ti0 2.009584 1_555
O3 Ti0 1.998518 1_655
O3 Ti1 1.998518 1_565
O4 Ti2 2.009407 1_555
O5 Ti2 1.961893 1_655
O6 Ti0 1.884859 1_555
O7 Ti1 1.884859 1_555
O8 Ti1 1.967831 1_455
O8 Ti0 1.967831 1_545
O10 Ti2 2.012016 1_555
O11 Ti2 2.012016 1_555
O12 Ti2 1.960976 1_555
O13 Ti0 2.030202 1_555
O15 Ti1 2.030202 1_555
