# generated using pymatgen
data_Mn3(O2F)2
_symmetry_space_group_name_H-M   'P 1'
_cell_length_a   7.69450170
_cell_length_b   5.56231228
_cell_length_c   5.56231228
_cell_angle_alpha   68.96065842
_cell_angle_beta   68.80211751
_cell_angle_gamma   68.80211751
_symmetry_Int_Tables_number   1
_chemical_formula_structural   Mn3(O2F)2
_chemical_formula_sum   'Mn6 O8 F4'
_cell_volume   199.67435241
_cell_formula_units_Z   2
loop_
 _symmetry_equiv_pos_site_id
 _symmetry_equiv_pos_as_xyz
  1  'x, y, z'
loop_
 _atom_site_type_symbol
 _atom_site_label
 _atom_site_symmetry_multiplicity
 _atom_site_fract_x
 _atom_site_fract_y
 _atom_site_fract_z
 _atom_site_occupancy
  Mn  Mn0  1  0.84783600  0.67368000  0.67368000  1
  Mn  Mn1  1  0.65782700  0.33813000  0.33813000  1
  Mn  Mn2  1  0.31699000  0.66081900  0.66081900  1
  Mn  Mn3  1  0.17929400  0.34116900  0.34116900  1
  Mn  Mn4  1  0.49552400  0.99771500  0.99771500  1
  Mn  Mn5  1  0.00038700  0.99283300  0.99283300  1
  O  O0  1  0.67063900  0.03358100  0.63871600  1
  O  O1  1  0.33255800  0.36342800  0.97144300  1
  O  O2  1  0.04747200  0.76816400  0.76816400  1
  O  O3  1  0.36680500  0.43881400  0.43881400  1
  O  O4  1  0.33255800  0.97144300  0.36342800  1
  O  O5  1  0.67063900  0.63871600  0.03358100  1
  O  O6  1  0.00153900  0.30488200  0.69224500  1
  O  O7  1  0.00153900  0.69224500  0.30488200  1
  F  F0  1  0.30816700  0.88084400  0.88084400  1
  F  F1  1  0.61482500  0.56722600  0.56722600  1
  F  F2  1  0.96081300  0.22444000  0.22444000  1
  F  F3  1  0.69458600  0.11187100  0.11187100  1
loop_
_geom_bond_atom_site_label_1
_geom_bond_atom_site_label_2
_geom_bond_distance
_geom_bond_site_symmetry_2
Mn0 O6 1.949155 1_655
Mn0 O7 1.949155 1_655
Mn0 O0 1.960271 1_565
Mn0 O5 1.960271 1_556
Mn0 O2 2.068324 1_655
Mn1 O5 1.907766 1_555
Mn1 O0 1.907766 1_555
Mn1 O3 2.013198 1_555
Mn2 O2 1.865137 1_555
Mn2 O3 1.899205 1_555
Mn2 O4 1.920975 1_555
Mn2 O1 1.920975 1_555
Mn3 O7 1.926119 1_555
Mn3 O6 1.926119 1_555
Mn3 O1 1.950450 1_554
Mn3 O4 1.950450 1_545
Mn3 O3 2.004219 1_555
Mn4 O0 1.950736 1_565
Mn4 O5 1.950736 1_556
Mn4 O4 1.950932 1_556
Mn4 O1 1.950932 1_565
Mn5 O2 1.929025 1_555
Mn5 O7 1.930008 1_556
Mn5 O6 1.930008 1_565
F0 Mn2 1.988842 1_555
F0 Mn5 2.128245 1_555
F0 Mn4 2.140643 1_555
F1 Mn1 1.978203 1_555
F1 Mn2 2.064683 1_555
F1 Mn0 2.388094 1_555
F2 Mn5 2.009048 1_644
F2 Mn1 2.095157 1_555
F2 Mn3 2.355983 1_655
F3 Mn1 1.967273 1_555
F3 Mn5 2.115363 1_644
F3 Mn4 2.201958 1_544
