# generated using pymatgen
data_Li2Co3SnO8
_symmetry_space_group_name_H-M   'P 1'
_cell_length_a   8.27866500
_cell_length_b   8.27866500
_cell_length_c   8.27866500
_cell_angle_alpha   90.00000000
_cell_angle_beta   90.00000000
_cell_angle_gamma   90.00000000
_symmetry_Int_Tables_number   1
_chemical_formula_structural   Li2Co3SnO8
_chemical_formula_sum   'Li8 Co12 Sn4 O32'
_cell_volume   567.38901988
_cell_formula_units_Z   4
loop_
 _symmetry_equiv_pos_site_id
 _symmetry_equiv_pos_as_xyz
  1  'x, y, z'
loop_
 _atom_site_type_symbol
 _atom_site_label
 _atom_site_symmetry_multiplicity
 _atom_site_fract_x
 _atom_site_fract_y
 _atom_site_fract_z
 _atom_site_occupancy
  Li  Li0  1  0.50033000  0.50033000  0.50033000  1
  Li  Li1  1  0.74967000  0.74967000  0.74967000  1
  Li  Li2  1  0.75033000  0.25033000  0.24967000  1
  Li  Li3  1  0.99967000  0.49967000  0.00033000  1
  Li  Li4  1  0.00033000  0.99967000  0.49967000  1
  Li  Li5  1  0.24967000  0.75033000  0.25033000  1
  Li  Li6  1  0.25033000  0.24967000  0.75033000  1
  Li  Li7  1  0.49967000  0.00033000  0.99967000  1
  Co  Co0  1  0.61476900  0.63523100  0.12500000  1
  Co  Co1  1  0.62500000  0.88523100  0.36476900  1
  Co  Co2  1  0.63523100  0.12500000  0.61476900  1
  Co  Co3  1  0.86476900  0.87500000  0.11476900  1
  Co  Co4  1  0.87500000  0.11476900  0.86476900  1
  Co  Co5  1  0.88523100  0.36476900  0.62500000  1
  Co  Co6  1  0.11476900  0.86476900  0.87500000  1
  Co  Co7  1  0.12500000  0.61476900  0.63523100  1
  Co  Co8  1  0.13523100  0.37500000  0.38523100  1
  Co  Co9  1  0.36476900  0.62500000  0.88523100  1
  Co  Co10  1  0.37500000  0.38523100  0.13523100  1
  Co  Co11  1  0.38523100  0.13523100  0.37500000  1
  Sn  Sn0  1  0.62500000  0.37500000  0.87500000  1
  Sn  Sn1  1  0.87500000  0.62500000  0.37500000  1
  Sn  Sn2  1  0.12500000  0.12500000  0.12500000  1
  Sn  Sn3  1  0.37500000  0.87500000  0.62500000  1
  O  O0  1  0.59722700  0.62776800  0.88915200  1
  O  O1  1  0.61084800  0.40277300  0.12776800  1
  O  O2  1  0.61611000  0.11611000  0.38389000  1
  O  O3  1  0.62223200  0.65277300  0.36084800  1
  O  O4  1  0.62776800  0.88915200  0.59722700  1
  O  O5  1  0.63389000  0.86611000  0.13389000  1
  O  O6  1  0.63915200  0.12223200  0.84722700  1
  O  O7  1  0.65277300  0.36084800  0.62223200  1
  O  O8  1  0.84722700  0.63915200  0.12223200  1
  O  O9  1  0.86084800  0.87776800  0.34722700  1
  O  O10  1  0.86611000  0.13389000  0.63389000  1
  O  O11  1  0.87223200  0.11084800  0.09722700  1
  O  O12  1  0.87776800  0.34722700  0.86084800  1
  O  O13  1  0.88389000  0.88389000  0.88389000  1
  O  O14  1  0.88915200  0.59722700  0.62776800  1
  O  O15  1  0.90277300  0.37223200  0.38915200  1
  O  O16  1  0.09722700  0.87223200  0.11084800  1
  O  O17  1  0.11084800  0.09722700  0.87223200  1
  O  O18  1  0.11611000  0.38389000  0.61611000  1
  O  O19  1  0.12223200  0.84722700  0.63915200  1
  O  O20  1  0.12776800  0.61084800  0.40277300  1
  O  O21  1  0.13389000  0.63389000  0.86611000  1
  O  O22  1  0.13915200  0.37776800  0.15277300  1
  O  O23  1  0.15277300  0.13915200  0.37776800  1
  O  O24  1  0.34722700  0.86084800  0.87776800  1
  O  O25  1  0.36084800  0.62223200  0.65277300  1
  O  O26  1  0.36611000  0.36611000  0.36611000  1
  O  O27  1  0.37223200  0.38915200  0.90277300  1
  O  O28  1  0.37776800  0.15277300  0.13915200  1
  O  O29  1  0.38389000  0.61611000  0.11611000  1
  O  O30  1  0.38915200  0.90277300  0.37223200  1
  O  O31  1  0.40277300  0.12776800  0.61084800  1
loop_
_geom_bond_atom_site_label_1
_geom_bond_atom_site_label_2
_geom_bond_distance
_geom_bond_site_symmetry_2
Li0 O26 1.924590 1_555
Li0 O25 1.986089 1_555
Li0 O3 1.986089 1_555
Li0 O7 1.986089 1_555
Li1 O13 1.924590 1_555
Li1 O4 1.986089 1_555
Li1 O14 1.986089 1_555
Li1 O0 1.986089 1_555
Li2 O2 1.924590 1_555
Li2 O11 1.986089 1_555
Li2 O15 1.986089 1_555
Li2 O1 1.986089 1_555
Li3 O21 1.924590 1_654
Li3 O22 1.986089 1_655
Li3 O12 1.986089 1_554
Li3 O8 1.986089 1_555
Li4 O10 1.924590 1_465
Li4 O23 1.986089 1_565
Li4 O9 1.986089 1_455
Li4 O19 1.986089 1_555
Li5 O29 1.924590 1_555
Li5 O16 1.986089 1_555
Li5 O30 1.986089 1_555
Li5 O20 1.986089 1_555
Li6 O18 1.924590 1_555
Li6 O27 1.986089 1_555
Li6 O17 1.986089 1_555
Li6 O31 1.986089 1_555
Li7 O5 1.924590 1_546
Li7 O28 1.986089 1_556
Li7 O24 1.986089 1_545
Li7 O6 1.986089 1_555
Co0 O29 1.919325 1_555
Co0 O5 1.919325 1_555
Co0 O8 1.924852 1_555
Co0 O1 1.924852 1_555
Co0 O0 1.958874 1_554
Co0 O3 1.958874 1_555
Co1 O2 1.919325 1_565
Co1 O5 1.919325 1_555
Co1 O3 1.924852 1_555
Co1 O4 1.924852 1_555
Co1 O9 1.958874 1_555
Co1 O30 1.958874 1_555
Co2 O2 1.919325 1_555
Co2 O10 1.919325 1_555
Co2 O6 1.924852 1_555
Co2 O31 1.924852 1_555
Co2 O4 1.958874 1_545
Co2 O7 1.958874 1_555
Co3 O13 1.919325 1_554
Co3 O5 1.919325 1_555
Co3 O16 1.924852 1_655
Co3 O9 1.924852 1_555
Co3 O8 1.958874 1_555
Co3 O11 1.958874 1_565
Co4 O13 1.919325 1_545
Co4 O10 1.919325 1_555
Co4 O11 1.924852 1_556
Co4 O12 1.924852 1_555
Co4 O6 1.958874 1_555
Co4 O17 1.958874 1_655
Co5 O18 1.919325 1_655
Co5 O10 1.919325 1_555
Co5 O7 1.924852 1_555
Co5 O14 1.924852 1_555
Co5 O12 1.958874 1_555
Co5 O15 1.958874 1_555
Co6 O13 1.919325 1_455
Co6 O21 1.919325 1_555
Co6 O17 1.924852 1_565
Co6 O24 1.924852 1_555
Co6 O19 1.958874 1_555
Co6 O16 1.958874 1_556
Co7 O18 1.919325 1_555
Co7 O21 1.919325 1_555
Co7 O19 1.924852 1_555
Co7 O20 1.924852 1_555
Co7 O14 1.958874 1_455
Co7 O25 1.958874 1_555
Co8 O26 1.919325 1_555
Co8 O18 1.919325 1_555
Co8 O15 1.924852 1_455
Co8 O22 1.924852 1_555
Co8 O20 1.958874 1_555
Co8 O23 1.958874 1_555
Co9 O29 1.919325 1_556
Co9 O21 1.919325 1_555
Co9 O25 1.924852 1_555
Co9 O0 1.924852 1_555
Co9 O24 1.958874 1_555
Co9 O27 1.958874 1_555
Co10 O26 1.919325 1_555
Co10 O29 1.919325 1_555
Co10 O27 1.924852 1_554
Co10 O28 1.924852 1_555
Co10 O1 1.958874 1_555
Co10 O22 1.958874 1_555
Co11 O26 1.919325 1_555
Co11 O2 1.919325 1_555
Co11 O30 1.924852 1_545
Co11 O23 1.924852 1_555
Co11 O31 1.958874 1_555
Co11 O28 1.958874 1_555
O0 Sn0 2.108433 1_555
O1 Sn0 2.108433 1_554
O3 Sn1 2.108433 1_555
O4 Sn3 2.108433 1_555
O6 Sn0 2.108433 1_555
O7 Sn0 2.108433 1_555
O8 Sn1 2.108433 1_555
O9 Sn1 2.108433 1_555
O11 Sn2 2.108433 1_655
O12 Sn0 2.108433 1_555
O14 Sn1 2.108433 1_555
O15 Sn1 2.108433 1_555
O16 Sn2 2.108433 1_565
O17 Sn2 2.108433 1_556
O19 Sn3 2.108433 1_555
O20 Sn1 2.108433 1_455
O22 Sn2 2.108433 1_555
O23 Sn2 2.108433 1_555
O24 Sn3 2.108433 1_555
O25 Sn3 2.108433 1_555
O27 Sn0 2.108433 1_555
O28 Sn2 2.108433 1_555
O30 Sn3 2.108433 1_555
O31 Sn3 2.108433 1_545
