# generated using pymatgen
data_Li2Cr3O6
_symmetry_space_group_name_H-M   'P 1'
_cell_length_a   5.10588826
_cell_length_b   5.10588826
_cell_length_c   10.35109880
_cell_angle_alpha   75.43350296
_cell_angle_beta   75.43350296
_cell_angle_gamma   60.00753798
_symmetry_Int_Tables_number   1
_chemical_formula_structural   Li2Cr3O6
_chemical_formula_sum   'Li4 Cr6 O12'
_cell_volume   223.64469614
_cell_formula_units_Z   2
loop_
 _symmetry_equiv_pos_site_id
 _symmetry_equiv_pos_as_xyz
  1  'x, y, z'
loop_
 _atom_site_type_symbol
 _atom_site_label
 _atom_site_symmetry_multiplicity
 _atom_site_fract_x
 _atom_site_fract_y
 _atom_site_fract_z
 _atom_site_occupancy
  Li  Li0  1  0.90396900  0.09046800  0.25848900  1
  Li  Li1  1  0.73790500  0.57849500  0.75984800  1
  Li  Li2  1  0.09046800  0.90396900  0.75848900  1
  Li  Li3  1  0.57849500  0.73790500  0.25984800  1
  Cr  Cr0  1  0.66528500  0.83922400  0.99547600  1
  Cr  Cr1  1  0.49567900  0.33073700  0.50983600  1
  Cr  Cr2  1  0.00442700  0.16853200  0.99537900  1
  Cr  Cr3  1  0.83922400  0.66528500  0.49547600  1
  Cr  Cr4  1  0.33073700  0.49567900  0.00983600  1
  Cr  Cr5  1  0.16853200  0.00442700  0.49537900  1
  O  O0  1  0.02449900  0.55396000  0.89459100  1
  O  O1  1  0.20219500  0.70428400  0.39360200  1
  O  O2  1  0.81137300  0.94417100  0.60464900  1
  O  O3  1  0.64313200  0.47304000  0.10520800  1
  O  O4  1  0.37652300  0.85598100  0.89410200  1
  O  O5  1  0.55396000  0.02449900  0.39459100  1
  O  O6  1  0.11156200  0.30619600  0.60572400  1
  O  O7  1  0.94417100  0.81137400  0.10464900  1
  O  O8  1  0.70428400  0.20219500  0.89360200  1
  O  O9  1  0.85598100  0.37652300  0.39410200  1
  O  O10  1  0.47304000  0.64313200  0.60520800  1
  O  O11  1  0.30619600  0.11156200  0.10572400  1
loop_
_geom_bond_atom_site_label_1
_geom_bond_atom_site_label_2
_geom_bond_distance
_geom_bond_site_symmetry_2
Li0 O5 2.094910 1_555
Li0 O9 2.159694 1_555
Li0 O1 2.201119 1_645
Li0 O3 2.238251 1_555
Li0 O11 2.287313 1_655
Li0 O7 2.300691 1_545
Li1 O4 2.104787 1_555
Li1 O8 2.123684 1_555
Li1 O0 2.204027 1_655
Li1 O10 2.208388 1_555
Li1 O6 2.247404 1_655
Li1 O2 2.257413 1_555
Li2 O0 2.094910 1_555
Li2 O4 2.159694 1_555
Li2 O8 2.201119 1_465
Li2 O10 2.238251 1_555
Li2 O6 2.287313 1_565
Li2 O2 2.300695 1_455
Li3 O9 2.104787 1_555
Li3 O1 2.123684 1_555
Li3 O5 2.204027 1_565
Li3 O3 2.208388 1_555
Li3 O11 2.247404 1_565
Li3 O7 2.257415 1_555
Cr0 O0 1.925297 1_655
Cr0 O11 1.947900 1_566
Cr0 O7 1.962415 1_556
Cr0 O8 1.966372 1_565
Cr0 O3 1.969081 1_556
Cr0 O4 1.972097 1_555
Cr1 O6 2.012796 1_555
Cr1 O9 2.013626 1_555
Cr1 O10 2.020509 1_555
Cr1 O2 2.024283 1_545
Cr1 O1 2.055724 1_555
Cr1 O5 2.061790 1_555
Cr2 O8 1.986361 1_455
Cr2 O11 2.008308 1_556
Cr2 O7 2.011936 1_446
Cr2 O4 2.015868 1_545
Cr2 O3 2.019779 1_456
Cr2 O0 2.021604 1_555
Cr3 O5 1.925297 1_565
Cr3 O6 1.947900 1_655
Cr3 O2 1.962412 1_555
Cr3 O1 1.966372 1_655
Cr3 O10 1.969081 1_555
Cr3 O9 1.972097 1_555
Cr4 O11 2.012796 1_555
Cr4 O4 2.013626 1_554
Cr4 O3 2.020509 1_555
Cr4 O7 2.024285 1_455
Cr4 O8 2.055724 1_554
Cr4 O0 2.061790 1_554
Cr5 O1 1.986361 1_545
Cr5 O6 2.008308 1_555
Cr5 O2 2.011940 1_445
Cr5 O9 2.015868 1_455
Cr5 O10 2.019779 1_545
Cr5 O5 2.021604 1_555
