# generated using pymatgen
data_RbInBP2HO9
_symmetry_space_group_name_H-M   'P 1'
_cell_length_a   5.34312819
_cell_length_b   8.41881146
_cell_length_c   8.42305353
_cell_angle_alpha   87.89338148
_cell_angle_beta   80.03337587
_cell_angle_gamma   86.98010135
_symmetry_Int_Tables_number   1
_chemical_formula_structural   RbInBP2HO9
_chemical_formula_sum   'Rb2 In2 B2 P4 H2 O18'
_cell_volume   372.50905209
_cell_formula_units_Z   2
loop_
 _symmetry_equiv_pos_site_id
 _symmetry_equiv_pos_as_xyz
  1  'x, y, z'
loop_
 _atom_site_type_symbol
 _atom_site_label
 _atom_site_symmetry_multiplicity
 _atom_site_fract_x
 _atom_site_fract_y
 _atom_site_fract_z
 _atom_site_occupancy
  Rb  Rb0  1  0.27661437  0.17194261  0.38165306  1
  Rb  Rb1  1  0.72338563  0.82805739  0.61834694  1
  In  In0  1  0.28202408  0.68901964  0.29359543  1
  In  In1  1  0.71797592  0.31098036  0.70640457  1
  B  B0  1  0.10753978  0.77257655  0.93622501  1
  B  B1  1  0.89246022  0.22742345  0.06377499  1
  P  P0  1  0.19142351  0.08084326  0.80460758  1
  P  P1  1  0.21540801  0.56386879  0.69143895  1
  P  P2  1  0.78459199  0.43613121  0.30856105  1
  P  P3  1  0.80857649  0.91915674  0.19539242  1
  H  H0  1  0.39600882  0.61778433  0.96999732  1
  H  H1  1  0.60399118  0.38221567  0.03000268  1
  O  O0  1  0.02960507  0.90085018  0.28798902  1
  O  O1  1  0.07255476  0.42441292  0.65304399  1
  O  O2  1  0.03647308  0.65907573  0.82618747  1
  O  O3  1  0.28022333  0.69215490  0.03576735  1
  O  O4  1  0.12733166  0.16817665  0.96631400  1
  O  O5  1  0.28106962  0.67802211  0.54656327  1
  O  O6  1  0.24754631  0.90216045  0.84166318  1
  O  O7  1  0.54101913  0.48651443  0.24088246  1
  O  O8  1  0.43661618  0.13882803  0.70844084  1
  O  O9  1  0.56338382  0.86117197  0.29155916  1
  O  O10  1  0.45898087  0.51348557  0.75911754  1
  O  O11  1  0.75245369  0.09783955  0.15833682  1
  O  O12  1  0.71893038  0.32197789  0.45343673  1
  O  O13  1  0.87266834  0.83182335  0.03368600  1
  O  O14  1  0.71977667  0.30784510  0.96423265  1
  O  O15  1  0.96352692  0.34092427  0.17381253  1
  O  O16  1  0.92744524  0.57558708  0.34695601  1
  O  O17  1  0.97039493  0.09914982  0.71201098  1
loop_
_geom_bond_atom_site_label_1
_geom_bond_atom_site_label_2
_geom_bond_distance
_geom_bond_site_symmetry_2
In0 O5 2.128504 1_555
In0 O16 2.137207 1_455
In0 O9 2.140017 1_555
In0 O7 2.147806 1_555
In0 O3 2.172570 1_555
In0 O0 2.182669 1_555
In1 O12 2.128504 1_555
In1 O1 2.137207 1_655
In1 O8 2.140017 1_555
In1 O10 2.147806 1_555
In1 O14 2.172570 1_555
In1 O17 2.182669 1_555
B0 O13 1.450908 1_456
B0 O2 1.463375 1_555
B0 O3 1.474094 1_556
B0 O6 1.483252 1_555
B1 O4 1.450908 1_654
B1 O15 1.463375 1_555
B1 O14 1.474094 1_554
B1 O11 1.483252 1_555
H0 O3 0.973501 1_556
H1 O14 0.973501 1_554
O0 P3 1.522372 1_455
O0 Rb0 2.895386 1_565
O0 Rb1 3.033136 1_455
O1 P1 1.507771 1_555
O1 Rb0 3.190979 1_555
O2 P1 1.566925 1_555
O2 Rb1 2.909812 1_455
O4 P0 1.548776 1_555
O5 P1 1.528695 1_555
O5 Rb1 2.900311 1_555
O5 Rb1 3.142618 1_455
O6 P0 1.549387 1_565
O6 Rb1 2.941982 1_555
O7 P2 1.542563 1_555
O7 Rb0 3.162104 1_555
O8 P0 1.510551 1_555
O8 Rb1 3.014940 1_545
O8 Rb0 3.019628 1_555
O9 P3 1.510551 1_555
O9 Rb0 3.014940 1_565
O9 Rb1 3.019628 1_555
O10 P1 1.542563 1_555
O10 Rb1 3.162104 1_555
O11 P3 1.549387 1_545
O11 Rb0 2.941982 1_555
O12 P2 1.528695 1_555
O12 Rb0 2.900311 1_555
O12 Rb0 3.142618 1_655
O13 P3 1.548776 1_555
O15 P2 1.566925 1_555
O15 Rb0 2.909812 1_655
O16 P2 1.507771 1_555
O16 Rb1 3.190979 1_555
O17 P0 1.522372 1_655
O17 Rb1 2.895386 1_545
O17 Rb0 3.033136 1_655
