# generated using pymatgen
data_Li4Mn(OF)2
_symmetry_space_group_name_H-M   'P 1'
_cell_length_a   6.69038500
_cell_length_b   7.10839500
_cell_length_c   8.27292200
_cell_angle_alpha   90.00001499
_cell_angle_beta   89.99998451
_cell_angle_gamma   90.00000000
_symmetry_Int_Tables_number   1
_chemical_formula_structural   Li4Mn(OF)2
_chemical_formula_sum   'Li16 Mn4 O8 F8'
_cell_volume   393.44279124
_cell_formula_units_Z   4
loop_
 _symmetry_equiv_pos_site_id
 _symmetry_equiv_pos_as_xyz
  1  'x, y, z'
loop_
 _atom_site_type_symbol
 _atom_site_label
 _atom_site_symmetry_multiplicity
 _atom_site_fract_x
 _atom_site_fract_y
 _atom_site_fract_z
 _atom_site_occupancy
  Li  Li0  1  0.50000700  0.50000000  0.33228700  1
  Li  Li1  1  0.49999300  0.99999900  0.83228700  1
  Li  Li2  1  0.99999300  0.50000000  0.33228700  1
  Li  Li3  1  0.00000700  0.99999900  0.83228700  1
  Li  Li4  1  0.99999300  0.50000100  0.66771300  1
  Li  Li5  1  0.00000700  0.99999900  0.16771300  1
  Li  Li6  1  0.50000600  0.50000000  0.66771300  1
  Li  Li7  1  0.49999300  0.99999900  0.16771300  1
  Li  Li8  1  0.25000000  0.73764800  0.15766300  1
  Li  Li9  1  0.25000000  0.23763900  0.65766900  1
  Li  Li10  1  0.75000000  0.26236000  0.15766900  1
  Li  Li11  1  0.75000000  0.76235100  0.65766300  1
  Li  Li12  1  0.75000000  0.26236000  0.84233100  1
  Li  Li13  1  0.75000000  0.76235100  0.34233800  1
  Li  Li14  1  0.25000000  0.73764800  0.84233700  1
  Li  Li15  1  0.25000000  0.23763900  0.34233100  1
  Mn  Mn0  1  0.75000000  0.12440000  0.49999900  1
  Mn  Mn1  1  0.25000000  0.37559200  0.00000100  1
  Mn  Mn2  1  0.75000600  0.62442700  0.00000100  1
  Mn  Mn3  1  0.25000100  0.87558900  0.49999800  1
  O  O0  1  0.25000000  0.47535500  0.22296900  1
  O  O1  1  0.25000000  0.97535400  0.72297400  1
  O  O2  1  0.75000000  0.52464400  0.22297300  1
  O  O3  1  0.75000000  0.02464300  0.72297000  1
  O  O4  1  0.75000000  0.52464500  0.77702600  1
  O  O5  1  0.75000000  0.02464400  0.27703000  1
  O  O6  1  0.24999900  0.47535600  0.77703000  1
  O  O7  1  0.25000000  0.97535500  0.27702700  1
  F  F0  1  0.02800900  0.79851800  0.00000000  1
  F  F1  1  0.02800200  0.29852200  0.50000000  1
  F  F2  1  0.52800200  0.20147800  0.00000000  1
  F  F3  1  0.52800800  0.70148100  0.50000000  1
  F  F4  1  0.47199100  0.79851800  0.00000000  1
  F  F5  1  0.47199700  0.29852200  0.50000000  1
  F  F6  1  0.97199800  0.20147900  0.00000000  1
  F  F7  1  0.97199100  0.70148100  0.50000000  1
loop_
_geom_bond_atom_site_label_1
_geom_bond_atom_site_label_2
_geom_bond_distance
_geom_bond_site_symmetry_2
Li0 O2 1.909437 1_555
Li0 O0 1.909536 1_555
Li1 O1 1.909434 1_555
Li1 O3 1.909531 1_565
Li2 O2 1.909438 1_555
Li2 O0 1.909536 1_655
Li3 O1 1.909434 1_555
Li3 O3 1.909531 1_465
Li4 O4 1.909433 1_555
Li4 O6 1.909526 1_655
Li5 O7 1.909438 1_555
Li5 O5 1.909532 1_465
Li6 O4 1.909440 1_555
Li6 O6 1.909531 1_555
Li7 O7 1.909437 1_555
Li7 O5 1.909532 1_565
Li8 O0 1.941182 1_555
Li8 O7 1.957108 1_555
Li9 O1 1.941125 1_545
Li9 O6 1.957157 1_555
Li10 O2 1.941116 1_555
Li10 O5 1.957151 1_555
Li11 O3 1.941177 1_565
Li11 O4 1.957098 1_555
Li12 O4 1.941125 1_555
Li12 O3 1.957157 1_555
Li13 O5 1.941187 1_565
Li13 O2 1.957112 1_555
Li14 O6 1.941177 1_555
Li14 O1 1.957098 1_555
Li15 O7 1.941116 1_545
Li15 O0 1.957155 1_555
Mn0 O5 1.976208 1_555
Mn0 O3 1.976226 1_555
Mn1 O0 1.976218 1_555
Mn1 O6 1.976244 1_554
Mn2 O2 1.976300 1_555
Mn2 O4 1.976320 1_554
Mn3 O7 1.976249 1_555
Mn3 O1 1.976285 1_555
F0 Li5 2.002849 1_555
F0 Li3 2.002849 1_554
F0 Li14 2.023447 1_554
F0 Li8 2.023448 1_555
F0 Mn2 2.234016 1_455
F1 Li2 2.002839 1_455
F1 Li4 2.002843 1_455
F1 Li15 2.023533 1_555
F1 Li9 2.023534 1_555
F1 Mn0 2.234133 1_455
F2 Li1 2.002843 1_544
F2 Li7 2.002844 1_545
F2 Li12 2.023532 1_554
F2 Li10 2.023532 1_555
F2 Mn1 2.234101 1_555
F3 Li0 2.002848 1_555
F3 Li6 2.002849 1_555
F3 Li13 2.023447 1_555
F3 Li11 2.023453 1_555
F3 Mn3 2.234105 1_555
F4 Li7 2.002849 1_555
F4 Li1 2.002849 1_554
F4 Li8 2.023447 1_555
F4 Li14 2.023448 1_554
F4 Mn2 2.234083 1_555
F5 Li6 2.002838 1_555
F5 Li0 2.002839 1_555
F5 Li9 2.023529 1_555
F5 Li15 2.023529 1_555
F5 Mn0 2.234138 1_555
F6 Li3 2.002848 1_644
F6 Li5 2.002849 1_645
F6 Li10 2.023530 1_555
F6 Li12 2.023531 1_554
F6 Mn1 2.234097 1_655
F7 Li4 2.002844 1_555
F7 Li2 2.002849 1_555
F7 Li13 2.023443 1_555
F7 Li11 2.023447 1_555
F7 Mn3 2.234122 1_655
