# generated using pymatgen
data_Mo9O26
_symmetry_space_group_name_H-M   'P 1'
_cell_length_a   8.21959542
_cell_length_b   15.43246927
_cell_length_c   17.17315885
_cell_angle_alpha   95.19106818
_cell_angle_beta   89.99841324
_cell_angle_gamma   105.45022811
_symmetry_Int_Tables_number   1
_chemical_formula_structural   Mo9O26
_chemical_formula_sum   'Mo36 O104'
_cell_volume   2090.40028954
_cell_formula_units_Z   4
loop_
 _symmetry_equiv_pos_site_id
 _symmetry_equiv_pos_as_xyz
  1  'x, y, z'
loop_
 _atom_site_type_symbol
 _atom_site_label
 _atom_site_symmetry_multiplicity
 _atom_site_fract_x
 _atom_site_fract_y
 _atom_site_fract_z
 _atom_site_occupancy
  Mo  Mo0  1  0.77072812  0.95247510  0.08342294  1
  Mo  Mo1  1  0.53932968  0.50016711  0.75131067  1
  Mo  Mo2  1  0.65453111  0.72246261  0.16203250  1
  Mo  Mo3  1  0.29225301  0.16514816  0.13486988  1
  Mo  Mo4  1  0.37712274  0.16525736  0.63180760  1
  Mo  Mo5  1  0.46174133  0.49997777  0.24816489  1
  Mo  Mo6  1  0.73058173  0.04684464  0.91799736  1
  Mo  Mo7  1  0.22959599  0.04706687  0.91721551  1
  Mo  Mo8  1  0.03952049  0.49955092  0.74804307  1
  Mo  Mo9  1  0.48390582  0.38775707  0.04363112  1
  Mo  Mo10  1  0.87407963  0.16511116  0.63462695  1
  Mo  Mo11  1  0.43226072  0.28112196  0.34015171  1
  Mo  Mo12  1  0.59449882  0.60998087  0.45391191  1
  Mo  Mo13  1  0.14981358  0.71934088  0.15948010  1
  Mo  Mo14  1  0.12837327  0.83552027  0.36509758  1
  Mo  Mo15  1  0.09572249  0.61272294  0.45715795  1
  Mo  Mo16  1  0.40678561  0.39014098  0.54590973  1
  Mo  Mo17  1  0.81839065  0.04792314  0.41719528  1
  Mo  Mo18  1  0.98474380  0.39060033  0.04658033  1
  Mo  Mo19  1  0.06771410  0.72233655  0.66267998  1
  Mo  Mo20  1  0.18111270  0.95311771  0.58300775  1
  Mo  Mo21  1  0.56999135  0.71947788  0.66003237  1
  Mo  Mo22  1  0.96141029  0.50119137  0.25238652  1
  Mo  Mo23  1  0.27125743  0.95354494  0.08264365  1
  Mo  Mo24  1  0.90611725  0.38841601  0.54322943  1
  Mo  Mo25  1  0.51743334  0.61103863  0.95653957  1
  Mo  Mo26  1  0.93349336  0.27851368  0.33780421  1
  Mo  Mo27  1  0.70760270  0.83461834  0.86582302  1
  Mo  Mo28  1  0.34569839  0.27796566  0.83776072  1
  Mo  Mo29  1  0.79003525  0.16495531  0.13185733  1
  Mo  Mo30  1  0.21227147  0.83500241  0.86881475  1
  Mo  Mo31  1  0.62391249  0.83552695  0.36835314  1
  Mo  Mo32  1  0.85067149  0.28073716  0.84022462  1
  Mo  Mo33  1  0.68308427  0.95308930  0.58247049  1
  Mo  Mo34  1  0.01608187  0.60962993  0.95355326  1
  Mo  Mo35  1  0.31729725  0.04786815  0.41816997  1
  O  O0  1  0.69050331  0.37629261  0.53119839  1
  O  O1  1  0.84411264  0.21213954  0.73372132  1
  O  O2  1  0.28017078  0.07930208  0.53040535  1
  O  O3  1  0.50275345  0.55956763  0.85377608  1
  O  O4  1  0.93555698  0.32814799  0.93899452  1
  O  O5  1  0.04965706  0.61496146  0.70502241  1
  O  O6  1  0.36879313  0.21267592  0.23400234  1
  O  O7  1  0.72088249  0.92067938  0.96946761  1
  O  O8  1  0.83608769  0.21357843  0.23288669  1
  O  O9  1  0.05864438  0.55987471  0.35419161  1
  O  O10  1  0.33926941  0.15504253  0.37835588  1
  O  O11  1  0.72276985  0.96119838  0.83387724  1
  O  O12  1  0.47171855  0.95486961  0.57582464  1
  O  O13  1  0.75162074  0.50427251  0.76249740  1
  O  O14  1  0.32642238  0.15333404  0.87751880  1
  O  O15  1  0.24673870  0.49400033  0.73641361  1
  O  O16  1  0.68756563  0.37614302  0.03128268  1
  O  O17  1  0.60796173  0.67153021  0.56135765  1
  O  O18  1  0.05585865  0.56082090  0.85369987  1
  O  O19  1  0.37509679  0.26710531  0.08435298  1
  O  O20  1  0.98161216  0.94978221  0.08389546  1
  O  O21  1  0.44754700  0.38623626  0.29441699  1
  O  O22  1  0.86419237  0.73472409  0.67470496  1
  O  O23  1  0.64436725  0.28130727  0.34646104  1
  O  O24  1  0.56822425  0.61606148  0.20597925  1
  O  O25  1  0.42627972  0.84083278  0.87880114  1
  O  O26  1  0.06287876  0.67080798  0.06141005  1
  O  O27  1  0.94421279  0.32757641  0.43989063  1
  O  O28  1  0.55549294  0.61454014  0.70588344  1
  O  O29  1  0.94272451  0.43973529  0.64601709  1
  O  O30  1  0.11132434  0.73387311  0.41585456  1
  O  O31  1  0.03138034  0.04959306  0.41669189  1
  O  O32  1  0.77258703  0.03948950  0.16613809  1
  O  O33  1  0.61969195  0.73489039  0.41876600  1
  O  O34  1  0.50539825  0.56140258  0.35468341  1
  O  O35  1  0.12898508  0.26404549  0.82665229  1
  O  O36  1  0.79845476  0.07815378  0.03060046  1
  O  O37  1  0.87130001  0.73697457  0.17322882  1
  O  O38  1  0.20496235  0.92193448  0.97002399  1
  O  O39  1  0.05669492  0.67438779  0.56037984  1
  O  O40  1  0.58484397  0.15859050  0.62119146  1
  O  O41  1  0.71886192  0.92208144  0.46977877  1
  O  O42  1  0.36076547  0.71759214  0.15242720  1
  O  O43  1  0.27857892  0.07903797  0.03142371  1
  O  O44  1  0.38452044  0.32659407  0.93970267  1
  O  O45  1  0.31316607  0.62210541  0.96886626  1
  O  O46  1  0.51783053  0.04531730  0.92579504  1
  O  O47  1  0.63047599  0.78794178  0.76656822  1
  O  O48  1  0.92109176  0.83730910  0.86196089  1
  O  O49  1  0.20080086  0.92179581  0.46928223  1
  O  O50  1  0.50071232  0.44115886  0.14650641  1
  O  O51  1  0.99926788  0.50035980  0.50055389  1
  O  O52  1  0.48470164  0.95648838  0.07582599  1
  O  O53  1  0.31045620  0.62307934  0.47001062  1
  O  O54  1  0.89242637  0.26670561  0.58356719  1
  O  O55  1  0.75426036  0.50687216  0.26392285  1
  O  O56  1  0.24891816  0.49437818  0.23650552  1
  O  O57  1  0.80424561  0.60744014  0.44440964  1
  O  O58  1  0.05945850  0.61536162  0.20662218  1
  O  O59  1  0.96831487  0.95187671  0.58240071  1
  O  O60  1  0.94496503  0.44007276  0.14578591  1
  O  O61  1  0.43093120  0.38471537  0.79406010  1
  O  O62  1  0.27686008  0.03862533  0.16702439  1
  O  O63  1  0.94054720  0.38544131  0.79419273  1
  O  O64  1  0.35776675  0.71883373  0.65329157  1
  O  O65  1  0.63895771  0.28128964  0.84634231  1
  O  O66  1  0.80110187  0.07889323  0.53129417  1
  O  O67  1  0.08473905  0.16241730  0.63862753  1
  O  O68  1  0.38126191  0.26617844  0.58205611  1
  O  O69  1  0.52851507  0.04622971  0.42598163  1
  O  O70  1  0.76241754  0.03839763  0.66666801  1
  O  O71  1  0.62389735  0.73258698  0.91637930  1
  O  O72  1  0.23917976  0.96238048  0.33389389  1
  O  O73  1  0.57611621  0.15962269  0.12252925  1
  O  O74  1  0.22939751  0.96029242  0.83442278  1
  O  O75  1  0.91729977  0.83791407  0.36146159  1
  O  O76  1  0.26677320  0.04007249  0.66571264  1
  O  O77  1  0.80318909  0.60541442  0.94425095  1
  O  O78  1  0.00073301  0.49944981  0.99967441  1
  O  O79  1  0.50326392  0.50036434  0.49961473  1
  O  O80  1  0.39509796  0.32835683  0.43881135  1
  O  O81  1  0.38273736  0.21335333  0.73324337  1
  O  O82  1  0.19766467  0.39408613  0.55420675  1
  O  O83  1  0.88718460  0.26571741  0.08166831  1
  O  O84  1  0.61906590  0.78731980  0.26710673  1
  O  O85  1  0.81604156  0.15405651  0.87829954  1
  O  O86  1  0.41616424  0.84195687  0.37847172  1
  O  O87  1  0.11517382  0.73452239  0.91918765  1
  O  O88  1  0.95127333  0.38520700  0.29453160  1
  O  O89  1  0.66247653  0.84548724  0.62150376  1
  O  O90  1  0.19766888  0.39442272  0.05583817  1
  O  O91  1  0.66966569  0.84629787  0.12280048  1
  O  O92  1  0.17166468  0.84723485  0.62374895  1
  O  O93  1  0.50086468  0.49991723  0.99978812  1
  O  O94  1  0.73249432  0.96105404  0.33447742  1
  O  O95  1  0.18648963  0.84526876  0.12059331  1
  O  O96  1  0.13735961  0.26626026  0.32723098  1
  O  O97  1  0.49462826  0.43986465  0.64557456  1
  O  O98  1  0.01742238  0.04739638  0.91712102  1
  O  O99  1  0.07839977  0.16169609  0.13851188  1
  O  O100  1  0.61757097  0.67277263  0.06004373  1
  O  O101  1  0.15839947  0.78923574  0.26565121  1
  O  O102  1  0.16790149  0.78597096  0.76776512  1
  O  O103  1  0.82677637  0.15436553  0.37761850  1
loop_
_geom_bond_atom_site_label_1
_geom_bond_atom_site_label_2
_geom_bond_distance
_geom_bond_site_symmetry_2
Mo0 O20 1.744949 1_555
Mo0 O91 1.818662 1_555
Mo0 O32 1.861488 1_565
Mo0 O7 1.989358 1_554
Mo0 O36 2.172431 1_565
Mo0 O52 2.372177 1_555
Mo1 O13 1.739159 1_555
Mo1 O97 1.952007 1_555
Mo1 O28 1.966191 1_555
Mo1 O3 1.970284 1_555
Mo1 O61 1.974373 1_555
Mo1 O15 2.394183 1_555
Mo2 O37 1.743958 1_555
Mo2 O24 1.836486 1_555
Mo2 O100 1.838708 1_555
Mo2 O84 2.042416 1_555
Mo2 O91 2.056200 1_555
Mo2 O42 2.400916 1_555
Mo3 O99 1.745643 1_555
Mo3 O6 1.833099 1_555
Mo3 O19 1.835255 1_555
Mo3 O62 2.048631 1_555
Mo3 O43 2.104227 1_555
Mo3 O73 2.366201 1_555
Mo4 O40 1.746187 1_555
Mo4 O81 1.826282 1_555
Mo4 O68 1.835589 1_555
Mo4 O76 2.040563 1_555
Mo4 O2 2.108550 1_555
Mo4 O67 2.395029 1_555
Mo5 O56 1.738973 1_555
Mo5 O50 1.960231 1_555
Mo5 O21 1.966929 1_555
Mo5 O34 1.969406 1_555
Mo5 O24 1.974746 1_555
Mo5 O55 2.392521 1_555
Mo6 O46 1.747895 1_555
Mo6 O85 1.811231 1_555
Mo6 O11 1.856682 1_545
Mo6 O36 1.992851 1_556
Mo6 O7 2.192563 1_545
Mo6 O98 2.355513 1_655
Mo7 O98 1.745344 1_555
Mo7 O14 1.815075 1_555
Mo7 O74 1.862567 1_545
Mo7 O43 1.992835 1_556
Mo7 O38 2.168217 1_545
Mo7 O46 2.381225 1_555
Mo8 O15 1.738650 1_555
Mo8 O18 1.956084 1_555
Mo8 O29 1.967514 1_455
Mo8 O63 1.969833 1_455
Mo8 O5 1.970791 1_555
Mo8 O13 2.399048 1_455
Mo9 O16 1.741361 1_555
Mo9 O50 1.869588 1_555
Mo9 O93 1.920842 1_554
Mo9 O44 2.007018 1_554
Mo9 O19 2.025869 1_555
Mo9 O90 2.390604 1_555
Mo10 O67 1.744574 1_655
Mo10 O1 1.831703 1_555
Mo10 O54 1.836458 1_555
Mo10 O70 2.051234 1_555
Mo10 O66 2.103991 1_555
Mo10 O40 2.362997 1_555
Mo11 O23 1.746022 1_555
Mo11 O21 1.840122 1_555
Mo11 O80 1.841315 1_555
Mo11 O6 2.017166 1_555
Mo11 O10 2.058902 1_555
Mo11 O96 2.381611 1_555
Mo12 O57 1.742212 1_555
Mo12 O34 1.865100 1_555
Mo12 O79 1.898522 1_555
Mo12 O17 1.986462 1_555
Mo12 O33 2.030001 1_555
Mo12 O53 2.410289 1_555
Mo13 O42 1.745357 1_555
Mo13 O58 1.839020 1_555
Mo13 O26 1.842464 1_555
Mo13 O101 2.023964 1_555
Mo13 O95 2.058216 1_555
Mo13 O37 2.385545 1_455
Mo14 O75 1.746381 1_455
Mo14 O101 1.833272 1_555
Mo14 O30 1.835875 1_555
Mo14 O72 2.046778 1_555
Mo14 O49 2.115417 1_555
Mo14 O86 2.351390 1_555
Mo15 O53 1.741525 1_555
Mo15 O9 1.868533 1_555
Mo15 O51 1.921503 1_455
Mo15 O39 2.002040 1_555
Mo15 O30 2.031592 1_555
Mo15 O57 2.384800 1_455
Mo16 O82 1.741484 1_555
Mo16 O97 1.872648 1_555
Mo16 O79 1.918431 1_555
Mo16 O80 1.983671 1_555
Mo16 O68 2.022408 1_555
Mo16 O0 2.409082 1_555
Mo17 O31 1.744033 1_655
Mo17 O103 1.818446 1_555
Mo17 O94 1.861384 1_545
Mo17 O66 1.988651 1_555
Mo17 O41 2.174184 1_545
Mo17 O69 2.380764 1_555
Mo18 O90 1.742160 1_655
Mo18 O60 1.868131 1_555
Mo18 O78 1.901353 1_654
Mo18 O4 1.994026 1_554
Mo18 O83 2.026604 1_555
Mo18 O16 2.405111 1_555
Mo19 O22 1.743818 1_455
Mo19 O39 1.836089 1_555
Mo19 O5 1.839465 1_555
Mo19 O102 2.036614 1_555
Mo19 O92 2.061051 1_555
Mo19 O64 2.404161 1_555
Mo20 O59 1.744129 1_455
Mo20 O92 1.817933 1_555
Mo20 O76 1.861594 1_565
Mo20 O49 1.986198 1_555
Mo20 O2 2.178211 1_565
Mo20 O12 2.384918 1_555
Mo21 O64 1.745565 1_555
Mo21 O28 1.839767 1_555
Mo21 O17 1.847316 1_555
Mo21 O47 2.020189 1_555
Mo21 O89 2.059722 1_555
Mo21 O22 2.377554 1_555
Mo22 O55 1.738521 1_555
Mo22 O9 1.960473 1_655
Mo22 O58 1.966097 1_655
Mo22 O60 1.969491 1_555
Mo22 O88 1.972199 1_555
Mo22 O56 2.407760 1_655
Mo23 O52 1.747074 1_555
Mo23 O95 1.810816 1_555
Mo23 O62 1.857264 1_565
Mo23 O38 1.990755 1_554
Mo23 O43 2.184987 1_565
Mo23 O20 2.366104 1_455
Mo24 O0 1.742112 1_555
Mo24 O29 1.858428 1_555
Mo24 O51 1.905821 1_555
Mo24 O27 1.996018 1_555
Mo24 O54 2.035520 1_555
Mo24 O82 2.381439 1_655
Mo25 O45 1.743337 1_555
Mo25 O3 1.858822 1_555
Mo25 O93 1.901845 1_555
Mo25 O100 2.005107 1_556
Mo25 O71 2.029658 1_555
Mo25 O77 2.382056 1_555
Mo26 O96 1.743357 1_655
Mo26 O88 1.837905 1_555
Mo26 O27 1.838162 1_555
Mo26 O8 2.034078 1_555
Mo26 O103 2.061369 1_555
Mo26 O23 2.392722 1_555
Mo27 O48 1.745592 1_555
Mo27 O47 1.833229 1_555
Mo27 O71 1.837566 1_555
Mo27 O11 2.048565 1_555
Mo27 O7 2.106874 1_555
Mo27 O25 2.349499 1_555
Mo28 O35 1.744785 1_555
Mo28 O44 1.834269 1_555
Mo28 O61 1.837595 1_555
Mo28 O81 2.036282 1_555
Mo28 O14 2.065408 1_555
Mo28 O65 2.401562 1_555
Mo29 O73 1.744902 1_555
Mo29 O8 1.824737 1_555
Mo29 O83 1.838335 1_555
Mo29 O32 2.043161 1_555
Mo29 O36 2.109708 1_555
Mo29 O99 2.387090 1_655
Mo30 O25 1.744907 1_555
Mo30 O102 1.825478 1_555
Mo30 O87 1.836611 1_555
Mo30 O74 2.041770 1_555
Mo30 O38 2.108402 1_555
Mo30 O48 2.406149 1_455
Mo31 O86 1.744450 1_555
Mo31 O84 1.824376 1_555
Mo31 O33 1.837757 1_555
Mo31 O94 2.042162 1_555
Mo31 O41 2.109695 1_555
Mo31 O75 2.405048 1_555
Mo32 O65 1.745607 1_555
Mo32 O63 1.837582 1_555
Mo32 O4 1.844645 1_555
Mo32 O1 2.021897 1_555
Mo32 O85 2.065280 1_555
Mo32 O35 2.378441 1_655
Mo33 O12 1.748755 1_555
Mo33 O89 1.813024 1_555
Mo33 O70 1.856706 1_565
Mo33 O41 1.992014 1_555
Mo33 O66 2.188140 1_565
Mo33 O59 2.349534 1_555
Mo34 O77 1.740505 1_455
Mo34 O18 1.874101 1_555
Mo34 O78 1.914118 1_555
Mo34 O26 1.990034 1_556
Mo34 O87 2.023845 1_555
Mo34 O45 2.410299 1_555
Mo35 O69 1.748365 1_555
Mo35 O10 1.811405 1_555
Mo35 O72 1.857589 1_545
Mo35 O2 1.988242 1_555
Mo35 O49 2.188405 1_545
Mo35 O31 2.357516 1_555
