# generated using pymatgen
data_MnFe(PO4)2
_symmetry_space_group_name_H-M   'P 1'
_cell_length_a   5.97452300
_cell_length_b   4.90803800
_cell_length_c   9.87202381
_cell_angle_alpha   89.28819710
_cell_angle_beta   90.00000000
_cell_angle_gamma   90.00000000
_symmetry_Int_Tables_number   1
_chemical_formula_structural   MnFe(PO4)2
_chemical_formula_sum   'Mn2 Fe2 P4 O16'
_cell_volume   289.45685085
_cell_formula_units_Z   2
loop_
 _symmetry_equiv_pos_site_id
 _symmetry_equiv_pos_as_xyz
  1  'x, y, z'
loop_
 _atom_site_type_symbol
 _atom_site_label
 _atom_site_symmetry_multiplicity
 _atom_site_fract_x
 _atom_site_fract_y
 _atom_site_fract_z
 _atom_site_occupancy
  Mn  Mn0  1  0.25000000  0.56312600  0.78087700  1
  Mn  Mn1  1  0.75000000  0.43687400  0.21912300  1
  Fe  Fe0  1  0.25000000  0.95855200  0.27616600  1
  Fe  Fe1  1  0.75000000  0.04144800  0.72383400  1
  P  P0  1  0.75000000  0.91180300  0.40054700  1
  P  P1  1  0.75000000  0.58260900  0.90439400  1
  P  P2  1  0.25000000  0.41739100  0.09560600  1
  P  P3  1  0.25000000  0.08819700  0.59945300  1
  O  O0  1  0.75000000  0.85048100  0.55280800  1
  O  O1  1  0.95382200  0.77542600  0.32802300  1
  O  O2  1  0.54617800  0.77542600  0.32802300  1
  O  O3  1  0.25000000  0.77423100  0.61890800  1
  O  O4  1  0.25000000  0.72342800  0.11721400  1
  O  O5  1  0.94890100  0.73376100  0.83031700  1
  O  O6  1  0.55109900  0.73376100  0.83031700  1
  O  O7  1  0.75000000  0.65053900  0.05590900  1
  O  O8  1  0.25000000  0.34946100  0.94409100  1
  O  O9  1  0.44890100  0.26623900  0.16968300  1
  O  O10  1  0.05109900  0.26623900  0.16968300  1
  O  O11  1  0.75000000  0.27657200  0.88278600  1
  O  O12  1  0.75000000  0.22576900  0.38109200  1
  O  O13  1  0.45382200  0.22457400  0.67197700  1
  O  O14  1  0.04617800  0.22457400  0.67197700  1
  O  O15  1  0.25000000  0.14951900  0.44719200  1
loop_
_geom_bond_atom_site_label_1
_geom_bond_atom_site_label_2
_geom_bond_distance
_geom_bond_site_symmetry_2
Mn0 O3 1.894477 1_555
Mn0 O8 1.911511 1_555
Mn0 O6 2.045940 1_555
Mn0 O5 2.045940 1_455
Mn0 O14 2.333246 1_555
Mn0 O13 2.333246 1_555
Mn1 O12 1.894477 1_555
Mn1 O7 1.911511 1_555
Mn1 O10 2.045940 1_655
Mn1 O9 2.045940 1_555
Mn1 O1 2.333246 1_555
Mn1 O2 2.333246 1_555
Fe0 O15 1.941237 1_565
Fe0 O4 1.959342 1_555
Fe0 O2 2.046870 1_555
Fe0 O1 2.046870 1_455
Fe0 O9 2.181342 1_565
Fe0 O10 2.181342 1_565
Fe1 O0 1.941237 1_545
Fe1 O11 1.959342 1_555
Fe1 O13 2.046870 1_555
Fe1 O14 2.046870 1_655
Fe1 O5 2.181342 1_545
Fe1 O6 2.181342 1_545
O0 P0 1.529289 1_555
O1 P0 1.566976 1_555
O2 P0 1.566976 1_555
O3 P3 1.550510 1_565
O4 P2 1.519734 1_555
O5 P1 1.576011 1_555
O6 P1 1.576011 1_555
O7 P1 1.536504 1_554
O8 P2 1.536504 1_556
O9 P2 1.576011 1_555
O10 P2 1.576011 1_555
O11 P1 1.519734 1_555
O12 P0 1.550510 1_545
O13 P3 1.566976 1_555
O14 P3 1.566976 1_555
O15 P3 1.529289 1_555
