# generated using pymatgen
data_Li2Ti3NiO8
_symmetry_space_group_name_H-M   'P 1'
_cell_length_a   8.42160100
_cell_length_b   8.42160100
_cell_length_c   8.42160100
_cell_angle_alpha   90.00000000
_cell_angle_beta   90.00000000
_cell_angle_gamma   90.00000000
_symmetry_Int_Tables_number   1
_chemical_formula_structural   Li2Ti3NiO8
_chemical_formula_sum   'Li8 Ti12 Ni4 O32'
_cell_volume   597.28826816
_cell_formula_units_Z   4
loop_
 _symmetry_equiv_pos_site_id
 _symmetry_equiv_pos_as_xyz
  1  'x, y, z'
loop_
 _atom_site_type_symbol
 _atom_site_label
 _atom_site_symmetry_multiplicity
 _atom_site_fract_x
 _atom_site_fract_y
 _atom_site_fract_z
 _atom_site_occupancy
  Li  Li0  1  0.99876500  0.99876500  0.99876500  1
  Li  Li1  1  0.25123500  0.25123500  0.25123500  1
  Li  Li2  1  0.24876500  0.74876500  0.75123500  1
  Li  Li3  1  0.50123500  0.00123500  0.49876500  1
  Li  Li4  1  0.49876500  0.50123500  0.00123500  1
  Li  Li5  1  0.75123500  0.24876500  0.74876500  1
  Li  Li6  1  0.74876500  0.75123500  0.24876500  1
  Li  Li7  1  0.00123500  0.49876500  0.50123500  1
  Ti  Ti0  1  0.12963200  0.12036800  0.62500000  1
  Ti  Ti1  1  0.12500000  0.37036800  0.87963200  1
  Ti  Ti2  1  0.12036800  0.62500000  0.12963200  1
  Ti  Ti3  1  0.37963200  0.37500000  0.62963200  1
  Ti  Ti4  1  0.37500000  0.62963200  0.37963200  1
  Ti  Ti5  1  0.37036800  0.87963200  0.12500000  1
  Ti  Ti6  1  0.62963200  0.37963200  0.37500000  1
  Ti  Ti7  1  0.62500000  0.12963200  0.12036800  1
  Ti  Ti8  1  0.62036800  0.87500000  0.87036800  1
  Ti  Ti9  1  0.87963200  0.12500000  0.37036800  1
  Ti  Ti10  1  0.87500000  0.87036800  0.62036800  1
  Ti  Ti11  1  0.87036800  0.62036800  0.87500000  1
  Ni  Ni0  1  0.12500000  0.87500000  0.37500000  1
  Ni  Ni1  1  0.37500000  0.12500000  0.87500000  1
  Ni  Ni2  1  0.62500000  0.62500000  0.62500000  1
  Ni  Ni3  1  0.87500000  0.37500000  0.12500000  1
  O  O0  1  0.10727300  0.12327600  0.39065200  1
  O  O1  1  0.10934800  0.89272700  0.62327600  1
  O  O2  1  0.11113700  0.61113700  0.88886300  1
  O  O3  1  0.12672400  0.14272700  0.85934800  1
  O  O4  1  0.12327600  0.39065200  0.10727300  1
  O  O5  1  0.13886300  0.36113700  0.63886300  1
  O  O6  1  0.14065200  0.62672400  0.35727300  1
  O  O7  1  0.14272700  0.85934800  0.12672400  1
  O  O8  1  0.35727300  0.14065200  0.62672400  1
  O  O9  1  0.35934800  0.37327600  0.85727300  1
  O  O10  1  0.36113700  0.63886300  0.13886300  1
  O  O11  1  0.37672400  0.60934800  0.60727300  1
  O  O12  1  0.37327600  0.85727300  0.35934800  1
  O  O13  1  0.38886300  0.38886300  0.38886300  1
  O  O14  1  0.39065200  0.10727300  0.12327600  1
  O  O15  1  0.39272700  0.87672400  0.89065200  1
  O  O16  1  0.60727300  0.37672400  0.60934800  1
  O  O17  1  0.60934800  0.60727300  0.37672400  1
  O  O18  1  0.61113700  0.88886300  0.11113700  1
  O  O19  1  0.62672400  0.35727300  0.14065200  1
  O  O20  1  0.62327600  0.10934800  0.89272700  1
  O  O21  1  0.63886300  0.13886300  0.36113700  1
  O  O22  1  0.64065200  0.87327600  0.64272700  1
  O  O23  1  0.64272700  0.64065200  0.87327600  1
  O  O24  1  0.85727300  0.35934800  0.37327600  1
  O  O25  1  0.85934800  0.12672400  0.14272700  1
  O  O26  1  0.86113700  0.86113700  0.86113700  1
  O  O27  1  0.87672400  0.89065200  0.39272700  1
  O  O28  1  0.87327600  0.64272700  0.64065200  1
  O  O29  1  0.88886300  0.11113700  0.61113700  1
  O  O30  1  0.89065200  0.39272700  0.87672400  1
  O  O31  1  0.89272700  0.62327600  0.10934800  1
loop_
_geom_bond_atom_site_label_1
_geom_bond_atom_site_label_2
_geom_bond_distance
_geom_bond_site_symmetry_2
Li0 O7 2.002423 1_656
Li0 O25 2.002423 1_566
Li0 O3 2.002423 1_665
Li0 O26 2.007530 1_555
Li1 O4 2.002423 1_555
Li1 O0 2.002423 1_555
Li1 O14 2.002423 1_555
Li1 O13 2.007530 1_555
Li2 O15 2.002423 1_555
Li2 O1 2.002423 1_555
Li2 O11 2.002423 1_555
Li2 O2 2.007530 1_555
Li3 O22 2.002423 1_545
Li3 O8 2.002423 1_555
Li3 O12 2.002423 1_545
Li3 O21 2.007530 1_555
Li4 O23 2.002423 1_554
Li4 O19 2.002423 1_555
Li4 O9 2.002423 1_554
Li4 O10 2.007530 1_555
Li5 O20 2.002423 1_555
Li5 O30 2.002423 1_555
Li5 O16 2.002423 1_555
Li5 O29 2.007530 1_555
Li6 O27 2.002423 1_555
Li6 O31 2.002423 1_555
Li6 O17 2.002423 1_555
Li6 O18 2.007530 1_555
Li7 O6 2.002423 1_555
Li7 O24 2.002423 1_455
Li7 O28 2.002423 1_455
Li7 O5 2.007530 1_555
Ni0 O0 2.100345 1_565
Ni0 O7 2.100345 1_555
Ni0 O12 2.100345 1_555
Ni0 O1 2.100345 1_555
Ni0 O6 2.100345 1_555
Ni0 O27 2.100345 1_455
Ni1 O14 2.100345 1_556
Ni1 O9 2.100345 1_555
Ni1 O3 2.100345 1_555
Ni1 O15 2.100345 1_545
Ni1 O8 2.100345 1_555
Ni1 O20 2.100345 1_555
Ni2 O17 2.100345 1_555
Ni2 O11 2.100345 1_555
Ni2 O16 2.100345 1_555
Ni2 O23 2.100345 1_555
Ni2 O22 2.100345 1_555
Ni2 O28 2.100345 1_555
Ni3 O4 2.100345 1_655
Ni3 O24 2.100345 1_555
Ni3 O25 2.100345 1_555
Ni3 O30 2.100345 1_554
Ni3 O31 2.100345 1_555
Ni3 O19 2.100345 1_555
O0 Ti9 1.924752 1_455
O0 Ti0 1.982699 1_555
O1 Ti0 1.924752 1_565
O1 Ti10 1.982699 1_455
O2 Ti11 2.032506 1_455
O2 Ti2 2.032506 1_556
O2 Ti1 2.032506 1_555
O3 Ti1 1.924752 1_555
O3 Ti0 1.982699 1_555
O4 Ti1 1.924752 1_554
O4 Ti2 1.982699 1_555
O5 Ti0 2.032506 1_555
O5 Ti3 2.032506 1_555
O5 Ti1 2.032506 1_555
O6 Ti2 1.924752 1_555
O6 Ti4 1.982699 1_555
O7 Ti5 1.924752 1_555
O7 Ti2 1.982699 1_555
O8 Ti0 1.924752 1_555
O8 Ti3 1.982699 1_555
O9 Ti3 1.924752 1_555
O9 Ti1 1.982699 1_555
O10 Ti2 2.032506 1_555
O10 Ti4 2.032506 1_555
O10 Ti5 2.032506 1_555
O11 Ti4 1.924752 1_555
O11 Ti3 1.982699 1_555
O12 Ti4 1.924752 1_555
O12 Ti5 1.982699 1_555
O13 Ti4 2.032506 1_555
O13 Ti3 2.032506 1_555
O13 Ti6 2.032506 1_555
O14 Ti5 1.924752 1_545
O14 Ti7 1.982699 1_555
O15 Ti8 1.924752 1_555
O15 Ti5 1.982699 1_556
O16 Ti3 1.924752 1_555
O16 Ti6 1.982699 1_555
O17 Ti6 1.924752 1_555
O17 Ti4 1.982699 1_555
O18 Ti8 2.032506 1_554
O18 Ti7 2.032506 1_565
O18 Ti5 2.032506 1_555
O19 Ti7 1.924752 1_555
O19 Ti6 1.982699 1_555
O20 Ti7 1.924752 1_556
O20 Ti8 1.982699 1_545
O21 Ti7 2.032506 1_555
O21 Ti6 2.032506 1_555
O21 Ti9 2.032506 1_555
O22 Ti8 1.924752 1_555
O22 Ti10 1.982699 1_555
O23 Ti11 1.924752 1_555
O23 Ti8 1.982699 1_555
O24 Ti6 1.924752 1_555
O24 Ti9 1.982699 1_555
O25 Ti9 1.924752 1_555
O25 Ti7 1.982699 1_555
O26 Ti11 2.032506 1_555
O26 Ti8 2.032506 1_555
O26 Ti10 2.032506 1_555
O27 Ti10 1.924752 1_555
O27 Ti9 1.982699 1_565
O28 Ti10 1.924752 1_555
O28 Ti11 1.982699 1_555
O29 Ti10 2.032506 1_545
O29 Ti0 2.032506 1_655
O29 Ti9 2.032506 1_555
O30 Ti11 1.924752 1_555
O30 Ti1 1.982699 1_655
O31 Ti2 1.924752 1_655
O31 Ti11 1.982699 1_554
