# generated using pymatgen
data_Cr(PO3)3
_symmetry_space_group_name_H-M   'P 1'
_cell_length_a   8.43861900
_cell_length_b   8.56244600
_cell_length_c   8.58455200
_cell_angle_alpha   90.00000000
_cell_angle_beta   90.00000000
_cell_angle_gamma   90.00000000
_symmetry_Int_Tables_number   1
_chemical_formula_structural   Cr(PO3)3
_chemical_formula_sum   'Cr4 P12 O36'
_cell_volume   620.27868909
_cell_formula_units_Z   4
loop_
 _symmetry_equiv_pos_site_id
 _symmetry_equiv_pos_as_xyz
  1  'x, y, z'
loop_
 _atom_site_type_symbol
 _atom_site_label
 _atom_site_symmetry_multiplicity
 _atom_site_fract_x
 _atom_site_fract_y
 _atom_site_fract_z
 _atom_site_occupancy
  Cr  Cr0  1  0.13149400  0.85567700  0.15293900  1
  Cr  Cr1  1  0.36850600  0.14432300  0.65293900  1
  Cr  Cr2  1  0.63149400  0.64432300  0.84706100  1
  Cr  Cr3  1  0.86850600  0.35567700  0.34706100  1
  P  P0  1  0.03318800  0.32231600  0.68553500  1
  P  P1  1  0.18155900  0.48420800  0.19036000  1
  P  P2  1  0.20584900  0.81022600  0.55342800  1
  P  P3  1  0.29415100  0.18977400  0.05342800  1
  P  P4  1  0.31844100  0.51579200  0.69036000  1
  P  P5  1  0.46681200  0.67768400  0.18553500  1
  P  P6  1  0.53318800  0.17768400  0.31446500  1
  P  P7  1  0.68155900  0.01579200  0.80964000  1
  P  P8  1  0.70584900  0.68977400  0.44657200  1
  P  P9  1  0.79415100  0.31022600  0.94657200  1
  P  P10  1  0.81844100  0.98420800  0.30964000  1
  P  P11  1  0.96681200  0.82231600  0.81446500  1
  O  O0  1  0.04559900  0.77876800  0.65095700  1
  O  O1  1  0.09712900  0.62419600  0.12608600  1
  O  O2  1  0.09508500  0.87398600  0.92349800  1
  O  O3  1  0.10431500  0.39874600  0.32360200  1
  O  O4  1  0.13727100  0.18930300  0.63472000  1
  O  O5  1  0.14069600  0.46895000  0.74090300  1
  O  O6  1  0.15700500  0.84563300  0.38995300  1
  O  O7  1  0.18533400  0.08384400  0.14228600  1
  O  O8  1  0.21691200  0.36279000  0.05131100  1
  O  O9  1  0.28308800  0.63721000  0.55131100  1
  O  O10  1  0.31466600  0.91615600  0.64228600  1
  O  O11  1  0.34299500  0.15436700  0.88995300  1
  O  O12  1  0.35930400  0.53105000  0.24090300  1
  O  O13  1  0.36272900  0.81069700  0.13472000  1
  O  O14  1  0.39568500  0.60125400  0.82360200  1
  O  O15  1  0.40491500  0.12601400  0.42349800  1
  O  O16  1  0.40287100  0.37580400  0.62608600  1
  O  O17  1  0.45440100  0.22123200  0.15095700  1
  O  O18  1  0.54559900  0.72123200  0.34904300  1
  O  O19  1  0.59712900  0.87580400  0.87391400  1
  O  O20  1  0.59508500  0.62601400  0.07650200  1
  O  O21  1  0.60431500  0.10125400  0.67639800  1
  O  O22  1  0.63727100  0.31069700  0.36528000  1
  O  O23  1  0.64069600  0.03105000  0.25909700  1
  O  O24  1  0.65700500  0.65436700  0.61004700  1
  O  O25  1  0.68533400  0.41615600  0.85771400  1
  O  O26  1  0.71691200  0.13721000  0.94868900  1
  O  O27  1  0.78308800  0.86279000  0.44868900  1
  O  O28  1  0.81466600  0.58384400  0.35771400  1
  O  O29  1  0.84299500  0.34563300  0.11004700  1
  O  O30  1  0.85930400  0.96895000  0.75909700  1
  O  O31  1  0.86272900  0.68930300  0.86528000  1
  O  O32  1  0.89568500  0.89874600  0.17639800  1
  O  O33  1  0.90491500  0.37398600  0.57650200  1
  O  O34  1  0.90287100  0.12419600  0.37391400  1
  O  O35  1  0.95440100  0.27876800  0.84904300  1
loop_
_geom_bond_atom_site_label_1
_geom_bond_atom_site_label_2
_geom_bond_distance
_geom_bond_site_symmetry_2
Cr0 O13 1.995089 1_555
Cr0 O2 1.999622 1_554
Cr0 O7 2.007885 1_565
Cr0 O1 2.016366 1_555
Cr0 O32 2.033780 1_455
Cr0 O6 2.047823 1_555
Cr1 O4 1.995089 1_555
Cr1 O15 1.999622 1_555
Cr1 O10 2.007885 1_545
Cr1 O16 2.016366 1_555
Cr1 O21 2.033780 1_555
Cr1 O11 2.047823 1_555
Cr2 O31 1.995089 1_555
Cr2 O20 1.999622 1_556
Cr2 O25 2.007885 1_555
Cr2 O19 2.016366 1_555
Cr2 O14 2.033780 1_555
Cr2 O24 2.047823 1_555
Cr3 O22 1.995089 1_555
Cr3 O33 1.999622 1_555
Cr3 O28 2.007885 1_555
Cr3 O34 2.016366 1_555
Cr3 O3 2.033780 1_655
Cr3 O29 2.047823 1_555
O0 P11 1.597273 1_455
O0 P2 1.613138 1_555
O1 P1 1.499599 1_555
O2 P11 1.497840 1_455
O3 P1 1.506219 1_555
O4 P0 1.502951 1_555
O5 P4 1.612108 1_555
O5 P0 1.620296 1_555
O6 P2 1.493727 1_555
O7 P3 1.499256 1_555
O8 P1 1.610807 1_555
O8 P3 1.618588 1_555
O9 P4 1.610807 1_555
O9 P2 1.618588 1_555
O10 P2 1.499256 1_555
O11 P3 1.493727 1_556
O12 P1 1.612108 1_555
O12 P5 1.620296 1_555
O13 P5 1.502951 1_555
O14 P4 1.506219 1_555
O15 P6 1.497840 1_555
O16 P4 1.499599 1_555
O17 P6 1.597273 1_555
O17 P3 1.613138 1_555
O18 P5 1.597273 1_555
O18 P8 1.613138 1_555
O19 P7 1.499599 1_565
O20 P5 1.497840 1_555
O21 P7 1.506219 1_555
O22 P6 1.502951 1_555
O23 P10 1.612108 1_545
O23 P6 1.620296 1_555
O24 P8 1.493727 1_555
O25 P9 1.499256 1_555
O26 P7 1.610807 1_555
O26 P9 1.618588 1_555
O27 P10 1.610807 1_555
O27 P8 1.618588 1_555
O28 P8 1.499256 1_555
O29 P9 1.493727 1_554
O30 P7 1.612108 1_565
O30 P11 1.620296 1_555
O31 P11 1.502951 1_555
O32 P10 1.506219 1_555
O33 P0 1.497840 1_655
O34 P10 1.499599 1_545
O35 P0 1.597273 1_655
O35 P9 1.613138 1_555
