# generated using pymatgen
data_Gd3SbO7
_symmetry_space_group_name_H-M   'P 1'
_cell_length_a   6.56121082
_cell_length_b   6.56121082
_cell_length_c   7.60446000
_cell_angle_alpha   90.00000000
_cell_angle_beta   90.00000000
_cell_angle_gamma   109.42010782
_symmetry_Int_Tables_number   1
_chemical_formula_structural   Gd3SbO7
_chemical_formula_sum   'Gd6 Sb2 O14'
_cell_volume   308.74283310
_cell_formula_units_Z   2
loop_
 _symmetry_equiv_pos_site_id
 _symmetry_equiv_pos_as_xyz
  1  'x, y, z'
loop_
 _atom_site_type_symbol
 _atom_site_label
 _atom_site_symmetry_multiplicity
 _atom_site_fract_x
 _atom_site_fract_y
 _atom_site_fract_z
 _atom_site_occupancy
  Gd  Gd0  1  0.46884100  0.00028400  0.25199400  1
  Gd  Gd1  1  0.99971600  0.53115900  0.24800600  1
  Gd  Gd2  1  0.48846400  0.48846400  0.00000000  1
  Gd  Gd3  1  0.51153600  0.51153600  0.50000000  1
  Gd  Gd4  1  0.53115900  0.99971600  0.75199400  1
  Gd  Gd5  1  0.00028400  0.46884100  0.74800600  1
  Sb  Sb0  1  0.99929700  0.99929700  0.50000000  1
  Sb  Sb1  1  0.00070300  0.00070300  0.00000000  1
  O  O0  1  0.93295100  0.06704900  0.75000000  1
  O  O1  1  0.63705700  0.36294300  0.75000000  1
  O  O2  1  0.31505800  0.06343800  0.53200200  1
  O  O3  1  0.93656200  0.68494200  0.96799800  1
  O  O4  1  0.62903600  0.37096400  0.25000000  1
  O  O5  1  0.92386300  0.67862300  0.52746000  1
  O  O6  1  0.32137700  0.07613700  0.97254000  1
  O  O7  1  0.07613700  0.32137700  0.02746000  1
  O  O8  1  0.67862300  0.92386300  0.47254000  1
  O  O9  1  0.37096400  0.62903600  0.75000000  1
  O  O10  1  0.68494200  0.93656200  0.03200200  1
  O  O11  1  0.06343800  0.31505800  0.46799800  1
  O  O12  1  0.36294300  0.63705700  0.25000000  1
  O  O13  1  0.06704900  0.93295100  0.25000000  1
loop_
_geom_bond_atom_site_label_1
_geom_bond_atom_site_label_2
_geom_bond_distance
_geom_bond_site_symmetry_2
Gd0 O12 2.249787 1_545
Gd0 O4 2.306561 1_555
Gd0 O10 2.319066 1_545
Gd0 O8 2.327591 1_545
Gd0 O2 2.449852 1_555
Gd0 O6 2.453585 1_554
Gd0 O13 2.524024 1_545
Gd1 O12 2.249787 1_655
Gd1 O4 2.306561 1_555
Gd1 O11 2.319066 1_655
Gd1 O7 2.327591 1_655
Gd1 O3 2.449852 1_554
Gd1 O5 2.453585 1_555
Gd1 O13 2.524024 1_655
Gd2 O4 2.352044 1_555
Gd2 O9 2.352044 1_554
Gd2 O1 2.403534 1_554
Gd2 O12 2.403534 1_555
Gd2 O6 2.567528 1_554
Gd2 O7 2.567528 1_555
Gd2 O10 2.800838 1_555
Gd2 O3 2.800838 1_554
Gd3 O9 2.352044 1_555
Gd3 O4 2.352044 1_555
Gd3 O1 2.403534 1_555
Gd3 O12 2.403534 1_555
Gd3 O8 2.567528 1_555
Gd3 O5 2.567528 1_555
Gd3 O2 2.800838 1_555
Gd3 O11 2.800838 1_555
Gd4 O1 2.249787 1_565
Gd4 O9 2.306561 1_555
Gd4 O2 2.319066 1_565
Gd4 O6 2.327591 1_565
Gd4 O10 2.449852 1_556
Gd4 O8 2.453585 1_555
Gd4 O0 2.524024 1_565
Gd5 O1 2.249787 1_455
Gd5 O9 2.306561 1_555
Gd5 O3 2.319066 1_455
Gd5 O5 2.327591 1_455
Gd5 O11 2.449852 1_555
Gd5 O7 2.453585 1_556
Gd5 O0 2.524024 1_455
O0 Sb1 2.032247 1_656
O0 Sb0 2.032247 1_545
O2 Sb0 1.987156 1_445
O3 Sb1 1.987156 1_666
O5 Sb0 2.005727 1_555
O6 Sb1 2.005727 1_556
O7 Sb1 2.005727 1_555
O8 Sb0 2.005727 1_555
O10 Sb1 1.987156 1_665
O11 Sb0 1.987156 1_445
O13 Sb1 2.032247 1_565
O13 Sb0 2.032247 1_455
