# generated using pymatgen
data_MnFeCo(PO4)3
_symmetry_space_group_name_H-M   'P 1'
_cell_length_a   5.95322800
_cell_length_b   9.90339500
_cell_length_c   14.59200382
_cell_angle_alpha   89.94069777
_cell_angle_beta   90.00000000
_cell_angle_gamma   90.00000000
_symmetry_Int_Tables_number   1
_chemical_formula_structural   MnFeCo(PO4)3
_chemical_formula_sum   'Mn4 Fe4 Co4 P12 O48'
_cell_volume   860.30276560
_cell_formula_units_Z   4
loop_
 _symmetry_equiv_pos_site_id
 _symmetry_equiv_pos_as_xyz
  1  'x, y, z'
loop_
 _atom_site_type_symbol
 _atom_site_label
 _atom_site_symmetry_multiplicity
 _atom_site_fract_x
 _atom_site_fract_y
 _atom_site_fract_z
 _atom_site_occupancy
  Mn  Mn0  1  0.50000000  0.78066600  0.14833600  1
  Mn  Mn1  1  0.00000000  0.71711400  0.64648500  1
  Mn  Mn2  1  0.00000000  0.71648500  0.31379500  1
  Mn  Mn3  1  0.50000000  0.28053200  0.01866400  1
  Fe  Fe0  1  0.50000000  0.77834800  0.81957200  1
  Fe  Fe1  1  0.50000000  0.77660200  0.48828400  1
  Fe  Fe2  1  0.00000000  0.72686200  0.98698600  1
  Fe  Fe3  1  0.50000000  0.27357700  0.34508400  1
  Co  Co0  1  0.50000000  0.28133900  0.68445500  1
  Co  Co1  1  0.00000000  0.21339300  0.85278800  1
  Co  Co2  1  0.00000000  0.22978100  0.17804900  1
  Co  Co3  1  0.00000000  0.21898200  0.51862600  1
  P  P0  1  0.00000000  0.90341500  0.80400900  1
  P  P1  1  0.00000000  0.90093300  0.47221900  1
  P  P2  1  0.00000000  0.90452800  0.13962400  1
  P  P3  1  0.50000000  0.59936800  0.97351700  1
  P  P4  1  0.50000000  0.59584700  0.63914300  1
  P  P5  1  0.50000000  0.59788200  0.30529300  1
  P  P6  1  0.00000000  0.40182100  0.69288900  1
  P  P7  1  0.00000000  0.40084800  0.02592200  1
  P  P8  1  0.00000000  0.39985800  0.36322400  1
  P  P9  1  0.50000000  0.09787400  0.85858800  1
  P  P10  1  0.50000000  0.09817800  0.52967100  1
  P  P11  1  0.50000000  0.09863000  0.19393700  1
  O  O0  1  0.50000000  0.94931400  0.88583700  1
  O  O1  1  0.50000000  0.94876500  0.55431100  1
  O  O2  1  0.50000000  0.94607400  0.21487300  1
  O  O3  1  0.00000000  0.88382200  0.90856700  1
  O  O4  1  0.00000000  0.88127100  0.57762700  1
  O  O5  1  0.00000000  0.88184200  0.24348300  1
  O  O6  1  0.20486300  0.83015700  0.75842400  1
  O  O7  1  0.79513700  0.83015700  0.75842400  1
  O  O8  1  0.20484600  0.82892100  0.42611900  1
  O  O9  1  0.79515400  0.82892100  0.42611900  1
  O  O10  1  0.19846200  0.82981200  0.08891300  1
  O  O11  1  0.80153800  0.82981200  0.08891300  1
  O  O12  1  0.70148100  0.67262300  0.92514400  1
  O  O13  1  0.29851900  0.67262300  0.92514400  1
  O  O14  1  0.69879300  0.67130900  0.58934000  1
  O  O15  1  0.30120700  0.67130900  0.58934000  1
  O  O16  1  0.70153400  0.67142700  0.25645900  1
  O  O17  1  0.29846600  0.67142700  0.25645900  1
  O  O18  1  0.50000000  0.61765200  0.74241800  1
  O  O19  1  0.50000000  0.61925700  0.40889700  1
  O  O20  1  0.50000000  0.61789200  0.07826500  1
  O  O21  1  0.00000000  0.55276700  0.71846800  1
  O  O22  1  0.00000000  0.55128400  0.04873100  1
  O  O23  1  0.00000000  0.55209100  0.38389600  1
  O  O24  1  0.50000000  0.44751300  0.95199300  1
  O  O25  1  0.50000000  0.44675100  0.28257100  1
  O  O26  1  0.50000000  0.44555900  0.61411700  1
  O  O27  1  0.00000000  0.38024800  0.92252400  1
  O  O28  1  0.00000000  0.38536200  0.58880800  1
  O  O29  1  0.00000000  0.37684800  0.25784900  1
  O  O30  1  0.20462600  0.32865000  0.74086400  1
  O  O31  1  0.79537400  0.32865000  0.74086400  1
  O  O32  1  0.20337500  0.32795200  0.40990800  1
  O  O33  1  0.79662500  0.32795200  0.40990800  1
  O  O34  1  0.19961800  0.32631900  0.07730800  1
  O  O35  1  0.80038200  0.32631900  0.07730800  1
  O  O36  1  0.70383300  0.17362400  0.57737800  1
  O  O37  1  0.29616700  0.17362400  0.57737800  1
  O  O38  1  0.70289200  0.17403600  0.90591800  1
  O  O39  1  0.29710800  0.17403600  0.90591800  1
  O  O40  1  0.70090200  0.16987100  0.24345400  1
  O  O41  1  0.29909800  0.16987100  0.24345400  1
  O  O42  1  0.50000000  0.11465500  0.75406300  1
  O  O43  1  0.50000000  0.11891200  0.42630600  1
  O  O44  1  0.50000000  0.11690800  0.08869700  1
  O  O45  1  0.00000000  0.05442100  0.77938400  1
  O  O46  1  0.00000000  0.05271600  0.45089900  1
  O  O47  1  0.00000000  0.05649400  0.11934300  1
loop_
_geom_bond_atom_site_label_1
_geom_bond_atom_site_label_2
_geom_bond_distance
_geom_bond_site_symmetry_2
Mn0 O2 1.905080 1_555
Mn0 O20 1.909833 1_555
Mn0 O10 2.051914 1_555
Mn0 O11 2.051914 1_555
Mn0 O16 2.257330 1_555
Mn0 O17 2.257330 1_555
Mn1 O4 1.910270 1_555
Mn1 O21 1.936185 1_555
Mn1 O15 2.029109 1_555
Mn1 O14 2.029109 1_455
Mn1 O6 2.326487 1_555
Mn1 O7 2.326487 1_455
Mn2 O23 1.921843 1_555
Mn2 O5 1.931555 1_555
Mn2 O17 2.014204 1_555
Mn2 O16 2.014204 1_455
Mn2 O8 2.327499 1_555
Mn2 O9 2.327499 1_455
Mn3 O44 1.914863 1_555
Mn3 O24 1.917756 1_554
Mn3 O35 2.033841 1_555
Mn3 O34 2.033841 1_555
Mn3 O38 2.298153 1_554
Mn3 O39 2.298153 1_554
Fe0 O18 1.950352 1_555
Fe0 O0 1.950666 1_555
Fe0 O7 2.036067 1_555
Fe0 O6 2.036067 1_555
Fe0 O13 2.214682 1_555
Fe0 O12 2.214682 1_555
Fe1 O19 1.942628 1_555
Fe1 O1 1.959257 1_555
Fe1 O9 2.043969 1_555
Fe1 O8 2.043969 1_555
Fe1 O15 2.158521 1_555
Fe1 O14 2.158521 1_555
Fe2 O3 1.929247 1_555
Fe2 O22 1.957554 1_556
Fe2 O12 2.064492 1_455
Fe2 O13 2.064492 1_555
Fe2 O10 2.156540 1_556
Fe2 O11 2.156540 1_456
Fe3 O43 1.935731 1_555
Fe3 O25 1.941678 1_555
Fe3 O33 2.074633 1_555
Fe3 O32 2.074633 1_555
Fe3 O40 2.165102 1_555
Fe3 O41 2.165102 1_555
Co0 O26 1.922226 1_555
Co0 O42 1.937305 1_555
Co0 O31 1.997480 1_555
Co0 O30 1.997480 1_555
Co0 O36 2.248376 1_555
Co0 O37 2.248376 1_555
Co1 O45 1.905095 1_555
Co1 O27 1.941519 1_555
Co1 O39 1.969981 1_555
Co1 O38 1.969981 1_455
Co1 O30 2.334592 1_555
Co1 O31 2.334592 1_455
Co2 O29 1.865668 1_555
Co2 O47 1.918847 1_555
Co2 O41 2.105288 1_555
Co2 O40 2.105288 1_455
Co2 O34 2.117615 1_555
Co2 O35 2.117615 1_455
Co3 O46 1.921285 1_555
Co3 O28 1.940946 1_555
Co3 O37 2.011134 1_555
Co3 O36 2.011134 1_455
Co3 O32 2.267965 1_555
Co3 O33 2.267965 1_455
O0 P9 1.523634 1_565
O1 P10 1.522391 1_565
O2 P11 1.541090 1_565
O3 P0 1.537801 1_555
O4 P1 1.550191 1_555
O5 P2 1.531843 1_555
O6 P0 1.567555 1_555
O7 P0 1.567555 1_655
O8 P1 1.565016 1_555
O9 P1 1.565016 1_655
O10 P2 1.578648 1_555
O11 P2 1.578648 1_655
O12 P3 1.569139 1_555
O13 P3 1.569139 1_555
O14 P4 1.576733 1_555
O15 P4 1.576733 1_555
O16 P5 1.573740 1_555
O17 P5 1.573740 1_555
O18 P4 1.522604 1_555
O19 P5 1.526755 1_555
O20 P3 1.539641 1_554
O21 P6 1.541146 1_555
O22 P7 1.526888 1_555
O23 P8 1.537810 1_555
O24 P3 1.536645 1_555
O25 P5 1.533330 1_555
O26 P4 1.532873 1_555
O27 P7 1.522723 1_556
O28 P6 1.527640 1_555
O29 P8 1.554660 1_555
O30 P6 1.580539 1_555
O31 P6 1.580539 1_655
O32 P8 1.560781 1_555
O33 P8 1.560781 1_655
O34 P7 1.586851 1_555
O35 P7 1.586851 1_655
O36 P10 1.586332 1_555
O37 P10 1.586332 1_555
O38 P9 1.583005 1_555
O39 P9 1.583005 1_555
O40 P11 1.565682 1_555
O41 P11 1.565682 1_555
O42 P9 1.534085 1_555
O43 P10 1.522005 1_555
O44 P11 1.546108 1_555
O45 P0 1.537674 1_545
O46 P1 1.534708 1_545
O47 P2 1.533500 1_545
