# generated using pymatgen
data_K3Na3TeP6(HO4)6
_symmetry_space_group_name_H-M   'P 1'
_cell_length_a   12.71747684
_cell_length_b   12.71747684
_cell_length_c   12.71747742
_cell_angle_alpha   51.25459197
_cell_angle_beta   51.25459197
_cell_angle_gamma   51.25459414
_symmetry_Int_Tables_number   1
_chemical_formula_structural   K3Na3TeP6(HO4)6
_chemical_formula_sum   'K6 Na6 Te2 P12 H12 O48'
_cell_volume   1154.76415594
_cell_formula_units_Z   2
loop_
 _symmetry_equiv_pos_site_id
 _symmetry_equiv_pos_as_xyz
  1  'x, y, z'
loop_
 _atom_site_type_symbol
 _atom_site_label
 _atom_site_symmetry_multiplicity
 _atom_site_fract_x
 _atom_site_fract_y
 _atom_site_fract_z
 _atom_site_occupancy
  K  K0  1  0.12411000  0.37589000  0.75000000  1
  K  K1  1  0.75000000  0.12411000  0.37589000  1
  K  K2  1  0.37589000  0.75000000  0.12411000  1
  K  K3  1  0.62411000  0.25000000  0.87589000  1
  K  K4  1  0.87589000  0.62411000  0.25000000  1
  K  K5  1  0.25000000  0.87589000  0.62411000  1
  Na  Na0  1  0.75000000  0.55333200  0.94666800  1
  Na  Na1  1  0.94666800  0.75000000  0.55333200  1
  Na  Na2  1  0.55333200  0.94666800  0.75000000  1
  Na  Na3  1  0.25000000  0.44666800  0.05333200  1
  Na  Na4  1  0.05333200  0.25000000  0.44666800  1
  Na  Na5  1  0.44666800  0.05333200  0.25000000  1
  Te  Te0  1  0.50000000  0.50000000  0.50000000  1
  Te  Te1  1  0.00000000  0.00000000  0.00000000  1
  P  P0  1  0.81237100  0.50679100  0.66048500  1
  P  P1  1  0.66048500  0.81237100  0.50679100  1
  P  P2  1  0.50679100  0.66048500  0.81237100  1
  P  P3  1  0.31237100  0.16048500  0.00679100  1
  P  P4  1  0.00679100  0.31237100  0.16048500  1
  P  P5  1  0.16048500  0.00679100  0.31237100  1
  P  P6  1  0.18762900  0.49320900  0.33951500  1
  P  P7  1  0.33951500  0.18762900  0.49320900  1
  P  P8  1  0.49320900  0.33951500  0.18762900  1
  P  P9  1  0.68762900  0.83951500  0.99320900  1
  P  P10  1  0.99320900  0.68762900  0.83951500  1
  P  P11  1  0.83951500  0.99320900  0.68762900  1
  H  H0  1  0.29067200  0.59485800  0.69723900  1
  H  H1  1  0.69723900  0.29067200  0.59485800  1
  H  H2  1  0.59485800  0.69723900  0.29067200  1
  H  H3  1  0.79067200  0.19723900  0.09485800  1
  H  H4  1  0.09485800  0.79067200  0.19723900  1
  H  H5  1  0.19723900  0.09485800  0.79067200  1
  H  H6  1  0.70932800  0.40514200  0.30276100  1
  H  H7  1  0.30276100  0.70932800  0.40514200  1
  H  H8  1  0.40514200  0.30276100  0.70932800  1
  H  H9  1  0.20932800  0.80276100  0.90514200  1
  H  H10  1  0.90514200  0.20932800  0.80276100  1
  H  H11  1  0.80276100  0.90514200  0.20932800  1
  O  O0  1  0.60541200  0.36971200  0.62799200  1
  O  O1  1  0.62799200  0.60541200  0.36971200  1
  O  O2  1  0.36971200  0.62799200  0.60541200  1
  O  O3  1  0.10541200  0.12799200  0.86971200  1
  O  O4  1  0.86971200  0.10541200  0.12799200  1
  O  O5  1  0.12799200  0.86971200  0.10541200  1
  O  O6  1  0.39458800  0.63028800  0.37200800  1
  O  O7  1  0.37200800  0.39458800  0.63028800  1
  O  O8  1  0.63028800  0.37200800  0.39458800  1
  O  O9  1  0.89458800  0.87200800  0.13028800  1
  O  O10  1  0.13028800  0.89458800  0.87200800  1
  O  O11  1  0.87200800  0.13028800  0.89458800  1
  O  O12  1  0.89178300  0.36915600  0.63669600  1
  O  O13  1  0.63669600  0.89178300  0.36915600  1
  O  O14  1  0.36915600  0.63669600  0.89178300  1
  O  O15  1  0.39178300  0.13669600  0.86915600  1
  O  O16  1  0.86915600  0.39178300  0.13669600  1
  O  O17  1  0.13669600  0.86915600  0.39178300  1
  O  O18  1  0.10821700  0.63084400  0.36330400  1
  O  O19  1  0.36330400  0.10821700  0.63084400  1
  O  O20  1  0.63084400  0.36330400  0.10821700  1
  O  O21  1  0.60821700  0.86330400  0.13084400  1
  O  O22  1  0.13084400  0.60821700  0.86330400  1
  O  O23  1  0.86330400  0.13084400  0.60821700  1
  O  O24  1  0.87282400  0.53459700  0.70769600  1
  O  O25  1  0.70769600  0.87282400  0.53459700  1
  O  O26  1  0.53459700  0.70769600  0.87282400  1
  O  O27  1  0.37282400  0.20769600  0.03459700  1
  O  O28  1  0.03459700  0.37282400  0.20769600  1
  O  O29  1  0.20769600  0.03459700  0.37282400  1
  O  O30  1  0.12717600  0.46540300  0.29230400  1
  O  O31  1  0.29230400  0.12717600  0.46540300  1
  O  O32  1  0.46540300  0.29230400  0.12717600  1
  O  O33  1  0.62717600  0.79230400  0.96540300  1
  O  O34  1  0.96540300  0.62717600  0.79230400  1
  O  O35  1  0.79230400  0.96540300  0.62717600  1
  O  O36  1  0.64542000  0.51489400  0.77937600  1
  O  O37  1  0.77937600  0.64542000  0.51489400  1
  O  O38  1  0.51489400  0.77937600  0.64542000  1
  O  O39  1  0.14542000  0.27937600  0.01489400  1
  O  O40  1  0.01489400  0.14542000  0.27937600  1
  O  O41  1  0.27937600  0.01489400  0.14542000  1
  O  O42  1  0.35458000  0.48510600  0.22062400  1
  O  O43  1  0.22062400  0.35458000  0.48510600  1
  O  O44  1  0.48510600  0.22062400  0.35458000  1
  O  O45  1  0.85458000  0.72062400  0.98510600  1
  O  O46  1  0.98510600  0.85458000  0.72062400  1
  O  O47  1  0.72062400  0.98510600  0.85458000  1
loop_
_geom_bond_atom_site_label_1
_geom_bond_atom_site_label_2
_geom_bond_distance
_geom_bond_site_symmetry_2
K0 O7 2.605922 1_555
K0 O3 2.605922 1_555
K0 O34 2.700923 1_455
K0 O24 2.700923 1_455
K0 O39 2.911936 1_556
K0 O43 2.911936 1_555
K1 O8 2.605922 1_555
K1 O4 2.605922 1_555
K1 O25 2.700923 1_545
K1 O35 2.700923 1_545
K1 O40 2.911936 1_655
K1 O44 2.911936 1_555
K2 O5 2.605922 1_555
K2 O6 2.605922 1_555
K2 O33 2.700923 1_554
K2 O26 2.700923 1_554
K2 O42 2.911936 1_555
K2 O41 2.911936 1_565
K3 O11 2.605922 1_555
K3 O0 2.605922 1_555
K3 O27 2.700923 1_556
K3 O32 2.700923 1_556
K3 O36 2.911936 1_555
K3 O47 2.911936 1_545
K4 O1 2.605922 1_555
K4 O9 2.605922 1_555
K4 O28 2.700923 1_655
K4 O30 2.700923 1_655
K4 O45 2.911936 1_554
K4 O37 2.911936 1_555
K5 O2 2.605922 1_555
K5 O10 2.605922 1_555
K5 O31 2.700923 1_565
K5 O29 2.700923 1_565
K5 O46 2.911936 1_455
K5 O38 2.911936 1_555
Na0 O33 2.496264 1_555
Na0 O24 2.496264 1_555
Na0 O34 2.533979 1_555
Na0 O26 2.533980 1_555
Na0 O20 2.613375 1_556
Na0 O16 2.613376 1_556
Na1 O25 2.496264 1_555
Na1 O34 2.496264 1_555
Na1 O24 2.533979 1_555
Na1 O35 2.533980 1_555
Na1 O17 2.613375 1_655
Na1 O18 2.613376 1_655
Na2 O35 2.496264 1_555
Na2 O26 2.496264 1_555
Na2 O25 2.533980 1_555
Na2 O33 2.533980 1_555
Na2 O15 2.613376 1_565
Na2 O19 2.613376 1_565
Na3 O27 2.496264 1_555
Na3 O30 2.496264 1_555
Na3 O28 2.533979 1_555
Na3 O32 2.533980 1_555
Na3 O14 2.613375 1_554
Na3 O22 2.613376 1_554
Na4 O31 2.496264 1_555
Na4 O28 2.496264 1_555
Na4 O30 2.533979 1_555
Na4 O29 2.533980 1_555
Na4 O23 2.613375 1_455
Na4 O12 2.613376 1_455
Na5 O32 2.496264 1_555
Na5 O29 2.496264 1_555
Na5 O31 2.533980 1_555
Na5 O27 2.533980 1_555
Na5 O21 2.613376 1_545
Na5 O13 2.613376 1_545
H0 O2 0.998305 1_555
H1 O0 0.998305 1_555
H2 O1 0.998305 1_555
H3 O4 0.998305 1_555
H4 O5 0.998305 1_555
H5 O3 0.998305 1_555
H6 O8 0.998305 1_555
H7 O6 0.998305 1_555
H8 O7 0.998305 1_555
H9 O10 0.998305 1_555
H10 O11 0.998305 1_555
H11 O9 0.998305 1_555
O0 Te0 1.940912 1_555
O1 Te0 1.940912 1_555
O2 Te0 1.940912 1_555
O3 Te1 1.940912 1_556
O4 Te1 1.940912 1_655
O5 Te1 1.940912 1_565
O6 Te0 1.940912 1_555
O7 Te0 1.940912 1_555
O8 Te0 1.940912 1_555
O9 Te1 1.940912 1_665
O10 Te1 1.940912 1_566
O11 Te1 1.940912 1_656
O12 P0 1.497649 1_555
O13 P1 1.497649 1_555
O14 P2 1.497649 1_555
O15 P3 1.497649 1_556
O16 P4 1.497649 1_655
O17 P5 1.497649 1_565
O18 P6 1.497649 1_555
O19 P7 1.497649 1_555
O20 P8 1.497649 1_555
O21 P9 1.497649 1_554
O22 P10 1.497649 1_455
O23 P11 1.497649 1_545
O24 P0 1.503482 1_555
O25 P1 1.503482 1_555
O26 P2 1.503482 1_555
O27 P3 1.503482 1_555
O28 P4 1.503482 1_555
O29 P5 1.503482 1_555
O30 P6 1.503482 1_555
O31 P7 1.503482 1_555
O32 P8 1.503482 1_555
O33 P9 1.503482 1_555
O34 P10 1.503482 1_555
O35 P11 1.503482 1_555
O36 P2 1.634939 1_555
O36 P0 1.645453 1_555
O37 P0 1.634939 1_555
O37 P1 1.645453 1_555
O38 P1 1.634939 1_555
O38 P2 1.645453 1_555
O39 P4 1.634939 1_555
O39 P3 1.645453 1_555
O40 P5 1.634939 1_555
O40 P4 1.645453 1_555
O41 P3 1.634939 1_555
O41 P5 1.645453 1_555
O42 P8 1.634939 1_555
O42 P6 1.645453 1_555
O43 P6 1.634939 1_555
O43 P7 1.645453 1_555
O44 P7 1.634939 1_555
O44 P8 1.645453 1_555
O45 P10 1.634939 1_555
O45 P9 1.645453 1_555
O46 P11 1.634939 1_555
O46 P10 1.645453 1_555
O47 P9 1.634939 1_555
O47 P11 1.645453 1_555
