# generated using pymatgen
data_Li9V3P8O29
_symmetry_space_group_name_H-M   'P 1'
_cell_length_a   9.88946500
_cell_length_b   9.90331109
_cell_length_c   13.78929574
_cell_angle_alpha   90.09011101
_cell_angle_beta   90.01094867
_cell_angle_gamma   119.83625758
_symmetry_Int_Tables_number   1
_chemical_formula_structural   Li9V3P8O29
_chemical_formula_sum   'Li18 V6 P16 O58'
_cell_volume   1171.49203512
_cell_formula_units_Z   2
loop_
 _symmetry_equiv_pos_site_id
 _symmetry_equiv_pos_as_xyz
  1  'x, y, z'
loop_
 _atom_site_type_symbol
 _atom_site_label
 _atom_site_symmetry_multiplicity
 _atom_site_fract_x
 _atom_site_fract_y
 _atom_site_fract_z
 _atom_site_occupancy
  Li  Li0  1  0.23431900  0.90404700  0.05997400  1
  Li  Li1  1  0.10263500  0.76810900  0.57020500  1
  Li  Li2  1  0.66559900  0.89887500  0.57566100  1
  Li  Li3  1  0.33350600  0.66460600  0.38260900  1
  Li  Li4  1  0.34756400  0.68740900  0.87696600  1
  Li  Li5  1  0.66866900  0.76645900  0.06018200  1
  Li  Li6  1  0.09904100  0.33029800  0.06130500  1
  Li  Li7  1  0.76914900  0.67399000  0.43815900  1
  Li  Li8  1  0.24087000  0.33868600  0.56422900  1
  Li  Li9  1  0.90110300  0.66733700  0.93450300  1
  Li  Li10  1  0.33444800  0.23272800  0.93565900  1
  Li  Li11  1  0.66415000  0.31093700  0.62463800  1
  Li  Li12  1  0.66551500  0.33500000  0.11676100  1
  Li  Li13  1  0.32656600  0.09278600  0.43851100  1
  Li  Li14  1  0.56209700  0.99739700  0.74988300  1
  Li  Li15  1  0.76067600  0.09684100  0.92491400  1
  Li  Li16  1  0.00394000  0.99658200  0.98828900  1
  Li  Li17  1  0.01317400  0.98993700  0.51384300  1
  V  V0  1  0.56494700  0.56756100  0.25028300  1
  V  V1  1  0.43511000  0.43460100  0.75076500  1
  V  V2  1  0.00082900  0.56698500  0.75061600  1
  V  V3  1  0.00391900  0.43818800  0.24331900  1
  V  V4  1  0.88784800  0.25581900  0.44809300  1
  V  V5  1  0.43347100  0.99880800  0.24850400  1
  P  P0  1  0.22658800  0.91015500  0.84496900  1
  P  P1  1  0.08925800  0.77258700  0.34472600  1
  P  P2  1  0.68437300  0.91250000  0.34328200  1
  P  P3  1  0.33537800  0.66786600  0.12160700  1
  P  P4  1  0.33326500  0.65992600  0.62322000  1
  P  P5  1  0.68415500  0.77441800  0.84459000  1
  P  P6  1  0.77274800  0.68317200  0.65617600  1
  P  P7  1  0.09146500  0.31691400  0.84546000  1
  P  P8  1  0.91044400  0.68584800  0.15472900  1
  P  P9  1  0.22707900  0.31658900  0.34475200  1
  P  P10  1  0.31691600  0.22789800  0.15635800  1
  P  P11  1  0.66617400  0.33144400  0.37506000  1
  P  P12  1  0.66926700  0.34027400  0.87665700  1
  P  P13  1  0.31778100  0.09157700  0.65568400  1
  P  P14  1  0.90979700  0.22408500  0.65901200  1
  P  P15  1  0.77310800  0.08980900  0.15333200  1
  O  O0  1  0.21399000  0.00045500  0.56831800  1
  O  O1  1  0.25058100  0.91968600  0.34433500  1
  O  O2  1  0.00328600  0.77664000  0.06691800  1
  O  O3  1  0.07392800  0.75109400  0.84177000  1
  O  O4  1  0.36773900  0.89064900  0.84105000  1
  O  O5  1  0.32480300  0.81120900  0.16076000  1
  O  O6  1  0.51962200  0.89078400  0.33417600  1
  O  O7  1  0.76933200  0.99574700  0.06572100  1
  O  O8  1  0.66747800  0.91635700  0.84624400  1
  O  O9  1  0.18669500  0.66580400  0.66074400  1
  O  O10  1  0.10643900  0.62659200  0.33457700  1
  O  O11  1  0.48346300  0.80175800  0.65374500  1
  O  O12  1  0.33483700  0.66459000  0.01273000  1
  O  O13  1  0.31436600  0.62530100  0.51491200  1
  O  O14  1  0.48730500  0.67646200  0.16260200  1
  O  O15  1  0.10872000  0.47857900  0.83559900  1
  O  O16  1  0.19119500  0.51466700  0.16092200  1
  O  O17  1  0.67414700  0.75301600  0.34517800  1
  O  O18  1  0.78794600  0.78459300  0.75005800  1
  O  O19  1  0.77196800  0.77348000  0.56665700  1
  O  O20  1  0.77156300  0.76343700  0.93311900  1
  O  O21  1  0.52144000  0.62441700  0.83132600  1
  O  O22  1  0.32820600  0.50887700  0.67216000  1
  O  O23  1  0.74961900  0.67304100  0.15671600  1
  O  O24  1  0.36741700  0.48107900  0.33224700  1
  O  O25  1  0.07580100  0.32720600  0.34569000  1
  O  O26  1  0.99927700  0.78484700  0.25062300  1
  O  O27  1  0.99888500  0.77231800  0.43409500  1
  O  O28  1  0.01238800  0.23627600  0.57008200  1
  O  O29  1  0.91785500  0.66559600  0.65296300  1
  O  O30  1  0.62428200  0.52033600  0.66539000  1
  O  O31  1  0.25409500  0.33091200  0.84510100  1
  O  O32  1  0.66961100  0.48459300  0.34750500  1
  O  O33  1  0.48103400  0.37014400  0.17090700  1
  O  O34  1  0.23104300  0.23403500  0.06694900  1
  O  O35  1  0.23291100  0.22906200  0.43328100  1
  O  O36  1  0.21170100  0.21469000  0.24990700  1
  O  O37  1  0.32615800  0.25272500  0.65823900  1
  O  O38  1  0.81217800  0.49319600  0.83904000  1
  O  O39  1  0.89072200  0.52159900  0.16327800  1
  O  O40  1  0.51695700  0.33659800  0.82802000  1
  O  O41  1  0.64831800  0.35154200  0.98480800  1
  O  O42  1  0.69787600  0.32294200  0.48347500  1
  O  O43  1  0.51132600  0.18828500  0.34167200  1
  O  O44  1  0.89570900  0.37245900  0.66738600  1
  O  O45  1  0.80630800  0.32441200  0.32481700  1
  O  O46  1  0.32742500  0.07861000  0.15615500  1
  O  O47  1  0.21727000  0.00239600  0.75015700  1
  O  O48  1  0.21642300  0.00230600  0.93246000  1
  O  O49  1  0.47770900  0.10922000  0.65644400  1
  O  O50  1  0.67621500  0.19849200  0.84345100  1
  O  O51  1  0.62923300  0.11084200  0.16536500  1
  O  O52  1  0.92205500  0.24974000  0.15316300  1
  O  O53  1  0.00060400  0.22388500  0.93399000  1
  O  O54  1  0.00190300  0.21239100  0.75200400  1
  O  O55  1  0.75311100  0.08079500  0.65184800  1
  O  O56  1  0.77475500  0.00792500  0.43220700  1
  O  O57  1  0.78584500  0.00196100  0.24945800  1
loop_
_geom_bond_atom_site_label_1
_geom_bond_atom_site_label_2
_geom_bond_distance
_geom_bond_site_symmetry_2
Li0 O2 1.988308 1_555
Li0 O46 2.000953 1_565
Li0 O48 2.060721 1_564
Li0 O5 2.097541 1_555
Li1 O29 1.957216 1_455
Li1 O0 1.996694 1_565
Li1 O9 2.029260 1_555
Li1 O27 2.149221 1_455
Li2 O55 1.881678 1_565
Li2 O11 1.899729 1_555
Li2 O19 1.990859 1_555
Li2 O56 2.256571 1_565
Li3 O13 1.855991 1_555
Li3 O24 2.121500 1_555
Li3 O6 2.180331 1_555
Li3 O10 2.186424 1_555
Li4 O12 1.882751 1_556
Li4 O4 1.984899 1_555
Li4 O21 2.192857 1_555
Li4 O15 2.305798 1_555
Li5 O7 1.975629 1_555
Li5 O23 2.002281 1_555
Li5 O20 2.033972 1_554
Li5 O14 2.102427 1_555
Li6 O34 1.964065 1_555
Li6 O52 1.979647 1_455
Li6 O53 2.028064 1_554
Li6 O16 2.094546 1_555
Li7 O17 1.968100 1_555
Li7 O27 1.977879 1_555
Li7 O19 2.019488 1_555
Li7 O32 2.050530 1_555
Li8 O37 1.958092 1_555
Li8 O28 1.964886 1_555
Li8 O22 2.084431 1_555
Li8 O35 2.086635 1_555
Li9 O20 1.939202 1_555
Li9 O3 1.959042 1_655
Li9 O38 1.990894 1_555
Li9 O2 2.105108 1_656
Li10 O31 1.977002 1_555
Li10 O48 1.980135 1_555
Li10 O34 2.082609 1_556
Li10 O40 2.162704 1_555
Li11 O42 1.968733 1_555
Li11 O49 1.980061 1_555
Li11 O44 2.138409 1_555
Li11 O30 2.362548 1_555
Li12 O41 1.842559 1_554
Li12 O33 2.153748 1_555
Li12 O39 2.164966 1_555
Li12 O51 2.172121 1_555
Li13 O1 1.974997 1_545
Li13 O35 1.982042 1_555
Li13 O0 2.066987 1_555
Li13 O43 2.074023 1_555
Li14 O8 2.081075 1_555
Li14 O4 2.091799 1_555
Li14 O49 2.122893 1_565
Li14 O55 2.128392 1_565
Li14 O11 2.146689 1_555
Li14 O50 2.158569 1_565
Li15 O8 1.890855 1_545
Li15 O50 1.952644 1_555
Li15 O53 2.063368 1_655
Li15 O7 2.207015 1_546
Li16 O48 2.212180 1_565
Li16 O53 2.389170 1_565
Li16 O20 2.430025 1_455
Li16 O2 2.431745 1_556
Li16 O34 2.546827 1_566
Li16 O7 2.550508 1_456
Li17 O0 2.076656 1_565
Li17 O27 2.358677 1_455
Li17 O19 2.394403 1_455
Li17 O35 2.540267 1_565
Li17 O28 2.562398 1_565
O0 P13 1.547154 1_555
O1 P1 1.534573 1_555
O1 V5 2.055600 1_555
O2 P8 1.516581 1_455
O3 P0 1.547883 1_555
O3 V2 2.026771 1_555
O4 P0 1.502368 1_555
O5 P3 1.569375 1_555
O5 V5 2.018960 1_555
O6 P2 1.538769 1_555
O6 V5 2.043643 1_555
O7 P15 1.513425 1_565
O8 P5 1.494725 1_555
O9 P4 1.567265 1_555
O9 V2 2.021618 1_555
O10 P1 1.543603 1_555
O10 V3 2.050013 1_555
O11 P4 1.509405 1_555
O12 P3 1.501588 1_555
O13 P4 1.522347 1_555
O14 P3 1.567320 1_555
O14 V0 2.010538 1_555
O15 P7 1.529613 1_555
O15 V2 2.051951 1_555
O16 P3 1.574537 1_555
O16 V3 1.975458 1_555
O17 P2 1.531886 1_555
O17 V0 2.066395 1_555
O18 P6 1.597793 1_555
O18 P5 1.631234 1_555
O19 P6 1.527745 1_555
O20 P5 1.530632 1_555
O21 P5 1.565261 1_555
O21 V1 1.973005 1_555
O22 P4 1.619974 1_555
O22 V1 1.899879 1_555
O23 P8 1.531583 1_555
O23 V0 2.048925 1_555
O24 P9 1.536516 1_555
O24 V0 2.041097 1_555
O25 P9 1.551109 1_555
O25 V3 2.118481 1_555
O25 V4 2.155290 1_455
O26 P1 1.611820 1_655
O26 P8 1.618624 1_555
O27 P1 1.521674 1_655
O28 P14 1.557804 1_455
O28 V4 2.149745 1_455
O29 P6 1.529744 1_555
O29 V2 2.059457 1_655
O30 P6 1.554719 1_555
O30 V1 2.007536 1_555
O31 P7 1.544053 1_555
O31 V1 2.031545 1_555
O32 P11 1.548023 1_555
O32 V0 2.095939 1_555
O33 P10 1.543660 1_555
O33 V0 2.021768 1_555
O34 P10 1.515290 1_555
O35 P9 1.515904 1_555
O36 P9 1.610904 1_555
O36 P10 1.621555 1_555
O37 P13 1.556684 1_555
O37 V1 2.023404 1_555
O38 P12 1.559812 1_555
O38 V2 2.036780 1_655
O39 P8 1.543607 1_555
O39 V3 2.018972 1_655
O40 P12 1.632461 1_555
O40 V1 1.875262 1_555
O41 P12 1.517243 1_555
O42 P11 1.538437 1_555
O42 V4 2.334848 1_555
O43 P11 1.550611 1_555
O43 V5 2.078177 1_545
O44 P14 1.547592 1_555
O44 V2 2.027049 1_655
O45 P11 1.581667 1_555
O45 V3 2.040935 1_655
O45 V4 2.132956 1_555
O46 P10 1.532804 1_555
O46 V5 2.042895 1_545
O47 P13 1.611118 1_555
O47 P0 1.624715 1_545
O48 P0 1.544768 1_545
O49 P13 1.502371 1_555
O50 P12 1.509934 1_555
O51 P15 1.546059 1_555
O51 V5 2.039812 1_545
O52 P15 1.535212 1_555
O52 V3 2.042737 1_655
O53 P7 1.525349 1_555
O54 P14 1.610086 1_455
O54 P7 1.612386 1_555
O55 P14 1.495343 1_555
O56 P2 1.533307 1_545
O56 V4 2.142862 1_555
O57 P2 1.607862 1_545
O57 P15 1.625523 1_555
