# generated using pymatgen
data_Ce(ClO4)4
_symmetry_space_group_name_H-M   'P 1'
_cell_length_a   8.06323088
_cell_length_b   8.06323088
_cell_length_c   13.99120328
_cell_angle_alpha   75.34651950
_cell_angle_beta   75.34651950
_cell_angle_gamma   63.86689944
_symmetry_Int_Tables_number   1
_chemical_formula_structural   Ce(ClO4)4
_chemical_formula_sum   'Ce2 Cl8 O32'
_cell_volume   779.53201318
_cell_formula_units_Z   2
loop_
 _symmetry_equiv_pos_site_id
 _symmetry_equiv_pos_as_xyz
  1  'x, y, z'
loop_
 _atom_site_type_symbol
 _atom_site_label
 _atom_site_symmetry_multiplicity
 _atom_site_fract_x
 _atom_site_fract_y
 _atom_site_fract_z
 _atom_site_occupancy
  Ce  Ce0  1  0.64964000  0.59540400  0.90261800  1
  Ce  Ce1  1  0.59540400  0.64964000  0.40261800  1
  Cl  Cl0  1  0.95743300  0.41988700  0.73362800  1
  Cl  Cl1  1  0.41988700  0.95743300  0.23362800  1
  Cl  Cl2  1  0.30096900  0.83198500  0.57401600  1
  Cl  Cl3  1  0.63013800  0.25260700  0.50141400  1
  Cl  Cl4  1  0.83198500  0.30096900  0.07401600  1
  Cl  Cl5  1  0.58964700  0.00680400  0.83716000  1
  Cl  Cl6  1  0.25260700  0.63013800  0.00141400  1
  Cl  Cl7  1  0.00680400  0.58964700  0.33716000  1
  O  O0  1  0.67550900  0.86961500  0.92557400  1
  O  O1  1  0.96455600  0.51595400  0.81274000  1
  O  O2  1  0.53313200  0.88467600  0.79455200  1
  O  O3  1  0.86961500  0.67550900  0.42557400  1
  O  O4  1  0.51595400  0.96455600  0.31274000  1
  O  O5  1  0.75225300  0.44601600  0.75898500  1
  O  O6  1  0.50440700  0.80784800  0.54345300  1
  O  O7  1  0.74549000  0.28373200  0.99321700  1
  O  O8  1  0.88467600  0.53313200  0.29455200  1
  O  O9  1  0.37265700  0.55562400  0.90552000  1
  O  O10  1  0.08754100  0.78828600  0.97854800  1
  O  O11  1  0.68983300  0.38262500  0.53341500  1
  O  O12  1  0.27550200  0.72402700  0.66980400  1
  O  O13  1  0.44601600  0.75225300  0.25898500  1
  O  O14  1  0.80784800  0.50440700  0.04345300  1
  O  O15  1  0.28373200  0.74549000  0.49321700  1
  O  O16  1  0.72809900  0.05579900  0.76600300  1
  O  O17  1  0.55562400  0.37265700  0.40552000  1
  O  O18  1  0.78828600  0.08754100  0.47854800  1
  O  O19  1  0.42696700  0.16024800  0.87017900  1
  O  O20  1  0.38262500  0.68983300  0.03341500  1
  O  O21  1  0.72402700  0.27550200  0.16980400  1
  O  O22  1  0.48210900  0.22274800  0.57375100  1
  O  O23  1  0.05579900  0.72809900  0.26600300  1
  O  O24  1  0.99180900  0.51837600  0.63646700  1
  O  O25  1  0.16024800  0.42696700  0.37017900  1
  O  O26  1  0.07570500  0.22609500  0.74989900  1
  O  O27  1  0.22274800  0.48210900  0.07375100  1
  O  O28  1  0.51837600  0.99180900  0.13646700  1
  O  O29  1  0.17990100  0.02493100  0.56516600  1
  O  O30  1  0.22609500  0.07570500  0.24989900  1
  O  O31  1  0.02493100  0.17990100  0.06516600  1
loop_
_geom_bond_atom_site_label_1
_geom_bond_atom_site_label_2
_geom_bond_distance
_geom_bond_site_symmetry_2
Ce0 O2 2.369199 1_555
Ce0 O9 2.381407 1_555
Ce0 O5 2.383176 1_555
Ce0 O7 2.385929 1_555
Ce0 O14 2.400856 1_556
Ce0 O1 2.408011 1_555
Ce0 O20 2.414858 1_556
Ce0 O0 2.415526 1_555
Ce1 O8 2.369199 1_555
Ce1 O17 2.381407 1_555
Ce1 O13 2.383176 1_555
Ce1 O15 2.385929 1_555
Ce1 O6 2.400856 1_555
Ce1 O4 2.408011 1_555
Ce1 O11 2.414858 1_555
Ce1 O3 2.415526 1_555
Cl0 O24 1.418636 1_555
Cl0 O26 1.421308 1_655
Cl0 O1 1.527624 1_555
Cl0 O5 1.530079 1_555
Cl1 O28 1.418636 1_555
Cl1 O30 1.421308 1_565
Cl1 O4 1.527624 1_555
Cl1 O13 1.530079 1_555
Cl2 O29 1.419338 1_565
Cl2 O12 1.422677 1_555
Cl2 O6 1.522339 1_555
Cl2 O15 1.532150 1_555
Cl3 O18 1.419095 1_555
Cl3 O22 1.423241 1_555
Cl3 O11 1.523896 1_555
Cl3 O17 1.528564 1_555
Cl4 O31 1.419338 1_655
Cl4 O21 1.422677 1_555
Cl4 O14 1.522339 1_555
Cl4 O7 1.532150 1_554
Cl5 O19 1.420481 1_555
Cl5 O16 1.421519 1_555
Cl5 O0 1.516415 1_545
Cl5 O2 1.537049 1_545
Cl6 O10 1.419095 1_554
Cl6 O27 1.423241 1_555
Cl6 O20 1.523896 1_555
Cl6 O9 1.528564 1_554
Cl7 O25 1.420481 1_555
Cl7 O23 1.421519 1_555
Cl7 O3 1.516415 1_455
Cl7 O8 1.537049 1_455
