# generated using pymatgen
data_Li6Fe3Co7O20
_symmetry_space_group_name_H-M   'P 1'
_cell_length_a   20.70436916
_cell_length_b   2.87608700
_cell_length_c   5.89634043
_cell_angle_alpha   90.00000000
_cell_angle_beta   84.29930674
_cell_angle_gamma   90.00000000
_symmetry_Int_Tables_number   1
_chemical_formula_structural   Li6Fe3Co7O20
_chemical_formula_sum   'Li6 Fe3 Co7 O20'
_cell_volume   349.37625231
_cell_formula_units_Z   1
loop_
 _symmetry_equiv_pos_site_id
 _symmetry_equiv_pos_as_xyz
  1  'x, y, z'
loop_
 _atom_site_type_symbol
 _atom_site_label
 _atom_site_symmetry_multiplicity
 _atom_site_fract_x
 _atom_site_fract_y
 _atom_site_fract_z
 _atom_site_occupancy
  Li  Li0  1  0.10000000  0.50000000  0.20000000  1
  Li  Li1  1  0.28539900  0.50000000  0.55677500  1
  Li  Li2  1  0.40398100  0.00000000  0.80079000  1
  Li  Li3  1  0.60000000  0.00000000  0.20000000  1
  Li  Li4  1  0.79601900  0.00000000  0.59921000  1
  Li  Li5  1  0.91460100  0.50000000  0.84322500  1
  Fe  Fe0  1  0.40037800  0.00000000  0.27889200  1
  Fe  Fe1  1  0.60000000  0.00000000  0.70000000  1
  Fe  Fe2  1  0.79962200  0.00000000  0.12110800  1
  Co  Co0  1  0.00177300  0.00000000  0.50183200  1
  Co  Co1  1  0.10000000  0.50000000  0.70000000  1
  Co  Co2  1  0.19822700  0.00000000  0.89816800  1
  Co  Co3  1  0.29579100  0.50000000  0.09344200  1
  Co  Co4  1  0.49908800  0.50000000  0.49655600  1
  Co  Co5  1  0.70091200  0.50000000  0.90344400  1
  Co  Co6  1  0.90420900  0.50000000  0.30655800  1
  O  O0  1  0.00732200  0.50000000  0.70926800  1
  O  O1  1  0.09264100  0.00000000  0.48278300  1
  O  O2  1  0.10735900  0.00000000  0.91721700  1
  O  O3  1  0.20255400  0.50000000  0.10541800  1
  O  O4  1  0.19267800  0.50000000  0.69073200  1
  O  O5  1  0.30224200  0.00000000  0.31429100  1
  O  O6  1  0.28975200  0.00000000  0.87512600  1
  O  O7  1  0.38939300  0.50000000  0.04964800  1
  O  O8  1  0.40698300  0.50000000  0.52262000  1
  O  O9  1  0.49851900  0.00000000  0.28777700  1
  O  O10  1  0.50118000  0.00000000  0.70620000  1
  O  O11  1  0.59046700  0.50000000  0.46635400  1
  O  O12  1  0.60953300  0.50000000  0.93364600  1
  O  O13  1  0.70148100  0.00000000  0.11222300  1
  O  O14  1  0.69882000  0.00000000  0.69380000  1
  O  O15  1  0.81060700  0.50000000  0.35035200  1
  O  O16  1  0.79301700  0.50000000  0.87738000  1
  O  O17  1  0.89775800  0.00000000  0.08570900  1
  O  O18  1  0.91024800  0.00000000  0.52487400  1
  O  O19  1  0.99744600  0.50000000  0.29458200  1
loop_
_geom_bond_atom_site_label_1
_geom_bond_atom_site_label_2
_geom_bond_distance
_geom_bond_site_symmetry_2
Li0 O19 2.141084 1_455
Li0 O3 2.141084 1_555
Li0 O1 2.195652 1_555
Li0 O2 2.195652 1_564
Li0 O1 2.195652 1_565
Li0 O2 2.195652 1_554
Li1 O4 2.001999 1_555
Li1 O5 2.033411 1_565
Li1 O5 2.033411 1_555
Li1 O6 2.373442 1_565
Li1 O6 2.373442 1_555
Li1 O8 2.505343 1_555
Li2 O10 2.034212 1_555
Li2 O7 2.055303 1_556
Li2 O7 2.055303 1_546
Li2 O8 2.177564 1_555
Li2 O8 2.177564 1_545
Li2 O6 2.362115 1_555
Li3 O9 2.113399 1_555
Li3 O13 2.113399 1_555
Li3 O11 2.124113 1_555
Li3 O12 2.124113 1_554
Li3 O12 2.124113 1_544
Li3 O11 2.124113 1_545
Li4 O14 2.034212 1_555
Li4 O15 2.055303 1_545
Li4 O15 2.055303 1_555
Li4 O16 2.177564 1_555
Li4 O16 2.177564 1_545
Li4 O18 2.362115 1_555
Li5 O0 2.001999 1_655
Li5 O17 2.033411 1_556
Li5 O17 2.033411 1_566
Li5 O18 2.373442 1_555
Li5 O18 2.373442 1_565
Li5 O16 2.505343 1_555
Fe0 O7 2.001966 1_545
Fe0 O7 2.001966 1_555
Fe0 O5 2.021807 1_555
Fe0 O9 2.037818 1_555
Fe0 O8 2.047188 1_555
Fe0 O8 2.047188 1_545
Fe1 O11 2.014667 1_545
Fe1 O11 2.014667 1_555
Fe1 O12 2.014667 1_555
Fe1 O12 2.014667 1_545
Fe1 O10 2.042698 1_555
Fe1 O14 2.042698 1_555
Fe2 O15 2.001966 1_555
Fe2 O15 2.001966 1_545
Fe2 O17 2.021807 1_555
Fe2 O13 2.037818 1_555
Fe2 O16 2.047188 1_554
Fe2 O16 2.047188 1_544
Co0 O1 1.873544 1_555
Co0 O18 1.886323 1_455
Co0 O19 1.895012 1_455
Co0 O19 1.895012 1_445
Co0 O0 1.898708 1_545
Co0 O0 1.898708 1_555
Co1 O4 1.914184 1_555
Co1 O0 1.914184 1_555
Co1 O2 1.941742 1_565
Co1 O2 1.941742 1_555
Co1 O1 1.941742 1_555
Co1 O1 1.941742 1_565
Co2 O2 1.873544 1_555
Co2 O6 1.886323 1_555
Co2 O3 1.895012 1_546
Co2 O3 1.895012 1_556
Co2 O4 1.898708 1_545
Co2 O4 1.898708 1_555
Co3 O3 1.924682 1_555
Co3 O7 1.929506 1_555
Co3 O6 1.942326 1_554
Co3 O6 1.942326 1_564
Co3 O5 1.953481 1_565
Co3 O5 1.953481 1_555
Co4 O11 1.882613 1_555
Co4 O9 1.893787 1_555
Co4 O9 1.893787 1_565
Co4 O8 1.897881 1_555
Co4 O10 1.899607 1_565
Co4 O10 1.899607 1_555
Co5 O12 1.882613 1_555
Co5 O13 1.893787 1_566
Co5 O13 1.893787 1_556
Co5 O16 1.897881 1_555
Co5 O14 1.899607 1_555
Co5 O14 1.899607 1_565
Co6 O19 1.924682 1_555
Co6 O15 1.929506 1_555
Co6 O18 1.942326 1_565
Co6 O18 1.942326 1_555
Co6 O17 1.953481 1_555
Co6 O17 1.953481 1_565
