# generated using pymatgen
data_Tm2GeO5
_symmetry_space_group_name_H-M   'P 1'
_cell_length_a   6.94201800
_cell_length_b   6.68855800
_cell_length_c   9.21915034
_cell_angle_alpha   76.42982998
_cell_angle_beta   90.00000000
_cell_angle_gamma   90.00000000
_symmetry_Int_Tables_number   1
_chemical_formula_structural   Tm2GeO5
_chemical_formula_sum   'Tm8 Ge4 O20'
_cell_volume   416.11426865
_cell_formula_units_Z   4
loop_
 _symmetry_equiv_pos_site_id
 _symmetry_equiv_pos_as_xyz
  1  'x, y, z'
loop_
 _atom_site_type_symbol
 _atom_site_label
 _atom_site_symmetry_multiplicity
 _atom_site_fract_x
 _atom_site_fract_y
 _atom_site_fract_z
 _atom_site_occupancy
  Tm  Tm0  1  0.87237800  0.27143300  0.02914000  1
  Tm  Tm1  1  0.62762200  0.77143300  0.02914000  1
  Tm  Tm2  1  0.86268100  0.46906800  0.35988600  1
  Tm  Tm3  1  0.63731900  0.96906800  0.35988600  1
  Tm  Tm4  1  0.36268100  0.03093200  0.64011400  1
  Tm  Tm5  1  0.13731900  0.53093200  0.64011400  1
  Tm  Tm6  1  0.37237800  0.22856700  0.97086000  1
  Tm  Tm7  1  0.12762200  0.72856700  0.97086000  1
  Ge  Ge0  1  0.40525700  0.47805300  0.30143100  1
  Ge  Ge1  1  0.09474300  0.97805300  0.30143100  1
  Ge  Ge2  1  0.90525700  0.02194700  0.69856900  1
  Ge  Ge3  1  0.59474300  0.52194700  0.69856900  1
  O  O0  1  0.13913000  0.00975300  0.10520200  1
  O  O1  1  0.61345300  0.07370100  0.10948900  1
  O  O2  1  0.36087000  0.50975300  0.10520200  1
  O  O3  1  0.88654700  0.57370100  0.10948900  1
  O  O4  1  0.91534600  0.18124500  0.28149700  1
  O  O5  1  0.30596600  0.01456600  0.39201000  1
  O  O6  1  0.58465400  0.68124500  0.28149700  1
  O  O7  1  0.57072400  0.28824400  0.39011500  1
  O  O8  1  0.19403400  0.51456600  0.39201000  1
  O  O9  1  0.92927600  0.78824400  0.39011500  1
  O  O10  1  0.07072400  0.21175600  0.60988500  1
  O  O11  1  0.80596600  0.48543400  0.60799000  1
  O  O12  1  0.42927600  0.71175600  0.60988500  1
  O  O13  1  0.41534600  0.31875500  0.71850300  1
  O  O14  1  0.69403400  0.98543400  0.60799000  1
  O  O15  1  0.08465400  0.81875500  0.71850300  1
  O  O16  1  0.11345300  0.42629900  0.89051100  1
  O  O17  1  0.63913000  0.49024700  0.89479800  1
  O  O18  1  0.38654700  0.92629900  0.89051100  1
  O  O19  1  0.86087000  0.99024700  0.89479800  1
loop_
_geom_bond_atom_site_label_1
_geom_bond_atom_site_label_2
_geom_bond_distance
_geom_bond_site_symmetry_2
Ge0 O8 1.732844 1_555
Ge0 O7 1.764248 1_555
Ge0 O2 1.797948 1_555
Ge0 O6 1.820599 1_555
Ge1 O5 1.732844 1_565
Ge1 O9 1.764248 1_455
Ge1 O0 1.797948 1_565
Ge1 O4 1.820599 1_465
Ge2 O14 1.732844 1_545
Ge2 O10 1.764248 1_655
Ge2 O19 1.797948 1_545
Ge2 O15 1.820599 1_645
Ge3 O11 1.732844 1_555
Ge3 O12 1.764248 1_555
Ge3 O17 1.797948 1_555
Ge3 O13 1.820599 1_555
O0 Tm6 2.333910 1_554
O0 Tm7 2.484057 1_544
O0 Tm0 2.531469 1_455
O1 Tm6 2.210397 1_554
O1 Tm0 2.251436 1_555
O1 Tm3 2.255666 1_545
O1 Tm1 2.312701 1_545
O2 Tm7 2.333910 1_554
O2 Tm6 2.484057 1_554
O2 Tm1 2.531469 1_555
O3 Tm7 2.210397 1_654
O3 Tm1 2.251436 1_555
O3 Tm2 2.255666 1_555
O3 Tm0 2.312701 1_555
O4 Tm2 2.239396 1_555
O4 Tm0 2.281875 1_555
O4 Tm3 2.404196 1_545
O5 Tm3 2.348148 1_545
O5 Tm4 2.348674 1_555
O6 Tm3 2.239396 1_555
O6 Tm1 2.281875 1_555
O6 Tm2 2.404196 1_555
O7 Tm3 2.264524 1_545
O7 Tm2 2.343089 1_555
O8 Tm2 2.348148 1_455
O8 Tm5 2.348674 1_555
O9 Tm2 2.264524 1_555
O9 Tm3 2.343089 1_555
O10 Tm5 2.264524 1_555
O10 Tm4 2.343089 1_555
O11 Tm5 2.348148 1_655
O11 Tm2 2.348674 1_555
O12 Tm4 2.264524 1_565
O12 Tm5 2.343089 1_555
O13 Tm4 2.239396 1_555
O13 Tm6 2.281875 1_555
O13 Tm5 2.404196 1_555
O14 Tm4 2.348148 1_565
O14 Tm3 2.348674 1_555
O15 Tm5 2.239396 1_555
O15 Tm7 2.281875 1_555
O15 Tm4 2.404196 1_565
O16 Tm0 2.210397 1_456
O16 Tm6 2.251436 1_555
O16 Tm5 2.255666 1_555
O16 Tm7 2.312701 1_555
O17 Tm0 2.333910 1_556
O17 Tm1 2.484057 1_556
O17 Tm6 2.531469 1_555
O18 Tm1 2.210397 1_556
O18 Tm7 2.251436 1_555
O18 Tm4 2.255666 1_565
O18 Tm6 2.312701 1_565
O19 Tm1 2.333910 1_556
O19 Tm0 2.484057 1_566
O19 Tm7 2.531469 1_655
