# generated using pymatgen
data_Li3TiMn4O8
_symmetry_space_group_name_H-M   'P 1'
_cell_length_a   6.16573424
_cell_length_b   6.16862063
_cell_length_c   6.11912129
_cell_angle_alpha   90.09875018
_cell_angle_beta   59.78937902
_cell_angle_gamma   59.97449903
_symmetry_Int_Tables_number   1
_chemical_formula_structural   Li3TiMn4O8
_chemical_formula_sum   'Li3 Ti1 Mn4 O8'
_cell_volume   163.83516319
_cell_formula_units_Z   1
loop_
 _symmetry_equiv_pos_site_id
 _symmetry_equiv_pos_as_xyz
  1  'x, y, z'
loop_
 _atom_site_type_symbol
 _atom_site_label
 _atom_site_symmetry_multiplicity
 _atom_site_fract_x
 _atom_site_fract_y
 _atom_site_fract_z
 _atom_site_occupancy
  Li  Li0  1  0.00000300  0.00000300  0.50000200  1
  Li  Li1  1  0.50000400  0.00000500  0.49999900  1
  Li  Li2  1  0.50000000  0.50000700  0.50000000  1
  Ti  Ti0  1  0.49998800  0.50000700  0.00002300  1
  Mn  Mn0  1  0.99992900  0.50000700  0.50001100  1
  Mn  Mn1  1  0.99999800  0.99999000  0.00001300  1
  Mn  Mn2  1  0.50000900  0.00000200  0.00000500  1
  Mn  Mn3  1  0.00005600  0.49994600  0.99993900  1
  O  O0  1  0.49501800  0.27198600  0.77658100  1
  O  O1  1  0.96939400  0.26091100  0.76015000  1
  O  O2  1  0.50048300  0.72991900  0.76036600  1
  O  O3  1  0.98671000  0.75065100  0.76453000  1
  O  O4  1  0.01328800  0.24935600  0.23547600  1
  O  O5  1  0.49951100  0.27009900  0.23963900  1
  O  O6  1  0.03061300  0.73909000  0.23984800  1
  O  O7  1  0.50499300  0.72802100  0.22341800  1
loop_
_geom_bond_atom_site_label_1
_geom_bond_atom_site_label_2
_geom_bond_distance
_geom_bond_site_symmetry_2
Li0 O1 2.131864 1_455
Li0 O6 2.131908 1_545
Li0 O0 2.198399 1_455
Li0 O7 2.198420 1_545
Li0 O4 2.234722 1_555
Li0 O3 2.234727 1_445
Li1 O6 2.303968 1_645
Li1 O1 2.303973 1_455
Li1 O2 2.307176 1_545
Li1 O5 2.307181 1_555
Li1 O7 2.359310 1_545
Li1 O0 2.359315 1_555
Li2 O5 2.133282 1_555
Li2 O2 2.133295 1_555
Li2 O7 2.200621 1_555
Li2 O0 2.200648 1_555
Li2 O4 2.228367 1_655
Li2 O3 2.228376 1_455
Mn0 O2 2.171811 1_555
Mn0 O5 2.172420 1_655
Mn0 O1 2.174635 1_555
Mn0 O6 2.174731 1_655
Mn0 O4 2.178860 1_655
Mn0 O3 2.179356 1_555
Mn1 O3 2.164720 1_554
Mn1 O4 2.164766 1_665
Mn1 O2 2.177403 1_654
Mn1 O5 2.177430 1_565
Mn1 O6 2.182308 1_655
Mn1 O1 2.182517 1_564
Mn2 O3 2.113971 1_544
Mn2 O4 2.114060 1_555
Mn2 O7 2.164095 1_545
Mn2 O0 2.164150 1_554
Mn2 O5 2.215422 1_555
Mn2 O2 2.215482 1_544
Mn3 O3 2.114967 1_455
Mn3 O4 2.115001 1_556
Mn3 O0 2.158692 1_555
Mn3 O7 2.159071 1_456
Mn3 O1 2.216661 1_455
Mn3 O6 2.217166 1_556
O0 Ti0 1.981789 1_556
O1 Ti0 2.037577 1_556
O2 Ti0 2.041814 1_556
O5 Ti0 2.041618 1_555
O6 Ti0 2.037441 1_555
O7 Ti0 1.981713 1_555
