# generated using pymatgen
data_LaH12S2NO12
_symmetry_space_group_name_H-M   'P 1'
_cell_length_a   22.94113300
_cell_length_b   7.33744800
_cell_length_c   9.55327379
_cell_angle_alpha   81.78813695
_cell_angle_beta   90.00000000
_cell_angle_gamma   90.00000000
_symmetry_Int_Tables_number   1
_chemical_formula_structural   LaH12S2NO12
_chemical_formula_sum   'La4 H48 S8 N4 O48'
_cell_volume   1591.60823132
_cell_formula_units_Z   4
loop_
 _symmetry_equiv_pos_site_id
 _symmetry_equiv_pos_as_xyz
  1  'x, y, z'
loop_
 _atom_site_type_symbol
 _atom_site_label
 _atom_site_symmetry_multiplicity
 _atom_site_fract_x
 _atom_site_fract_y
 _atom_site_fract_z
 _atom_site_occupancy
  La  La0  1  0.60295200  0.73476400  0.29703000  1
  La  La1  1  0.10295200  0.26523600  0.20297000  1
  La  La2  1  0.39704800  0.26523600  0.70297000  1
  La  La3  1  0.89704800  0.73476400  0.79703000  1
  H  H0  1  0.35743700  0.15865600  0.96068700  1
  H  H1  1  0.85743700  0.84134400  0.53931300  1
  H  H2  1  0.64256300  0.84134400  0.03931300  1
  H  H3  1  0.14256300  0.15865600  0.46068700  1
  H  H4  1  0.60400500  0.83777100  0.86805100  1
  H  H5  1  0.10400500  0.16222900  0.63194900  1
  H  H6  1  0.39599500  0.16222900  0.13194900  1
  H  H7  1  0.89599500  0.83777100  0.36805100  1
  H  H8  1  0.63117800  0.98177000  0.75073200  1
  H  H9  1  0.13117800  0.01823000  0.74926800  1
  H  H10  1  0.36882200  0.01823000  0.24926800  1
  H  H11  1  0.86882200  0.98177000  0.25073200  1
  H  H12  1  0.48682200  0.43476000  0.86057900  1
  H  H13  1  0.98682200  0.56524000  0.63942100  1
  H  H14  1  0.51317800  0.56524000  0.13942100  1
  H  H15  1  0.01317800  0.43476000  0.36057900  1
  H  H16  1  0.61352100  0.54587300  0.91433300  1
  H  H17  1  0.11352100  0.45412700  0.58566700  1
  H  H18  1  0.38647900  0.45412700  0.08566700  1
  H  H19  1  0.88647900  0.54587300  0.41433300  1
  H  H20  1  0.61632900  0.33437800  0.96350500  1
  H  H21  1  0.11632900  0.66562200  0.53649500  1
  H  H22  1  0.38367100  0.66562200  0.03649500  1
  H  H23  1  0.88367100  0.33437800  0.46350500  1
  H  H24  1  0.45478700  0.60874700  0.20615000  1
  H  H25  1  0.95478700  0.39125300  0.29385000  1
  H  H26  1  0.54521300  0.39125300  0.79385000  1
  H  H27  1  0.04521300  0.60874700  0.70615000  1
  H  H28  1  0.34482600  0.86076800  0.81968100  1
  H  H29  1  0.84482600  0.13923200  0.68031900  1
  H  H30  1  0.65517400  0.13923200  0.18031900  1
  H  H31  1  0.15517400  0.86076800  0.31968100  1
  H  H32  1  0.69265700  0.45585800  0.75624700  1
  H  H33  1  0.19265700  0.54414200  0.74375300  1
  H  H34  1  0.30734300  0.54414200  0.24375300  1
  H  H35  1  0.80734300  0.45585800  0.25624700  1
  H  H36  1  0.80447900  0.40290100  0.67578300  1
  H  H37  1  0.30447900  0.59709900  0.82421700  1
  H  H38  1  0.19552100  0.59709900  0.32421700  1
  H  H39  1  0.69552100  0.40290100  0.17578300  1
  H  H40  1  0.68418700  0.06854900  0.44450400  1
  H  H41  1  0.18418700  0.93145100  0.05549600  1
  H  H42  1  0.31581300  0.93145100  0.55549600  1
  H  H43  1  0.81581300  0.06854900  0.94450400  1
  H  H44  1  0.71810400  0.75966800  0.54126800  1
  H  H45  1  0.21810400  0.24033200  0.95873200  1
  H  H46  1  0.28189600  0.24033200  0.45873200  1
  H  H47  1  0.78189600  0.75966800  0.04126800  1
  S  S0  1  0.75392500  0.86095600  0.44319500  1
  S  S1  1  0.25392500  0.13904400  0.05680500  1
  S  S2  1  0.24607500  0.13904400  0.55680500  1
  S  S3  1  0.74607500  0.86095600  0.94319500  1
  S  S4  1  0.57203700  0.22536700  0.28703400  1
  S  S5  1  0.07203700  0.77463300  0.21296600  1
  S  S6  1  0.42796300  0.77463300  0.71296600  1
  S  S7  1  0.92796300  0.22536700  0.78703400  1
  N  N0  1  0.73493200  0.40998900  0.77545400  1
  N  N1  1  0.23493200  0.59001100  0.72454600  1
  N  N2  1  0.26506800  0.59001100  0.22454600  1
  N  N3  1  0.76506800  0.40998900  0.27545400  1
  O  O0  1  0.88713100  0.86121100  0.26482600  1
  O  O1  1  0.38713100  0.13878900  0.23517400  1
  O  O2  1  0.11286900  0.13878900  0.73517400  1
  O  O3  1  0.61286900  0.86121100  0.76482600  1
  O  O4  1  0.79005500  0.97251100  0.53090400  1
  O  O5  1  0.29005500  0.02748900  0.96909600  1
  O  O6  1  0.20994500  0.02748900  0.46909600  1
  O  O7  1  0.70994500  0.97251100  0.03090400  1
  O  O8  1  0.70117100  0.00279600  0.37181500  1
  O  O9  1  0.20117100  0.99720400  0.12818500  1
  O  O10  1  0.29882900  0.99720400  0.62818500  1
  O  O11  1  0.79882900  0.00279600  0.87181500  1
  O  O12  1  0.73703200  0.43972400  0.37843900  1
  O  O13  1  0.23703200  0.56027600  0.12156100  1
  O  O14  1  0.26296800  0.56027600  0.62156100  1
  O  O15  1  0.76296800  0.43972400  0.87843900  1
  O  O16  1  0.60219600  0.38123900  0.34390400  1
  O  O17  1  0.10219600  0.61876100  0.15609600  1
  O  O18  1  0.39780400  0.61876100  0.65609600  1
  O  O19  1  0.89780400  0.38123900  0.84390400  1
  O  O20  1  0.49771200  0.61325100  0.22177700  1
  O  O21  1  0.99771200  0.38674900  0.27822300  1
  O  O22  1  0.50228800  0.38674900  0.77822300  1
  O  O23  1  0.00228800  0.61325100  0.72177700  1
  O  O24  1  0.61676500  0.18899900  0.14625100  1
  O  O25  1  0.11676500  0.81100100  0.35374900  1
  O  O26  1  0.38323500  0.81100100  0.85374900  1
  O  O27  1  0.88323500  0.18899900  0.64625100  1
  O  O28  1  0.58150900  0.05099700  0.38864200  1
  O  O29  1  0.08150900  0.94900300  0.11135800  1
  O  O30  1  0.41849100  0.94900300  0.61135800  1
  O  O31  1  0.91849100  0.05099700  0.88864200  1
  O  O32  1  0.73657700  0.37223200  0.15605000  1
  O  O33  1  0.23657700  0.62776800  0.34395000  1
  O  O34  1  0.26342300  0.62776800  0.84395000  1
  O  O35  1  0.76342300  0.37223200  0.65605000  1
  O  O36  1  0.68903100  0.65923200  0.32475900  1
  O  O37  1  0.18903100  0.34076800  0.17524100  1
  O  O38  1  0.31096900  0.34076800  0.67524100  1
  O  O39  1  0.81096900  0.65923200  0.82475900  1
  O  O40  1  0.61449600  0.42703800  0.87746700  1
  O  O41  1  0.11449600  0.57296200  0.62253300  1
  O  O42  1  0.38550400  0.57296200  0.12253300  1
  O  O43  1  0.88550400  0.42703800  0.37746700  1
  O  O44  1  0.60734700  0.76314300  0.05704300  1
  O  O45  1  0.10734700  0.23685700  0.44295700  1
  O  O46  1  0.39265300  0.23685700  0.94295700  1
  O  O47  1  0.89265300  0.76314300  0.55704300  1
loop_
_geom_bond_atom_site_label_1
_geom_bond_atom_site_label_2
_geom_bond_distance
_geom_bond_site_symmetry_2
La0 O36 2.057917 1_555
La0 O44 2.274521 1_555
La0 O16 2.568596 1_555
La0 O28 2.640468 1_565
La0 O20 2.706261 1_555
La1 O37 2.057917 1_555
La1 O45 2.274521 1_555
La1 O17 2.568596 1_555
La1 O29 2.640468 1_545
La1 O21 2.706261 1_455
La2 O38 2.057917 1_555
La2 O46 2.274521 1_555
La2 O18 2.568596 1_555
La2 O30 2.640468 1_545
La2 O22 2.706261 1_555
La3 O39 2.057917 1_555
La3 O47 2.274521 1_555
La3 O19 2.568596 1_555
La3 O31 2.640468 1_565
La3 O23 2.706261 1_655
H0 O46 0.991394 1_555
H1 O47 0.991394 1_555
H2 O44 0.991394 1_555
H3 O45 0.991394 1_555
H4 O3 0.997470 1_555
H5 O2 0.997470 1_555
H6 O1 0.997470 1_555
H7 O0 0.997470 1_555
H8 O3 0.971101 1_555
H9 O2 0.971101 1_555
H10 O1 0.971101 1_555
H11 O0 0.971101 1_555
H12 O22 0.973741 1_555
H13 O23 0.973741 1_655
H14 O20 0.973741 1_555
H15 O21 0.973741 1_455
H16 O40 0.986182 1_555
H17 O41 0.986182 1_555
H18 O42 0.986182 1_555
H19 O43 0.986182 1_555
H20 O40 0.989934 1_555
H21 O41 0.989934 1_555
H22 O42 0.989934 1_555
H23 O43 0.989934 1_555
H24 O20 0.997255 1_555
H25 O21 0.997255 1_555
H26 O22 0.997255 1_555
H27 O23 0.997255 1_555
H28 O26 0.990826 1_555
H29 O27 0.990826 1_555
H30 O24 0.990826 1_555
H31 O25 0.990826 1_555
H32 N0 1.034352 1_555
H33 N1 1.034352 1_555
H34 N2 1.034352 1_555
H35 N3 1.034352 1_555
H36 O35 0.992682 1_555
H37 O34 0.992682 1_555
H38 O33 0.992682 1_555
H39 O32 0.992682 1_555
H40 O8 0.981072 1_555
H41 O9 0.981072 1_555
H42 O10 0.981072 1_555
H43 O11 0.981072 1_555
H44 S0 1.380780 1_555
H45 S1 1.380780 1_556
H46 S2 1.380780 1_555
H47 S3 1.380780 1_554
N0 O15 1.220880 1_555
N0 O35 1.376748 1_555
N1 O14 1.220880 1_555
N1 O34 1.376748 1_555
N2 O13 1.220880 1_555
N2 O33 1.376748 1_555
N3 O12 1.220880 1_555
N3 O32 1.376748 1_555
O4 S0 1.501672 1_555
O5 S1 1.501672 1_556
O6 S2 1.501672 1_555
O7 S3 1.501672 1_554
O8 S0 1.676332 1_545
O9 S1 1.676332 1_565
O10 S2 1.676332 1_565
O11 S3 1.676332 1_545
O16 S4 1.503140 1_555
O17 S5 1.503140 1_555
O18 S6 1.503140 1_555
O19 S7 1.503140 1_555
O24 S4 1.742268 1_555
O25 S5 1.742268 1_555
O26 S6 1.742268 1_555
O27 S7 1.742268 1_555
O28 S4 1.507189 1_555
O29 S5 1.507189 1_555
O30 S6 1.507189 1_555
O31 S7 1.507189 1_555
