# generated using pymatgen
data_Li2Fe3P5O18
_symmetry_space_group_name_H-M   'P 1'
_cell_length_a   13.07149486
_cell_length_b   13.07149486
_cell_length_c   12.56987822
_cell_angle_alpha   88.26906917
_cell_angle_beta   88.26906917
_cell_angle_gamma   21.79129468
_symmetry_Int_Tables_number   1
_chemical_formula_structural   Li2Fe3P5O18
_chemical_formula_sum   'Li4 Fe6 P10 O36'
_cell_volume   796.92104560
_cell_formula_units_Z   2
loop_
 _symmetry_equiv_pos_site_id
 _symmetry_equiv_pos_as_xyz
  1  'x, y, z'
loop_
 _atom_site_type_symbol
 _atom_site_label
 _atom_site_symmetry_multiplicity
 _atom_site_fract_x
 _atom_site_fract_y
 _atom_site_fract_z
 _atom_site_occupancy
  Li  Li0  1  0.48676800  0.18320000  0.86388100  1
  Li  Li1  1  0.18320000  0.48676800  0.36388100  1
  Li  Li2  1  0.81680000  0.51323200  0.63611900  1
  Li  Li3  1  0.51323200  0.81680000  0.13611900  1
  Fe  Fe0  1  0.87857900  0.72390500  0.62063600  1
  Fe  Fe1  1  0.72390500  0.87857900  0.12063600  1
  Fe  Fe2  1  0.27609500  0.12142100  0.87936400  1
  Fe  Fe3  1  0.12142100  0.27609500  0.37936400  1
  Fe  Fe4  1  0.50000000  0.50000000  0.50000000  1
  Fe  Fe5  1  0.50000000  0.50000000  0.00000000  1
  P  P0  1  0.93298400  0.92959600  0.59220300  1
  P  P1  1  0.92959600  0.93298400  0.09220300  1
  P  P2  1  0.84757500  0.70020400  0.87163500  1
  P  P3  1  0.70020400  0.84757500  0.37163500  1
  P  P4  1  0.29979600  0.15242500  0.62836500  1
  P  P5  1  0.15242500  0.29979600  0.12836500  1
  P  P6  1  0.07040400  0.06701600  0.90779700  1
  P  P7  1  0.06701600  0.07040400  0.40779700  1
  P  P8  1  0.26960200  0.73039800  0.75000000  1
  P  P9  1  0.73039800  0.26960200  0.25000000  1
  O  O0  1  0.39748900  0.55248100  0.84280000  1
  O  O1  1  0.77201200  0.13724400  0.00568100  1
  O  O2  1  0.55248100  0.39748900  0.34280000  1
  O  O3  1  0.01726700  0.89824300  0.70562300  1
  O  O4  1  0.13724400  0.77201200  0.50568100  1
  O  O5  1  0.89824300  0.01726700  0.20562300  1
  O  O6  1  0.63933300  0.23467200  0.56844100  1
  O  O7  1  0.23467100  0.63933300  0.06844100  1
  O  O8  1  0.95746500  0.79121800  0.61612400  1
  O  O9  1  0.79121800  0.95746500  0.11612400  1
  O  O10  1  0.76115800  0.85012400  0.96337900  1
  O  O11  1  0.77457900  0.83595500  0.77240300  1
  O  O12  1  0.85012400  0.76115800  0.46337900  1
  O  O13  1  0.83595500  0.77457900  0.27240300  1
  O  O14  1  0.23855900  0.32454400  0.62825500  1
  O  O15  1  0.15809900  0.38396000  0.87644000  1
  O  O16  1  0.32454400  0.23855900  0.12825500  1
  O  O17  1  0.38396000  0.15809900  0.37644000  1
  O  O18  1  0.61604000  0.84190100  0.62356000  1
  O  O19  1  0.67545600  0.76144100  0.87174500  1
  O  O20  1  0.84190100  0.61604000  0.12356000  1
  O  O21  1  0.76144100  0.67545600  0.37174500  1
  O  O22  1  0.16404500  0.22542100  0.72759700  1
  O  O23  1  0.14987600  0.23884200  0.53662100  1
  O  O24  1  0.22542100  0.16404500  0.22759700  1
  O  O25  1  0.23884200  0.14987600  0.03662100  1
  O  O26  1  0.20878200  0.04253500  0.88387600  1
  O  O27  1  0.04253500  0.20878200  0.38387600  1
  O  O28  1  0.76532900  0.36066700  0.93155900  1
  O  O29  1  0.36066700  0.76532900  0.43155900  1
  O  O30  1  0.10175700  0.98273300  0.79437700  1
  O  O31  1  0.86275600  0.22798800  0.49431900  1
  O  O32  1  0.98273300  0.10175700  0.29437700  1
  O  O33  1  0.44751900  0.60251100  0.65720000  1
  O  O34  1  0.22798800  0.86275600  0.99431900  1
  O  O35  1  0.60251100  0.44751900  0.15720000  1
loop_
_geom_bond_atom_site_label_1
_geom_bond_atom_site_label_2
_geom_bond_distance
_geom_bond_site_symmetry_2
Li0 O10 2.080007 1_545
Li0 O15 2.101355 1_555
Li0 O11 2.102425 1_545
Li1 O12 2.080007 1_455
Li1 O17 2.101355 1_555
Li1 O13 2.102425 1_455
Li2 O23 2.080007 1_655
Li2 O18 2.101355 1_555
Li2 O22 2.102425 1_655
Li3 O25 2.080007 1_565
Li3 O20 2.101355 1_555
Li3 O24 2.102425 1_565
Fe0 O8 1.875920 1_555
Fe0 O14 1.944665 1_655
Fe0 O12 1.983110 1_555
Fe0 O11 1.986719 1_555
Fe0 O18 2.079286 1_555
Fe1 O9 1.875920 1_555
Fe1 O16 1.944665 1_565
Fe1 O10 1.983110 1_554
Fe1 O13 1.986719 1_555
Fe1 O20 2.079286 1_555
Fe2 O26 1.875920 1_555
Fe2 O19 1.944665 1_545
Fe2 O25 1.983110 1_556
Fe2 O22 1.986719 1_555
Fe2 O15 2.079286 1_555
Fe3 O27 1.875920 1_555
Fe3 O21 1.944665 1_455
Fe3 O23 1.983110 1_555
Fe3 O24 1.986719 1_555
Fe3 O17 2.079286 1_555
Fe4 O31 1.953583 1_555
Fe4 O4 1.953583 1_555
Fe4 O6 2.066321 1_555
Fe4 O29 2.066332 1_555
Fe4 O33 2.131109 1_555
Fe4 O2 2.131109 1_555
Fe5 O34 1.953583 1_554
Fe5 O1 1.953583 1_555
Fe5 O7 2.066332 1_555
Fe5 O28 2.066332 1_554
Fe5 O0 2.131109 1_554
Fe5 O35 2.131109 1_555
O0 P8 1.515879 1_555
O1 P1 1.516899 1_545
O2 P9 1.515879 1_555
O3 P8 1.613172 1_555
O3 P0 1.623379 1_455
O4 P0 1.516899 1_455
O5 P9 1.613172 1_555
O5 P1 1.623379 1_545
O6 P0 1.515397 1_545
O7 P1 1.515394 1_455
O8 P0 1.537084 1_555
O9 P1 1.537084 1_555
O10 P2 1.546972 1_555
O11 P2 1.552063 1_555
O12 P3 1.546972 1_555
O13 P3 1.552063 1_555
O14 P4 1.535578 1_555
O15 P2 1.551437 1_455
O16 P5 1.535578 1_555
O17 P3 1.551437 1_545
O18 P4 1.551437 1_565
O19 P2 1.535578 1_555
O20 P5 1.551437 1_655
O21 P3 1.535578 1_555
O22 P4 1.552063 1_555
O23 P4 1.546972 1_555
O24 P5 1.552063 1_555
O25 P5 1.546972 1_555
O26 P6 1.537084 1_555
O27 P7 1.537084 1_555
O28 P6 1.515394 1_655
O29 P7 1.515394 1_565
O30 P8 1.613172 1_555
O30 P6 1.623379 1_565
O31 P7 1.516899 1_655
O32 P9 1.613172 1_555
O32 P7 1.623379 1_655
O33 P8 1.515879 1_555
O34 P6 1.516899 1_565
O35 P9 1.515879 1_555
