# generated using pymatgen
data_LiP2WO7
_symmetry_space_group_name_H-M   'P 1'
_cell_length_a   8.29882100
_cell_length_b   7.37456300
_cell_length_c   9.88065731
_cell_angle_alpha   69.09843528
_cell_angle_beta   90.00000000
_cell_angle_gamma   90.00000000
_symmetry_Int_Tables_number   1
_chemical_formula_structural   LiP2WO7
_chemical_formula_sum   'Li4 P8 W4 O28'
_cell_volume   564.90567530
_cell_formula_units_Z   4
loop_
 _symmetry_equiv_pos_site_id
 _symmetry_equiv_pos_as_xyz
  1  'x, y, z'
loop_
 _atom_site_type_symbol
 _atom_site_label
 _atom_site_symmetry_multiplicity
 _atom_site_fract_x
 _atom_site_fract_y
 _atom_site_fract_z
 _atom_site_occupancy
  Li  Li0  1  0.52184000  0.70139300  0.77318700  1
  Li  Li1  1  0.97816000  0.70139300  0.27318700  1
  Li  Li2  1  0.02184000  0.29860700  0.72681300  1
  Li  Li3  1  0.47816000  0.29860700  0.22681300  1
  P  P0  1  0.74282300  0.91742800  0.95821500  1
  P  P1  1  0.75717700  0.91742800  0.45821500  1
  P  P2  1  0.28365300  0.66626100  0.54966600  1
  P  P3  1  0.78365300  0.33373900  0.95033400  1
  P  P4  1  0.21634700  0.66626100  0.04966600  1
  P  P5  1  0.71634700  0.33373900  0.45033400  1
  P  P6  1  0.24282300  0.08257200  0.54178500  1
  P  P7  1  0.25717700  0.08257200  0.04178500  1
  W  W0  1  0.99875900  0.74407800  0.74854200  1
  W  W1  1  0.50124100  0.74407800  0.24854200  1
  W  W2  1  0.49875900  0.25592200  0.75145800  1
  W  W3  1  0.00124100  0.25592200  0.25145800  1
  O  O0  1  0.58736200  0.95534300  0.86610700  1
  O  O1  1  0.87227000  0.81458600  0.90633800  1
  O  O2  1  0.91263800  0.95534300  0.36610700  1
  O  O3  1  0.32502800  0.87310200  0.56628200  1
  O  O4  1  0.20912900  0.68388100  0.89139800  1
  O  O5  1  0.78151800  0.81444400  0.62091100  1
  O  O6  1  0.62773000  0.81458600  0.40633800  1
  O  O7  1  0.11221600  0.60578300  0.60861800  1
  O  O8  1  0.17497200  0.87310200  0.06628200  1
  O  O9  1  0.29087100  0.68388100  0.39139800  1
  O  O10  1  0.91666900  0.45163300  0.84975300  1
  O  O11  1  0.71848200  0.81444400  0.12091100  1
  O  O12  1  0.41666900  0.54836700  0.65024700  1
  O  O13  1  0.61221600  0.39421700  0.89138200  1
  O  O14  1  0.38778400  0.60578300  0.10861800  1
  O  O15  1  0.58333100  0.45163300  0.34975300  1
  O  O16  1  0.28151800  0.18555600  0.87908900  1
  O  O17  1  0.08333100  0.54836700  0.15024700  1
  O  O18  1  0.70912900  0.31611900  0.60860200  1
  O  O19  1  0.82502800  0.12689800  0.93371800  1
  O  O20  1  0.88778400  0.39421700  0.39138200  1
  O  O21  1  0.37227000  0.18541400  0.59366200  1
  O  O22  1  0.21848200  0.18555600  0.37908900  1
  O  O23  1  0.79087100  0.31611900  0.10860200  1
  O  O24  1  0.67497200  0.12689800  0.43371800  1
  O  O25  1  0.08736200  0.04465700  0.63389300  1
  O  O26  1  0.12773000  0.18541400  0.09366200  1
  O  O27  1  0.41263800  0.04465700  0.13389300  1
loop_
_geom_bond_atom_site_label_1
_geom_bond_atom_site_label_2
_geom_bond_distance
_geom_bond_site_symmetry_2
Li0 O12 2.118718 1_555
Li0 O13 2.273824 1_555
Li0 O0 2.423368 1_555
Li0 O3 2.569713 1_555
Li0 O5 2.589966 1_555
Li1 O17 2.118718 1_655
Li1 O20 2.273824 1_555
Li1 O2 2.423368 1_555
Li1 O8 2.569713 1_655
Li1 O11 2.589966 1_555
Li2 O10 2.118718 1_455
Li2 O7 2.273824 1_555
Li2 O25 2.423368 1_555
Li2 O19 2.569713 1_455
Li2 O16 2.589966 1_555
Li3 O15 2.118718 1_555
Li3 O14 2.273824 1_555
Li3 O27 2.423368 1_555
Li3 O24 2.569713 1_555
Li3 O22 2.589966 1_555
O0 P0 1.545749 1_555
O0 W2 2.223898 1_565
O1 P0 1.506433 1_555
O1 W0 2.093224 1_555
O2 P1 1.545749 1_555
O2 W3 2.223898 1_665
O3 P6 1.625870 1_565
O3 P2 1.627965 1_555
O4 P4 1.523460 1_556
O4 W0 2.188660 1_455
O5 P1 1.526650 1_555
O5 W0 2.154742 1_555
O6 P1 1.506433 1_555
O6 W1 2.093224 1_555
O7 P2 1.541747 1_555
O7 W0 2.200944 1_455
O8 P7 1.625870 1_565
O8 P4 1.627965 1_555
O9 P2 1.523460 1_555
O9 W1 2.188660 1_555
O10 P3 1.531525 1_555
O10 W0 2.139262 1_555
O11 P0 1.526650 1_554
O11 W1 2.154742 1_555
O12 P2 1.531525 1_555
O12 W2 2.139262 1_555
O13 P3 1.541747 1_555
O13 W2 2.200944 1_555
O14 P4 1.541747 1_555
O14 W1 2.200944 1_555
O15 P5 1.531525 1_555
O15 W1 2.139262 1_555
O16 P7 1.526650 1_556
O16 W2 2.154742 1_555
O17 P4 1.531525 1_555
O17 W3 2.139262 1_555
O18 P5 1.523460 1_555
O18 W2 2.188660 1_555
O19 P0 1.625870 1_545
O19 P3 1.627965 1_555
O20 P5 1.541747 1_555
O20 W3 2.200944 1_655
O21 P6 1.506433 1_555
O21 W2 2.093224 1_555
O22 P6 1.526650 1_555
O22 W3 2.154742 1_555
O23 P3 1.523460 1_554
O23 W3 2.188660 1_655
O24 P1 1.625870 1_545
O24 P5 1.627965 1_555
O25 P6 1.545749 1_555
O25 W0 2.223898 1_445
O26 P7 1.506433 1_555
O26 W3 2.093224 1_555
O27 P7 1.545749 1_555
O27 W1 2.223898 1_545
