# generated using pymatgen
data_Ba3AlHO4
_symmetry_space_group_name_H-M   'P 1'
_cell_length_a   7.33996100
_cell_length_b   8.27268400
_cell_length_c   10.62661900
_cell_angle_alpha   90.00000000
_cell_angle_beta   90.00000000
_cell_angle_gamma   90.00000000
_symmetry_Int_Tables_number   1
_chemical_formula_structural   Ba3AlHO4
_chemical_formula_sum   'Ba12 Al4 H4 O16'
_cell_volume   645.26082304
_cell_formula_units_Z   4
loop_
 _symmetry_equiv_pos_site_id
 _symmetry_equiv_pos_as_xyz
  1  'x, y, z'
loop_
 _atom_site_type_symbol
 _atom_site_label
 _atom_site_symmetry_multiplicity
 _atom_site_fract_x
 _atom_site_fract_y
 _atom_site_fract_z
 _atom_site_occupancy
  Ba  Ba0  1  0.39901700  0.02585100  0.83444900  1
  Ba  Ba1  1  0.10098300  0.47414900  0.33444900  1
  Ba  Ba2  1  0.60098300  0.52585100  0.16555100  1
  Ba  Ba3  1  0.89901700  0.97414900  0.66555100  1
  Ba  Ba4  1  0.60098300  0.97414900  0.16555100  1
  Ba  Ba5  1  0.89901700  0.52585100  0.66555100  1
  Ba  Ba6  1  0.39901700  0.47414900  0.83444900  1
  Ba  Ba7  1  0.10098300  0.02585100  0.33444900  1
  Ba  Ba8  1  0.90176100  0.25000000  0.96331600  1
  Ba  Ba9  1  0.59823900  0.25000000  0.46331600  1
  Ba  Ba10  1  0.09823900  0.75000000  0.03668400  1
  Ba  Ba11  1  0.40176100  0.75000000  0.53668400  1
  Al  Al0  1  0.18925700  0.25000000  0.60359600  1
  Al  Al1  1  0.31074300  0.25000000  0.10359600  1
  Al  Al2  1  0.81074300  0.75000000  0.39640400  1
  Al  Al3  1  0.68925700  0.75000000  0.89640400  1
  H  H0  1  0.66077200  0.25000000  0.73076200  1
  H  H1  1  0.83922800  0.25000000  0.23076200  1
  H  H2  1  0.33922800  0.75000000  0.26923800  1
  H  H3  1  0.16077200  0.75000000  0.76923800  1
  O  O0  1  0.30586500  0.06615300  0.57242600  1
  O  O1  1  0.19413500  0.43384700  0.07242600  1
  O  O2  1  0.69413500  0.56615300  0.42757400  1
  O  O3  1  0.80586500  0.93384700  0.92757400  1
  O  O4  1  0.69413500  0.93384700  0.42757400  1
  O  O5  1  0.80586500  0.56615300  0.92757400  1
  O  O6  1  0.30586500  0.43384700  0.57242600  1
  O  O7  1  0.19413500  0.06615300  0.07242600  1
  O  O8  1  0.98335400  0.25000000  0.51200100  1
  O  O9  1  0.51664600  0.25000000  0.01200100  1
  O  O10  1  0.01664600  0.75000000  0.48799900  1
  O  O11  1  0.48335400  0.75000000  0.98799900  1
  O  O12  1  0.12916100  0.25000000  0.76748700  1
  O  O13  1  0.37083900  0.25000000  0.26748700  1
  O  O14  1  0.87083900  0.75000000  0.23251300  1
  O  O15  1  0.62916100  0.75000000  0.73251300  1
loop_
_geom_bond_atom_site_label_1
_geom_bond_atom_site_label_2
_geom_bond_distance
_geom_bond_site_symmetry_2
Ba0 O9 2.782778 1_556
Ba0 O12 2.805018 1_555
Ba0 O11 2.872865 1_545
Ba0 O0 2.886457 1_555
Ba0 H0 2.888567 1_555
Ba0 H3 2.957338 1_545
Ba0 O7 2.961071 1_556
Ba0 O15 3.038850 1_545
Ba0 O3 3.236711 1_545
Ba1 O8 2.782778 1_455
Ba1 O13 2.805018 1_555
Ba1 O10 2.872865 1_555
Ba1 O1 2.886457 1_555
Ba1 H1 2.888567 1_455
Ba1 H2 2.957338 1_555
Ba1 O6 2.961071 1_555
Ba1 O14 3.038850 1_455
Ba1 O2 3.236711 1_455
Ba2 O11 2.782778 1_554
Ba2 O14 2.805018 1_555
Ba2 O9 2.872865 1_555
Ba2 O2 2.886457 1_555
Ba2 H2 2.888567 1_555
Ba2 H1 2.957338 1_555
Ba2 O5 2.961071 1_554
Ba2 O13 3.038850 1_555
Ba2 O1 3.236711 1_555
Ba3 O10 2.782778 1_655
Ba3 O15 2.805018 1_555
Ba3 O8 2.872865 1_565
Ba3 O3 2.886457 1_555
Ba3 H3 2.888567 1_655
Ba3 H0 2.957338 1_565
Ba3 O4 2.961071 1_555
Ba3 O12 3.038850 1_665
Ba3 O0 3.236711 1_665
Ba4 O11 2.782778 1_554
Ba4 O14 2.805018 1_555
Ba4 O9 2.872865 1_565
Ba4 O4 2.886457 1_555
Ba4 H2 2.888567 1_555
Ba4 H1 2.957338 1_565
Ba4 O3 2.961071 1_554
Ba4 O13 3.038850 1_565
Ba4 O7 3.236711 1_565
Ba5 O10 2.782778 1_655
Ba5 O15 2.805018 1_555
Ba5 O8 2.872865 1_555
Ba5 O5 2.886457 1_555
Ba5 H3 2.888567 1_655
Ba5 H0 2.957338 1_555
Ba5 O2 2.961071 1_555
Ba5 O12 3.038850 1_655
Ba5 O6 3.236711 1_655
Ba6 O9 2.782778 1_556
Ba6 O12 2.805018 1_555
Ba6 O11 2.872865 1_555
Ba6 O6 2.886457 1_555
Ba6 H0 2.888567 1_555
Ba6 H3 2.957338 1_555
Ba6 O1 2.961071 1_556
Ba6 O15 3.038850 1_555
Ba6 O5 3.236711 1_555
Ba7 O8 2.782778 1_455
Ba7 O13 2.805018 1_555
Ba7 O10 2.872865 1_545
Ba7 O7 2.886457 1_555
Ba7 H1 2.888567 1_455
Ba7 H2 2.957338 1_545
Ba7 O0 2.961071 1_555
Ba7 O14 3.038850 1_445
Ba7 O4 3.236711 1_445
Ba8 O12 2.667673 1_655
Ba8 O3 2.734994 1_545
Ba8 O5 2.734994 1_555
Ba8 O9 2.873683 1_556
Ba8 O7 2.874527 1_656
Ba8 O1 2.874527 1_656
Ba8 H1 2.878872 1_556
Ba8 H0 3.039074 1_555
Ba9 O13 2.667673 1_555
Ba9 O4 2.734994 1_545
Ba9 O2 2.734994 1_555
Ba9 O8 2.873683 1_555
Ba9 O6 2.874527 1_555
Ba9 O0 2.874527 1_555
Ba9 H0 2.878872 1_555
Ba9 H1 3.039074 1_555
Ba10 O14 2.667673 1_455
Ba10 O7 2.734994 1_565
Ba10 O1 2.734994 1_555
Ba10 O11 2.873683 1_554
Ba10 O3 2.874527 1_454
Ba10 O5 2.874527 1_454
Ba10 H3 2.878872 1_554
Ba10 H2 3.039074 1_555
Ba11 O15 2.667673 1_555
Ba11 O0 2.734994 1_565
Ba11 O6 2.734994 1_555
Ba11 O10 2.873683 1_555
Ba11 O4 2.874527 1_555
Ba11 O2 2.874527 1_555
Ba11 H2 2.878872 1_555
Ba11 H3 3.039074 1_555
Al0 O0 1.776355 1_555
Al0 O6 1.776355 1_555
Al0 O12 1.796599 1_555
Al0 O8 1.797634 1_455
Al1 O7 1.776355 1_555
Al1 O1 1.776355 1_555
Al1 O13 1.796599 1_555
Al1 O9 1.797634 1_555
Al2 O2 1.776355 1_555
Al2 O4 1.776355 1_555
Al2 O14 1.796599 1_555
Al2 O10 1.797634 1_655
Al3 O3 1.776355 1_555
Al3 O5 1.776355 1_555
Al3 O15 1.796599 1_555
Al3 O11 1.797634 1_555
