# generated using pymatgen
data_Li2MnFe(BO3)2
_symmetry_space_group_name_H-M   'P 1'
_cell_length_a   5.25998969
_cell_length_b   6.21009904
_cell_length_c   7.91665576
_cell_angle_alpha   102.19970287
_cell_angle_beta   91.95895926
_cell_angle_gamma   88.82652227
_symmetry_Int_Tables_number   1
_chemical_formula_structural   Li2MnFe(BO3)2
_chemical_formula_sum   'Li4 Mn2 Fe2 B4 O12'
_cell_volume   252.58710994
_cell_formula_units_Z   2
loop_
 _symmetry_equiv_pos_site_id
 _symmetry_equiv_pos_as_xyz
  1  'x, y, z'
loop_
 _atom_site_type_symbol
 _atom_site_label
 _atom_site_symmetry_multiplicity
 _atom_site_fract_x
 _atom_site_fract_y
 _atom_site_fract_z
 _atom_site_occupancy
  Li  Li0  1  0.93249600  0.63032300  0.30259000  1
  Li  Li1  1  0.43246500  0.13015500  0.80273300  1
  Li  Li2  1  0.57093100  0.87004100  0.19622300  1
  Li  Li3  1  0.07064500  0.37014000  0.69630300  1
  Mn  Mn0  1  0.42743800  0.40750500  0.17786100  1
  Mn  Mn1  1  0.92750000  0.90759600  0.67786900  1
  Fe  Fe0  1  0.56963100  0.59066600  0.82750200  1
  Fe  Fe1  1  0.07090900  0.09097100  0.32774600  1
  B  B0  1  0.92551000  0.26381700  0.00226000  1
  B  B1  1  0.42550000  0.76378700  0.50222500  1
  B  B2  1  0.57350400  0.23655200  0.49729700  1
  B  B3  1  0.07321900  0.73678000  0.99726700  1
  O  O0  1  0.16655400  0.79623700  0.47314700  1
  O  O1  1  0.66652800  0.29616700  0.97320600  1
  O  O2  1  0.03367200  0.33987000  0.16804500  1
  O  O3  1  0.53362200  0.83981000  0.66802000  1
  O  O4  1  0.57823200  0.66607500  0.36742200  1
  O  O5  1  0.07829800  0.16625500  0.86741300  1
  O  O6  1  0.92714500  0.83775100  0.13312200  1
  O  O7  1  0.42745000  0.33765900  0.63310700  1
  O  O8  1  0.45937200  0.15432500  0.33376900  1
  O  O9  1  0.95953700  0.65439700  0.83368700  1
  O  O10  1  0.33491200  0.70687300  0.02072900  1
  O  O11  1  0.83492900  0.20624700  0.52046100  1
loop_
_geom_bond_atom_site_label_1
_geom_bond_atom_site_label_2
_geom_bond_distance
_geom_bond_site_symmetry_2
Li0 O0 1.936697 1_655
Li0 O4 1.945599 1_555
Li0 O2 1.964353 1_655
Li0 O6 2.046070 1_555
Li1 O1 1.936581 1_555
Li1 O5 1.944865 1_555
Li1 O3 1.964267 1_545
Li1 O7 2.047458 1_555
Li2 O6 1.951079 1_555
Li2 O8 1.958462 1_565
Li2 O10 1.958779 1_555
Li2 O4 2.040289 1_555
Li3 O7 1.954320 1_555
Li3 O9 1.957139 1_455
Li3 O11 1.961102 1_455
Li3 O5 2.039316 1_555
Mn0 O1 2.077228 1_554
Mn0 O4 2.100466 1_555
Mn0 O2 2.117352 1_555
Mn0 O8 2.195191 1_555
Mn0 O10 2.477809 1_555
Mn1 O0 2.077517 1_655
Mn1 O5 2.100744 1_665
Mn1 O3 2.118118 1_555
Mn1 O9 2.194806 1_555
Mn1 O11 2.475484 1_565
Fe0 O10 2.002787 1_556
Fe0 O7 2.084194 1_555
Fe0 O9 2.093663 1_555
Fe0 O3 2.195689 1_555
Fe0 O1 2.397558 1_555
Fe1 O11 2.003071 1_455
Fe1 O8 2.085791 1_555
Fe1 O6 2.088940 1_445
Fe1 O2 2.196032 1_555
Fe1 O0 2.396111 1_545
B0 O5 1.384898 1_654
B0 O1 1.391355 1_554
B0 O2 1.402597 1_655
B1 O4 1.384724 1_555
B1 O0 1.391301 1_555
B1 O3 1.402557 1_555
B2 O7 1.375429 1_555
B2 O11 1.395232 1_555
B2 O8 1.406113 1_555
B3 O6 1.375505 1_456
B3 O10 1.396561 1_556
B3 O9 1.405675 1_455
