# generated using pymatgen
data_DyAlO3
_symmetry_space_group_name_H-M   'P 1'
_cell_length_a   5.16840341
_cell_length_b   5.31063225
_cell_length_c   7.37199326
_cell_angle_alpha   90.00000000
_cell_angle_beta   90.00000000
_cell_angle_gamma   90.00000000
_symmetry_Int_Tables_number   1
_chemical_formula_structural   DyAlO3
_chemical_formula_sum   'Dy4 Al4 O12'
_cell_volume   202.34271003
_cell_formula_units_Z   4
loop_
 _symmetry_equiv_pos_site_id
 _symmetry_equiv_pos_as_xyz
  1  'x, y, z'
loop_
 _atom_site_type_symbol
 _atom_site_label
 _atom_site_symmetry_multiplicity
 _atom_site_fract_x
 _atom_site_fract_y
 _atom_site_fract_z
 _atom_site_occupancy
  Dy  Dy0  1  0.01232929  0.94790593  0.75000000  1
  Dy  Dy1  1  0.48767071  0.44790593  0.75000000  1
  Dy  Dy2  1  0.51232929  0.55209407  0.25000000  1
  Dy  Dy3  1  0.98767071  0.05209407  0.25000000  1
  Al  Al0  1  0.00000000  0.50000000  0.00000000  1
  Al  Al1  1  0.00000000  0.50000000  0.50000000  1
  Al  Al2  1  0.50000000  0.00000000  0.00000000  1
  Al  Al3  1  0.50000000  0.00000000  0.50000000  1
  O  O0  1  0.08421892  0.47862582  0.25000000  1
  O  O1  1  0.20704631  0.20716717  0.54457471  1
  O  O2  1  0.20704631  0.20716717  0.95542529  1
  O  O3  1  0.29295369  0.70716717  0.54457471  1
  O  O4  1  0.29295369  0.70716717  0.95542529  1
  O  O5  1  0.41578108  0.97862582  0.25000000  1
  O  O6  1  0.58421892  0.02137418  0.75000000  1
  O  O7  1  0.70704631  0.29283283  0.04457471  1
  O  O8  1  0.70704631  0.29283283  0.45542529  1
  O  O9  1  0.79295369  0.79283283  0.04457471  1
  O  O10  1  0.79295369  0.79283283  0.45542529  1
  O  O11  1  0.91578108  0.52137418  0.75000000  1
loop_
_geom_bond_atom_site_label_1
_geom_bond_atom_site_label_2
_geom_bond_distance
_geom_bond_site_symmetry_2
Dy0 O6 2.246783 1_465
Dy0 O2 2.280762 1_565
Dy0 O1 2.280762 1_565
Dy0 O11 2.319466 1_455
Dy0 O3 2.455909 1_555
Dy0 O4 2.455909 1_555
Dy0 O9 2.584496 1_456
Dy0 O10 2.584496 1_455
Dy1 O11 2.246783 1_555
Dy1 O4 2.280762 1_555
Dy1 O3 2.280762 1_555
Dy1 O6 2.319466 1_555
Dy1 O2 2.455909 1_555
Dy1 O1 2.455909 1_555
Dy1 O7 2.584496 1_556
Dy1 O8 2.584496 1_555
Dy2 O0 2.246783 1_555
Dy2 O7 2.280762 1_555
Dy2 O8 2.280762 1_555
Dy2 O5 2.319466 1_555
Dy2 O10 2.455909 1_555
Dy2 O9 2.455909 1_555
Dy2 O3 2.584496 1_555
Dy2 O4 2.584496 1_554
Dy3 O5 2.246783 1_645
Dy3 O9 2.280762 1_545
Dy3 O10 2.280762 1_545
Dy3 O0 2.319466 1_655
Dy3 O7 2.455909 1_555
Dy3 O8 2.455909 1_555
Dy3 O2 2.584496 1_654
Dy3 O1 2.584496 1_655
Al0 O11 1.897101 1_454
Al0 O0 1.897101 1_555
Al0 O7 1.900238 1_455
Al0 O4 1.900238 1_554
Al0 O2 1.916119 1_554
Al0 O9 1.916119 1_455
Al1 O11 1.897101 1_455
Al1 O0 1.897101 1_555
Al1 O8 1.900238 1_455
Al1 O3 1.900238 1_555
Al1 O1 1.916119 1_555
Al1 O10 1.916119 1_455
Al2 O6 1.897101 1_554
Al2 O5 1.897101 1_545
Al2 O2 1.900238 1_554
Al2 O9 1.900238 1_545
Al2 O4 1.916119 1_544
Al2 O7 1.916119 1_555
Al3 O6 1.897101 1_555
Al3 O5 1.897101 1_545
Al3 O1 1.900238 1_555
Al3 O10 1.900238 1_545
Al3 O3 1.916119 1_545
Al3 O8 1.916119 1_555
