# generated using pymatgen
data_FeOF
_symmetry_space_group_name_H-M   'P 1'
_cell_length_a   3.09145200
_cell_length_b   14.21568700
_cell_length_c   14.25999976
_cell_angle_alpha   89.86133684
_cell_angle_beta   90.00000000
_cell_angle_gamma   90.00000000
_symmetry_Int_Tables_number   1
_chemical_formula_structural   FeOF
_chemical_formula_sum   'Fe18 O18 F18'
_cell_volume   626.68399997
_cell_formula_units_Z   18
loop_
 _symmetry_equiv_pos_site_id
 _symmetry_equiv_pos_as_xyz
  1  'x, y, z'
loop_
 _atom_site_type_symbol
 _atom_site_label
 _atom_site_symmetry_multiplicity
 _atom_site_fract_x
 _atom_site_fract_y
 _atom_site_fract_z
 _atom_site_occupancy
  Fe  Fe0  1  0.00000000  0.98314800  0.00571700  1
  Fe  Fe1  1  0.00000000  0.98944700  0.67057100  1
  Fe  Fe2  1  0.00000000  0.00380600  0.33034200  1
  Fe  Fe3  1  0.50000000  0.84652200  0.83588600  1
  Fe  Fe4  1  0.50000000  0.84136300  0.50949500  1
  Fe  Fe5  1  0.50000000  0.84311100  0.18076300  1
  Fe  Fe6  1  0.00000000  0.65941200  0.00758600  1
  Fe  Fe7  1  0.00000000  0.65632100  0.66524800  1
  Fe  Fe8  1  0.00000000  0.66362900  0.32439100  1
  Fe  Fe9  1  0.50000000  0.51611600  0.49671400  1
  Fe  Fe10  1  0.50000000  0.48179200  0.83216100  1
  Fe  Fe11  1  0.50000000  0.51062500  0.16937000  1
  Fe  Fe12  1  0.00000000  0.32961100  0.99400800  1
  Fe  Fe13  1  0.00000000  0.33075300  0.67621400  1
  Fe  Fe14  1  0.00000000  0.31897800  0.33666700  1
  Fe  Fe15  1  0.50000000  0.17952700  0.83530600  1
  Fe  Fe16  1  0.50000000  0.16162900  0.48588300  1
  Fe  Fe17  1  0.50000000  0.18586200  0.16246600  1
  O  O0  1  0.50000000  0.93350600  0.72943000  1
  O  O1  1  0.50000000  0.93132000  0.06906300  1
  O  O2  1  0.00000000  0.89630200  0.89788000  1
  O  O3  1  0.00000000  0.90207000  0.56259000  1
  O  O4  1  0.00000000  0.90579900  0.23953800  1
  O  O5  1  0.50000000  0.73445600  0.26791900  1
  O  O6  1  0.50000000  0.60745000  0.39608500  1
  O  O7  1  0.50000000  0.60072900  0.06070200  1
  O  O8  1  0.00000000  0.56307800  0.56586700  1
  O  O9  1  0.00000000  0.56205000  0.23017100  1
  O  O10  1  0.00000000  0.43761900  0.76287200  1
  O  O11  1  0.50000000  0.40057100  0.93811100  1
  O  O12  1  0.50000000  0.26449600  0.72560000  1
  O  O13  1  0.50000000  0.26829000  0.40182400  1
  O  O14  1  0.50000000  0.27135700  0.06119200  1
  O  O15  1  0.00000000  0.22872300  0.89663500  1
  O  O16  1  0.00000000  0.22992600  0.23233300  1
  O  O17  1  0.00000000  0.09558900  0.43085600  1
  F  F0  1  0.50000000  0.93456700  0.39833700  1
  F  F1  1  0.00000000  0.76517100  0.76635800  1
  F  F2  1  0.00000000  0.77369500  0.44016500  1
  F  F3  1  0.00000000  0.76941000  0.09970800  1
  F  F4  1  0.50000000  0.73084000  0.93267300  1
  F  F5  1  0.50000000  0.73535900  0.60255500  1
  F  F6  1  0.50000000  0.60343900  0.74405900  1
  F  F7  1  0.00000000  0.57001200  0.89453100  1
  F  F8  1  0.00000000  0.43497000  0.43208400  1
  F  F9  1  0.00000000  0.43375300  0.10543000  1
  F  F10  1  0.50000000  0.39375000  0.59438000  1
  F  F11  1  0.50000000  0.39599600  0.27010900  1
  F  F12  1  0.00000000  0.22816500  0.56233800  1
  F  F13  1  0.00000000  0.09852000  0.76592000  1
  F  F14  1  0.00000000  0.10071700  0.10127700  1
  F  F15  1  0.50000000  0.06163700  0.93494700  1
  F  F16  1  0.50000000  0.06755000  0.60218000  1
  F  F17  1  0.50000000  0.06746500  0.26549800  1
loop_
_geom_bond_atom_site_label_1
_geom_bond_atom_site_label_2
_geom_bond_distance
_geom_bond_site_symmetry_2
Fe0 O1 1.935163 1_455
Fe0 O1 1.935163 1_555
Fe0 O2 1.974350 1_554
Fe1 O0 1.929486 1_555
Fe1 O0 1.929486 1_455
Fe1 O3 1.980692 1_555
Fe2 O4 1.904341 1_545
Fe2 O17 1.940588 1_555
Fe3 O2 1.916923 1_555
Fe3 O2 1.916923 1_655
Fe3 O0 1.955621 1_555
Fe4 O3 1.926250 1_555
Fe4 O3 1.926250 1_655
Fe5 O4 1.972182 1_555
Fe5 O4 1.972182 1_655
Fe5 O5 1.980196 1_555
Fe5 O1 2.024814 1_555
Fe6 O7 1.912025 1_455
Fe6 O7 1.912025 1_555
Fe7 O8 1.942796 1_555
Fe8 O9 1.974784 1_555
Fe8 O5 2.011863 1_555
Fe8 O5 2.011863 1_455
Fe8 O6 2.017010 1_455
Fe8 O6 2.017010 1_555
Fe9 O6 1.932847 1_555
Fe9 O8 1.952070 1_555
Fe9 O8 1.952070 1_655
Fe10 O11 1.899301 1_555
Fe10 O10 1.939809 1_655
Fe10 O10 1.939809 1_555
Fe11 O9 1.917938 1_655
Fe11 O9 1.917938 1_555
Fe11 O7 2.008071 1_555
Fe12 O14 1.997263 1_556
Fe12 O14 1.997263 1_456
Fe12 O15 1.998646 1_555
Fe12 O11 2.009552 1_555
Fe12 O11 2.009552 1_455
Fe13 O12 1.941436 1_555
Fe13 O12 1.941436 1_455
Fe13 O10 1.960621 1_555
Fe14 O13 1.941273 1_455
Fe14 O13 1.941273 1_555
Fe14 O16 1.955829 1_555
Fe15 O15 1.909494 1_555
Fe15 O15 1.909494 1_655
Fe15 O12 1.974140 1_555
Fe16 O13 1.930565 1_555
Fe16 O17 1.972287 1_555
Fe16 O17 1.972287 1_655
Fe17 O14 1.885271 1_555
Fe17 O16 1.943524 1_555
Fe17 O16 1.943524 1_655
F0 Fe4 2.063476 1_555
F0 Fe2 2.072100 1_665
F0 Fe2 2.072100 1_565
F1 Fe7 2.117557 1_555
F1 Fe3 2.171458 1_455
F1 Fe3 2.171458 1_555
F2 Fe4 2.072833 1_555
F2 Fe4 2.072833 1_455
F2 Fe8 2.277338 1_555
F3 Fe6 2.044699 1_555
F3 Fe5 2.197454 1_555
F3 Fe5 2.197454 1_455
F4 Fe6 2.134533 1_556
F4 Fe6 2.134533 1_656
F4 Fe3 2.144364 1_555
F5 Fe4 2.005530 1_555
F5 Fe7 2.108572 1_555
F5 Fe7 2.108572 1_655
F6 Fe7 2.052642 1_555
F6 Fe7 2.052642 1_655
F6 Fe10 2.135023 1_555
F7 Fe6 2.055270 1_556
F7 Fe10 2.181394 1_555
F7 Fe10 2.181394 1_455
F8 Fe9 2.138802 1_555
F8 Fe9 2.138802 1_455
F8 Fe14 2.140353 1_555
F9 Fe11 2.102291 1_455
F9 Fe11 2.102291 1_555
F9 Fe12 2.174316 1_554
F10 Fe13 2.132602 1_555
F10 Fe13 2.132602 1_655
F10 Fe9 2.225725 1_555
F11 Fe14 2.117496 1_655
F11 Fe14 2.117496 1_555
F11 Fe11 2.169719 1_555
F12 Fe16 2.116021 1_455
F12 Fe16 2.116021 1_555
F12 Fe13 2.185231 1_555
F13 Fe1 2.064733 1_545
F13 Fe15 2.167925 1_555
F13 Fe15 2.167925 1_455
F14 Fe17 2.149602 1_455
F14 Fe17 2.149602 1_555
F14 Fe0 2.158995 1_545
F15 Fe0 2.155741 1_646
F15 Fe0 2.155741 1_546
F15 Fe15 2.194533 1_555
F16 Fe16 2.127950 1_555
F16 Fe1 2.137262 1_545
F16 Fe1 2.137262 1_645
F17 Fe2 2.014743 1_555
F17 Fe2 2.014743 1_655
F17 Fe17 2.231478 1_555
