# generated using pymatgen
data_In(SeO3)2
_symmetry_space_group_name_H-M   'P 1'
_cell_length_a   10.22050800
_cell_length_b   6.86379800
_cell_length_c   8.72567878
_cell_angle_alpha   89.56473936
_cell_angle_beta   90.00000000
_cell_angle_gamma   90.00000000
_symmetry_Int_Tables_number   1
_chemical_formula_structural   In(SeO3)2
_chemical_formula_sum   'In4 Se8 O24'
_cell_volume   612.10181286
_cell_formula_units_Z   4
loop_
 _symmetry_equiv_pos_site_id
 _symmetry_equiv_pos_as_xyz
  1  'x, y, z'
loop_
 _atom_site_type_symbol
 _atom_site_label
 _atom_site_symmetry_multiplicity
 _atom_site_fract_x
 _atom_site_fract_y
 _atom_site_fract_z
 _atom_site_occupancy
  In  In0  1  0.00897500  0.04908200  0.69992800  1
  In  In1  1  0.50897500  0.95091800  0.80007200  1
  In  In2  1  0.99102500  0.95091800  0.30007200  1
  In  In3  1  0.49102500  0.04908200  0.19992800  1
  Se  Se0  1  0.20847700  0.91616900  0.98826200  1
  Se  Se1  1  0.70847700  0.08383100  0.51173800  1
  Se  Se2  1  0.79152300  0.08383100  0.01173800  1
  Se  Se3  1  0.29152300  0.91616900  0.48826200  1
  Se  Se4  1  0.92358800  0.55564700  0.72204100  1
  Se  Se5  1  0.42358800  0.44435300  0.77795900  1
  Se  Se6  1  0.07641200  0.44435300  0.27795900  1
  Se  Se7  1  0.57641200  0.55564700  0.22204100  1
  O  O0  1  0.04195700  0.73230600  0.73224900  1
  O  O1  1  0.54195700  0.26769400  0.76775100  1
  O  O2  1  0.95804300  0.26769400  0.26775100  1
  O  O3  1  0.45804300  0.73230600  0.23224900  1
  O  O4  1  0.32396700  0.95280900  0.67855600  1
  O  O5  1  0.82396700  0.04719100  0.82144400  1
  O  O6  1  0.67603300  0.04719100  0.32144400  1
  O  O7  1  0.17603300  0.95280900  0.17855600  1
  O  O8  1  0.63128100  0.97700600  0.00812100  1
  O  O9  1  0.13128100  0.02299400  0.49187900  1
  O  O10  1  0.36871900  0.02299400  0.99187900  1
  O  O11  1  0.86871900  0.97700600  0.50812100  1
  O  O12  1  0.49470600  0.36071200  0.14617600  1
  O  O13  1  0.99470600  0.63928800  0.35382400  1
  O  O14  1  0.50529400  0.63928800  0.85382400  1
  O  O15  1  0.00529400  0.36071200  0.64617600  1
  O  O16  1  0.87972300  0.89892900  0.09721900  1
  O  O17  1  0.37972300  0.10107100  0.40278100  1
  O  O18  1  0.12027700  0.10107100  0.90278100  1
  O  O19  1  0.62027700  0.89892900  0.59721900  1
  O  O20  1  0.13819800  0.49434600  0.10600900  1
  O  O21  1  0.63819800  0.50565400  0.39399100  1
  O  O22  1  0.86180200  0.50565400  0.89399100  1
  O  O23  1  0.36180200  0.49434600  0.60600900  1
loop_
_geom_bond_atom_site_label_1
_geom_bond_atom_site_label_2
_geom_bond_distance
_geom_bond_site_symmetry_2
In0 O18 2.136349 1_555
In0 O5 2.167862 1_455
In0 O15 2.186625 1_555
In0 O9 2.212496 1_555
In0 O0 2.216162 1_545
In0 O11 2.261261 1_445
In1 O19 2.136349 1_555
In1 O4 2.167862 1_555
In1 O14 2.186625 1_555
In1 O8 2.212496 1_556
In1 O1 2.216162 1_565
In1 O10 2.261261 1_565
In2 O16 2.136349 1_555
In2 O7 2.167862 1_655
In2 O13 2.186625 1_555
In2 O11 2.212496 1_555
In2 O2 2.216162 1_565
In2 O9 2.261261 1_665
In3 O17 2.136349 1_555
In3 O6 2.167862 1_555
In3 O12 2.186625 1_555
In3 O10 2.212496 1_554
In3 O3 2.216162 1_545
In3 O8 2.261261 1_545
O0 Se4 1.715649 1_455
O1 Se5 1.715649 1_555
O2 Se6 1.715649 1_655
O3 Se7 1.715649 1_555
O4 Se3 1.713657 1_555
O5 Se2 1.713657 1_556
O6 Se1 1.713657 1_555
O7 Se0 1.713657 1_554
O8 Se2 1.794772 1_565
O9 Se3 1.794772 1_545
O10 Se0 1.794772 1_545
O11 Se1 1.794772 1_565
O12 Se7 1.714424 1_555
O13 Se6 1.714424 1_655
O14 Se5 1.714424 1_555
O15 Se4 1.714424 1_455
O16 Se2 1.721992 1_565
O17 Se3 1.721992 1_545
O18 Se0 1.721992 1_545
O19 Se1 1.721992 1_565
O20 Se6 1.661276 1_555
O21 Se7 1.661276 1_555
O22 Se4 1.661276 1_555
O23 Se5 1.661276 1_555
