# generated using pymatgen
data_Li3Co2(CO3)4
_symmetry_space_group_name_H-M   'P 1'
_cell_length_a   5.43567495
_cell_length_b   6.38113950
_cell_length_c   8.39384041
_cell_angle_alpha   95.52502645
_cell_angle_beta   72.97718236
_cell_angle_gamma   114.76247083
_symmetry_Int_Tables_number   1
_chemical_formula_structural   Li3Co2(CO3)4
_chemical_formula_sum   'Li3 Co2 C4 O12'
_cell_volume   252.67752425
_cell_formula_units_Z   1
loop_
 _symmetry_equiv_pos_site_id
 _symmetry_equiv_pos_as_xyz
  1  'x, y, z'
loop_
 _atom_site_type_symbol
 _atom_site_label
 _atom_site_symmetry_multiplicity
 _atom_site_fract_x
 _atom_site_fract_y
 _atom_site_fract_z
 _atom_site_occupancy
  Li  Li0  1  0.47345900  0.95127200  0.31003500  1
  Li  Li1  1  0.83846900  0.05078300  0.67794700  1
  Li  Li2  1  0.74863400  0.52521500  0.84872100  1
  Co  Co0  1  0.33978200  0.50636800  0.49366100  1
  Co  Co1  1  0.12957800  0.99467200  0.00255300  1
  C  C0  1  0.67004000  0.60819500  0.21134800  1
  C  C1  1  0.08069200  0.12275300  0.29790800  1
  C  C2  1  0.26306500  0.88177100  0.69715300  1
  C  C3  1  0.27056900  0.39483400  0.78933200  1
  O  O0  1  0.84160100  0.65598800  0.06423300  1
  O  O1  1  0.42618700  0.62009800  0.24891300  1
  O  O2  1  0.87730300  0.08239200  0.23668200  1
  O  O3  1  0.29387300  0.08248300  0.20769100  1
  O  O4  1  0.07531100  0.19924400  0.45015900  1
  O  O5  1  0.72513700  0.54799200  0.33554200  1
  O  O6  1  0.33754600  0.81687300  0.54455100  1
  O  O7  1  0.04821200  0.38383200  0.75146500  1
  O  O8  1  0.43119800  0.94284400  0.79057900  1
  O  O9  1  0.50810400  0.47476700  0.67057900  1
  O  O10  1  0.01643300  0.88476500  0.75978800  1
  O  O11  1  0.27032000  0.33231000  0.92897600  1
loop_
_geom_bond_atom_site_label_1
_geom_bond_atom_site_label_2
_geom_bond_distance
_geom_bond_site_symmetry_2
Li0 O2 1.914975 1_565
Li0 O3 1.925126 1_565
Li0 O6 2.024620 1_555
Li0 O1 2.051503 1_555
Li1 O8 1.972740 1_545
Li1 O10 1.979318 1_645
Li1 O4 2.023991 1_655
Li1 O7 2.080115 1_655
Li2 O0 2.028646 1_556
Li2 O7 2.107754 1_655
Li2 O9 2.179069 1_555
Li2 O10 2.199085 1_655
Li2 O11 2.276396 1_555
Co0 O4 1.962189 1_555
Co0 O6 1.990633 1_555
Co0 O9 2.022579 1_555
Co0 O5 2.047864 1_555
Co0 O1 2.098653 1_555
Co0 O7 2.255130 1_555
Co1 O11 2.051204 1_564
Co1 O0 2.072692 1_455
Co1 O3 2.090888 1_565
Co1 O8 2.143852 1_554
Co1 O2 2.215678 1_465
Co1 O10 2.262679 1_554
C0 O0 1.283572 1_555
C0 O5 1.296266 1_555
C0 O1 1.302756 1_555
C1 O2 1.273324 1_455
C1 O3 1.296323 1_555
C1 O4 1.319949 1_555
C2 O8 1.290158 1_555
C2 O10 1.296479 1_555
C2 O6 1.307985 1_555
C3 O11 1.273494 1_555
C3 O9 1.309012 1_555
C3 O7 1.310103 1_555
