# generated using pymatgen
data_LiMn2F5
_symmetry_space_group_name_H-M   'P 1'
_cell_length_a   6.50413100
_cell_length_b   8.00511049
_cell_length_c   8.95652254
_cell_angle_alpha   106.35033010
_cell_angle_beta   91.06066794
_cell_angle_gamma   101.27277983
_symmetry_Int_Tables_number   1
_chemical_formula_structural   LiMn2F5
_chemical_formula_sum   'Li4 Mn8 F20'
_cell_volume   437.49872506
_cell_formula_units_Z   4
loop_
 _symmetry_equiv_pos_site_id
 _symmetry_equiv_pos_as_xyz
  1  'x, y, z'
loop_
 _atom_site_type_symbol
 _atom_site_label
 _atom_site_symmetry_multiplicity
 _atom_site_fract_x
 _atom_site_fract_y
 _atom_site_fract_z
 _atom_site_occupancy
  Li  Li0  1  0.78610400  0.21151700  0.44596300  1
  Li  Li1  1  0.31816300  0.21522000  0.15921500  1
  Li  Li2  1  0.68183700  0.78478000  0.84078500  1
  Li  Li3  1  0.21389600  0.78848300  0.55403700  1
  Mn  Mn0  1  0.54207300  0.18625500  0.79371600  1
  Mn  Mn1  1  0.03345200  0.15191100  0.78660300  1
  Mn  Mn2  1  0.32523100  0.37994000  0.56722600  1
  Mn  Mn3  1  0.86022100  0.38667300  0.11974500  1
  Mn  Mn4  1  0.13977900  0.61332700  0.88025500  1
  Mn  Mn5  1  0.67476900  0.62006000  0.43277400  1
  Mn  Mn6  1  0.96654800  0.84808900  0.21339700  1
  Mn  Mn7  1  0.45792700  0.81374500  0.20628400  1
  F  F0  1  0.73432600  0.99465400  0.76783800  1
  F  F1  1  0.25645700  0.99518100  0.73247300  1
  F  F2  1  0.74354300  0.00481900  0.26752700  1
  F  F3  1  0.26567400  0.00534600  0.23216200  1
  F  F4  1  0.55191900  0.21836400  0.57159700  1
  F  F5  1  0.86649100  0.38031600  0.86940200  1
  F  F6  1  0.03114700  0.20636500  0.56358300  1
  F  F7  1  0.30888600  0.37580900  0.81613200  1
  F  F8  1  0.55464100  0.23193600  0.03560200  1
  F  F9  1  0.83347400  0.40126500  0.35168500  1
  F  F10  1  0.06577400  0.21341800  0.04058900  1
  F  F11  1  0.39123300  0.40233300  0.34863900  1
  F  F12  1  0.60876700  0.59766700  0.65136100  1
  F  F13  1  0.93422600  0.78658200  0.95941100  1
  F  F14  1  0.16652600  0.59873500  0.64831500  1
  F  F15  1  0.44535900  0.76806400  0.96439800  1
  F  F16  1  0.69111400  0.62419100  0.18386800  1
  F  F17  1  0.96885300  0.79363500  0.43641700  1
  F  F18  1  0.13350900  0.61968400  0.13059800  1
  F  F19  1  0.44808100  0.78163600  0.42840300  1
loop_
_geom_bond_atom_site_label_1
_geom_bond_atom_site_label_2
_geom_bond_distance
_geom_bond_site_symmetry_2
F0 Li2 1.941150 1_555
F0 Mn1 2.075909 1_665
F0 Mn0 2.128432 1_565
F1 Li3 1.919454 1_555
F1 Mn1 2.075578 1_565
F1 Mn0 2.114344 1_565
F2 Li0 1.919454 1_555
F2 Mn6 2.075578 1_545
F2 Mn7 2.114344 1_545
F3 Li1 1.941150 1_555
F3 Mn6 2.075909 1_445
F3 Mn7 2.128432 1_545
F4 Li0 1.910653 1_555
F4 Mn0 2.077045 1_555
F4 Mn2 2.149497 1_555
F5 Mn3 2.229727 1_556
F5 Mn1 2.261626 1_655
F5 Mn4 2.289869 1_655
F5 Mn0 2.323309 1_555
F6 Li0 1.907790 1_455
F6 Mn2 2.126847 1_555
F6 Mn1 2.161450 1_555
F7 Mn1 2.225299 1_555
F7 Mn2 2.243039 1_555
F7 Mn4 2.319690 1_555
F7 Mn0 2.320051 1_555
F8 Li1 1.917124 1_555
F8 Mn0 2.090372 1_554
F8 Mn3 2.123448 1_555
F9 Li0 1.914148 1_555
F9 Mn3 2.060122 1_555
F9 Mn5 2.163115 1_555
F10 Li1 1.934260 1_555
F10 Mn3 2.102387 1_455
F10 Mn1 2.184649 1_554
F11 Li1 1.899713 1_555
F11 Mn2 2.061053 1_555
F11 Mn5 2.226882 1_555
F12 Li2 1.899713 1_555
F12 Mn5 2.061053 1_555
F12 Mn2 2.226882 1_555
F13 Li2 1.934260 1_555
F13 Mn4 2.102387 1_655
F13 Mn6 2.184649 1_556
F14 Li3 1.914148 1_555
F14 Mn4 2.060122 1_555
F14 Mn2 2.163115 1_555
F15 Li2 1.917124 1_555
F15 Mn7 2.090372 1_556
F15 Mn4 2.123448 1_555
F16 Mn6 2.225299 1_555
F16 Mn5 2.243039 1_555
F16 Mn3 2.319690 1_555
F16 Mn7 2.320051 1_555
F17 Li3 1.907790 1_655
F17 Mn5 2.126847 1_555
F17 Mn6 2.161450 1_555
F18 Mn4 2.229727 1_554
F18 Mn6 2.261626 1_455
F18 Mn3 2.289869 1_455
F18 Mn7 2.323309 1_555
F19 Li3 1.910653 1_555
F19 Mn7 2.077045 1_555
F19 Mn5 2.149497 1_555
