# generated using pymatgen
data_Fe5O7F3
_symmetry_space_group_name_H-M   'P 1'
_cell_length_a   4.65506600
_cell_length_b   4.66337849
_cell_length_c   15.20651034
_cell_angle_alpha   90.00352757
_cell_angle_beta   90.03151803
_cell_angle_gamma   91.48227690
_symmetry_Int_Tables_number   1
_chemical_formula_structural   Fe5O7F3
_chemical_formula_sum   'Fe10 O14 F6'
_cell_volume   329.99750171
_cell_formula_units_Z   2
loop_
 _symmetry_equiv_pos_site_id
 _symmetry_equiv_pos_as_xyz
  1  'x, y, z'
loop_
 _atom_site_type_symbol
 _atom_site_label
 _atom_site_symmetry_multiplicity
 _atom_site_fract_x
 _atom_site_fract_y
 _atom_site_fract_z
 _atom_site_occupancy
  Fe  Fe0  1  0.00000000  0.00000000  0.00000000  1
  Fe  Fe1  1  0.97974000  0.01239700  0.79986800  1
  Fe  Fe2  1  0.01645800  0.03237500  0.59472800  1
  Fe  Fe3  1  0.98354200  0.96762500  0.40527200  1
  Fe  Fe4  1  0.02026000  0.98760300  0.20013200  1
  Fe  Fe5  1  0.52028600  0.47875600  0.90130400  1
  Fe  Fe6  1  0.50000000  0.50000000  0.50000000  1
  Fe  Fe7  1  0.51338900  0.47000100  0.70650900  1
  Fe  Fe8  1  0.48661100  0.52999900  0.29349100  1
  Fe  Fe9  1  0.47971400  0.52124400  0.09869600  1
  O  O0  1  0.20039000  0.80113600  0.50216400  1
  O  O1  1  0.17891700  0.80777800  0.30199300  1
  O  O2  1  0.18625300  0.81958800  0.09567400  1
  O  O3  1  0.69369800  0.69242800  0.99980600  1
  O  O4  1  0.69959900  0.68597900  0.80302200  1
  O  O5  1  0.67554600  0.68212900  0.39975100  1
  O  O6  1  0.69141400  0.70587500  0.19498600  1
  O  O7  1  0.30630200  0.30757200  0.00019400  1
  O  O8  1  0.30858600  0.29412500  0.80501400  1
  O  O9  1  0.32445400  0.31787100  0.60024900  1
  O  O10  1  0.30040100  0.31402100  0.19697800  1
  O  O11  1  0.81374700  0.18041200  0.90432600  1
  O  O12  1  0.79961000  0.19886400  0.49783600  1
  O  O13  1  0.82108300  0.19222200  0.69800700  1
  F  F0  1  0.19955200  0.79691700  0.89859700  1
  F  F1  1  0.20677800  0.80256600  0.70006800  1
  F  F2  1  0.70968700  0.70301500  0.60392000  1
  F  F3  1  0.29031300  0.29698500  0.39608000  1
  F  F4  1  0.80044800  0.20308300  0.10140300  1
  F  F5  1  0.79322200  0.19743400  0.29993200  1
loop_
_geom_bond_atom_site_label_1
_geom_bond_atom_site_label_2
_geom_bond_distance
_geom_bond_site_symmetry_2
Fe0 O2 1.900710 1_545
Fe0 O11 1.900710 1_454
Fe0 O3 1.996134 1_444
Fe0 O7 1.996134 1_555
Fe1 O13 1.918045 1_555
Fe1 O11 1.940784 1_555
Fe1 O4 1.979246 1_545
Fe1 O8 1.992827 1_655
Fe2 O9 1.932957 1_555
Fe2 O12 1.957472 1_455
Fe2 O13 1.971252 1_455
Fe2 O0 1.981446 1_545
Fe3 O5 1.932957 1_555
Fe3 O0 1.957472 1_655
Fe3 O1 1.971252 1_655
Fe3 O12 1.981446 1_565
Fe4 O1 1.918045 1_555
Fe4 O2 1.940784 1_555
Fe4 O10 1.979246 1_565
Fe4 O6 1.992827 1_455
Fe5 O8 1.952137 1_555
Fe5 O4 1.955511 1_555
Fe5 O3 1.960871 1_555
Fe5 O7 1.962523 1_556
Fe5 O11 1.975410 1_555
Fe6 O5 1.917990 1_555
Fe6 O9 1.917990 1_555
Fe6 O12 2.004931 1_555
Fe6 O0 2.004931 1_555
Fe7 O8 1.945927 1_555
Fe7 O13 1.960231 1_555
Fe7 O9 1.963110 1_555
Fe7 O4 1.967989 1_555
Fe8 O6 1.945927 1_555
Fe8 O1 1.960231 1_555
Fe8 O5 1.963110 1_555
Fe8 O10 1.967989 1_555
Fe9 O6 1.952137 1_555
Fe9 O10 1.955511 1_555
Fe9 O7 1.960871 1_555
Fe9 O3 1.962523 1_554
Fe9 O2 1.975410 1_555
F0 Fe0 2.045592 1_566
F0 Fe1 2.088644 1_465
F0 Fe5 2.132319 1_555
F1 Fe1 2.105402 1_465
F1 Fe2 2.132400 1_565
F1 Fe7 2.136905 1_555
F2 Fe6 2.072830 1_555
F2 Fe2 2.074774 1_665
F2 Fe7 2.097578 1_555
F3 Fe6 2.072830 1_555
F3 Fe3 2.074774 1_445
F3 Fe8 2.097578 1_555
F4 Fe0 2.045592 1_655
F4 Fe4 2.088644 1_645
F4 Fe9 2.132319 1_555
F5 Fe4 2.105402 1_645
F5 Fe3 2.132400 1_545
F5 Fe8 2.136905 1_555
