# generated using pymatgen
data_Li6FeCo3(PO4)6
_symmetry_space_group_name_H-M   'P 1'
_cell_length_a   8.43590600
_cell_length_b   8.50531753
_cell_length_c   8.50614781
_cell_angle_alpha   62.16938990
_cell_angle_beta   62.26737444
_cell_angle_gamma   62.32957915
_symmetry_Int_Tables_number   1
_chemical_formula_structural   Li6FeCo3(PO4)6
_chemical_formula_sum   'Li6 Fe1 Co3 P6 O24'
_cell_volume   453.28836729
_cell_formula_units_Z   1
loop_
 _symmetry_equiv_pos_site_id
 _symmetry_equiv_pos_as_xyz
  1  'x, y, z'
loop_
 _atom_site_type_symbol
 _atom_site_label
 _atom_site_symmetry_multiplicity
 _atom_site_fract_x
 _atom_site_fract_y
 _atom_site_fract_z
 _atom_site_occupancy
  Li  Li0  1  0.97889400  0.00382000  0.99587600  1
  Li  Li1  1  0.25170800  0.64909300  0.84934400  1
  Li  Li2  1  0.51976800  0.50528000  0.49329500  1
  Li  Li3  1  0.73629400  0.34941600  0.15420400  1
  Li  Li4  1  0.34584200  0.15788800  0.73162900  1
  Li  Li5  1  0.15875900  0.73684800  0.34730500  1
  Fe  Fe0  1  0.14601500  0.14787600  0.14672700  1
  Co  Co0  1  0.85516700  0.86168100  0.85361800  1
  Co  Co1  1  0.64485000  0.64773600  0.63642100  1
  Co  Co2  1  0.35184200  0.35136200  0.35022900  1
  P  P0  1  0.95022600  0.55219900  0.24902400  1
  P  P1  1  0.55174100  0.25190300  0.94894700  1
  P  P2  1  0.24942600  0.95258300  0.54901100  1
  P  P3  1  0.74951500  0.04249200  0.45789800  1
  P  P4  1  0.45655000  0.74918100  0.03868900  1
  P  P5  1  0.04439800  0.46164200  0.75019100  1
  O  O0  1  0.87203100  0.50811300  0.70076100  1
  O  O1  1  0.68633300  0.88170200  0.49798300  1
  O  O2  1  0.95326300  0.73491100  0.08024900  1
  O  O3  1  0.47044900  0.69674900  0.88152900  1
  O  O4  1  0.76008100  0.56996500  0.40670900  1
  O  O5  1  0.98642100  0.38786900  0.19092100  1
  O  O6  1  0.74193900  0.09518100  0.92873300  1
  O  O7  1  0.54525900  0.42246600  0.76737500  1
  O  O8  1  0.40472700  0.75863000  0.56722400  1
  O  O9  1  0.81637300  0.00248200  0.61550900  1
  O  O10  1  0.90468000  0.06602500  0.26122300  1
  O  O11  1  0.62626800  0.80441400  0.98965300  1
  O  O12  1  0.38750900  0.18803600  0.99144300  1
  O  O13  1  0.09415300  0.93140000  0.74342200  1
  O  O14  1  0.18574400  0.99148200  0.38832600  1
  O  O15  1  0.58845600  0.23480200  0.44255000  1
  O  O16  1  0.44609100  0.58687700  0.23062000  1
  O  O17  1  0.26254200  0.90730500  0.07190300  1
  O  O18  1  0.02879700  0.61680900  0.80678700  1
  O  O19  1  0.23472000  0.43836000  0.58581700  1
  O  O20  1  0.52125200  0.30975400  0.11303100  1
  O  O21  1  0.06515900  0.26566800  0.90719600  1
  O  O22  1  0.31295500  0.11199800  0.51734000  1
  O  O23  1  0.11380600  0.51700200  0.31229200  1
loop_
_geom_bond_atom_site_label_1
_geom_bond_atom_site_label_2
_geom_bond_distance
_geom_bond_site_symmetry_2
Li0 O6 2.032541 1_555
Li0 O2 2.138955 1_546
Li0 O13 2.161416 1_645
Li0 O10 2.293147 1_556
Li0 O21 2.341865 1_655
Li0 O17 2.436775 1_646
Li1 O8 2.107007 1_555
Li1 O13 2.115224 1_555
Li1 O3 2.216471 1_555
Li1 O18 2.224516 1_555
Li1 O7 2.355540 1_555
Li1 O2 2.399728 1_456
Li2 O4 2.054952 1_555
Li2 O8 2.176132 1_555
Li2 O7 2.184093 1_555
Li2 O15 2.295804 1_555
Li2 O16 2.303096 1_555
Li2 O19 2.411895 1_555
Li3 O15 2.138046 1_555
Li3 O10 2.151961 1_555
Li3 O20 2.190273 1_555
Li3 O16 2.376443 1_555
Li3 O5 2.450810 1_555
Li3 O21 2.599152 1_654
Li4 O19 2.085727 1_555
Li4 O21 2.156017 1_555
Li4 O22 2.187995 1_555
Li4 O15 2.391846 1_555
Li4 O12 2.531658 1_555
Li5 O17 2.110713 1_555
Li5 O16 2.135167 1_555
Li5 O23 2.238874 1_555
Li5 O19 2.421092 1_555
Li5 O14 2.470111 1_555
Li5 O10 2.634744 1_465
Fe0 O12 1.931906 1_554
Fe0 O14 1.944114 1_545
Fe0 O5 1.952824 1_455
Fe0 O17 2.079336 1_545
Fe0 O21 2.091195 1_554
Fe0 O10 2.101405 1_455
Co0 O11 1.890131 1_555
Co0 O9 1.905674 1_565
Co0 O18 2.010005 1_655
Co0 O6 2.029713 1_565
Co0 O13 2.031583 1_655
Co0 O2 2.068535 1_556
Co1 O1 1.882634 1_555
Co1 O0 1.907406 1_555
Co1 O4 2.010549 1_555
Co1 O3 2.017997 1_555
Co1 O8 2.038664 1_555
Co1 O7 2.061296 1_555
Co2 O23 1.916322 1_555
Co2 O20 1.936973 1_555
Co2 O22 1.938333 1_555
Co2 O19 2.098167 1_555
Co2 O15 2.116079 1_555
Co2 O16 2.122078 1_555
O0 P5 1.525576 1_655
O1 P3 1.530703 1_565
O2 P0 1.547996 1_555
O3 P4 1.536855 1_556
O4 P0 1.535125 1_555
O5 P0 1.548929 1_555
O6 P1 1.533498 1_555
O7 P1 1.551059 1_555
O8 P2 1.550704 1_555
O9 P3 1.526688 1_555
O10 P3 1.563591 1_555
O11 P4 1.526574 1_556
O12 P1 1.547495 1_555
O13 P2 1.551744 1_555
O14 P2 1.536978 1_555
O15 P3 1.562079 1_555
O16 P4 1.566369 1_555
O17 P4 1.564370 1_555
O18 P5 1.537450 1_555
O19 P5 1.563929 1_555
O20 P1 1.563934 1_554
O21 P5 1.568629 1_555
O22 P2 1.548433 1_545
O23 P0 1.562228 1_455
