# generated using pymatgen
data_Li4MnCr5O12
_symmetry_space_group_name_H-M   'P 1'
_cell_length_a   5.11986113
_cell_length_b   5.11986113
_cell_length_c   10.10318688
_cell_angle_alpha   89.92789025
_cell_angle_beta   89.92789025
_cell_angle_gamma   119.86759626
_symmetry_Int_Tables_number   1
_chemical_formula_structural   Li4MnCr5O12
_chemical_formula_sum   'Li4 Mn1 Cr5 O12'
_cell_volume   229.65816844
_cell_formula_units_Z   1
loop_
 _symmetry_equiv_pos_site_id
 _symmetry_equiv_pos_as_xyz
  1  'x, y, z'
loop_
 _atom_site_type_symbol
 _atom_site_label
 _atom_site_symmetry_multiplicity
 _atom_site_fract_x
 _atom_site_fract_y
 _atom_site_fract_z
 _atom_site_occupancy
  Li  Li0  1  0.84774300  0.34715600  0.25070000  1
  Li  Li1  1  0.65284400  0.15225700  0.74930000  1
  Li  Li2  1  0.34715600  0.84774300  0.25070000  1
  Li  Li3  1  0.15225700  0.65284400  0.74930000  1
  Mn  Mn0  1  0.00000000  0.00000000  0.00000000  1
  Cr  Cr0  1  0.83486700  0.16513300  0.50000000  1
  Cr  Cr1  1  0.33656900  0.66343100  0.00000000  1
  Cr  Cr2  1  0.66343100  0.33656900  0.00000000  1
  Cr  Cr3  1  0.16513300  0.83486700  0.50000000  1
  Cr  Cr4  1  0.50000000  0.50000000  0.50000000  1
  O  O0  1  0.99443100  0.32729100  0.89488000  1
  O  O1  1  0.67270900  0.00556900  0.10512000  1
  O  O2  1  0.83558800  0.49217800  0.60684800  1
  O  O3  1  0.49217800  0.83558800  0.60684800  1
  O  O4  1  0.50782200  0.16441200  0.39315200  1
  O  O5  1  0.83090700  0.83090700  0.40540300  1
  O  O6  1  0.16441200  0.50782200  0.39315200  1
  O  O7  1  0.32729100  0.99443100  0.89488000  1
  O  O8  1  0.67905800  0.67905800  0.90130900  1
  O  O9  1  0.00556900  0.67270900  0.10512000  1
  O  O10  1  0.32094200  0.32094200  0.09869100  1
  O  O11  1  0.16909300  0.16909300  0.59459700  1
loop_
_geom_bond_atom_site_label_1
_geom_bond_atom_site_label_2
_geom_bond_distance
_geom_bond_site_symmetry_2
Li0 O6 2.014238 1_655
Li0 O9 2.060054 1_655
Li0 O4 2.084244 1_555
Li0 O1 2.115133 1_555
Li1 O3 2.014238 1_545
Li1 O7 2.060054 1_545
Li1 O2 2.084244 1_555
Li1 O0 2.115133 1_555
Li2 O4 2.014238 1_565
Li2 O1 2.060054 1_565
Li2 O6 2.084244 1_555
Li2 O9 2.115133 1_555
Li3 O2 2.014238 1_455
Li3 O0 2.060054 1_455
Li3 O3 2.084244 1_555
Li3 O7 2.115133 1_555
Mn0 O10 1.926991 1_555
Mn0 O8 1.926991 1_444
Mn0 O0 1.994958 1_454
Mn0 O7 1.994958 1_544
Mn0 O1 1.994958 1_455
Mn0 O9 1.994958 1_545
Cr0 O11 1.952336 1_655
Cr0 O5 1.952336 1_545
Cr0 O2 1.991845 1_555
Cr0 O4 1.991845 1_555
Cr0 O3 2.032888 1_545
Cr0 O6 2.032888 1_655
Cr1 O10 1.982678 1_555
Cr1 O8 1.982678 1_554
Cr1 O7 2.019380 1_554
Cr1 O9 2.019380 1_555
Cr1 O0 2.040809 1_454
Cr1 O1 2.040809 1_565
Cr2 O10 1.982678 1_555
Cr2 O8 1.982678 1_554
Cr2 O0 2.019380 1_554
Cr2 O1 2.019380 1_555
Cr2 O7 2.040809 1_544
Cr2 O9 2.040809 1_655
Cr3 O11 1.952336 1_565
Cr3 O5 1.952336 1_455
Cr3 O3 1.991845 1_555
Cr3 O6 1.991845 1_555
Cr3 O2 2.032888 1_455
Cr3 O4 2.032888 1_565
Cr4 O11 1.946040 1_555
Cr4 O5 1.946040 1_555
Cr4 O3 2.047466 1_555
Cr4 O2 2.047466 1_555
Cr4 O4 2.047466 1_555
Cr4 O6 2.047466 1_555
