# generated using pymatgen
data_Li7Sc9Fe(SiO3)20
_symmetry_space_group_name_H-M   'P 1'
_cell_length_a   11.17835305
_cell_length_b   11.17835305
_cell_length_c   12.90077026
_cell_angle_alpha   75.28565241
_cell_angle_beta   75.28565241
_cell_angle_gamma   47.75604242
_symmetry_Int_Tables_number   1
_chemical_formula_structural   Li7Sc9Fe(SiO3)20
_chemical_formula_sum   'Li7 Sc9 Fe1 Si20 O60'
_cell_volume   1146.39962782
_cell_formula_units_Z   1
loop_
 _symmetry_equiv_pos_site_id
 _symmetry_equiv_pos_as_xyz
  1  'x, y, z'
loop_
 _atom_site_type_symbol
 _atom_site_label
 _atom_site_symmetry_multiplicity
 _atom_site_fract_x
 _atom_site_fract_y
 _atom_site_fract_z
 _atom_site_occupancy
  Li  Li0  1  0.69929300  0.10108100  0.89995800  1
  Li  Li1  1  0.09947300  0.50098400  0.79924000  1
  Li  Li2  1  0.49973300  0.89903900  0.69954600  1
  Li  Li3  1  0.30347600  0.69652400  0.50000000  1
  Li  Li4  1  0.10096100  0.50026700  0.30045400  1
  Li  Li5  1  0.49901600  0.90052700  0.20076000  1
  Li  Li6  1  0.89891900  0.30070700  0.10004200  1
  Sc  Sc0  1  0.06316300  0.74242700  0.90038700  1
  Sc  Sc1  1  0.74636400  0.85469700  0.79935000  1
  Sc  Sc2  1  0.85812500  0.53791400  0.69791100  1
  Sc  Sc3  1  0.55016700  0.64684900  0.59936900  1
  Sc  Sc4  1  0.35315100  0.44983300  0.40063100  1
  Sc  Sc5  1  0.46208600  0.14187500  0.30208900  1
  Sc  Sc6  1  0.14530300  0.25363600  0.20065000  1
  Sc  Sc7  1  0.25757300  0.93683700  0.09961300  1
  Sc  Sc8  1  0.94769300  0.05230700  0.00000000  1
  Fe  Fe0  1  0.65888200  0.34111800  0.50000000  1
  Si  Si0  1  0.59966100  0.67228400  0.93155600  1
  Si  Si1  1  0.12946000  0.20060000  0.86717900  1
  Si  Si2  1  0.40039200  0.46926400  0.73233600  1
  Si  Si3  1  0.66907400  0.40077100  0.83431400  1
  Si  Si4  1  0.19624300  0.93400900  0.76371600  1
  Si  Si5  1  0.47718200  0.19816900  0.63215100  1
  Si  Si6  1  0.00087900  0.72783400  0.56594000  1
  Si  Si7  1  0.92454800  0.00451100  0.66443800  1
  Si  Si8  1  0.20305800  0.27160700  0.53035800  1
  Si  Si9  1  0.72839300  0.79694200  0.46964200  1
  Si  Si10  1  0.27216600  0.99912100  0.43406000  1
  Si  Si11  1  0.80183100  0.52281800  0.36784900  1
  Si  Si12  1  0.06599100  0.80375700  0.23628400  1
  Si  Si13  1  0.99548900  0.07545200  0.33556200  1
  Si  Si14  1  0.53073600  0.59960800  0.26766400  1
  Si  Si15  1  0.79940000  0.87054000  0.13282100  1
  Si  Si16  1  0.32771600  0.40033900  0.06844400  1
  Si  Si17  1  0.59922900  0.33092600  0.16568600  1
  Si  Si18  1  0.87431800  0.59773900  0.03163400  1
  Si  Si19  1  0.40226100  0.12568200  0.96836600  1
  O  O0  1  0.59206000  0.99327400  0.92191800  1
  O  O1  1  0.93052100  0.66007100  0.91439100  1
  O  O2  1  0.28703700  0.17773200  0.87955900  1
  O  O3  1  0.86882200  0.94310100  0.78277300  1
  O  O4  1  0.21081800  0.60656700  0.77643100  1
  O  O5  1  0.62515000  0.51215100  0.92313000  1
  O  O6  1  0.99623200  0.39036800  0.82129400  1
  O  O7  1  0.66219200  0.72742800  0.81376700  1
  O  O8  1  0.42229300  0.31035400  0.72491000  1
  O  O9  1  0.12814700  0.88383300  0.87973900  1
  O  O10  1  0.80329800  0.21104900  0.87989800  1
  O  O11  1  0.18179700  0.08611300  0.77753500  1
  O  O12  1  0.94111300  0.67086000  0.68423400  1
  O  O13  1  0.60783700  0.00768900  0.67754800  1
  O  O14  1  0.51381800  0.42031500  0.82112400  1
  O  O15  1  0.97896600  0.88566800  0.57733600  1
  O  O16  1  0.38534800  0.79669600  0.71749500  1
  O  O17  1  0.71959600  0.46882100  0.71854000  1
  O  O18  1  0.31972900  0.22253600  0.61699200  1
  O  O19  1  0.19143800  0.59614900  0.52016900  1
  O  O20  1  0.52591800  0.27055700  0.51743900  1
  O  O21  1  0.08137700  0.98326800  0.67513500  1
  O  O22  1  0.67181600  0.73652300  0.58762100  1
  O  O23  1  0.01635500  0.41489200  0.57400200  1
  O  O24  1  0.88846100  0.77114400  0.47858100  1
  O  O25  1  0.77975400  0.19231000  0.62006900  1
  O  O26  1  0.46244600  0.52428600  0.61420000  1
  O  O27  1  0.22885600  0.11153900  0.52141900  1
  O  O28  1  0.58510800  0.98364500  0.42599800  1
  O  O29  1  0.26347700  0.32818400  0.41237900  1
  O  O30  1  0.72944300  0.47408200  0.48256100  1
  O  O31  1  0.40385100  0.80856200  0.47983100  1
  O  O32  1  0.77746400  0.68027100  0.38300800  1
  O  O33  1  0.53117900  0.28040400  0.28146000  1
  O  O34  1  0.20330400  0.61465200  0.28250500  1
  O  O35  1  0.11433200  0.02103400  0.42266400  1
  O  O36  1  0.99231100  0.39216300  0.32245200  1
  O  O37  1  0.32914000  0.05888700  0.31576600  1
  O  O38  1  0.47571400  0.53755400  0.38580000  1
  O  O39  1  0.91388700  0.81820300  0.22246500  1
  O  O40  1  0.80769000  0.22024600  0.37993100  1
  O  O41  1  0.68964600  0.57770700  0.27509000  1
  O  O42  1  0.27257200  0.33780800  0.18623300  1
  O  O43  1  0.60963200  0.00376800  0.17870600  1
  O  O44  1  0.01673200  0.91862300  0.32486500  1
  O  O45  1  0.48784900  0.37485000  0.07687000  1
  O  O46  1  0.39343300  0.78918200  0.22356900  1
  O  O47  1  0.05689900  0.13117800  0.21722700  1
  O  O48  1  0.82226800  0.71296300  0.12044100  1
  O  O49  1  0.18295900  0.58661800  0.02535500  1
  O  O50  1  0.57968500  0.48618200  0.17887600  1
  O  O51  1  0.85977100  0.92854200  0.01561800  1
  O  O52  1  0.33992900  0.06947900  0.08560900  1
  O  O53  1  0.00672600  0.40794000  0.07808200  1
  O  O54  1  0.37920500  0.28390100  0.98010800  1
  O  O55  1  0.78895100  0.19670200  0.12010200  1
  O  O56  1  0.11616700  0.87185300  0.12026100  1
  O  O57  1  0.71609900  0.62079500  0.01989200  1
  O  O58  1  0.07145800  0.14022900  0.98438200  1
  O  O59  1  0.41338200  0.81704100  0.97464500  1
loop_
_geom_bond_atom_site_label_1
_geom_bond_atom_site_label_2
_geom_bond_distance
_geom_bond_site_symmetry_2
Li0 O3 2.096763 1_545
Li0 O51 2.100006 1_546
Li0 O10 2.129989 1_555
Li0 O0 2.136761 1_545
Li1 O12 2.079427 1_455
Li1 O1 2.082556 1_455
Li1 O6 2.124844 1_455
Li1 O4 2.154397 1_555
Li2 O22 2.075643 1_555
Li2 O7 2.094879 1_555
Li2 O13 2.154063 1_565
Li2 O16 2.163142 1_555
Li3 O38 2.079412 1_555
Li3 O26 2.079412 1_555
Li3 O19 2.114412 1_555
Li3 O31 2.114412 1_555
Li4 O29 2.075643 1_555
Li4 O42 2.094879 1_555
Li4 O36 2.154063 1_455
Li4 O34 2.163142 1_555
Li5 O37 2.079427 1_565
Li5 O52 2.082556 1_565
Li5 O43 2.124844 1_565
Li5 O46 2.154397 1_555
Li6 O47 2.096763 1_655
Li6 O58 2.100006 1_654
Li6 O55 2.129989 1_555
Li6 O53 2.136761 1_655
Fe0 O25 1.929826 1_555
Fe0 O40 1.929826 1_555
Fe0 O30 2.048947 1_555
Fe0 O20 2.048947 1_555
Fe0 O26 2.242386 1_555
Fe0 O38 2.242386 1_555
O0 Si19 1.622816 1_565
O0 Sc1 2.034992 1_555
O1 Si18 1.654815 1_556
O1 Sc0 2.166422 1_655
O1 Sc1 2.250214 1_555
O2 Si1 1.646301 1_555
O2 Si19 1.647256 1_555
O3 Si7 1.658107 1_565
O3 Sc1 2.111615 1_555
O3 Sc0 2.333808 1_655
O4 Si2 1.621082 1_555
O4 Sc0 2.027414 1_555
O5 Si0 1.641502 1_555
O5 Si3 1.649547 1_555
O6 Si1 1.621851 1_655
O6 Sc2 2.031822 1_555
O7 Si0 1.655770 1_555
O7 Sc1 2.126115 1_555
O7 Sc2 2.285970 1_555
O8 Si2 1.647526 1_555
O8 Si5 1.654046 1_555
O9 Si4 1.644135 1_555
O9 Sc0 2.080600 1_555
O9 Sc8 2.193008 1_466
O10 Si3 1.622015 1_555
O10 Sc8 2.043869 1_556
O11 Si4 1.648930 1_545
O11 Si1 1.648931 1_555
O12 Si6 1.655690 1_655
O12 Sc2 2.176594 1_555
O12 Sc1 2.249550 1_555
O13 Si5 1.621567 1_555
O13 Sc1 2.025316 1_545
O14 Si2 1.644868 1_555
O14 Si3 1.646207 1_555
O15 Si7 1.649863 1_565
O15 Si6 1.651314 1_655
O16 Si4 1.625422 1_555
O16 Sc3 2.059969 1_555
O17 Si3 1.643266 1_555
O17 Sc2 2.087970 1_555
O17 Sc3 2.183593 1_555
O18 Si5 1.647257 1_555
O18 Si8 1.648656 1_555
O19 Si6 1.624659 1_555
O19 Sc4 2.052019 1_555
O20 Si5 1.648163 1_555
O20 Sc4 2.181061 1_555
O21 Si7 1.641728 1_465
O21 Si4 1.653146 1_555
O22 Si9 1.654025 1_555
O22 Sc3 2.127881 1_555
O22 Sc2 2.230342 1_555
O23 Si8 1.613904 1_555
O23 Sc2 1.996194 1_455
O24 Si9 1.640785 1_555
O24 Si6 1.645579 1_655
O25 Si7 1.626638 1_555
O26 Si2 1.656078 1_555
O26 Sc3 2.110230 1_555
O27 Si8 1.640785 1_555
O27 Si10 1.645579 1_545
O28 Si9 1.613904 1_555
O28 Sc5 1.996194 1_565
O29 Si8 1.654025 1_555
O29 Sc4 2.127881 1_555
O29 Sc5 2.230342 1_555
O30 Si11 1.648163 1_555
O30 Sc3 2.181061 1_555
O31 Si10 1.624659 1_555
O31 Sc3 2.052019 1_555
O32 Si11 1.647257 1_555
O32 Si9 1.648656 1_555
O33 Si17 1.643266 1_555
O33 Sc5 2.087970 1_555
O33 Sc4 2.183593 1_555
O34 Si12 1.625422 1_555
O34 Sc4 2.059969 1_555
O35 Si13 1.649863 1_455
O35 Si10 1.651314 1_545
O36 Si11 1.621567 1_555
O36 Sc6 2.025316 1_655
O37 Si10 1.655690 1_545
O37 Sc5 2.176594 1_555
O37 Sc6 2.249550 1_555
O38 Si14 1.656078 1_555
O38 Sc4 2.110230 1_555
O39 Si12 1.648930 1_655
O39 Si15 1.648931 1_555
O40 Si13 1.626638 1_555
O41 Si14 1.647526 1_555
O41 Si11 1.654046 1_555
O42 Si16 1.655770 1_555
O42 Sc6 2.126115 1_555
O42 Sc5 2.285970 1_555
O43 Si15 1.621851 1_545
O43 Sc5 2.031822 1_555
O44 Si13 1.641728 1_465
O44 Si12 1.653146 1_555
O45 Si16 1.641502 1_555
O45 Si17 1.649547 1_555
O46 Si14 1.621082 1_555
O46 Sc7 2.027414 1_555
O47 Si13 1.658107 1_455
O47 Sc6 2.111615 1_555
O47 Sc7 2.333808 1_545
O48 Si15 1.646301 1_555
O48 Si18 1.647256 1_555
O49 Si16 1.613004 1_555
O49 Sc0 1.990015 1_554
O50 Si14 1.644868 1_555
O50 Si17 1.646207 1_555
O51 Si15 1.653459 1_555
O51 Sc8 2.122883 1_565
O51 Sc0 2.280692 1_654
O52 Si19 1.654815 1_554
O52 Sc7 2.166422 1_545
O52 Sc6 2.250214 1_555
O53 Si18 1.622816 1_455
O53 Sc6 2.034992 1_555
O54 Si19 1.649482 1_555
O54 Si16 1.654423 1_556
O55 Si17 1.622015 1_555
O55 Sc8 2.043869 1_555
O56 Si12 1.644135 1_555
O56 Sc7 2.080600 1_555
O56 Sc8 2.193008 1_465
O57 Si18 1.649482 1_555
O57 Si0 1.654423 1_554
O58 Si1 1.653459 1_555
O58 Sc8 2.122883 1_456
O58 Sc7 2.280692 1_546
O59 Si0 1.613004 1_555
O59 Sc7 1.990015 1_556
