# generated using pymatgen
data_LiFeF3
_symmetry_space_group_name_H-M   'P 1'
_cell_length_a   8.98006800
_cell_length_b   5.67286900
_cell_length_c   10.26738351
_cell_angle_alpha   75.33245017
_cell_angle_beta   90.00000000
_cell_angle_gamma   90.00000000
_symmetry_Int_Tables_number   1
_chemical_formula_structural   LiFeF3
_chemical_formula_sum   'Li8 Fe8 F24'
_cell_volume   506.00327497
_cell_formula_units_Z   8
loop_
 _symmetry_equiv_pos_site_id
 _symmetry_equiv_pos_as_xyz
  1  'x, y, z'
loop_
 _atom_site_type_symbol
 _atom_site_label
 _atom_site_symmetry_multiplicity
 _atom_site_fract_x
 _atom_site_fract_y
 _atom_site_fract_z
 _atom_site_occupancy
  Li  Li0  1  0.16709100  0.23794500  0.95686500  1
  Li  Li1  1  0.33290900  0.73794500  0.95686500  1
  Li  Li2  1  0.33053700  0.14583000  0.56218100  1
  Li  Li3  1  0.16946300  0.64583000  0.56218100  1
  Li  Li4  1  0.83053700  0.35417000  0.43781900  1
  Li  Li5  1  0.66946300  0.85417000  0.43781900  1
  Li  Li6  1  0.66709100  0.26205500  0.04313500  1
  Li  Li7  1  0.83290900  0.76205500  0.04313500  1
  Fe  Fe0  1  0.03312400  0.06212200  0.74184000  1
  Fe  Fe1  1  0.65487400  0.05969800  0.74244000  1
  Fe  Fe2  1  0.46687600  0.56212200  0.74184000  1
  Fe  Fe3  1  0.84512600  0.55969800  0.74244000  1
  Fe  Fe4  1  0.15487400  0.44030200  0.25756000  1
  Fe  Fe5  1  0.53312400  0.43787800  0.25816000  1
  Fe  Fe6  1  0.34512600  0.94030200  0.25756000  1
  Fe  Fe7  1  0.96687600  0.93787800  0.25816000  1
  F  F0  1  0.18045600  0.95458100  0.89102700  1
  F  F1  1  0.99010200  0.33398700  0.85480200  1
  F  F2  1  0.65719800  0.34483200  0.84822400  1
  F  F3  1  0.31954400  0.45458100  0.89102700  1
  F  F4  1  0.50989800  0.83398700  0.85480200  1
  F  F5  1  0.84280200  0.84483200  0.84822400  1
  F  F6  1  0.48544700  0.28435400  0.64346300  1
  F  F7  1  0.83082000  0.25930900  0.63705800  1
  F  F8  1  0.15672900  0.30223800  0.60314200  1
  F  F9  1  0.01455300  0.78435400  0.64346300  1
  F  F10  1  0.66918000  0.75930900  0.63705800  1
  F  F11  1  0.34327100  0.80223800  0.60314200  1
  F  F12  1  0.65672900  0.19776200  0.39685800  1
  F  F13  1  0.33082000  0.24069100  0.36294200  1
  F  F14  1  0.98544700  0.21564600  0.35653700  1
  F  F15  1  0.84327100  0.69776200  0.39685800  1
  F  F16  1  0.16918000  0.74069100  0.36294200  1
  F  F17  1  0.51455300  0.71564600  0.35653700  1
  F  F18  1  0.15719800  0.15516800  0.15177600  1
  F  F19  1  0.49010200  0.16601300  0.14519800  1
  F  F20  1  0.68045600  0.54541900  0.10897300  1
  F  F21  1  0.34280200  0.65516800  0.15177600  1
  F  F22  1  0.00989800  0.66601300  0.14519800  1
  F  F23  1  0.81954400  0.04541900  0.10897300  1
loop_
_geom_bond_atom_site_label_1
_geom_bond_atom_site_label_2
_geom_bond_distance
_geom_bond_site_symmetry_2
F0 Li1 1.849547 1_555
F0 Li0 1.898859 1_565
F0 Fe0 1.998924 1_565
F1 Li0 1.905768 1_655
F1 Fe3 1.979215 1_555
F1 Fe0 2.186060 1_655
F2 Li6 1.938402 1_556
F2 Fe1 2.164763 1_555
F2 Fe3 2.200676 1_555
F2 Fe2 2.225246 1_555
F3 Li0 1.849547 1_555
F3 Li1 1.898859 1_555
F3 Fe2 1.998924 1_555
F4 Li1 1.905768 1_555
F4 Fe1 1.979215 1_565
F4 Fe2 2.186060 1_555
F5 Li7 1.938402 1_556
F5 Fe3 2.164763 1_555
F5 Fe1 2.200676 1_565
F5 Fe0 2.225246 1_665
F6 Li2 1.892430 1_555
F6 Fe1 2.077479 1_555
F6 Fe2 2.082558 1_555
F7 Li4 1.979102 1_555
F7 Fe1 2.080606 1_555
F7 Fe3 2.241608 1_555
F7 Fe0 2.258249 1_655
F8 Li3 1.890506 1_555
F8 Li2 1.894528 1_555
F8 Fe0 2.033007 1_555
F9 Li3 1.892430 1_555
F9 Fe3 2.077479 1_455
F9 Fe0 2.082558 1_565
F10 Li5 1.979102 1_555
F10 Fe3 2.080606 1_555
F10 Fe1 2.241608 1_565
F10 Fe2 2.258249 1_555
F11 Li2 1.890506 1_565
F11 Li3 1.894528 1_555
F11 Fe2 2.033007 1_555
F12 Li5 1.890506 1_545
F12 Li4 1.894528 1_555
F12 Fe5 2.033007 1_555
F13 Li2 1.979102 1_555
F13 Fe4 2.080606 1_555
F13 Fe6 2.241608 1_545
F13 Fe5 2.258249 1_555
F14 Li4 1.892430 1_555
F14 Fe4 2.077479 1_655
F14 Fe7 2.082558 1_545
F15 Li4 1.890506 1_555
F15 Li5 1.894528 1_555
F15 Fe7 2.033007 1_555
F16 Li3 1.979102 1_555
F16 Fe6 2.080606 1_555
F16 Fe4 2.241608 1_555
F16 Fe7 2.258249 1_455
F17 Li5 1.892430 1_555
F17 Fe6 2.077479 1_555
F17 Fe5 2.082558 1_555
F18 Li0 1.938402 1_554
F18 Fe4 2.164763 1_555
F18 Fe6 2.200676 1_545
F18 Fe7 2.225246 1_445
F19 Li6 1.905768 1_555
F19 Fe6 1.979215 1_545
F19 Fe5 2.186060 1_555
F20 Li7 1.849547 1_555
F20 Li6 1.898859 1_555
F20 Fe5 1.998924 1_555
F21 Li1 1.938402 1_554
F21 Fe6 2.164763 1_555
F21 Fe4 2.200676 1_555
F21 Fe5 2.225246 1_555
F22 Li7 1.905768 1_455
F22 Fe4 1.979215 1_555
F22 Fe7 2.186060 1_455
F23 Li6 1.849547 1_555
F23 Li7 1.898859 1_545
F23 Fe7 1.998924 1_545
