# generated using pymatgen
data_Li4Cr3CoO8
_symmetry_space_group_name_H-M   'P 1'
_cell_length_a   5.10198500
_cell_length_b   7.75050167
_cell_length_c   7.75206014
_cell_angle_alpha   81.67775535
_cell_angle_beta   83.74369906
_cell_angle_gamma   71.03310430
_symmetry_Int_Tables_number   1
_chemical_formula_structural   Li4Cr3CoO8
_chemical_formula_sum   'Li8 Cr6 Co2 O16'
_cell_volume   286.21454846
_cell_formula_units_Z   2
loop_
 _symmetry_equiv_pos_site_id
 _symmetry_equiv_pos_as_xyz
  1  'x, y, z'
loop_
 _atom_site_type_symbol
 _atom_site_label
 _atom_site_symmetry_multiplicity
 _atom_site_fract_x
 _atom_site_fract_y
 _atom_site_fract_z
 _atom_site_occupancy
  Li  Li0  1  0.50345000  0.68584100  0.93683300  1
  Li  Li1  1  0.50537300  0.43493600  0.68794200  1
  Li  Li2  1  0.49462700  0.56506400  0.31205800  1
  Li  Li3  1  0.49850300  0.06400700  0.81078100  1
  Li  Li4  1  0.50387900  0.18527600  0.44044100  1
  Li  Li5  1  0.49655000  0.31415900  0.06316700  1
  Li  Li6  1  0.49612100  0.81472400  0.55955900  1
  Li  Li7  1  0.50149700  0.93599300  0.18921900  1
  Cr  Cr0  1  0.00003900  0.37384900  0.87390300  1
  Cr  Cr1  1  0.00000000  0.50000000  0.50000000  1
  Cr  Cr2  1  0.99996100  0.62615100  0.12609700  1
  Cr  Cr3  1  0.99944200  0.24635400  0.25400300  1
  Cr  Cr4  1  0.00055800  0.75364600  0.74599700  1
  Cr  Cr5  1  0.00000000  0.00000000  0.00000000  1
  Co  Co0  1  0.99987700  0.12420400  0.62420400  1
  Co  Co1  1  0.00012300  0.87579600  0.37579600  1
  O  O0  1  0.22693700  0.53717700  0.90602200  1
  O  O1  1  0.77247400  0.59020000  0.71705700  1
  O  O2  1  0.22430800  0.66530800  0.52784700  1
  O  O3  1  0.77606200  0.21174800  0.83806000  1
  O  O4  1  0.22320700  0.28207500  0.65601200  1
  O  O5  1  0.22752600  0.40980000  0.28294300  1
  O  O6  1  0.77569200  0.33469200  0.47215300  1
  O  O7  1  0.22413200  0.91622300  0.77835000  1
  O  O8  1  0.21755300  0.03272000  0.41329300  1
  O  O9  1  0.77306300  0.46282300  0.09397800  1
  O  O10  1  0.78244700  0.96728000  0.58670700  1
  O  O11  1  0.22732900  0.16065500  0.03364100  1
  O  O12  1  0.77586800  0.08377700  0.22165000  1
  O  O13  1  0.22393800  0.78825200  0.16194000  1
  O  O14  1  0.77679300  0.71792500  0.34398800  1
  O  O15  1  0.77267100  0.83934500  0.96635900  1
loop_
_geom_bond_atom_site_label_1
_geom_bond_atom_site_label_2
_geom_bond_distance
_geom_bond_site_symmetry_2
Li0 O1 2.128516 1_555
Li0 O15 2.136389 1_555
Li0 O9 2.138688 1_556
Li0 O0 2.141187 1_555
Li0 O7 2.195672 1_555
Li0 O13 2.198098 1_556
Li1 O3 2.113870 1_555
Li1 O6 2.116808 1_555
Li1 O1 2.137238 1_555
Li1 O0 2.153279 1_555
Li1 O4 2.192856 1_555
Li1 O2 2.206044 1_555
Li2 O13 2.113870 1_555
Li2 O2 2.116808 1_555
Li2 O5 2.137238 1_555
Li2 O9 2.153279 1_555
Li2 O14 2.192856 1_555
Li2 O6 2.206044 1_555
Li3 O4 2.122723 1_555
Li3 O7 2.130027 1_545
Li3 O3 2.133230 1_555
Li3 O15 2.149331 1_545
Li3 O11 2.154049 1_556
Li3 O10 2.191008 1_545
Li4 O10 2.096657 1_545
Li4 O6 2.127287 1_555
Li4 O4 2.132859 1_555
Li4 O12 2.141226 1_555
Li4 O5 2.161498 1_555
Li4 O8 2.199589 1_555
Li5 O5 2.128516 1_555
Li5 O11 2.136389 1_555
Li5 O0 2.138688 1_554
Li5 O9 2.141187 1_555
Li5 O12 2.195672 1_555
Li5 O3 2.198098 1_554
Li6 O8 2.096657 1_565
Li6 O2 2.127287 1_555
Li6 O14 2.132859 1_555
Li6 O7 2.141226 1_555
Li6 O1 2.161498 1_555
Li6 O10 2.199589 1_555
Li7 O14 2.122723 1_555
Li7 O12 2.130027 1_565
Li7 O13 2.133230 1_555
Li7 O11 2.149331 1_565
Li7 O15 2.154049 1_554
Li7 O8 2.191008 1_565
Cr0 O4 2.014347 1_555
Cr0 O3 2.016183 1_455
Cr0 O11 2.020771 1_556
Cr0 O1 2.022388 1_455
Cr0 O0 2.027606 1_555
Cr0 O9 2.029283 1_456
Cr1 O5 2.013657 1_555
Cr1 O1 2.013657 1_455
Cr1 O4 2.017641 1_555
Cr1 O14 2.017641 1_455
Cr1 O6 2.021101 1_455
Cr1 O2 2.021101 1_555
Cr2 O14 2.014347 1_555
Cr2 O13 2.016183 1_655
Cr2 O15 2.020771 1_554
Cr2 O5 2.022388 1_655
Cr2 O9 2.027606 1_555
Cr2 O0 2.029283 1_654
Cr3 O8 2.003643 1_655
Cr3 O6 2.009514 1_555
Cr3 O12 2.009954 1_555
Cr3 O11 2.026008 1_655
Cr3 O5 2.026490 1_655
Cr3 O9 2.034174 1_555
Cr4 O10 2.003643 1_455
Cr4 O2 2.009514 1_555
Cr4 O7 2.009954 1_555
Cr4 O15 2.026008 1_455
Cr4 O1 2.026490 1_455
Cr4 O0 2.034174 1_555
Cr5 O15 2.015521 1_444
Cr5 O11 2.015521 1_555
Cr5 O13 2.017929 1_545
Cr5 O3 2.017929 1_454
Cr5 O7 2.023282 1_544
Cr5 O12 2.023282 1_455
Co0 O8 1.958903 1_655
Co0 O10 1.960612 1_545
Co0 O7 1.968979 1_645
Co0 O6 1.970600 1_555
Co0 O4 1.977648 1_655
Co0 O3 1.980422 1_555
Co1 O10 1.958903 1_455
Co1 O8 1.960612 1_565
Co1 O12 1.968979 1_465
Co1 O2 1.970600 1_555
Co1 O14 1.977648 1_455
Co1 O13 1.980422 1_555
