# generated using pymatgen
data_Cu10Bi25O48
_symmetry_space_group_name_H-M   'P 1'
_cell_length_a   8.51255300
_cell_length_b   8.51254800
_cell_length_c   18.13487300
_cell_angle_alpha   89.99996442
_cell_angle_beta   90.00014355
_cell_angle_gamma   89.99991923
_symmetry_Int_Tables_number   1
_chemical_formula_structural   Cu10Bi25O48
_chemical_formula_sum   'Cu10 Bi25 O48'
_cell_volume   1314.11666006
_cell_formula_units_Z   1
loop_
 _symmetry_equiv_pos_site_id
 _symmetry_equiv_pos_as_xyz
  1  'x, y, z'
loop_
 _atom_site_type_symbol
 _atom_site_label
 _atom_site_symmetry_multiplicity
 _atom_site_fract_x
 _atom_site_fract_y
 _atom_site_fract_z
 _atom_site_occupancy
  Cu  Cu0  1  0.25000000  0.25000200  0.17426800  1
  Cu  Cu1  1  0.25000700  0.25000200  0.52494700  1
  Cu  Cu2  1  0.25000900  0.24999800  0.69210400  1
  Cu  Cu3  1  0.24999800  0.25000300  0.86115300  1
  Cu  Cu4  1  0.75000300  0.75000100  0.14118800  1
  Cu  Cu5  1  0.75000400  0.75000200  0.30799100  1
  Cu  Cu6  1  0.75000400  0.75000900  0.47684200  1
  Cu  Cu7  1  0.74999900  0.75000100  0.64102400  1
  Cu  Cu8  1  0.74999300  0.74999700  0.80506100  1
  Cu  Cu9  1  0.74999800  0.74999500  0.97110300  1
  Bi  Bi0  1  0.08466200  0.56715400  0.07842100  1
  Bi  Bi1  1  0.06904500  0.90745300  0.24410800  1
  Bi  Bi2  1  0.07513000  0.58045200  0.41946000  1
  Bi  Bi3  1  0.07749700  0.57991500  0.75208700  1
  Bi  Bi4  1  0.07860400  0.92154500  0.58561100  1
  Bi  Bi5  1  0.08343900  0.91768300  0.91912500  1
  Bi  Bi6  1  0.25000600  0.25000100  0.32240500  1
  Bi  Bi7  1  0.41533900  0.93284900  0.07842100  1
  Bi  Bi8  1  0.43095400  0.59254900  0.24410500  1
  Bi  Bi9  1  0.42139700  0.57845800  0.58561100  1
  Bi  Bi10  1  0.42487400  0.91955200  0.41946300  1
  Bi  Bi11  1  0.41656300  0.58231700  0.91912300  1
  Bi  Bi12  1  0.42249800  0.92008600  0.75208800  1
  Bi  Bi13  1  0.59254700  0.06904600  0.24410900  1
  Bi  Bi14  1  0.56715500  0.41533700  0.07842000  1
  Bi  Bi15  1  0.58045000  0.42487500  0.41946100  1
  Bi  Bi16  1  0.58231700  0.08343300  0.91912400  1
  Bi  Bi17  1  0.57845600  0.07860400  0.58561200  1
  Bi  Bi18  1  0.57991100  0.42250200  0.75208800  1
  Bi  Bi19  1  0.90745400  0.43095300  0.24410800  1
  Bi  Bi20  1  0.92154200  0.42140000  0.58560900  1
  Bi  Bi21  1  0.91768400  0.41656200  0.91912300  1
  Bi  Bi22  1  0.93284600  0.08466300  0.07842100  1
  Bi  Bi23  1  0.91955600  0.07513000  0.41946100  1
  Bi  Bi24  1  0.92008700  0.07749800  0.75208900  1
  O  O0  1  0.04614700  0.14467900  0.19207500  1
  O  O1  1  0.01340700  0.35175000  0.03003900  1
  O  O2  1  0.04347900  0.14803200  0.52925200  1
  O  O3  1  0.02890500  0.35344900  0.36764300  1
  O  O4  1  0.04520000  0.35266500  0.69621300  1
  O  O5  1  0.04555300  0.14734900  0.86421900  1
  O  O6  1  0.14824900  0.01341100  0.03003900  1
  O  O7  1  0.14468100  0.45385300  0.19207600  1
  O  O8  1  0.14655400  0.02890200  0.36764200  1
  O  O9  1  0.14733800  0.04520400  0.69621700  1
  O  O10  1  0.14735100  0.45444600  0.86421700  1
  O  O11  1  0.14802800  0.45652300  0.52925100  1
  O  O12  1  0.35532400  0.04614400  0.19207600  1
  O  O13  1  0.35197100  0.04348100  0.52925200  1
  O  O14  1  0.35265200  0.04554700  0.86421900  1
  O  O15  1  0.35175100  0.48659600  0.03003900  1
  O  O16  1  0.35345100  0.47110100  0.36764400  1
  O  O17  1  0.35266100  0.45480000  0.69621400  1
  O  O18  1  0.48659400  0.14825000  0.03003900  1
  O  O19  1  0.45385600  0.35532100  0.19207300  1
  O  O20  1  0.47110000  0.14655000  0.36764400  1
  O  O21  1  0.45652200  0.35197100  0.52925100  1
  O  O22  1  0.45479300  0.14733900  0.69621700  1
  O  O23  1  0.45445100  0.35264800  0.86421700  1
  O  O24  1  0.54883100  0.65119400  0.13834900  1
  O  O25  1  0.54415700  0.65221000  0.47204100  1
  O  O26  1  0.54622500  0.65260000  0.80113200  1
  O  O27  1  0.54340100  0.84813800  0.30119700  1
  O  O28  1  0.54322500  0.84950900  0.63711900  1
  O  O29  1  0.54724700  0.84754900  0.96707100  1
  O  O30  1  0.65186000  0.54339900  0.30119500  1
  O  O31  1  0.65049200  0.54322500  0.63711800  1
  O  O32  1  0.65245300  0.54724800  0.96707000  1
  O  O33  1  0.65119200  0.95117300  0.13835100  1
  O  O34  1  0.65220900  0.95584900  0.47204200  1
  O  O35  1  0.65259700  0.95377500  0.80113100  1
  O  O36  1  0.84881000  0.54883000  0.13835000  1
  O  O37  1  0.84779600  0.54415600  0.47203900  1
  O  O38  1  0.84740000  0.54622400  0.80113100  1
  O  O39  1  0.84813800  0.95659700  0.30119700  1
  O  O40  1  0.84951100  0.95677800  0.63712000  1
  O  O41  1  0.84754900  0.95275500  0.96707100  1
  O  O42  1  0.95659600  0.65185800  0.30119800  1
  O  O43  1  0.95677600  0.65049200  0.63711700  1
  O  O44  1  0.95117200  0.84881000  0.13834900  1
  O  O45  1  0.95584900  0.84779600  0.47204100  1
  O  O46  1  0.95377700  0.84740100  0.80113200  1
  O  O47  1  0.95275400  0.65245200  0.96707100  1
loop_
_geom_bond_atom_site_label_1
_geom_bond_atom_site_label_2
_geom_bond_distance
_geom_bond_site_symmetry_2
Cu0 O7 1.979722 1_555
Cu0 O19 1.979752 1_555
Cu0 O0 1.979753 1_555
Cu0 O12 1.979793 1_555
Cu1 O21 1.962143 1_555
Cu1 O13 1.962168 1_555
Cu1 O11 1.962224 1_555
Cu1 O2 1.962247 1_555
Cu2 O22 1.951438 1_555
Cu2 O17 1.951547 1_555
Cu2 O9 1.951561 1_555
Cu2 O4 1.951656 1_555
Cu3 O10 1.948163 1_555
Cu3 O5 1.948209 1_555
Cu3 O23 1.948234 1_555
Cu3 O14 1.948290 1_555
Cu4 O44 1.908575 1_555
Cu4 O36 1.908579 1_555
Cu4 O24 1.908590 1_555
Cu4 O33 1.908601 1_555
Cu5 O39 1.950866 1_555
Cu5 O42 1.950877 1_555
Cu5 O27 1.950933 1_555
Cu5 O30 1.950966 1_555
Cu6 O34 1.941878 1_555
Cu6 O45 1.941891 1_555
Cu6 O25 1.941950 1_555
Cu6 O37 1.941969 1_555
Cu7 O28 1.954673 1_555
Cu7 O31 1.954687 1_555
Cu7 O43 1.954701 1_555
Cu7 O40 1.954712 1_555
Cu8 O26 1.923868 1_555
Cu8 O35 1.923939 1_555
Cu8 O38 1.923942 1_555
Cu8 O46 1.924017 1_555
Cu9 O32 1.916652 1_555
Cu9 O47 1.916712 1_555
Cu9 O29 1.916713 1_555
Cu9 O41 1.916773 1_555
Bi0 O1 2.121315 1_555
Bi0 O36 2.288309 1_455
Bi0 O7 2.332265 1_555
Bi0 O47 2.421921 1_454
Bi0 O15 2.531679 1_555
Bi1 O39 2.187026 1_455
Bi1 O44 2.221362 1_455
Bi1 O0 2.237490 1_565
Bi1 O8 2.554013 1_565
Bi1 O42 2.592708 1_455
Bi2 O37 2.179365 1_455
Bi2 O3 2.184476 1_555
Bi2 O11 2.337147 1_555
Bi2 O42 2.446874 1_455
Bi2 O45 2.668227 1_455
Bi2 O16 2.713430 1_555
Bi3 O38 2.170222 1_455
Bi3 O4 2.201023 1_555
Bi3 O10 2.372616 1_555
Bi3 O43 2.400848 1_455
Bi3 O46 2.661752 1_455
Bi3 O17 2.765430 1_555
Bi4 O40 2.183041 1_455
Bi4 O2 2.202527 1_565
Bi4 O9 2.339606 1_565
Bi4 O45 2.393306 1_455
Bi4 O43 2.696636 1_455
Bi4 O13 2.745398 1_565
Bi5 O41 2.208468 1_455
Bi5 O5 2.217576 1_565
Bi5 O6 2.239238 1_566
Bi5 O46 2.480906 1_455
Bi5 O47 2.662936 1_455
Bi5 O14 2.725440 1_565
Bi6 O20 2.234002 1_555
Bi6 O16 2.234028 1_555
Bi6 O8 2.234032 1_555
Bi6 O3 2.234039 1_555
Bi7 O18 2.121293 1_565
Bi7 O33 2.288320 1_555
Bi7 O12 2.332239 1_565
Bi7 O29 2.421932 1_554
Bi7 O6 2.531691 1_565
Bi8 O30 2.187032 1_555
Bi8 O24 2.221338 1_555
Bi8 O19 2.237502 1_555
Bi8 O16 2.554078 1_555
Bi8 O27 2.592672 1_555
Bi9 O31 2.183037 1_555
Bi9 O21 2.202537 1_555
Bi9 O17 2.339562 1_555
Bi9 O25 2.393335 1_555
Bi9 O28 2.696634 1_555
Bi9 O11 2.745413 1_555
Bi10 O34 2.179370 1_555
Bi10 O20 2.184455 1_565
Bi10 O13 2.337131 1_565
Bi10 O27 2.446935 1_555
Bi10 O25 2.668197 1_555
Bi10 O8 2.713447 1_565
Bi11 O32 2.208467 1_555
Bi11 O23 2.217603 1_555
Bi11 O15 2.239255 1_556
Bi11 O26 2.480881 1_555
Bi11 O29 2.662950 1_555
Bi11 O10 2.725453 1_555
Bi12 O35 2.170224 1_555
Bi12 O22 2.201017 1_565
Bi12 O14 2.372588 1_565
Bi12 O28 2.400859 1_555
Bi12 O26 2.661767 1_555
Bi12 O9 2.765393 1_565
Bi13 O27 2.187025 1_545
Bi13 O33 2.221352 1_545
Bi13 O12 2.237470 1_555
Bi13 O20 2.554014 1_555
Bi13 O39 2.592660 1_545
Bi14 O15 2.121315 1_555
Bi14 O24 2.288343 1_555
Bi14 O19 2.332224 1_555
Bi14 O32 2.421937 1_554
Bi14 O18 2.531662 1_555
Bi15 O25 2.179374 1_555
Bi15 O16 2.184445 1_555
Bi15 O21 2.337146 1_555
Bi15 O30 2.446915 1_555
Bi15 O37 2.668222 1_555
Bi15 O20 2.713462 1_555
Bi16 O29 2.208424 1_545
Bi16 O14 2.217561 1_555
Bi16 O18 2.239256 1_556
Bi16 O35 2.480890 1_545
Bi16 O41 2.662920 1_545
Bi16 O23 2.725461 1_555
Bi17 O28 2.183036 1_545
Bi17 O13 2.202518 1_555
Bi17 O22 2.339611 1_555
Bi17 O34 2.393318 1_545
Bi17 O40 2.696653 1_545
Bi17 O21 2.745399 1_555
Bi18 O26 2.170221 1_555
Bi18 O17 2.201021 1_555
Bi18 O23 2.372571 1_555
Bi18 O31 2.400868 1_555
Bi18 O38 2.661769 1_555
Bi18 O22 2.765418 1_555
Bi19 O42 2.187014 1_555
Bi19 O36 2.221363 1_555
Bi19 O7 2.237496 1_655
Bi19 O3 2.554023 1_655
Bi19 O30 2.592670 1_555
Bi20 O43 2.183025 1_555
Bi20 O11 2.202513 1_655
Bi20 O4 2.339571 1_655
Bi20 O37 2.393302 1_555
Bi20 O31 2.696624 1_555
Bi20 O2 2.745392 1_655
Bi21 O47 2.208478 1_555
Bi21 O10 2.217586 1_655
Bi21 O1 2.239258 1_656
Bi21 O38 2.480894 1_555
Bi21 O32 2.662945 1_555
Bi21 O5 2.725440 1_655
Bi22 O6 2.121302 1_655
Bi22 O44 2.288304 1_545
Bi22 O0 2.332244 1_655
Bi22 O41 2.421921 1_544
Bi22 O1 2.531669 1_655
Bi23 O45 2.179365 1_545
Bi23 O8 2.184460 1_655
Bi23 O2 2.337134 1_655
Bi23 O39 2.446930 1_545
Bi23 O34 2.668252 1_545
Bi23 O3 2.713422 1_655
Bi24 O46 2.170209 1_545
Bi24 O9 2.201013 1_655
Bi24 O5 2.372599 1_655
Bi24 O40 2.400829 1_545
Bi24 O35 2.661777 1_545
Bi24 O4 2.765465 1_655
