# generated using pymatgen
data_Li2FeF4
_symmetry_space_group_name_H-M   'P 1'
_cell_length_a   5.28038377
_cell_length_b   5.28038377
_cell_length_c   2.98344300
_cell_angle_alpha   90.00000000
_cell_angle_beta   90.00000000
_cell_angle_gamma   111.08067145
_symmetry_Int_Tables_number   1
_chemical_formula_structural   Li2FeF4
_chemical_formula_sum   'Li2 Fe1 F4'
_cell_volume   77.61849880
_cell_formula_units_Z   1
loop_
 _symmetry_equiv_pos_site_id
 _symmetry_equiv_pos_as_xyz
  1  'x, y, z'
loop_
 _atom_site_type_symbol
 _atom_site_label
 _atom_site_symmetry_multiplicity
 _atom_site_fract_x
 _atom_site_fract_y
 _atom_site_fract_z
 _atom_site_occupancy
  Li  Li0  1  0.50000000  0.00000000  0.50000000  1
  Li  Li1  1  0.00000000  0.50000000  0.50000000  1
  Fe  Fe0  1  0.00000000  0.00000000  0.00000000  1
  F  F0  1  0.24217600  0.24217600  0.50000000  1
  F  F1  1  0.76497400  0.23502600  0.00000000  1
  F  F2  1  0.23502600  0.76497400  0.00000000  1
  F  F3  1  0.75782400  0.75782400  0.50000000  1
loop_
_geom_bond_atom_site_label_1
_geom_bond_atom_site_label_2
_geom_bond_distance
_geom_bond_site_symmetry_2
F0 Fe0 2.078325 1_556
F0 Fe0 2.078325 1_555
F0 Li1 2.177405 1_555
F0 Li0 2.177405 1_555
F1 Fe0 2.046516 1_655
F1 Li1 2.115169 1_655
F1 Li1 2.115169 1_654
F1 Li0 2.115169 1_555
F1 Li0 2.115169 1_554
F2 Fe0 2.046516 1_565
F2 Li0 2.115169 1_564
F2 Li0 2.115169 1_565
F2 Li1 2.115169 1_554
F2 Li1 2.115169 1_555
F3 Fe0 2.078325 1_665
F3 Fe0 2.078325 1_666
F3 Li0 2.177405 1_565
F3 Li1 2.177405 1_655
