# generated using pymatgen
data_NaLiMn2Fe4(PO4)6
_symmetry_space_group_name_H-M   'P 1'
_cell_length_a   6.47192700
_cell_length_b   8.68452313
_cell_length_c   8.75474875
_cell_angle_alpha   92.72092999
_cell_angle_beta   106.69930886
_cell_angle_gamma   106.28241413
_symmetry_Int_Tables_number   1
_chemical_formula_structural   NaLiMn2Fe4(PO4)6
_chemical_formula_sum   'Na1 Li1 Mn2 Fe4 P6 O24'
_cell_volume   448.00148450
_cell_formula_units_Z   1
loop_
 _symmetry_equiv_pos_site_id
 _symmetry_equiv_pos_as_xyz
  1  'x, y, z'
loop_
 _atom_site_type_symbol
 _atom_site_label
 _atom_site_symmetry_multiplicity
 _atom_site_fract_x
 _atom_site_fract_y
 _atom_site_fract_z
 _atom_site_occupancy
  Na  Na0  1  0.00144700  0.49831800  0.50089900  1
  Li  Li0  1  0.75350200  0.01083100  0.99014700  1
  Mn  Mn0  1  0.25278000  0.26987600  0.72989900  1
  Mn  Mn1  1  0.74589700  0.72311500  0.27727100  1
  Fe  Fe0  1  0.36484600  0.93450400  0.62172900  1
  Fe  Fe1  1  0.87188400  0.62998600  0.93298800  1
  Fe  Fe2  1  0.13593900  0.37608000  0.06760400  1
  Fe  Fe3  1  0.62730600  0.06560300  0.37176700  1
  P  P0  1  0.37498300  0.65658300  0.86930600  1
  P  P1  1  0.87008800  0.86608900  0.65147700  1
  P  P2  1  0.24860400  0.71287900  0.28536500  1
  P  P3  1  0.75099900  0.28658500  0.71524700  1
  P  P4  1  0.12065500  0.13260800  0.34552100  1
  P  P5  1  0.63365600  0.34714600  0.13116800  1
  O  O0  1  0.10325600  0.99504000  0.66578200  1
  O  O1  1  0.18693000  0.60983400  0.95496700  1
  O  O2  1  0.40514100  0.82992800  0.81988700  1
  O  O3  1  0.60704900  0.66914200  0.99793300  1
  O  O4  1  0.67931100  0.95039300  0.59472000  1
  O  O5  1  0.87525900  0.82252500  0.82240300  1
  O  O6  1  0.31000900  0.52542100  0.72724100  1
  O  O7  1  0.23682800  0.74178700  0.45870700  1
  O  O8  1  0.03043700  0.73699900  0.16905300  1
  O  O9  1  0.46709700  0.83005300  0.26425700  1
  O  O10  1  0.82746000  0.72111900  0.52947800  1
  O  O11  1  0.74609700  0.46181300  0.74308600  1
  O  O12  1  0.25717700  0.53782600  0.25862300  1
  O  O13  1  0.16814400  0.27457100  0.47238500  1
  O  O14  1  0.53506300  0.16729200  0.74035700  1
  O  O15  1  0.96600800  0.25744000  0.83372400  1
  O  O16  1  0.76018100  0.25675800  0.54184300  1
  O  O17  1  0.69367000  0.47311800  0.27662600  1
  O  O18  1  0.09397900  0.17817600  0.17195300  1
  O  O19  1  0.31582700  0.05154000  0.39778000  1
  O  O20  1  0.39869600  0.33605200  0.00761800  1
  O  O21  1  0.62560300  0.17590100  0.17863000  1
  O  O22  1  0.81776000  0.39882600  0.04282600  1
  O  O23  1  0.89043300  0.99892400  0.32906000  1
loop_
_geom_bond_atom_site_label_1
_geom_bond_atom_site_label_2
_geom_bond_distance
_geom_bond_site_symmetry_2
Na0 O17 2.310379 1_455
Na0 O6 2.321195 1_555
Na0 O7 2.349297 1_555
Na0 O16 2.350273 1_455
Na0 O13 2.507240 1_555
Na0 O10 2.532223 1_455
Li0 O18 2.338826 1_656
Li0 O2 2.373450 1_545
Li0 O5 2.571307 1_545
Li0 O21 2.586297 1_556
Mn0 O6 2.147531 1_555
Mn0 O13 2.167001 1_555
Mn0 O14 2.227996 1_555
Mn0 O15 2.269125 1_455
Mn0 O0 2.283397 1_545
Mn0 O20 2.318850 1_556
Mn1 O17 2.101003 1_555
Mn1 O10 2.119712 1_555
Mn1 O9 2.227733 1_555
Mn1 O8 2.278675 1_655
Mn1 O23 2.283562 1_555
Mn1 O3 2.323764 1_554
Fe0 O7 1.959745 1_555
Fe0 O2 1.981118 1_555
Fe0 O0 2.036280 1_555
Fe0 O14 2.067262 1_565
Fe0 O4 2.083064 1_555
Fe0 O19 2.233895 1_565
Fe1 O5 1.969543 1_555
Fe1 O11 1.970986 1_555
Fe1 O1 2.050075 1_655
Fe1 O3 2.060393 1_555
Fe1 O8 2.062037 1_656
Fe1 O22 2.249453 1_556
Fe2 O12 1.946870 1_555
Fe2 O18 1.972861 1_555
Fe2 O20 2.028763 1_555
Fe2 O22 2.074117 1_455
Fe2 O15 2.081769 1_454
Fe2 O1 2.281186 1_554
Fe3 O21 1.981332 1_555
Fe3 O16 1.985293 1_555
Fe3 O9 2.052462 1_545
Fe3 O19 2.063718 1_555
Fe3 O23 2.067232 1_545
Fe3 O4 2.218327 1_545
O0 P1 1.574000 1_455
O1 P0 1.576345 1_555
O2 P0 1.561145 1_555
O3 P0 1.568513 1_555
O4 P1 1.579954 1_555
O5 P1 1.554214 1_555
O6 P0 1.522353 1_555
O7 P2 1.553341 1_555
O8 P2 1.560200 1_555
O9 P2 1.558973 1_555
O10 P1 1.519926 1_555
O11 P3 1.540292 1_555
O12 P2 1.545971 1_555
O13 P4 1.519660 1_555
O14 P3 1.568761 1_555
O15 P3 1.571369 1_555
O16 P3 1.548685 1_555
O17 P5 1.521376 1_555
O18 P4 1.562071 1_555
O19 P4 1.580391 1_555
O20 P5 1.566618 1_555
O21 P5 1.553941 1_555
O22 P5 1.575430 1_555
O23 P4 1.574612 1_665
