# generated using pymatgen
data_Fe6O5F7
_symmetry_space_group_name_H-M   'P 1'
_cell_length_a   4.76752600
_cell_length_b   5.69555183
_cell_length_c   7.87215028
_cell_angle_alpha   85.20040022
_cell_angle_beta   88.14596920
_cell_angle_gamma   87.55175010
_symmetry_Int_Tables_number   1
_chemical_formula_structural   Fe6O5F7
_chemical_formula_sum   'Fe6 O5 F7'
_cell_volume   212.72502153
_cell_formula_units_Z   1
loop_
 _symmetry_equiv_pos_site_id
 _symmetry_equiv_pos_as_xyz
  1  'x, y, z'
loop_
 _atom_site_type_symbol
 _atom_site_label
 _atom_site_symmetry_multiplicity
 _atom_site_fract_x
 _atom_site_fract_y
 _atom_site_fract_z
 _atom_site_occupancy
  Fe  Fe0  1  0.55956300  0.83083600  0.66233700  1
  Fe  Fe1  1  0.49967400  0.48657700  0.00562000  1
  Fe  Fe2  1  0.50808100  0.16573300  0.32354700  1
  Fe  Fe3  1  0.97627600  0.33428900  0.67343200  1
  Fe  Fe4  1  0.00928400  0.66574500  0.33438100  1
  Fe  Fe5  1  0.96412500  0.00908800  0.98731900  1
  O  O0  1  0.80455800  0.02996600  0.77104400  1
  O  O1  1  0.70024200  0.20388500  0.10421100  1
  O  O2  1  0.67357700  0.54232700  0.78198000  1
  O  O3  1  0.70428000  0.86937000  0.42524900  1
  O  O4  1  0.30036000  0.46536600  0.23526900  1
  F  F0  1  0.79696100  0.37618000  0.42680500  1
  F  F1  1  0.80893200  0.70579300  0.10199300  1
  F  F2  1  0.31268300  0.12530100  0.55979400  1
  F  F3  1  0.29204600  0.80395900  0.90794200  1
  F  F4  1  0.19439300  0.96165100  0.22541200  1
  F  F5  1  0.19268600  0.63585100  0.56417600  1
  F  F6  1  0.20228300  0.28808500  0.90949000  1
loop_
_geom_bond_atom_site_label_1
_geom_bond_atom_site_label_2
_geom_bond_distance
_geom_bond_site_symmetry_2
Fe0 O2 1.892230 1_555
Fe0 O0 1.929551 1_565
Fe0 O3 1.966895 1_555
Fe1 O2 1.929291 1_554
Fe1 O1 1.953577 1_555
Fe1 O4 2.011939 1_555
Fe2 O1 1.928650 1_555
Fe2 O3 2.013088 1_545
Fe2 O4 2.019343 1_555
Fe3 O0 2.030422 1_555
Fe3 O2 2.039684 1_555
Fe4 O4 1.944385 1_555
Fe4 O3 1.974493 1_455
Fe5 O0 1.879824 1_555
Fe5 O1 1.907122 1_556
F0 Fe4 2.041609 1_655
F0 Fe2 2.090629 1_555
F0 Fe3 2.137657 1_555
F1 Fe5 2.037498 1_564
F1 Fe4 2.082237 1_655
F1 Fe1 2.167133 1_555
F2 Fe2 2.052840 1_555
F2 Fe0 2.125100 1_545
F2 Fe3 2.170623 1_455
F3 Fe5 2.025457 1_465
F3 Fe1 2.121919 1_556
F3 Fe0 2.279439 1_555
F4 Fe4 2.047251 1_555
F4 Fe2 2.134945 1_565
F4 Fe5 2.194141 1_464
F5 Fe4 2.025838 1_555
F5 Fe3 2.144998 1_455
F5 Fe0 2.299302 1_555
F6 Fe5 2.033674 1_455
F6 Fe1 2.051948 1_556
F6 Fe3 2.169555 1_455
