# generated using pymatgen
data_LiZnFe7O12
_symmetry_space_group_name_H-M   'P 1'
_cell_length_a   6.03899125
_cell_length_b   6.03899125
_cell_length_c   14.77539413
_cell_angle_alpha   89.77637177
_cell_angle_beta   89.77637177
_cell_angle_gamma   60.04957657
_symmetry_Int_Tables_number   1
_chemical_formula_structural   LiZnFe7O12
_chemical_formula_sum   'Li2 Zn2 Fe14 O24'
_cell_volume   466.88598363
_cell_formula_units_Z   2
loop_
 _symmetry_equiv_pos_site_id
 _symmetry_equiv_pos_as_xyz
  1  'x, y, z'
loop_
 _atom_site_type_symbol
 _atom_site_label
 _atom_site_symmetry_multiplicity
 _atom_site_fract_x
 _atom_site_fract_y
 _atom_site_fract_z
 _atom_site_occupancy
  Li  Li0  1  0.00046600  0.00046600  0.75105300  1
  Li  Li1  1  0.33304100  0.33304100  0.41505300  1
  Zn  Zn0  1  0.33476900  0.33476900  0.04191500  1
  Zn  Zn1  1  0.16939500  0.16939500  0.21018300  1
  Fe  Fe0  1  0.99936000  0.99936000  0.99839600  1
  Fe  Fe1  1  0.17162100  0.66105000  0.20857300  1
  Fe  Fe2  1  0.67319900  0.67319900  0.08515600  1
  Fe  Fe3  1  0.99631400  0.99631400  0.37902400  1
  Fe  Fe4  1  0.83833000  0.83833000  0.54164400  1
  Fe  Fe5  1  0.65991800  0.65991800  0.33497100  1
  Fe  Fe6  1  0.66105000  0.17162100  0.20857300  1
  Fe  Fe7  1  0.32247600  0.83902600  0.54017300  1
  Fe  Fe8  1  0.83902600  0.32247600  0.54017300  1
  Fe  Fe9  1  0.50102500  0.99610700  0.87311200  1
  Fe  Fe10  1  0.66664700  0.66664700  0.71222000  1
  Fe  Fe11  1  0.50147700  0.50147700  0.87279900  1
  Fe  Fe12  1  0.33409200  0.33409200  0.66472100  1
  Fe  Fe13  1  0.99610700  0.50102500  0.87311200  1
  O  O0  1  0.83642500  0.31069300  0.29281200  1
  O  O1  1  0.01499400  0.50294900  0.12623100  1
  O  O2  1  0.49815400  0.49815400  0.12926400  1
  O  O3  1  0.33996400  0.33996400  0.27732600  1
  O  O4  1  0.66473700  0.66473700  0.46697000  1
  O  O5  1  0.83947400  0.83947400  0.28956200  1
  O  O6  1  0.99744200  0.99744200  0.13048000  1
  O  O7  1  0.31069300  0.83642500  0.29281200  1
  O  O8  1  0.50956200  0.98243100  0.62330700  1
  O  O9  1  0.69347300  0.15036700  0.46325800  1
  O  O10  1  0.50294900  0.01499400  0.12623100  1
  O  O11  1  0.15036700  0.69347300  0.46325800  1
  O  O12  1  0.36570300  0.81613000  0.79668500  1
  O  O13  1  0.15056400  0.15056400  0.46138100  1
  O  O14  1  0.81723400  0.81723400  0.79720500  1
  O  O15  1  0.00152200  0.00152200  0.61445800  1
  O  O16  1  0.17349500  0.17349500  0.95246000  1
  O  O17  1  0.33208300  0.33208300  0.79729800  1
  O  O18  1  0.50908700  0.50908700  0.62295200  1
  O  O19  1  0.65243500  0.17508500  0.95136600  1
  O  O20  1  0.98243100  0.50956200  0.62330700  1
  O  O21  1  0.17508500  0.65243500  0.95136600  1
  O  O22  1  0.81613000  0.36570300  0.79668500  1
  O  O23  1  0.66766200  0.66766200  0.95248100  1
loop_
_geom_bond_atom_site_label_1
_geom_bond_atom_site_label_2
_geom_bond_distance
_geom_bond_site_symmetry_2
Li0 O15 2.018225 1_555
Li0 O12 2.028013 1_545
Li0 O22 2.028013 1_455
Li0 O14 2.030926 1_445
Li1 O11 2.017529 1_555
Li1 O9 2.017529 1_555
Li1 O13 2.024357 1_555
Li1 O3 2.035932 1_555
Fe0 O16 1.940477 1_665
Fe0 O19 1.945252 1_565
Fe0 O21 1.945252 1_655
Fe0 O6 1.951606 1_556
Fe1 O3 1.962068 1_555
Fe1 O1 2.050912 1_555
Fe1 O7 2.069495 1_555
Fe1 O2 2.069643 1_555
Fe1 O6 2.102906 1_455
Fe1 O5 2.109411 1_455
Fe2 O10 1.889922 1_565
Fe2 O1 1.889922 1_655
Fe2 O2 1.940271 1_555
Fe2 O23 1.961441 1_554
Fe3 O11 2.012861 1_655
Fe3 O9 2.012861 1_565
Fe3 O13 2.024918 1_665
Fe3 O0 2.078380 1_565
Fe3 O7 2.078380 1_655
Fe3 O5 2.111105 1_555
Fe4 O9 2.000617 1_565
Fe4 O11 2.000617 1_655
Fe4 O15 2.021455 1_665
Fe4 O8 2.102242 1_555
Fe4 O20 2.102242 1_555
Fe4 O4 2.128551 1_555
Fe5 O0 1.931943 1_555
Fe5 O7 1.931943 1_555
Fe5 O4 1.951215 1_555
Fe5 O5 1.991079 1_555
Fe6 O3 1.962068 1_555
Fe6 O10 2.050912 1_555
Fe6 O0 2.069495 1_555
Fe6 O2 2.069643 1_555
Fe6 O6 2.102906 1_545
Fe6 O5 2.109411 1_545
Fe7 O13 2.003689 1_565
Fe7 O15 2.004266 1_565
Fe7 O11 2.018333 1_555
Fe7 O4 2.090219 1_555
Fe7 O18 2.117941 1_555
Fe7 O8 2.128706 1_555
Fe8 O13 2.003689 1_655
Fe8 O15 2.004266 1_655
Fe8 O9 2.018333 1_555
Fe8 O4 2.090219 1_555
Fe8 O18 2.117941 1_555
Fe8 O20 2.128706 1_555
Fe9 O14 2.001082 1_555
Fe9 O12 2.006982 1_555
Fe9 O16 2.076146 1_565
Fe9 O23 2.078494 1_555
Fe9 O17 2.082455 1_565
Fe9 O19 2.084701 1_565
Fe10 O22 2.007062 1_555
Fe10 O12 2.007062 1_555
Fe10 O14 2.018496 1_555
Fe10 O20 2.108629 1_555
Fe10 O8 2.108629 1_555
Fe10 O18 2.115182 1_555
Fe11 O12 1.995641 1_555
Fe11 O22 1.995641 1_555
Fe11 O21 2.063979 1_555
Fe11 O19 2.063979 1_555
Fe11 O17 2.097644 1_555
Fe11 O23 2.103480 1_555
Fe12 O18 1.928590 1_555
Fe12 O8 1.940463 1_545
Fe12 O20 1.940463 1_455
Fe12 O17 1.958895 1_555
Fe13 O14 2.001082 1_555
Fe13 O22 2.006982 1_555
Fe13 O16 2.076146 1_655
Fe13 O23 2.078494 1_555
Fe13 O17 2.082455 1_655
Fe13 O21 2.084701 1_655
O0 Zn1 2.130190 1_655
O1 Zn0 2.084582 1_555
O1 Zn1 2.140028 1_555
O2 Zn0 2.145863 1_555
O3 Zn1 2.044909 1_555
O6 Zn1 2.153900 1_665
O7 Zn1 2.130190 1_565
O10 Zn0 2.084582 1_555
O10 Zn1 2.140028 1_555
O16 Zn0 2.147390 1_556
O19 Zn0 2.131419 1_556
O21 Zn0 2.131419 1_556
