# generated using pymatgen
data_Li2Bi3P9O28
_symmetry_space_group_name_H-M   'P 1'
_cell_length_a   7.12975600
_cell_length_b   9.84268523
_cell_length_c   9.89436471
_cell_angle_alpha   113.90733347
_cell_angle_beta   97.30669877
_cell_angle_gamma   107.39908869
_symmetry_Int_Tables_number   1
_chemical_formula_structural   Li2Bi3P9O28
_chemical_formula_sum   'Li2 Bi3 P9 O28'
_cell_volume   580.66211560
_cell_formula_units_Z   1
loop_
 _symmetry_equiv_pos_site_id
 _symmetry_equiv_pos_as_xyz
  1  'x, y, z'
loop_
 _atom_site_type_symbol
 _atom_site_label
 _atom_site_symmetry_multiplicity
 _atom_site_fract_x
 _atom_site_fract_y
 _atom_site_fract_z
 _atom_site_occupancy
  Li  Li0  1  0.67269400  0.22315700  0.94986300  1
  Li  Li1  1  0.32730600  0.77684300  0.05013700  1
  Bi  Bi0  1  0.00000000  0.50000000  0.50000000  1
  Bi  Bi1  1  0.24834300  0.26496000  0.03763300  1
  Bi  Bi2  1  0.75165700  0.73504000  0.96236700  1
  P  P0  1  0.18906800  0.03498100  0.26331300  1
  P  P1  1  0.72535200  0.57128000  0.22948500  1
  P  P2  1  0.78689700  0.06496200  0.29344600  1
  P  P3  1  0.37578100  0.63676000  0.33255400  1
  P  P4  1  0.50000000  0.00000000  0.50000000  1
  P  P5  1  0.21310300  0.93503800  0.70655400  1
  P  P6  1  0.62421900  0.36324000  0.66744600  1
  P  P7  1  0.81093200  0.96501900  0.73668700  1
  P  P8  1  0.27464800  0.42872000  0.77051500  1
  O  O0  1  0.12863800  0.87480100  0.11606100  1
  O  O1  1  0.60060900  0.39158500  0.10707600  1
  O  O2  1  0.24396200  0.51964400  0.16622400  1
  O  O3  1  0.63970500  0.92791200  0.13659600  1
  O  O4  1  0.75307100  0.68463400  0.15965100  1
  O  O5  1  0.26295500  0.18236600  0.24039700  1
  O  O6  1  0.85383400  0.22778700  0.29663100  1
  O  O7  1  0.41074600  0.81004900  0.34742400  1
  O  O8  1  0.92191400  0.59414700  0.32916500  1
  O  O9  1  0.35030200  0.05173900  0.39744500  1
  O  O10  1  0.99052100  0.02833700  0.32872300  1
  O  O11  1  0.59445600  0.62176300  0.34968600  1
  O  O12  1  0.30955300  0.61004000  0.46069400  1
  O  O13  1  0.70104000  0.06206000  0.42993700  1
  O  O14  1  0.69044700  0.38996000  0.53930600  1
  O  O15  1  0.29896000  0.93794000  0.57006300  1
  O  O16  1  0.00947900  0.97166300  0.67127700  1
  O  O17  1  0.40554400  0.37823700  0.65031400  1
  O  O18  1  0.07808600  0.40585300  0.67083500  1
  O  O19  1  0.64969800  0.94826100  0.60255500  1
  O  O20  1  0.14616600  0.77221300  0.70336900  1
  O  O21  1  0.58925400  0.18995100  0.65257600  1
  O  O22  1  0.24692900  0.31536600  0.84034900  1
  O  O23  1  0.73704500  0.81763400  0.75960300  1
  O  O24  1  0.75603800  0.48035600  0.83377600  1
  O  O25  1  0.36029500  0.07208800  0.86340400  1
  O  O26  1  0.87136200  0.12519900  0.88393900  1
  O  O27  1  0.39939100  0.60841500  0.89292400  1
loop_
_geom_bond_atom_site_label_1
_geom_bond_atom_site_label_2
_geom_bond_distance
_geom_bond_site_symmetry_2
Li0 O26 1.975718 1_555
Li0 O1 2.013664 1_556
Li0 O25 2.099391 1_555
Li1 O0 1.975718 1_555
Li1 O27 2.013664 1_554
Li1 O3 2.099391 1_555
Bi0 O14 2.307702 1_455
Bi0 O12 2.307702 1_555
Bi0 O18 2.316137 1_555
Bi0 O8 2.316137 1_455
Bi0 O20 2.395971 1_555
Bi0 O6 2.395971 1_455
Bi1 O22 2.199882 1_554
Bi1 O1 2.308321 1_555
Bi1 O2 2.318524 1_555
Bi1 O25 2.411731 1_554
Bi1 O5 2.452766 1_555
Bi1 O26 2.546104 1_454
Bi2 O4 2.199882 1_556
Bi2 O27 2.308321 1_555
Bi2 O24 2.318524 1_555
Bi2 O3 2.411731 1_556
Bi2 O23 2.452766 1_555
Bi2 O0 2.546104 1_656
O0 P0 1.538289 1_565
O1 P1 1.560494 1_555
O2 P3 1.530213 1_555
O3 P2 1.540059 1_565
O4 P1 1.512943 1_555
O5 P0 1.507746 1_555
O6 P2 1.514931 1_555
O7 P3 1.589322 1_555
O7 P4 1.713455 1_565
O8 P1 1.505749 1_555
O9 P0 1.559210 1_555
O9 P4 1.701925 1_555
O10 P0 1.624502 1_655
O10 P2 1.626517 1_555
O11 P3 1.603747 1_555
O11 P1 1.616479 1_555
O12 P3 1.499294 1_555
O13 P2 1.558988 1_555
O13 P4 1.726430 1_555
O14 P6 1.499294 1_555
O15 P5 1.558988 1_555
O15 P4 1.726430 1_565
O16 P7 1.624502 1_455
O16 P5 1.626517 1_555
O17 P6 1.603747 1_555
O17 P8 1.616479 1_555
O18 P8 1.505749 1_555
O19 P7 1.559210 1_555
O19 P4 1.701925 1_565
O20 P5 1.514931 1_555
O21 P6 1.589322 1_555
O21 P4 1.713455 1_555
O22 P8 1.512943 1_555
O23 P7 1.507746 1_555
O24 P6 1.530213 1_555
O25 P5 1.540059 1_545
O26 P7 1.538289 1_545
O27 P8 1.560494 1_555
