# generated using pymatgen
data_Tb(AlGe)2
_symmetry_space_group_name_H-M   'P 1'
_cell_length_a   4.22912920
_cell_length_b   4.22913032
_cell_length_c   6.67246991
_cell_angle_alpha   90.00000000
_cell_angle_beta   90.00000000
_cell_angle_gamma   119.99999121
_symmetry_Int_Tables_number   1
_chemical_formula_structural   Tb(AlGe)2
_chemical_formula_sum   'Tb1 Al2 Ge2'
_cell_volume   103.35210241
_cell_formula_units_Z   1
loop_
 _symmetry_equiv_pos_site_id
 _symmetry_equiv_pos_as_xyz
  1  'x, y, z'
loop_
 _atom_site_type_symbol
 _atom_site_label
 _atom_site_symmetry_multiplicity
 _atom_site_fract_x
 _atom_site_fract_y
 _atom_site_fract_z
 _atom_site_occupancy
  Tb  Tb0  1  -0.00000000  -0.00000000  0.00000000  1
  Al  Al0  1  0.66666700  0.33333300  0.35646817  1
  Al  Al1  1  0.33333300  0.66666700  0.64353183  1
  Ge  Ge0  1  0.66666700  0.33333300  0.73937282  1
  Ge  Ge1  1  0.33333300  0.66666700  0.26062718  1
loop_
_geom_bond_atom_site_label_1
_geom_bond_atom_site_label_2
_geom_bond_distance
_geom_bond_site_symmetry_2
Al0 Ge1 2.524042 1_655
Al0 Ge1 2.524043 1_545
Al0 Ge1 2.524049 1_555
Al0 Ge0 2.554920 1_555
Al1 Ge0 2.524042 1_455
Al1 Ge0 2.524043 1_565
Al1 Ge0 2.524049 1_555
Al1 Ge1 2.554920 1_555
Ge0 Tb0 2.997674 1_656
Ge0 Tb0 2.997677 1_556
Ge0 Tb0 2.997677 1_666
Ge1 Tb0 2.997674 1_565
Ge1 Tb0 2.997677 1_665
Ge1 Tb0 2.997677 1_555
