# generated using pymatgen
data_Ba10Li2Bi4O21
_symmetry_space_group_name_H-M   'P 1'
_cell_length_a   6.09874800
_cell_length_b   14.74169900
_cell_length_c   14.85599800
_cell_angle_alpha   90.00000000
_cell_angle_beta   90.00000000
_cell_angle_gamma   90.00000000
_symmetry_Int_Tables_number   1
_chemical_formula_structural   Ba10Li2Bi4O21
_chemical_formula_sum   'Ba20 Li4 Bi8 O42'
_cell_volume   1335.64197893
_cell_formula_units_Z   2
loop_
 _symmetry_equiv_pos_site_id
 _symmetry_equiv_pos_as_xyz
  1  'x, y, z'
loop_
 _atom_site_type_symbol
 _atom_site_label
 _atom_site_symmetry_multiplicity
 _atom_site_fract_x
 _atom_site_fract_y
 _atom_site_fract_z
 _atom_site_occupancy
  Ba  Ba0  1  0.00000000  0.00185200  0.09010900  1
  Ba  Ba1  1  0.00000000  0.07810800  0.57400800  1
  Ba  Ba2  1  0.50000000  0.16512000  0.21382400  1
  Ba  Ba3  1  0.50000000  0.17398700  0.79650700  1
  Ba  Ba4  1  0.50000000  0.24822200  0.49610500  1
  Ba  Ba5  1  0.00000000  0.24890700  0.99701500  1
  Ba  Ba6  1  0.00000000  0.32356600  0.29840500  1
  Ba  Ba7  1  0.00000000  0.34300000  0.70902400  1
  Ba  Ba8  1  0.50000000  0.40691100  0.08284100  1
  Ba  Ba9  1  0.50000000  0.49497500  0.58654900  1
  Ba  Ba10  1  0.00000000  0.50185200  0.90989100  1
  Ba  Ba11  1  0.00000000  0.57810800  0.42599200  1
  Ba  Ba12  1  0.50000000  0.66512000  0.78617600  1
  Ba  Ba13  1  0.50000000  0.67398700  0.20349300  1
  Ba  Ba14  1  0.50000000  0.74822200  0.50389500  1
  Ba  Ba15  1  0.00000000  0.74890700  0.00298500  1
  Ba  Ba16  1  0.00000000  0.82356600  0.70159500  1
  Ba  Ba17  1  0.00000000  0.84300000  0.29097600  1
  Ba  Ba18  1  0.50000000  0.90691100  0.91715900  1
  Ba  Ba19  1  0.50000000  0.99497500  0.41345100  1
  Li  Li0  1  0.50000000  0.12134900  0.00584200  1
  Li  Li1  1  0.00000000  0.37176300  0.50547200  1
  Li  Li2  1  0.50000000  0.62134900  0.99415800  1
  Li  Li3  1  0.00000000  0.87176300  0.49452800  1
  Bi  Bi0  1  0.00000000  0.03551600  0.84893500  1
  Bi  Bi1  1  0.00000000  0.08577400  0.31721200  1
  Bi  Bi2  1  0.50000000  0.41132700  0.81744600  1
  Bi  Bi3  1  0.50000000  0.45593800  0.34537600  1
  Bi  Bi4  1  0.00000000  0.53551600  0.15106500  1
  Bi  Bi5  1  0.00000000  0.58577400  0.68278800  1
  Bi  Bi6  1  0.50000000  0.91132700  0.18255400  1
  Bi  Bi7  1  0.50000000  0.95593800  0.65462400  1
  O  O0  1  0.24066000  0.02337700  0.74295000  1
  O  O1  1  0.75934000  0.02337700  0.74295000  1
  O  O2  1  0.25041600  0.00006500  0.24843600  1
  O  O3  1  0.74958400  0.00006500  0.24843600  1
  O  O4  1  0.50000000  0.00744100  0.07726900  1
  O  O5  1  0.50000000  0.08396400  0.58609000  1
  O  O6  1  0.76256600  0.10467500  0.92684100  1
  O  O7  1  0.23743400  0.10467500  0.92684100  1
  O  O8  1  0.25501300  0.16006600  0.37559500  1
  O  O9  1  0.74498700  0.16006600  0.37559500  1
  O  O10  1  0.00000000  0.16572500  0.19511000  1
  O  O11  1  0.50000000  0.23965600  0.05851000  1
  O  O12  1  0.00000000  0.25338300  0.56687900  1
  O  O13  1  0.50000000  0.34480800  0.25605100  1
  O  O14  1  0.50000000  0.33367300  0.69423600  1
  O  O15  1  0.76108900  0.33422800  0.86946100  1
  O  O16  1  0.23891100  0.33422800  0.86946100  1
  O  O17  1  0.25621400  0.40070900  0.43009100  1
  O  O18  1  0.74378600  0.40070900  0.43009100  1
  O  O19  1  0.00000000  0.40837000  0.08948600  1
  O  O20  1  0.00000000  0.48352000  0.58385400  1
  O  O21  1  0.24066000  0.52337700  0.25705000  1
  O  O22  1  0.75934000  0.52337700  0.25705000  1
  O  O23  1  0.25041600  0.50006500  0.75156400  1
  O  O24  1  0.74958400  0.50006500  0.75156400  1
  O  O25  1  0.50000000  0.50744100  0.92273100  1
  O  O26  1  0.50000000  0.58396400  0.41391000  1
  O  O27  1  0.76256600  0.60467500  0.07315900  1
  O  O28  1  0.23743400  0.60467500  0.07315900  1
  O  O29  1  0.25501300  0.66006600  0.62440500  1
  O  O30  1  0.74498700  0.66006600  0.62440500  1
  O  O31  1  0.00000000  0.66572500  0.80489000  1
  O  O32  1  0.50000000  0.73965600  0.94149000  1
  O  O33  1  0.00000000  0.75338300  0.43312100  1
  O  O34  1  0.50000000  0.84480800  0.74394900  1
  O  O35  1  0.50000000  0.83367300  0.30576400  1
  O  O36  1  0.76108900  0.83422800  0.13053900  1
  O  O37  1  0.23891100  0.83422800  0.13053900  1
  O  O38  1  0.25621400  0.90070900  0.56990900  1
  O  O39  1  0.74378600  0.90070900  0.56990900  1
  O  O40  1  0.00000000  0.90837000  0.91051400  1
  O  O41  1  0.00000000  0.98352000  0.41614600  1
loop_
_geom_bond_atom_site_label_1
_geom_bond_atom_site_label_2
_geom_bond_distance
_geom_bond_site_symmetry_2
Ba0 O2 2.804551 1_555
Ba0 O3 2.804551 1_455
Ba0 O10 2.875621 1_555
Ba0 O37 2.930857 1_545
Ba0 O36 2.930857 1_445
Ba0 O40 3.002944 1_544
Ba0 O4 3.056445 1_555
Ba0 O4 3.056445 1_455
Ba0 O7 3.205862 1_554
Ba0 O6 3.205862 1_454
Ba1 O12 2.586021 1_555
Ba1 O41 2.728419 1_545
Ba1 O0 3.017332 1_555
Ba1 O1 3.017332 1_455
Ba1 O38 3.047040 1_545
Ba1 O39 3.047040 1_445
Ba1 O5 3.055872 1_555
Ba1 O5 3.055872 1_455
Ba2 O11 2.555616 1_555
Ba2 O13 2.722176 1_555
Ba2 O8 2.830836 1_555
Ba2 O9 2.830836 1_555
Ba2 O3 2.915777 1_555
Ba2 O2 2.915777 1_555
Ba2 O10 3.062034 1_555
Ba2 O10 3.062034 1_655
Ba2 O4 3.085217 1_555
Ba3 O6 2.712434 1_555
Ba3 O7 2.712434 1_555
Ba3 O14 2.801768 1_555
Ba3 O0 2.839746 1_555
Ba3 O1 2.839746 1_555
Ba3 O15 3.047984 1_555
Ba3 O16 3.047984 1_555
Ba3 O5 3.395992 1_555
Ba4 O9 2.669535 1_555
Ba4 O8 2.669535 1_555
Ba4 O5 2.765947 1_555
Ba4 O18 2.868006 1_555
Ba4 O17 2.868006 1_555
Ba4 O14 3.201660 1_555
Ba4 O12 3.226446 1_655
Ba4 O12 3.226446 1_555
Ba5 O16 2.701078 1_555
Ba5 O15 2.701078 1_455
Ba5 O19 2.722726 1_556
Ba5 O7 2.775698 1_555
Ba5 O6 2.775698 1_455
Ba5 O11 3.186203 1_456
Ba5 O11 3.186203 1_556
Ba5 O10 3.188154 1_556
Ba6 O17 2.749937 1_555
Ba6 O18 2.749937 1_455
Ba6 O10 2.787302 1_555
Ba6 O8 3.089211 1_555
Ba6 O9 3.089211 1_455
Ba6 O13 3.129321 1_455
Ba6 O13 3.129321 1_555
Ba6 O19 3.346019 1_555
Ba6 O21 3.347828 1_555
Ba6 O22 3.347828 1_455
Ba7 O12 2.490908 1_555
Ba7 O20 2.783696 1_555
Ba7 O16 2.796530 1_555
Ba7 O15 2.796530 1_455
Ba7 O23 2.844803 1_555
Ba7 O24 2.844803 1_455
Ba7 O14 3.060368 1_555
Ba7 O14 3.060368 1_455
Ba8 O11 2.491977 1_555
Ba8 O13 2.731216 1_555
Ba8 O25 2.802496 1_554
Ba8 O19 3.051047 1_655
Ba8 O19 3.051047 1_555
Ba8 O27 3.329317 1_555
Ba8 O28 3.329317 1_555
Ba9 O14 2.865937 1_555
Ba9 O26 2.880757 1_555
Ba9 O24 2.886562 1_555
Ba9 O23 2.886562 1_555
Ba9 O30 2.910612 1_555
Ba9 O29 2.910612 1_555
Ba9 O20 3.054309 1_655
Ba9 O20 3.054309 1_555
Ba9 O18 3.089369 1_555
Ba9 O17 3.089369 1_555
Ba10 O23 2.804551 1_555
Ba10 O24 2.804551 1_455
Ba10 O31 2.875621 1_555
Ba10 O16 2.930857 1_555
Ba10 O15 2.930857 1_455
Ba10 O19 3.002944 1_556
Ba10 O25 3.056445 1_555
Ba10 O25 3.056445 1_455
Ba10 O28 3.205862 1_556
Ba10 O27 3.205862 1_456
Ba11 O33 2.586021 1_555
Ba11 O20 2.728419 1_555
Ba11 O21 3.017332 1_555
Ba11 O22 3.017332 1_455
Ba11 O18 3.047040 1_455
Ba11 O17 3.047040 1_555
Ba11 O26 3.055872 1_555
Ba11 O26 3.055872 1_455
Ba12 O32 2.555616 1_555
Ba12 O34 2.722176 1_555
Ba12 O30 2.830836 1_555
Ba12 O29 2.830836 1_555
Ba12 O24 2.915777 1_555
Ba12 O23 2.915777 1_555
Ba12 O31 3.062034 1_655
Ba12 O31 3.062034 1_555
Ba12 O25 3.085217 1_555
Ba13 O27 2.712434 1_555
Ba13 O28 2.712434 1_555
Ba13 O35 2.801768 1_555
Ba13 O21 2.839746 1_555
Ba13 O22 2.839746 1_555
Ba13 O36 3.047984 1_555
Ba13 O37 3.047984 1_555
Ba13 O26 3.395992 1_555
Ba14 O30 2.669535 1_555
Ba14 O29 2.669535 1_555
Ba14 O26 2.765947 1_555
Ba14 O38 2.868006 1_555
Ba14 O39 2.868006 1_555
Ba14 O35 3.201660 1_555
Ba14 O33 3.226446 1_655
Ba14 O33 3.226446 1_555
Ba15 O37 2.701078 1_555
Ba15 O36 2.701078 1_455
Ba15 O40 2.722726 1_554
Ba15 O28 2.775698 1_555
Ba15 O27 2.775698 1_455
Ba15 O32 3.186203 1_554
Ba15 O32 3.186203 1_454
Ba15 O31 3.188154 1_554
Ba16 O38 2.749937 1_555
Ba16 O39 2.749937 1_455
Ba16 O31 2.787302 1_555
Ba16 O29 3.089211 1_555
Ba16 O30 3.089211 1_455
Ba16 O34 3.129321 1_455
Ba16 O34 3.129321 1_555
Ba16 O40 3.346019 1_555
Ba16 O1 3.347828 1_465
Ba16 O0 3.347828 1_565
Ba17 O33 2.490908 1_555
Ba17 O41 2.783696 1_555
Ba17 O37 2.796530 1_555
Ba17 O36 2.796530 1_455
Ba17 O2 2.844803 1_565
Ba17 O3 2.844803 1_465
Ba17 O35 3.060368 1_455
Ba17 O35 3.060368 1_555
Ba18 O32 2.491977 1_555
Ba18 O34 2.731216 1_555
Ba18 O4 2.802496 1_566
Ba18 O40 3.051047 1_655
Ba18 O40 3.051047 1_555
Ba18 O6 3.329317 1_565
Ba18 O7 3.329317 1_565
Ba19 O35 2.865937 1_555
Ba19 O5 2.880757 1_565
Ba19 O3 2.886562 1_565
Ba19 O2 2.886562 1_565
Ba19 O9 2.910612 1_565
Ba19 O8 2.910612 1_565
Ba19 O41 3.054309 1_555
Ba19 O41 3.054309 1_655
Ba19 O38 3.089369 1_555
Ba19 O39 3.089369 1_555
Li0 O11 1.911518 1_555
Li0 O4 1.986373 1_555
Li0 O6 2.000521 1_554
Li0 O7 2.000521 1_554
Li1 O12 1.969181 1_555
Li1 O17 1.969224 1_555
Li1 O18 1.969224 1_455
Li1 O20 2.017460 1_555
Li2 O32 1.911518 1_555
Li2 O25 1.986373 1_555
Li2 O27 2.000521 1_556
Li2 O28 2.000521 1_556
Li3 O33 1.969181 1_555
Li3 O38 1.969224 1_555
Li3 O39 1.969224 1_455
Li3 O41 2.017460 1_555
Bi0 O40 2.085683 1_545
Bi0 O7 2.115604 1_555
Bi0 O6 2.115604 1_455
Bi0 O0 2.159937 1_555
Bi0 O1 2.159937 1_455
Bi1 O8 2.090586 1_555
Bi1 O9 2.090586 1_455
Bi1 O41 2.105339 1_545
Bi1 O10 2.163223 1_555
Bi1 O2 2.229973 1_555
Bi1 O3 2.229973 1_455
Bi2 O15 2.103421 1_555
Bi2 O16 2.103421 1_555
Bi2 O25 2.110453 1_555
Bi2 O14 2.158900 1_555
Bi2 O24 2.232965 1_555
Bi2 O23 2.232965 1_555
Bi3 O13 2.108271 1_555
Bi3 O18 2.111232 1_555
Bi3 O17 2.111232 1_555
Bi3 O26 2.144432 1_555
Bi3 O22 2.282931 1_555
Bi3 O21 2.282931 1_555
Bi4 O19 2.085683 1_555
Bi4 O28 2.115604 1_555
Bi4 O27 2.115604 1_455
Bi4 O22 2.159937 1_455
Bi4 O21 2.159937 1_555
Bi5 O30 2.090586 1_455
Bi5 O29 2.090586 1_555
Bi5 O20 2.105339 1_555
Bi5 O31 2.163223 1_555
Bi5 O23 2.229973 1_555
Bi5 O24 2.229973 1_455
Bi6 O36 2.103421 1_555
Bi6 O37 2.103421 1_555
Bi6 O4 2.110453 1_565
Bi6 O35 2.158900 1_555
Bi6 O3 2.232965 1_565
Bi6 O2 2.232965 1_565
Bi7 O34 2.108271 1_555
Bi7 O39 2.111232 1_555
Bi7 O38 2.111232 1_555
Bi7 O5 2.144432 1_565
Bi7 O0 2.282931 1_565
Bi7 O1 2.282931 1_565
