# generated using pymatgen
data_LiCr2(SO4)3
_symmetry_space_group_name_H-M   'P 1'
_cell_length_a   8.74351981
_cell_length_b   8.74351981
_cell_length_c   8.74351948
_cell_angle_alpha   59.44531763
_cell_angle_beta   59.44531763
_cell_angle_gamma   59.44531910
_symmetry_Int_Tables_number   1
_chemical_formula_structural   LiCr2(SO4)3
_chemical_formula_sum   'Li2 Cr4 S6 O24'
_cell_volume   466.69010028
_cell_formula_units_Z   2
loop_
 _symmetry_equiv_pos_site_id
 _symmetry_equiv_pos_as_xyz
  1  'x, y, z'
loop_
 _atom_site_type_symbol
 _atom_site_label
 _atom_site_symmetry_multiplicity
 _atom_site_fract_x
 _atom_site_fract_y
 _atom_site_fract_z
 _atom_site_occupancy
  Li  Li0  1  0.50000000  0.50000000  0.50000000  1
  Li  Li1  1  0.00000000  0.00000000  0.00000000  1
  Cr  Cr0  1  0.85667400  0.85667400  0.85667400  1
  Cr  Cr1  1  0.64332600  0.64332600  0.64332600  1
  Cr  Cr2  1  0.14332600  0.14332600  0.14332600  1
  Cr  Cr3  1  0.35667400  0.35667400  0.35667400  1
  S  S0  1  0.25000000  0.54451900  0.95548100  1
  S  S1  1  0.45548100  0.04451900  0.75000000  1
  S  S2  1  0.04451900  0.75000000  0.45548100  1
  S  S3  1  0.95548100  0.25000000  0.54451900  1
  S  S4  1  0.54451900  0.95548100  0.25000000  1
  S  S5  1  0.75000000  0.45548100  0.04451900  1
  O  O0  1  0.40870400  0.55923400  0.77082700  1
  O  O1  1  0.22917300  0.59129600  0.44076600  1
  O  O2  1  0.39385000  0.99163300  0.19335400  1
  O  O3  1  0.50836700  0.10615000  0.30664600  1
  O  O4  1  0.09129600  0.72917300  0.94076600  1
  O  O5  1  0.27082700  0.05923400  0.90870400  1
  O  O6  1  0.44076600  0.22917300  0.59129600  1
  O  O7  1  0.69335400  0.49163300  0.89385000  1
  O  O8  1  0.00836700  0.80664600  0.60615000  1
  O  O9  1  0.80664600  0.60615000  0.00836700  1
  O  O10  1  0.89385000  0.69335400  0.49163300  1
  O  O11  1  0.05923400  0.90870400  0.27082700  1
  O  O12  1  0.94076600  0.09129600  0.72917300  1
  O  O13  1  0.19335400  0.39385000  0.99163300  1
  O  O14  1  0.10615000  0.30664600  0.50836700  1
  O  O15  1  0.30664600  0.50836700  0.10615000  1
  O  O16  1  0.99163300  0.19335400  0.39385000  1
  O  O17  1  0.55923400  0.77082700  0.40870400  1
  O  O18  1  0.72917300  0.94076600  0.09129600  1
  O  O19  1  0.90870400  0.27082700  0.05923400  1
  O  O20  1  0.60615000  0.00836700  0.80664600  1
  O  O21  1  0.49163300  0.89385000  0.69335400  1
  O  O22  1  0.77082700  0.40870400  0.55923400  1
  O  O23  1  0.59129600  0.44076600  0.22917300  1
loop_
_geom_bond_atom_site_label_1
_geom_bond_atom_site_label_2
_geom_bond_distance
_geom_bond_site_symmetry_2
Li0 O23 2.327554 1_555
Li0 O0 2.327554 1_555
Li0 O17 2.327554 1_555
Li0 O6 2.327554 1_555
Li0 O1 2.327554 1_555
Li0 O22 2.327554 1_555
Li1 O11 2.327554 1_545
Li1 O12 2.327554 1_454
Li1 O5 2.327554 1_554
Li1 O18 2.327554 1_445
Li1 O4 2.327554 1_544
Li1 O19 2.327554 1_455
Cr0 O8 2.044276 1_655
Cr0 O9 2.044276 1_556
Cr0 O20 2.044276 1_565
Cr0 O18 2.089671 1_556
Cr0 O12 2.089671 1_565
Cr0 O4 2.089671 1_655
Cr1 O7 2.044276 1_555
Cr1 O10 2.044276 1_555
Cr1 O21 2.044276 1_555
Cr1 O17 2.089671 1_555
Cr1 O0 2.089671 1_555
Cr1 O22 2.089671 1_555
Cr2 O16 2.044276 1_455
Cr2 O13 2.044276 1_554
Cr2 O2 2.044276 1_545
Cr2 O5 2.089671 1_554
Cr2 O11 2.089671 1_545
Cr2 O19 2.089671 1_455
Cr3 O15 2.044276 1_555
Cr3 O14 2.044276 1_555
Cr3 O3 2.044276 1_555
Cr3 O6 2.089671 1_555
Cr3 O23 2.089671 1_555
Cr3 O1 2.089671 1_555
O0 S0 1.497084 1_555
O1 S2 1.497084 1_555
O2 S4 1.470218 1_555
O3 S4 1.470218 1_545
O4 S0 1.497084 1_555
O5 S1 1.497084 1_555
O6 S1 1.497084 1_555
O7 S5 1.470217 1_556
O8 S2 1.470217 1_555
O9 S5 1.470218 1_555
O10 S2 1.470218 1_655
O11 S2 1.497084 1_555
O12 S3 1.497084 1_555
O13 S0 1.470218 1_555
O14 S3 1.470218 1_455
O15 S0 1.470217 1_554
O16 S3 1.470217 1_555
O17 S4 1.497084 1_555
O18 S4 1.497084 1_555
O19 S5 1.497084 1_555
O20 S1 1.470218 1_555
O21 S1 1.470218 1_565
O22 S3 1.497084 1_555
O23 S5 1.497084 1_555
