# generated using pymatgen
data_MnSb3(PO4)4
_symmetry_space_group_name_H-M   'P 1'
_cell_length_a   6.70251400
_cell_length_b   4.99013400
_cell_length_c   10.29671116
_cell_angle_alpha   88.69269151
_cell_angle_beta   90.00000000
_cell_angle_gamma   90.00000000
_symmetry_Int_Tables_number   1
_chemical_formula_structural   MnSb3(PO4)4
_chemical_formula_sum   'Mn1 Sb3 P4 O16'
_cell_volume   344.29872105
_cell_formula_units_Z   1
loop_
 _symmetry_equiv_pos_site_id
 _symmetry_equiv_pos_as_xyz
  1  'x, y, z'
loop_
 _atom_site_type_symbol
 _atom_site_label
 _atom_site_symmetry_multiplicity
 _atom_site_fract_x
 _atom_site_fract_y
 _atom_site_fract_z
 _atom_site_occupancy
  Mn  Mn0  1  0.50000000  0.93055900  0.72048800  1
  Sb  Sb0  1  0.00000000  0.06105100  0.28183500  1
  Sb  Sb1  1  0.00000000  0.44426400  0.78632100  1
  Sb  Sb2  1  0.50000000  0.54502600  0.21616300  1
  P  P0  1  0.50000000  0.10077400  0.40948700  1
  P  P1  1  0.50000000  0.38363000  0.89577400  1
  P  P2  1  0.00000000  0.63384500  0.09055300  1
  P  P3  1  0.00000000  0.88461200  0.60423100  1
  O  O0  1  0.50000000  0.16129000  0.55288000  1
  O  O1  1  0.32207200  0.24726200  0.33249200  1
  O  O2  1  0.67792800  0.24726200  0.33249200  1
  O  O3  1  0.00000000  0.19291000  0.61587700  1
  O  O4  1  0.00000000  0.32818800  0.09865400  1
  O  O5  1  0.31715900  0.25349500  0.82233200  1
  O  O6  1  0.68284100  0.25349500  0.82233200  1
  O  O7  1  0.50000000  0.29313200  0.04076800  1
  O  O8  1  0.00000000  0.73036500  0.94713600  1
  O  O9  1  0.82161900  0.76249900  0.16971600  1
  O  O10  1  0.17838100  0.76249900  0.16971600  1
  O  O11  1  0.50000000  0.68730600  0.88125000  1
  O  O12  1  0.50000000  0.79757700  0.38868600  1
  O  O13  1  0.82050100  0.74492300  0.68000500  1
  O  O14  1  0.17949900  0.74492300  0.68000500  1
  O  O15  1  0.00000000  0.80911300  0.46080300  1
loop_
_geom_bond_atom_site_label_1
_geom_bond_atom_site_label_2
_geom_bond_distance
_geom_bond_site_symmetry_2
Mn0 O11 2.030238 1_555
Mn0 O0 2.052664 1_565
Mn0 O5 2.296855 1_565
Mn0 O6 2.296855 1_565
Mn0 O14 2.379937 1_555
Mn0 O13 2.379937 1_555
O0 P0 1.513777 1_555
O1 P0 1.599577 1_555
O1 Sb2 2.232394 1_555
O1 Sb0 2.411966 1_555
O2 P0 1.599577 1_555
O2 Sb2 2.232394 1_555
O2 Sb0 2.411966 1_655
O3 P3 1.545840 1_545
O3 Sb1 2.180311 1_555
O4 P2 1.525647 1_555
O4 Sb0 2.284710 1_555
O5 P1 1.586760 1_555
O5 Sb1 2.355097 1_555
O6 P1 1.586760 1_555
O6 Sb1 2.355097 1_655
O7 P1 1.549874 1_554
O7 Sb2 2.223781 1_555
O8 P2 1.542803 1_556
O8 Sb1 2.210891 1_555
O9 P2 1.590573 1_655
O9 Sb0 2.249502 1_665
O9 Sb2 2.455523 1_555
O10 P2 1.590573 1_555
O10 Sb0 2.249502 1_565
O10 Sb2 2.455523 1_555
O11 P1 1.519346 1_555
O12 P0 1.532909 1_565
O12 Sb2 2.201382 1_555
O13 P3 1.586591 1_655
O13 Sb1 2.195873 1_655
O14 P3 1.586591 1_555
O14 Sb1 2.195873 1_555
O15 P3 1.532441 1_555
O15 Sb0 2.206965 1_565
