# generated using pymatgen
data_Li4FeOF5
_symmetry_space_group_name_H-M   'P 1'
_cell_length_a   5.15430159
_cell_length_b   5.15430159
_cell_length_c   14.43377800
_cell_angle_alpha   90.00000000
_cell_angle_beta   90.00000000
_cell_angle_gamma   119.99999477
_symmetry_Int_Tables_number   1
_chemical_formula_structural   Li4FeOF5
_chemical_formula_sum   'Li12 Fe3 O3 F15'
_cell_volume   332.08581819
_cell_formula_units_Z   3
loop_
 _symmetry_equiv_pos_site_id
 _symmetry_equiv_pos_as_xyz
  1  'x, y, z'
loop_
 _atom_site_type_symbol
 _atom_site_label
 _atom_site_symmetry_multiplicity
 _atom_site_fract_x
 _atom_site_fract_y
 _atom_site_fract_z
 _atom_site_occupancy
  Li  Li0  1  0.12233500  0.55222200  0.49796200  1
  Li  Li1  1  0.44777800  0.57011300  0.83129500  1
  Li  Li2  1  0.77093800  0.55735300  0.17346200  1
  Li  Li3  1  0.42988700  0.87766500  0.16462900  1
  Li  Li4  1  0.79370100  0.88610400  0.00096300  1
  Li  Li5  1  0.76430500  0.91708200  0.50803500  1
  Li  Li6  1  0.08291800  0.84722300  0.84136900  1
  Li  Li7  1  0.11389600  0.90759700  0.33429700  1
  Li  Li8  1  0.78641500  0.22906200  0.84012900  1
  Li  Li9  1  0.09240300  0.20629900  0.66763000  1
  Li  Li10  1  0.15277700  0.23569500  0.17470200  1
  Li  Li11  1  0.44264700  0.21358500  0.50679500  1
  Fe  Fe0  1  0.77998100  0.52973100  0.66020800  1
  Fe  Fe1  1  0.74975000  0.22001900  0.32687400  1
  Fe  Fe2  1  0.47026900  0.25025000  0.99354100  1
  O  O0  1  0.73727800  0.53969200  0.91888200  1
  O  O1  1  0.80241400  0.26272200  0.58554900  1
  O  O2  1  0.46030800  0.19758600  0.25221500  1
  F  F0  1  0.07950700  0.52909100  0.75695400  1
  F  F1  1  0.08608200  0.54399700  0.24434500  1
  F  F2  1  0.45600300  0.54208400  0.57767800  1
  F  F3  1  0.47090900  0.55041600  0.09028700  1
  F  F4  1  0.44958400  0.92049300  0.42362100  1
  F  F5  1  0.45791600  0.91391800  0.91101100  1
  F  F6  1  0.81349400  0.55170600  0.41320700  1
  F  F7  1  0.80534100  0.86671500  0.74882600  1
  F  F8  1  0.81118900  0.92221700  0.24889600  1
  F  F9  1  0.73821100  0.18650600  0.07987400  1
  F  F10  1  0.07778300  0.88897200  0.58223000  1
  F  F11  1  0.13328500  0.93862600  0.08215900  1
  F  F12  1  0.11102800  0.18881100  0.91556300  1
  F  F13  1  0.06137400  0.19465900  0.41549200  1
  F  F14  1  0.44829400  0.26178900  0.74654000  1
loop_
_geom_bond_atom_site_label_1
_geom_bond_atom_site_label_2
_geom_bond_distance
_geom_bond_site_symmetry_2
Li0 O1 2.020732 1_455
Li1 O0 2.020732 1_555
Li2 O2 2.079711 1_555
Li3 O2 2.020723 1_565
Li4 O0 2.038865 1_554
Li5 O1 2.028364 1_565
Li6 O0 2.028356 1_455
Li7 O2 2.038874 1_565
Li8 O0 2.079711 1_555
Li9 O1 2.038865 1_455
Li10 O2 2.028356 1_555
Li11 O1 2.079719 1_555
Fe0 O1 1.796607 1_555
Fe1 O2 1.796607 1_555
Fe2 O0 1.796607 1_555
F0 Li8 1.943896 1_455
F0 Li6 2.035883 1_555
F0 Fe0 2.082914 1_455
F0 Li1 2.097097 1_555
F0 Li9 2.131990 1_555
F1 Li2 1.949825 1_455
F1 Li10 2.049409 1_555
F1 Fe1 2.077945 1_455
F1 Li3 2.091477 1_555
F1 Li7 2.224826 1_555
F2 Li11 1.949821 1_555
F2 Li5 2.049412 1_555
F2 Fe0 2.077951 1_555
F2 Li0 2.091479 1_555
F2 Li9 2.224824 1_555
F3 Li2 1.943896 1_555
F3 Li10 2.035883 1_555
F3 Fe2 2.082914 1_554
F3 Li3 2.097105 1_555
F3 Li4 2.131990 1_555
F4 Li11 1.943887 1_565
F4 Li5 2.035874 1_555
F4 Fe1 2.082924 1_565
F4 Li0 2.097098 1_555
F4 Li7 2.131990 1_555
F5 Li8 1.949815 1_565
F5 Li6 2.049407 1_555
F5 Fe2 2.077956 1_565
F5 Li1 2.091475 1_555
F5 Li4 2.224821 1_556
F6 Fe1 2.005448 1_555
F6 Li0 2.006574 1_655
F6 Li7 2.054099 1_655
F6 Li11 2.276936 1_555
F6 Li5 2.441685 1_555
F7 Li6 1.996246 1_655
F7 Li9 2.009121 1_665
F7 Li1 2.081622 1_555
F7 Fe0 2.107844 1_555
F7 Li8 2.327343 1_565
F8 Li10 2.003148 1_665
F8 Li7 2.019173 1_655
F8 Fe1 2.051649 1_565
F8 Li2 2.091671 1_555
F8 Li3 2.223369 1_555
F9 Fe2 2.005444 1_554
F9 Li3 2.006572 1_545
F9 Li4 2.054109 1_545
F9 Li2 2.276934 1_555
F9 Li10 2.441689 1_655
F10 Li5 2.003156 1_455
F10 Li9 2.019164 1_565
F10 Fe0 2.051649 1_455
F10 Li11 2.091678 1_565
F10 Li0 2.223377 1_555
F11 Li10 1.996246 1_565
F11 Li4 2.009121 1_455
F11 Li3 2.081631 1_555
F11 Fe2 2.107844 1_564
F11 Li2 2.327344 1_455
F12 Li6 2.003148 1_545
F12 Li4 2.019164 1_446
F12 Fe2 2.051649 1_555
F12 Li8 2.091671 1_455
F12 Li1 2.223377 1_555
F13 Li5 1.996246 1_445
F13 Li7 2.009112 1_545
F13 Li0 2.081631 1_555
F13 Fe1 2.107844 1_455
F13 Li11 2.327343 1_555
F14 Fe0 2.005438 1_555
F14 Li1 2.006570 1_555
F14 Li9 2.054097 1_555
F14 Li8 2.276946 1_555
F14 Li6 2.441696 1_545
