# generated using pymatgen
data_Li4Mn2NbNi3(PO4)6
_symmetry_space_group_name_H-M   'P 1'
_cell_length_a   8.54865700
_cell_length_b   8.64067676
_cell_length_c   8.65232849
_cell_angle_alpha   62.05682258
_cell_angle_beta   62.44966841
_cell_angle_gamma   62.33511042
_symmetry_Int_Tables_number   1
_chemical_formula_structural   Li4Mn2NbNi3(PO4)6
_chemical_formula_sum   'Li4 Mn2 Nb1 Ni3 P6 O24'
_cell_volume   474.91641733
_cell_formula_units_Z   1
loop_
 _symmetry_equiv_pos_site_id
 _symmetry_equiv_pos_as_xyz
  1  'x, y, z'
loop_
 _atom_site_type_symbol
 _atom_site_label
 _atom_site_symmetry_multiplicity
 _atom_site_fract_x
 _atom_site_fract_y
 _atom_site_fract_z
 _atom_site_occupancy
  Li  Li0  1  0.25636800  0.64551300  0.85034500  1
  Li  Li1  1  0.69481400  0.35631500  0.15973400  1
  Li  Li2  1  0.35925200  0.15702700  0.69484500  1
  Li  Li3  1  0.15811200  0.69095800  0.35988300  1
  Mn  Mn0  1  0.98527100  0.00303500  0.99992200  1
  Mn  Mn1  1  0.51332200  0.50064800  0.49613800  1
  Nb  Nb0  1  0.14668700  0.14861100  0.15217400  1
  Ni  Ni0  1  0.85747700  0.85297500  0.85116900  1
  Ni  Ni1  1  0.64360000  0.64903700  0.64617600  1
  Ni  Ni2  1  0.35293200  0.34722600  0.35016400  1
  P  P0  1  0.94691300  0.55851300  0.25522700  1
  P  P1  1  0.55919900  0.25093200  0.94776400  1
  P  P2  1  0.25201600  0.94932200  0.55892600  1
  P  P3  1  0.74807600  0.04345900  0.46033800  1
  P  P4  1  0.45122600  0.74614900  0.04258800  1
  P  P5  1  0.05340800  0.46213200  0.75035000  1
  O  O0  1  0.88454900  0.50592600  0.70509800  1
  O  O1  1  0.69106600  0.89102000  0.48439200  1
  O  O2  1  0.94223100  0.73899600  0.08942500  1
  O  O3  1  0.45075400  0.69644000  0.89508600  1
  O  O4  1  0.99092900  0.39411400  0.19156500  1
  O  O5  1  0.75825800  0.56766900  0.40716200  1
  O  O6  1  0.74688200  0.09884500  0.91910000  1
  O  O7  1  0.54264100  0.41632500  0.76865700  1
  O  O8  1  0.82328400  0.00860600  0.60384400  1
  O  O9  1  0.40233300  0.75687600  0.56888300  1
  O  O10  1  0.89602900  0.08457100  0.25487300  1
  O  O11  1  0.60979600  0.81094400  0.98907900  1
  O  O12  1  0.39548000  0.17993800  0.99913600  1
  O  O13  1  0.10124200  0.92318900  0.75058800  1
  O  O14  1  0.58844000  0.23773400  0.44241700  1
  O  O15  1  0.18366900  0.99314000  0.39900100  1
  O  O16  1  0.44448400  0.58415800  0.23399800  1
  O  O17  1  0.24996300  0.89675100  0.09152900  1
  O  O18  1  0.24302100  0.43753500  0.58727600  1
  O  O19  1  0.04611100  0.60131300  0.81671000  1
  O  O20  1  0.52912900  0.30711200  0.10547500  1
  O  O21  1  0.08312700  0.25782500  0.90027500  1
  O  O22  1  0.31287900  0.10511800  0.52549500  1
  O  O23  1  0.10502800  0.52100400  0.31819200  1
loop_
_geom_bond_atom_site_label_1
_geom_bond_atom_site_label_2
_geom_bond_distance
_geom_bond_site_symmetry_2
Li0 O13 2.103251 1_555
Li0 O9 2.126354 1_555
Li0 O3 2.130403 1_555
Li0 O19 2.164891 1_555
Li0 O7 2.371011 1_555
Li0 O2 2.560486 1_456
Li1 O20 1.941298 1_555
Li1 O14 2.078003 1_555
Li1 O16 2.206718 1_555
Li1 O10 2.213054 1_555
Li2 O22 1.955440 1_555
Li2 O18 2.057467 1_555
Li2 O14 2.231157 1_555
Li2 O21 2.269444 1_555
Li3 O23 1.938894 1_555
Li3 O16 2.099681 1_555
Li3 O17 2.215910 1_555
Li3 O18 2.236129 1_555
Mn0 O6 2.129913 1_555
Mn0 O2 2.190961 1_546
Mn0 O13 2.212277 1_645
Mn0 O10 2.311946 1_556
Mn0 O21 2.356710 1_655
Mn0 O17 2.374646 1_646
Mn1 O5 2.128228 1_555
Mn1 O7 2.218223 1_555
Mn1 O9 2.236295 1_555
Mn1 O14 2.268948 1_555
Mn1 O16 2.306057 1_555
Mn1 O18 2.310878 1_555
Nb0 O12 1.985849 1_554
Nb0 O15 2.001737 1_545
Nb0 O4 2.005981 1_455
Nb0 O10 2.136868 1_455
Nb0 O21 2.151234 1_554
Nb0 O17 2.155996 1_545
Ni0 O8 1.997452 1_565
Ni0 O11 2.002405 1_555
Ni0 O19 2.079545 1_655
Ni0 O13 2.114121 1_655
Ni0 O6 2.131621 1_565
Ni0 O2 2.135618 1_556
Ni1 O1 2.003835 1_555
Ni1 O0 2.011747 1_555
Ni1 O3 2.106916 1_555
Ni1 O9 2.115835 1_555
Ni1 O5 2.139955 1_555
Ni1 O7 2.163232 1_555
Ni2 O22 2.001340 1_555
Ni2 O23 2.005112 1_555
Ni2 O20 2.030802 1_555
Ni2 O14 2.143733 1_555
Ni2 O16 2.155397 1_555
Ni2 O18 2.176472 1_555
O0 P5 1.502323 1_655
O1 P3 1.503710 1_565
O2 P0 1.545991 1_555
O3 P4 1.527545 1_556
O4 P0 1.583699 1_555
O5 P0 1.533995 1_555
O6 P1 1.530402 1_555
O7 P1 1.550299 1_555
O8 P3 1.501333 1_555
O9 P2 1.551679 1_555
O10 P3 1.622248 1_555
O11 P4 1.498871 1_556
O12 P1 1.580800 1_555
O13 P2 1.550613 1_555
O14 P3 1.590232 1_555
O15 P2 1.565531 1_555
O16 P4 1.587266 1_555
O17 P4 1.611311 1_555
O18 P5 1.583949 1_555
O19 P5 1.524530 1_555
O20 P1 1.531082 1_554
O21 P5 1.614294 1_555
O22 P2 1.520801 1_545
O23 P0 1.528977 1_455
