# generated using pymatgen
data_Rb3ErO3
_symmetry_space_group_name_H-M   'P 1'
_cell_length_a   7.28071192
_cell_length_b   7.79765931
_cell_length_c   11.60006735
_cell_angle_alpha   86.11685448
_cell_angle_beta   90.00000000
_cell_angle_gamma   90.00000000
_symmetry_Int_Tables_number   1
_chemical_formula_structural   Rb3ErO3
_chemical_formula_sum   'Rb12 Er4 O12'
_cell_volume   657.05304756
_cell_formula_units_Z   4
loop_
 _symmetry_equiv_pos_site_id
 _symmetry_equiv_pos_as_xyz
  1  'x, y, z'
loop_
 _atom_site_type_symbol
 _atom_site_label
 _atom_site_symmetry_multiplicity
 _atom_site_fract_x
 _atom_site_fract_y
 _atom_site_fract_z
 _atom_site_occupancy
  Rb  Rb0  1  0.33490362  0.35965785  0.07924645  1
  Rb  Rb1  1  0.62408219  0.92753596  0.15648511  1
  Rb  Rb2  1  0.80203433  0.37350540  0.19033036  1
  Rb  Rb3  1  0.30203433  0.62649460  0.30966964  1
  Rb  Rb4  1  0.12408219  0.07246404  0.34351489  1
  Rb  Rb5  1  0.83490362  0.64034215  0.42075355  1
  Rb  Rb6  1  0.16509638  0.35965785  0.57924645  1
  Rb  Rb7  1  0.87591781  0.92753596  0.65648511  1
  Rb  Rb8  1  0.69796567  0.37350540  0.69033036  1
  Rb  Rb9  1  0.19796567  0.62649460  0.80966964  1
  Rb  Rb10  1  0.37591781  0.07246404  0.84351489  1
  Rb  Rb11  1  0.66509638  0.64034215  0.92075355  1
  Er  Er0  1  0.08900664  0.83883960  0.06822167  1
  Er  Er1  1  0.58900664  0.16116040  0.43177833  1
  Er  Er2  1  0.41099336  0.83883960  0.56822167  1
  Er  Er3  1  0.91099336  0.16116040  0.93177833  1
  O  O0  1  0.35400586  0.74396257  0.04574667  1
  O  O1  1  0.05018624  0.10978852  0.09464413  1
  O  O2  1  0.94197894  0.69232049  0.19154181  1
  O  O3  1  0.44197894  0.30767951  0.30845819  1
  O  O4  1  0.55018624  0.89021148  0.40535587  1
  O  O5  1  0.85400586  0.25603743  0.45425333  1
  O  O6  1  0.14599414  0.74396257  0.54574667  1
  O  O7  1  0.44981376  0.10978852  0.59464413  1
  O  O8  1  0.55802106  0.69232049  0.69154181  1
  O  O9  1  0.05802106  0.30767951  0.80845819  1
  O  O10  1  0.94981376  0.89021148  0.90535587  1
  O  O11  1  0.64599414  0.25603743  0.95425333  1
loop_
_geom_bond_atom_site_label_1
_geom_bond_atom_site_label_2
_geom_bond_distance
_geom_bond_site_symmetry_2
Er0 O2 2.067908 1_455
Er0 O0 2.089006 1_555
Er0 O10 2.157376 1_454
Er0 O1 2.173781 1_565
Er1 O3 2.067908 1_555
Er1 O5 2.089006 1_555
Er1 O7 2.157376 1_555
Er1 O4 2.173781 1_545
Er2 O8 2.067908 1_555
Er2 O6 2.089006 1_555
Er2 O4 2.157376 1_555
Er2 O7 2.173781 1_565
Er3 O9 2.067908 1_655
Er3 O11 2.089006 1_555
Er3 O1 2.157376 1_656
Er3 O10 2.173781 1_545
O0 Rb1 2.795485 1_555
O0 Rb11 2.836173 1_554
O0 Rb0 2.998783 1_555
O0 Rb9 3.157353 1_554
O0 Rb3 3.158370 1_555
O0 Rb10 3.358022 1_564
O1 Rb0 2.842203 1_555
O1 Rb4 2.931665 1_555
O1 Rb2 3.005678 1_455
O1 Rb1 3.467087 1_445
O2 Rb2 2.687626 1_555
O2 Rb5 2.774106 1_555
O2 Rb1 2.964011 1_555
O2 Rb3 2.986293 1_655
O3 Rb3 2.687626 1_555
O3 Rb0 2.774106 1_555
O3 Rb4 2.964011 1_555
O3 Rb2 2.986293 1_555
O4 Rb5 2.842203 1_555
O4 Rb1 2.931665 1_555
O4 Rb3 3.005678 1_555
O4 Rb4 3.467087 1_565
O5 Rb4 2.795485 1_655
O5 Rb6 2.836173 1_655
O5 Rb5 2.998783 1_555
O5 Rb8 3.157353 1_555
O5 Rb2 3.158370 1_555
O5 Rb7 3.358022 1_545
O6 Rb7 2.795485 1_455
O6 Rb5 2.836173 1_455
O6 Rb6 2.998783 1_555
O6 Rb3 3.157353 1_555
O6 Rb9 3.158370 1_555
O6 Rb4 3.358022 1_565
O7 Rb6 2.842203 1_555
O7 Rb10 2.931665 1_555
O7 Rb8 3.005678 1_555
O7 Rb7 3.467087 1_545
O8 Rb8 2.687626 1_555
O8 Rb11 2.774106 1_555
O8 Rb7 2.964011 1_555
O8 Rb9 2.986293 1_555
O9 Rb9 2.687626 1_555
O9 Rb6 2.774106 1_555
O9 Rb10 2.964011 1_555
O9 Rb8 2.986293 1_455
O10 Rb11 2.842203 1_555
O10 Rb7 2.931665 1_555
O10 Rb9 3.005678 1_655
O10 Rb10 3.467087 1_665
O11 Rb10 2.795485 1_555
O11 Rb0 2.836173 1_556
O11 Rb11 2.998783 1_555
O11 Rb2 3.157353 1_556
O11 Rb8 3.158370 1_555
O11 Rb1 3.358022 1_546
