# generated using pymatgen
data_Ca3Pb3I14
_symmetry_space_group_name_H-M   'P 1'
_cell_length_a   4.50978100
_cell_length_b   17.03386800
_cell_length_c   24.30752068
_cell_angle_alpha   76.08895642
_cell_angle_beta   90.00000000
_cell_angle_gamma   90.00000000
_symmetry_Int_Tables_number   1
_chemical_formula_structural   Ca3Pb3I14
_chemical_formula_sum   'Ca6 Pb6 I28'
_cell_volume   1812.51276164
_cell_formula_units_Z   2
loop_
 _symmetry_equiv_pos_site_id
 _symmetry_equiv_pos_as_xyz
  1  'x, y, z'
loop_
 _atom_site_type_symbol
 _atom_site_label
 _atom_site_symmetry_multiplicity
 _atom_site_fract_x
 _atom_site_fract_y
 _atom_site_fract_z
 _atom_site_occupancy
  Ca  Ca0  1  0.25000000  0.94382500  0.81305700  1
  Ca  Ca1  1  0.75000000  0.70444200  0.54197000  1
  Ca  Ca2  1  0.75000000  0.40098400  0.86647100  1
  Ca  Ca3  1  0.25000000  0.59901600  0.13352900  1
  Ca  Ca4  1  0.25000000  0.29555800  0.45803000  1
  Ca  Ca5  1  0.75000000  0.05617500  0.18694300  1
  Pb  Pb0  1  0.75000000  0.75657100  0.97845600  1
  Pb  Pb1  1  0.25000000  0.87447400  0.36411500  1
  Pb  Pb2  1  0.25000000  0.53415700  0.70730100  1
  Pb  Pb3  1  0.75000000  0.46584300  0.29269900  1
  Pb  Pb4  1  0.75000000  0.12552600  0.63588500  1
  Pb  Pb5  1  0.25000000  0.24342900  0.02154400  1
  I  I0  1  0.25000000  0.89208400  0.96376100  1
  I  I1  1  0.75000000  0.94577200  0.70855200  1
  I  I2  1  0.75000000  0.79553900  0.84239500  1
  I  I3  1  0.75000000  0.90434500  0.44963600  1
  I  I4  1  0.25000000  0.81180400  0.57748000  1
  I  I5  1  0.25000000  0.95276600  0.14843100  1
  I  I6  1  0.75000000  0.84467000  0.27948800  1
  I  I7  1  0.75000000  0.67042800  0.68770700  1
  I  I8  1  0.25000000  0.53497900  0.84146500  1
  I  I9  1  0.25000000  0.69622300  0.43977200  1
  I  I10  1  0.75000000  0.73223700  0.11533900  1
  I  I11  1  0.25000000  0.55418800  0.57420200  1
  I  I12  1  0.75000000  0.38950700  0.99787000  1
  I  I13  1  0.25000000  0.60814800  0.26295100  1
  I  I14  1  0.75000000  0.39185200  0.73704900  1
  I  I15  1  0.25000000  0.61049300  0.00213000  1
  I  I16  1  0.75000000  0.44581200  0.42579800  1
  I  I17  1  0.25000000  0.26776300  0.88466100  1
  I  I18  1  0.75000000  0.30377700  0.56022800  1
  I  I19  1  0.75000000  0.46502100  0.15853500  1
  I  I20  1  0.25000000  0.32957200  0.31229300  1
  I  I21  1  0.25000000  0.15533000  0.72051200  1
  I  I22  1  0.75000000  0.04723400  0.85156900  1
  I  I23  1  0.75000000  0.18819600  0.42252000  1
  I  I24  1  0.25000000  0.09565500  0.55036400  1
  I  I25  1  0.25000000  0.20446100  0.15760500  1
  I  I26  1  0.25000000  0.05422800  0.29144800  1
  I  I27  1  0.75000000  0.10791600  0.03623900  1
loop_
_geom_bond_atom_site_label_1
_geom_bond_atom_site_label_2
_geom_bond_distance
_geom_bond_site_symmetry_2
Ca0 I22 3.139501 1_565
Ca0 I22 3.139501 1_465
Ca0 I2 3.332726 1_455
Ca0 I2 3.332726 1_555
Ca0 I1 3.390875 1_555
Ca0 I1 3.390875 1_455
Ca0 I0 3.555798 1_555
Ca0 I21 3.760761 1_565
Ca1 I4 3.151676 1_655
Ca1 I4 3.151676 1_555
Ca1 I11 3.359279 1_655
Ca1 I11 3.359279 1_555
Ca1 I9 3.382678 1_655
Ca1 I9 3.382678 1_555
Ca1 I7 3.449367 1_555
Ca1 I3 3.599651 1_555
Ca2 I12 3.152700 1_555
Ca2 I17 3.153912 1_655
Ca2 I17 3.153912 1_555
Ca2 I8 3.161725 1_655
Ca2 I8 3.161725 1_555
Ca2 I14 3.186904 1_555
Ca3 I15 3.152700 1_555
Ca3 I10 3.153912 1_455
Ca3 I10 3.153912 1_555
Ca3 I19 3.161725 1_555
Ca3 I19 3.161725 1_455
Ca3 I13 3.186904 1_555
Ca4 I23 3.151676 1_555
Ca4 I23 3.151676 1_455
Ca4 I16 3.359279 1_455
Ca4 I16 3.359279 1_555
Ca4 I18 3.382678 1_455
Ca4 I18 3.382678 1_555
Ca4 I20 3.449367 1_555
Ca4 I24 3.599651 1_555
Ca5 I5 3.139501 1_545
Ca5 I5 3.139501 1_645
Ca5 I25 3.332726 1_655
Ca5 I25 3.332726 1_555
Ca5 I26 3.390875 1_655
Ca5 I26 3.390875 1_555
Ca5 I27 3.555798 1_555
Ca5 I6 3.760761 1_545
I0 Pb0 3.184959 1_455
I0 Pb0 3.184959 1_555
I1 Pb4 3.145592 1_565
I2 Pb0 3.212989 1_555
I3 Pb1 3.189583 1_655
I3 Pb1 3.189583 1_555
I6 Pb1 3.174265 1_655
I6 Pb1 3.174265 1_555
I7 Pb2 3.188709 1_555
I7 Pb2 3.188709 1_655
I8 Pb2 3.264589 1_555
I9 Pb1 3.149015 1_555
I10 Pb0 3.252615 1_554
I11 Pb2 3.170621 1_555
I12 Pb5 3.304344 1_656
I12 Pb5 3.304344 1_556
I13 Pb3 3.261963 1_455
I13 Pb3 3.261963 1_555
I14 Pb2 3.261963 1_555
I14 Pb2 3.261963 1_655
I15 Pb0 3.304344 1_454
I15 Pb0 3.304344 1_554
I16 Pb3 3.170621 1_555
I17 Pb5 3.252615 1_556
I18 Pb4 3.149015 1_555
I19 Pb3 3.264589 1_555
I20 Pb3 3.188709 1_455
I20 Pb3 3.188709 1_555
I21 Pb4 3.174265 1_555
I21 Pb4 3.174265 1_455
I24 Pb4 3.189583 1_455
I24 Pb4 3.189583 1_555
I25 Pb5 3.212989 1_555
I26 Pb1 3.145592 1_545
I27 Pb5 3.184959 1_555
I27 Pb5 3.184959 1_655
