# generated using pymatgen
data_BeH4NF3
_symmetry_space_group_name_H-M   'P 1'
_cell_length_a   4.37137700
_cell_length_b   6.01780300
_cell_length_c   13.95821000
_cell_angle_alpha   90.00000000
_cell_angle_beta   90.00000000
_cell_angle_gamma   90.00000000
_symmetry_Int_Tables_number   1
_chemical_formula_structural   BeH4NF3
_chemical_formula_sum   'Be4 H16 N4 F12'
_cell_volume   367.18586743
_cell_formula_units_Z   4
loop_
 _symmetry_equiv_pos_site_id
 _symmetry_equiv_pos_as_xyz
  1  'x, y, z'
loop_
 _atom_site_type_symbol
 _atom_site_label
 _atom_site_symmetry_multiplicity
 _atom_site_fract_x
 _atom_site_fract_y
 _atom_site_fract_z
 _atom_site_occupancy
  Be  Be0  1  0.59154600  0.52861100  0.61836800  1
  Be  Be1  1  0.90845400  0.47138900  0.11836800  1
  Be  Be2  1  0.40845400  0.02861100  0.88163200  1
  Be  Be3  1  0.09154600  0.97138900  0.38163200  1
  H  H0  1  0.00507300  0.05659000  0.71638300  1
  H  H1  1  0.49492700  0.94341000  0.21638300  1
  H  H2  1  0.99492700  0.55659000  0.78361700  1
  H  H3  1  0.50507300  0.44341000  0.28361700  1
  H  H4  1  0.21046500  0.95161000  0.62463400  1
  H  H5  1  0.28953500  0.04839000  0.12463400  1
  H  H6  1  0.78953500  0.45161000  0.87536600  1
  H  H7  1  0.71046500  0.54839000  0.37536600  1
  H  H8  1  0.82027600  0.94776000  0.62298300  1
  H  H9  1  0.67972400  0.05224000  0.12298300  1
  H  H10  1  0.17972400  0.44776000  0.87701700  1
  H  H11  1  0.32027600  0.55224000  0.37701700  1
  H  H12  1  0.00746600  0.19738000  0.61206400  1
  H  H13  1  0.49253400  0.80262000  0.11206400  1
  H  H14  1  0.99253400  0.69738000  0.88793600  1
  H  H15  1  0.50746600  0.30262000  0.38793600  1
  N  N0  1  0.01252600  0.03781500  0.64326100  1
  N  N1  1  0.48747400  0.96218500  0.14326100  1
  N  N2  1  0.98747400  0.53781500  0.85673900  1
  N  N3  1  0.51252600  0.46218500  0.35673900  1
  F  F0  1  0.86730000  0.44856700  0.56686500  1
  F  F1  1  0.63270000  0.55143300  0.06686500  1
  F  F2  1  0.13270000  0.94856700  0.93313500  1
  F  F3  1  0.36730000  0.05143300  0.43313500  1
  F  F4  1  0.43234400  0.38029400  0.68533400  1
  F  F5  1  0.06765600  0.61970600  0.18533400  1
  F  F6  1  0.56765600  0.88029400  0.81466600  1
  F  F7  1  0.93234400  0.11970600  0.31466600  1
  F  F8  1  0.51328500  0.76881200  0.60835100  1
  F  F9  1  0.98671500  0.23118800  0.10835100  1
  F  F10  1  0.48671500  0.26881200  0.89164900  1
  F  F11  1  0.01328500  0.73118800  0.39164900  1
loop_
_geom_bond_atom_site_label_1
_geom_bond_atom_site_label_2
_geom_bond_distance
_geom_bond_site_symmetry_2
Be0 F4 1.467878 1_555
Be0 F0 1.483872 1_555
Be0 F8 1.491981 1_555
Be1 F5 1.467878 1_655
Be1 F1 1.483872 1_555
Be1 F9 1.491981 1_555
Be2 F6 1.467878 1_545
Be2 F2 1.483872 1_545
Be2 F10 1.491981 1_555
Be3 F7 1.467878 1_465
Be3 F3 1.483872 1_565
Be3 F11 1.491981 1_555
H0 N0 1.027403 1_555
H1 N1 1.027403 1_555
H2 N2 1.027403 1_555
H3 N3 1.027403 1_555
H4 N0 1.041826 1_565
H5 N1 1.041826 1_545
H6 N2 1.041826 1_555
H7 N3 1.041826 1_555
H8 N0 1.039266 1_665
H9 N1 1.039266 1_545
H10 N2 1.039266 1_455
H11 N3 1.039266 1_555
H12 N0 1.054587 1_555
H13 N1 1.054587 1_555
H14 N2 1.054587 1_555
H15 N3 1.054587 1_555
