# generated using pymatgen
data_NaCa8SmTi10(SiO5)10
_symmetry_space_group_name_H-M   'P 1'
_cell_length_a   5.50110900
_cell_length_b   7.51922486
_cell_length_c   24.29356077
_cell_angle_alpha   81.89364673
_cell_angle_beta   87.52270816
_cell_angle_gamma   72.46126602
_symmetry_Int_Tables_number   1
_chemical_formula_structural   NaCa8SmTi10(SiO5)10
_chemical_formula_sum   'Na1 Ca8 Sm1 Ti10 Si10 O50'
_cell_volume   948.59297806
_cell_formula_units_Z   1
loop_
 _symmetry_equiv_pos_site_id
 _symmetry_equiv_pos_as_xyz
  1  'x, y, z'
loop_
 _atom_site_type_symbol
 _atom_site_label
 _atom_site_symmetry_multiplicity
 _atom_site_fract_x
 _atom_site_fract_y
 _atom_site_fract_z
 _atom_site_occupancy
  Na  Na0  1  0.61185400  0.21620500  0.01705100  1
  Ca  Ca0  1  0.78743500  0.38311200  0.18349500  1
  Ca  Ca1  1  0.18820000  0.98191800  0.38385000  1
  Ca  Ca2  1  0.58846500  0.58192900  0.58387900  1
  Ca  Ca3  1  0.98860300  0.18216600  0.78356100  1
  Ca  Ca4  1  0.01305500  0.81737900  0.21577400  1
  Ca  Ca5  1  0.41262400  0.41774600  0.41585600  1
  Ca  Ca6  1  0.81227900  0.01787800  0.61578600  1
  Ca  Ca7  1  0.21142500  0.61959700  0.81534900  1
  Sm  Sm0  1  0.38523700  0.78252600  0.98533200  1
  Ti  Ti0  1  0.39905000  0.10194300  0.19985800  1
  Ti  Ti1  1  0.70425800  0.80373100  0.09987900  1
  Ti  Ti2  1  0.80016400  0.70006200  0.39992700  1
  Ti  Ti3  1  0.09957200  0.40027300  0.29999600  1
  Ti  Ti4  1  0.20012400  0.30016400  0.59987900  1
  Ti  Ti5  1  0.49982600  0.00000000  0.49987800  1
  Ti  Ti6  1  0.59826800  0.90247900  0.79968600  1
  Ti  Ti7  1  0.89947000  0.60050500  0.69996200  1
  Ti  Ti8  1  0.00055500  0.48554400  0.00230400  1
  Ti  Ti9  1  0.30334600  0.20493800  0.89973000  1
  Si  Si0  1  0.10618400  0.07270600  0.08635800  1
  Si  Si1  1  0.50445400  0.67770600  0.28635900  1
  Si  Si2  1  0.29508100  0.52387000  0.11426000  1
  Si  Si3  1  0.90442500  0.27755800  0.48639900  1
  Si  Si4  1  0.69526100  0.12278300  0.31352500  1
  Si  Si5  1  0.30426300  0.87766100  0.68621500  1
  Si  Si6  1  0.09533300  0.72285400  0.51359700  1
  Si  Si7  1  0.70422100  0.48060700  0.88681200  1
  Si  Si8  1  0.49506000  0.32340900  0.71346300  1
  Si  Si9  1  0.89655900  0.92085900  0.91309100  1
  O  O0  1  0.47596100  0.64453800  0.13215900  1
  O  O1  1  0.75206300  0.67691600  0.03583800  1
  O  O2  1  0.87256400  0.24636200  0.33197600  1
  O  O3  1  0.96681900  0.29195700  0.05956500  1
  O  O4  1  0.11550400  0.07004300  0.15449200  1
  O  O5  1  0.00473100  0.60361000  0.14001500  1
  O  O6  1  0.15067600  0.27714000  0.23629400  1
  O  O7  1  0.27275800  0.84634600  0.53190400  1
  O  O8  1  0.35744300  0.89335400  0.25803200  1
  O  O9  1  0.39196700  0.98493000  0.05928800  1
  O  O10  1  0.51293500  0.67300900  0.35464900  1
  O  O11  1  0.27871000  0.53718500  0.04576400  1
  O  O12  1  0.40500900  0.20353600  0.33927300  1
  O  O13  1  0.43918100  0.30729100  0.14252500  1
  O  O14  1  0.55187700  0.87792100  0.43611200  1
  O  O15  1  0.67258100  0.44624100  0.73196700  1
  O  O16  1  0.64811600  0.92395800  0.16329700  1
  O  O17  1  0.75679800  0.49374300  0.45819300  1
  O  O18  1  0.79504500  0.59662100  0.26089100  1
  O  O19  1  0.91281400  0.27303600  0.55462700  1
  O  O20  1  0.68670400  0.12737900  0.24537800  1
  O  O21  1  0.80517200  0.80362000  0.53925000  1
  O  O22  1  0.84259800  0.90653500  0.34191400  1
  O  O23  1  0.95196600  0.47778700  0.63617600  1
  O  O24  1  0.07518700  0.04422600  0.93151900  1
  O  O25  1  0.93407200  0.94683000  0.06790900  1
  O  O26  1  0.04771100  0.52179700  0.36409900  1
  O  O27  1  0.15661000  0.09389500  0.65815100  1
  O  O28  1  0.19472300  0.19667500  0.46078000  1
  O  O29  1  0.31223100  0.87357600  0.75451500  1
  O  O30  1  0.08696300  0.72735300  0.44536700  1
  O  O31  1  0.20534700  0.40393000  0.73929000  1
  O  O32  1  0.24265300  0.50653900  0.54187400  1
  O  O33  1  0.35146200  0.08040300  0.83537600  1
  O  O34  1  0.32714700  0.55337700  0.26836300  1
  O  O35  1  0.44755300  0.12202400  0.56403300  1
  O  O36  1  0.55295100  0.69581800  0.85810800  1
  O  O37  1  0.59446600  0.79674500  0.66074000  1
  O  O38  1  0.70616700  0.48690000  0.95445900  1
  O  O39  1  0.48690200  0.32765800  0.64530600  1
  O  O40  1  0.60252500  0.99434600  0.93718500  1
  O  O41  1  0.64279800  0.10656500  0.74154100  1
  O  O42  1  0.72701200  0.15379700  0.46824200  1
  O  O43  1  0.84623300  0.72182300  0.76411800  1
  O  O44  1  0.99425000  0.39826700  0.86123700  1
  O  O45  1  0.88843000  0.92742700  0.84476900  1
  O  O46  1  0.05083000  0.70704500  0.94204700  1
  O  O47  1  0.12686000  0.75394400  0.66824900  1
  O  O48  1  0.24427600  0.32209800  0.96339900  1
  O  O49  1  0.52998500  0.35378800  0.86863100  1
loop_
_geom_bond_atom_site_label_1
_geom_bond_atom_site_label_2
_geom_bond_distance
_geom_bond_site_symmetry_2
Na0 O48 2.320871 1_554
Na0 O25 2.467946 1_545
Na0 O9 2.489472 1_545
Na0 O3 2.492950 1_555
Na0 O38 2.533708 1_554
Na0 O11 2.714540 1_555
Na0 O40 2.742822 1_544
Ca0 O6 2.290586 1_655
Ca0 O0 2.412192 1_555
Ca0 O5 2.425892 1_655
Ca0 O13 2.443162 1_555
Ca0 O20 2.453500 1_555
Ca0 O18 2.648204 1_555
Ca0 O4 2.663144 1_655
Ca1 O14 2.285311 1_555
Ca1 O12 2.439140 1_565
Ca1 O22 2.439983 1_455
Ca1 O2 2.440984 1_465
Ca1 O30 2.443618 1_555
Ca1 O10 2.635145 1_555
Ca1 O28 2.644528 1_565
Ca2 O23 2.285004 1_555
Ca2 O21 2.439595 1_555
Ca2 O39 2.441637 1_555
Ca2 O32 2.441824 1_555
Ca2 O7 2.442129 1_555
Ca2 O19 2.634661 1_555
Ca2 O37 2.642861 1_555
Ca3 O33 2.275859 1_655
Ca3 O31 2.437325 1_655
Ca3 O15 2.437627 1_555
Ca3 O45 2.438383 1_545
Ca3 O41 2.442802 1_555
Ca3 O29 2.629622 1_645
Ca3 O44 2.665036 1_555
Ca4 O16 2.293747 1_455
Ca4 O4 2.432802 1_565
Ca4 O8 2.440342 1_555
Ca4 O34 2.442667 1_555
Ca4 O18 2.442969 1_455
Ca4 O5 2.618967 1_555
Ca4 O20 2.648148 1_465
Ca5 O26 2.284079 1_555
Ca5 O17 2.440347 1_555
Ca5 O42 2.441087 1_555
Ca5 O10 2.441728 1_555
Ca5 O28 2.442813 1_555
Ca5 O12 2.636281 1_555
Ca5 O30 2.643688 1_555
Ca6 O35 2.283204 1_555
Ca6 O19 2.441091 1_555
Ca6 O27 2.441505 1_655
Ca6 O47 2.442362 1_645
Ca6 O37 2.443083 1_545
Ca6 O21 2.634991 1_545
Ca6 O39 2.644073 1_555
Ca7 O43 2.278464 1_455
Ca7 O29 2.431081 1_555
Ca7 O36 2.433695 1_555
Ca7 O44 2.449426 1_455
Ca7 O49 2.469152 1_555
Ca7 O45 2.627460 1_455
Ca7 O31 2.632126 1_555
O0 Si2 1.641718 1_555
O0 Ti1 2.044803 1_555
O1 Ti1 1.905455 1_555
O1 Ti8 1.910952 1_655
O1 Sm0 2.276319 1_554
O2 Si4 1.648394 1_555
O2 Ti3 2.008979 1_655
O3 Si0 1.645618 1_655
O3 Ti8 1.912539 1_655
O4 Si0 1.655338 1_555
O4 Ti0 2.038100 1_555
O5 Si2 1.656619 1_555
O5 Ti1 2.042954 1_455
O6 Ti0 1.877566 1_555
O6 Ti3 1.881693 1_555
O7 Si6 1.647087 1_555
O7 Ti5 2.008179 1_565
O8 Si1 1.643151 1_555
O8 Ti0 2.018146 1_565
O9 Si0 1.657504 1_565
O9 Ti1 2.033936 1_555
O9 Sm0 2.521199 1_554
O10 Si1 1.656775 1_555
O10 Ti2 2.038385 1_555
O11 Si2 1.657590 1_555
O11 Ti8 2.054327 1_555
O11 Sm0 2.390675 1_554
O12 Si4 1.657068 1_555
O12 Ti3 2.040703 1_555
O13 Si2 1.644860 1_555
O13 Ti0 1.986241 1_555
O14 Ti5 1.878455 1_565
O14 Ti2 1.885122 1_555
O15 Si8 1.645430 1_555
O15 Ti7 2.010521 1_555
O16 Ti1 1.862689 1_555
O16 Ti0 1.892650 1_565
O17 Si3 1.646142 1_555
O17 Ti2 2.010422 1_555
O18 Si1 1.656331 1_555
O18 Ti3 2.034698 1_655
O19 Si3 1.655406 1_555
O19 Ti4 2.038614 1_655
O20 Si4 1.653427 1_555
O20 Ti0 2.038833 1_555
O21 Si6 1.655769 1_655
O21 Ti5 2.040216 1_565
O22 Si4 1.647503 1_565
O22 Ti2 2.005981 1_555
O23 Ti7 1.881501 1_555
O23 Ti4 1.885244 1_655
O24 Si9 1.652586 1_445
O24 Ti9 2.049194 1_555
O24 Sm0 2.436139 1_545
O25 Si0 1.639997 1_665
O25 Ti1 1.964319 1_555
O26 Ti2 1.880204 1_455
O26 Ti3 1.883429 1_555
O27 Si5 1.645434 1_545
O27 Ti4 2.010503 1_555
O28 Si3 1.656195 1_455
O28 Ti5 2.037623 1_555
O29 Si5 1.657431 1_555
O29 Ti6 2.037165 1_555
O30 Si6 1.655470 1_555
O30 Ti2 2.039474 1_455
O31 Si8 1.655108 1_555
O31 Ti7 2.042215 1_455
O32 Si6 1.647060 1_555
O32 Ti4 2.005510 1_555
O33 Ti6 1.874990 1_545
O33 Ti9 1.902318 1_555
O34 Si1 1.648686 1_555
O34 Ti3 2.004776 1_555
O35 Ti4 1.879593 1_555
O35 Ti5 1.886575 1_555
O36 Si7 1.648543 1_555
O36 Ti6 2.017945 1_555
O37 Si5 1.654442 1_555
O37 Ti7 2.037144 1_555
O38 Si7 1.651312 1_555
O38 Ti8 2.030563 1_656
O38 Sm0 2.571198 1_555
O39 Si8 1.653865 1_555
O39 Ti4 2.039819 1_555
O40 Si9 1.653775 1_555
O40 Ti9 2.048533 1_565
O40 Sm0 2.415544 1_555
O41 Si8 1.649219 1_555
O41 Ti6 1.998882 1_545
O42 Si3 1.647252 1_555
O42 Ti5 2.006822 1_555
O43 Ti7 1.883499 1_555
O43 Ti6 1.888101 1_555
O44 Si7 1.656003 1_555
O44 Ti9 2.035498 1_655
O45 Si9 1.655685 1_555
O45 Ti6 2.042583 1_555
O46 Si9 1.646250 1_455
O46 Ti8 2.132684 1_556
O46 Sm0 2.403508 1_555
O47 Si5 1.645226 1_555
O47 Ti7 2.006303 1_455
O48 Ti8 1.851005 1_556
O48 Ti9 1.855370 1_555
O49 Si7 1.652075 1_555
O49 Ti9 1.974595 1_555
