# generated using pymatgen
data_Li2Cr3CoO8
_symmetry_space_group_name_H-M   'P 1'
_cell_length_a   5.83594223
_cell_length_b   5.83594223
_cell_length_c   5.83594233
_cell_angle_alpha   61.54419167
_cell_angle_beta   61.54419167
_cell_angle_gamma   61.54419461
_symmetry_Int_Tables_number   1
_chemical_formula_structural   Li2Cr3CoO8
_chemical_formula_sum   'Li2 Cr3 Co1 O8'
_cell_volume   145.41608142
_cell_formula_units_Z   1
loop_
 _symmetry_equiv_pos_site_id
 _symmetry_equiv_pos_as_xyz
  1  'x, y, z'
loop_
 _atom_site_type_symbol
 _atom_site_label
 _atom_site_symmetry_multiplicity
 _atom_site_fract_x
 _atom_site_fract_y
 _atom_site_fract_z
 _atom_site_occupancy
  Li  Li0  1  0.87572700  0.87572700  0.87572700  1
  Li  Li1  1  0.12427300  0.12427300  0.12427300  1
  Cr  Cr0  1  0.00000000  0.50000000  0.50000000  1
  Cr  Cr1  1  0.50000000  0.00000000  0.50000000  1
  Cr  Cr2  1  0.50000000  0.50000000  0.00000000  1
  Co  Co0  1  0.50000000  0.50000000  0.50000000  1
  O  O0  1  0.73530200  0.73530200  0.73530200  1
  O  O1  1  0.73151300  0.73151300  0.29109700  1
  O  O2  1  0.73151300  0.29109700  0.73151300  1
  O  O3  1  0.29109700  0.73151300  0.73151300  1
  O  O4  1  0.70890300  0.26848700  0.26848700  1
  O  O5  1  0.26848700  0.70890300  0.26848700  1
  O  O6  1  0.26848700  0.26848700  0.70890300  1
  O  O7  1  0.26469800  0.26469800  0.26469800  1
loop_
_geom_bond_atom_site_label_1
_geom_bond_atom_site_label_2
_geom_bond_distance
_geom_bond_site_symmetry_2
Li0 O0 1.983640 1_555
Li0 O1 2.019759 1_556
Li0 O3 2.019759 1_655
Li0 O2 2.019759 1_565
Li1 O7 1.983640 1_555
Li1 O6 2.019759 1_554
Li1 O5 2.019759 1_545
Li1 O4 2.019759 1_455
Cr0 O7 1.977802 1_555
Cr0 O0 1.977802 1_455
Cr0 O5 2.000037 1_555
Cr0 O2 2.000037 1_455
Cr0 O6 2.000037 1_555
Cr0 O1 2.000037 1_455
Cr1 O7 1.977802 1_555
Cr1 O0 1.977802 1_545
Cr1 O4 2.000037 1_555
Cr1 O3 2.000037 1_545
Cr1 O6 2.000037 1_555
Cr1 O1 2.000037 1_545
Cr2 O7 1.977801 1_555
Cr2 O0 1.977801 1_554
Cr2 O4 2.000037 1_555
Cr2 O5 2.000037 1_555
Cr2 O3 2.000037 1_554
Cr2 O2 2.000037 1_554
Co0 O1 1.933243 1_555
Co0 O6 1.933243 1_555
Co0 O2 1.933243 1_555
Co0 O3 1.933243 1_555
Co0 O4 1.933243 1_555
Co0 O5 1.933243 1_555
