# generated using pymatgen
data_Ba2YBr7
_symmetry_space_group_name_H-M   'P 1'
_cell_length_a   16.60444300
_cell_length_b   7.32186300
_cell_length_c   11.26403850
_cell_angle_alpha   89.31948195
_cell_angle_beta   90.00000000
_cell_angle_gamma   90.00000000
_symmetry_Int_Tables_number   1
_chemical_formula_structural   Ba2YBr7
_chemical_formula_sum   'Ba8 Y4 Br28'
_cell_volume   1369.33403477
_cell_formula_units_Z   4
loop_
 _symmetry_equiv_pos_site_id
 _symmetry_equiv_pos_as_xyz
  1  'x, y, z'
loop_
 _atom_site_type_symbol
 _atom_site_label
 _atom_site_symmetry_multiplicity
 _atom_site_fract_x
 _atom_site_fract_y
 _atom_site_fract_z
 _atom_site_occupancy
  Ba  Ba0  1  0.22040700  0.73287300  0.04818300  1
  Ba  Ba1  1  0.56010000  0.73186200  0.17590600  1
  Ba  Ba2  1  0.06010000  0.26813800  0.32409400  1
  Ba  Ba3  1  0.72040700  0.26712700  0.45181700  1
  Ba  Ba4  1  0.27959300  0.73287300  0.54818300  1
  Ba  Ba5  1  0.93990000  0.73186200  0.67590600  1
  Ba  Ba6  1  0.43990000  0.26813800  0.82409400  1
  Ba  Ba7  1  0.77959300  0.26712700  0.95181700  1
  Y  Y0  1  0.87282700  0.78364300  0.21822700  1
  Y  Y1  1  0.37282700  0.21635700  0.28177300  1
  Y  Y2  1  0.62717300  0.78364300  0.71822700  1
  Y  Y3  1  0.12717300  0.21635700  0.78177300  1
  Br  Br0  1  0.13957100  0.29369300  0.02863000  1
  Br  Br1  1  0.39602900  0.99865100  0.06983600  1
  Br  Br2  1  0.39487800  0.48847600  0.08402800  1
  Br  Br3  1  0.93000800  0.13072100  0.12226900  1
  Br  Br4  1  0.74164000  0.50936400  0.19870700  1
  Br  Br5  1  0.72617300  0.99958000  0.20624700  1
  Br  Br6  1  0.04063400  0.70220900  0.21291500  1
  Br  Br7  1  0.54063400  0.29779100  0.28708500  1
  Br  Br8  1  0.22617300  0.00042000  0.29375300  1
  Br  Br9  1  0.24164000  0.49063600  0.30129300  1
  Br  Br10  1  0.43000800  0.86927900  0.37773100  1
  Br  Br11  1  0.89487800  0.51152400  0.41597200  1
  Br  Br12  1  0.89602900  0.00134900  0.43016400  1
  Br  Br13  1  0.63957100  0.70630700  0.47137000  1
  Br  Br14  1  0.36042900  0.29369300  0.52863000  1
  Br  Br15  1  0.10397100  0.99865100  0.56983600  1
  Br  Br16  1  0.10512200  0.48847600  0.58402800  1
  Br  Br17  1  0.56999200  0.13072100  0.62226900  1
  Br  Br18  1  0.75836000  0.50936400  0.69870700  1
  Br  Br19  1  0.77382700  0.99958000  0.70624700  1
  Br  Br20  1  0.45936600  0.70220900  0.71291500  1
  Br  Br21  1  0.95936600  0.29779100  0.78708500  1
  Br  Br22  1  0.27382700  0.00042000  0.79375300  1
  Br  Br23  1  0.25836000  0.49063600  0.80129300  1
  Br  Br24  1  0.06999200  0.86927900  0.87773100  1
  Br  Br25  1  0.60512200  0.51152400  0.91597200  1
  Br  Br26  1  0.60397100  0.00134900  0.93016400  1
  Br  Br27  1  0.86042900  0.70630700  0.97137000  1
loop_
_geom_bond_atom_site_label_1
_geom_bond_atom_site_label_2
_geom_bond_distance
_geom_bond_site_symmetry_2
Ba0 Br24 3.297886 1_554
Ba0 Br9 3.358328 1_555
Ba0 Br23 3.375484 1_554
Ba0 Br8 3.409795 1_565
Ba0 Br2 3.426446 1_555
Ba0 Br0 3.493868 1_555
Ba0 Br1 3.515866 1_555
Ba0 Br6 3.520508 1_555
Ba0 Br22 3.564312 1_564
Ba1 Br10 3.301652 1_555
Ba1 Br5 3.402816 1_555
Ba1 Br7 3.417492 1_555
Ba1 Br4 3.434592 1_555
Ba1 Br2 3.437568 1_555
Ba1 Br25 3.441857 1_554
Ba1 Br26 3.457788 1_564
Ba1 Br1 3.551006 1_555
Ba1 Br13 3.582995 1_555
Ba2 Br3 3.301652 1_455
Ba2 Br8 3.402816 1_555
Ba2 Br6 3.417492 1_555
Ba2 Br9 3.434592 1_555
Ba2 Br11 3.437568 1_455
Ba2 Br16 3.441857 1_555
Ba2 Br15 3.457788 1_545
Ba2 Br12 3.551006 1_455
Ba2 Br0 3.582995 1_555
Ba3 Br17 3.297886 1_555
Ba3 Br4 3.358328 1_555
Ba3 Br18 3.375484 1_555
Ba3 Br5 3.409795 1_545
Ba3 Br11 3.426446 1_555
Ba3 Br13 3.493868 1_555
Ba3 Br12 3.515866 1_555
Ba3 Br7 3.520508 1_555
Ba3 Br19 3.564312 1_545
Ba4 Br10 3.297886 1_555
Ba4 Br23 3.358328 1_555
Ba4 Br9 3.375484 1_555
Ba4 Br22 3.409795 1_565
Ba4 Br16 3.426446 1_555
Ba4 Br14 3.493868 1_555
Ba4 Br15 3.515866 1_555
Ba4 Br20 3.520508 1_555
Ba4 Br8 3.564312 1_565
Ba5 Br24 3.301652 1_655
Ba5 Br19 3.402816 1_555
Ba5 Br21 3.417492 1_555
Ba5 Br18 3.434592 1_555
Ba5 Br16 3.437568 1_655
Ba5 Br11 3.441857 1_555
Ba5 Br12 3.457788 1_565
Ba5 Br15 3.551006 1_655
Ba5 Br27 3.582995 1_555
Ba6 Br17 3.301652 1_555
Ba6 Br22 3.402816 1_555
Ba6 Br20 3.417492 1_555
Ba6 Br23 3.434592 1_555
Ba6 Br25 3.437568 1_555
Ba6 Br2 3.441857 1_556
Ba6 Br1 3.457788 1_546
Ba6 Br26 3.551006 1_555
Ba6 Br14 3.582995 1_555
Ba7 Br3 3.297886 1_556
Ba7 Br18 3.358328 1_555
Ba7 Br4 3.375484 1_556
Ba7 Br19 3.409795 1_545
Ba7 Br25 3.426446 1_555
Ba7 Br27 3.493868 1_555
Ba7 Br26 3.515866 1_555
Ba7 Br21 3.520508 1_555
Ba7 Br5 3.564312 1_546
Br0 Y3 2.851699 1_554
Br1 Y1 2.911827 1_565
Br2 Y1 2.993279 1_555
Br3 Y0 2.909038 1_545
Br4 Y0 2.972670 1_555
Br5 Y0 2.905623 1_555
Br6 Y0 2.850200 1_455
Br7 Y1 2.850200 1_555
Br8 Y1 2.905623 1_555
Br9 Y1 2.972670 1_555
Br10 Y1 2.909038 1_565
Br11 Y0 2.993279 1_555
Br12 Y0 2.911827 1_545
Br13 Y2 2.851699 1_555
Br14 Y1 2.851699 1_555
Br15 Y3 2.911827 1_565
Br16 Y3 2.993279 1_555
Br17 Y2 2.909038 1_545
Br18 Y2 2.972670 1_555
Br19 Y2 2.905623 1_555
Br20 Y2 2.850200 1_555
Br21 Y3 2.850200 1_655
Br22 Y3 2.905623 1_555
Br23 Y3 2.972670 1_555
Br24 Y3 2.909038 1_565
Br25 Y2 2.993279 1_555
Br26 Y2 2.911827 1_545
Br27 Y0 2.851699 1_556
