# generated using pymatgen
data_Sr2CaI6
_symmetry_space_group_name_H-M   'P 1'
_cell_length_a   7.92110400
_cell_length_b   8.42610000
_cell_length_c   24.20974968
_cell_angle_alpha   89.12878941
_cell_angle_beta   90.00000000
_cell_angle_gamma   90.00000000
_symmetry_Int_Tables_number   1
_chemical_formula_structural   Sr2CaI6
_chemical_formula_sum   'Sr8 Ca4 I24'
_cell_volume   1615.66908647
_cell_formula_units_Z   4
loop_
 _symmetry_equiv_pos_site_id
 _symmetry_equiv_pos_as_xyz
  1  'x, y, z'
loop_
 _atom_site_type_symbol
 _atom_site_label
 _atom_site_symmetry_multiplicity
 _atom_site_fract_x
 _atom_site_fract_y
 _atom_site_fract_z
 _atom_site_occupancy
  Sr  Sr0  1  0.55549800  0.23055800  0.73964200  1
  Sr  Sr1  1  0.98317600  0.33799500  0.90811000  1
  Sr  Sr2  1  0.94450200  0.23055800  0.23964200  1
  Sr  Sr3  1  0.51682400  0.33799500  0.40811000  1
  Sr  Sr4  1  0.48317600  0.66200500  0.59189000  1
  Sr  Sr5  1  0.05549800  0.76944200  0.76035800  1
  Sr  Sr6  1  0.01682400  0.66200500  0.09189000  1
  Sr  Sr7  1  0.44450200  0.76944200  0.26035800  1
  Ca  Ca0  1  0.03131600  0.14041300  0.58622900  1
  Ca  Ca1  1  0.46868400  0.14041300  0.08622900  1
  Ca  Ca2  1  0.53131600  0.85958700  0.91377100  1
  Ca  Ca3  1  0.96868400  0.85958700  0.41377100  1
  I  I0  1  0.79940400  0.01917800  0.82677100  1
  I  I1  1  0.29473400  0.10534500  0.84410900  1
  I  I2  1  0.70497800  0.13273600  0.98314300  1
  I  I3  1  0.70059600  0.01917800  0.32677100  1
  I  I4  1  0.20526600  0.10534500  0.34410900  1
  I  I5  1  0.79502200  0.13273600  0.48314300  1
  I  I6  1  0.29018100  0.36287800  0.52434500  1
  I  I7  1  0.76531700  0.38788700  0.63531900  1
  I  I8  1  0.25637800  0.47947700  0.69213600  1
  I  I9  1  0.75637800  0.52052300  0.80786400  1
  I  I10  1  0.20981900  0.36287800  0.02434500  1
  I  I11  1  0.26531700  0.61211300  0.86468100  1
  I  I12  1  0.73468300  0.38788700  0.13531900  1
  I  I13  1  0.79018100  0.63712200  0.97565500  1
  I  I14  1  0.24362200  0.47947700  0.19213600  1
  I  I15  1  0.74362200  0.52052300  0.30786400  1
  I  I16  1  0.23468300  0.61211300  0.36468100  1
  I  I17  1  0.70981900  0.63712200  0.47565500  1
  I  I18  1  0.20497800  0.86726400  0.51685700  1
  I  I19  1  0.79473400  0.89465500  0.65589100  1
  I  I20  1  0.29940400  0.98082200  0.67322900  1
  I  I21  1  0.29502200  0.86726400  0.01685700  1
  I  I22  1  0.70526600  0.89465500  0.15589100  1
  I  I23  1  0.20059600  0.98082200  0.17322900  1
loop_
_geom_bond_atom_site_label_1
_geom_bond_atom_site_label_2
_geom_bond_distance
_geom_bond_site_symmetry_2
Ca0 I5 3.121032 1_455
Ca0 I6 3.142853 1_555
Ca0 I18 3.182410 1_545
Ca0 I7 3.205541 1_455
Ca0 I19 3.246237 1_445
Ca0 I20 3.266179 1_545
Ca1 I2 3.121032 1_554
Ca1 I10 3.142853 1_555
Ca1 I21 3.182410 1_545
Ca1 I12 3.205541 1_555
Ca1 I22 3.246237 1_545
Ca1 I23 3.266179 1_545
Ca2 I21 3.121032 1_556
Ca2 I13 3.142853 1_555
Ca2 I2 3.182410 1_565
Ca2 I11 3.205541 1_555
Ca2 I1 3.246237 1_565
Ca2 I0 3.266179 1_565
Ca3 I18 3.121032 1_655
Ca3 I17 3.142853 1_555
Ca3 I5 3.182410 1_565
Ca3 I16 3.205541 1_655
Ca3 I4 3.246237 1_665
Ca3 I3 3.266179 1_565
I0 Sr5 3.351288 1_645
I0 Sr0 3.352639 1_555
I0 Sr1 3.657083 1_555
I1 Sr0 3.419781 1_555
I1 Sr1 3.525125 1_455
I1 Sr5 3.985926 1_545
I2 Sr1 3.324385 1_555
I3 Sr7 3.351288 1_545
I3 Sr2 3.352639 1_555
I3 Sr3 3.657083 1_555
I4 Sr2 3.419781 1_455
I4 Sr3 3.525125 1_555
I4 Sr7 3.985926 1_545
I5 Sr3 3.324385 1_555
I6 Sr3 3.347175 1_555
I6 Sr4 3.389570 1_555
I7 Sr0 3.285825 1_555
I7 Sr4 3.370633 1_555
I8 Sr0 3.355953 1_555
I8 Sr5 3.369288 1_555
I8 Sr4 3.371840 1_555
I9 Sr5 3.355953 1_655
I9 Sr0 3.369288 1_555
I9 Sr1 3.371840 1_555
I10 Sr1 3.347175 1_454
I10 Sr6 3.389570 1_555
I11 Sr5 3.285825 1_555
I11 Sr1 3.370633 1_455
I12 Sr2 3.285825 1_555
I12 Sr6 3.370633 1_655
I13 Sr6 3.347175 1_656
I13 Sr1 3.389570 1_555
I14 Sr2 3.355953 1_455
I14 Sr7 3.369288 1_555
I14 Sr6 3.371840 1_555
I15 Sr7 3.355953 1_555
I15 Sr2 3.369288 1_555
I15 Sr3 3.371840 1_555
I16 Sr7 3.285825 1_555
I16 Sr3 3.370633 1_555
I17 Sr4 3.347175 1_555
I17 Sr3 3.389570 1_555
I18 Sr4 3.324385 1_555
I19 Sr5 3.419781 1_655
I19 Sr4 3.525125 1_555
I19 Sr0 3.985926 1_565
I20 Sr0 3.351288 1_565
I20 Sr5 3.352639 1_555
I20 Sr4 3.657083 1_555
I21 Sr6 3.324385 1_555
I22 Sr7 3.419781 1_555
I22 Sr6 3.525125 1_655
I22 Sr2 3.985926 1_565
I23 Sr2 3.351288 1_465
I23 Sr7 3.352639 1_555
I23 Sr6 3.657083 1_555
