# generated using pymatgen
data_Li4Nb3Fe5O16
_symmetry_space_group_name_H-M   'P 1'
_cell_length_a   6.12379715
_cell_length_b   6.12379715
_cell_length_c   9.84656547
_cell_angle_alpha   89.57912841
_cell_angle_beta   89.57912841
_cell_angle_gamma   59.79402517
_symmetry_Int_Tables_number   1
_chemical_formula_structural   Li4Nb3Fe5O16
_chemical_formula_sum   'Li4 Nb3 Fe5 O16'
_cell_volume   319.10695137
_cell_formula_units_Z   1
loop_
 _symmetry_equiv_pos_site_id
 _symmetry_equiv_pos_as_xyz
  1  'x, y, z'
loop_
 _atom_site_type_symbol
 _atom_site_label
 _atom_site_symmetry_multiplicity
 _atom_site_fract_x
 _atom_site_fract_y
 _atom_site_fract_z
 _atom_site_occupancy
  Li  Li0  1  0.67147800  0.67147800  0.90000400  1
  Li  Li1  1  0.00526100  0.00526100  0.00179600  1
  Li  Li2  1  0.01246300  0.01246300  0.49176600  1
  Li  Li3  1  0.33606100  0.33606100  0.38278300  1
  Nb  Nb0  1  0.82724900  0.82724900  0.21780400  1
  Nb  Nb1  1  0.66353600  0.16866700  0.71541800  1
  Nb  Nb2  1  0.16866700  0.66353600  0.71541800  1
  Fe  Fe0  1  0.82416500  0.34045200  0.21314300  1
  Fe  Fe1  1  0.65476100  0.65476100  0.48662600  1
  Fe  Fe2  1  0.34045200  0.82416500  0.21314300  1
  Fe  Fe3  1  0.17073800  0.17073800  0.71890300  1
  Fe  Fe4  1  0.32323800  0.32323800  0.00274100  1
  O  O0  1  0.83004900  0.31311300  0.60467500  1
  O  O1  1  0.51562500  0.51562500  0.32711000  1
  O  O2  1  0.67078000  0.67078000  0.10123300  1
  O  O3  1  0.99727400  0.99727400  0.30842800  1
  O  O4  1  0.98976900  0.98976900  0.81959100  1
  O  O5  1  0.31311300  0.83004900  0.60467500  1
  O  O6  1  0.96669400  0.52127200  0.33238000  1
  O  O7  1  0.52127200  0.96669400  0.33238000  1
  O  O8  1  0.16084900  0.16084900  0.10018600  1
  O  O9  1  0.83911800  0.83911800  0.60493400  1
  O  O10  1  0.49078700  0.04772200  0.84486000  1
  O  O11  1  0.04772200  0.49078700  0.84486000  1
  O  O12  1  0.34625200  0.34625200  0.59881000  1
  O  O13  1  0.66991300  0.15644700  0.09743300  1
  O  O14  1  0.48658100  0.48658100  0.83071600  1
  O  O15  1  0.15644700  0.66991300  0.09743300  1
loop_
_geom_bond_atom_site_label_1
_geom_bond_atom_site_label_2
_geom_bond_distance
_geom_bond_site_symmetry_2
Li0 O2 1.981366 1_556
Li0 O11 2.062267 1_655
Li0 O10 2.062267 1_565
Li0 O14 2.083807 1_555
Li1 O4 1.803006 1_444
Li1 O8 1.922179 1_555
Li1 O15 2.008114 1_545
Li1 O13 2.008114 1_455
Li2 O3 1.813800 1_445
Li2 O5 1.953449 1_545
Li2 O0 1.953449 1_455
Li2 O9 2.143476 1_445
Li3 O1 1.979336 1_555
Li3 O6 2.018868 1_455
Li3 O7 2.018868 1_545
Li3 O12 2.130790 1_555
Nb0 O7 1.971292 1_555
Nb0 O6 1.971292 1_555
Nb0 O3 2.020541 1_555
Nb0 O2 2.027283 1_555
Nb0 O13 2.103422 1_565
Nb0 O15 2.103422 1_655
Nb1 O0 1.971890 1_555
Nb1 O10 2.011683 1_555
Nb1 O4 2.013662 1_545
Nb1 O14 2.035914 1_555
Nb1 O12 2.040703 1_555
Nb1 O9 2.060090 1_545
Nb2 O5 1.971890 1_555
Nb2 O11 2.011683 1_555
Nb2 O4 2.013662 1_455
Nb2 O14 2.035914 1_555
Nb2 O12 2.040703 1_555
Nb2 O9 2.060090 1_455
Fe0 O1 1.981688 1_555
Fe0 O3 2.040721 1_545
Fe0 O2 2.063751 1_555
Fe0 O6 2.091179 1_555
Fe0 O8 2.097671 1_655
Fe0 O13 2.136768 1_555
Fe1 O5 2.145559 1_555
Fe1 O0 2.145559 1_555
Fe1 O1 2.165365 1_555
Fe1 O7 2.242381 1_555
Fe1 O6 2.242381 1_555
Fe1 O9 2.286331 1_555
Fe2 O1 1.981688 1_555
Fe2 O3 2.040721 1_455
Fe2 O2 2.063751 1_555
Fe2 O7 2.091179 1_555
Fe2 O8 2.097671 1_565
Fe2 O15 2.136768 1_555
Fe3 O11 2.117385 1_555
Fe3 O10 2.117385 1_555
Fe3 O0 2.137213 1_455
Fe3 O5 2.137213 1_545
Fe3 O4 2.154699 1_445
Fe3 O12 2.198595 1_555
Fe4 O8 1.966080 1_555
Fe4 O13 2.062233 1_555
Fe4 O15 2.062233 1_555
Fe4 O10 2.142275 1_554
Fe4 O11 2.142275 1_554
Fe4 O14 2.413973 1_554
